data_PCOD9412464
_publ_section_title
;
Structure prediction by ZEFSAII (Michael W. Deem and Ramdas Pophale) SiO2 
 PCOD9412464
Probable space group: P N N A
;
_chemical_formula_sum "Si O2"
_cell_formula_units_Z 32
_cell_length_a 14.715941
_cell_length_b 16.799408
_cell_length_c 5.837771
_cell_angle_alpha 90.000000
_cell_angle_beta 90.000000
_cell_angle_gamma 90.000000
_cell_volume 1443.208475
_symmetry_space_group_name_H-M "P N N A"
_symmetry_group_IT_number 52
_symmetry_cell_setting 'orthorhombic'
loop_
_space_group_symop_operation_xyz
x,y,z
1/2-x,-y,z
x,1/2-y,1/2-z
1/2-x,1/2+y,1/2-z
-x,-y,-z
1/2+x,y,-z
-x,1/2+y,1/2+z
1/2+x,1/2-y,1/2+z
loop_
_atom_site_type_symbol
_atom_site_label
_atom_site_fract_x
_atom_site_fract_y
_atom_site_fract_z
Si Si1 0.304497 0.581713 0.691933
Si Si2 0.001169 0.897375 0.410471
Si Si3 0.798668 0.250000 0.250000
Si Si4 0.565306 0.042825 0.816855
Si Si5 0.602662 0.750000 0.750000
O O1 0.250000 0.500000 0.742792
O O2 0.398017 0.588162 0.831811
O O3 0.253372 0.664669 0.734529
O O4 0.342665 0.571804 0.431180
O O5 0.990366 0.888889 0.683890
O O6 0.038841 0.826198 0.264169
O O7 0.070240 0.969945 0.362218
O O8 0.846401 0.248087 0.503192
O O9 0.500000 0.000000 0.000000
#
# Coordination Sequence:
#
# PCOD9412464 Si02
#       5
#     8   8   4   8   4
#     4  11  25  45  73 108 152 194 247 321 394 450
#     4  10  23  44  75 104 144 203 255 311 375 471
#     4  12  31  48  71 116 154 198 256 324 383 454
#     4   9  21  41  73 104 137 191 256 295 381 453
#     4  12  29  48  73 106 156 200 260 308 377 460
#
# _framework density 22.172816999999998
#
# number of rings (size 3 to 8) (size 9 to 14) (size 15 to 20)
#    0.000    1.500    0.000    2.250   21.000    1.000 
#    0.000    0.000    0.000    0.000    0.000    0.000 
#    0.000    0.000    0.000    0.000    0.000    0.000 
#
# Total GULP energy -178138.777343 kJ/mol
# GULP energy per Si atom -5566.836792 kJ/mol
# Density = 2.212235 g / cm^3
# Si number density = 22.172817 Si / 1000 Ang^3
#
#
#
# Elastic Constant Matrix: (Units=GPa)
#
#
# Indices 1 2 3 4 5 6 
#
# 1 110.1261 92.7578 78.2107 0.0000 0.0000 0.0000
# 2 92.7578 175.4518 65.0976 0.0000 0.0000 0.0000
# 3 78.2107 65.0976 146.1671 0.0000 0.0000 0.0000
# 4 0.0000 0.0000 0.0000 38.0993 0.0000 0.0000
# 5 0.0000 0.0000 0.0000 0.0000 -0.5923 0.0000
# 6 0.0000 0.0000 0.0000 0.0000 0.0000 47.3271
#
#
#
# Elastic Compliance Matrix: (Units=1/GPa)
#
#
# Indices 1 2 3 4 5 6 
#
# 1 0.022042 -0.008718 -0.007912 0.000000 0.000000 0.000000
# 2 -0.008718 0.010276 0.000088 0.000000 0.000000 0.000000
# 3 -0.007912 0.000088 0.011036 0.000000 0.000000 0.000000
# 4 0.000000 0.000000 0.000000 0.026247 0.000000 0.000000
# 5 0.000000 0.000000 0.000000 0.000000 -1.688365 0.000000
# 6 0.000000 0.000000 0.000000 0.000000 0.000000 0.021130
#
#
# Mechanical properties :
#
#
# Convention : Reuss Voigt Hill
#
# Bulk Modulus (GPa) = 97.36133 100.43081 98.89607
# Shear Modulus (GPa) = -3.20281 30.01208 13.40463
#
# Velocity S-wave (km/s) = -1.20317 3.68306 2.46143
# Velocity P-wave (km/s) = 6.48656 7.96740 7.26481
#
# Compressibility (1/GPa) = 0.01027102
#
# Stress axis : x y z
#
# Youngs Moduli (GPa) = 45.36751 97.31641 90.61631
#
# Poissons Ratio (x) = 0.84839 0.71693
# Poissons Ratio (y) = 0.39551 -0.00800
# Poissons Ratio (z) = 0.35893 -0.00859
#
# Static dielectric constant tensor:
#      x y z
#    x 1.812530 0.000000 0.000000 
#    y 0.000000 1.907150 0.000000 
#    z 0.000000 0.000000 2.084480 
# 
# From -- ./inp_files/1957.got.cif
#   From: 2010.05.17/outbox.cif.g08.bks.cpg/sg52_1_cif.got.tgz:1957.got - 2010.06.03 12:15:38.
