data_PCOD9412749
_publ_section_title
;
Structure prediction by ZEFSAII (Michael W. Deem and Ramdas Pophale) SiO2 
 PCOD9412749
Probable space group: P N N A
;
_chemical_formula_sum "Si O2"
_cell_formula_units_Z 48
_cell_length_a 15.315024
_cell_length_b 13.738631
_cell_length_c 9.396027
_cell_angle_alpha 90.000000
_cell_angle_beta 90.000000
_cell_angle_gamma 90.000000
_cell_volume 1976.994208
_symmetry_space_group_name_H-M "P N N A"
_symmetry_group_IT_number 52
_symmetry_cell_setting 'orthorhombic'
loop_
_space_group_symop_operation_xyz
x,y,z
1/2-x,-y,z
x,1/2-y,1/2-z
1/2-x,1/2+y,1/2-z
-x,-y,-z
1/2+x,y,-z
-x,1/2+y,1/2+z
1/2+x,1/2-y,1/2+z
loop_
_atom_site_type_symbol
_atom_site_label
_atom_site_fract_x
_atom_site_fract_y
_atom_site_fract_z
Si Si1 0.662360 0.550908 0.790165
Si Si2 0.649875 0.188319 0.009769
Si Si3 0.972125 0.543446 0.333653
Si Si4 0.773755 0.250000 0.250000
Si Si5 0.919989 0.906562 0.484617
Si Si6 0.939018 0.146563 0.295435
Si Si7 0.259246 0.250000 0.250000
O O1 0.750000 0.500000 0.730438
O O2 0.576980 0.550447 0.687342
O O3 0.683203 0.664410 0.821138
O O4 0.861758 0.517488 0.925877
O O5 0.575949 0.109895 0.049899
O O6 0.718848 0.188364 0.138768
O O7 0.615199 0.202106 0.489375
O O8 0.699847 0.189427 0.860282
O O9 0.944740 0.430041 0.333059
O O10 0.933864 0.575460 0.180715
O O11 0.840131 0.176187 0.327998
O O12 0.981095 0.250000 0.250000
O O13 0.989950 0.101473 0.427359
#
# Coordination Sequence:
#
# PCOD9412749 Si02
#       7
#     8   8   8   4   8   8   4
#     4  11  25  48  78 117 150 213 266 334 396 483
#     4  12  26  48  77 116 159 207 262 335 398 481
#     4  11  25  47  79 116 155 205 272 325 402 492
#     4  10  24  46  74 110 152 212 254 332 390 470
#     4  11  23  45  79 114 156 205 264 326 413 472
#     4   9  23  43  72 111 155 207 253 327 403 473
#     4  12  30  48  78 112 172 208 274 338 406 480
#
# _framework density 24.279283
#
# number of rings (size 3 to 8) (size 9 to 14) (size 15 to 20)
#    0.500    0.667    3.333    2.000    8.167    0.667 
#    3.000    1.667    0.000    0.000    0.000    0.000 
#    0.000    0.000    0.000    0.000    0.000    0.000 
#
# Total GULP energy -268196.679512 kJ/mol
# GULP energy per Si atom -5587.430823 kJ/mol
# Density = 2.422402 g / cm^3
# Si number density = 24.279283 Si / 1000 Ang^3
#
#
#
# Elastic Constant Matrix: (Units=GPa)
#
#
# Indices 1 2 3 4 5 6 
#
# 1 130.7802 53.4910 40.2902 0.0000 0.0000 0.0000
# 2 53.4910 191.7405 48.2036 0.0000 0.0000 0.0000
# 3 40.2902 48.2036 127.3571 0.0000 0.0000 0.0000
# 4 0.0000 0.0000 0.0000 28.9061 0.0000 0.0000
# 5 0.0000 0.0000 0.0000 0.0000 525.4444 0.0000
# 6 0.0000 0.0000 0.0000 0.0000 0.0000 50.5764
#
#
#
# Elastic Compliance Matrix: (Units=1/GPa)
#
#
# Indices 1 2 3 4 5 6 
#
# 1 0.009124 -0.002011 -0.002125 0.000000 0.000000 0.000000
# 2 -0.002011 0.006207 -0.001713 0.000000 0.000000 0.000000
# 3 -0.002125 -0.001713 0.009173 0.000000 0.000000 0.000000
# 4 0.000000 0.000000 0.000000 0.034595 0.000000 0.000000
# 5 0.000000 0.000000 0.000000 0.000000 0.001903 0.000000
# 6 0.000000 0.000000 0.000000 0.000000 0.000000 0.019772
#
#
# Mechanical properties :
#
#
# Convention : Reuss Voigt Hill
#
# Bulk Modulus (GPa) = 78.09592 81.53858 79.81725
# Shear Modulus (GPa) = 51.68478 141.51158 96.59818
#
# Velocity S-wave (km/s) = 4.61885 7.64274 6.31448
# Velocity P-wave (km/s) = 7.78977 10.56118 9.27952
#
# Compressibility (1/GPa) = 0.01280477
#
# Stress axis : x y z
#
# Youngs Moduli (GPa) = 109.60510 161.10614 109.01969
#
# Poissons Ratio (x) = 0.32399 0.23169
# Poissons Ratio (y) = 0.22042 0.18677
# Poissons Ratio (z) = 0.23293 0.27600
#
# Static dielectric constant tensor:
#      x y z
#    x 1.992660 0.000000 0.000000 
#    y 0.000000 1.981580 0.000000 
#    z 0.000000 0.000000 1.921220 
# 
# From -- ./inp_files/19573.got.cif
#   From: 2010.05.17/outbox.cif.g08.bks.cpg/sg52_10_cif.got.tgz:19573.got - 2010.06.03 12:15:38.
