data_PCOD9412452
_publ_section_title
;
Structure prediction by ZEFSAII (Michael W. Deem and Ramdas Pophale) SiO2 
 PCOD9412452
Probable space group: P N N A
;
_chemical_formula_sum "Si O2"
_cell_formula_units_Z 48
_cell_length_a 9.080102
_cell_length_b 7.827722
_cell_length_c 30.330953
_cell_angle_alpha 90.000000
_cell_angle_beta 90.000000
_cell_angle_gamma 90.000000
_cell_volume 2155.818411
_symmetry_space_group_name_H-M "P N N A"
_symmetry_group_IT_number 52
_symmetry_cell_setting 'orthorhombic'
loop_
_space_group_symop_operation_xyz
x,y,z
1/2-x,-y,z
x,1/2-y,1/2-z
1/2-x,1/2+y,1/2-z
-x,-y,-z
1/2+x,y,-z
-x,1/2+y,1/2+z
1/2+x,1/2-y,1/2+z
loop_
_atom_site_type_symbol
_atom_site_label
_atom_site_fract_x
_atom_site_fract_y
_atom_site_fract_z
Si Si1 0.031215 0.730375 0.602007
Si Si2 0.250000 0.000000 0.216379
Si Si3 0.980640 0.750000 0.750000
Si Si4 0.129128 0.871923 0.514316
Si Si5 0.715826 0.705610 0.577476
Si Si6 0.214656 0.682373 0.821318
Si Si7 0.993123 0.367588 0.649241
O O1 0.082086 0.737320 0.551465
O O2 0.135616 0.845686 0.631809
O O3 0.037895 0.546057 0.625683
O O4 0.860936 0.784227 0.599923
O O5 0.132912 0.094510 0.247241
O O6 0.357082 0.106017 0.183235
O O7 0.089122 0.765064 0.791188
O O8 0.189736 0.778471 0.470896
O O9 0.250000 0.000000 0.533400
O O10 0.000000 0.000000 0.500000
O O11 0.750000 0.500000 0.575726
O O12 0.575699 0.737468 0.608480
O O13 0.250000 0.500000 0.800285
O O14 0.363998 0.787243 0.828176
#
# Coordination Sequence:
#
# PCOD9412452 Si02
#       7
#     8   4   4   8   8   8   8
#     4  11  23  47  67 103 146 197 241 296 376 432
#     4  12  26  52  78 110 146 196 246 296 378 446
#     4  12  30  50  76 110 146 194 246 308 378 446
#     4  12  26  43  66 103 147 191 243 315 362 428
#     4  10  23  44  70  99 136 200 250 295 361 441
#     4  12  29  45  74 112 146 187 244 313 381 445
#     4  11  24  48  77 102 148 192 244 306 363 457
#
# _framework density 22.265328
#
# number of rings (size 3 to 8) (size 9 to 14) (size 15 to 20)
#    0.000    0.667    5.833    1.000    9.333    4.000 
#    0.000    0.000    0.000    0.000    0.000    0.000 
#    0.000    0.000    0.000    0.000    0.000    0.000 
#
# Total GULP energy -268205.341002 kJ/mol
# GULP energy per Si atom -5587.611271 kJ/mol
# Density = 2.221465 g / cm^3
# Si number density = 22.265328 Si / 1000 Ang^3
#
#
#
# Elastic Constant Matrix: (Units=GPa)
#
#
# Indices 1 2 3 4 5 6 
#
# 1 174.1764 48.2211 61.1387 0.0000 0.0000 0.0000
# 2 48.2211 42.5956 15.1626 0.0000 0.0000 0.0000
# 3 61.1387 15.1626 89.5469 0.0000 0.0000 0.0000
# 4 0.0000 0.0000 0.0000 21.7600 0.0000 0.0000
# 5 0.0000 0.0000 0.0000 0.0000 6.5017 0.0000
# 6 0.0000 0.0000 0.0000 0.0000 0.0000 33.4152
#
#
#
# Elastic Compliance Matrix: (Units=1/GPa)
#
#
# Indices 1 2 3 4 5 6 
#
# 1 0.010351 -0.009793 -0.005409 0.000000 0.000000 0.000000
# 2 -0.009793 0.034247 0.000887 0.000000 0.000000 0.000000
# 3 -0.005409 0.000887 0.014710 0.000000 0.000000 0.000000
# 4 0.000000 0.000000 0.000000 0.045956 0.000000 0.000000
# 5 0.000000 0.000000 0.000000 0.000000 0.153806 0.000000
# 6 0.000000 0.000000 0.000000 0.000000 0.000000 0.029926
#
#
# Mechanical properties :
#
#
# Convention : Reuss Voigt Hill
#
# Bulk Modulus (GPa) = 32.59578 61.70707 47.15143
# Shear Modulus (GPa) = 15.25078 24.45516 19.85297
#
# Velocity S-wave (km/s) = 2.62001 3.31773 2.98930
# Velocity P-wave (km/s) = 4.88099 6.51545 5.75652
#
# Compressibility (1/GPa) = 0.03067882
#
# Stress axis : x y z
#
# Youngs Moduli (GPa) = 96.60777 29.19978 67.97986
#
# Poissons Ratio (x) = 0.28595 0.36771
# Poissons Ratio (y) = 0.94605 -0.06031
# Poissons Ratio (z) = 0.52256 -0.02590
#
# Static dielectric constant tensor:
#      x y z
#    x 1.750440 0.000000 0.000000 
#    y 0.000000 1.981530 0.000000 
#    z 0.000000 0.000000 1.835070 
# 
# From -- ./inp_files/44439.got.cif
#   From: 2010.05.17/outbox.cif.g08.bks.cpg/sg52_23_cif.got.tgz:44439.got - 2010.06.03 12:15:38.
