data_PCOD9412345
_publ_section_title
;
Structure prediction by ZEFSAII (Michael W. Deem and Ramdas Pophale) SiO2 
 PCOD9412345
Probable space group: P N N A
;
_chemical_formula_sum "Si O2"
_cell_formula_units_Z 32
_cell_length_a 14.571256
_cell_length_b 5.266221
_cell_length_c 16.896879
_cell_angle_alpha 90.000000
_cell_angle_beta 90.000000
_cell_angle_gamma 90.000000
_cell_volume 1296.589687
_symmetry_space_group_name_H-M "P N N A"
_symmetry_group_IT_number 52
_symmetry_cell_setting 'orthorhombic'
loop_
_space_group_symop_operation_xyz
x,y,z
1/2-x,-y,z
x,1/2-y,1/2-z
1/2-x,1/2+y,1/2-z
-x,-y,-z
1/2+x,y,-z
-x,1/2+y,1/2+z
1/2+x,1/2-y,1/2+z
loop_
_atom_site_type_symbol
_atom_site_label
_atom_site_fract_x
_atom_site_fract_y
_atom_site_fract_z
Si Si1 0.250000 0.000000 0.512883
Si Si2 0.422130 0.772648 0.950560
Si Si3 0.309397 0.250000 0.250000
Si Si4 0.615990 0.839640 0.918386
Si Si5 0.860444 0.002150 0.201088
O O1 0.164079 0.091177 0.564079
O O2 0.294528 0.216774 0.458402
O O3 0.524837 0.676489 0.937787
O O4 0.407963 0.989405 0.884063
O O5 0.405652 0.898814 0.036140
O O6 0.250000 0.500000 0.227236
O O7 0.367305 0.158626 0.174479
O O8 0.885946 0.750000 0.250000
O O9 0.750000 0.000000 0.190272
O O10 0.886217 0.250000 0.250000
#
# Coordination Sequence:
#
# PCOD9412345 Si02
#       5
#     4   8   4   8   8
#     4  12  22  46  78 104 150 198 252 320 384 464
#     4  11  26  45  73 110 148 202 257 320 389 458
#     4  12  26  52  80 112 156 208 256 320 392 462
#     4  11  26  47  73 112 149 202 260 318 383 469
#     4  10  23  42  67 102 145 198 248 304 377 454
#
# _framework density 24.680128
#
# number of rings (size 3 to 8) (size 9 to 14) (size 15 to 20)
#    0.000    1.000    1.250    4.500   10.500    0.000 
#    2.250    0.000    0.000    0.000    0.000    0.000 
#    0.000    0.000    0.000    0.000    0.000    0.000 
#
# Total GULP energy -179231.960641 kJ/mol
# GULP energy per Si atom -5600.998770 kJ/mol
# Density = 2.462395 g / cm^3
# Si number density = 24.680128 Si / 1000 Ang^3
#
#
#
# Elastic Constant Matrix: (Units=GPa)
#
#
# Indices 1 2 3 4 5 6 
#
# 1 143.7300 20.1909 30.5149 0.0000 0.0000 0.0000
# 2 20.1909 97.0950 30.7035 0.0000 0.0000 0.0000
# 3 30.5149 30.7035 142.1101 0.0000 0.0000 0.0000
# 4 0.0000 0.0000 0.0000 14.1020 0.0000 0.0000
# 5 0.0000 0.0000 0.0000 0.0000 21.2069 0.0000
# 6 0.0000 0.0000 0.0000 0.0000 0.0000 25.6530
#
#
#
# Elastic Compliance Matrix: (Units=1/GPa)
#
#
# Indices 1 2 3 4 5 6 
#
# 1 0.007400 -0.001112 -0.001349 0.000000 0.000000 0.000000
# 2 -0.001112 0.011222 -0.002186 0.000000 0.000000 0.000000
# 3 -0.001349 -0.002186 0.007799 0.000000 0.000000 0.000000
# 4 0.000000 0.000000 0.000000 0.070912 0.000000 0.000000
# 5 0.000000 0.000000 0.000000 0.000000 0.047154 0.000000
# 6 0.000000 0.000000 0.000000 0.000000 0.000000 0.038982
#
#
# Mechanical properties :
#
#
# Convention : Reuss Voigt Hill
#
# Bulk Modulus (GPa) = 58.38731 60.63930 59.51331
# Shear Modulus (GPa) = 25.19264 32.29411 28.74337
#
# Velocity S-wave (km/s) = 3.19841 3.62125 3.41638
# Velocity P-wave (km/s) = 6.11136 6.48907 6.30305
#
# Compressibility (1/GPa) = 0.01712701
#
# Stress axis : x y z
#
# Youngs Moduli (GPa) = 135.13361 89.11345 128.22803
#
# Poissons Ratio (x) = 0.09913 0.17294
# Poissons Ratio (y) = 0.15032 0.28026
# Poissons Ratio (z) = 0.18225 0.19477
#
# Static dielectric constant tensor:
#      x y z
#    x 1.985600 0.000000 0.000000 
#    y 0.000000 2.064730 0.000000 
#    z 0.000000 0.000000 1.931190 
# 
# From -- ./inp_files/32634.got.cif
#   From: 2010.05.17/outbox.cif.g08.bks.cpg/sg52_17_cif.got.tgz:32634.got - 2010.06.03 12:15:38.
