data_PCOD9412040
_publ_section_title
;
Structure prediction by ZEFSAII (Michael W. Deem and Ramdas Pophale) SiO2 
 PCOD9412040
Probable space group: P N N A
;
_chemical_formula_sum "Si O2"
_cell_formula_units_Z 40
_cell_length_a 19.125054
_cell_length_b 5.317125
_cell_length_c 14.906600
_cell_angle_alpha 90.000000
_cell_angle_beta 90.000000
_cell_angle_gamma 90.000000
_cell_volume 1515.856667
_symmetry_space_group_name_H-M "P N N A"
_symmetry_group_IT_number 52
_symmetry_cell_setting 'orthorhombic'
loop_
_space_group_symop_operation_xyz
x,y,z
1/2-x,-y,z
x,1/2-y,1/2-z
1/2-x,1/2+y,1/2-z
-x,-y,-z
1/2+x,y,-z
-x,1/2+y,1/2+z
1/2+x,1/2-y,1/2+z
loop_
_atom_site_type_symbol
_atom_site_label
_atom_site_fract_x
_atom_site_fract_y
_atom_site_fract_z
Si Si1 0.546699 0.369060 0.352254
Si Si2 0.250000 0.500000 0.826757
Si Si3 0.381023 0.250000 0.750000
Si Si4 0.333094 0.664887 0.338262
Si Si5 0.671197 0.178388 0.473557
Si Si6 0.397455 0.158295 0.393385
O O1 0.548351 0.250000 0.250000
O O2 0.568361 0.655192 0.328230
O O3 0.604324 0.293228 0.425109
O O4 0.474346 0.277129 0.395116
O O5 0.322158 0.456684 0.776316
O O6 0.269271 0.709057 0.899062
O O7 0.292933 0.750000 0.250000
O O8 0.299512 0.713991 0.434215
O O9 0.356859 0.379229 0.341887
O O10 0.394011 0.884793 0.343760
O O11 0.639822 0.911429 0.512101
#
# Coordination Sequence:
#
# PCOD9412040 Si02
#       6
#     8   4   4   8   8   8
#     4  12  24  44  66 113 141 197 236 308 390 453
#     4  12  24  52  64 106 142 204 250 306 350 464
#     4  12  28  42  78  96 160 194 254 302 396 452
#     4  10  22  43  68 106 139 194 234 301 378 433
#     4  10  26  42  72  99 145 193 256 297 373 435
#     4  10  25  42  72 105 148 186 240 310 374 451
#
# _framework density 26.387719000000001
#
# number of rings (size 3 to 8) (size 9 to 14) (size 15 to 20)
#    1.200    0.000    2.000    3.600    7.000    0.800 
#    0.000    0.000    4.400    0.000    0.000    0.000 
#    0.000    0.000    0.000    0.000    0.000    0.000 
#
# Total GULP energy -222703.207488 kJ/mol
# GULP energy per Si atom -5567.580187 kJ/mol
# Density = 2.632766 g / cm^3
# Si number density = 26.387719 Si / 1000 Ang^3
#
#
#
# Elastic Constant Matrix: (Units=GPa)
#
#
# Indices 1 2 3 4 5 6 
#
# 1 143.0539 43.3642 12.1974 0.0000 0.0000 0.0000
# 2 43.3642 137.5388 36.3993 0.0000 0.0000 0.0000
# 3 12.1974 36.3993 97.4516 0.0000 0.0000 0.0000
# 4 0.0000 0.0000 0.0000 51.5243 0.0000 0.0000
# 5 0.0000 0.0000 0.0000 0.0000 -0.8647 0.0000
# 6 0.0000 0.0000 0.0000 0.0000 0.0000 24.7654
#
#
#
# Elastic Compliance Matrix: (Units=1/GPa)
#
#
# Indices 1 2 3 4 5 6 
#
# 1 0.007729 -0.002420 -0.000063 0.000000 0.000000 0.000000
# 2 -0.002420 0.008826 -0.002994 0.000000 0.000000 0.000000
# 3 -0.000063 -0.002994 0.011388 0.000000 0.000000 0.000000
# 4 0.000000 0.000000 0.000000 0.019408 0.000000 0.000000
# 5 0.000000 0.000000 0.000000 0.000000 -1.156514 0.000000
# 6 0.000000 0.000000 0.000000 0.000000 0.000000 0.040379
#
#
# Mechanical properties :
#
#
# Convention : Reuss Voigt Hill
#
# Bulk Modulus (GPa) = 58.86391 62.44069 60.65230
# Shear Modulus (GPa) = -4.75210 34.15724 14.70257
#
# Velocity S-wave (km/s) = -1.34342 3.60173 2.36302
# Velocity P-wave (km/s) = 4.46647 6.40397 5.52088
#
# Compressibility (1/GPa) = 0.01698834
#
# Stress axis : x y z
#
# Youngs Moduli (GPa) = 129.37581 113.30157 87.81454
#
# Poissons Ratio (x) = 0.27421 0.00557
# Poissons Ratio (y) = 0.31311 0.26289
# Poissons Ratio (z) = 0.00821 0.33919
#
# Static dielectric constant tensor:
#      x y z
#    x 2.127470 0.000000 0.000000 
#    y 0.000000 1.706480 0.000000 
#    z 0.000000 0.000000 2.108360 
# 
# From -- ./inp_files/29042.got.cif
#   From: 2010.05.17/outbox.cif.g08.bks.cpg/sg52_15_cif.got.tgz:29042.got - 2010.06.03 12:15:38.
