data_PCOD9412026
_publ_section_title
;
Structure prediction by ZEFSAII (Michael W. Deem and Ramdas Pophale) SiO2 
 PCOD9412026
Probable space group: P N N A
;
_chemical_formula_sum "Si O2"
_cell_formula_units_Z 36
_cell_length_a 11.129511
_cell_length_b 9.780728
_cell_length_c 14.615913
_cell_angle_alpha 90.000000
_cell_angle_beta 90.000000
_cell_angle_gamma 90.000000
_cell_volume 1591.011115
_symmetry_space_group_name_H-M "P N N A"
_symmetry_group_IT_number 52
_symmetry_cell_setting 'orthorhombic'
loop_
_space_group_symop_operation_xyz
x,y,z
1/2-x,-y,z
x,1/2-y,1/2-z
1/2-x,1/2+y,1/2-z
-x,-y,-z
1/2+x,y,-z
-x,1/2+y,1/2+z
1/2+x,1/2-y,1/2+z
loop_
_atom_site_type_symbol
_atom_site_label
_atom_site_fract_x
_atom_site_fract_y
_atom_site_fract_z
Si Si1 0.599187 0.172781 0.384436
Si Si2 0.186044 0.352930 0.086761
Si Si3 0.479791 0.935410 0.261943
Si Si4 0.808993 0.250000 0.250000
Si Si5 0.124586 0.661385 0.342276
O O1 0.623759 0.137219 0.488737
O O2 0.722697 0.202694 0.331588
O O3 0.508595 0.299707 0.376937
O O4 0.530630 0.053931 0.329306
O O5 0.250000 0.500000 0.103263
O O6 0.279494 0.227029 0.089103
O O7 0.091257 0.337185 0.168676
O O8 0.599258 0.869067 0.220941
O O9 0.389189 0.005479 0.190168
O O10 0.147358 0.750000 0.250000
#
# Coordination Sequence:
#
# PCOD9412026 Si02
#       5
#     8   8   8   4   8
#     4  11  23  41  66 102 133 173 227 279 328 401
#     4  12  23  39  72 100 132 173 234 285 326 395
#     4  11  24  43  69  98 132 181 226 277 338 401
#     4  12  24  40  70  94 138 186 220 264 348 412
#     4  10  22  43  64  96 139 172 213 284 342 388
#
# _framework density 22.627122
#
# number of rings (size 3 to 8) (size 9 to 14) (size 15 to 20)
#    0.000    0.889    7.778    2.667    4.667    0.000 
#    0.000    1.111    4.889    0.000    0.000    0.000 
#    0.000    0.000    0.000    0.000    0.000    0.000 
#
# Total GULP energy -201308.955176 kJ/mol
# GULP energy per Si atom -5591.915422 kJ/mol
# Density = 2.257562 g / cm^3
# Si number density = 22.627122 Si / 1000 Ang^3
#
#
#
# Elastic Constant Matrix: (Units=GPa)
#
#
# Indices 1 2 3 4 5 6 
#
# 1 121.3777 32.5285 27.8945 0.0000 0.0000 0.0000
# 2 32.5285 62.7490 16.4859 0.0000 0.0000 0.0000
# 3 27.8945 16.4859 55.4918 0.0000 0.0000 0.0000
# 4 0.0000 0.0000 0.0000 24.2611 0.0000 0.0000
# 5 0.0000 0.0000 0.0000 0.0000 6.6223 0.0000
# 6 0.0000 0.0000 0.0000 0.0000 0.0000 39.3858
#
#
#
# Elastic Compliance Matrix: (Units=1/GPa)
#
#
# Indices 1 2 3 4 5 6 
#
# 1 0.010288 -0.004311 -0.003891 0.000000 0.000000 0.000000
# 2 -0.004311 0.019092 -0.003505 0.000000 0.000000 0.000000
# 3 -0.003891 -0.003505 0.021018 0.000000 0.000000 0.000000
# 4 0.000000 0.000000 0.000000 0.041218 0.000000 0.000000
# 5 0.000000 0.000000 0.000000 0.000000 0.151005 0.000000
# 6 0.000000 0.000000 0.000000 0.000000 0.000000 0.025390
#
#
# Mechanical properties :
#
#
# Convention : Reuss Voigt Hill
#
# Bulk Modulus (GPa) = 37.05846 43.71512 40.38679
# Shear Modulus (GPa) = 16.64336 24.90114 20.77225
#
# Velocity S-wave (km/s) = 2.71504 3.32098 3.03318
# Velocity P-wave (km/s) = 5.12270 5.83669 5.49131
#
# Compressibility (1/GPa) = 0.02698439
#
# Stress axis : x y z
#
# Youngs Moduli (GPa) = 97.19783 52.37742 47.57861
#
# Poissons Ratio (x) = 0.22580 0.18513
# Poissons Ratio (y) = 0.41903 0.16676
# Poissons Ratio (z) = 0.37819 0.18358
#
# Static dielectric constant tensor:
#      x y z
#    x 1.847800 0.000000 0.000000 
#    y 0.000000 1.973900 0.000000 
#    z 0.000000 0.000000 1.787520 
# 
# From -- ./inp_files/25768.got.cif
#   From: 2010.05.17/outbox.cif.g08.bks.cpg/sg52_13_cif.got.tgz:25768.got - 2010.06.03 12:15:38.
