data_PCOD9412398
_publ_section_title
;
Structure prediction by ZEFSAII (Michael W. Deem and Ramdas Pophale) SiO2 
 PCOD9412398
Probable space group: P N N A
;
_chemical_formula_sum "Si O2"
_cell_formula_units_Z 36
_cell_length_a 10.499975
_cell_length_b 19.390770
_cell_length_c 7.663483
_cell_angle_alpha 90.000000
_cell_angle_beta 90.000000
_cell_angle_gamma 90.000000
_cell_volume 1560.305066
_symmetry_space_group_name_H-M "P N N A"
_symmetry_group_IT_number 52
_symmetry_cell_setting 'orthorhombic'
loop_
_space_group_symop_operation_xyz
x,y,z
1/2-x,-y,z
x,1/2-y,1/2-z
1/2-x,1/2+y,1/2-z
-x,-y,-z
1/2+x,y,-z
-x,1/2+y,1/2+z
1/2+x,1/2-y,1/2+z
loop_
_atom_site_type_symbol
_atom_site_label
_atom_site_fract_x
_atom_site_fract_y
_atom_site_fract_z
Si Si1 0.685661 0.068888 0.824281
Si Si2 0.792958 0.195765 0.024882
Si Si3 0.426978 0.398565 0.792003
Si Si4 0.955730 0.773544 0.546157
Si Si5 0.750000 0.500000 0.020003
O O1 0.534919 0.078671 0.846811
O O2 0.750000 0.000000 0.904435
O O3 0.704725 0.057549 0.617602
O O4 0.752235 0.137349 0.888940
O O5 0.826542 0.152618 0.199599
O O6 0.924087 0.232049 0.971420
O O7 0.676704 0.249765 0.037507
O O8 0.497445 0.352143 0.938730
O O9 0.359553 0.465586 0.867159
O O10 0.944131 0.750000 0.750000
#
# Coordination Sequence:
#
# PCOD9412398 Si02
#       5
#     8   8   8   8   4
#     4  10  24  43  67 101 142 186 232 293 353 416
#     4  11  22  44  74 100 139 188 232 300 347 419
#     4  11  24  47  69 104 146 179 253 284 359 434
#     4  10  23  43  69 102 144 177 234 299 347 421
#     4  10  26  44  70  98 148 194 222 312 354 418
#
# _framework density 23.072412
#
# number of rings (size 3 to 8) (size 9 to 14) (size 15 to 20)
#    0.667    0.889    4.444    0.667    4.667    2.667 
#    0.000    3.333    0.000    0.000    0.000    0.000 
#    0.000    0.000    0.000    0.000    0.000    0.000 
#
# Total GULP energy -201018.612161 kJ/mol
# GULP energy per Si atom -5583.850338 kJ/mol
# Density = 2.301990 g / cm^3
# Si number density = 23.072412 Si / 1000 Ang^3
#
#
#
# Elastic Constant Matrix: (Units=GPa)
#
#
# Indices 1 2 3 4 5 6 
#
# 1 178.3873 78.9598 43.4696 0.0000 0.0000 0.0000
# 2 78.9598 117.3711 31.9990 0.0000 0.0000 0.0000
# 3 43.4696 31.9990 52.1970 0.0000 0.0000 0.0000
# 4 0.0000 0.0000 0.0000 50.9587 0.0000 0.0000
# 5 0.0000 0.0000 0.0000 0.0000 30.0715 0.0000
# 6 0.0000 0.0000 0.0000 0.0000 0.0000 75.1834
#
#
#
# Elastic Compliance Matrix: (Units=1/GPa)
#
#
# Indices 1 2 3 4 5 6 
#
# 1 0.008757 -0.004686 -0.004420 0.000000 0.000000 0.000000
# 2 -0.004686 0.012737 -0.003906 0.000000 0.000000 0.000000
# 3 -0.004420 -0.003906 0.025234 0.000000 0.000000 0.000000
# 4 0.000000 0.000000 0.000000 0.019624 0.000000 0.000000
# 5 0.000000 0.000000 0.000000 0.000000 0.033254 0.000000
# 6 0.000000 0.000000 0.000000 0.000000 0.000000 0.013301
#
#
# Mechanical properties :
#
#
# Convention : Reuss Voigt Hill
#
# Bulk Modulus (GPa) = 48.30018 72.97915 60.63966
# Shear Modulus (GPa) = 34.28587 44.14452 39.21520
#
# Velocity S-wave (km/s) = 3.85906 4.37888 4.12716
# Velocity P-wave (km/s) = 6.39031 7.56738 7.00362
#
# Compressibility (1/GPa) = 0.02070386
#
# Stress axis : x y z
#
# Youngs Moduli (GPa) = 114.19275 78.50869 39.62948
#
# Poissons Ratio (x) = 0.36791 0.17517
# Poissons Ratio (y) = 0.53513 0.15479
# Poissons Ratio (z) = 0.50474 0.30665
#
# Static dielectric constant tensor:
#      x y z
#    x 1.908840 0.000000 0.000000 
#    y 0.000000 1.881760 0.000000 
#    z 0.000000 0.000000 1.896010 
# 
# From -- ./inp_files/7319.got.cif
#   From: 2010.05.17/outbox.cif.g08.bks.cpg/sg52_4_cif.got.tgz:7319.got - 2010.06.03 12:15:38.
