data_PCOD9412554
_publ_section_title
;
Structure prediction by ZEFSAII (Michael W. Deem and Ramdas Pophale) SiO2 
 PCOD9412554
Probable space group: P N N A
;
_chemical_formula_sum "Si O2"
_cell_formula_units_Z 56
_cell_length_a 9.303810
_cell_length_b 13.670695
_cell_length_c 20.778544
_cell_angle_alpha 90.000000
_cell_angle_beta 90.000000
_cell_angle_gamma 90.000000
_cell_volume 2642.813637
_symmetry_space_group_name_H-M "P N N A"
_symmetry_group_IT_number 52
_symmetry_cell_setting 'orthorhombic'
loop_
_space_group_symop_operation_xyz
x,y,z
1/2-x,-y,z
x,1/2-y,1/2-z
1/2-x,1/2+y,1/2-z
-x,-y,-z
1/2+x,y,-z
-x,1/2+y,1/2+z
1/2+x,1/2-y,1/2+z
loop_
_atom_site_type_symbol
_atom_site_label
_atom_site_fract_x
_atom_site_fract_y
_atom_site_fract_z
Si Si1 0.779261 0.290680 0.441450
Si Si2 0.992675 0.110838 0.428436
Si Si3 0.677313 0.250000 0.250000
Si Si4 0.970107 0.839530 0.133429
Si Si5 0.631249 0.916944 0.294417
Si Si6 0.448309 0.432541 0.645493
Si Si7 0.764265 0.617531 0.581197
Si Si8 0.250000 0.500000 0.009596
O O1 0.912800 0.215335 0.441052
O O2 0.621019 0.266761 0.412692
O O3 0.824427 0.374843 0.391089
O O4 0.746763 0.333309 0.511569
O O5 0.980569 0.087952 0.352404
O O6 0.874733 0.044609 0.465245
O O7 0.154733 0.082272 0.451546
O O8 0.579765 0.183151 0.205268
O O9 0.781177 0.184312 0.293254
O O10 0.138522 0.831250 0.121469
O O11 0.949642 0.955732 0.121695
O O12 0.570518 0.930539 0.222331
O O13 0.750000 0.000000 0.306266
O O14 0.591124 0.377966 0.622104
O O15 0.750000 0.500000 0.571204
#
# Coordination Sequence:
#
# PCOD9412554 Si02
#       8
#     8   8   4   8   8   8   8   4
#     4  12  22  38  70  97 128 180 229 275 339 417
#     4  11  25  44  72  97 132 178 233 286 345 422
#     4  12  22  40  66  96 124 178 230 270 336 420
#     4  11  22  40  63  96 135 175 222 279 338 423
#     4  12  21  42  68  97 129 179 230 281 347 416
#     4  11  22  41  65  98 140 171 218 290 347 414
#     4  10  24  40  61 100 141 173 214 278 356 412
#     4  10  26  50  64  98 138 172 228 296 352 398
#
# _framework density 21.189537999999999
#
# number of rings (size 3 to 8) (size 9 to 14) (size 15 to 20)
#    0.000    0.857    5.000    2.143    4.000    2.286 
#    3.857    2.143    0.000    0.000    0.000    0.000 
#    0.000    0.000    0.000    0.000    0.000    0.000 
#
# Total GULP energy -312336.656905 kJ/mol
# GULP energy per Si atom -5577.440302 kJ/mol
# Density = 2.114131 g / cm^3
# Si number density = 21.189538 Si / 1000 Ang^3
#
#
#
# Elastic Constant Matrix: (Units=GPa)
#
#
# Indices 1 2 3 4 5 6 
#
# 1 130.1693 15.8830 37.1486 0.0000 0.0000 0.0000
# 2 15.8830 51.2324 -0.7668 0.0000 0.0000 0.0000
# 3 37.1486 -0.7668 94.9786 0.0000 0.0000 0.0000
# 4 0.0000 0.0000 0.0000 14.0954 0.0000 0.0000
# 5 0.0000 0.0000 0.0000 0.0000 -62.2155 0.0000
# 6 0.0000 0.0000 0.0000 0.0000 0.0000 30.6065
#
#
#
# Elastic Compliance Matrix: (Units=1/GPa)
#
#
# Indices 1 2 3 4 5 6 
#
# 1 0.009048 -0.002858 -0.003562 0.000000 0.000000 0.000000
# 2 -0.002858 0.020424 0.001283 0.000000 0.000000 0.000000
# 3 -0.003562 0.001283 0.011932 0.000000 0.000000 0.000000
# 4 0.000000 0.000000 0.000000 0.070945 0.000000 0.000000
# 5 0.000000 0.000000 0.000000 0.000000 -0.016073 0.000000
# 6 0.000000 0.000000 0.000000 0.000000 0.000000 0.032673
#
#
# Mechanical properties :
#
#
# Convention : Reuss Voigt Hill
#
# Bulk Modulus (GPa) = 32.12388 42.32333 37.22360
# Shear Modulus (GPa) = 33.42258 11.43832 22.43045
#
# Velocity S-wave (km/s) = 3.97585 2.32590 3.25709
# Velocity P-wave (km/s) = 6.02243 5.21825 5.63471
#
# Compressibility (1/GPa) = 0.03112949
#
# Stress axis : x y z
#
# Youngs Moduli (GPa) = 110.52719 48.96151 83.80710
#
# Poissons Ratio (x) = 0.13994 0.29850
# Poissons Ratio (y) = 0.31591 -0.10751
# Poissons Ratio (z) = 0.39368 -0.06281
#
# Static dielectric constant tensor:
#      x y z
#    x 1.878800 0.000000 0.000000 
#    y 0.000000 1.827720 0.000000 
#    z 0.000000 0.000000 1.806760 
# 
# From -- ./inp_files/36063.got.cif
#   From: 2010.05.17/outbox.cif.g08.bks.cpg/sg52_19_cif.got.tgz:36063.got - 2010.06.03 12:15:38.
