data_PCOD9412233
_publ_section_title
;
Structure prediction by ZEFSAII (Michael W. Deem and Ramdas Pophale) SiO2 
 PCOD9412233
Probable space group: P N N A
;
_chemical_formula_sum "Si O2"
_cell_formula_units_Z 40
_cell_length_a 21.400447
_cell_length_b 8.766496
_cell_length_c 10.249504
_cell_angle_alpha 90.000000
_cell_angle_beta 90.000000
_cell_angle_gamma 90.000000
_cell_volume 1922.878010
_symmetry_space_group_name_H-M "P N N A"
_symmetry_group_IT_number 52
_symmetry_cell_setting 'orthorhombic'
loop_
_space_group_symop_operation_xyz
x,y,z
1/2-x,-y,z
x,1/2-y,1/2-z
1/2-x,1/2+y,1/2-z
-x,-y,-z
1/2+x,y,-z
-x,1/2+y,1/2+z
1/2+x,1/2-y,1/2+z
loop_
_atom_site_type_symbol
_atom_site_label
_atom_site_fract_x
_atom_site_fract_y
_atom_site_fract_z
Si Si1 0.128559 0.663260 0.873650
Si Si2 0.405229 0.437811 0.143114
Si Si3 0.989596 0.750000 0.250000
Si Si4 0.114196 0.326811 0.935599
Si Si5 0.295401 0.250000 0.250000
Si Si6 0.745912 0.178503 0.031040
O O1 0.101353 0.750000 0.750000
O O2 0.127180 0.481724 0.852457
O O3 0.093945 0.673297 0.014013
O O4 0.198177 0.728251 0.899328
O O5 0.464864 0.393844 0.227300
O O6 0.342046 0.390657 0.216930
O O7 0.401350 0.603612 0.078479
O O8 0.943934 0.758639 0.126614
O O9 0.177572 0.234961 0.933409
O O10 0.256391 0.210980 0.122578
O O11 0.750000 0.000000 0.058967
#
# Coordination Sequence:
#
# PCOD9412233 Si02
#       6
#     8   8   4   8   4   8
#     4   9  21  39  62  87 131 161 206 266 324 390
#     4   8  20  40  66  88 119 176 218 257 321 378
#     4  11  20  40  68  90 124 179 224 268 310 385
#     4  10  23  38  64  92 128 171 212 267 328 380
#     4   9  20  40  64  86 130 159 204 274 320 391
#     4  11  24  35  63  97 126 160 209 261 337 400
#
# _framework density 20.802153000000001
#
# number of rings (size 3 to 8) (size 9 to 14) (size 15 to 20)
#    1.200    1.200    0.000    1.200    7.000    0.000 
#    0.000    1.000    6.600    0.000    0.000    0.000 
#    0.000    0.000    0.000    0.000    0.000    0.000 
#
# Total GULP energy -223018.272072 kJ/mol
# GULP energy per Si atom -5575.456802 kJ/mol
# Density = 2.075481 g / cm^3
# Si number density = 20.802153 Si / 1000 Ang^3
#
#
#
# Elastic Constant Matrix: (Units=GPa)
#
#
# Indices 1 2 3 4 5 6 
#
# 1 98.2058 50.6818 11.5662 0.0000 0.0000 0.0000
# 2 50.6818 80.4576 19.6101 0.0000 0.0000 0.0000
# 3 11.5662 19.6101 38.7144 0.0000 0.0000 0.0000
# 4 0.0000 0.0000 0.0000 23.3055 0.0000 0.0000
# 5 0.0000 0.0000 0.0000 0.0000 33.2804 0.0000
# 6 0.0000 0.0000 0.0000 0.0000 0.0000 2.2773
#
#
#
# Elastic Compliance Matrix: (Units=1/GPa)
#
#
# Indices 1 2 3 4 5 6 
#
# 1 0.015092 -0.009592 0.000350 0.000000 0.000000 0.000000
# 2 -0.009592 0.020276 -0.007405 0.000000 0.000000 0.000000
# 3 0.000350 -0.007405 0.029476 0.000000 0.000000 0.000000
# 4 0.000000 0.000000 0.000000 0.042908 0.000000 0.000000
# 5 0.000000 0.000000 0.000000 0.000000 0.030048 0.000000
# 6 0.000000 0.000000 0.000000 0.000000 0.000000 0.439111
#
#
# Mechanical properties :
#
#
# Convention : Reuss Voigt Hill
#
# Bulk Modulus (GPa) = 31.69528 42.34378 37.01953
# Shear Modulus (GPa) = 8.05515 20.80729 14.43122
#
# Velocity S-wave (km/s) = 1.96994 3.16610 2.63675
# Velocity P-wave (km/s) = 4.52149 5.81079 5.20620
#
# Compressibility (1/GPa) = 0.03155043
#
# Stress axis : x y z
#
# Youngs Moduli (GPa) = 66.26215 49.32014 33.92542
#
# Poissons Ratio (x) = 0.47307 -0.01187
# Poissons Ratio (y) = 0.63557 0.25121
# Poissons Ratio (z) = -0.02318 0.36520
#
# Static dielectric constant tensor:
#      x y z
#    x 1.705830 0.000000 0.000000 
#    y 0.000000 1.747720 0.000000 
#    z 0.000000 0.000000 1.799990 
# 
# From -- ./inp_files/20410.got.cif
#   From: 2010.05.17/outbox.cif.g08.bks.cpg/sg52_11_cif.got.tgz:20410.got - 2010.06.03 12:15:38.
