data_PCOD9412589
_publ_section_title
;
Structure prediction by ZEFSAII (Michael W. Deem and Ramdas Pophale) SiO2 
 PCOD9412589
Probable space group: P N N A
;
_chemical_formula_sum "Si O2"
_cell_formula_units_Z 60
_cell_length_a 18.952493
_cell_length_b 7.879558
_cell_length_c 16.110922
_cell_angle_alpha 90.000000
_cell_angle_beta 90.000000
_cell_angle_gamma 90.000000
_cell_volume 2405.961074
_symmetry_space_group_name_H-M "P N N A"
_symmetry_group_IT_number 52
_symmetry_cell_setting 'orthorhombic'
loop_
_space_group_symop_operation_xyz
x,y,z
1/2-x,-y,z
x,1/2-y,1/2-z
1/2-x,1/2+y,1/2-z
-x,-y,-z
1/2+x,y,-z
-x,1/2+y,1/2+z
1/2+x,1/2-y,1/2+z
loop_
_atom_site_type_symbol
_atom_site_label
_atom_site_fract_x
_atom_site_fract_y
_atom_site_fract_z
Si Si1 0.945845 0.992382 0.666333
Si Si2 0.414132 0.431622 0.742907
Si Si3 0.368578 0.249930 0.418727
Si Si4 0.310780 0.750000 0.750000
Si Si5 0.795880 0.665624 0.429828
Si Si6 0.934359 0.452138 0.442720
Si Si7 0.324233 0.554631 0.304253
Si Si8 0.326033 0.878475 0.417170
O O1 0.891194 0.960195 0.742935
O O2 0.912999 0.882647 0.590666
O O3 0.023930 0.952093 0.691019
O O4 0.934889 0.185746 0.636484
O O5 0.377581 0.250000 0.750000
O O6 0.359856 0.583348 0.753142
O O7 0.452205 0.425040 0.653112
O O8 0.394202 0.296470 0.510709
O O9 0.338095 0.418034 0.377160
O O10 0.318117 0.083682 0.408978
O O11 0.273805 0.729701 0.661092
O O12 0.750000 0.500000 0.450772
O O13 0.876275 0.600433 0.434611
O O14 0.795162 0.810382 0.497961
O O15 0.000000 0.500000 0.500000
O O16 0.250000 0.500000 0.263933
O O17 0.311669 0.736244 0.347095
#
# Coordination Sequence:
#
# PCOD9412589 Si02
#       8
#     8   8   8   4   8   8   8   8
#     4  10  25  42  67 105 145 199 240 301 370 443
#     4  11  25  44  74 105 146 187 244 306 373 439
#     4  10  25  41  65 100 139 197 245 298 373 438
#     4  10  28  50  82 106 138 192 256 304 386 438
#     4  11  25  53  77 107 148 195 243 318 377 441
#     4  11  25  44  74 107 146 190 244 308 383 431
#     4  12  23  42  63  93 150 192 247 309 362 438
#     4  10  24  41  71  99 141 185 247 286 373 443
#
# _framework density 24.938058999999999
#
# number of rings (size 3 to 8) (size 9 to 14) (size 15 to 20)
#    0.800    0.533    1.333    2.800    9.333    2.667 
#    4.800    2.000    0.000    0.000    0.000    0.000 
#    0.000    0.000    0.000    0.000    0.000    0.000 
#
# Total GULP energy -335297.163529 kJ/mol
# GULP energy per Si atom -5588.286059 kJ/mol
# Density = 2.488130 g / cm^3
# Si number density = 24.938059 Si / 1000 Ang^3
#
#
#
# Elastic Constant Matrix: (Units=GPa)
#
#
# Indices 1 2 3 4 5 6 
#
# 1 44.9873 13.7904 8.6423 0.0000 0.0000 0.0000
# 2 13.7904 156.2073 35.0634 0.0000 0.0000 0.0000
# 3 8.6423 35.0634 101.8292 0.0000 0.0000 0.0000
# 4 0.0000 0.0000 0.0000 41.5297 0.0000 0.0000
# 5 0.0000 0.0000 0.0000 0.0000 16.9720 0.0000
# 6 0.0000 0.0000 0.0000 0.0000 0.0000 -10.9608
#
#
#
# Elastic Compliance Matrix: (Units=1/GPa)
#
#
# Indices 1 2 3 4 5 6 
#
# 1 0.023019 -0.001727 -0.001359 0.000000 0.000000 0.000000
# 2 -0.001727 0.007068 -0.002287 0.000000 0.000000 0.000000
# 3 -0.001359 -0.002287 0.010723 0.000000 0.000000 0.000000
# 4 0.000000 0.000000 0.000000 0.024079 0.000000 0.000000
# 5 0.000000 0.000000 0.000000 0.000000 0.058921 0.000000
# 6 0.000000 0.000000 0.000000 0.000000 0.000000 -0.091235
#
#
# Mechanical properties :
#
#
# Convention : Reuss Voigt Hill
#
# Bulk Modulus (GPa) = 33.26285 46.44623 39.85454
# Shear Modulus (GPa) = 93.73398 25.87670 59.80534
#
# Velocity S-wave (km/s) = 6.13745 3.22473 4.90241
# Velocity P-wave (km/s) = 7.97443 5.70353 6.93260
#
# Compressibility (1/GPa) = 0.03006357
#
# Stress axis : x y z
#
# Youngs Moduli (GPa) = 43.44243 141.49093 93.25563
#
# Poissons Ratio (x) = 0.24437 0.12673
# Poissons Ratio (y) = 0.07503 0.21328
# Poissons Ratio (z) = 0.05903 0.32360
#
# Static dielectric constant tensor:
#      x y z
#    x 2.088790 0.000000 0.000000 
#    y 0.000000 1.992760 0.000000 
#    z 0.000000 0.000000 1.907680 
# 
# From -- ./inp_files/33760.got.cif
#   From: 2010.05.17/outbox.cif.g08.bks.cpg/sg52_17_cif.got.tgz:33760.got - 2010.06.03 12:15:38.
