data_PCOD9412821
_publ_section_title
;
Structure prediction by ZEFSAII (Michael W. Deem and Ramdas Pophale) SiO2 
 PCOD9412821
Probable space group: P N N A
;
_chemical_formula_sum "Si O2"
_cell_formula_units_Z 40
_cell_length_a 8.894552
_cell_length_b 15.871251
_cell_length_c 11.312350
_cell_angle_alpha 90.000000
_cell_angle_beta 90.000000
_cell_angle_gamma 90.000000
_cell_volume 1596.938061
_symmetry_space_group_name_H-M "P N N A"
_symmetry_group_IT_number 52
_symmetry_cell_setting 'orthorhombic'
loop_
_space_group_symop_operation_xyz
x,y,z
1/2-x,-y,z
x,1/2-y,1/2-z
1/2-x,1/2+y,1/2-z
-x,-y,-z
1/2+x,y,-z
-x,1/2+y,1/2+z
1/2+x,1/2-y,1/2+z
loop_
_atom_site_type_symbol
_atom_site_label
_atom_site_fract_x
_atom_site_fract_y
_atom_site_fract_z
Si Si1 0.806708 0.362213 0.056182
Si Si2 0.750000 0.000000 0.618604
Si Si3 0.998400 0.609981 0.477389
Si Si4 0.994234 0.778554 0.380539
Si Si5 0.250000 0.000000 0.007951
Si Si6 0.561781 0.149541 0.750516
O O1 0.634590 0.348395 0.097372
O O2 0.915420 0.353847 0.166905
O O3 0.841183 0.444515 0.977270
O O4 0.861184 0.292209 0.962305
O O5 0.668105 0.073923 0.695674
O O6 0.924868 0.692848 0.427213
O O7 0.162079 0.578900 0.432932
O O8 0.885197 0.537892 0.435329
O O9 0.987201 0.623278 0.617889
O O10 0.036125 0.750000 0.250000
O O11 0.609707 0.250000 0.750000
#
# Coordination Sequence:
#
# PCOD9412821 Si02
#       6
#     8   4   8   8   4   8
#     4  12  26  50  75 116 154 207 269 331 407 484
#     4  12  27  49  80 120 160 209 271 334 406 490
#     4  11  24  47  70 108 150 198 262 321 400 473
#     4  12  28  48  79 111 157 211 271 331 404 488
#     4  10  25  43  68 102 150 197 251 322 386 466
#     4  12  25  47  80 112 158 208 259 335 402 483
#
# _framework density 25.047934000000001
#
# number of rings (size 3 to 8) (size 9 to 14) (size 15 to 20)
#    0.000    0.400    4.000    3.000    2.800    8.000 
#    0.000    0.000    0.000    0.000    0.000    0.000 
#    0.000    0.000    0.000    0.000    0.000    0.000 
#
# Total GULP energy -222898.243694 kJ/mol
# GULP energy per Si atom -5572.456092 kJ/mol
# Density = 2.499092 g / cm^3
# Si number density = 25.047934 Si / 1000 Ang^3
#
#
#
# Elastic Constant Matrix: (Units=GPa)
#
#
# Indices 1 2 3 4 5 6 
#
# 1 112.2134 14.6903 8.5977 0.0000 0.0000 0.0000
# 2 14.6903 128.6115 1.7061 0.0000 0.0000 0.0000
# 3 8.5977 1.7061 120.2040 0.0000 0.0000 0.0000
# 4 0.0000 0.0000 0.0000 3.2595 0.0000 0.0000
# 5 0.0000 0.0000 0.0000 0.0000 -4.0163 0.0000
# 6 0.0000 0.0000 0.0000 0.0000 0.0000 34.7065
#
#
#
# Elastic Compliance Matrix: (Units=1/GPa)
#
#
# Indices 1 2 3 4 5 6 
#
# 1 0.009095 -0.001030 -0.000636 0.000000 0.000000 0.000000
# 2 -0.001030 0.007894 -0.000038 0.000000 0.000000 0.000000
# 3 -0.000636 -0.000038 0.008365 0.000000 0.000000 0.000000
# 4 0.000000 0.000000 0.000000 0.306791 0.000000 0.000000
# 5 0.000000 0.000000 0.000000 0.000000 -0.248982 0.000000
# 6 0.000000 0.000000 0.000000 0.000000 0.000000 0.028813
#
#
# Mechanical properties :
#
#
# Convention : Reuss Voigt Hill
#
# Bulk Modulus (GPa) = 45.56928 45.66858 45.61893
# Shear Modulus (GPa) = 40.74972 29.19226 34.97099
#
# Velocity S-wave (km/s) = 4.03782 3.41758 3.74058
# Velocity P-wave (km/s) = 6.32226 5.81766 6.07520
#
# Compressibility (1/GPa) = 0.02194461
#
# Stress axis : x y z
#
# Youngs Moduli (GPa) = 109.94796 126.68549 119.54258
#
# Poissons Ratio (x) = 0.13054 0.07602
# Poissons Ratio (y) = 0.11330 0.00458
# Poissons Ratio (z) = 0.06992 0.00486
#
# Static dielectric constant tensor:
#      x y z
#    x 1.999780 0.000000 0.000000 
#    y 0.000000 2.535640 0.000000 
#    z 0.000000 0.000000 2.136530 
# 
# From -- ./inp_files/16729.got.cif
#   From: 2010.05.17/outbox.cif.g08.bks.cpg/sg52_9_cif.got.tgz:16729.got - 2010.06.03 12:15:38.
