data_PCOD9412418
_publ_section_title
;
Structure prediction by ZEFSAII (Michael W. Deem and Ramdas Pophale) SiO2 
 PCOD9412418
Probable space group: P N N A
;
_chemical_formula_sum "Si O2"
_cell_formula_units_Z 36
_cell_length_a 21.560415
_cell_length_b 7.514367
_cell_length_c 11.445176
_cell_angle_alpha 90.000000
_cell_angle_beta 90.000000
_cell_angle_gamma 90.000000
_cell_volume 1854.265823
_symmetry_space_group_name_H-M "P N N A"
_symmetry_group_IT_number 52
_symmetry_cell_setting 'orthorhombic'
loop_
_space_group_symop_operation_xyz
x,y,z
1/2-x,-y,z
x,1/2-y,1/2-z
1/2-x,1/2+y,1/2-z
-x,-y,-z
1/2+x,y,-z
-x,1/2+y,1/2+z
1/2+x,1/2-y,1/2+z
loop_
_atom_site_type_symbol
_atom_site_label
_atom_site_fract_x
_atom_site_fract_y
_atom_site_fract_z
Si Si1 0.868913 0.250000 0.750000
Si Si2 0.750000 0.500000 0.136815
Si Si3 0.413396 0.957396 0.920112
Si Si4 0.040674 0.065289 0.183980
Si Si5 0.657105 0.250000 0.250000
Si Si6 0.798862 0.166075 0.990007
O O1 0.915774 0.418940 0.746675
O O2 0.825209 0.227389 0.863621
O O3 0.697747 0.421859 0.221590
O O4 0.769418 0.333323 0.056792
O O5 0.383200 0.784957 0.863615
O O6 0.468844 0.012371 0.833719
O O7 0.436916 0.919012 0.050100
O O8 0.359336 0.101642 0.938410
O O9 0.046158 0.250000 0.250000
O O10 0.750000 0.000000 0.980231
#
# Coordination Sequence:
#
# PCOD9412418 Si02
#       6
#     4   4   8   8   4   8
#     4  10  25  42  70 100 136 169 234 280 336 406
#     4  12  26  40  66  94 134 178 216 268 338 398
#     4  10  23  44  63  98 134 169 230 276 325 415
#     4  10  23  44  69  95 131 176 221 281 341 393
#     4  12  23  40  66  92 130 171 220 264 326 396
#     4  11  24  45  64 101 136 177 226 279 342 413
#
# _framework density 19.414691999999999
#
# number of rings (size 3 to 8) (size 9 to 14) (size 15 to 20)
#    0.000    1.333    2.222    2.000    7.778    0.000 
#    2.000    4.444    0.000    0.000    0.000    0.000 
#    0.000    0.000    0.000    0.000    0.000    0.000 
#
# Total GULP energy -200935.126918 kJ/mol
# GULP energy per Si atom -5581.531303 kJ/mol
# Density = 1.937050 g / cm^3
# Si number density = 19.414692 Si / 1000 Ang^3
#
#
#
# Elastic Constant Matrix: (Units=GPa)
#
#
# Indices 1 2 3 4 5 6 
#
# 1 105.9423 51.1423 41.1096 0.0000 0.0000 0.0000
# 2 51.1423 112.8015 55.4024 0.0000 0.0000 0.0000
# 3 41.1096 55.4024 70.2227 0.0000 0.0000 0.0000
# 4 0.0000 0.0000 0.0000 13.7101 0.0000 0.0000
# 5 0.0000 0.0000 0.0000 0.0000 7.9184 0.0000
# 6 0.0000 0.0000 0.0000 0.0000 0.0000 26.5989
#
#
#
# Elastic Compliance Matrix: (Units=1/GPa)
#
#
# Indices 1 2 3 4 5 6 
#
# 1 0.013019 -0.003525 -0.004840 0.000000 0.000000 0.000000
# 2 -0.003525 0.015428 -0.010108 0.000000 0.000000 0.000000
# 3 -0.004840 -0.010108 0.025049 0.000000 0.000000 0.000000
# 4 0.000000 0.000000 0.000000 0.072939 0.000000 0.000000
# 5 0.000000 0.000000 0.000000 0.000000 0.126288 0.000000
# 6 0.000000 0.000000 0.000000 0.000000 0.000000 0.037595
#
#
# Mechanical properties :
#
#
# Convention : Reuss Voigt Hill
#
# Bulk Modulus (GPa) = 60.42884 64.91948 62.67416
# Shear Modulus (GPa) = 15.02480 19.06629 17.04554
#
# Velocity S-wave (km/s) = 2.78490 3.13718 2.96627
# Velocity P-wave (km/s) = 6.44467 6.82887 6.63955
#
# Compressibility (1/GPa) = 0.01654839
#
# Stress axis : x y z
#
# Youngs Moduli (GPa) = 76.81003 64.81666 39.92182
#
# Poissons Ratio (x) = 0.22850 0.19323
# Poissons Ratio (y) = 0.27078 0.40354
# Poissons Ratio (z) = 0.37178 0.65518
#
# Static dielectric constant tensor:
#      x y z
#    x 1.715520 0.000000 0.000000 
#    y 0.000000 1.677940 0.000000 
#    z 0.000000 0.000000 1.659200 
# 
# From -- ./inp_files/22107.got.cif
#   From: 2010.05.17/outbox.cif.g08.bks.cpg/sg52_12_cif.got.tgz:22107.got - 2010.06.03 12:15:38.
