data_PCOD9412643
_publ_section_title
;
Structure prediction by ZEFSAII (Michael W. Deem and Ramdas Pophale) SiO2 
 PCOD9412643
Probable space group: P N N A
;
_chemical_formula_sum "Si O2"
_cell_formula_units_Z 28
_cell_length_a 26.770593
_cell_length_b 5.126468
_cell_length_c 8.833712
_cell_angle_alpha 90.000000
_cell_angle_beta 90.000000
_cell_angle_gamma 90.000000
_cell_volume 1212.326165
_symmetry_space_group_name_H-M "P N N A"
_symmetry_group_IT_number 52
_symmetry_cell_setting 'orthorhombic'
loop_
_space_group_symop_operation_xyz
x,y,z
1/2-x,-y,z
x,1/2-y,1/2-z
1/2-x,1/2+y,1/2-z
-x,-y,-z
1/2+x,y,-z
-x,1/2+y,1/2+z
1/2+x,1/2-y,1/2+z
loop_
_atom_site_type_symbol
_atom_site_label
_atom_site_fract_x
_atom_site_fract_y
_atom_site_fract_z
Si Si1 0.750000 0.000000 0.858639
Si Si2 0.957592 0.823020 0.925034
Si Si3 0.145361 0.847339 0.077566
Si Si4 0.096316 0.501966 0.852680
O O1 0.746009 0.250000 0.750000
O O2 0.801646 0.016825 0.949968
O O3 0.966112 0.750000 0.750000
O O4 0.904007 0.974261 0.933134
O O5 0.947986 0.577979 0.034551
O O6 0.000000 0.000000 0.000000
O O7 0.145860 0.750000 0.250000
O O8 0.139436 0.607634 0.962443
O O9 0.083309 0.750000 0.750000
O O10 0.107625 0.250000 0.750000
#
# Coordination Sequence:
#
# PCOD9412643 Si02
#       4
#     4   8   8   8
#     4  10  24  42  84 120 148 196 264 336 396 464
#     4  12  28  49  81 113 160 213 266 325 391 471
#     4  11  24  49  81 116 155 199 271 330 392 470
#     4  12  27  49  78 113 163 206 257 323 392 468
#
# _framework density 23.096094999999998
#
# number of rings (size 3 to 8) (size 9 to 14) (size 15 to 20)
#    0.000    0.571    5.714    0.857    8.000    2.286 
#    0.000    1.429    6.286    0.000    0.000    0.000 
#    0.000    0.000    0.000    0.000    0.000    0.000 
#
# Total GULP energy -156809.821154 kJ/mol
# GULP energy per Si atom -5600.350756 kJ/mol
# Density = 2.304353 g / cm^3
# Si number density = 23.096095 Si / 1000 Ang^3
#
#
#
# Elastic Constant Matrix: (Units=GPa)
#
#
# Indices 1 2 3 4 5 6 
#
# 1 213.0164 69.4300 61.8479 0.0000 0.0000 0.0000
# 2 69.4300 169.4338 87.3805 0.0000 0.0000 0.0000
# 3 61.8479 87.3805 195.8226 0.0000 0.0000 0.0000
# 4 0.0000 0.0000 0.0000 58.7945 0.0000 0.0000
# 5 0.0000 0.0000 0.0000 0.0000 7.6217 0.0000
# 6 0.0000 0.0000 0.0000 0.0000 0.0000 42.4292
#
#
#
# Elastic Compliance Matrix: (Units=1/GPa)
#
#
# Indices 1 2 3 4 5 6 
#
# 1 0.005553 -0.001781 -0.000959 0.000000 0.000000 0.000000
# 2 -0.001781 0.008237 -0.003113 0.000000 0.000000 0.000000
# 3 -0.000959 -0.003113 0.006799 0.000000 0.000000 0.000000
# 4 0.000000 0.000000 0.000000 0.017008 0.000000 0.000000
# 5 0.000000 0.000000 0.000000 0.000000 0.131204 0.000000
# 6 0.000000 0.000000 0.000000 0.000000 0.000000 0.023569
#
#
# Mechanical properties :
#
#
# Convention : Reuss Voigt Hill
#
# Bulk Modulus (GPa) = 112.57770 112.84328 112.71049
# Shear Modulus (GPa) = 24.15008 45.74337 34.94673
#
# Velocity S-wave (km/s) = 3.23714 4.45518 3.89408
# Velocity P-wave (km/s) = 7.92597 8.68499 8.31415
#
# Compressibility (1/GPa) = 0.00888275
#
# Stress axis : x y z
#
# Youngs Moduli (GPa) = 180.06727 121.39825 147.08432
#
# Poissons Ratio (x) = 0.21621 0.14110
# Poissons Ratio (y) = 0.32069 0.45790
# Poissons Ratio (z) = 0.17274 0.37794
#
# Static dielectric constant tensor:
#      x y z
#    x 1.919730 0.000000 0.000000 
#    y 0.000000 1.923380 0.000000 
#    z 0.000000 0.000000 1.897010 
# 
# From -- ./inp_files/15133.got.cif
#   From: 2010.05.17/outbox.cif.g08.bks.cpg/sg52_8_cif.got.tgz:15133.got - 2010.06.03 12:15:38.
