data_PCOD9412961
_publ_section_title
;
Structure prediction by ZEFSAII (Michael W. Deem and Ramdas Pophale) SiO2 
 PCOD9412961
Probable space group: P N N A
;
_chemical_formula_sum "Si O2"
_cell_formula_units_Z 48
_cell_length_a 9.799174
_cell_length_b 14.594316
_cell_length_c 17.093134
_cell_angle_alpha 90.000000
_cell_angle_beta 90.000000
_cell_angle_gamma 90.000000
_cell_volume 2444.527414
_symmetry_space_group_name_H-M "P N N A"
_symmetry_group_IT_number 52
_symmetry_cell_setting 'orthorhombic'
loop_
_space_group_symop_operation_xyz
x,y,z
1/2-x,-y,z
x,1/2-y,1/2-z
1/2-x,1/2+y,1/2-z
-x,-y,-z
1/2+x,y,-z
-x,1/2+y,1/2+z
1/2+x,1/2-y,1/2+z
loop_
_atom_site_type_symbol
_atom_site_label
_atom_site_fract_x
_atom_site_fract_y
_atom_site_fract_z
Si Si1 0.982505 0.383926 0.725155
Si Si2 0.720055 0.598337 0.854435
Si Si3 0.283542 0.101429 0.806090
Si Si4 0.217722 0.702776 0.392314
Si Si5 0.926130 0.595466 0.707014
Si Si6 0.868974 0.436281 0.486266
O O1 0.929684 0.395627 0.813899
O O2 0.884671 0.314581 0.679873
O O3 0.137376 0.353455 0.708521
O O4 0.952009 0.486838 0.689926
O O5 0.750000 0.500000 0.892733
O O6 0.743114 0.690042 0.902986
O O7 0.824205 0.600847 0.780302
O O8 0.425609 0.135503 0.770784
O O9 0.250000 0.000000 0.773638
O O10 0.326007 0.087916 0.897291
O O11 0.354809 0.649583 0.364169
O O12 0.140745 0.655966 0.464331
O O13 0.750000 0.500000 0.518953
O O14 0.500000 0.500000 0.500000
#
# Coordination Sequence:
#
# PCOD9412961 Si02
#       6
#     8   8   8   8   8   8
#     4   9  16  28  46  69  98 127 157 197 246 300
#     4   9  19  33  48  66  91 129 172 209 243 282
#     4   9  17  28  44  72 103 128 152 187 244 302
#     4  11  18  29  46  68  99 132 163 202 246 293
#     4   9  16  28  47  71  99 126 157 199 245 297
#     4  11  20  30  47  76 107 130 155 194 247 310
#
# _framework density 19.635695999999999
#
# number of rings (size 3 to 8) (size 9 to 14) (size 15 to 20)
#    0.000    2.333    0.000    8.500    0.000    0.000 
#    0.000    3.333    0.000    0.000    0.000   10.500 
#    0.000    0.000    0.000    0.000    0.000    0.000 
#
# Total GULP energy -267270.883579 kJ/mol
# GULP energy per Si atom -5568.143408 kJ/mol
# Density = 1.959100 g / cm^3
# Si number density = 19.635696 Si / 1000 Ang^3
#
#
#
# Elastic Constant Matrix: (Units=GPa)
#
#
# Indices 1 2 3 4 5 6 
#
# 1 158.4804 21.0035 8.6079 0.0000 0.0000 0.0000
# 2 21.0035 133.1339 18.3276 0.0000 0.0000 0.0000
# 3 8.6079 18.3276 24.3822 0.0000 0.0000 0.0000
# 4 0.0000 0.0000 0.0000 21.5238 0.0000 0.0000
# 5 0.0000 0.0000 0.0000 0.0000 6.2443 0.0000
# 6 0.0000 0.0000 0.0000 0.0000 0.0000 5.7287
#
#
#
# Elastic Compliance Matrix: (Units=1/GPa)
#
#
# Indices 1 2 3 4 5 6 
#
# 1 0.006507 -0.000792 -0.001702 0.000000 0.000000 0.000000
# 2 -0.000792 0.008475 -0.006091 0.000000 0.000000 0.000000
# 3 -0.001702 -0.006091 0.046192 0.000000 0.000000 0.000000
# 4 0.000000 0.000000 0.000000 0.046460 0.000000 0.000000
# 5 0.000000 0.000000 0.000000 0.000000 0.160147 0.000000
# 6 0.000000 0.000000 0.000000 0.000000 0.000000 0.174559
#
#
# Mechanical properties :
#
#
# Convention : Reuss Voigt Hill
#
# Bulk Modulus (GPa) = 22.72458 45.76384 34.24421
# Shear Modulus (GPa) = 10.54457 24.56986 17.55722
#
# Velocity S-wave (km/s) = 2.31986 3.54119 2.99347
# Velocity P-wave (km/s) = 4.33289 6.33065 5.42453
#
# Compressibility (1/GPa) = 0.04400521
#
# Stress axis : x y z
#
# Youngs Moduli (GPa) = 153.67193 117.99862 21.64857
#
# Poissons Ratio (x) = 0.09350 0.03684
# Poissons Ratio (y) = 0.12176 0.13185
# Poissons Ratio (z) = 0.26151 0.71867
#
# Static dielectric constant tensor:
#      x y z
#    x 1.791470 0.000000 0.000000 
#    y 0.000000 1.854920 0.000000 
#    z 0.000000 0.000000 1.724950 
# 
# From -- ./inp_files/39548.got.cif
#   From: 2010.05.17/outbox.cif.g08.bks.cpg/sg52_20_cif.got.tgz:39548.got - 2010.06.03 12:15:38.
