data_PCOD9412435
_publ_section_title
;
Structure prediction by ZEFSAII (Michael W. Deem and Ramdas Pophale) SiO2 
 PCOD9412435
Probable space group: P N N A
;
_chemical_formula_sum "Si O2"
_cell_formula_units_Z 64
_cell_length_a 8.783382
_cell_length_b 14.857425
_cell_length_c 24.253370
_cell_angle_alpha 90.000000
_cell_angle_beta 90.000000
_cell_angle_gamma 90.000000
_cell_volume 3165.026933
_symmetry_space_group_name_H-M "P N N A"
_symmetry_group_IT_number 52
_symmetry_cell_setting 'orthorhombic'
loop_
_space_group_symop_operation_xyz
x,y,z
1/2-x,-y,z
x,1/2-y,1/2-z
1/2-x,1/2+y,1/2-z
-x,-y,-z
1/2+x,y,-z
-x,1/2+y,1/2+z
1/2+x,1/2-y,1/2+z
loop_
_atom_site_type_symbol
_atom_site_label
_atom_site_fract_x
_atom_site_fract_y
_atom_site_fract_z
Si Si1 0.400798 0.058773 0.956738
Si Si2 0.768487 0.251596 0.008814
Si Si3 0.584271 0.308233 0.306281
Si Si4 0.532499 0.716461 0.916826
Si Si5 0.099019 0.557671 0.956373
Si Si6 0.070068 0.985420 0.240718
Si Si7 0.368271 0.083470 0.835343
Si Si8 0.927758 0.479369 0.867632
O O1 0.347806 0.157508 0.975745
O O2 0.455550 0.074205 0.893793
O O3 0.250000 0.000000 0.950940
O O4 0.500000 0.000000 0.000000
O O5 0.603701 0.258808 0.039116
O O6 0.856682 0.342084 0.026969
O O7 0.803356 0.257279 0.943091
O O8 0.587834 0.250000 0.250000
O O9 0.504279 0.263988 0.359129
O O10 0.489655 0.398090 0.291584
O O11 0.755649 0.332646 0.326658
O O12 0.534615 0.611291 0.901149
O O13 0.250000 0.500000 0.949471
O O14 0.011875 0.559074 0.898962
O O15 0.000000 0.500000 0.000000
O O16 0.026255 0.971954 0.304376
O O17 0.250000 0.000000 0.237043
O O18 0.984800 0.070210 0.214190
O O19 0.250000 0.000000 0.832315
O O20 0.750000 0.500000 0.870435
#
# Coordination Sequence:
#
# PCOD9412435 Si02
#       8
#     8   8   8   8   8   8   8   8
#     4  11  24  43  65  94 132 177 228 287 343 405
#     4  12  25  42  67  97 140 180 230 280 340 425
#     4  11  22  44  72  97 134 183 232 290 350 416
#     4  12  25  44  66 103 138 182 230 278 351 416
#     4  12  23  39  64  97 138 178 220 272 341 414
#     4  10  23  44  67  97 131 177 227 288 357 411
#     4   9  21  41  66  91 128 171 228 283 339 410
#     4  11  24  42  67  99 139 179 226 278 343 426
#
# _framework density 20.220996
#
# number of rings (size 3 to 8) (size 9 to 14) (size 15 to 20)
#    0.000    1.000    5.000    1.125    5.250    3.000 
#    2.250    0.625    0.000    0.000    0.000    0.000 
#    0.000    0.000    0.000    0.000    0.000    0.000 
#
# Total GULP energy -356920.209906 kJ/mol
# GULP energy per Si atom -5576.878280 kJ/mol
# Density = 2.017497 g / cm^3
# Si number density = 20.220996 Si / 1000 Ang^3
#
#
#
# Elastic Constant Matrix: (Units=GPa)
#
#
# Indices 1 2 3 4 5 6 
#
# 1 45.7351 6.7875 52.3739 0.0000 0.0000 0.0000
# 2 6.7875 93.4473 30.5935 0.0000 0.0000 0.0000
# 3 52.3739 30.5935 140.2700 0.0000 0.0000 0.0000
# 4 0.0000 0.0000 0.0000 -13.0424 0.0000 0.0000
# 5 0.0000 0.0000 0.0000 0.0000 38.9370 0.0000
# 6 0.0000 0.0000 0.0000 0.0000 0.0000 28.1151
#
#
#
# Elastic Compliance Matrix: (Units=1/GPa)
#
#
# Indices 1 2 3 4 5 6 
#
# 1 0.038562 0.002060 -0.014848 0.000000 0.000000 0.000000
# 2 0.002060 0.011634 -0.003307 0.000000 0.000000 0.000000
# 3 -0.014848 -0.003307 0.013394 0.000000 0.000000 0.000000
# 4 0.000000 0.000000 0.000000 -0.076673 0.000000 0.000000
# 5 0.000000 0.000000 0.000000 0.000000 0.025682 0.000000
# 6 0.000000 0.000000 0.000000 0.000000 0.000000 0.035568
#
#
# Mechanical properties :
#
#
# Convention : Reuss Voigt Hill
#
# Bulk Modulus (GPa) = 31.84516 50.99581 41.42048
# Shear Modulus (GPa) = 55.05172 23.44845 39.25009
#
# Velocity S-wave (km/s) = 5.22342 3.40900 4.41052
# Velocity P-wave (km/s) = 7.22230 6.38506 6.81655
#
# Compressibility (1/GPa) = 0.03140195
#
# Stress axis : x y z
#
# Youngs Moduli (GPa) = 25.93211 85.95397 74.65977
#
# Poissons Ratio (x) = -0.17706 1.10852
# Poissons Ratio (y) = -0.05342 0.24687
# Poissons Ratio (z) = 0.38503 0.28422
#
# Static dielectric constant tensor:
#      x y z
#    x 1.740870 0.000000 0.000000 
#    y 0.000000 1.725210 0.000000 
#    z 0.000000 0.000000 1.771340 
# 
# From -- ./inp_files/39686.got.cif
#   From: 2010.05.17/outbox.cif.g08.bks.cpg/sg52_20_cif.got.tgz:39686.got - 2010.06.03 12:15:38.
