data_PCOD9412629
_publ_section_title
;
Structure prediction by ZEFSAII (Michael W. Deem and Ramdas Pophale) SiO2 
 PCOD9412629
Probable space group: P N N A
;
_chemical_formula_sum "Si O2"
_cell_formula_units_Z 48
_cell_length_a 19.040699
_cell_length_b 14.910948
_cell_length_c 8.481948
_cell_angle_alpha 90.000000
_cell_angle_beta 90.000000
_cell_angle_gamma 90.000000
_cell_volume 2408.151186
_symmetry_space_group_name_H-M "P N N A"
_symmetry_group_IT_number 52
_symmetry_cell_setting 'orthorhombic'
loop_
_space_group_symop_operation_xyz
x,y,z
1/2-x,-y,z
x,1/2-y,1/2-z
1/2-x,1/2+y,1/2-z
-x,-y,-z
1/2+x,y,-z
-x,1/2+y,1/2+z
1/2+x,1/2-y,1/2+z
loop_
_atom_site_type_symbol
_atom_site_label
_atom_site_fract_x
_atom_site_fract_y
_atom_site_fract_z
Si Si1 0.391687 0.251367 0.063039
Si Si2 0.949421 0.074560 0.073183
Si Si3 0.679378 0.047513 0.116847
Si Si4 0.386587 0.675682 0.872596
Si Si5 0.770608 0.779127 0.934513
Si Si6 0.987416 0.400603 0.064947
O O1 0.392972 0.250000 0.250000
O O2 0.310864 0.232164 0.016323
O O3 0.442174 0.171575 0.005245
O O4 0.420634 0.346210 0.001874
O O5 0.975844 0.092271 0.249595
O O6 0.873095 0.028957 0.058479
O O7 0.000000 0.000000 0.000000
O O8 0.638522 0.095152 0.260406
O O9 0.750000 0.000000 0.173401
O O10 0.701036 0.121655 0.984403
O O11 0.414663 0.750000 0.750000
O O12 0.318868 0.714495 0.960753
O O13 0.444584 0.651953 0.001274
O O14 0.776974 0.750000 0.750000
O O15 0.000000 0.500000 0.000000
#
# Coordination Sequence:
#
# PCOD9412629 Si02
#       6
#     8   8   8   8   8   8
#     4  11  25  46  67  97 140 178 229 283 339 404
#     4  12  27  43  69 102 136 184 224 287 345 411
#     4  11  23  45  69 100 140 174 233 281 344 412
#     4  10  24  42  70  95 135 179 224 284 344 409
#     4  10  24  43  68  98 133 184 224 278 340 405
#     4  12  25  43  67 100 134 178 229 276 343 406
#
# _framework density 19.932304999999999
#
# number of rings (size 3 to 8) (size 9 to 14) (size 15 to 20)
#    0.000    1.000    3.333    2.000    9.333    1.333 
#    0.000    0.833    0.000    0.000    0.000    0.000 
#    0.000    0.000    0.000    0.000    0.000    0.000 
#
# Total GULP energy -268153.879940 kJ/mol
# GULP energy per Si atom -5586.539165 kJ/mol
# Density = 1.988694 g / cm^3
# Si number density = 19.932305 Si / 1000 Ang^3
#
#
#
# Elastic Constant Matrix: (Units=GPa)
#
#
# Indices 1 2 3 4 5 6 
#
# 1 112.4821 42.4963 44.6515 0.0000 0.0000 0.0000
# 2 42.4963 105.9247 38.7244 0.0000 0.0000 0.0000
# 3 44.6515 38.7244 99.4902 0.0000 0.0000 0.0000
# 4 0.0000 0.0000 0.0000 34.2183 0.0000 0.0000
# 5 0.0000 0.0000 0.0000 0.0000 33.6111 0.0000
# 6 0.0000 0.0000 0.0000 0.0000 0.0000 32.1655
#
#
#
# Elastic Compliance Matrix: (Units=1/GPa)
#
#
# Indices 1 2 3 4 5 6 
#
# 1 0.011696 -0.003233 -0.003991 0.000000 0.000000 0.000000
# 2 -0.003233 0.011901 -0.003181 0.000000 0.000000 0.000000
# 3 -0.003991 -0.003181 0.013080 0.000000 0.000000 0.000000
# 4 0.000000 0.000000 0.000000 0.029224 0.000000 0.000000
# 5 0.000000 0.000000 0.000000 0.000000 0.029752 0.000000
# 6 0.000000 0.000000 0.000000 0.000000 0.000000 0.031089
#
#
# Mechanical properties :
#
#
# Convention : Reuss Voigt Hill
#
# Bulk Modulus (GPa) = 63.02347 63.29349 63.15848
# Shear Modulus (GPa) = 32.71353 32.80062 32.75708
#
# Velocity S-wave (km/s) = 4.05561 4.06100 4.05831
# Velocity P-wave (km/s) = 7.32243 7.33568 7.32906
#
# Compressibility (1/GPa) = 0.01586710
#
# Stress axis : x y z
#
# Youngs Moduli (GPa) = 85.49866 84.02781 76.45033
#
# Poissons Ratio (x) = 0.27170 0.30509
# Poissons Ratio (y) = 0.27646 0.24318
# Poissons Ratio (z) = 0.34120 0.26729
#
# Static dielectric constant tensor:
#      x y z
#    x 1.745850 0.000000 0.000000 
#    y 0.000000 1.732680 0.000000 
#    z 0.000000 0.000000 1.698060 
# 
# From -- ./inp_files/12030.got.cif
#   From: 2010.05.17/outbox.cif.g08.bks.cpg/sg52_7_cif.got.tgz:12030.got - 2010.06.03 12:15:38.
