data_PCOD9412059
_publ_section_title
;
Structure prediction by ZEFSAII (Michael W. Deem and Ramdas Pophale) SiO2 
 PCOD9412059
Probable space group: P N N A
;
_chemical_formula_sum "Si O2"
_cell_formula_units_Z 32
_cell_length_a 14.349247
_cell_length_b 12.005207
_cell_length_c 7.830429
_cell_angle_alpha 90.000000
_cell_angle_beta 90.000000
_cell_angle_gamma 90.000000
_cell_volume 1348.914181
_symmetry_space_group_name_H-M "P N N A"
_symmetry_group_IT_number 52
_symmetry_cell_setting 'orthorhombic'
loop_
_space_group_symop_operation_xyz
x,y,z
1/2-x,-y,z
x,1/2-y,1/2-z
1/2-x,1/2+y,1/2-z
-x,-y,-z
1/2+x,y,-z
-x,1/2+y,1/2+z
1/2+x,1/2-y,1/2+z
loop_
_atom_site_type_symbol
_atom_site_label
_atom_site_fract_x
_atom_site_fract_y
_atom_site_fract_z
Si Si1 0.319692 0.640263 0.357278
Si Si2 0.338580 0.245886 0.942782
Si Si3 0.989746 0.626729 0.439112
Si Si4 0.583923 0.548362 0.881128
O O1 0.336387 0.750000 0.250000
O O2 0.216388 0.658298 0.435403
O O3 0.383194 0.649892 0.525482
O O4 0.357530 0.541447 0.233096
O O5 0.302881 0.250000 0.750000
O O6 0.444389 0.201639 0.943613
O O7 0.344828 0.370504 0.019223
O O8 0.026991 0.626964 0.248763
O O9 0.000000 0.500000 0.500000
O O10 0.500000 0.500000 0.000000
#
# Coordination Sequence:
#
# PCOD9412059 Si02
#       4
#     8   8   8   8
#     4  11  25  45  70 101 138 185 241 302 369 445
#     4  12  26  45  69 105 147 191 249 316 380 459
#     4  10  22  43  69  97 134 181 234 300 373 452
#     4  11  24  46  74 103 143 197 247 309 388 460
#
# _framework density 23.722783
#
# number of rings (size 3 to 8) (size 9 to 14) (size 15 to 20)
#    0.000    1.000    0.000    7.500    0.000   13.000 
#    0.000    5.000    0.000    0.000    0.000    0.000 
#    0.000    0.000    0.000    0.000    0.000    0.000 
#
# Total GULP energy -178699.033793 kJ/mol
# GULP energy per Si atom -5584.344806 kJ/mol
# Density = 2.366879 g / cm^3
# Si number density = 23.722783 Si / 1000 Ang^3
#
#
#
# Elastic Constant Matrix: (Units=GPa)
#
#
# Indices 1 2 3 4 5 6 
#
# 1 114.3732 35.5607 42.9190 0.0000 0.0000 0.0000
# 2 35.5607 116.1717 65.1107 0.0000 0.0000 0.0000
# 3 42.9190 65.1107 154.7322 0.0000 0.0000 0.0000
# 4 0.0000 0.0000 0.0000 43.0084 0.0000 0.0000
# 5 0.0000 0.0000 0.0000 0.0000 34.2930 0.0000
# 6 0.0000 0.0000 0.0000 0.0000 0.0000 40.5647
#
#
#
# Elastic Compliance Matrix: (Units=1/GPa)
#
#
# Indices 1 2 3 4 5 6 
#
# 1 0.010099 -0.001991 -0.001963 0.000000 0.000000 0.000000
# 2 -0.001991 0.011657 -0.004353 0.000000 0.000000 0.000000
# 3 -0.001963 -0.004353 0.008839 0.000000 0.000000 0.000000
# 4 0.000000 0.000000 0.000000 0.023251 0.000000 0.000000
# 5 0.000000 0.000000 0.000000 0.000000 0.029161 0.000000
# 6 0.000000 0.000000 0.000000 0.000000 0.000000 0.024652
#
#
# Mechanical properties :
#
#
# Convention : Reuss Voigt Hill
#
# Bulk Modulus (GPa) = 71.52814 74.71754 73.12284
# Shear Modulus (GPa) = 38.77946 39.68565 39.23255
#
# Velocity S-wave (km/s) = 4.04752 4.09454 4.07110
# Velocity P-wave (km/s) = 7.21529 7.34290 7.27937
#
# Compressibility (1/GPa) = 0.01398051
#
# Stress axis : x y z
#
# Youngs Moduli (GPa) = 99.01850 85.78445 113.13319
#
# Poissons Ratio (x) = 0.17079 0.22213
# Poissons Ratio (y) = 0.19714 0.49247
# Poissons Ratio (z) = 0.19442 0.37342
#
# Static dielectric constant tensor:
#      x y z
#    x 2.108250 0.000000 0.000000 
#    y 0.000000 1.927320 0.000000 
#    z 0.000000 0.000000 1.966140 
# 
# From -- ./inp_files/9555.got.cif
#   From: 2010.05.17/outbox.cif.g08.bks.cpg/sg52_5_cif.got.tgz:9555.got - 2010.06.03 12:15:38.
