data_PCOD9412581
_publ_section_title
;
Structure prediction by ZEFSAII (Michael W. Deem and Ramdas Pophale) SiO2 
 PCOD9412581
Probable space group: P N N A
;
_chemical_formula_sum "Si O2"
_cell_formula_units_Z 40
_cell_length_a 9.329601
_cell_length_b 10.935758
_cell_length_c 18.408200
_cell_angle_alpha 90.000000
_cell_angle_beta 90.000000
_cell_angle_gamma 90.000000
_cell_volume 1878.119777
_symmetry_space_group_name_H-M "P N N A"
_symmetry_group_IT_number 52
_symmetry_cell_setting 'orthorhombic'
loop_
_space_group_symop_operation_xyz
x,y,z
1/2-x,-y,z
x,1/2-y,1/2-z
1/2-x,1/2+y,1/2-z
-x,-y,-z
1/2+x,y,-z
-x,1/2+y,1/2+z
1/2+x,1/2-y,1/2+z
loop_
_atom_site_type_symbol
_atom_site_label
_atom_site_fract_x
_atom_site_fract_y
_atom_site_fract_z
Si Si1 0.211728 0.364269 0.691393
Si Si2 0.485510 0.115890 0.056440
Si Si3 0.976225 0.683691 0.675326
Si Si4 0.987668 0.843705 0.549530
Si Si5 0.250000 0.000000 0.530268
Si Si6 0.250000 0.000000 0.140556
O O1 0.250000 0.500000 0.726381
O O2 0.185169 0.250000 0.750000
O O3 0.094334 0.376183 0.626231
O O4 0.362475 0.342960 0.650558
O O5 0.329607 0.097077 0.090415
O O6 0.490679 0.239745 0.011121
O O7 0.500000 0.000000 0.000000
O O8 0.990464 0.750000 0.750000
O O9 0.875142 0.567459 0.683143
O O10 0.917943 0.778150 0.617848
O O11 0.867428 0.932896 0.518663
O O12 0.140586 0.906832 0.570441
#
# Coordination Sequence:
#
# PCOD9412581 Si02
#       6
#     8   8   8   8   4   4
#     4  11  24  48  71 105 143 194 244 298 370 449
#     4  12  25  42  80 103 138 184 249 306 360 432
#     4  11  25  44  66  97 141 183 234 289 362 437
#     4  11  22  45  66  99 134 177 233 285 355 426
#     4  10  24  41  66  95 136 178 218 288 362 429
#     4  12  24  41  68 105 132 176 230 308 358 407
#
# _framework density 21.297895
#
# number of rings (size 3 to 8) (size 9 to 14) (size 15 to 20)
#    0.000    0.800    4.000    2.400    4.200    1.600 
#   23.400    0.000    0.000    0.000    0.000    0.000 
#    0.000    0.000    0.000    0.000    0.000    0.000 
#
# Total GULP energy -222774.659958 kJ/mol
# GULP energy per Si atom -5569.366499 kJ/mol
# Density = 2.124942 g / cm^3
# Si number density = 21.297895 Si / 1000 Ang^3
#
#
#
# Elastic Constant Matrix: (Units=GPa)
#
#
# Indices 1 2 3 4 5 6 
#
# 1 131.5863 43.0435 29.0653 0.0000 0.0000 0.0000
# 2 43.0435 113.6901 29.3032 0.0000 0.0000 0.0000
# 3 29.0653 29.3032 61.5868 0.0000 0.0000 0.0000
# 4 0.0000 0.0000 0.0000 15.9952 0.0000 0.0000
# 5 0.0000 0.0000 0.0000 0.0000 31.9552 0.0000
# 6 0.0000 0.0000 0.0000 0.0000 0.0000 47.4695
#
#
#
# Elastic Compliance Matrix: (Units=1/GPa)
#
#
# Indices 1 2 3 4 5 6 
#
# 1 0.009148 -0.002679 -0.003043 0.000000 0.000000 0.000000
# 2 -0.002679 0.010810 -0.003879 0.000000 0.000000 0.000000
# 3 -0.003043 -0.003879 0.019519 0.000000 0.000000 0.000000
# 4 0.000000 0.000000 0.000000 0.062519 0.000000 0.000000
# 5 0.000000 0.000000 0.000000 0.000000 0.031294 0.000000
# 6 0.000000 0.000000 0.000000 0.000000 0.000000 0.021066
#
#
# Mechanical properties :
#
#
# Convention : Reuss Voigt Hill
#
# Bulk Modulus (GPa) = 49.32119 56.63192 52.97656
# Shear Modulus (GPa) = 27.72913 32.78071 30.25492
#
# Velocity S-wave (km/s) = 3.61219 3.92746 3.77312
# Velocity P-wave (km/s) = 6.37223 6.87129 6.62646
#
# Compressibility (1/GPa) = 0.02027526
#
# Stress axis : x y z
#
# Youngs Moduli (GPa) = 109.31297 92.50676 51.23276
#
# Poissons Ratio (x) = 0.24785 0.15588
# Poissons Ratio (y) = 0.29288 0.19873
# Poissons Ratio (z) = 0.33259 0.35883
#
# Static dielectric constant tensor:
#      x y z
#    x 1.818320 0.000000 0.000000 
#    y 0.000000 1.926160 0.000000 
#    z 0.000000 0.000000 1.761200 
# 
# From -- ./inp_files/30902.got.cif
#   From: 2010.05.17/outbox.cif.g08.bks.cpg/sg52_16_cif.got.tgz:30902.got - 2010.06.03 12:15:38.
