data_PCOD9412890
_publ_section_title
;
Structure prediction by ZEFSAII (Michael W. Deem and Ramdas Pophale) SiO2 
 PCOD9412890
Probable space group: P N N A
;
_chemical_formula_sum "Si O2"
_cell_formula_units_Z 32
_cell_length_a 13.269892
_cell_length_b 14.643399
_cell_length_c 7.161533
_cell_angle_alpha 90.000000
_cell_angle_beta 90.000000
_cell_angle_gamma 90.000000
_cell_volume 1391.602761
_symmetry_space_group_name_H-M "P N N A"
_symmetry_group_IT_number 52
_symmetry_cell_setting 'orthorhombic'
loop_
_space_group_symop_operation_xyz
x,y,z
1/2-x,-y,z
x,1/2-y,1/2-z
1/2-x,1/2+y,1/2-z
-x,-y,-z
1/2+x,y,-z
-x,1/2+y,1/2+z
1/2+x,1/2-y,1/2+z
loop_
_atom_site_type_symbol
_atom_site_label
_atom_site_fract_x
_atom_site_fract_y
_atom_site_fract_z
Si Si1 0.441441 0.250000 0.250000
Si Si2 0.953863 0.024233 0.299836
Si Si3 0.750000 0.500000 0.034313
Si Si4 0.564317 0.135605 0.003704
Si Si5 0.761523 0.851313 0.769213
O O1 0.516657 0.230399 0.077854
O O2 0.358636 0.167245 0.241396
O O3 0.837447 0.042839 0.342312
O O4 0.959088 0.935783 0.167837
O O5 0.000000 0.000000 0.500000
O O6 0.008025 0.103594 0.184072
O O7 0.787994 0.578924 0.893802
O O8 0.683232 0.121814 0.959862
O O9 0.806717 0.750000 0.750000
#
# Coordination Sequence:
#
# PCOD9412890 Si02
#       5
#     4   8   4   8   8
#     4  10  26  44  70 106 148 192 244 310 370 446
#     4  11  25  45  75 108 141 199 248 307 377 448
#     4  12  24  44  76 104 150 186 256 304 376 444
#     4  11  25  46  75 104 152 194 249 313 376 449
#     4  10  26  45  72 106 145 190 249 302 363 460
#
# _framework density 22.995066999999999
#
# number of rings (size 3 to 8) (size 9 to 14) (size 15 to 20)
#    0.750    0.500    2.500    1.500   10.500    2.000 
#    0.000    2.500    0.000    0.000    0.000    0.000 
#    0.000    0.000    0.000    0.000    0.000    0.000 
#
# Total GULP energy -178348.150135 kJ/mol
# GULP energy per Si atom -5573.379692 kJ/mol
# Density = 2.294273 g / cm^3
# Si number density = 22.995067 Si / 1000 Ang^3
#
#
#
# Elastic Constant Matrix: (Units=GPa)
#
#
# Indices 1 2 3 4 5 6 
#
# 1 116.8366 24.8960 61.5945 0.0000 0.0000 0.0000
# 2 24.8960 66.0412 40.6050 0.0000 0.0000 0.0000
# 3 61.5945 40.6050 144.3781 0.0000 0.0000 0.0000
# 4 0.0000 0.0000 0.0000 20.8892 0.0000 0.0000
# 5 0.0000 0.0000 0.0000 0.0000 52.6263 0.0000
# 6 0.0000 0.0000 0.0000 0.0000 0.0000 29.3036
#
#
#
# Elastic Compliance Matrix: (Units=1/GPa)
#
#
# Indices 1 2 3 4 5 6 
#
# 1 0.011172 -0.001549 -0.004331 0.000000 0.000000 0.000000
# 2 -0.001549 0.018523 -0.004548 0.000000 0.000000 0.000000
# 3 -0.004331 -0.004548 0.010053 0.000000 0.000000 0.000000
# 4 0.000000 0.000000 0.000000 0.047872 0.000000 0.000000
# 5 0.000000 0.000000 0.000000 0.000000 0.019002 0.000000
# 6 0.000000 0.000000 0.000000 0.000000 0.000000 0.034126
#
#
# Mechanical properties :
#
#
# Convention : Reuss Voigt Hill
#
# Bulk Modulus (GPa) = 52.93373 64.60523 58.76948
# Shear Modulus (GPa) = 29.77964 33.90783 31.84374
#
# Velocity S-wave (km/s) = 3.60258 3.84418 3.72534
# Velocity P-wave (km/s) = 6.35408 6.91808 6.64207
#
# Compressibility (1/GPa) = 0.01889155
#
# Stress axis : x y z
#
# Youngs Moduli (GPa) = 89.50918 53.98810 99.47287
#
# Poissons Ratio (x) = 0.08363 0.43078
# Poissons Ratio (y) = 0.13865 0.45245
# Poissons Ratio (z) = 0.38763 0.24556
#
# Static dielectric constant tensor:
#      x y z
#    x 1.964250 0.000000 0.000000 
#    y 0.000000 1.934720 0.000000 
#    z 0.000000 0.000000 1.843100 
# 
# From -- ./inp_files/2044.got.cif
#   From: 2010.05.17/outbox.cif.g08.bks.cpg/sg52_2_cif.got.tgz:2044.got - 2010.06.03 12:15:38.
