data_PCOD9412972
_publ_section_title
;
Structure prediction by ZEFSAII (Michael W. Deem and Ramdas Pophale) SiO2 
 PCOD9412972
Probable space group: P N N A
;
_chemical_formula_sum "Si O2"
_cell_formula_units_Z 52
_cell_length_a 12.371306
_cell_length_b 9.130996
_cell_length_c 22.432679
_cell_angle_alpha 90.000000
_cell_angle_beta 90.000000
_cell_angle_gamma 90.000000
_cell_volume 2534.048038
_symmetry_space_group_name_H-M "P N N A"
_symmetry_group_IT_number 52
_symmetry_cell_setting 'orthorhombic'
loop_
_space_group_symop_operation_xyz
x,y,z
1/2-x,-y,z
x,1/2-y,1/2-z
1/2-x,1/2+y,1/2-z
-x,-y,-z
1/2+x,y,-z
-x,1/2+y,1/2+z
1/2+x,1/2-y,1/2+z
loop_
_atom_site_type_symbol
_atom_site_label
_atom_site_fract_x
_atom_site_fract_y
_atom_site_fract_z
Si Si1 0.926391 0.220934 0.075783
Si Si2 0.423551 0.718285 0.316697
Si Si3 0.250000 0.500000 0.071692
Si Si4 0.750000 0.500000 0.468973
Si Si5 0.618724 0.271181 0.007129
Si Si6 0.632208 0.041209 0.375461
Si Si7 0.250000 0.500000 0.272179
Si Si8 0.099651 0.554719 0.168972
O O1 0.831312 0.105569 0.066822
O O2 0.893068 0.386912 0.091896
O O3 0.995874 0.166365 0.132464
O O4 0.998372 0.241678 0.016533
O O5 0.470685 0.750000 0.250000
O O6 0.323384 0.610928 0.308602
O O7 0.387605 0.878597 0.336553
O O8 0.324605 0.603132 0.031599
O O9 0.168372 0.600597 0.111402
O O10 0.679058 0.381838 0.503655
O O11 0.631326 0.330832 0.074651
O O12 0.750000 0.000000 0.348153
O O13 0.528779 0.079023 0.333805
O O14 0.164936 0.585532 0.229203
#
# Coordination Sequence:
#
# PCOD9412972 Si02
#       8
#     8   8   4   4   8   8   4   8
#     4  11  23  42  59  87 126 169 211 255 313 370
#     4   9  18  37  64  88 118 157 196 264 320 364
#     4  11  18  36  60  89 115 158 214 254 291 354
#     4  12  26  41  54  85 141 167 208 246 324 392
#     4  12  23  37  60  93 124 167 206 257 307 374
#     4  11  20  37  64  88 122 166 214 252 292 369
#     4   9  18  37  64  94 120 151 194 264 325 378
#     4   9  20  34  59  95 117 153 209 255 308 359
#
# _framework density 20.520527999999999
#
# number of rings (size 3 to 8) (size 9 to 14) (size 15 to 20)
#    0.000    1.538    5.385    0.923    2.154    0.615 
#    0.000    4.615   15.231    0.000    0.000    0.000 
#    0.000    0.000    0.000    0.000    0.000    0.000 
#
# Total GULP energy -289777.577249 kJ/mol
# GULP energy per Si atom -5572.645716 kJ/mol
# Density = 2.047382 g / cm^3
# Si number density = 20.520528 Si / 1000 Ang^3
#
#
#
# Elastic Constant Matrix: (Units=GPa)
#
#
# Indices 1 2 3 4 5 6 
#
# 1 123.6921 16.7090 17.5210 0.0000 0.0000 0.0000
# 2 16.7090 66.4515 1.0256 0.0000 0.0000 0.0000
# 3 17.5210 1.0256 28.5998 0.0000 0.0000 0.0000
# 4 0.0000 0.0000 0.0000 -19.6111 0.0000 0.0000
# 5 0.0000 0.0000 0.0000 0.0000 3.3179 0.0000
# 6 0.0000 0.0000 0.0000 0.0000 0.0000 40.1143
#
#
#
# Elastic Compliance Matrix: (Units=1/GPa)
#
#
# Indices 1 2 3 4 5 6 
#
# 1 0.009169 -0.002220 -0.005537 0.000000 0.000000 0.000000
# 2 -0.002220 0.015594 0.000801 0.000000 0.000000 0.000000
# 3 -0.005537 0.000801 0.038329 0.000000 0.000000 0.000000
# 4 0.000000 0.000000 0.000000 -0.050991 0.000000 0.000000
# 5 0.000000 0.000000 0.000000 0.000000 0.301397 0.000000
# 6 0.000000 0.000000 0.000000 0.000000 0.000000 0.024929
#
#
# Mechanical properties :
#
#
# Convention : Reuss Voigt Hill
#
# Bulk Modulus (GPa) = 20.33390 32.13939 26.23664
# Shear Modulus (GPa) = 13.55993 16.99673 15.27833
#
# Velocity S-wave (km/s) = 2.57339 2.88111 2.73158
# Velocity P-wave (km/s) = 4.33132 5.17337 4.77096
#
# Compressibility (1/GPa) = 0.04917895
#
# Stress axis : x y z
#
# Youngs Moduli (GPa) = 109.06470 64.12544 26.08991
#
# Poissons Ratio (x) = 0.14236 0.14447
# Poissons Ratio (y) = 0.24213 -0.02089
# Poissons Ratio (z) = 0.60394 -0.05135
#
# Static dielectric constant tensor:
#      x y z
#    x 1.825430 0.000000 0.000000 
#    y 0.000000 1.727870 0.000000 
#    z 0.000000 0.000000 1.792980 
# 
# From -- ./inp_files/42757.got.cif
#   From: 2010.05.17/outbox.cif.g08.bks.cpg/sg52_22_cif.got.tgz:42757.got - 2010.06.03 12:15:38.
