data_PCOD9412744
_publ_section_title
;
Structure prediction by ZEFSAII (Michael W. Deem and Ramdas Pophale) SiO2 
 PCOD9412744
Probable space group: P N N A
;
_chemical_formula_sum "Si O2"
_cell_formula_units_Z 24
_cell_length_a 13.943895
_cell_length_b 14.350082
_cell_length_c 5.405524
_cell_angle_alpha 90.000000
_cell_angle_beta 90.000000
_cell_angle_gamma 90.000000
_cell_volume 1081.623928
_symmetry_space_group_name_H-M "P N N A"
_symmetry_group_IT_number 52
_symmetry_cell_setting 'orthorhombic'
loop_
_space_group_symop_operation_xyz
x,y,z
1/2-x,-y,z
x,1/2-y,1/2-z
1/2-x,1/2+y,1/2-z
-x,-y,-z
1/2+x,y,-z
-x,1/2+y,1/2+z
1/2+x,1/2-y,1/2+z
loop_
_atom_site_type_symbol
_atom_site_label
_atom_site_fract_x
_atom_site_fract_y
_atom_site_fract_z
Si Si1 0.776029 0.292946 0.996735
Si Si2 0.586371 0.250000 0.250000
Si Si3 0.040959 0.044646 0.754019
Si Si4 0.250000 0.000000 0.617161
O O1 0.816429 0.250000 0.750000
O O2 0.820535 0.250000 0.250000
O O3 0.664080 0.261676 0.027722
O O4 0.777998 0.404616 0.979453
O O5 0.527419 0.155585 0.242408
O O6 0.155594 0.028586 0.764997
O O7 0.000000 0.000000 0.500000
O O8 0.000000 0.000000 0.000000
#
# Coordination Sequence:
#
# PCOD9412744 Si02
#       4
#     8   4   8   4
#     4   9  20  37  67  92 127 178 209 268 343 383
#     4   8  22  42  66  90 144 164 218 288 332 376
#     4  11  26  44  69 101 133 179 229 275 341 406
#     4  10  24  46  72  96 142 174 228 284 340 398
#
# _framework density 22.188856000000001
#
# number of rings (size 3 to 8) (size 9 to 14) (size 15 to 20)
#    1.000    1.333    0.000    0.000    9.333    5.333 
#    9.000    0.000    0.000    0.000    0.000    0.000 
#    0.000    0.000    0.000    0.000    0.000    0.000 
#
# Total GULP energy -133878.791917 kJ/mol
# GULP energy per Si atom -5578.282997 kJ/mol
# Density = 2.213835 g / cm^3
# Si number density = 22.188856 Si / 1000 Ang^3
#
#
#
# Elastic Constant Matrix: (Units=GPa)
#
#
# Indices 1 2 3 4 5 6 
#
# 1 83.7595 42.8494 29.6782 0.0000 0.0000 0.0000
# 2 42.8494 242.2568 88.3346 0.0000 0.0000 0.0000
# 3 29.6782 88.3346 166.4411 0.0000 0.0000 0.0000
# 4 0.0000 0.0000 0.0000 12.1287 0.0000 0.0000
# 5 0.0000 0.0000 0.0000 0.0000 -2.5875 0.0000
# 6 0.0000 0.0000 0.0000 0.0000 0.0000 39.2570
#
#
#
# Elastic Compliance Matrix: (Units=1/GPa)
#
#
# Indices 1 2 3 4 5 6 
#
# 1 0.013385 -0.001857 -0.001401 0.000000 0.000000 0.000000
# 2 -0.001857 0.005376 -0.002522 0.000000 0.000000 0.000000
# 3 -0.001401 -0.002522 0.007597 0.000000 0.000000 0.000000
# 4 0.000000 0.000000 0.000000 0.082449 0.000000 0.000000
# 5 0.000000 0.000000 0.000000 0.000000 -0.386479 0.000000
# 6 0.000000 0.000000 0.000000 0.000000 0.000000 0.025473
#
#
# Mechanical properties :
#
#
# Convention : Reuss Voigt Hill
#
# Bulk Modulus (GPa) = 67.57844 90.46465 79.02154
# Shear Modulus (GPa) = -21.21282 31.86599 5.32659
#
# Velocity S-wave (km/s) = -3.09530 3.79374 1.55106
# Velocity P-wave (km/s) = 4.21279 7.74911 6.23684
#
# Compressibility (1/GPa) = 0.01479762
#
# Stress axis : x y z
#
# Youngs Moduli (GPa) = 74.70907 186.01701 131.63879
#
# Poissons Ratio (x) = 0.34535 0.18448
# Poissons Ratio (y) = 0.13870 0.33200
# Poissons Ratio (z) = 0.10470 0.46915
#
# Static dielectric constant tensor:
#      x y z
#    x 1.939530 0.000000 0.000000 
#    y 0.000000 1.921990 0.000000 
#    z 0.000000 0.000000 1.854560 
# 
# From -- ./inp_files/1795.got.cif
#   From: 2010.05.17/outbox.cif.g08.bks.cpg/sg52_1_cif.got.tgz:1795.got - 2010.06.03 12:15:38.
