data_PCOD9412495
_publ_section_title
;
Structure prediction by ZEFSAII (Michael W. Deem and Ramdas Pophale) SiO2 
 PCOD9412495
Probable space group: P N N A
;
_chemical_formula_sum "Si O2"
_cell_formula_units_Z 52
_cell_length_a 22.092506
_cell_length_b 15.025711
_cell_length_c 7.394921
_cell_angle_alpha 90.000000
_cell_angle_beta 90.000000
_cell_angle_gamma 90.000000
_cell_volume 2454.785515
_symmetry_space_group_name_H-M "P N N A"
_symmetry_group_IT_number 52
_symmetry_cell_setting 'orthorhombic'
loop_
_space_group_symop_operation_xyz
x,y,z
1/2-x,-y,z
x,1/2-y,1/2-z
1/2-x,1/2+y,1/2-z
-x,-y,-z
1/2+x,y,-z
-x,1/2+y,1/2+z
1/2+x,1/2-y,1/2+z
loop_
_atom_site_type_symbol
_atom_site_label
_atom_site_fract_x
_atom_site_fract_y
_atom_site_fract_z
Si Si1 0.396015 0.153027 0.712920
Si Si2 0.067591 0.966217 0.049066
Si Si3 0.163353 0.250000 0.250000
Si Si4 0.808815 0.554931 0.645022
Si Si5 0.531956 0.839527 0.643445
Si Si6 0.682454 0.499263 0.062554
Si Si7 0.610444 0.174250 0.386665
O O1 0.370522 0.250000 0.750000
O O2 0.417363 0.107136 0.897132
O O3 0.448987 0.162834 0.564882
O O4 0.348374 0.089973 0.616961
O O5 0.060602 0.920992 0.245966
O O6 0.125526 0.032879 0.054685
O O7 0.000000 0.000000 0.000000
O O8 0.198650 0.337468 0.329613
O O9 0.122982 0.210220 0.411846
O O10 0.750000 0.500000 0.570089
O O11 0.815602 0.516152 0.847905
O O12 0.550473 0.750000 0.750000
O O13 0.459676 0.844532 0.649327
O O14 0.750000 0.500000 0.132297
O O15 0.646071 0.416393 0.140238
O O16 0.631580 0.250000 0.250000
#
# Coordination Sequence:
#
# PCOD9412495 Si02
#       7
#     8   8   4   8   8   8   8
#     4  12  26  43  70 104 135 186 229 285 358 416
#     4  12  27  43  72 105 142 184 236 293 359 421
#     4  10  24  44  72 100 132 188 238 278 350 436
#     4  10  24  49  71 102 144 189 231 294 356 423
#     4  11  24  44  65 100 144 175 227 292 349 422
#     4  10  23  46  68  95 137 180 229 285 342 415
#     4  10  24  41  68  98 132 177 226 287 347 412
#
# _framework density 21.183114
#
# number of rings (size 3 to 8) (size 9 to 14) (size 15 to 20)
#    0.000    1.231    3.077    0.923   11.846    2.462 
#    9.692    0.000    0.000    0.000    0.000    0.000 
#    0.000    0.000    0.000    0.000    0.000    0.000 
#
# Total GULP energy -290531.498238 kJ/mol
# GULP energy per Si atom -5587.144197 kJ/mol
# Density = 2.113490 g / cm^3
# Si number density = 21.183114 Si / 1000 Ang^3
#
#
#
# Elastic Constant Matrix: (Units=GPa)
#
#
# Indices 1 2 3 4 5 6 
#
# 1 98.4891 62.4686 4.2123 0.0000 0.0000 0.0000
# 2 62.4686 148.6370 24.8924 0.0000 0.0000 0.0000
# 3 4.2123 24.8924 83.5655 0.0000 0.0000 0.0000
# 4 0.0000 0.0000 0.0000 45.2057 0.0000 0.0000
# 5 0.0000 0.0000 0.0000 0.0000 8.0226 0.0000
# 6 0.0000 0.0000 0.0000 0.0000 0.0000 58.2835
#
#
#
# Elastic Compliance Matrix: (Units=1/GPa)
#
#
# Indices 1 2 3 4 5 6 
#
# 1 0.013939 -0.006042 0.001097 0.000000 0.000000 0.000000
# 2 -0.006042 0.009700 -0.002585 0.000000 0.000000 0.000000
# 3 0.001097 -0.002585 0.012681 0.000000 0.000000 0.000000
# 4 0.000000 0.000000 0.000000 0.022121 0.000000 0.000000
# 5 0.000000 0.000000 0.000000 0.000000 0.124648 0.000000
# 6 0.000000 0.000000 0.000000 0.000000 0.000000 0.017158
#
#
# Mechanical properties :
#
#
# Convention : Reuss Voigt Hill
#
# Bulk Modulus (GPa) = 47.03495 57.09313 52.06404
# Shear Modulus (GPa) = 22.48274 38.24358 30.36316
#
# Velocity S-wave (km/s) = 3.26137 4.25359 3.79009
# Velocity P-wave (km/s) = 6.03608 7.15085 6.61698
#
# Compressibility (1/GPa) = 0.02126078
#
# Stress axis : x y z
#
# Youngs Moduli (GPa) = 71.74317 103.09370 78.85610
#
# Poissons Ratio (x) = 0.62287 -0.08651
# Poissons Ratio (y) = 0.43346 0.20383
# Poissons Ratio (z) = -0.07871 0.26648
#
# Static dielectric constant tensor:
#      x y z
#    x -0.788340 0.000000 0.000000 
#    y 0.000000 1.762680 0.000000 
#    z 0.000000 0.000000 1.792670 
# 
# From -- ./inp_files/13360.got.cif
#   From: 2010.05.17/outbox.cif.g08.bks.cpg/sg52_7_cif.got.tgz:13360.got - 2010.06.03 12:15:38.
