data_PCOD9412343
_publ_section_title
;
Structure prediction by ZEFSAII (Michael W. Deem and Ramdas Pophale) SiO2 
 PCOD9412343
Probable space group: P N N A
;
_chemical_formula_sum "Si O2"
_cell_formula_units_Z 32
_cell_length_a 7.582406
_cell_length_b 6.146822
_cell_length_c 29.128394
_cell_angle_alpha 90.000000
_cell_angle_beta 90.000000
_cell_angle_gamma 90.000000
_cell_volume 1357.607449
_symmetry_space_group_name_H-M "P N N A"
_symmetry_group_IT_number 52
_symmetry_cell_setting 'orthorhombic'
loop_
_space_group_symop_operation_xyz
x,y,z
1/2-x,-y,z
x,1/2-y,1/2-z
1/2-x,1/2+y,1/2-z
-x,-y,-z
1/2+x,y,-z
-x,1/2+y,1/2+z
1/2+x,1/2-y,1/2+z
loop_
_atom_site_type_symbol
_atom_site_label
_atom_site_fract_x
_atom_site_fract_y
_atom_site_fract_z
Si Si1 0.889505 0.314081 0.131987
Si Si2 0.750000 0.500000 0.291386
Si Si3 0.250000 0.500000 0.172711
Si Si4 0.996598 0.178592 0.040339
Si Si5 0.058465 0.750000 0.250000
Si Si6 0.250000 0.000000 0.486680
O O1 0.750000 0.500000 0.117612
O O2 0.803098 0.198172 0.175645
O O3 0.924656 0.139084 0.091028
O O4 0.079004 0.418211 0.144817
O O5 0.577639 0.442741 0.262095
O O6 0.177490 0.688182 0.206679
O O7 0.183480 0.298952 0.043715
O O8 0.880716 0.375522 0.020566
O O9 0.000000 0.000000 0.000000
#
# Coordination Sequence:
#
# PCOD9412343 Si02
#       6
#     8   4   4   8   4   4
#     4  12  26  49  74 112 151 195 258 320 378 448
#     4  12  26  46  81 108 154 200 248 311 380 464
#     4  12  25  48  78 112 154 198 248 320 374 469
#     4  11  24  44  72 102 145 198 247 312 386 447
#     4  12  24  48  76 114 152 196 252 300 396 460
#     4  10  23  42  67 100 136 192 240 311 362 451
#
# _framework density 23.570875999999998
#
# number of rings (size 3 to 8) (size 9 to 14) (size 15 to 20)
#    0.000    0.500    3.750    4.500    3.500    0.000 
#    9.000    0.000    0.000    0.000    0.000    0.000 
#    0.000    0.000    0.000    0.000    0.000    0.000 
#
# Total GULP energy -178732.386282 kJ/mol
# GULP energy per Si atom -5585.387071 kJ/mol
# Density = 2.351723 g / cm^3
# Si number density = 23.570876 Si / 1000 Ang^3
#
#
#
# Elastic Constant Matrix: (Units=GPa)
#
#
# Indices 1 2 3 4 5 6 
#
# 1 123.9624 23.5157 43.3173 0.0000 0.0000 0.0000
# 2 23.5157 71.0419 29.1862 0.0000 0.0000 0.0000
# 3 43.3173 29.1862 111.3348 0.0000 0.0000 0.0000
# 4 0.0000 0.0000 0.0000 32.7205 0.0000 0.0000
# 5 0.0000 0.0000 0.0000 0.0000 -1.3593 0.0000
# 6 0.0000 0.0000 0.0000 0.0000 0.0000 54.5820
#
#
#
# Elastic Compliance Matrix: (Units=1/GPa)
#
#
# Indices 1 2 3 4 5 6 
#
# 1 0.009544 -0.001831 -0.003233 0.000000 0.000000 0.000000
# 2 -0.001831 0.016126 -0.003515 0.000000 0.000000 0.000000
# 3 -0.003233 -0.003515 0.011161 0.000000 0.000000 0.000000
# 4 0.000000 0.000000 0.000000 0.030562 0.000000 0.000000
# 5 0.000000 0.000000 0.000000 0.000000 -0.735649 0.000000
# 6 0.000000 0.000000 0.000000 0.000000 0.000000 0.018321
#
#
# Mechanical properties :
#
#
# Convention : Reuss Voigt Hill
#
# Bulk Modulus (GPa) = 50.83078 55.37529 53.10303
# Shear Modulus (GPa) = -7.98445 31.20996 11.61275
#
# Velocity S-wave (km/s) = -1.84249 3.64275 2.22203
# Velocity P-wave (km/s) = 4.13346 6.42160 5.40011
#
# Compressibility (1/GPa) = 0.01967312
#
# Stress axis : x y z
#
# Youngs Moduli (GPa) = 104.77615 62.01022 89.59413
#
# Poissons Ratio (x) = 0.11353 0.28970
# Poissons Ratio (y) = 0.19183 0.31494
# Poissons Ratio (z) = 0.33879 0.21798
#
# Static dielectric constant tensor:
#      x y z
#    x 2.112150 0.000000 0.000000 
#    y 0.000000 1.907160 0.000000 
#    z 0.000000 0.000000 1.893460 
# 
# From -- ./inp_files/44090.got.cif
#   From: 2010.05.17/outbox.cif.g08.bks.cpg/sg52_23_cif.got.tgz:44090.got - 2010.06.03 12:15:38.
