data_PCOD9412456
_publ_section_title
;
Structure prediction by ZEFSAII (Michael W. Deem and Ramdas Pophale) SiO2 
 PCOD9412456
Probable space group: P N N A
;
_chemical_formula_sum "Si O2"
_cell_formula_units_Z 56
_cell_length_a 14.687180
_cell_length_b 27.640731
_cell_length_c 5.744956
_cell_angle_alpha 90.000000
_cell_angle_beta 90.000000
_cell_angle_gamma 90.000000
_cell_volume 2332.247567
_symmetry_space_group_name_H-M "P N N A"
_symmetry_group_IT_number 52
_symmetry_cell_setting 'orthorhombic'
loop_
_space_group_symop_operation_xyz
x,y,z
1/2-x,-y,z
x,1/2-y,1/2-z
1/2-x,1/2+y,1/2-z
-x,-y,-z
1/2+x,y,-z
-x,1/2+y,1/2+z
1/2+x,1/2-y,1/2+z
loop_
_atom_site_type_symbol
_atom_site_label
_atom_site_fract_x
_atom_site_fract_y
_atom_site_fract_z
Si Si1 0.310070 0.424375 0.625591
Si Si2 0.694768 0.185609 0.612887
Si Si3 0.345051 0.750000 0.750000
Si Si4 0.970058 0.808050 0.895048
Si Si5 0.040290 0.887902 0.563220
Si Si6 0.346878 0.578459 0.962074
Si Si7 0.634527 0.672114 0.644783
Si Si8 0.750000 0.500000 0.719931
O O1 0.379169 0.422678 0.845064
O O2 0.333704 0.375481 0.492432
O O3 0.315024 0.468250 0.446733
O O4 0.206849 0.424651 0.719853
O O5 0.719649 0.213822 0.385934
O O6 0.593566 0.204490 0.674872
O O7 0.688621 0.128733 0.574240
O O8 0.770841 0.196709 0.797215
O O9 0.406462 0.710553 0.606398
O O10 0.996926 0.861986 0.795961
O O11 0.068651 0.794169 0.991905
O O12 0.082030 0.848601 0.378449
O O13 0.955429 0.915494 0.446449
O O14 0.311007 0.535019 0.120775
#
# Coordination Sequence:
#
# PCOD9412456 Si02
#       8
#     8   8   4   8   8   8   8   4
#     4  11  23  42  71 104 142 189 239 294 359 430
#     4  11  24  45  75 102 141 189 236 293 359 427
#     4  12  26  46  72 104 146 182 238 292 360 434
#     4  10  24  44  69 102 140 182 232 289 353 428
#     4  10  23  44  72 102 137 185 238 293 362 418
#     4  11  24  45  72 101 145 190 234 301 356 427
#     4  11  23  44  73 106 139 187 239 292 361 431
#     4  12  24  42  68 106 148 188 244 292 356 434
#
# _framework density 24.011174
#
# number of rings (size 3 to 8) (size 9 to 14) (size 15 to 20)
#    0.000    1.143    2.857    2.571    4.000    1.714 
#    5.143    5.000    0.000    0.000    0.000    0.000 
#    0.000    0.000    0.000    0.000    0.000    0.000 
#
# Total GULP energy -312147.796346 kJ/mol
# GULP energy per Si atom -5574.067792 kJ/mol
# Density = 2.395652 g / cm^3
# Si number density = 24.011174 Si / 1000 Ang^3
#
#
#
# Elastic Constant Matrix: (Units=GPa)
#
#
# Indices 1 2 3 4 5 6 
#
# 1 111.5562 23.5092 25.5075 0.0000 0.0000 0.0000
# 2 23.5092 81.7044 20.9790 0.0000 0.0000 0.0000
# 3 25.5075 20.9790 71.7857 0.0000 0.0000 0.0000
# 4 0.0000 0.0000 0.0000 40.5452 0.0000 0.0000
# 5 0.0000 0.0000 0.0000 0.0000 26.8663 0.0000
# 6 0.0000 0.0000 0.0000 0.0000 0.0000 457.2639
#
#
#
# Elastic Compliance Matrix: (Units=1/GPa)
#
#
# Indices 1 2 3 4 5 6 
#
# 1 0.010093 -0.002144 -0.002960 0.000000 0.000000 0.000000
# 2 -0.002144 0.013688 -0.003238 0.000000 0.000000 0.000000
# 3 -0.002960 -0.003238 0.015928 0.000000 0.000000 0.000000
# 4 0.000000 0.000000 0.000000 0.024664 0.000000 0.000000
# 5 0.000000 0.000000 0.000000 0.000000 0.037221 0.000000
# 6 0.000000 0.000000 0.000000 0.000000 0.000000 0.002187
#
#
# Mechanical properties :
#
#
# Convention : Reuss Voigt Hill
#
# Bulk Modulus (GPa) = 43.43161 45.00418 44.21789
# Shear Modulus (GPa) = 39.01993 117.93846 78.47919
#
# Velocity S-wave (km/s) = 4.03559 7.01604 5.72323
# Velocity P-wave (km/s) = 6.31205 9.18786 7.88222
#
# Compressibility (1/GPa) = 0.02302471
#
# Stress axis : x y z
#
# Youngs Moduli (GPa) = 99.08196 73.05851 62.78114
#
# Poissons Ratio (x) = 0.15664 0.18581
# Poissons Ratio (y) = 0.21244 0.20330
# Poissons Ratio (z) = 0.29324 0.23658
#
# Static dielectric constant tensor:
#      x y z
#    x 1.906610 0.000000 0.000000 
#    y 0.000000 1.917190 0.000000 
#    z 0.000000 0.000000 1.998750 
# 
# From -- ./inp_files/2661.got.cif
#   From: 2010.05.17/outbox.cif.g08.bks.cpg/sg52_2_cif.got.tgz:2661.got - 2010.06.03 12:15:38.
