data_PCOD9412413
_publ_section_title
;
Structure prediction by ZEFSAII (Michael W. Deem and Ramdas Pophale) SiO2 
 PCOD9412413
Probable space group: P N N A
;
_chemical_formula_sum "Si O2"
_cell_formula_units_Z 28
_cell_length_a 15.394404
_cell_length_b 11.763015
_cell_length_c 7.524053
_cell_angle_alpha 90.000000
_cell_angle_beta 90.000000
_cell_angle_gamma 90.000000
_cell_volume 1362.490167
_symmetry_space_group_name_H-M "P N N A"
_symmetry_group_IT_number 52
_symmetry_cell_setting 'orthorhombic'
loop_
_space_group_symop_operation_xyz
x,y,z
1/2-x,-y,z
x,1/2-y,1/2-z
1/2-x,1/2+y,1/2-z
-x,-y,-z
1/2+x,y,-z
-x,1/2+y,1/2+z
1/2+x,1/2-y,1/2+z
loop_
_atom_site_type_symbol
_atom_site_label
_atom_site_fract_x
_atom_site_fract_y
_atom_site_fract_z
Si Si1 0.790535 0.250000 0.750000
Si Si2 0.853350 0.832808 0.491594
Si Si3 0.406406 0.895697 0.868289
Si Si4 0.597118 0.524028 0.722102
O O1 0.727772 0.230567 0.580912
O O2 0.848673 0.361987 0.746236
O O3 0.840283 0.884405 0.295726
O O4 0.921026 0.730225 0.452340
O O5 0.883688 0.930111 0.627196
O O6 0.495406 0.945707 0.789138
O O7 0.377464 0.972267 0.031479
#
# Coordination Sequence:
#
# PCOD9412413 Si02
#       4
#     4   8   8   8
#     4  12  24  42  64  94 142 168 210 270 346 378
#     4  11  22  43  65  95 133 165 211 277 323 385
#     4  10  23  43  72  91 126 172 227 263 319 389
#     4  11  23  45  67  95 128 175 218 270 324 389
#
# _framework density 20.550606999999999
#
# number of rings (size 3 to 8) (size 9 to 14) (size 15 to 20)
#    0.000    1.143    2.857    3.429    0.000    0.000 
#   20.571    0.000    0.000    0.000    0.000    0.000 
#    0.000    0.000    0.000    0.000    0.000    0.000 
#
# Total GULP energy -156359.343749 kJ/mol
# GULP energy per Si atom -5584.262277 kJ/mol
# Density = 2.050383 g / cm^3
# Si number density = 20.550607 Si / 1000 Ang^3
#
#
#
# Elastic Constant Matrix: (Units=GPa)
#
#
# Indices 1 2 3 4 5 6 
#
# 1 28.8801 26.0141 30.7375 0.0000 0.0000 0.0000
# 2 26.0141 97.6412 30.1101 0.0000 0.0000 0.0000
# 3 30.7375 30.1101 131.2881 0.0000 0.0000 0.0000
# 4 0.0000 0.0000 0.0000 32.3379 0.0000 0.0000
# 5 0.0000 0.0000 0.0000 0.0000 0.7698 0.0000
# 6 0.0000 0.0000 0.0000 0.0000 0.0000 72.8666
#
#
#
# Elastic Compliance Matrix: (Units=1/GPa)
#
#
# Indices 1 2 3 4 5 6 
#
# 1 0.056434 -0.011795 -0.010507 0.000000 0.000000 0.000000
# 2 -0.011795 0.013486 -0.000331 0.000000 0.000000 0.000000
# 3 -0.010507 -0.000331 0.010153 0.000000 0.000000 0.000000
# 4 0.000000 0.000000 0.000000 0.030923 0.000000 0.000000
# 5 0.000000 0.000000 0.000000 0.000000 1.299122 0.000000
# 6 0.000000 0.000000 0.000000 0.000000 0.000000 0.013724
#
#
# Mechanical properties :
#
#
# Convention : Reuss Voigt Hill
#
# Bulk Modulus (GPa) = 28.73152 47.94807 38.33980
# Shear Modulus (GPa) = 3.37676 32.59138 17.98407
#
# Velocity S-wave (km/s) = 1.28324 3.98667 2.96144
# Velocity P-wave (km/s) = 4.02577 6.67635 5.51274
#
# Compressibility (1/GPa) = 0.03480498
#
# Stress axis : x y z
#
# Youngs Moduli (GPa) = 17.71995 74.14917 98.49461
#
# Poissons Ratio (x) = 0.87460 1.03491
# Poissons Ratio (y) = 0.20901 0.03265
# Poissons Ratio (z) = 0.18619 0.02458
#
# Static dielectric constant tensor:
#      x y z
#    x 1.728990 0.000000 0.000000 
#    y 0.000000 1.757520 0.000000 
#    z 0.000000 0.000000 1.718280 
# 
# From -- ./inp_files/9424.got.cif
#   From: 2010.05.17/outbox.cif.g08.bks.cpg/sg52_5_cif.got.tgz:9424.got - 2010.06.03 12:15:38.
