data_PCOD9412111
_publ_section_title
;
Structure prediction by ZEFSAII (Michael W. Deem and Ramdas Pophale) SiO2 
 PCOD9412111
Probable space group: P N N A
;
_chemical_formula_sum "Si O2"
_cell_formula_units_Z 40
_cell_length_a 5.303317
_cell_length_b 11.318132
_cell_length_c 29.570564
_cell_angle_alpha 90.000000
_cell_angle_beta 90.000000
_cell_angle_gamma 90.000000
_cell_volume 1774.932943
_symmetry_space_group_name_H-M "P N N A"
_symmetry_group_IT_number 52
_symmetry_cell_setting 'orthorhombic'
loop_
_space_group_symop_operation_xyz
x,y,z
1/2-x,-y,z
x,1/2-y,1/2-z
1/2-x,1/2+y,1/2-z
-x,-y,-z
1/2+x,y,-z
-x,1/2+y,1/2+z
1/2+x,1/2-y,1/2+z
loop_
_atom_site_type_symbol
_atom_site_label
_atom_site_fract_x
_atom_site_fract_y
_atom_site_fract_z
Si Si1 0.492502 0.865097 0.519292
Si Si2 0.250000 0.500000 0.391228
Si Si3 0.860262 0.746884 0.298316
Si Si4 0.007786 0.922847 0.659458
Si Si5 0.825011 0.235980 0.607849
Si Si6 0.750000 0.500000 0.330967
O O1 0.233090 0.808186 0.504523
O O2 0.535168 0.847570 0.572135
O O3 0.500000 0.000000 0.500000
O O4 0.216174 0.632076 0.411823
O O5 0.501874 0.509831 0.361471
O O6 0.997745 0.750000 0.250000
O O7 0.632773 0.841612 0.301481
O O8 0.753034 0.616392 0.301649
O O9 0.031350 0.758159 0.343598
O O10 0.931759 0.831554 0.620137
O O11 0.750000 0.000000 0.669099
O O12 0.250000 0.000000 0.646178
#
# Coordination Sequence:
#
# PCOD9412111 Si02
#       6
#     8   4   8   8   8   4
#     4  10  25  42  70 105 144 187 241 308 384 459
#     4  10  22  44  72  99 130 200 238 303 358 446
#     4  11  26  46  72 112 148 204 253 315 380 454
#     4  12  26  43  68 105 149 199 244 317 383 452
#     4  11  25  48  75 104 153 194 261 309 392 452
#     4  10  22  44  66  99 144 192 254 295 358 446
#
# _framework density 22.536062999999999
#
# number of rings (size 3 to 8) (size 9 to 14) (size 15 to 20)
#    0.000    1.200    4.000    0.000    7.000    2.400 
#    1.800    1.000    0.000    0.000    0.000    0.000 
#    0.000    0.000    0.000    0.000    0.000    0.000 
#
# Total GULP energy -222987.864681 kJ/mol
# GULP energy per Si atom -5574.696617 kJ/mol
# Density = 2.248477 g / cm^3
# Si number density = 22.536063 Si / 1000 Ang^3
#
#
#
# Elastic Constant Matrix: (Units=GPa)
#
#
# Indices 1 2 3 4 5 6 
#
# 1 147.0433 25.8868 35.6996 0.0000 0.0000 0.0000
# 2 25.8868 159.8982 33.2133 0.0000 0.0000 0.0000
# 3 35.6996 33.2133 125.9063 0.0000 0.0000 0.0000
# 4 0.0000 0.0000 0.0000 -29.0298 0.0000 0.0000
# 5 0.0000 0.0000 0.0000 0.0000 25.7875 0.0000
# 6 0.0000 0.0000 0.0000 0.0000 0.0000 24.5004
#
#
#
# Elastic Compliance Matrix: (Units=1/GPa)
#
#
# Indices 1 2 3 4 5 6 
#
# 1 0.007400 -0.000806 -0.001886 0.000000 0.000000 0.000000
# 2 -0.000806 0.006704 -0.001540 0.000000 0.000000 0.000000
# 3 -0.001886 -0.001540 0.008883 0.000000 0.000000 0.000000
# 4 0.000000 0.000000 0.000000 -0.034447 0.000000 0.000000
# 5 0.000000 0.000000 0.000000 0.000000 0.038778 0.000000
# 6 0.000000 0.000000 0.000000 0.000000 0.000000 0.040816
#
#
# Mechanical properties :
#
#
# Convention : Reuss Voigt Hill
#
# Bulk Modulus (GPa) = 68.85043 69.16080 69.00561
# Shear Modulus (GPa) = 61.39482 26.78819 44.09150
#
# Velocity S-wave (km/s) = 5.22514 3.45147 4.42802
# Velocity P-wave (km/s) = 8.18659 6.82928 7.53855
#
# Compressibility (1/GPa) = 0.01452424
#
# Stress axis : x y z
#
# Youngs Moduli (GPa) = 135.12635 149.15569 112.57104
#
# Poissons Ratio (x) = 0.12028 0.21226
# Poissons Ratio (y) = 0.10897 0.17335
# Poissons Ratio (z) = 0.25480 0.22969
#
# Static dielectric constant tensor:
#      x y z
#    x 1.951720 0.000000 0.000000 
#    y 0.000000 1.890180 0.000000 
#    z 0.000000 0.000000 1.881310 
# 
# From -- ./inp_files/41537.got.cif
#   From: 2010.05.17/outbox.cif.g08.bks.cpg/sg52_21_cif.got.tgz:41537.got - 2010.06.03 12:15:38.
