data_PCOD9412695
_publ_section_title
;
Structure prediction by ZEFSAII (Michael W. Deem and Ramdas Pophale) SiO2 
 PCOD9412695
Probable space group: P N N A
;
_chemical_formula_sum "Si O2"
_cell_formula_units_Z 40
_cell_length_a 23.656002
_cell_length_b 8.420194
_cell_length_c 9.671093
_cell_angle_alpha 90.000000
_cell_angle_beta 90.000000
_cell_angle_gamma 90.000000
_cell_volume 1926.366892
_symmetry_space_group_name_H-M "P N N A"
_symmetry_group_IT_number 52
_symmetry_cell_setting 'orthorhombic'
loop_
_space_group_symop_operation_xyz
x,y,z
1/2-x,-y,z
x,1/2-y,1/2-z
1/2-x,1/2+y,1/2-z
-x,-y,-z
1/2+x,y,-z
-x,1/2+y,1/2+z
1/2+x,1/2-y,1/2+z
loop_
_atom_site_type_symbol
_atom_site_label
_atom_site_fract_x
_atom_site_fract_y
_atom_site_fract_z
Si Si1 0.875086 0.440822 0.735313
Si Si2 0.813416 0.067152 0.035969
Si Si3 0.494962 0.927796 0.332476
Si Si4 0.886260 0.934238 0.278803
Si Si5 0.310534 0.057632 0.493290
O O1 0.882203 0.250000 0.750000
O O2 0.855438 0.492909 0.584120
O O3 0.933696 0.514728 0.784147
O O4 0.822513 0.481295 0.834365
O O5 0.811563 0.255278 0.016479
O O6 0.750000 0.000000 0.028120
O O7 0.843947 0.025849 0.177654
O O8 0.499066 0.750000 0.250000
O O9 0.500000 0.000000 0.500000
O O10 0.549267 0.012880 0.266444
O O11 0.881009 0.750000 0.250000
O O12 0.862169 0.976821 0.428145
O O13 0.250000 0.000000 0.542405
#
# Coordination Sequence:
#
# PCOD9412695 Si02
#       5
#     8   8   8   8   8
#     4  10  24  44  70  99 140 184 237 293 364 434
#     4  11  24  42  68 104 138 184 236 298 362 441
#     4  12  27  47  76 106 145 192 244 305 377 450
#     4  12  26  44  69  99 139 184 239 294 366 436
#     4  11  22  42  68  97 139 182 232 293 360 434
#
# _framework density 20.764478
#
# number of rings (size 3 to 8) (size 9 to 14) (size 15 to 20)
#    0.000    0.800    2.000    4.800    5.600    2.400 
#    0.000    0.000    0.000    0.000    0.000    0.000 
#    0.000    0.000    0.000    0.000    0.000    0.000 
#
# Total GULP energy -222749.094803 kJ/mol
# GULP energy per Si atom -5568.727370 kJ/mol
# Density = 2.071722 g / cm^3
# Si number density = 20.764478 Si / 1000 Ang^3
#
#
#
# Elastic Constant Matrix: (Units=GPa)
#
#
# Indices 1 2 3 4 5 6 
#
# 1 129.2374 13.5818 1.8912 0.0000 0.0000 0.0000
# 2 13.5818 48.2065 5.8245 0.0000 0.0000 0.0000
# 3 1.8912 5.8245 48.9629 0.0000 0.0000 0.0000
# 4 0.0000 0.0000 0.0000 8.6673 0.0000 0.0000
# 5 0.0000 0.0000 0.0000 0.0000 40.6322 0.0000
# 6 0.0000 0.0000 0.0000 0.0000 0.0000 -59.0310
#
#
#
# Elastic Compliance Matrix: (Units=1/GPa)
#
#
# Indices 1 2 3 4 5 6 
#
# 1 0.007974 -0.002242 -0.000041 0.000000 0.000000 0.000000
# 2 -0.002242 0.021677 -0.002492 0.000000 0.000000 0.000000
# 3 -0.000041 -0.002492 0.020722 0.000000 0.000000 0.000000
# 4 0.000000 0.000000 0.000000 0.115377 0.000000 0.000000
# 5 0.000000 0.000000 0.000000 0.000000 0.024611 0.000000
# 6 0.000000 0.000000 0.000000 0.000000 0.000000 -0.016940
#
#
# Mechanical properties :
#
#
# Convention : Reuss Voigt Hill
#
# Bulk Modulus (GPa) = 24.49638 29.88909 27.19274
# Shear Modulus (GPa) = 25.43531 11.72764 18.58147
#
# Velocity S-wave (km/s) = 3.50372 2.37912 2.99468
# Velocity P-wave (km/s) = 5.30951 4.68748 5.00816
#
# Compressibility (1/GPa) = 0.04082236
#
# Stress axis : x y z
#
# Youngs Moduli (GPa) = 125.40957 46.13243 48.25868
#
# Poissons Ratio (x) = 0.10341 0.00199
# Poissons Ratio (y) = 0.28112 0.12026
# Poissons Ratio (z) = 0.00518 0.11496
#
# Static dielectric constant tensor:
#      x y z
#    x 1.665840 0.000000 0.000000 
#    y 0.000000 1.747950 0.000000 
#    z 0.000000 0.000000 1.774930 
# 
# From -- ./inp_files/13938.got.cif
#   From: 2010.05.17/outbox.cif.g08.bks.cpg/sg52_7_cif.got.tgz:13938.got - 2010.06.03 12:15:38.
