data_PCOD9412159
_publ_section_title
;
Structure prediction by ZEFSAII (Michael W. Deem and Ramdas Pophale) SiO2 
 PCOD9412159
Probable space group: P N N A
;
_chemical_formula_sum "Si O2"
_cell_formula_units_Z 48
_cell_length_a 14.244169
_cell_length_b 17.638216
_cell_length_c 7.073354
_cell_angle_alpha 90.000000
_cell_angle_beta 90.000000
_cell_angle_gamma 90.000000
_cell_volume 1777.121693
_symmetry_space_group_name_H-M "P N N A"
_symmetry_group_IT_number 52
_symmetry_cell_setting 'orthorhombic'
loop_
_space_group_symop_operation_xyz
x,y,z
1/2-x,-y,z
x,1/2-y,1/2-z
1/2-x,1/2+y,1/2-z
-x,-y,-z
1/2+x,y,-z
-x,1/2+y,1/2+z
1/2+x,1/2-y,1/2+z
loop_
_atom_site_type_symbol
_atom_site_label
_atom_site_fract_x
_atom_site_fract_y
_atom_site_fract_z
Si Si1 0.578235 0.605823 0.440187
Si Si2 0.583654 0.007932 0.761770
Si Si3 0.753792 0.229010 0.474562
Si Si4 0.797821 0.890154 0.034432
Si Si5 0.467672 0.269169 0.042828
Si Si6 0.611080 0.396766 0.064276
O O1 0.577957 0.576851 0.658822
O O2 0.512629 0.548888 0.326306
O O3 0.689398 0.600869 0.395552
O O4 0.534283 0.689906 0.426792
O O5 0.664512 0.051412 0.880276
O O6 0.603343 0.024008 0.543755
O O7 0.758231 0.250000 0.250000
O O8 0.698059 0.153044 0.506522
O O9 0.702397 0.304645 0.548841
O O10 0.857085 0.216936 0.550734
O O11 0.524518 0.344295 0.995984
O O12 0.633013 0.099879 0.213166
O O13 0.507015 0.250000 0.250000
#
# Coordination Sequence:
#
# PCOD9412159 Si02
#       6
#     8   8   8   8   8   8
#     4  10  24  45  69 100 149 187 227 304 370 428
#     4  11  24  44  72 101 139 194 239 282 367 440
#     4   9  21  38  61  99 137 174 235 303 361 410
#     4  10  22  45  66  98 148 183 231 301 363 427
#     4  11  23  40  67  99 137 179 237 298 361 424
#     4  11  24  40  71 106 133 184 243 298 351 433
#
# _framework density 27.009968000000001
#
# number of rings (size 3 to 8) (size 9 to 14) (size 15 to 20)
#    0.000    1.667    0.000    4.000   11.667    1.333 
#    0.000   10.833    0.000    0.000    0.000    0.000 
#    0.000    0.000    0.000    0.000    0.000    0.000 
#
# Total GULP energy -268878.552415 kJ/mol
# GULP energy per Si atom -5601.636509 kJ/mol
# Density = 2.694849 g / cm^3
# Si number density = 27.009968 Si / 1000 Ang^3
#
#
#
# Elastic Constant Matrix: (Units=GPa)
#
#
# Indices 1 2 3 4 5 6 
#
# 1 136.9665 28.2667 28.2469 0.0000 0.0000 0.0000
# 2 28.2667 81.0794 27.5791 0.0000 0.0000 0.0000
# 3 28.2469 27.5791 99.1464 0.0000 0.0000 0.0000
# 4 0.0000 0.0000 0.0000 45.0812 0.0000 0.0000
# 5 0.0000 0.0000 0.0000 0.0000 23.1627 0.0000
# 6 0.0000 0.0000 0.0000 0.0000 0.0000 17.6958
#
#
#
# Elastic Compliance Matrix: (Units=1/GPa)
#
#
# Indices 1 2 3 4 5 6 
#
# 1 0.008114 -0.002256 -0.001684 0.000000 0.000000 0.000000
# 2 -0.002256 0.014250 -0.003321 0.000000 0.000000 0.000000
# 3 -0.001684 -0.003321 0.011490 0.000000 0.000000 0.000000
# 4 0.000000 0.000000 0.000000 0.022182 0.000000 0.000000
# 5 0.000000 0.000000 0.000000 0.000000 0.043173 0.000000
# 6 0.000000 0.000000 0.000000 0.000000 0.000000 0.056511
#
#
# Mechanical properties :
#
#
# Convention : Reuss Voigt Hill
#
# Bulk Modulus (GPa) = 51.73001 53.93083 52.83042
# Shear Modulus (GPa) = 28.29894 32.72792 30.51343
#
# Velocity S-wave (km/s) = 3.24037 3.48472 3.36476
# Velocity P-wave (km/s) = 5.76140 6.01676 5.89046
#
# Compressibility (1/GPa) = 0.01933114
#
# Stress axis : x y z
#
# Youngs Moduli (GPa) = 123.24456 70.17681 87.03434
#
# Poissons Ratio (x) = 0.15831 0.14658
# Poissons Ratio (y) = 0.27803 0.28905
# Poissons Ratio (z) = 0.20756 0.23306
#
# Static dielectric constant tensor:
#      x y z
#    x 2.073870 0.000000 0.000000 
#    y 0.000000 2.126980 0.000000 
#    z 0.000000 0.000000 2.131610 
# 
# From -- ./inp_files/10871.got.cif
#   From: 2010.05.17/outbox.cif.g08.bks.cpg/sg52_6_cif.got.tgz:10871.got - 2010.06.03 12:15:38.
