data_PCOD9412600
_publ_section_title
;
Structure prediction by ZEFSAII (Michael W. Deem and Ramdas Pophale) SiO2 
 PCOD9412600
Probable space group: P N N A
;
_chemical_formula_sum "Si O2"
_cell_formula_units_Z 40
_cell_length_a 5.751124
_cell_length_b 12.623849
_cell_length_c 21.078551
_cell_angle_alpha 90.000000
_cell_angle_beta 90.000000
_cell_angle_gamma 90.000000
_cell_volume 1530.330646
_symmetry_space_group_name_H-M "P N N A"
_symmetry_group_IT_number 52
_symmetry_cell_setting 'orthorhombic'
loop_
_space_group_symop_operation_xyz
x,y,z
1/2-x,-y,z
x,1/2-y,1/2-z
1/2-x,1/2+y,1/2-z
-x,-y,-z
1/2+x,y,-z
-x,1/2+y,1/2+z
1/2+x,1/2-y,1/2+z
loop_
_atom_site_type_symbol
_atom_site_label
_atom_site_fract_x
_atom_site_fract_y
_atom_site_fract_z
Si Si1 0.566047 0.250000 0.250000
Si Si2 0.717355 0.733518 0.999104
Si Si3 0.750000 0.000000 0.465425
Si Si4 0.580835 0.571079 0.209650
Si Si5 0.499324 0.955242 0.147294
Si Si6 0.288155 0.766857 0.357088
O O1 0.737051 0.340503 0.228934
O O2 0.408256 0.278436 0.310346
O O3 0.715595 0.697686 0.925919
O O4 0.467882 0.792241 0.000582
O O5 0.733034 0.632555 0.047060
O O6 0.500000 0.000000 0.500000
O O7 0.750000 0.500000 0.165469
O O8 0.504327 0.522335 0.276591
O O9 0.370416 0.626359 0.176583
O O10 0.478923 0.827390 0.140462
O O11 0.750000 0.000000 0.123304
O O12 0.250000 0.000000 0.122176
#
# Coordination Sequence:
#
# PCOD9412600 Si02
#       6
#     4   8   4   8   8   8
#     4  12  22  42  62  98 134 178 216 266 340 384
#     4  10  24  42  65  92 126 177 222 268 324 384
#     4   8  16  38  58  82 122 162 214 258 306 372
#     4  11  24  38  60  96 140 174 216 266 327 406
#     4  11  23  41  66  94 133 175 213 267 339 401
#     4  12  24  41  68  95 136 172 222 277 327 401
#
# _framework density 26.138144
#
# number of rings (size 3 to 8) (size 9 to 14) (size 15 to 20)
#    0.000    1.200    4.000    2.400    2.800    1.600 
#    7.200    0.000    0.000    3.600    0.000    0.000 
#    0.000    0.000    0.000    0.000    0.000    0.000 
#
# Total GULP energy -222738.297787 kJ/mol
# GULP energy per Si atom -5568.457445 kJ/mol
# Density = 2.607865 g / cm^3
# Si number density = 26.138144 Si / 1000 Ang^3
#
#
#
# Elastic Constant Matrix: (Units=GPa)
#
#
# Indices 1 2 3 4 5 6 
#
# 1 198.5398 2.5642 -11.0905 0.0000 0.0000 0.0000
# 2 2.5642 52.3686 -8.4769 0.0000 0.0000 0.0000
# 3 -11.0905 -8.4769 64.3804 0.0000 0.0000 0.0000
# 4 0.0000 0.0000 0.0000 23.5991 0.0000 0.0000
# 5 0.0000 0.0000 0.0000 0.0000 3.2884 0.0000
# 6 0.0000 0.0000 0.0000 0.0000 0.0000 44.5969
#
#
#
# Elastic Compliance Matrix: (Units=1/GPa)
#
#
# Indices 1 2 3 4 5 6 
#
# 1 0.005086 -0.000110 0.000862 0.000000 0.000000 0.000000
# 2 -0.000110 0.019514 0.002550 0.000000 0.000000 0.000000
# 3 0.000862 0.002550 0.016017 0.000000 0.000000 0.000000
# 4 0.000000 0.000000 0.000000 0.042375 0.000000 0.000000
# 5 0.000000 0.000000 0.000000 0.000000 0.304100 0.000000
# 6 0.000000 0.000000 0.000000 0.000000 0.000000 0.022423
#
#
# Mechanical properties :
#
#
# Convention : Reuss Voigt Hill
#
# Bulk Modulus (GPa) = 21.17647 31.25361 26.21504
# Shear Modulus (GPa) = 11.94317 36.44968 24.19642
#
# Velocity S-wave (km/s) = 2.13990 3.73835 3.04585
# Velocity P-wave (km/s) = 3.77159 5.53324 4.73506
#
# Compressibility (1/GPa) = 0.04722223
#
# Stress axis : x y z
#
# Youngs Moduli (GPa) = 196.60555 51.24628 62.43388
#
# Poissons Ratio (x) = 0.00561 -0.05380
# Poissons Ratio (y) = 0.02154 -0.15923
# Poissons Ratio (z) = -0.16943 -0.13070
#
# Static dielectric constant tensor:
#      x y z
#    x 2.127810 0.000000 0.000000 
#    y 0.000000 2.052250 0.000000 
#    z 0.000000 0.000000 1.798890 
# 
# From -- ./inp_files/38672.got.cif
#   From: 2010.05.17/outbox.cif.g08.bks.cpg/sg52_20_cif.got.tgz:38672.got - 2010.06.03 12:15:38.
