data_PCOD9412218
_publ_section_title
;
Structure prediction by ZEFSAII (Michael W. Deem and Ramdas Pophale) SiO2 
 PCOD9412218
Probable space group: P N N A
;
_chemical_formula_sum "Si O2"
_cell_formula_units_Z 28
_cell_length_a 19.679613
_cell_length_b 7.131691
_cell_length_c 7.275505
_cell_angle_alpha 90.000000
_cell_angle_beta 90.000000
_cell_angle_gamma 90.000000
_cell_volume 1021.109261
_symmetry_space_group_name_H-M "P N N A"
_symmetry_group_IT_number 52
_symmetry_cell_setting 'orthorhombic'
loop_
_space_group_symop_operation_xyz
x,y,z
1/2-x,-y,z
x,1/2-y,1/2-z
1/2-x,1/2+y,1/2-z
-x,-y,-z
1/2+x,y,-z
-x,1/2+y,1/2+z
1/2+x,1/2-y,1/2+z
loop_
_atom_site_type_symbol
_atom_site_label
_atom_site_fract_x
_atom_site_fract_y
_atom_site_fract_z
Si Si1 0.444876 0.243824 0.471520
Si Si2 0.158431 0.750000 0.750000
Si Si3 0.092004 0.309975 0.959780
Si Si4 0.756920 0.719333 0.546699
O O1 0.439062 0.250000 0.250000
O O2 0.392221 0.352169 0.603811
O O3 0.522439 0.287930 0.527989
O O4 0.426062 0.029255 0.522134
O O5 0.211941 0.829788 0.601543
O O6 0.100425 0.250000 0.750000
O O7 0.164085 0.270512 0.049748
O O8 0.750000 0.500000 0.499428
O O9 0.728007 0.750000 0.750000
#
# Coordination Sequence:
#
# PCOD9412218 Si02
#       4
#     8   4   8   8
#     4  10  24  45  76 114 152 204 266 332 404 484
#     4  12  26  44  72 108 150 200 254 330 382 480
#     4  10  22  49  75 108 158 206 261 334 406 484
#     4  12  29  46  74 107 153 206 257 322 400 481
#
# _framework density 27.421157999999998
#
# number of rings (size 3 to 8) (size 9 to 14) (size 15 to 20)
#    0.000    1.143    1.429    2.571   10.000    0.000 
#    0.000    5.714    0.000    0.000    0.000    0.000 
#    0.000    0.000    0.000    0.000    0.000    0.000 
#
# Total GULP energy -156718.203600 kJ/mol
# GULP energy per Si atom -5597.078700 kJ/mol
# Density = 2.735875 g / cm^3
# Si number density = 27.421158 Si / 1000 Ang^3
#
#
#
# Elastic Constant Matrix: (Units=GPa)
#
#
# Indices 1 2 3 4 5 6 
#
# 1 254.9824 17.7673 76.7996 0.0000 0.0000 0.0000
# 2 17.7673 100.5109 3.1703 0.0000 0.0000 0.0000
# 3 76.7996 3.1703 253.9408 0.0000 0.0000 0.0000
# 4 0.0000 0.0000 0.0000 29.7339 0.0000 0.0000
# 5 0.0000 0.0000 0.0000 0.0000 36.0739 0.0000
# 6 0.0000 0.0000 0.0000 0.0000 0.0000 37.0782
#
#
#
# Elastic Compliance Matrix: (Units=1/GPa)
#
#
# Indices 1 2 3 4 5 6 
#
# 1 0.004368 -0.000731 -0.001312 0.000000 0.000000 0.000000
# 2 -0.000731 0.010075 0.000095 0.000000 0.000000 0.000000
# 3 -0.001312 0.000095 0.004333 0.000000 0.000000 0.000000
# 4 0.000000 0.000000 0.000000 0.033632 0.000000 0.000000
# 5 0.000000 0.000000 0.000000 0.000000 0.027721 0.000000
# 6 0.000000 0.000000 0.000000 0.000000 0.000000 0.026970
#
#
# Mechanical properties :
#
#
# Convention : Reuss Voigt Hill
#
# Bulk Modulus (GPa) = 67.19556 89.43430 78.31493
# Shear Modulus (GPa) = 43.12031 54.69033 48.90532
#
# Velocity S-wave (km/s) = 3.96980 4.47078 4.22772
# Velocity P-wave (km/s) = 6.75060 7.70301 7.24248
#
# Compressibility (1/GPa) = 0.01488194
#
# Stress axis : x y z
#
# Youngs Moduli (GPa) = 228.94379 99.25230 230.76113
#
# Poissons Ratio (x) = 0.07253 0.30273
# Poissons Ratio (y) = 0.16730 -0.02197
# Poissons Ratio (z) = 0.30034 -0.00945
#
# Static dielectric constant tensor:
#      x y z
#    x 2.179840 0.000000 0.000000 
#    y 0.000000 2.367240 0.000000 
#    z 0.000000 0.000000 2.061300 
# 
# From -- ./inp_files/11332.got.cif
#   From: 2010.05.17/outbox.cif.g08.bks.cpg/sg52_6_cif.got.tgz:11332.got - 2010.06.03 12:15:38.
