data_PCOD9412556
_publ_section_title
;
Structure prediction by ZEFSAII (Michael W. Deem and Ramdas Pophale) SiO2 
 PCOD9412556
Probable space group: P N N A
;
_chemical_formula_sum "Si O2"
_cell_formula_units_Z 36
_cell_length_a 4.813701
_cell_length_b 18.846224
_cell_length_c 15.244093
_cell_angle_alpha 90.000000
_cell_angle_beta 90.000000
_cell_angle_gamma 90.000000
_cell_volume 1382.945448
_symmetry_space_group_name_H-M "P N N A"
_symmetry_group_IT_number 52
_symmetry_cell_setting 'orthorhombic'
loop_
_space_group_symop_operation_xyz
x,y,z
1/2-x,-y,z
x,1/2-y,1/2-z
1/2-x,1/2+y,1/2-z
-x,-y,-z
1/2+x,y,-z
-x,1/2+y,1/2+z
1/2+x,1/2-y,1/2+z
loop_
_atom_site_type_symbol
_atom_site_label
_atom_site_fract_x
_atom_site_fract_y
_atom_site_fract_z
Si Si1 0.520299 0.297453 0.167378
Si Si2 0.468193 0.113008 0.562723
Si Si3 0.362593 0.080120 0.218313
Si Si4 0.750000 0.500000 0.187598
Si Si5 0.231708 0.325038 0.441614
O O1 0.617642 0.250000 0.250000
O O2 0.786969 0.328957 0.117249
O O3 0.317834 0.357654 0.210413
O O4 0.338770 0.245435 0.106618
O O5 0.781173 0.114529 0.526624
O O6 0.443028 0.040481 0.617733
O O7 0.300676 0.110714 0.123836
O O8 0.250000 0.000000 0.230131
O O9 0.679528 0.063247 0.244466
O O10 0.412795 0.328061 0.530439
#
# Coordination Sequence:
#
# PCOD9412556 Si02
#       5
#     8   8   8   4   8
#     4   9  21  45  67 100 133 186 232 287 341 418
#     4  11  23  39  64  94 129 169 215 273 333 397
#     4  10  24  44  70 101 140 186 229 285 352 423
#     4  10  24  40  62  94 136 174 218 268 342 412
#     4  11  25  47  72 101 137 184 237 291 343 406
#
# _framework density 26.031393999999999
#
# number of rings (size 3 to 8) (size 9 to 14) (size 15 to 20)
#    0.000    1.778    0.000    2.000    9.333    0.889 
#    4.000    4.444    0.000    0.000    0.000    0.000 
#    0.000    0.000    0.000    0.000    0.000    0.000 
#
# Total GULP energy -201110.752447 kJ/mol
# GULP energy per Si atom -5586.409790 kJ/mol
# Density = 2.597215 g / cm^3
# Si number density = 26.031394 Si / 1000 Ang^3
#
#
#
# Elastic Constant Matrix: (Units=GPa)
#
#
# Indices 1 2 3 4 5 6 
#
# 1 85.3720 17.6350 0.4009 0.0000 0.0000 0.0000
# 2 17.6350 158.4580 57.8439 0.0000 0.0000 0.0000
# 3 0.4009 57.8439 106.2312 0.0000 0.0000 0.0000
# 4 0.0000 0.0000 0.0000 62.0178 0.0000 0.0000
# 5 0.0000 0.0000 0.0000 0.0000 24.7255 0.0000
# 6 0.0000 0.0000 0.0000 0.0000 0.0000 40.1518
#
#
#
# Elastic Compliance Matrix: (Units=1/GPa)
#
#
# Indices 1 2 3 4 5 6 
#
# 1 0.012051 -0.001653 0.000855 0.000000 0.000000 0.000000
# 2 -0.001653 0.008103 -0.004406 0.000000 0.000000 0.000000
# 3 0.000855 -0.004406 0.011809 0.000000 0.000000 0.000000
# 4 0.000000 0.000000 0.000000 0.016124 0.000000 0.000000
# 5 0.000000 0.000000 0.000000 0.000000 0.040444 0.000000
# 6 0.000000 0.000000 0.000000 0.000000 0.000000 0.024905
#
#
# Mechanical properties :
#
#
# Convention : Reuss Voigt Hill
#
# Bulk Modulus (GPa) = 46.39419 55.75789 51.07604
# Shear Modulus (GPa) = 38.15886 43.65779 40.90832
#
# Velocity S-wave (km/s) = 3.83283 4.09971 3.96851
# Velocity P-wave (km/s) = 6.11952 6.62391 6.37670
#
# Compressibility (1/GPa) = 0.02155443
#
# Stress axis : x y z
#
# Youngs Moduli (GPa) = 82.98121 123.40821 84.67885
#
# Poissons Ratio (x) = 0.20401 -0.07237
# Poissons Ratio (y) = 0.13718 0.37310
# Poissons Ratio (z) = -0.07092 0.54374
#
# Static dielectric constant tensor:
#      x y z
#    x 2.375090 0.000000 0.000000 
#    y 0.000000 2.095260 0.000000 
#    z 0.000000 0.000000 2.019620 
# 
# From -- ./inp_files/23570.got.cif
#   From: 2010.05.17/outbox.cif.g08.bks.cpg/sg52_12_cif.got.tgz:23570.got - 2010.06.03 12:15:38.
