data_PCOD9412003
_publ_section_title
;
Structure prediction by ZEFSAII (Michael W. Deem and Ramdas Pophale) SiO2 
 PCOD9412003
Probable space group: P N N A
;
_chemical_formula_sum "Si O2"
_cell_formula_units_Z 32
_cell_length_a 21.660686
_cell_length_b 8.410464
_cell_length_c 8.230589
_cell_angle_alpha 90.000000
_cell_angle_beta 90.000000
_cell_angle_gamma 90.000000
_cell_volume 1499.419237
_symmetry_space_group_name_H-M "P N N A"
_symmetry_group_IT_number 52
_symmetry_cell_setting 'orthorhombic'
loop_
_space_group_symop_operation_xyz
x,y,z
1/2-x,-y,z
x,1/2-y,1/2-z
1/2-x,1/2+y,1/2-z
-x,-y,-z
1/2+x,y,-z
-x,1/2+y,1/2+z
1/2+x,1/2-y,1/2+z
loop_
_atom_site_type_symbol
_atom_site_label
_atom_site_fract_x
_atom_site_fract_y
_atom_site_fract_z
Si Si1 0.823375 0.250000 0.750000
Si Si2 0.750000 0.000000 0.957880
Si Si3 0.591966 0.897085 0.466232
Si Si4 0.629490 0.081129 0.160732
Si Si5 0.461417 0.757317 0.439670
O O1 0.779101 0.132238 0.844549
O O2 0.863840 0.161641 0.610985
O O3 0.692411 0.056705 0.064349
O O4 0.534860 0.774477 0.461610
O O5 0.620425 0.936814 0.288471
O O6 0.565398 0.072209 0.506136
O O7 0.635610 0.250000 0.250000
O O8 0.571340 0.116279 0.040611
O O9 0.447404 0.750000 0.250000
#
# Coordination Sequence:
#
# PCOD9412003 Si02
#       5
#     4   4   8   8   8
#     4  12  30  46  70 102 142 190 242 296 360 428
#     4  12  30  46  74  98 144 194 242 290 350 434
#     4  10  25  43  70 104 140 179 233 295 363 428
#     4  10  25  45  71 102 140 189 238 294 359 425
#     4  10  22  42  72 101 141 179 232 294 361 423
#
# _framework density 21.341595000000002
#
# number of rings (size 3 to 8) (size 9 to 14) (size 15 to 20)
#    0.000    1.500    0.000    1.500   24.500    1.000 
#    0.000    0.000    0.000    0.000    0.000    0.000 
#    0.000    0.000    0.000    0.000    0.000    0.000 
#
# Total GULP energy -178822.907359 kJ/mol
# GULP energy per Si atom -5588.215855 kJ/mol
# Density = 2.129302 g / cm^3
# Si number density = 21.341595 Si / 1000 Ang^3
#
#
#
# Elastic Constant Matrix: (Units=GPa)
#
#
# Indices 1 2 3 4 5 6 
#
# 1 170.1662 66.9465 105.9705 0.0000 0.0000 0.0000
# 2 66.9465 91.2210 61.8341 0.0000 0.0000 0.0000
# 3 105.9705 61.8341 172.3771 0.0000 0.0000 0.0000
# 4 0.0000 0.0000 0.0000 -15.7539 0.0000 0.0000
# 5 0.0000 0.0000 0.0000 0.0000 70.9379 0.0000
# 6 0.0000 0.0000 0.0000 0.0000 0.0000 16.8167
#
#
#
# Elastic Compliance Matrix: (Units=1/GPa)
#
#
# Indices 1 2 3 4 5 6 
#
# 1 0.010765 -0.004511 -0.005000 0.000000 0.000000 0.000000
# 2 -0.004511 0.016375 -0.003101 0.000000 0.000000 0.000000
# 3 -0.005000 -0.003101 0.009987 0.000000 0.000000 0.000000
# 4 0.000000 0.000000 0.000000 -0.063476 0.000000 0.000000
# 5 0.000000 0.000000 0.000000 0.000000 0.014097 0.000000
# 6 0.000000 0.000000 0.000000 0.000000 0.000000 0.059465
#
#
# Mechanical properties :
#
#
# Convention : Reuss Voigt Hill
#
# Bulk Modulus (GPa) = 84.00573 100.36296 92.18435
# Shear Modulus (GPa) = 65.44239 27.66767 46.55503
#
# Velocity S-wave (km/s) = 5.54354 3.60449 4.67564
# Velocity P-wave (km/s) = 8.96785 8.02821 8.51101
#
# Compressibility (1/GPa) = 0.01190395
#
# Stress axis : x y z
#
# Youngs Moduli (GPa) = 92.89432 61.06893 100.13056
#
# Poissons Ratio (x) = 0.27550 0.50061
# Poissons Ratio (y) = 0.41908 0.31046
# Poissons Ratio (z) = 0.46443 0.18935
#
# Static dielectric constant tensor:
#      x y z
#    x 1.491620 0.000000 0.000000 
#    y 0.000000 1.731960 0.000000 
#    z 0.000000 0.000000 1.703140 
# 
# From -- ./inp_files/12848.got.cif
#   From: 2010.05.17/outbox.cif.g08.bks.cpg/sg52_7_cif.got.tgz:12848.got - 2010.06.03 12:15:38.
