data_PCOD9412878
_publ_section_title
;
Structure prediction by ZEFSAII (Michael W. Deem and Ramdas Pophale) SiO2 
 PCOD9412878
Probable space group: P N N A
;
_chemical_formula_sum "Si O2"
_cell_formula_units_Z 64
_cell_length_a 16.045446
_cell_length_b 8.429876
_cell_length_c 23.029024
_cell_angle_alpha 90.000000
_cell_angle_beta 90.000000
_cell_angle_gamma 90.000000
_cell_volume 3114.931582
_symmetry_space_group_name_H-M "P N N A"
_symmetry_group_IT_number 52
_symmetry_cell_setting 'orthorhombic'
loop_
_space_group_symop_operation_xyz
x,y,z
1/2-x,-y,z
x,1/2-y,1/2-z
1/2-x,1/2+y,1/2-z
-x,-y,-z
1/2+x,y,-z
-x,1/2+y,1/2+z
1/2+x,1/2-y,1/2+z
loop_
_atom_site_type_symbol
_atom_site_label
_atom_site_fract_x
_atom_site_fract_y
_atom_site_fract_z
Si Si1 0.049644 0.116743 0.959412
Si Si2 0.160940 0.073114 0.370957
Si Si3 0.160435 0.059911 0.740558
Si Si4 0.200988 0.333170 0.455282
Si Si5 0.127899 0.605825 0.636469
Si Si6 0.068615 0.888778 0.473196
Si Si7 0.207063 0.834639 0.557279
Si Si8 0.510159 0.643104 0.192414
O O1 0.982810 0.249257 0.941923
O O2 0.093812 0.028733 0.906451
O O3 0.119123 0.168199 0.005186
O O4 0.000000 0.000000 0.000000
O O5 0.181787 0.249411 0.394647
O O6 0.079649 0.081194 0.329499
O O7 0.250000 0.000000 0.350338
O O8 0.128638 0.974174 0.427171
O O9 0.159571 0.250000 0.750000
O O10 0.250000 0.000000 0.715885
O O11 0.152540 0.971193 0.802576
O O12 0.080230 0.993336 0.704788
O O13 0.250000 0.500000 0.450226
O O14 0.254574 0.222497 0.496880
O O15 0.204496 0.701236 0.606754
O O16 0.055102 0.734372 0.648569
O O17 0.113972 0.843469 0.533112
O O18 0.000000 0.000000 0.500000
O O19 0.250000 0.000000 0.574189
O O20 0.498063 0.750000 0.250000
#
# Coordination Sequence:
#
# PCOD9412878 Si02
#       8
#     8   8   8   8   8   8   8   8
#     4  12  23  36  60  95 141 183 223 264 332 415
#     4  12  24  44  70  98 137 192 236 286 358 413
#     4  11  26  50  75 103 137 173 232 303 359 422
#     4  12  22  39  60  97 145 179 222 278 328 419
#     4  11  24  41  69 100 135 182 226 284 354 413
#     4  12  21  38  60  93 141 184 223 271 333 408
#     4  12  22  39  57  98 142 179 220 266 329 418
#     4  10  25  51  72  97 133 176 238 304 355 407
#
# _framework density 20.546195999999998
#
# number of rings (size 3 to 8) (size 9 to 14) (size 15 to 20)
#    0.000    0.500    6.250    2.625    3.500    1.500 
#    0.000    1.250    0.000    0.000    0.000    0.000 
#    0.000    0.000    0.000    0.000    0.000    0.000 
#
# Total GULP energy -357085.074340 kJ/mol
# GULP energy per Si atom -5579.454287 kJ/mol
# Density = 2.049943 g / cm^3
# Si number density = 20.546196 Si / 1000 Ang^3
#
#
#
# Elastic Constant Matrix: (Units=GPa)
#
#
# Indices 1 2 3 4 5 6 
#
# 1 137.9616 54.5322 39.9504 0.0000 0.0000 0.0000
# 2 54.5322 116.0922 25.7096 0.0000 0.0000 0.0000
# 3 39.9504 25.7096 67.3819 0.0000 0.0000 0.0000
# 4 0.0000 0.0000 0.0000 21.7183 0.0000 0.0000
# 5 0.0000 0.0000 0.0000 0.0000 43.8945 0.0000
# 6 0.0000 0.0000 0.0000 0.0000 0.0000 49.8833
#
#
#
# Elastic Compliance Matrix: (Units=1/GPa)
#
#
# Indices 1 2 3 4 5 6 
#
# 1 0.010025 -0.003706 -0.004530 0.000000 0.000000 0.000000
# 2 -0.003706 0.010779 -0.001915 0.000000 0.000000 0.000000
# 3 -0.004530 -0.001915 0.018257 0.000000 0.000000 0.000000
# 4 0.000000 0.000000 0.000000 0.046044 0.000000 0.000000
# 5 0.000000 0.000000 0.000000 0.000000 0.022782 0.000000
# 6 0.000000 0.000000 0.000000 0.000000 0.000000 0.020047
#
#
# Mechanical properties :
#
#
# Convention : Reuss Voigt Hill
#
# Bulk Modulus (GPa) = 53.30817 62.42444 57.86630
# Shear Modulus (GPa) = 32.36478 36.51546 34.44012
#
# Velocity S-wave (km/s) = 3.97321 4.22030 4.09862
# Velocity P-wave (km/s) = 6.85933 7.36182 7.11501
#
# Compressibility (1/GPa) = 0.01875885
#
# Stress axis : x y z
#
# Youngs Moduli (GPa) = 99.75136 92.77472 54.77261
#
# Poissons Ratio (x) = 0.34381 0.24811
# Poissons Ratio (y) = 0.36967 0.10491
# Poissons Ratio (z) = 0.45185 0.17771
#
# Static dielectric constant tensor:
#      x y z
#    x 1.677040 0.000000 0.000000 
#    y 0.000000 0.090080 0.000000 
#    z 0.000000 0.000000 1.715690 
# 
# From -- ./inp_files/40706.got.cif
#   From: 2010.05.17/outbox.cif.g08.bks.cpg/sg52_21_cif.got.tgz:40706.got - 2010.06.03 12:15:38.
