data_PCOD9412510
_publ_section_title
;
Structure prediction by ZEFSAII (Michael W. Deem and Ramdas Pophale) SiO2 
 PCOD9412510
Probable space group: P N N A
;
_chemical_formula_sum "Si O2"
_cell_formula_units_Z 52
_cell_length_a 13.647523
_cell_length_b 8.514611
_cell_length_c 20.946048
_cell_angle_alpha 90.000000
_cell_angle_beta 90.000000
_cell_angle_gamma 90.000000
_cell_volume 2434.000936
_symmetry_space_group_name_H-M "P N N A"
_symmetry_group_IT_number 52
_symmetry_cell_setting 'orthorhombic'
loop_
_space_group_symop_operation_xyz
x,y,z
1/2-x,-y,z
x,1/2-y,1/2-z
1/2-x,1/2+y,1/2-z
-x,-y,-z
1/2+x,y,-z
-x,1/2+y,1/2+z
1/2+x,1/2-y,1/2+z
loop_
_atom_site_type_symbol
_atom_site_label
_atom_site_fract_x
_atom_site_fract_y
_atom_site_fract_z
Si Si1 0.522971 0.519556 0.335161
Si Si2 0.322074 0.250000 0.250000
Si Si3 0.032027 0.490879 0.193282
Si Si4 0.699377 0.672515 0.396401
Si Si5 0.720360 0.320160 0.988746
Si Si6 0.607564 0.192956 0.386572
Si Si7 0.662630 0.303347 0.647274
O O1 0.527201 0.533310 0.258882
O O2 0.595555 0.648579 0.364808
O O3 0.555777 0.350575 0.361214
O O4 0.411815 0.552551 0.354433
O O5 0.390438 0.373864 0.213310
O O6 0.249471 0.321681 0.302591
O O7 0.095335 0.342017 0.172089
O O8 0.956561 0.551539 0.139958
O O9 0.750000 0.500000 0.396565
O O10 0.696687 0.734210 0.468826
O O11 0.778518 0.789426 0.363510
O O12 0.750000 0.500000 0.978686
O O13 0.701520 0.237694 0.922351
O O14 0.626817 0.311202 0.037191
#
# Coordination Sequence:
#
# PCOD9412510 Si02
#       7
#     8   4   8   8   8   8   8
#     4  11  21  45  68  99 138 179 232 286 338 421
#     4  12  24  46  66  96 142 174 234 278 342 410
#     4  12  23  43  70 103 137 180 235 278 352 408
#     4   8  20  44  66  97 138 171 226 276 346 417
#     4  10  23  47  68 100 137 179 229 281 353 405
#     4   9  22  43  69 101 134 179 224 287 347 416
#     4  12  27  43  69 101 136 186 230 289 343 407
#
# _framework density 21.364001999999999
#
# number of rings (size 3 to 8) (size 9 to 14) (size 15 to 20)
#    0.923    0.615    3.077    1.385    2.154    1.231 
#    5.538   13.077    0.000    0.000    0.000    0.000 
#    0.000    0.000    0.000    0.000    0.000    0.000 
#
# Total GULP energy -290369.860808 kJ/mol
# GULP energy per Si atom -5584.035785 kJ/mol
# Density = 2.131538 g / cm^3
# Si number density = 21.364002 Si / 1000 Ang^3
#
#
#
# Elastic Constant Matrix: (Units=GPa)
#
#
# Indices 1 2 3 4 5 6 
#
# 1 80.3441 13.7188 49.1819 0.0000 0.0000 0.0000
# 2 13.7188 39.0573 2.6385 0.0000 0.0000 0.0000
# 3 49.1819 2.6385 125.2000 0.0000 0.0000 0.0000
# 4 0.0000 0.0000 0.0000 29.0360 0.0000 0.0000
# 5 0.0000 0.0000 0.0000 0.0000 -13.1602 0.0000
# 6 0.0000 0.0000 0.0000 0.0000 0.0000 41.8077
#
#
#
# Elastic Compliance Matrix: (Units=1/GPa)
#
#
# Indices 1 2 3 4 5 6 
#
# 1 0.017575 -0.005715 -0.006783 0.000000 0.000000 0.000000
# 2 -0.005715 0.027498 0.001665 0.000000 0.000000 0.000000
# 3 -0.006783 0.001665 0.010617 0.000000 0.000000 0.000000
# 4 0.000000 0.000000 0.000000 0.034440 0.000000 0.000000
# 5 0.000000 0.000000 0.000000 0.000000 -0.075987 0.000000
# 6 0.000000 0.000000 0.000000 0.000000 0.000000 0.023919
#
#
# Mechanical properties :
#
#
# Convention : Reuss Voigt Hill
#
# Bulk Modulus (GPa) = 29.39087 41.74221 35.56654
# Shear Modulus (GPa) = 70.35445 23.47419 46.91432
#
# Velocity S-wave (km/s) = 5.74481 3.31837 4.69118
# Velocity P-wave (km/s) = 7.60203 5.85347 6.78432
#
# Compressibility (1/GPa) = 0.03402417
#
# Stress axis : x y z
#
# Youngs Moduli (GPa) = 56.90010 36.36601 94.19028
#
# Poissons Ratio (x) = 0.20783 0.63893
# Poissons Ratio (y) = 0.32517 -0.15687
# Poissons Ratio (z) = 0.38597 -0.06057
#
# Static dielectric constant tensor:
#      x y z
#    x 1.769700 0.000000 0.000000 
#    y 0.000000 1.828370 0.000000 
#    z 0.000000 0.000000 1.746940 
# 
# From -- ./inp_files/37248.got.cif
#   From: 2010.05.17/outbox.cif.g08.bks.cpg/sg52_19_cif.got.tgz:37248.got - 2010.06.03 12:15:38.
