data_PCOD9412837
_publ_section_title
;
Structure prediction by ZEFSAII (Michael W. Deem and Ramdas Pophale) SiO2 
 PCOD9412837
Probable space group: P N N A
;
_chemical_formula_sum "Si O2"
_cell_formula_units_Z 24
_cell_length_a 8.811354
_cell_length_b 8.242994
_cell_length_c 11.760574
_cell_angle_alpha 90.000000
_cell_angle_beta 90.000000
_cell_angle_gamma 90.000000
_cell_volume 854.193283
_symmetry_space_group_name_H-M "P N N A"
_symmetry_group_IT_number 52
_symmetry_cell_setting 'orthorhombic'
loop_
_space_group_symop_operation_xyz
x,y,z
1/2-x,-y,z
x,1/2-y,1/2-z
1/2-x,1/2+y,1/2-z
-x,-y,-z
1/2+x,y,-z
-x,1/2+y,1/2+z
1/2+x,1/2-y,1/2+z
loop_
_atom_site_type_symbol
_atom_site_label
_atom_site_fract_x
_atom_site_fract_y
_atom_site_fract_z
Si Si1 0.023507 0.673811 0.447339
Si Si2 0.250000 0.000000 0.212936
Si Si3 0.170536 0.250000 0.750000
Si Si4 0.952666 0.108726 0.333753
O O1 0.163838 0.637880 0.361914
O O2 0.000000 0.500000 0.500000
O O3 0.866964 0.689024 0.380012
O O4 0.049018 0.814380 0.541105
O O5 0.121993 0.083796 0.289218
O O6 0.116720 0.437506 0.802629
O O7 0.869216 0.250000 0.250000
#
# Coordination Sequence:
#
# PCOD9412837 Si02
#       4
#     8   4   4   8
#     4  12  24  48  80 103 149 197 245 311 367 440
#     4  12  26  46  78 110 148 198 242 314 366 446
#     4  10  26  44  72 112 144 190 252 302 368 442
#     4  10  25  45  70 112 145 192 256 289 377 434
#
# _framework density 28.096684
#
# number of rings (size 3 to 8) (size 9 to 14) (size 15 to 20)
#    1.000    0.000    3.333    2.000    2.333    4.000 
#    0.000   10.000    0.000    0.000    0.000    0.000 
#    0.000    0.000    0.000    0.000    0.000    0.000 
#
# Total GULP energy -133913.162438 kJ/mol
# GULP energy per Si atom -5579.715102 kJ/mol
# Density = 2.803273 g / cm^3
# Si number density = 28.096684 Si / 1000 Ang^3
#
#
#
# Elastic Constant Matrix: (Units=GPa)
#
#
# Indices 1 2 3 4 5 6 
#
# 1 234.2910 56.0262 88.5400 0.0000 0.0000 0.0000
# 2 56.0262 199.8288 66.2127 0.0000 0.0000 0.0000
# 3 88.5400 66.2127 189.9249 0.0000 0.0000 0.0000
# 4 0.0000 0.0000 0.0000 97.9585 0.0000 0.0000
# 5 0.0000 0.0000 0.0000 0.0000 41.6921 0.0000
# 6 0.0000 0.0000 0.0000 0.0000 0.0000 47.4404
#
#
#
# Elastic Compliance Matrix: (Units=1/GPa)
#
#
# Indices 1 2 3 4 5 6 
#
# 1 0.005279 -0.000751 -0.002199 0.000000 0.000000 0.000000
# 2 -0.000751 0.005765 -0.001659 0.000000 0.000000 0.000000
# 3 -0.002199 -0.001659 0.006869 0.000000 0.000000 0.000000
# 4 0.000000 0.000000 0.000000 0.010208 0.000000 0.000000
# 5 0.000000 0.000000 0.000000 0.000000 0.023985 0.000000
# 6 0.000000 0.000000 0.000000 0.000000 0.000000 0.021079
#
#
# Mechanical properties :
#
#
# Convention : Reuss Voigt Hill
#
# Bulk Modulus (GPa) = 115.03651 116.17805 115.60728
# Shear Modulus (GPa) = 58.61471 64.96925 61.79198
#
# Velocity S-wave (km/s) = 4.57243 4.81390 4.69472
# Velocity P-wave (km/s) = 8.30109 8.50514 8.40373
#
# Compressibility (1/GPa) = 0.00869289
#
# Stress axis : x y z
#
# Youngs Moduli (GPa) = 189.43377 173.46600 145.58382
#
# Poissons Ratio (x) = 0.13035 0.32013
# Poissons Ratio (y) = 0.14235 0.24159
# Poissons Ratio (z) = 0.41656 0.28786
#
# Static dielectric constant tensor:
#      x y z
#    x 2.724590 0.000000 0.000000 
#    y 0.000000 2.030300 0.000000 
#    z 0.000000 0.000000 2.581850 
# 
# From -- ./inp_files/17449.got.cif
#   From: 2010.05.17/outbox.cif.g08.bks.cpg/sg52_9_cif.got.tgz:17449.got - 2010.06.03 12:15:38.
