data_PCOD9412083
_publ_section_title
;
Structure prediction by ZEFSAII (Michael W. Deem and Ramdas Pophale) SiO2 
 PCOD9412083
Probable space group: P N N A
;
_chemical_formula_sum "Si O2"
_cell_formula_units_Z 48
_cell_length_a 27.229314
_cell_length_b 12.417280
_cell_length_c 6.181710
_cell_angle_alpha 90.000000
_cell_angle_beta 90.000000
_cell_angle_gamma 90.000000
_cell_volume 2090.122795
_symmetry_space_group_name_H-M "P N N A"
_symmetry_group_IT_number 52
_symmetry_cell_setting 'orthorhombic'
loop_
_space_group_symop_operation_xyz
x,y,z
1/2-x,-y,z
x,1/2-y,1/2-z
1/2-x,1/2+y,1/2-z
-x,-y,-z
1/2+x,y,-z
-x,1/2+y,1/2+z
1/2+x,1/2-y,1/2+z
loop_
_atom_site_type_symbol
_atom_site_label
_atom_site_fract_x
_atom_site_fract_y
_atom_site_fract_z
Si Si1 0.786120 0.590649 0.880118
Si Si2 0.619895 0.037879 0.364259
Si Si3 0.336122 0.041924 0.041121
Si Si4 0.005297 0.675144 0.573935
Si Si5 0.557992 0.976719 0.748892
Si Si6 0.713857 0.750000 0.750000
Si Si7 0.431542 0.750000 0.750000
O O1 0.750000 0.500000 0.972293
O O2 0.799189 0.549678 0.634426
O O3 0.753172 0.694966 0.908614
O O4 0.838904 0.592503 0.986450
O O5 0.597497 0.138805 0.237880
O O6 0.575674 0.981490 0.498456
O O7 0.651533 0.959466 0.211725
O O8 0.389342 0.014769 0.137597
O O9 0.317388 0.154960 0.140507
O O10 0.032342 0.750000 0.750000
O O11 0.978381 0.574389 0.690247
O O12 0.964042 0.750617 0.466082
O O13 0.034557 0.626701 0.368694
#
# Coordination Sequence:
#
# PCOD9412083 Si02
#       7
#     8   8   8   8   8   4   4
#     4   9  22  42  62  97 135 181 236 291 342 424
#     4  11  23  40  67 101 142 180 238 292 357 419
#     4  10  22  44  68  99 138 183 233 298 350 419
#     4  11  23  42  67 101 141 185 242 287 351 423
#     4  10  23  43  68  95 144 186 228 301 347 419
#     4  10  22  43  72  96 142 190 236 289 352 422
#     4  12  24  37  66 106 132 188 238 285 354 426
#
# _framework density 22.965157999999999
#
# number of rings (size 3 to 8) (size 9 to 14) (size 15 to 20)
#    0.000    1.667    3.333    0.000    2.333    4.667 
#    0.000   11.667    0.000    0.000    0.000    0.000 
#    0.000    0.000    0.000    0.000    0.000    0.000 
#
# Total GULP energy -267500.961986 kJ/mol
# GULP energy per Si atom -5572.936708 kJ/mol
# Density = 2.291289 g / cm^3
# Si number density = 22.965158 Si / 1000 Ang^3
#
#
#
# Elastic Constant Matrix: (Units=GPa)
#
#
# Indices 1 2 3 4 5 6 
#
# 1 89.1638 23.5950 32.7067 0.0000 0.0000 0.0000
# 2 23.5950 88.0740 48.9179 0.0000 0.0000 0.0000
# 3 32.7067 48.9179 92.6799 0.0000 0.0000 0.0000
# 4 0.0000 0.0000 0.0000 24.9841 0.0000 0.0000
# 5 0.0000 0.0000 0.0000 0.0000 -29.8844 0.0000
# 6 0.0000 0.0000 0.0000 0.0000 0.0000 17.2400
#
#
#
# Elastic Compliance Matrix: (Units=1/GPa)
#
#
# Indices 1 2 3 4 5 6 
#
# 1 0.012991 -0.001321 -0.003887 0.000000 0.000000 0.000000
# 2 -0.001321 0.016198 -0.008083 0.000000 0.000000 0.000000
# 3 -0.003887 -0.008083 0.016428 0.000000 0.000000 0.000000
# 4 0.000000 0.000000 0.000000 0.040025 0.000000 0.000000
# 5 0.000000 0.000000 0.000000 0.000000 -0.033462 0.000000
# 6 0.000000 0.000000 0.000000 0.000000 0.000000 0.058005
#
#
# Mechanical properties :
#
#
# Convention : Reuss Voigt Hill
#
# Bulk Modulus (GPa) = 52.53896 53.37301 52.95598
# Shear Modulus (GPa) = 34.93785 13.44781 24.19283
#
# Velocity S-wave (km/s) = 3.90467 2.42249 3.24922
# Velocity P-wave (km/s) = 6.57692 5.57817 6.09803
#
# Compressibility (1/GPa) = 0.01903350
#
# Stress axis : x y z
#
# Youngs Moduli (GPa) = 76.97758 61.73781 60.87199
#
# Poissons Ratio (x) = 0.08157 0.23661
# Poissons Ratio (y) = 0.10171 0.49203
# Poissons Ratio (z) = 0.29922 0.49903
#
# Static dielectric constant tensor:
#      x y z
#    x 1.847830 0.000000 0.000000 
#    y 0.000000 1.415570 0.000000 
#    z 0.000000 0.000000 2.056800 
# 
# From -- ./inp_files/5846.got.cif
#   From: 2010.05.17/outbox.cif.g08.bks.cpg/sg52_3_cif.got.tgz:5846.got - 2010.06.03 12:15:38.
