data_PCOD9412579
_publ_section_title
;
Structure prediction by ZEFSAII (Michael W. Deem and Ramdas Pophale) SiO2 
 PCOD9412579
Probable space group: P N N A
;
_chemical_formula_sum "Si O2"
_cell_formula_units_Z 40
_cell_length_a 18.267423
_cell_length_b 8.833554
_cell_length_c 10.447705
_cell_angle_alpha 90.000000
_cell_angle_beta 90.000000
_cell_angle_gamma 90.000000
_cell_volume 1685.907160
_symmetry_space_group_name_H-M "P N N A"
_symmetry_group_IT_number 52
_symmetry_cell_setting 'orthorhombic'
loop_
_space_group_symop_operation_xyz
x,y,z
1/2-x,-y,z
x,1/2-y,1/2-z
1/2-x,1/2+y,1/2-z
-x,-y,-z
1/2+x,y,-z
-x,1/2+y,1/2+z
1/2+x,1/2-y,1/2+z
loop_
_atom_site_type_symbol
_atom_site_label
_atom_site_fract_x
_atom_site_fract_y
_atom_site_fract_z
Si Si1 0.883222 0.418737 0.957971
Si Si2 0.429139 0.544325 0.579473
Si Si3 0.996749 0.096065 0.321249
Si Si4 0.329277 0.701372 0.898177
Si Si5 0.702794 0.632997 0.555039
O O1 0.946873 0.366525 0.056125
O O2 0.834660 0.531804 0.046445
O O3 0.840098 0.280418 0.893855
O O4 0.928156 0.512595 0.853609
O O5 0.500000 0.500000 0.500000
O O6 0.447926 0.506130 0.725852
O O7 0.405685 0.717897 0.562778
O O8 0.359467 0.450413 0.528871
O O9 0.013612 0.250000 0.250000
O O10 0.320571 0.750000 0.750000
O O11 0.263190 0.786521 0.967204
O O12 0.750000 0.500000 0.626460
#
# Coordination Sequence:
#
# PCOD9412579 Si02
#       5
#     8   8   8   8   8
#     4  11  23  40  67  99 142 188 237 296 365 442
#     4  11  23  40  65  96 140 179 232 299 364 429
#     4  11  22  39  66  99 144 187 242 295 362 438
#     4  11  23  37  62 101 136 179 229 297 370 429
#     4  10  24  41  65  97 141 183 231 303 363 438
#
# _framework density 23.726099999999999
#
# number of rings (size 3 to 8) (size 9 to 14) (size 15 to 20)
#    0.000    1.200    4.000    1.800    5.600    1.600 
#    0.000    0.000    0.000   16.800    0.000    0.000 
#    0.000    0.000    0.000    0.000    0.000    0.000 
#
# Total GULP energy -223514.301261 kJ/mol
# GULP energy per Si atom -5587.857532 kJ/mol
# Density = 2.367210 g / cm^3
# Si number density = 23.726100 Si / 1000 Ang^3
#
#
#
# Elastic Constant Matrix: (Units=GPa)
#
#
# Indices 1 2 3 4 5 6 
#
# 1 128.9315 59.3905 23.4514 0.0000 0.0000 0.0000
# 2 59.3905 166.9575 31.6912 0.0000 0.0000 0.0000
# 3 23.4514 31.6912 35.2605 0.0000 0.0000 0.0000
# 4 0.0000 0.0000 0.0000 29.1535 0.0000 0.0000
# 5 0.0000 0.0000 0.0000 0.0000 2.9925 0.0000
# 6 0.0000 0.0000 0.0000 0.0000 0.0000 63.1782
#
#
#
# Elastic Compliance Matrix: (Units=1/GPa)
#
#
# Indices 1 2 3 4 5 6 
#
# 1 0.009734 -0.002693 -0.004053 0.000000 0.000000 0.000000
# 2 -0.002693 0.007967 -0.005369 0.000000 0.000000 0.000000
# 3 -0.004053 -0.005369 0.035882 0.000000 0.000000 0.000000
# 4 0.000000 0.000000 0.000000 0.034301 0.000000 0.000000
# 5 0.000000 0.000000 0.000000 0.000000 0.334164 0.000000
# 6 0.000000 0.000000 0.000000 0.000000 0.000000 0.015828
#
#
# Mechanical properties :
#
#
# Convention : Reuss Voigt Hill
#
# Bulk Modulus (GPa) = 34.07020 62.24618 48.15819
# Shear Modulus (GPa) = 10.59567 33.50596 22.05081
#
# Velocity S-wave (km/s) = 2.11554 3.76200 3.05190
# Velocity P-wave (km/s) = 4.51202 6.72030 5.72367
#
# Compressibility (1/GPa) = 0.02935116
#
# Stress axis : x y z
#
# Youngs Moduli (GPa) = 102.73380 125.52240 27.86932
#
# Poissons Ratio (x) = 0.33805 0.11296
# Poissons Ratio (y) = 0.27668 0.14963
# Poissons Ratio (z) = 0.41642 0.67394
#
# Static dielectric constant tensor:
#      x y z
#    x 1.858570 0.000000 0.000000 
#    y 0.000000 1.950840 0.000000 
#    z 0.000000 0.000000 1.906850 
# 
# From -- ./inp_files/27868.got.cif
#   From: 2010.05.17/outbox.cif.g08.bks.cpg/sg52_14_cif.got.tgz:27868.got - 2010.06.03 12:15:38.
