data_PCOD9412574
_publ_section_title
;
Structure prediction by ZEFSAII (Michael W. Deem and Ramdas Pophale) SiO2 
 PCOD9412574
Probable space group: P N N A
;
_chemical_formula_sum "Si O2"
_cell_formula_units_Z 28
_cell_length_a 27.862871
_cell_length_b 5.101506
_cell_length_c 9.171906
_cell_angle_alpha 90.000000
_cell_angle_beta 90.000000
_cell_angle_gamma 90.000000
_cell_volume 1303.718599
_symmetry_space_group_name_H-M "P N N A"
_symmetry_group_IT_number 52
_symmetry_cell_setting 'orthorhombic'
loop_
_space_group_symop_operation_xyz
x,y,z
1/2-x,-y,z
x,1/2-y,1/2-z
1/2-x,1/2+y,1/2-z
-x,-y,-z
1/2+x,y,-z
-x,1/2+y,1/2+z
1/2+x,1/2-y,1/2+z
loop_
_atom_site_type_symbol
_atom_site_label
_atom_site_fract_x
_atom_site_fract_y
_atom_site_fract_z
Si Si1 0.802031 0.492354 0.147513
Si Si2 0.782861 0.750000 0.750000
Si Si3 0.973106 0.507735 0.847115
Si Si4 0.139036 0.952304 0.386089
O O1 0.750000 0.500000 0.063422
O O2 0.790935 0.250000 0.250000
O O3 0.812382 0.750000 0.250000
O O4 0.845619 0.377713 0.048394
O O5 0.750000 0.500000 0.718864
O O6 0.822140 0.686738 0.873416
O O7 0.980235 0.250000 0.750000
O O8 0.915952 0.533646 0.875955
O O9 0.989584 0.750000 0.750000
O O10 0.000000 0.500000 0.000000
O O11 0.147232 0.750000 0.250000
#
# Coordination Sequence:
#
# PCOD9412574 Si02
#       4
#     8   4   8   8
#     4  10  24  41  59  88 131 175 216 267 333 406
#     4  12  24  38  64 102 132 172 216 278 340 396
#     4  11  25  46  71 102 138 179 230 294 352 414
#     4  11  25  43  69 100 137 173 238 285 335 409
#
# _framework density 21.477029000000002
#
# number of rings (size 3 to 8) (size 9 to 14) (size 15 to 20)
#    0.000    1.143    2.857    1.714    4.000    3.429 
#    0.000    0.000    0.000    0.000    0.000    0.000 
#    0.000    0.000    0.000    0.000    0.000    0.000 
#
# Total GULP energy -155931.426969 kJ/mol
# GULP energy per Si atom -5568.979535 kJ/mol
# Density = 2.142815 g / cm^3
# Si number density = 21.477029 Si / 1000 Ang^3
#
#
#
# Elastic Constant Matrix: (Units=GPa)
#
#
# Indices 1 2 3 4 5 6 
#
# 1 122.0908 57.8864 73.4565 0.0000 0.0000 0.0000
# 2 57.8864 130.5861 38.7221 0.0000 0.0000 0.0000
# 3 73.4565 38.7221 116.2728 0.0000 0.0000 0.0000
# 4 0.0000 0.0000 0.0000 31.9982 0.0000 0.0000
# 5 0.0000 0.0000 0.0000 0.0000 122.7823 0.0000
# 6 0.0000 0.0000 0.0000 0.0000 0.0000 31.8625
#
#
#
# Elastic Compliance Matrix: (Units=1/GPa)
#
#
# Indices 1 2 3 4 5 6 
#
# 1 0.015108 -0.004290 -0.008116 0.000000 0.000000 0.000000
# 2 -0.004290 0.009715 -0.000525 0.000000 0.000000 0.000000
# 3 -0.008116 -0.000525 0.013902 0.000000 0.000000 0.000000
# 4 0.000000 0.000000 0.000000 0.031252 0.000000 0.000000
# 5 0.000000 0.000000 0.000000 0.000000 0.008144 0.000000
# 6 0.000000 0.000000 0.000000 0.000000 0.000000 0.031385
#
#
# Mechanical properties :
#
#
# Convention : Reuss Voigt Hill
#
# Bulk Modulus (GPa) = 77.73983 78.78663 78.26323
# Shear Modulus (GPa) = 35.80225 50.58758 43.19492
#
# Velocity S-wave (km/s) = 4.08732 4.85854 4.48952
# Velocity P-wave (km/s) = 7.65181 8.26061 7.96203
#
# Compressibility (1/GPa) = 0.01286342
#
# Stress axis : x y z
#
# Youngs Moduli (GPa) = 66.19191 102.93027 71.93026
#
# Poissons Ratio (x) = 0.44162 0.58375
# Poissons Ratio (y) = 0.28399 0.03776
# Poissons Ratio (z) = 0.53718 0.05403
#
# Static dielectric constant tensor:
#      x y z
#    x 1.793280 0.000000 0.000000 
#    y 0.000000 3.256290 0.000000 
#    z 0.000000 0.000000 2.070060 
# 
# From -- ./inp_files/14643.got.cif
#   From: 2010.05.17/outbox.cif.g08.bks.cpg/sg52_8_cif.got.tgz:14643.got - 2010.06.03 12:15:38.
