data_PCOD9412284
_publ_section_title
;
Structure prediction by ZEFSAII (Michael W. Deem and Ramdas Pophale) SiO2 
 PCOD9412284
Probable space group: P N N A
;
_chemical_formula_sum "Si O2"
_cell_formula_units_Z 48
_cell_length_a 10.247355
_cell_length_b 7.785402
_cell_length_c 24.722614
_cell_angle_alpha 90.000000
_cell_angle_beta 90.000000
_cell_angle_gamma 90.000000
_cell_volume 1972.364659
_symmetry_space_group_name_H-M "P N N A"
_symmetry_group_IT_number 52
_symmetry_cell_setting 'orthorhombic'
loop_
_space_group_symop_operation_xyz
x,y,z
1/2-x,-y,z
x,1/2-y,1/2-z
1/2-x,1/2+y,1/2-z
-x,-y,-z
1/2+x,y,-z
-x,1/2+y,1/2+z
1/2+x,1/2-y,1/2+z
loop_
_atom_site_type_symbol
_atom_site_label
_atom_site_fract_x
_atom_site_fract_y
_atom_site_fract_z
Si Si1 0.526731 0.007804 0.091608
Si Si2 0.028480 0.250000 0.750000
Si Si3 0.916305 0.355947 0.860451
Si Si4 0.612171 0.672219 0.130766
Si Si5 0.750000 0.500000 0.030363
Si Si6 0.250000 0.000000 0.730748
Si Si7 0.250000 0.500000 0.508564
Si Si8 0.691124 0.275333 0.938896
O O1 0.593401 0.875135 0.132915
O O2 0.627333 0.046237 0.044502
O O3 0.413812 0.871689 0.073888
O O4 0.491057 0.190550 0.115687
O O5 0.132144 0.095616 0.760945
O O6 0.935209 0.321328 0.797071
O O7 0.773457 0.333971 0.886794
O O8 0.988923 0.537652 0.873038
O O9 0.687263 0.630255 0.074324
O O10 0.684330 0.626731 0.186266
O O11 0.653292 0.414734 0.985018
O O12 0.206044 0.662481 0.473434
#
# Coordination Sequence:
#
# PCOD9412284 Si02
#       8
#     8   4   8   8   4   4   4   8
#     4  12  25  41  69  96 136 180 218 275 331 406
#     4  10  24  44  72  92 134 174 226 296 346 382
#     4  11  25  44  67  96 132 177 225 282 335 400
#     4  10  23  41  63 104 133 169 223 269 343 414
#     4  11  22  38  66  94 144 178 206 279 330 406
#     4   9  22  41  66 102 128 157 226 287 338 394
#     4  12  24  37  62 102 132 171 222 260 324 402
#     4  12  24  41  64  95 140 180 223 263 328 415
#
# _framework density 24.336269999999999
#
# number of rings (size 3 to 8) (size 9 to 14) (size 15 to 20)
#    0.000    1.000    3.333    2.500    9.333    1.333 
#    0.000    0.000   18.333    0.000    0.000    0.000 
#    0.000    0.000    0.000    0.000    0.000    0.000 
#
# Total GULP energy -267619.604411 kJ/mol
# GULP energy per Si atom -5575.408425 kJ/mol
# Density = 2.428088 g / cm^3
# Si number density = 24.336270 Si / 1000 Ang^3
#
#
#
# Elastic Constant Matrix: (Units=GPa)
#
#
# Indices 1 2 3 4 5 6 
#
# 1 77.2976 11.5821 38.8094 0.0000 0.0000 0.0000
# 2 11.5821 101.6421 25.0437 0.0000 0.0000 0.0000
# 3 38.8094 25.0437 86.0114 0.0000 0.0000 0.0000
# 4 0.0000 0.0000 0.0000 8.0678 0.0000 0.0000
# 5 0.0000 0.0000 0.0000 0.0000 -5.4362 0.0000
# 6 0.0000 0.0000 0.0000 0.0000 0.0000 39.4439
#
#
#
# Elastic Compliance Matrix: (Units=1/GPa)
#
#
# Indices 1 2 3 4 5 6 
#
# 1 0.016726 -0.000050 -0.007533 0.000000 0.000000 0.000000
# 2 -0.000050 0.010599 -0.003064 0.000000 0.000000 0.000000
# 3 -0.007533 -0.003064 0.015917 0.000000 0.000000 0.000000
# 4 0.000000 0.000000 0.000000 0.123949 0.000000 0.000000
# 5 0.000000 0.000000 0.000000 0.000000 -0.183953 0.000000
# 6 0.000000 0.000000 0.000000 0.000000 0.000000 0.025352
#
#
# Mechanical properties :
#
#
# Convention : Reuss Voigt Hill
#
# Bulk Modulus (GPa) = 45.55741 46.20237 45.87989
# Shear Modulus (GPa) = 134.40665 21.04952 77.72808
#
# Velocity S-wave (km/s) = 7.43968 2.94418 5.65761
# Velocity P-wave (km/s) = 9.62076 5.53026 7.84675
#
# Compressibility (1/GPa) = 0.02195033
#
# Stress axis : x y z
#
# Youngs Moduli (GPa) = 59.78554 94.34886 62.82526
#
# Poissons Ratio (x) = 0.00472 0.47324
# Poissons Ratio (y) = 0.00299 0.19247
# Poissons Ratio (z) = 0.45034 0.28904
#
# Static dielectric constant tensor:
#      x y z
#    x 2.107680 0.000000 0.000000 
#    y 0.000000 2.082600 0.000000 
#    z 0.000000 0.000000 1.966740 
# 
# From -- ./inp_files/40218.got.cif
#   From: 2010.05.17/outbox.cif.g08.bks.cpg/sg52_21_cif.got.tgz:40218.got - 2010.06.03 12:15:38.
