data_PCOD9412516
_publ_section_title
;
Structure prediction by ZEFSAII (Michael W. Deem and Ramdas Pophale) SiO2 
 PCOD9412516
Probable space group: P N N A
;
_chemical_formula_sum "Si O2"
_cell_formula_units_Z 28
_cell_length_a 10.225041
_cell_length_b 16.115005
_cell_length_c 7.204864
_cell_angle_alpha 90.000000
_cell_angle_beta 90.000000
_cell_angle_gamma 90.000000
_cell_volume 1187.192899
_symmetry_space_group_name_H-M "P N N A"
_symmetry_group_IT_number 52
_symmetry_cell_setting 'orthorhombic'
loop_
_space_group_symop_operation_xyz
x,y,z
1/2-x,-y,z
x,1/2-y,1/2-z
1/2-x,1/2+y,1/2-z
-x,-y,-z
1/2+x,y,-z
-x,1/2+y,1/2+z
1/2+x,1/2-y,1/2+z
loop_
_atom_site_type_symbol
_atom_site_label
_atom_site_fract_x
_atom_site_fract_y
_atom_site_fract_z
Si Si1 0.546280 0.084319 0.093309
Si Si2 0.750000 0.000000 0.363627
Si Si3 0.868062 0.746939 0.024149
Si Si4 0.880507 0.144959 0.583490
O O1 0.659362 0.057741 0.236585
O O2 0.601638 0.158421 0.967049
O O3 0.426873 0.124080 0.208873
O O4 0.500000 0.000000 0.000000
O O5 0.841239 0.059221 0.485789
O O6 0.850163 0.750000 0.250000
O O7 0.994850 0.689930 0.991297
O O8 0.741971 0.705378 0.937033
#
# Coordination Sequence:
#
# PCOD9412516 Si02
#       4
#     8   4   8   8
#     4  11  27  48  74 114 154 195 257 325 384 459
#     4  12  24  48  74 108 146 198 262 308 382 472
#     4  10  23  47  73 109 149 194 257 312 378 464
#     4  11  23  48  77 104 152 203 247 313 388 462
#
# _framework density 23.585048
#
# number of rings (size 3 to 8) (size 9 to 14) (size 15 to 20)
#    0.000    1.143    5.714    0.857    4.000    1.143 
#   10.286    4.286    0.000    0.000    0.000    0.000 
#    0.000    0.000    0.000    0.000    0.000    0.000 
#
# Total GULP energy -156909.501565 kJ/mol
# GULP energy per Si atom -5603.910770 kJ/mol
# Density = 2.353137 g / cm^3
# Si number density = 23.585048 Si / 1000 Ang^3
#
#
#
# Elastic Constant Matrix: (Units=GPa)
#
#
# Indices 1 2 3 4 5 6 
#
# 1 193.4494 90.2476 43.8649 0.0000 0.0000 0.0000
# 2 90.2476 184.5061 31.5676 0.0000 0.0000 0.0000
# 3 43.8649 31.5676 52.6259 0.0000 0.0000 0.0000
# 4 0.0000 0.0000 0.0000 31.5392 0.0000 0.0000
# 5 0.0000 0.0000 0.0000 0.0000 20.5774 0.0000
# 6 0.0000 0.0000 0.0000 0.0000 0.0000 52.5168
#
#
#
# Elastic Compliance Matrix: (Units=1/GPa)
#
#
# Indices 1 2 3 4 5 6 
#
# 1 0.007564 -0.002921 -0.004553 0.000000 0.000000 0.000000
# 2 -0.002921 0.007168 -0.001865 0.000000 0.000000 0.000000
# 3 -0.004553 -0.001865 0.023916 0.000000 0.000000 0.000000
# 4 0.000000 0.000000 0.000000 0.031707 0.000000 0.000000
# 5 0.000000 0.000000 0.000000 0.000000 0.048597 0.000000
# 6 0.000000 0.000000 0.000000 0.000000 0.000000 0.019042
#
#
# Mechanical properties :
#
#
# Convention : Reuss Voigt Hill
#
# Bulk Modulus (GPa) = 50.07458 84.66016 67.36737
# Shear Modulus (GPa) = 30.61343 38.58677 34.60010
#
# Velocity S-wave (km/s) = 3.60669 4.04922 3.83435
# Velocity P-wave (km/s) = 6.21465 7.60495 6.94468
#
# Compressibility (1/GPa) = 0.01997021
#
# Stress axis : x y z
#
# Youngs Moduli (GPa) = 132.19826 139.51510 41.81369
#
# Poissons Ratio (x) = 0.40752 0.19037
# Poissons Ratio (y) = 0.38615 0.07797
# Poissons Ratio (z) = 0.60189 0.26017
#
# Static dielectric constant tensor:
#      x y z
#    x 1.855350 0.000000 0.000000 
#    y 0.000000 1.928230 0.000000 
#    z 0.000000 0.000000 1.949340 
# 
# From -- ./inp_files/7087.got.cif
#   From: 2010.05.17/outbox.cif.g08.bks.cpg/sg52_4_cif.got.tgz:7087.got - 2010.06.03 12:15:38.
