data_PCOD9412557
_publ_section_title
;
Structure prediction by ZEFSAII (Michael W. Deem and Ramdas Pophale) SiO2 
 PCOD9412557
Probable space group: P N N A
;
_chemical_formula_sum "Si O2"
_cell_formula_units_Z 56
_cell_length_a 9.072793
_cell_length_b 13.938007
_cell_length_c 21.763947
_cell_angle_alpha 90.000000
_cell_angle_beta 90.000000
_cell_angle_gamma 90.000000
_cell_volume 2752.195879
_symmetry_space_group_name_H-M "P N N A"
_symmetry_group_IT_number 52
_symmetry_cell_setting 'orthorhombic'
loop_
_space_group_symop_operation_xyz
x,y,z
1/2-x,-y,z
x,1/2-y,1/2-z
1/2-x,1/2+y,1/2-z
-x,-y,-z
1/2+x,y,-z
-x,1/2+y,1/2+z
1/2+x,1/2-y,1/2+z
loop_
_atom_site_type_symbol
_atom_site_label
_atom_site_fract_x
_atom_site_fract_y
_atom_site_fract_z
Si Si1 0.087424 0.806498 0.184217
Si Si2 0.250000 0.000000 0.225657
Si Si3 0.371601 0.136022 0.411289
Si Si4 0.250000 0.500000 0.768382
Si Si5 0.852125 0.816584 0.493412
Si Si6 0.239482 0.678739 0.692761
Si Si7 0.930697 0.277152 0.090714
Si Si8 0.468313 0.966009 0.331263
O O1 0.101466 0.750000 0.250000
O O2 0.169558 0.910347 0.190381
O O3 0.141310 0.733324 0.130229
O O4 0.911431 0.822337 0.172340
O O5 0.370709 0.948655 0.270486
O O6 0.520134 0.139809 0.451799
O O7 0.237478 0.121053 0.457751
O O8 0.383772 0.046461 0.368136
O O9 0.196851 0.580918 0.723800
O O10 0.385824 0.524697 0.810879
O O11 0.720845 0.786235 0.448289
O O12 0.944302 0.749251 0.541038
O O13 0.233985 0.750000 0.750000
O O14 0.118695 0.704468 0.642772
O O15 0.980115 0.374172 0.128241
#
# Coordination Sequence:
#
# PCOD9412557 Si02
#       8
#     8   4   8   4   8   8   8   8
#     4  11  22  42  67  92 133 177 211 278 347 394
#     4  12  24  40  64 104 138 172 222 272 352 408
#     4  11  22  43  64  92 135 174 223 270 336 392
#     4  12  22  38  64  98 132 174 214 264 350 412
#     4  10  24  40  63  92 125 184 220 268 323 400
#     4  11  21  42  66  95 130 177 214 277 345 398
#     4  11  23  40  64  92 132 169 224 269 327 399
#     4  12  23  38  63  99 136 173 214 276 331 421
#
# _framework density 20.347387999999999
#
# number of rings (size 3 to 8) (size 9 to 14) (size 15 to 20)
#    0.000    0.857    5.714    2.571    0.000    4.571 
#    0.000    0.000    0.000    5.143    0.000    0.000 
#    0.000    0.000    0.000    0.000    0.000    0.000 
#
# Total GULP energy -312078.105743 kJ/mol
# GULP energy per Si atom -5572.823317 kJ/mol
# Density = 2.030108 g / cm^3
# Si number density = 20.347388 Si / 1000 Ang^3
#
#
#
# Elastic Constant Matrix: (Units=GPa)
#
#
# Indices 1 2 3 4 5 6 
#
# 1 95.7865 27.5365 35.6366 0.0000 0.0000 0.0000
# 2 27.5365 86.8785 50.0220 0.0000 0.0000 0.0000
# 3 35.6366 50.0220 85.5704 0.0000 0.0000 0.0000
# 4 0.0000 0.0000 0.0000 6.8386 0.0000 0.0000
# 5 0.0000 0.0000 0.0000 0.0000 -101.6897 0.0000
# 6 0.0000 0.0000 0.0000 0.0000 0.0000 20.6179
#
#
#
# Elastic Compliance Matrix: (Units=1/GPa)
#
#
# Indices 1 2 3 4 5 6 
#
# 1 0.012474 -0.001451 -0.004347 0.000000 0.000000 0.000000
# 2 -0.001451 0.017519 -0.009637 0.000000 0.000000 0.000000
# 3 -0.004347 -0.009637 0.019130 0.000000 0.000000 0.000000
# 4 0.000000 0.000000 0.000000 0.146229 0.000000 0.000000
# 5 0.000000 0.000000 0.000000 0.000000 -0.009834 0.000000
# 6 0.000000 0.000000 0.000000 0.000000 0.000000 0.048502
#
#
# Mechanical properties :
#
#
# Convention : Reuss Voigt Hill
#
# Bulk Modulus (GPa) = 54.78286 54.95841 54.87063
# Shear Modulus (GPa) = 18.45199 -4.51063 6.97068
#
# Velocity S-wave (km/s) = 3.01466 -1.49051 1.85291
# Velocity P-wave (km/s) = 6.25298 4.90984 5.62167
#
# Compressibility (1/GPa) = 0.01825389
#
# Stress axis : x y z
#
# Youngs Moduli (GPa) = 80.16543 57.08175 52.27428
#
# Poissons Ratio (x) = 0.08283 0.22723
# Poissons Ratio (y) = 0.11632 0.50375
# Poissons Ratio (z) = 0.34846 0.55008
#
# Static dielectric constant tensor:
#      x y z
#    x 1.891850 0.000000 0.000000 
#    y 0.000000 1.704350 0.000000 
#    z 0.000000 0.000000 1.767210 
# 
# From -- ./inp_files/36073.got.cif
#   From: 2010.05.17/outbox.cif.g08.bks.cpg/sg52_19_cif.got.tgz:36073.got - 2010.06.03 12:15:38.
