data_PCOD9412653
_publ_section_title
;
Structure prediction by ZEFSAII (Michael W. Deem and Ramdas Pophale) SiO2 
 PCOD9412653
Probable space group: P N N A
;
_chemical_formula_sum "Si O2"
_cell_formula_units_Z 44
_cell_length_a 14.608095
_cell_length_b 5.113406
_cell_length_c 26.974927
_cell_angle_alpha 90.000000
_cell_angle_beta 90.000000
_cell_angle_gamma 90.000000
_cell_volume 2014.949376
_symmetry_space_group_name_H-M "P N N A"
_symmetry_group_IT_number 52
_symmetry_cell_setting 'orthorhombic'
loop_
_space_group_symop_operation_xyz
x,y,z
1/2-x,-y,z
x,1/2-y,1/2-z
1/2-x,1/2+y,1/2-z
-x,-y,-z
1/2+x,y,-z
-x,1/2+y,1/2+z
1/2+x,1/2-y,1/2+z
loop_
_atom_site_type_symbol
_atom_site_label
_atom_site_fract_x
_atom_site_fract_y
_atom_site_fract_z
Si Si1 0.143062 0.554469 0.539088
Si Si2 0.976155 0.292797 0.956846
Si Si3 0.250000 0.500000 0.215760
Si Si4 0.509133 0.764931 0.191960
Si Si5 0.187533 0.752549 0.636850
Si Si6 0.918806 0.281334 0.848276
O O1 0.250000 0.500000 0.529631
O O2 0.093915 0.610030 0.487183
O O3 0.141370 0.776001 0.582017
O O4 0.072448 0.336780 0.559588
O O5 0.921624 0.349546 0.906439
O O6 0.000000 0.500000 0.000000
O O7 0.278343 0.750000 0.250000
O O8 0.170907 0.619319 0.180773
O O9 0.492327 0.750000 0.250000
O O10 0.612865 0.822010 0.177323
O O11 0.496098 0.470826 0.173073
O O12 0.444458 0.981431 0.165188
O O13 0.250000 0.500000 0.630715
O O14 0.250000 0.000000 0.648205
#
# Coordination Sequence:
#
# PCOD9412653 Si02
#       6
#     8   8   4   8   8   8
#     4  10  24  43  68  99 142 187 230 292 363 433
#     4  11  25  44  70 105 144 188 245 299 365 452
#     4  12  26  50  74 104 142 192 250 316 382 452
#     4  12  25  45  72 101 140 185 237 300 365 429
#     4  11  24  42  69 101 139 186 232 285 358 437
#     4  12  26  46  72 104 142 185 245 303 373 442
#
# _framework density 21.836776
#
# number of rings (size 3 to 8) (size 9 to 14) (size 15 to 20)
#    0.000    0.727    1.818    5.455   10.182    2.182 
#    1.636    0.000    0.000    0.000    0.000    0.000 
#    0.000    0.000    0.000    0.000    0.000    0.000 
#
# Total GULP energy -245437.633358 kJ/mol
# GULP energy per Si atom -5578.128031 kJ/mol
# Density = 2.178707 g / cm^3
# Si number density = 21.836776 Si / 1000 Ang^3
#
#
#
# Elastic Constant Matrix: (Units=GPa)
#
#
# Indices 1 2 3 4 5 6 
#
# 1 131.4209 29.6700 28.9575 0.0000 0.0000 0.0000
# 2 29.6700 69.0290 18.3888 0.0000 0.0000 0.0000
# 3 28.9575 18.3888 128.0919 0.0000 0.0000 0.0000
# 4 0.0000 0.0000 0.0000 42.3927 0.0000 0.0000
# 5 0.0000 0.0000 0.0000 0.0000 45.5979 0.0000
# 6 0.0000 0.0000 0.0000 0.0000 0.0000 34.7641
#
#
#
# Elastic Compliance Matrix: (Units=1/GPa)
#
#
# Indices 1 2 3 4 5 6 
#
# 1 0.008690 -0.003340 -0.001485 0.000000 0.000000 0.000000
# 2 -0.003340 0.016346 -0.001592 0.000000 0.000000 0.000000
# 3 -0.001485 -0.001592 0.008371 0.000000 0.000000 0.000000
# 4 0.000000 0.000000 0.000000 0.023589 0.000000 0.000000
# 5 0.000000 0.000000 0.000000 0.000000 0.021931 0.000000
# 6 0.000000 0.000000 0.000000 0.000000 0.000000 0.028765
#
#
# Mechanical properties :
#
#
# Convention : Reuss Voigt Hill
#
# Bulk Modulus (GPa) = 48.60345 53.61937 51.11141
# Shear Modulus (GPa) = 39.25146 41.31933 40.28540
#
# Velocity S-wave (km/s) = 4.24429 4.35465 4.29982
# Velocity P-wave (km/s) = 6.80621 7.06342 6.93601
#
# Compressibility (1/GPa) = 0.02057467
#
# Stress axis : x y z
#
# Youngs Moduli (GPa) = 115.07014 61.17666 119.45799
#
# Poissons Ratio (x) = 0.20431 0.17742
# Poissons Ratio (y) = 0.38429 0.19014
# Poissons Ratio (z) = 0.17090 0.09737
#
# Static dielectric constant tensor:
#      x y z
#    x 1.790920 0.000000 0.000000 
#    y 0.000000 1.829870 0.000000 
#    z 0.000000 0.000000 1.921910 
# 
# From -- ./inp_files/42928.got.cif
#   From: 2010.05.17/outbox.cif.g08.bks.cpg/sg52_22_cif.got.tgz:42928.got - 2010.06.03 12:15:38.
