data_PCOD9412192
_publ_section_title
;
Structure prediction by ZEFSAII (Michael W. Deem and Ramdas Pophale) SiO2 
 PCOD9412192
Probable space group: P N N A
;
_chemical_formula_sum "Si O2"
_cell_formula_units_Z 48
_cell_length_a 5.547421
_cell_length_b 13.744408
_cell_length_c 25.408807
_cell_angle_alpha 90.000000
_cell_angle_beta 90.000000
_cell_angle_gamma 90.000000
_cell_volume 1937.320345
_symmetry_space_group_name_H-M "P N N A"
_symmetry_group_IT_number 52
_symmetry_cell_setting 'orthorhombic'
loop_
_space_group_symop_operation_xyz
x,y,z
1/2-x,-y,z
x,1/2-y,1/2-z
1/2-x,1/2+y,1/2-z
-x,-y,-z
1/2+x,y,-z
-x,1/2+y,1/2+z
1/2+x,1/2-y,1/2+z
loop_
_atom_site_type_symbol
_atom_site_label
_atom_site_fract_x
_atom_site_fract_y
_atom_site_fract_z
Si Si1 0.408330 0.881869 0.969833
Si Si2 0.606618 0.596059 0.864579
Si Si3 0.250000 0.500000 0.399074
Si Si4 0.617729 0.149186 0.467957
Si Si5 0.091896 0.408174 0.751768
Si Si6 0.765697 0.184010 0.836073
Si Si7 0.916712 0.250000 0.250000
O O1 0.511282 0.949376 0.924052
O O2 0.401153 0.766424 0.959713
O O3 0.138054 0.899723 0.990723
O O4 0.750000 0.500000 0.883490
O O5 0.398816 0.604877 0.909224
O O6 0.572168 0.572906 0.802314
O O7 0.705547 0.709214 0.862323
O O8 0.337916 0.597521 0.370939
O O9 0.869691 0.125776 0.498615
O O10 0.250000 0.500000 0.737646
O O11 0.258750 0.327857 0.779113
O O12 0.987834 0.359804 0.698636
O O13 0.576626 0.195134 0.790269
#
# Coordination Sequence:
#
# PCOD9412192 Si02
#       7
#     8   8   4   8   8   8   4
#     4  10  22  46  71 104 150 197 247 311 381 459
#     4  12  25  48  76 106 151 199 254 314 388 453
#     4  12  24  42  72 106 146 192 246 306 392 442
#     4  10  24  48  76 109 149 196 255 324 388 460
#     4  12  26  47  73 109 147 202 253 309 383 453
#     4  12  25  48  68 112 152 194 249 310 367 464
#     4  12  22  46  72  94 160 194 240 320 354 458
#
# _framework density 24.776492000000001
#
# number of rings (size 3 to 8) (size 9 to 14) (size 15 to 20)
#    0.000    0.667    5.000    2.500    1.167    3.333 
#   12.000    0.000    0.000    0.000    0.000    0.000 
#    0.000    0.000    0.000    0.000    0.000    0.000 
#
# Total GULP energy -267380.643894 kJ/mol
# GULP energy per Si atom -5570.430081 kJ/mol
# Density = 2.472010 g / cm^3
# Si number density = 24.776492 Si / 1000 Ang^3
#
#
#
# Elastic Constant Matrix: (Units=GPa)
#
#
# Indices 1 2 3 4 5 6 
#
# 1 39.6954 22.1430 5.3414 0.0000 0.0000 0.0000
# 2 22.1430 123.5956 29.4519 0.0000 0.0000 0.0000
# 3 5.3414 29.4519 63.2456 0.0000 0.0000 0.0000
# 4 0.0000 0.0000 0.0000 10.9590 0.0000 0.0000
# 5 0.0000 0.0000 0.0000 0.0000 -39.2189 0.0000
# 6 0.0000 0.0000 0.0000 0.0000 0.0000 42.5806
#
#
#
# Elastic Compliance Matrix: (Units=1/GPa)
#
#
# Indices 1 2 3 4 5 6 
#
# 1 0.027989 -0.005007 -0.000032 0.000000 0.000000 0.000000
# 2 -0.005007 0.009996 -0.004232 0.000000 0.000000 0.000000
# 3 -0.000032 -0.004232 0.017785 0.000000 0.000000 0.000000
# 4 0.000000 0.000000 0.000000 0.091250 0.000000 0.000000
# 5 0.000000 0.000000 0.000000 0.000000 -0.025498 0.000000
# 6 0.000000 0.000000 0.000000 0.000000 0.000000 0.023485
#
#
# Mechanical properties :
#
#
# Convention : Reuss Voigt Hill
#
# Bulk Modulus (GPa) = 26.86160 37.82325 32.34243
# Shear Modulus (GPa) = 28.41574 14.17081 21.29327
#
# Velocity S-wave (km/s) = 3.39024 2.39413 2.93476
# Velocity P-wave (km/s) = 5.11762 4.78972 4.95638
#
# Compressibility (1/GPa) = 0.03722786
#
# Stress axis : x y z
#
# Youngs Moduli (GPa) = 35.72828 100.03589 56.22727
#
# Poissons Ratio (x) = 0.50085 0.00182
# Poissons Ratio (y) = 0.17888 0.23797
# Poissons Ratio (z) = 0.00115 0.42338
#
# Static dielectric constant tensor:
#      x y z
#    x 2.273310 0.000000 0.000000 
#    y 0.000000 2.001890 0.000000 
#    z 0.000000 0.000000 2.045970 
# 
# From -- ./inp_files/41730.got.cif
#   From: 2010.05.17/outbox.cif.g08.bks.cpg/sg52_21_cif.got.tgz:41730.got - 2010.06.03 12:15:38.
