data_PCOD9412678
_publ_section_title
;
Structure prediction by ZEFSAII (Michael W. Deem and Ramdas Pophale) SiO2 
 PCOD9412678
Probable space group: P N N A
;
_chemical_formula_sum "Si O2"
_cell_formula_units_Z 40
_cell_length_a 10.430003
_cell_length_b 14.580388
_cell_length_c 12.119594
_cell_angle_alpha 90.000000
_cell_angle_beta 90.000000
_cell_angle_gamma 90.000000
_cell_volume 1843.068964
_symmetry_space_group_name_H-M "P N N A"
_symmetry_group_IT_number 52
_symmetry_cell_setting 'orthorhombic'
loop_
_space_group_symop_operation_xyz
x,y,z
1/2-x,-y,z
x,1/2-y,1/2-z
1/2-x,1/2+y,1/2-z
-x,-y,-z
1/2+x,y,-z
-x,1/2+y,1/2+z
1/2+x,1/2-y,1/2+z
loop_
_atom_site_type_symbol
_atom_site_label
_atom_site_fract_x
_atom_site_fract_y
_atom_site_fract_z
Si Si1 0.874836 0.401104 0.978530
Si Si2 0.110945 0.152719 0.815028
Si Si3 0.162432 0.250000 0.250000
Si Si4 0.341699 0.425921 0.264823
Si Si5 0.250000 0.500000 0.828278
Si Si6 0.380961 0.723093 0.012391
O O1 0.860055 0.464905 0.086241
O O2 0.000924 0.338635 0.971603
O O3 0.869666 0.454438 0.862394
O O4 0.749546 0.335858 0.986484
O O5 0.099450 0.250000 0.750000
O O6 0.204825 0.084449 0.748615
O O7 0.975278 0.100539 0.818848
O O8 0.143545 0.188030 0.937314
O O9 0.256105 0.335869 0.257448
O O10 0.084065 0.253107 0.137930
O O11 0.250000 0.500000 0.320173
#
# Coordination Sequence:
#
# PCOD9412678 Si02
#       6
#     8   8   4   8   4   8
#     4  11  22  40  71 104 134 177 238 290 338 418
#     4  12  23  46  67 103 148 182 219 296 368 411
#     4  10  24  44  68 102 128 182 238 288 334 426
#     4  11  22  42  72 100 132 180 237 284 344 418
#     4  12  26  36  70 112 140 178 236 294 356 418
#     4  11  24  45  72  96 142 184 231 285 360 414
#
# _framework density 21.702932000000001
#
# number of rings (size 3 to 8) (size 9 to 14) (size 15 to 20)
#    0.000    0.800    6.000    1.200    5.600    3.200 
#    1.800    1.000    0.000    0.000    0.000    0.000 
#    0.000    0.000    0.000    0.000    0.000    0.000 
#
# Total GULP energy -223538.974191 kJ/mol
# GULP energy per Si atom -5588.474355 kJ/mol
# Density = 2.165353 g / cm^3
# Si number density = 21.702932 Si / 1000 Ang^3
#
#
#
# Elastic Constant Matrix: (Units=GPa)
#
#
# Indices 1 2 3 4 5 6 
#
# 1 67.6261 23.8053 -19.0612 0.0000 0.0000 0.0000
# 2 23.8053 97.5958 9.6369 0.0000 0.0000 0.0000
# 3 -19.0612 9.6369 67.4972 0.0000 0.0000 0.0000
# 4 0.0000 0.0000 0.0000 9.8106 0.0000 0.0000
# 5 0.0000 0.0000 0.0000 0.0000 14.0857 0.0000
# 6 0.0000 0.0000 0.0000 0.0000 0.0000 47.2560
#
#
#
# Elastic Compliance Matrix: (Units=1/GPa)
#
#
# Indices 1 2 3 4 5 6 
#
# 1 0.018205 -0.005019 0.005858 0.000000 0.000000 0.000000
# 2 -0.005019 0.011777 -0.003099 0.000000 0.000000 0.000000
# 3 0.005858 -0.003099 0.016912 0.000000 0.000000 0.000000
# 4 0.000000 0.000000 0.000000 0.101931 0.000000 0.000000
# 5 0.000000 0.000000 0.000000 0.000000 0.070994 0.000000
# 6 0.000000 0.000000 0.000000 0.000000 0.000000 0.021161
#
#
# Mechanical properties :
#
#
# Convention : Reuss Voigt Hill
#
# Bulk Modulus (GPa) = 23.59962 29.05346 26.32654
# Shear Modulus (GPa) = 19.25863 28.78634 24.02249
#
# Velocity S-wave (km/s) = 2.98212 3.64590 3.33059
# Velocity P-wave (km/s) = 4.77021 5.58027 5.19106
#
# Compressibility (1/GPa) = 0.04237357
#
# Stress axis : x y z
#
# Youngs Moduli (GPa) = 54.93011 84.91476 59.12943
#
# Poissons Ratio (x) = 0.42618 -0.34636
# Poissons Ratio (y) = 0.27569 0.18323
# Poissons Ratio (z) = -0.32176 0.26313
#
# Static dielectric constant tensor:
#      x y z
#    x 1.799090 0.000000 0.000000 
#    y 0.000000 1.809730 0.000000 
#    z 0.000000 0.000000 1.894040 
# 
# From -- ./inp_files/18040.got.cif
#   From: 2010.05.17/outbox.cif.g08.bks.cpg/sg52_10_cif.got.tgz:18040.got - 2010.06.03 12:15:38.
