data_PCOD9412028
_publ_section_title
;
Structure prediction by ZEFSAII (Michael W. Deem and Ramdas Pophale) SiO2 
 PCOD9412028
Probable space group: P N N A
;
_chemical_formula_sum "Si O2"
_cell_formula_units_Z 28
_cell_length_a 20.316909
_cell_length_b 13.371145
_cell_length_c 5.252957
_cell_angle_alpha 90.000000
_cell_angle_beta 90.000000
_cell_angle_gamma 90.000000
_cell_volume 1427.020065
_symmetry_space_group_name_H-M "P N N A"
_symmetry_group_IT_number 52
_symmetry_cell_setting 'orthorhombic'
loop_
_space_group_symop_operation_xyz
x,y,z
1/2-x,-y,z
x,1/2-y,1/2-z
1/2-x,1/2+y,1/2-z
-x,-y,-z
1/2+x,y,-z
-x,1/2+y,1/2+z
1/2+x,1/2-y,1/2+z
loop_
_atom_site_type_symbol
_atom_site_label
_atom_site_fract_x
_atom_site_fract_y
_atom_site_fract_z
Si Si1 0.882571 0.374548 0.458902
Si Si2 0.517516 0.750000 0.750000
Si Si3 0.678834 0.950395 0.530493
Si Si4 0.556872 0.452754 0.169277
O O1 0.932175 0.284513 0.526307
O O2 0.837430 0.375814 0.206035
O O3 0.927773 0.473550 0.406234
O O4 0.838330 0.396081 0.706118
O O5 0.469699 0.656609 0.782818
O O6 0.750000 0.000000 0.523285
O O7 0.624899 0.038041 0.486432
O O8 0.500000 0.500000 0.000000
#
# Coordination Sequence:
#
# PCOD9412028 Si02
#       4
#     8   4   8   8
#     4  10  23  39  64  98 125 172 212 265 328 378
#     4  12  20  40  66 100 128 166 218 276 318 390
#     4  10  22  43  65  87 133 172 212 265 327 383
#     4  10  23  40  63  99 128 165 219 266 328 378
#
# _framework density 19.621307000000002
#
# number of rings (size 3 to 8) (size 9 to 14) (size 15 to 20)
#    1.714    0.000    2.857    1.714    0.000    4.571 
#    0.000    2.857    0.000    0.000    0.000    0.000 
#    0.000    0.000    0.000    0.000    0.000    0.000 
#
# Total GULP energy -155893.399535 kJ/mol
# GULP energy per Si atom -5567.621412 kJ/mol
# Density = 1.957665 g / cm^3
# Si number density = 19.621307 Si / 1000 Ang^3
#
#
#
# Elastic Constant Matrix: (Units=GPa)
#
#
# Indices 1 2 3 4 5 6 
#
# 1 145.5981 14.7368 35.3724 0.0000 0.0000 0.0000
# 2 14.7368 69.1290 19.5381 0.0000 0.0000 0.0000
# 3 35.3724 19.5381 138.1119 0.0000 0.0000 0.0000
# 4 0.0000 0.0000 0.0000 5.4076 0.0000 0.0000
# 5 0.0000 0.0000 0.0000 0.0000 22.5436 0.0000
# 6 0.0000 0.0000 0.0000 0.0000 0.0000 31.9975
#
#
#
# Elastic Compliance Matrix: (Units=1/GPa)
#
#
# Indices 1 2 3 4 5 6 
#
# 1 0.007401 -0.001085 -0.001742 0.000000 0.000000 0.000000
# 2 -0.001085 0.015227 -0.001876 0.000000 0.000000 0.000000
# 3 -0.001742 -0.001876 0.007952 0.000000 0.000000 0.000000
# 4 0.000000 0.000000 0.000000 0.184926 0.000000 0.000000
# 5 0.000000 0.000000 0.000000 0.000000 0.044359 0.000000
# 6 0.000000 0.000000 0.000000 0.000000 0.000000 0.031252
#
#
# Mechanical properties :
#
#
# Convention : Reuss Voigt Hill
#
# Bulk Modulus (GPa) = 47.22885 54.68151 50.95518
# Shear Modulus (GPa) = 16.25576 30.86916 23.56246
#
# Velocity S-wave (km/s) = 2.88145 3.97072 3.46910
# Velocity P-wave (km/s) = 5.93235 6.99651 6.48629
#
# Compressibility (1/GPa) = 0.02117350
#
# Stress axis : x y z
#
# Youngs Moduli (GPa) = 135.11130 65.67129 125.75337
#
# Poissons Ratio (x) = 0.07128 0.21907
# Poissons Ratio (y) = 0.14666 0.23593
# Poissons Ratio (z) = 0.23537 0.12321
#
# Static dielectric constant tensor:
#      x y z
#    x 1.665110 0.000000 0.000000 
#    y 0.000000 1.660030 0.000000 
#    z 0.000000 0.000000 1.750680 
# 
# From -- ./inp_files/2943.got.cif
#   From: 2010.05.17/outbox.cif.g08.bks.cpg/sg52_2_cif.got.tgz:2943.got - 2010.06.03 12:15:38.
