data_PCOD9412850
_publ_section_title
;
Structure prediction by ZEFSAII (Michael W. Deem and Ramdas Pophale) SiO2 
 PCOD9412850
Probable space group: P N N A
;
_chemical_formula_sum "Si O2"
_cell_formula_units_Z 48
_cell_length_a 5.087018
_cell_length_b 12.995682
_cell_length_c 31.511797
_cell_angle_alpha 90.000000
_cell_angle_beta 90.000000
_cell_angle_gamma 90.000000
_cell_volume 2083.221841
_symmetry_space_group_name_H-M "P N N A"
_symmetry_group_IT_number 52
_symmetry_cell_setting 'orthorhombic'
loop_
_space_group_symop_operation_xyz
x,y,z
1/2-x,-y,z
x,1/2-y,1/2-z
1/2-x,1/2+y,1/2-z
-x,-y,-z
1/2+x,y,-z
-x,1/2+y,1/2+z
1/2+x,1/2-y,1/2+z
loop_
_atom_site_type_symbol
_atom_site_label
_atom_site_fract_x
_atom_site_fract_y
_atom_site_fract_z
Si Si1 0.928283 0.710999 0.334533
Si Si2 0.023338 0.150268 0.592779
Si Si3 0.750000 0.500000 0.361446
Si Si4 0.268015 0.785816 0.029106
Si Si5 0.934347 0.795829 0.704000
Si Si6 0.750000 0.000000 0.660409
Si Si7 0.250000 0.000000 0.530013
Si Si8 0.250000 0.000000 0.078347
O O1 0.862182 0.754335 0.381172
O O2 0.836845 0.594891 0.332632
O O3 0.741035 0.774980 0.303660
O O4 0.234861 0.731697 0.326438
O O5 0.222547 0.095851 0.561341
O O6 0.793635 0.197992 0.563796
O O7 0.930104 0.066936 0.627974
O O8 0.501568 0.518387 0.391838
O O9 0.224022 0.897499 0.050278
O O10 0.551331 0.776853 0.007961
O O11 0.867460 0.750000 0.750000
O O12 0.881647 0.914058 0.690742
O O13 0.500000 0.000000 0.500000
#
# Coordination Sequence:
#
# PCOD9412850 Si02
#       8
#     8   8   4   8   8   4   4   4
#     4  11  25  44  73 104 138 185 228 287 349 423
#     4  11  24  46  69 100 139 183 245 289 348 431
#     4  12  24  43  72 103 134 181 239 292 349 412
#     4  12  26  43  67  99 142 190 241 306 362 409
#     4  11  25  47  73 109 144 179 226 282 357 429
#     4  10  25  46  77 104 138 191 227 288 348 423
#     4  12  25  42  64  93 132 181 233 294 351 392
#     4  12  24  45  67  98 138 185 243 298 356 421
#
# _framework density 23.041232999999998
#
# number of rings (size 3 to 8) (size 9 to 14) (size 15 to 20)
#    0.000    0.667    1.667    5.500    2.333    6.000 
#    0.000    0.000    0.000    0.000    0.000    0.000 
#    0.000    0.000    0.000    0.000    0.000    0.000 
#
# Total GULP energy -268702.520824 kJ/mol
# GULP energy per Si atom -5597.969184 kJ/mol
# Density = 2.298879 g / cm^3
# Si number density = 23.041233 Si / 1000 Ang^3
#
#
#
# Elastic Constant Matrix: (Units=GPa)
#
#
# Indices 1 2 3 4 5 6 
#
# 1 72.4102 -3.2375 -0.4977 0.0000 0.0000 0.0000
# 2 -3.2375 107.9962 19.6375 0.0000 0.0000 0.0000
# 3 -0.4977 19.6375 79.1652 0.0000 0.0000 0.0000
# 4 0.0000 0.0000 0.0000 58.5128 0.0000 0.0000
# 5 0.0000 0.0000 0.0000 0.0000 22.7491 0.0000
# 6 0.0000 0.0000 0.0000 0.0000 0.0000 26.8740
#
#
#
# Elastic Compliance Matrix: (Units=1/GPa)
#
#
# Indices 1 2 3 4 5 6 
#
# 1 0.013829 0.000418 -0.000017 0.000000 0.000000 0.000000
# 2 0.000418 0.009710 -0.002406 0.000000 0.000000 0.000000
# 3 -0.000017 -0.002406 0.013229 0.000000 0.000000 0.000000
# 4 0.000000 0.000000 0.000000 0.017090 0.000000 0.000000
# 5 0.000000 0.000000 0.000000 0.000000 0.043958 0.000000
# 6 0.000000 0.000000 0.000000 0.000000 0.000000 0.037211
#
#
# Mechanical properties :
#
#
# Convention : Reuss Voigt Hill
#
# Bulk Modulus (GPa) = 30.52789 32.37512 31.45150
# Shear Modulus (GPa) = 33.34344 37.87180 35.60762
#
# Velocity S-wave (km/s) = 3.80823 4.05860 3.93541
# Velocity P-wave (km/s) = 5.71094 6.00370 5.85915
#
# Compressibility (1/GPa) = 0.03275693
#
# Stress axis : x y z
#
# Youngs Moduli (GPa) = 72.31303 102.99102 75.59426
#
# Poissons Ratio (x) = -0.04301 0.00126
# Poissons Ratio (y) = -0.03020 0.18187
# Poissons Ratio (z) = 0.00120 0.24779
#
# Static dielectric constant tensor:
#      x y z
#    x 1.837850 0.000000 0.000000 
#    y 0.000000 1.880530 0.000000 
#    z 0.000000 0.000000 1.871890 
# 
# From -- ./inp_files/41736.got.cif
#   From: 2010.05.17/outbox.cif.g08.bks.cpg/sg52_21_cif.got.tgz:41736.got - 2010.06.03 12:15:38.
