data_PCOD9412666
_publ_section_title
;
Structure prediction by ZEFSAII (Michael W. Deem and Ramdas Pophale) SiO2 
 PCOD9412666
Probable space group: P N N A
;
_chemical_formula_sum "Si O2"
_cell_formula_units_Z 28
_cell_length_a 11.849224
_cell_length_b 9.268836
_cell_length_c 12.597783
_cell_angle_alpha 90.000000
_cell_angle_beta 90.000000
_cell_angle_gamma 90.000000
_cell_volume 1383.595786
_symmetry_space_group_name_H-M "P N N A"
_symmetry_group_IT_number 52
_symmetry_cell_setting 'orthorhombic'
loop_
_space_group_symop_operation_xyz
x,y,z
1/2-x,-y,z
x,1/2-y,1/2-z
1/2-x,1/2+y,1/2-z
-x,-y,-z
1/2+x,y,-z
-x,1/2+y,1/2+z
1/2+x,1/2-y,1/2+z
loop_
_atom_site_type_symbol
_atom_site_label
_atom_site_fract_x
_atom_site_fract_y
_atom_site_fract_z
Si Si1 0.750000 0.500000 0.473515
Si Si2 0.136542 0.423325 0.735507
Si Si3 0.749079 0.728000 0.874264
Si Si4 0.561225 0.486198 0.889720
O O1 0.850851 0.536454 0.389508
O O2 0.730681 0.635849 0.549894
O O3 0.250000 0.500000 0.782810
O O4 0.141977 0.250000 0.750000
O O5 0.025621 0.483088 0.793738
O O6 0.732862 0.750000 0.750000
O O7 0.657708 0.606320 0.897159
O O8 0.875148 0.665912 0.884942
O O9 0.500000 0.500000 0.000000
#
# Coordination Sequence:
#
# PCOD9412666 Si02
#       4
#     4   8   8   8
#     4  10  24  44  74 100 136 184 244 280 344 426
#     4  10  24  43  73  99 136 179 248 281 337 413
#     4  11  25  45  65 101 137 176 220 293 354 409
#     4  11  25  42  70  94 139 178 226 281 354 406
#
# _framework density 20.237124999999999
#
# number of rings (size 3 to 8) (size 9 to 14) (size 15 to 20)
#    0.857    0.571    0.000    4.286    8.000    3.429 
#    0.000    8.571    0.000    0.000    0.000    0.000 
#    0.000    0.000    0.000    0.000    0.000    0.000 
#
# Total GULP energy -156194.941574 kJ/mol
# GULP energy per Si atom -5578.390771 kJ/mol
# Density = 2.019106 g / cm^3
# Si number density = 20.237125 Si / 1000 Ang^3
#
#
#
# Elastic Constant Matrix: (Units=GPa)
#
#
# Indices 1 2 3 4 5 6 
#
# 1 99.6829 48.6166 49.5440 0.0000 0.0000 0.0000
# 2 48.6166 121.5560 67.0211 0.0000 0.0000 0.0000
# 3 49.5440 67.0211 169.0739 0.0000 0.0000 0.0000
# 4 0.0000 0.0000 0.0000 -98.7639 0.0000 0.0000
# 5 0.0000 0.0000 0.0000 0.0000 2661.7155 0.0000
# 6 0.0000 0.0000 0.0000 0.0000 0.0000 12.8944
#
#
#
# Elastic Compliance Matrix: (Units=1/GPa)
#
#
# Indices 1 2 3 4 5 6 
#
# 1 0.013102 -0.003997 -0.002255 0.000000 0.000000 0.000000
# 2 -0.003997 0.011747 -0.003485 0.000000 0.000000 0.000000
# 3 -0.002255 -0.003485 0.007957 0.000000 0.000000 0.000000
# 4 0.000000 0.000000 0.000000 -0.010125 0.000000 0.000000
# 5 0.000000 0.000000 0.000000 0.000000 0.000376 0.000000
# 6 0.000000 0.000000 0.000000 0.000000 0.000000 0.077553
#
#
# Mechanical properties :
#
#
# Convention : Reuss Voigt Hill
#
# Bulk Modulus (GPa) = 75.01000 80.07516 77.54258
# Shear Modulus (GPa) = 40.15189 530.17794 285.16492
#
# Velocity S-wave (km/s) = 4.45912 16.20344 11.88350
# Velocity P-wave (km/s) = 7.97858 19.74141 15.05624
#
# Compressibility (1/GPa) = 0.01333156
#
# Stress axis : x y z
#
# Youngs Moduli (GPa) = 76.32509 85.12926 125.67717
#
# Poissons Ratio (x) = 0.34025 0.28339
# Poissons Ratio (y) = 0.30506 0.43802
# Poissons Ratio (z) = 0.17211 0.29670
#
# Static dielectric constant tensor:
#      x y z
#    x 1.793280 0.000000 0.000000 
#    y 0.000000 1.712040 0.000000 
#    z 0.000000 0.000000 1.666570 
# 
# From -- ./inp_files/25416.got.cif
#   From: 2010.05.17/outbox.cif.g08.bks.cpg/sg52_13_cif.got.tgz:25416.got - 2010.06.03 12:15:38.
