data_PCOD9412121
_publ_section_title
;
Structure prediction by ZEFSAII (Michael W. Deem and Ramdas Pophale) SiO2 
 PCOD9412121
Probable space group: P N N A
;
_chemical_formula_sum "Si O2"
_cell_formula_units_Z 28
_cell_length_a 21.390992
_cell_length_b 7.493867
_cell_length_c 7.060003
_cell_angle_alpha 90.000000
_cell_angle_beta 90.000000
_cell_angle_gamma 90.000000
_cell_volume 1131.727299
_symmetry_space_group_name_H-M "P N N A"
_symmetry_group_IT_number 52
_symmetry_cell_setting 'orthorhombic'
loop_
_space_group_symop_operation_xyz
x,y,z
1/2-x,-y,z
x,1/2-y,1/2-z
1/2-x,1/2+y,1/2-z
-x,-y,-z
1/2+x,y,-z
-x,1/2+y,1/2+z
1/2+x,1/2-y,1/2+z
loop_
_atom_site_type_symbol
_atom_site_label
_atom_site_fract_x
_atom_site_fract_y
_atom_site_fract_z
Si Si1 0.822643 0.250000 0.250000
Si Si2 0.398895 0.948861 0.965061
Si Si3 0.510976 0.037615 0.720475
Si Si4 0.774013 0.795324 0.967553
O O1 0.865893 0.109512 0.144966
O O2 0.774135 0.182063 0.408688
O O3 0.461910 0.924944 0.845657
O O4 0.421729 0.995538 0.178789
O O5 0.346880 0.794256 0.973149
O O6 0.501169 0.250000 0.750000
O O7 0.500000 0.000000 0.500000
O O8 0.769277 0.750000 0.750000
O O9 0.750000 0.000000 0.991712
#
# Coordination Sequence:
#
# PCOD9412121 Si02
#       4
#     4   8   8   8
#     4  10  22  44  68 102 144 184 234 298 364 442
#     4  10  23  43  69 103 140 186 241 293 368 433
#     4  11  25  46  73 102 141 191 244 308 362 439
#     4  10  23  41  65  98 134 183 232 292 359 433
#
# _framework density 24.740942
#
# number of rings (size 3 to 8) (size 9 to 14) (size 15 to 20)
#    0.000    1.714    1.429    0.857    0.000   17.143 
#    0.000    0.000    0.000    0.000    0.000    0.000 
#    0.000    0.000    0.000    0.000    0.000    0.000 
#
# Total GULP energy -156539.836405 kJ/mol
# GULP energy per Si atom -5590.708443 kJ/mol
# Density = 2.468463 g / cm^3
# Si number density = 24.740942 Si / 1000 Ang^3
#
#
#
# Elastic Constant Matrix: (Units=GPa)
#
#
# Indices 1 2 3 4 5 6 
#
# 1 144.0110 13.4895 59.4370 0.0000 0.0000 0.0000
# 2 13.4895 86.3990 33.0074 0.0000 0.0000 0.0000
# 3 59.4370 33.0074 211.2178 0.0000 0.0000 0.0000
# 4 0.0000 0.0000 0.0000 40.9149 0.0000 0.0000
# 5 0.0000 0.0000 0.0000 0.0000 56.9185 0.0000
# 6 0.0000 0.0000 0.0000 0.0000 0.0000 -10.1423
#
#
#
# Elastic Compliance Matrix: (Units=1/GPa)
#
#
# Indices 1 2 3 4 5 6 
#
# 1 0.007870 -0.000407 -0.002151 0.000000 0.000000 0.000000
# 2 -0.000407 0.012330 -0.001812 0.000000 0.000000 0.000000
# 3 -0.002151 -0.001812 0.005623 0.000000 0.000000 0.000000
# 4 0.000000 0.000000 0.000000 0.024441 0.000000 0.000000
# 5 0.000000 0.000000 0.000000 0.000000 0.017569 0.000000
# 6 0.000000 0.000000 0.000000 0.000000 0.000000 -0.098597
#
#
# Mechanical properties :
#
#
# Convention : Reuss Voigt Hill
#
# Bulk Modulus (GPa) = 58.54004 72.61063 65.57534
# Shear Modulus (GPa) = -306.18640 39.91783 -133.13428
#
# Velocity S-wave (km/s) = -11.13668 4.02111 -7.34358
# Velocity P-wave (km/s) = 11.90189 7.13941 6.73364
#
# Compressibility (1/GPa) = 0.01708232
#
# Stress axis : x y z
#
# Youngs Moduli (GPa) = 127.06810 81.10225 177.84239
#
# Poissons Ratio (x) = 0.03301 0.38253
# Poissons Ratio (y) = 0.05171 0.32231
# Poissons Ratio (z) = 0.27332 0.14698
#
# Static dielectric constant tensor:
#      x y z
#    x 2.035590 0.000000 0.000000 
#    y 0.000000 1.996740 0.000000 
#    z 0.000000 0.000000 1.895010 
# 
# From -- ./inp_files/12717.got.cif
#   From: 2010.05.17/outbox.cif.g08.bks.cpg/sg52_7_cif.got.tgz:12717.got - 2010.06.03 12:15:38.
