data_PCOD9412229
_publ_section_title
;
Structure prediction by ZEFSAII (Michael W. Deem and Ramdas Pophale) SiO2 
 PCOD9412229
Probable space group: P N N A
;
_chemical_formula_sum "Si O2"
_cell_formula_units_Z 56
_cell_length_a 14.122574
_cell_length_b 7.654654
_cell_length_c 22.157723
_cell_angle_alpha 90.000000
_cell_angle_beta 90.000000
_cell_angle_gamma 90.000000
_cell_volume 2395.325582
_symmetry_space_group_name_H-M "P N N A"
_symmetry_group_IT_number 52
_symmetry_cell_setting 'orthorhombic'
loop_
_space_group_symop_operation_xyz
x,y,z
1/2-x,-y,z
x,1/2-y,1/2-z
1/2-x,1/2+y,1/2-z
-x,-y,-z
1/2+x,y,-z
-x,1/2+y,1/2+z
1/2+x,1/2-y,1/2+z
loop_
_atom_site_type_symbol
_atom_site_label
_atom_site_fract_x
_atom_site_fract_y
_atom_site_fract_z
Si Si1 0.000756 0.750000 0.250000
Si Si2 0.960455 0.553900 0.593532
Si Si3 0.882108 0.313705 0.871317
Si Si4 0.147439 0.962429 0.741312
Si Si5 0.414300 0.896232 0.469311
Si Si6 0.636721 0.738226 0.358646
Si Si7 0.250000 0.500000 0.942753
Si Si8 0.694759 0.321742 0.684609
O O1 0.925999 0.600471 0.267637
O O2 0.065047 0.696693 0.193314
O O3 0.926408 0.352366 0.590859
O O4 0.934060 0.691172 0.541066
O O5 0.899220 0.629012 0.649260
O O6 0.068931 0.602282 0.607843
O O7 0.896858 0.491934 0.908029
O O8 0.771113 0.283691 0.855928
O O9 0.087066 0.883872 0.684693
O O10 0.181411 0.857507 0.800817
O O11 0.250000 0.000000 0.712532
O O12 0.327402 0.915515 0.514070
O O13 0.500000 0.000000 0.500000
O O14 0.701357 0.845299 0.404254
O O15 0.750000 0.500000 0.696514
O O16 0.672279 0.250000 0.750000
#
# Coordination Sequence:
#
# PCOD9412229 Si02
#       8
#     4   8   8   8   8   8   4   8
#     4  12  22  40  74 106 144 182 232 294 384 444
#     4  11  24  46  69 102 141 186 239 296 357 430
#     4  11  25  46  71 109 147 183 236 305 369 446
#     4  11  24  39  66 103 142 187 227 296 358 443
#     4  12  27  46  76  96 137 198 245 303 362 424
#     4  11  23  43  69  99 143 182 241 292 363 429
#     4  12  26  50  70 104 140 196 252 304 360 436
#     4  10  23  37  66 106 143 184 225 280 363 439
#
# _framework density 23.378865999999999
#
# number of rings (size 3 to 8) (size 9 to 14) (size 15 to 20)
#    0.000    0.857    4.286    2.571    4.000    0.571 
#    0.000    0.000    0.000    0.000    0.000    0.000 
#    0.000    0.000    0.000    0.000    0.000    0.000 
#
# Total GULP energy -312491.076285 kJ/mol
# GULP energy per Si atom -5580.197791 kJ/mol
# Density = 2.332565 g / cm^3
# Si number density = 23.378866 Si / 1000 Ang^3
#
#
#
# Elastic Constant Matrix: (Units=GPa)
#
#
# Indices 1 2 3 4 5 6 
#
# 1 63.2888 9.5673 11.7193 0.0000 0.0000 0.0000
# 2 9.5673 80.1210 17.8259 0.0000 0.0000 0.0000
# 3 11.7193 17.8259 82.3350 0.0000 0.0000 0.0000
# 4 0.0000 0.0000 0.0000 33.6957 0.0000 0.0000
# 5 0.0000 0.0000 0.0000 0.0000 57.1762 0.0000
# 6 0.0000 0.0000 0.0000 0.0000 0.0000 33.5059
#
#
#
# Elastic Compliance Matrix: (Units=1/GPa)
#
#
# Indices 1 2 3 4 5 6 
#
# 1 0.016401 -0.001512 -0.002007 0.000000 0.000000 0.000000
# 2 -0.001512 0.013252 -0.002654 0.000000 0.000000 0.000000
# 3 -0.002007 -0.002654 0.013006 0.000000 0.000000 0.000000
# 4 0.000000 0.000000 0.000000 0.029677 0.000000 0.000000
# 5 0.000000 0.000000 0.000000 0.000000 0.017490 0.000000
# 6 0.000000 0.000000 0.000000 0.000000 0.000000 0.029845
#
#
# Mechanical properties :
#
#
# Convention : Reuss Voigt Hill
#
# Bulk Modulus (GPa) = 32.98931 33.77441 33.38186
# Shear Modulus (GPa) = 35.18117 37.31772 36.24944
#
# Velocity S-wave (km/s) = 3.88342 3.99960 3.94194
# Velocity P-wave (km/s) = 5.85229 5.98389 5.91846
#
# Compressibility (1/GPa) = 0.03031285
#
# Stress axis : x y z
#
# Youngs Moduli (GPa) = 60.97268 75.45961 76.88890
#
# Poissons Ratio (x) = 0.11408 0.15432
# Poissons Ratio (y) = 0.09218 0.20406
# Poissons Ratio (z) = 0.12238 0.20027
#
# Static dielectric constant tensor:
#      x y z
#    x 1.935950 0.000000 0.000000 
#    y 0.000000 2.647250 0.000000 
#    z 0.000000 0.000000 1.895900 
# 
# From -- ./inp_files/37393.got.cif
#   From: 2010.05.17/outbox.cif.g08.bks.cpg/sg52_19_cif.got.tgz:37393.got - 2010.06.03 12:15:38.
