data_PCOD9412200
_publ_section_title
;
Structure prediction by ZEFSAII (Michael W. Deem and Ramdas Pophale) SiO2 
 PCOD9412200
Probable space group: P N N A
;
_chemical_formula_sum "Si O2"
_cell_formula_units_Z 36
_cell_length_a 9.392708
_cell_length_b 10.636155
_cell_length_c 16.188037
_cell_angle_alpha 90.000000
_cell_angle_beta 90.000000
_cell_angle_gamma 90.000000
_cell_volume 1617.222099
_symmetry_space_group_name_H-M "P N N A"
_symmetry_group_IT_number 52
_symmetry_cell_setting 'orthorhombic'
loop_
_space_group_symop_operation_xyz
x,y,z
1/2-x,-y,z
x,1/2-y,1/2-z
1/2-x,1/2+y,1/2-z
-x,-y,-z
1/2+x,y,-z
-x,1/2+y,1/2+z
1/2+x,1/2-y,1/2+z
loop_
_atom_site_type_symbol
_atom_site_label
_atom_site_fract_x
_atom_site_fract_y
_atom_site_fract_z
Si Si1 0.250000 0.500000 0.906325
Si Si2 0.250000 0.500000 0.185890
Si Si3 0.061257 0.860395 0.990530
Si Si4 0.457636 0.899105 0.737157
Si Si5 0.750000 0.000000 0.127983
Si Si6 0.218737 0.298009 0.048497
O O1 0.376915 0.546524 0.845199
O O2 0.269642 0.383904 0.970371
O O3 0.381685 0.446342 0.235677
O O4 0.198185 0.389257 0.125443
O O5 0.929260 0.772728 0.967571
O O6 0.188559 0.884932 0.925113
O O7 0.150052 0.797335 0.064503
O O8 0.000000 0.000000 0.000000
O O9 0.446463 0.750000 0.750000
O O10 0.377101 0.542250 0.685630
#
# Coordination Sequence:
#
# PCOD9412200 Si02
#       6
#     4   4   8   8   4   8
#     4  10  22  46  74 104 130 190 222 288 362 398
#     4  11  26  43  67 108 131 194 228 292 351 392
#     4  12  23  42  69 106 135 180 222 294 353 405
#     4  11  25  45  69  95 146 183 233 279 339 430
#     4  11  26  45  65 100 135 184 232 274 357 414
#     4  11  23  42  73 101 144 167 244 291 340 422
#
# _framework density 22.260394000000002
#
# number of rings (size 3 to 8) (size 9 to 14) (size 15 to 20)
#    0.000    0.889    2.222    4.000    3.111    7.111 
#    0.000    1.111    0.000    0.000    0.000    0.000 
#    0.000    0.000    0.000    0.000    0.000    0.000 
#
# Total GULP energy -201261.058575 kJ/mol
# GULP energy per Si atom -5590.584960 kJ/mol
# Density = 2.220973 g / cm^3
# Si number density = 22.260394 Si / 1000 Ang^3
#
#
#
# Elastic Constant Matrix: (Units=GPa)
#
#
# Indices 1 2 3 4 5 6 
#
# 1 137.4872 54.0863 30.1228 0.0000 0.0000 0.0000
# 2 54.0863 134.5525 32.2974 0.0000 0.0000 0.0000
# 3 30.1228 32.2974 63.5497 0.0000 0.0000 0.0000
# 4 0.0000 0.0000 0.0000 5.6310 0.0000 0.0000
# 5 0.0000 0.0000 0.0000 0.0000 22.0132 0.0000
# 6 0.0000 0.0000 0.0000 0.0000 0.0000 49.5287
#
#
#
# Elastic Compliance Matrix: (Units=1/GPa)
#
#
# Indices 1 2 3 4 5 6 
#
# 1 0.009051 -0.002971 -0.002780 0.000000 0.000000 0.000000
# 2 -0.002971 0.009440 -0.003389 0.000000 0.000000 0.000000
# 3 -0.002780 -0.003389 0.018776 0.000000 0.000000 0.000000
# 4 0.000000 0.000000 0.000000 0.177588 0.000000 0.000000
# 5 0.000000 0.000000 0.000000 0.000000 0.045427 0.000000
# 6 0.000000 0.000000 0.000000 0.000000 0.000000 0.020190
#
#
# Mechanical properties :
#
#
# Convention : Reuss Voigt Hill
#
# Bulk Modulus (GPa) = 52.67058 63.17803 57.92431
# Shear Modulus (GPa) = 16.38895 30.04010 23.21452
#
# Velocity S-wave (km/s) = 2.71631 3.67752 3.23284
# Velocity P-wave (km/s) = 5.79226 6.81727 6.32556
#
# Compressibility (1/GPa) = 0.01898593
#
# Stress axis : x y z
#
# Youngs Moduli (GPa) = 110.48080 105.93388 53.25894
#
# Poissons Ratio (x) = 0.31473 0.14808
# Poissons Ratio (y) = 0.32824 0.18051
# Poissons Ratio (z) = 0.30719 0.35904
#
# Static dielectric constant tensor:
#      x y z
#    x 0.469250 0.000000 0.000000 
#    y 0.000000 2.724630 0.000000 
#    z 0.000000 0.000000 1.861530 
# 
# From -- ./inp_files/35631.got.cif
#   From: 2010.05.17/outbox.cif.g08.bks.cpg/sg52_18_cif.got.tgz:35631.got - 2010.06.03 12:15:38.
