data_PCOD9412057
_publ_section_title
;
Structure prediction by ZEFSAII (Michael W. Deem and Ramdas Pophale) SiO2 
 PCOD9412057
Probable space group: P N N A
;
_chemical_formula_sum "Si O2"
_cell_formula_units_Z 64
_cell_length_a 14.317058
_cell_length_b 25.466245
_cell_length_c 8.855435
_cell_angle_alpha 90.000000
_cell_angle_beta 90.000000
_cell_angle_gamma 90.000000
_cell_volume 3228.706715
_symmetry_space_group_name_H-M "P N N A"
_symmetry_group_IT_number 52
_symmetry_cell_setting 'orthorhombic'
loop_
_space_group_symop_operation_xyz
x,y,z
1/2-x,-y,z
x,1/2-y,1/2-z
1/2-x,1/2+y,1/2-z
-x,-y,-z
1/2+x,y,-z
-x,1/2+y,1/2+z
1/2+x,1/2-y,1/2+z
loop_
_atom_site_type_symbol
_atom_site_label
_atom_site_fract_x
_atom_site_fract_y
_atom_site_fract_z
Si Si1 0.959168 0.091620 0.598131
Si Si2 0.167542 0.190333 0.785589
Si Si3 0.052768 0.690209 0.292184
Si Si4 0.018103 0.498993 0.322665
Si Si5 0.822353 0.902774 0.443162
Si Si6 0.351311 0.439328 0.796752
Si Si7 0.309096 0.129818 0.988470
Si Si8 0.705756 0.057790 0.767302
O O1 0.938254 0.150302 0.652235
O O2 0.899113 0.079633 0.451518
O O3 0.068049 0.085183 0.557394
O O4 0.944986 0.051495 0.738686
O O5 0.192162 0.250000 0.750000
O O6 0.185073 0.153585 0.638910
O O7 0.229514 0.166659 0.918164
O O8 0.057967 0.188323 0.828670
O O9 0.077237 0.750000 0.250000
O O10 0.116405 0.664831 0.421598
O O11 0.096465 0.454429 0.296777
O O12 0.000000 0.500000 0.500000
O O13 0.917627 0.486600 0.251283
O O14 0.757701 0.940994 0.341435
O O15 0.787673 0.908618 0.614264
O O16 0.355457 0.400308 0.653133
O O17 0.257945 0.087676 0.097425
O O18 0.750000 0.000000 0.744936
#
# Coordination Sequence:
#
# PCOD9412057 Si02
#       8
#     8   8   8   8   8   8   8   8
#     4  11  23  43  63  95 130 171 221 268 327 399
#     4   9  22  44  67  95 130 169 225 282 342 399
#     4  10  22  43  69  95 129 173 216 276 342 395
#     4  12  26  40  64  92 135 174 217 271 326 395
#     4  10  23  39  67  92 131 173 220 272 324 401
#     4  11  23  41  63  95 129 172 218 265 326 391
#     4  11  25  41  66  98 132 173 219 280 335 405
#     4  12  25  42  60  98 137 176 221 276 329 400
#
# _framework density 19.822178000000001
#
# number of rings (size 3 to 8) (size 9 to 14) (size 15 to 20)
#    0.000    1.250    1.250    4.125    8.750    3.000 
#    0.000    0.000    0.000    5.250    0.000    0.000 
#    0.000    0.000    0.000    0.000    0.000    0.000 
#
# Total GULP energy -357450.199577 kJ/mol
# GULP energy per Si atom -5585.159368 kJ/mol
# Density = 1.977706 g / cm^3
# Si number density = 19.822178 Si / 1000 Ang^3
#
#
#
# Elastic Constant Matrix: (Units=GPa)
#
#
# Indices 1 2 3 4 5 6 
#
# 1 107.2896 56.3926 57.7675 0.0000 0.0000 0.0000
# 2 56.3926 119.7020 67.2852 0.0000 0.0000 0.0000
# 3 57.7675 67.2852 150.5227 0.0000 0.0000 0.0000
# 4 0.0000 0.0000 0.0000 16.7669 0.0000 0.0000
# 5 0.0000 0.0000 0.0000 0.0000 33.6967 0.0000
# 6 0.0000 0.0000 0.0000 0.0000 0.0000 31.0321
#
#
#
# Elastic Compliance Matrix: (Units=1/GPa)
#
#
# Indices 1 2 3 4 5 6 
#
# 1 0.013388 -0.004567 -0.003097 0.000000 0.000000 0.000000
# 2 -0.004567 0.012715 -0.003931 0.000000 0.000000 0.000000
# 3 -0.003097 -0.003931 0.009589 0.000000 0.000000 0.000000
# 4 0.000000 0.000000 0.000000 0.059641 0.000000 0.000000
# 5 0.000000 0.000000 0.000000 0.000000 0.029676 0.000000
# 6 0.000000 0.000000 0.000000 0.000000 0.000000 0.032225
#
#
# Mechanical properties :
#
#
# Convention : Reuss Voigt Hill
#
# Bulk Modulus (GPa) = 79.97796 82.26721 81.12259
# Shear Modulus (GPa) = 27.08668 29.37040 28.22854
#
# Velocity S-wave (km/s) = 3.70061 3.85345 3.77780
# Velocity P-wave (km/s) = 7.66124 7.83527 7.74875
#
# Compressibility (1/GPa) = 0.01250344
#
# Stress axis : x y z
#
# Youngs Moduli (GPa) = 74.69266 78.64587 104.28252
#
# Poissons Ratio (x) = 0.35914 0.32294
# Poissons Ratio (y) = 0.34109 0.40996
# Poissons Ratio (z) = 0.23131 0.30918
#
# Static dielectric constant tensor:
#      x y z
#    x 1.736900 0.000000 0.000000 
#    y 0.000000 1.727520 0.000000 
#    z 0.000000 0.000000 1.681110 
# 
# From -- ./inp_files/11015.got.cif
#   From: 2010.05.17/outbox.cif.g08.bks.cpg/sg52_6_cif.got.tgz:11015.got - 2010.06.03 12:15:38.
