data_PCOD9412445
_publ_section_title
;
Structure prediction by ZEFSAII (Michael W. Deem and Ramdas Pophale) SiO2 
 PCOD9412445
Probable space group: P N N A
;
_chemical_formula_sum "Si O2"
_cell_formula_units_Z 40
_cell_length_a 11.855241
_cell_length_b 6.856265
_cell_length_c 24.339216
_cell_angle_alpha 90.000000
_cell_angle_beta 90.000000
_cell_angle_gamma 90.000000
_cell_volume 1978.356558
_symmetry_space_group_name_H-M "P N N A"
_symmetry_group_IT_number 52
_symmetry_cell_setting 'orthorhombic'
loop_
_space_group_symop_operation_xyz
x,y,z
1/2-x,-y,z
x,1/2-y,1/2-z
1/2-x,1/2+y,1/2-z
-x,-y,-z
1/2+x,y,-z
-x,1/2+y,1/2+z
1/2+x,1/2-y,1/2+z
loop_
_atom_site_type_symbol
_atom_site_label
_atom_site_fract_x
_atom_site_fract_y
_atom_site_fract_z
Si Si1 0.250000 0.000000 0.017528
Si Si2 0.479874 0.336384 0.808580
Si Si3 0.250000 0.000000 0.660671
Si Si4 0.565812 0.502124 0.609585
Si Si5 0.656503 0.665511 0.810780
Si Si6 0.175969 0.333393 0.586731
O O1 0.145009 0.028885 0.057325
O O2 0.262036 0.825501 0.972590
O O3 0.513603 0.250000 0.750000
O O4 0.345596 0.375248 0.808955
O O5 0.540954 0.544067 0.811925
O O6 0.526208 0.187430 0.855254
O O7 0.318578 0.860110 0.620632
O O8 0.635100 0.652573 0.648671
O O9 0.451419 0.595074 0.585701
O O10 0.750000 0.500000 0.825440
O O11 0.680975 0.750000 0.750000
O O12 0.250000 0.500000 0.616910
#
# Coordination Sequence:
#
# PCOD9412445 Si02
#       6
#     4   8   4   8   8   8
#     4  10  24  44  69  98 127 180 228 280 346 392
#     4  12  25  42  68 100 136 182 220 275 341 412
#     4  12  24  44  69 102 137 174 228 276 344 402
#     4  12  23  46  70  96 138 177 226 281 341 400
#     4  12  26  42  67  98 139 178 222 274 333 413
#     4  10  23  44  69  94 134 173 222 289 333 394
#
# _framework density 20.218802
#
# number of rings (size 3 to 8) (size 9 to 14) (size 15 to 20)
#    0.600    0.000    6.000    2.400    1.400    2.400 
#    5.400    2.000    0.000    0.000    0.000    0.000 
#    0.000    0.000    0.000    0.000    0.000    0.000 
#
# Total GULP energy -222954.196685 kJ/mol
# GULP energy per Si atom -5573.854917 kJ/mol
# Density = 2.017278 g / cm^3
# Si number density = 20.218802 Si / 1000 Ang^3
#
#
#
# Elastic Constant Matrix: (Units=GPa)
#
#
# Indices 1 2 3 4 5 6 
#
# 1 94.1368 5.5629 -0.0992 0.0000 0.0000 0.0000
# 2 5.5629 67.0004 19.6522 0.0000 0.0000 0.0000
# 3 -0.0992 19.6522 69.2947 0.0000 0.0000 0.0000
# 4 0.0000 0.0000 0.0000 26.4838 0.0000 0.0000
# 5 0.0000 0.0000 0.0000 0.0000 20.6574 0.0000
# 6 0.0000 0.0000 0.0000 0.0000 0.0000 36.6475
#
#
#
# Elastic Compliance Matrix: (Units=1/GPa)
#
#
# Indices 1 2 3 4 5 6 
#
# 1 0.010681 -0.000972 0.000291 0.000000 0.000000 0.000000
# 2 -0.000972 0.016368 -0.004643 0.000000 0.000000 0.000000
# 3 0.000291 -0.004643 0.015748 0.000000 0.000000 0.000000
# 4 0.000000 0.000000 0.000000 0.037759 0.000000 0.000000
# 5 0.000000 0.000000 0.000000 0.000000 0.048409 0.000000
# 6 0.000000 0.000000 0.000000 0.000000 0.000000 0.027287
#
#
# Mechanical properties :
#
#
# Convention : Reuss Voigt Hill
#
# Bulk Modulus (GPa) = 31.10624 31.18485 31.14554
# Shear Modulus (GPa) = 28.15047 30.44546 29.29797
#
# Velocity S-wave (km/s) = 3.73539 3.88467 3.81076
# Velocity P-wave (km/s) = 5.83287 5.96474 5.89917
#
# Compressibility (1/GPa) = 0.03214789
#
# Stress axis : x y z
#
# Youngs Moduli (GPa) = 93.62777 61.09489 63.49850
#
# Poissons Ratio (x) = 0.05939 -0.01848
# Poissons Ratio (y) = 0.09102 0.29485
# Poissons Ratio (z) = -0.02724 0.28369
#
# Static dielectric constant tensor:
#      x y z
#    x 1.779200 0.000000 0.000000 
#    y 0.000000 1.826330 0.000000 
#    z 0.000000 0.000000 1.695890 
# 
# From -- ./inp_files/42549.got.cif
#   From: 2010.05.17/outbox.cif.g08.bks.cpg/sg52_22_cif.got.tgz:42549.got - 2010.06.03 12:15:38.
