data_PCOD9412093
_publ_section_title
;
Structure prediction by ZEFSAII (Michael W. Deem and Ramdas Pophale) SiO2 
 PCOD9412093
Probable space group: P N N A
;
_chemical_formula_sum "Si O2"
_cell_formula_units_Z 40
_cell_length_a 14.699913
_cell_length_b 13.959520
_cell_length_c 7.445343
_cell_angle_alpha 90.000000
_cell_angle_beta 90.000000
_cell_angle_gamma 90.000000
_cell_volume 1527.812151
_symmetry_space_group_name_H-M "P N N A"
_symmetry_group_IT_number 52
_symmetry_cell_setting 'orthorhombic'
loop_
_space_group_symop_operation_xyz
x,y,z
1/2-x,-y,z
x,1/2-y,1/2-z
1/2-x,1/2+y,1/2-z
-x,-y,-z
1/2+x,y,-z
-x,1/2+y,1/2+z
1/2+x,1/2-y,1/2+z
loop_
_atom_site_type_symbol
_atom_site_label
_atom_site_fract_x
_atom_site_fract_y
_atom_site_fract_z
Si Si1 0.124610 0.347217 0.664392
Si Si2 0.804635 0.102654 0.024760
Si Si3 0.916180 0.646623 0.750562
Si Si4 0.917755 0.046694 0.335031
Si Si5 0.280641 0.389638 0.132129
O O1 0.085833 0.250000 0.750000
O O2 0.232132 0.332803 0.628474
O O3 0.094922 0.375027 0.461141
O O4 0.108818 0.436430 0.797573
O O5 0.893049 0.092130 0.141493
O O6 0.750000 0.000000 0.020698
O O7 0.824628 0.135059 0.824022
O O8 0.962559 0.750000 0.750000
O O9 0.975254 0.566216 0.849799
O O10 0.818981 0.659865 0.853432
O O11 0.145513 0.894909 0.525465
O O12 0.250000 0.500000 0.140292
#
# Coordination Sequence:
#
# PCOD9412093 Si02
#       5
#     8   8   8   8   8
#     4  10  22  43  75 105 152 203 250 317 390 447
#     4   8  18  39  68 101 137 191 241 302 374 453
#     4  11  27  48  71 114 159 198 257 323 380 460
#     4  11  23  46  77 107 149 200 255 307 381 458
#     4  10  22  44  74 104 142 193 251 304 384 444
#
# _framework density 26.181229999999999
#
# number of rings (size 3 to 8) (size 9 to 14) (size 15 to 20)
#    0.000    2.000    0.000    3.600    5.600    1.600 
#    7.200    0.000    0.000    0.000    0.000    0.000 
#    0.000    0.000    0.000    0.000    0.000    0.000 
#
# Total GULP energy -223500.218051 kJ/mol
# GULP energy per Si atom -5587.505451 kJ/mol
# Density = 2.612164 g / cm^3
# Si number density = 26.181230 Si / 1000 Ang^3
#
#
#
# Elastic Constant Matrix: (Units=GPa)
#
#
# Indices 1 2 3 4 5 6 
#
# 1 99.1122 29.3815 69.8541 0.0000 0.0000 0.0000
# 2 29.3815 87.0826 57.5109 0.0000 0.0000 0.0000
# 3 69.8541 57.5109 161.4899 0.0000 0.0000 0.0000
# 4 0.0000 0.0000 0.0000 32.0129 0.0000 0.0000
# 5 0.0000 0.0000 0.0000 0.0000 26.3093 0.0000
# 6 0.0000 0.0000 0.0000 0.0000 0.0000 26.3823
#
#
#
# Elastic Compliance Matrix: (Units=1/GPa)
#
#
# Indices 1 2 3 4 5 6 
#
# 1 0.014579 -0.000986 -0.005955 0.000000 0.000000 0.000000
# 2 -0.000986 0.015081 -0.004944 0.000000 0.000000 0.000000
# 3 -0.005955 -0.004944 0.010529 0.000000 0.000000 0.000000
# 4 0.000000 0.000000 0.000000 0.031237 0.000000 0.000000
# 5 0.000000 0.000000 0.000000 0.000000 0.038009 0.000000
# 6 0.000000 0.000000 0.000000 0.000000 0.000000 0.037904
#
#
# Mechanical properties :
#
#
# Convention : Reuss Voigt Hill
#
# Bulk Modulus (GPa) = 60.90716 73.46420 67.18568
# Shear Modulus (GPa) = 28.31504 29.67011 28.99258
#
# Velocity S-wave (km/s) = 3.29219 3.37004 3.33134
# Velocity P-wave (km/s) = 6.14536 6.57752 6.36511
#
# Compressibility (1/GPa) = 0.01641843
#
# Stress axis : x y z
#
# Youngs Moduli (GPa) = 68.59139 66.30689 94.97453
#
# Poissons Ratio (x) = 0.06538 0.56559
# Poissons Ratio (y) = 0.06763 0.46959
# Poissons Ratio (z) = 0.40847 0.32785
#
# Static dielectric constant tensor:
#      x y z
#    x 2.068590 0.000000 0.000000 
#    y 0.000000 2.171170 0.000000 
#    z 0.000000 0.000000 2.098320 
# 
# From -- ./inp_files/19362.got.cif
#   From: 2010.05.17/outbox.cif.g08.bks.cpg/sg52_10_cif.got.tgz:19362.got - 2010.06.03 12:15:38.
