data_PCOD9412515
_publ_section_title
;
Structure prediction by ZEFSAII (Michael W. Deem and Ramdas Pophale) SiO2 
 PCOD9412515
Probable space group: P N N A
;
_chemical_formula_sum "Si O2"
_cell_formula_units_Z 36
_cell_length_a 6.657641
_cell_length_b 9.440228
_cell_length_c 20.668071
_cell_angle_alpha 90.000000
_cell_angle_beta 90.000000
_cell_angle_gamma 90.000000
_cell_volume 1298.981007
_symmetry_space_group_name_H-M "P N N A"
_symmetry_group_IT_number 52
_symmetry_cell_setting 'orthorhombic'
loop_
_space_group_symop_operation_xyz
x,y,z
1/2-x,-y,z
x,1/2-y,1/2-z
1/2-x,1/2+y,1/2-z
-x,-y,-z
1/2+x,y,-z
-x,1/2+y,1/2+z
1/2+x,1/2-y,1/2+z
loop_
_atom_site_type_symbol
_atom_site_label
_atom_site_fract_x
_atom_site_fract_y
_atom_site_fract_z
Si Si1 0.117721 0.105321 0.206361
Si Si2 0.237134 0.282567 0.639027
Si Si3 0.445917 0.250000 0.250000
Si Si4 0.874749 0.389507 0.016372
Si Si5 0.636551 0.622295 0.573661
O O1 0.184391 0.250000 0.250000
O O2 0.887462 0.144262 0.189224
O O3 0.391532 0.064672 0.229191
O O4 0.209950 0.135582 0.134032
O O5 0.352673 0.173539 0.590393
O O6 0.071313 0.210039 0.685821
O O7 0.090872 0.388100 0.598906
O O8 0.865370 0.259468 0.967940
O O9 0.621941 0.430194 0.004534
O O10 0.750000 0.500000 0.534901
#
# Coordination Sequence:
#
# PCOD9412515 Si02
#       5
#     8   8   4   8   8
#     4  10  23  47  71 107 148 195 264 328 385 475
#     4  11  24  48  76 107 159 207 256 336 402 467
#     4  10  24  48  70 110 144 206 272 316 402 476
#     4  12  24  47  74 116 159 204 256 318 405 496
#     4  10  24  45  73 113 153 202 259 318 397 483
#
# _framework density 27.714027999999999
#
# number of rings (size 3 to 8) (size 9 to 14) (size 15 to 20)
#    0.000    1.333    2.222    2.000    0.000    8.889 
#   16.000    2.222    0.000    0.000    0.000    0.000 
#    0.000    0.000    0.000    0.000    0.000    0.000 
#
# Total GULP energy -200576.631381 kJ/mol
# GULP energy per Si atom -5571.573094 kJ/mol
# Density = 2.765095 g / cm^3
# Si number density = 27.714028 Si / 1000 Ang^3
#
#
#
# Elastic Constant Matrix: (Units=GPa)
#
#
# Indices 1 2 3 4 5 6 
#
# 1 212.6499 144.7502 68.9264 0.0000 0.0000 0.0000
# 2 144.7502 233.5930 93.6872 0.0000 0.0000 0.0000
# 3 68.9264 93.6872 153.4113 0.0000 0.0000 0.0000
# 4 0.0000 0.0000 0.0000 67.3134 0.0000 0.0000
# 5 0.0000 0.0000 0.0000 0.0000 65.5425 0.0000
# 6 0.0000 0.0000 0.0000 0.0000 0.0000 71.0898
#
#
#
# Elastic Compliance Matrix: (Units=1/GPa)
#
#
# Indices 1 2 3 4 5 6 
#
# 1 0.008201 -0.004773 -0.000770 0.000000 0.000000 0.000000
# 2 -0.004773 0.008448 -0.003014 0.000000 0.000000 0.000000
# 3 -0.000770 -0.003014 0.008705 0.000000 0.000000 0.000000
# 4 0.000000 0.000000 0.000000 0.014856 0.000000 0.000000
# 5 0.000000 0.000000 0.000000 0.000000 0.015257 0.000000
# 6 0.000000 0.000000 0.000000 0.000000 0.000000 0.014067
#
#
# Mechanical properties :
#
#
# Convention : Reuss Voigt Hill
#
# Bulk Modulus (GPa) = 121.36967 134.93131 128.15049
# Shear Modulus (GPa) = 55.93125 60.27516 58.10321
#
# Velocity S-wave (km/s) = 4.49726 4.66864 4.58375
# Velocity P-wave (km/s) = 8.41759 8.82351 8.62294
#
# Compressibility (1/GPa) = 0.00823929
#
# Stress axis : x y z
#
# Youngs Moduli (GPa) = 121.93252 118.37351 114.87488
#
# Poissons Ratio (x) = 0.56504 0.08842
# Poissons Ratio (y) = 0.58203 0.34628
# Poissons Ratio (z) = 0.09385 0.35683
#
# Static dielectric constant tensor:
#      x y z
#    x 2.358440 0.000000 0.000000 
#    y 0.000000 2.673730 0.000000 
#    z 0.000000 0.000000 2.260390 
# 
# From -- ./inp_files/35027.got.cif
#   From: 2010.05.17/outbox.cif.g08.bks.cpg/sg52_18_cif.got.tgz:35027.got - 2010.06.03 12:15:38.
