data_PCOD9412802
_publ_section_title
;
Structure prediction by ZEFSAII (Michael W. Deem and Ramdas Pophale) SiO2 
 PCOD9412802
Probable space group: P N N A
;
_chemical_formula_sum "Si O2"
_cell_formula_units_Z 28
_cell_length_a 28.793173
_cell_length_b 7.880574
_cell_length_c 5.351129
_cell_angle_alpha 90.000000
_cell_angle_beta 90.000000
_cell_angle_gamma 90.000000
_cell_volume 1214.207186
_symmetry_space_group_name_H-M "P N N A"
_symmetry_group_IT_number 52
_symmetry_cell_setting 'orthorhombic'
loop_
_space_group_symop_operation_xyz
x,y,z
1/2-x,-y,z
x,1/2-y,1/2-z
1/2-x,1/2+y,1/2-z
-x,-y,-z
1/2+x,y,-z
-x,1/2+y,1/2+z
1/2+x,1/2-y,1/2+z
loop_
_atom_site_type_symbol
_atom_site_label
_atom_site_fract_x
_atom_site_fract_y
_atom_site_fract_z
Si Si1 0.797615 0.923297 0.090571
Si Si2 0.151504 0.750000 0.750000
Si Si3 0.590820 0.750000 0.750000
Si Si4 0.042398 0.421935 0.144821
Si Si5 0.870776 0.750000 0.750000
O O1 0.790191 0.750000 0.250000
O O2 0.750000 0.000000 0.979226
O O3 0.817638 0.080158 0.246950
O O4 0.836944 0.878520 0.888562
O O5 0.120975 0.765534 0.500012
O O6 0.560223 0.582184 0.699041
O O7 0.020966 0.250000 0.250000
O O8 0.092703 0.341981 0.060029
O O9 0.000000 0.500000 0.000000
#
# Coordination Sequence:
#
# PCOD9412802 Si02
#       5
#     8   4   4   8   4
#     4  12  26  47  77 115 163 216 276 339 419 507
#     4  12  26  49  80 115 162 215 275 336 426 478
#     4  12  26  49  82 113 158 219 269 346 414 496
#     4  10  24  49  74 113 155 214 273 338 411 493
#     4  10  24  52  74 114 162 208 272 352 402 504
#
# _framework density 23.060314000000002
#
# number of rings (size 3 to 8) (size 9 to 14) (size 15 to 20)
#    0.857    0.000    4.286    1.714    2.000    3.429 
#    7.714    0.000    0.000    0.000    0.000    0.000 
#    0.000    0.000    0.000    0.000    0.000    0.000 
#
# Total GULP energy -155980.576154 kJ/mol
# GULP energy per Si atom -5570.734863 kJ/mol
# Density = 2.300783 g / cm^3
# Si number density = 23.060314 Si / 1000 Ang^3
#
#
#
# Elastic Constant Matrix: (Units=GPa)
#
#
# Indices 1 2 3 4 5 6 
#
# 1 198.8587 78.7348 61.4276 0.0000 0.0000 0.0000
# 2 78.7348 223.3399 36.2009 0.0000 0.0000 0.0000
# 3 61.4276 36.2009 68.4447 0.0000 0.0000 0.0000
# 4 0.0000 0.0000 0.0000 36.9756 0.0000 0.0000
# 5 0.0000 0.0000 0.0000 0.0000 18.8513 0.0000
# 6 0.0000 0.0000 0.0000 0.0000 0.0000 42.1843
#
#
#
# Elastic Compliance Matrix: (Units=1/GPa)
#
#
# Indices 1 2 3 4 5 6 
#
# 1 0.007504 -0.001700 -0.005836 0.000000 0.000000 0.000000
# 2 -0.001700 0.005282 -0.001268 0.000000 0.000000 0.000000
# 3 -0.005836 -0.001268 0.020519 0.000000 0.000000 0.000000
# 4 0.000000 0.000000 0.000000 0.027045 0.000000 0.000000
# 5 0.000000 0.000000 0.000000 0.000000 0.053047 0.000000
# 6 0.000000 0.000000 0.000000 0.000000 0.000000 0.023705
#
#
# Mechanical properties :
#
#
# Convention : Reuss Voigt Hill
#
# Bulk Modulus (GPa) = 63.70517 93.70777 78.70647
# Shear Modulus (GPa) = 31.26104 40.55425 35.90764
#
# Velocity S-wave (km/s) = 3.68587 4.19814 3.95031
# Velocity P-wave (km/s) = 6.76754 8.01394 7.41697
#
# Compressibility (1/GPa) = 0.01569731
#
# Stress axis : x y z
#
# Youngs Moduli (GPa) = 133.25537 189.31341 48.73533
#
# Poissons Ratio (x) = 0.32175 0.28442
# Poissons Ratio (y) = 0.22648 0.06182
# Poissons Ratio (z) = 0.77769 0.24014
#
# Static dielectric constant tensor:
#      x y z
#    x 2.021310 0.000000 0.000000 
#    y 0.000000 1.899730 0.000000 
#    z 0.000000 0.000000 1.907830 
# 
# From -- ./inp_files/5518.got.cif
#   From: 2010.05.17/outbox.cif.g08.bks.cpg/sg52_3_cif.got.tgz:5518.got - 2010.06.03 12:15:38.
