data_PCOD9412325
_publ_section_title
;
Structure prediction by ZEFSAII (Michael W. Deem and Ramdas Pophale) SiO2 
 PCOD9412325
Probable space group: P N N A
;
_chemical_formula_sum "Si O2"
_cell_formula_units_Z 56
_cell_length_a 17.402989
_cell_length_b 9.271117
_cell_length_c 17.022663
_cell_angle_alpha 90.000000
_cell_angle_beta 90.000000
_cell_angle_gamma 90.000000
_cell_volume 2746.524067
_symmetry_space_group_name_H-M "P N N A"
_symmetry_group_IT_number 52
_symmetry_cell_setting 'orthorhombic'
loop_
_space_group_symop_operation_xyz
x,y,z
1/2-x,-y,z
x,1/2-y,1/2-z
1/2-x,1/2+y,1/2-z
-x,-y,-z
1/2+x,y,-z
-x,1/2+y,1/2+z
1/2+x,1/2-y,1/2+z
loop_
_atom_site_type_symbol
_atom_site_label
_atom_site_fract_x
_atom_site_fract_y
_atom_site_fract_z
Si Si1 0.664235 0.192338 0.008305
Si Si2 0.828495 0.321714 0.048897
Si Si3 0.173018 0.914627 0.726238
Si Si4 0.387711 0.657094 0.685389
Si Si5 0.418467 0.080322 0.019459
Si Si6 0.053799 0.709036 0.164880
Si Si7 0.576703 0.467019 0.949516
O O1 0.646679 0.154770 0.099501
O O2 0.751109 0.742759 0.016783
O O3 0.605306 0.305151 0.966915
O O4 0.646331 0.040639 0.967760
O O5 0.827709 0.404948 0.131841
O O6 0.889971 0.189938 0.048711
O O7 0.856135 0.439057 0.987451
O O8 0.170731 0.750000 0.750000
O O9 0.250000 0.000000 0.751694
O O10 0.106708 0.002843 0.772311
O O11 0.341806 0.750000 0.750000
O O12 0.464360 0.749612 0.672220
O O13 0.421628 0.182258 0.095602
O O14 0.500000 0.000000 0.000000
O O15 0.088249 0.750000 0.250000
O O16 0.063849 0.544161 0.135036
O O17 0.500000 0.500000 0.000000
#
# Coordination Sequence:
#
# PCOD9412325 Si02
#       7
#     8   8   8   8   8   8   8
#     4  12  21  39  66  93 127 170 222 270 319 377
#     4  11  24  38  62  93 126 169 217 260 321 387
#     4  12  24  37  54  89 138 176 212 251 309 396
#     4  11  21  37  59  88 134 178 207 251 320 390
#     4  11  22  43  64  91 127 166 217 270 317 381
#     4  10  23  42  64  90 129 170 209 265 338 384
#     4  11  21  40  63  91 122 167 218 267 315 385
#
# _framework density 20.389408
#
# number of rings (size 3 to 8) (size 9 to 14) (size 15 to 20)
#    0.000    0.857    2.857    6.429    2.000    0.000 
#    0.000    0.714    0.000   13.714    0.000    0.000 
#    0.000    0.000    0.000    0.000    0.000    0.000 
#
# Total GULP energy -312125.260280 kJ/mol
# GULP energy per Si atom -5573.665362 kJ/mol
# Density = 2.034300 g / cm^3
# Si number density = 20.389408 Si / 1000 Ang^3
#
#
#
# Elastic Constant Matrix: (Units=GPa)
#
#
# Indices 1 2 3 4 5 6 
#
# 1 53.7449 11.6357 11.4028 0.0000 0.0000 0.0000
# 2 11.6357 126.4869 32.5989 0.0000 0.0000 0.0000
# 3 11.4028 32.5989 92.5042 0.0000 0.0000 0.0000
# 4 0.0000 0.0000 0.0000 41.5252 0.0000 0.0000
# 5 0.0000 0.0000 0.0000 0.0000 5.8377 0.0000
# 6 0.0000 0.0000 0.0000 0.0000 0.0000 15.9096
#
#
#
# Elastic Compliance Matrix: (Units=1/GPa)
#
#
# Indices 1 2 3 4 5 6 
#
# 1 0.019292 -0.001278 -0.001928 0.000000 0.000000 0.000000
# 2 -0.001278 0.008780 -0.002937 0.000000 0.000000 0.000000
# 3 -0.001928 -0.002937 0.012083 0.000000 0.000000 0.000000
# 4 0.000000 0.000000 0.000000 0.024082 0.000000 0.000000
# 5 0.000000 0.000000 0.000000 0.000000 0.171299 0.000000
# 6 0.000000 0.000000 0.000000 0.000000 0.000000 0.062855
#
#
# Mechanical properties :
#
#
# Convention : Reuss Voigt Hill
#
# Bulk Modulus (GPa) = 35.88009 42.66785 39.27397
# Shear Modulus (GPa) = 15.62665 27.12776 21.37721
#
# Velocity S-wave (km/s) = 2.77141 3.65154 3.24149
# Velocity P-wave (km/s) = 5.27983 6.22497 5.77178
#
# Compressibility (1/GPa) = 0.02787061
#
# Stress axis : x y z
#
# Youngs Moduli (GPa) = 51.83476 113.89033 82.76183
#
# Poissons Ratio (x) = 0.14554 0.15955
# Poissons Ratio (y) = 0.06624 0.24305
# Poissons Ratio (z) = 0.09993 0.33446
#
# Static dielectric constant tensor:
#      x y z
#    x 1.858800 0.000000 0.000000 
#    y 0.000000 1.733170 0.000000 
#    z 0.000000 0.000000 0.283510 
# 
# From -- ./inp_files/34061.got.cif
#   From: 2010.05.17/outbox.cif.g08.bks.cpg/sg52_18_cif.got.tgz:34061.got - 2010.06.03 12:15:38.
