data_PCOD9412019
_publ_section_title
;
Structure prediction by ZEFSAII (Michael W. Deem and Ramdas Pophale) SiO2 
 PCOD9412019
Probable space group: P N N A
;
_chemical_formula_sum "Si O2"
_cell_formula_units_Z 24
_cell_length_a 17.440939
_cell_length_b 7.479295
_cell_length_c 6.835009
_cell_angle_alpha 90.000000
_cell_angle_beta 90.000000
_cell_angle_gamma 90.000000
_cell_volume 891.599091
_symmetry_space_group_name_H-M "P N N A"
_symmetry_group_IT_number 52
_symmetry_cell_setting 'orthorhombic'
loop_
_space_group_symop_operation_xyz
x,y,z
1/2-x,-y,z
x,1/2-y,1/2-z
1/2-x,1/2+y,1/2-z
-x,-y,-z
1/2+x,y,-z
-x,1/2+y,1/2+z
1/2+x,1/2-y,1/2+z
loop_
_atom_site_type_symbol
_atom_site_label
_atom_site_fract_x
_atom_site_fract_y
_atom_site_fract_z
Si Si1 0.586303 0.040911 0.706726
Si Si2 0.424373 0.547831 0.751830
Si Si3 0.308685 0.250000 0.750000
Si Si4 0.250000 0.500000 0.086188
O O1 0.574470 0.250000 0.750000
O O2 0.576801 0.993453 0.478885
O O3 0.513655 0.950437 0.809451
O O4 0.676103 0.005131 0.725538
O O5 0.396249 0.750000 0.750000
O O6 0.365211 0.405580 0.664517
O O7 0.261257 0.163570 0.569705
#
# Coordination Sequence:
#
# PCOD9412019 Si02
#       4
#     8   8   4   4
#     4  10  22  43  60  99 136 161 219 278 328 386
#     4  10  22  43  70  92 127 177 224 265 321 404
#     4  10  22  44  68  96 124 180 232 258 316 412
#     4  10  24  42  64  98 142 170 224 282 328 394
#
# _framework density 26.917929000000001
#
# number of rings (size 3 to 8) (size 9 to 14) (size 15 to 20)
#    0.000    2.000    1.667    0.000    9.333    2.667 
#    6.000    0.000    0.000    0.000    0.000    0.000 
#    0.000    0.000    0.000    0.000    0.000    0.000 
#
# Total GULP energy -134077.037315 kJ/mol
# GULP energy per Si atom -5586.543221 kJ/mol
# Density = 2.685666 g / cm^3
# Si number density = 26.917929 Si / 1000 Ang^3
#
#
#
# Elastic Constant Matrix: (Units=GPa)
#
#
# Indices 1 2 3 4 5 6 
#
# 1 202.7766 64.0534 30.6505 0.0000 0.0000 0.0000
# 2 64.0534 174.5953 7.2661 0.0000 0.0000 0.0000
# 3 30.6505 7.2661 114.3695 0.0000 0.0000 0.0000
# 4 0.0000 0.0000 0.0000 26.5420 0.0000 0.0000
# 5 0.0000 0.0000 0.0000 0.0000 62.0357 0.0000
# 6 0.0000 0.0000 0.0000 0.0000 0.0000 88.2360
#
#
#
# Elastic Compliance Matrix: (Units=1/GPa)
#
#
# Indices 1 2 3 4 5 6 
#
# 1 0.005800 -0.002069 -0.001423 0.000000 0.000000 0.000000
# 2 -0.002069 0.006481 0.000143 0.000000 0.000000 0.000000
# 3 -0.001423 0.000143 0.009116 0.000000 0.000000 0.000000
# 4 0.000000 0.000000 0.000000 0.037676 0.000000 0.000000
# 5 0.000000 0.000000 0.000000 0.000000 0.016120 0.000000
# 6 0.000000 0.000000 0.000000 0.000000 0.000000 0.011333
#
#
# Mechanical properties :
#
#
# Convention : Reuss Voigt Hill
#
# Bulk Modulus (GPa) = 68.03380 77.29793 72.66587
# Shear Modulus (GPa) = 50.95648 61.34751 56.15200
#
# Velocity S-wave (km/s) = 4.35562 4.77913 4.57228
# Velocity P-wave (km/s) = 7.11510 7.69623 7.41136
#
# Compressibility (1/GPa) = 0.01469858
#
# Stress axis : x y z
#
# Youngs Moduli (GPa) = 172.41176 154.30882 109.69870
#
# Poissons Ratio (x) = 0.31921 0.15610
# Poissons Ratio (y) = 0.35666 -0.01565
# Poissons Ratio (z) = 0.24534 -0.02201
#
# Static dielectric constant tensor:
#      x y z
#    x 2.242360 0.000000 0.000000 
#    y 0.000000 2.092660 0.000000 
#    z 0.000000 0.000000 2.111590 
# 
# From -- ./inp_files/11279.got.cif
#   From: 2010.05.17/outbox.cif.g08.bks.cpg/sg52_6_cif.got.tgz:11279.got - 2010.06.03 12:15:38.
