data_PCOD9412840
_publ_section_title
;
Structure prediction by ZEFSAII (Michael W. Deem and Ramdas Pophale) SiO2 
 PCOD9412840
Probable space group: P N N A
;
_chemical_formula_sum "Si O2"
_cell_formula_units_Z 44
_cell_length_a 14.473980
_cell_length_b 7.466185
_cell_length_c 14.983713
_cell_angle_alpha 90.000000
_cell_angle_beta 90.000000
_cell_angle_gamma 90.000000
_cell_volume 1619.221124
_symmetry_space_group_name_H-M "P N N A"
_symmetry_group_IT_number 52
_symmetry_cell_setting 'orthorhombic'
loop_
_space_group_symop_operation_xyz
x,y,z
1/2-x,-y,z
x,1/2-y,1/2-z
1/2-x,1/2+y,1/2-z
-x,-y,-z
1/2+x,y,-z
-x,1/2+y,1/2+z
1/2+x,1/2-y,1/2+z
loop_
_atom_site_type_symbol
_atom_site_label
_atom_site_fract_x
_atom_site_fract_y
_atom_site_fract_z
Si Si1 0.572586 0.700619 0.965369
Si Si2 0.447587 0.511199 0.353054
Si Si3 0.312455 0.250000 0.250000
Si Si4 0.848389 0.040864 0.223461
Si Si5 0.630936 0.080154 0.417887
Si Si6 0.660582 0.150656 0.602827
O O1 0.465692 0.669933 0.943365
O O2 0.617624 0.547944 0.901993
O O3 0.583958 0.905703 0.942466
O O4 0.608701 0.628755 0.058776
O O5 0.379472 0.409620 0.283747
O O6 0.554321 0.494773 0.324615
O O7 0.419692 0.785314 0.132153
O O8 0.241140 0.301757 0.171008
O O9 0.852018 0.250000 0.250000
O O10 0.844313 0.921081 0.315237
O O11 0.750000 0.000000 0.176187
O O12 0.692730 0.163987 0.498082
#
# Coordination Sequence:
#
# PCOD9412840 Si02
#       6
#     8   8   4   8   8   8
#     4   9  22  45  77 111 157 213 252 330 398 465
#     4  12  27  46  82 114 158 209 267 329 408 485
#     4  12  28  42  78 122 170 206 264 332 412 512
#     4  12  30  54  83 116 151 215 280 339 398 485
#     4   9  22  49  76 111 163 207 267 339 392 472
#     4  10  25  45  76 122 161 207 261 323 401 492
#
# _framework density 27.173558
#
# number of rings (size 3 to 8) (size 9 to 14) (size 15 to 20)
#    1.091    0.364    0.000    2.727   12.727    2.182 
#    0.000    0.000    0.000    0.000    0.000    0.000 
#    0.000    0.000    0.000    0.000    0.000    0.000 
#
# Total GULP energy -245835.175583 kJ/mol
# GULP energy per Si atom -5587.163081 kJ/mol
# Density = 2.711171 g / cm^3
# Si number density = 27.173558 Si / 1000 Ang^3
#
#
#
# Elastic Constant Matrix: (Units=GPa)
#
#
# Indices 1 2 3 4 5 6 
#
# 1 189.1774 63.4877 45.8220 0.0000 0.0000 0.0000
# 2 63.4877 101.5725 48.0354 0.0000 0.0000 0.0000
# 3 45.8220 48.0354 119.0186 0.0000 0.0000 0.0000
# 4 0.0000 0.0000 0.0000 44.3962 0.0000 0.0000
# 5 0.0000 0.0000 0.0000 0.0000 26.0726 0.0000
# 6 0.0000 0.0000 0.0000 0.0000 0.0000 45.1782
#
#
#
# Elastic Compliance Matrix: (Units=1/GPa)
#
#
# Indices 1 2 3 4 5 6 
#
# 1 0.006807 -0.003727 -0.001117 0.000000 0.000000 0.000000
# 2 -0.003727 0.014208 -0.004299 0.000000 0.000000 0.000000
# 3 -0.001117 -0.004299 0.010567 0.000000 0.000000 0.000000
# 4 0.000000 0.000000 0.000000 0.022524 0.000000 0.000000
# 5 0.000000 0.000000 0.000000 0.000000 0.038354 0.000000
# 6 0.000000 0.000000 0.000000 0.000000 0.000000 0.022135
#
#
# Mechanical properties :
#
#
# Convention : Reuss Voigt Hill
#
# Bulk Modulus (GPa) = 75.20738 80.49540 77.85139
# Shear Modulus (GPa) = 36.41300 39.95762 38.18531
#
# Velocity S-wave (km/s) = 3.66459 3.83882 3.75272
# Velocity P-wave (km/s) = 6.75592 7.02394 6.89123
#
# Compressibility (1/GPa) = 0.01329657
#
# Stress axis : x y z
#
# Youngs Moduli (GPa) = 146.90306 70.38362 94.63244
#
# Poissons Ratio (x) = 0.26230 0.10567
# Poissons Ratio (y) = 0.54747 0.40687
# Poissons Ratio (z) = 0.16404 0.30261
#
# Static dielectric constant tensor:
#      x y z
#    x 2.132000 0.000000 0.000000 
#    y 0.000000 2.177000 0.000000 
#    z 0.000000 0.000000 2.315030 
# 
# From -- ./inp_files/27981.got.cif
#   From: 2010.05.17/outbox.cif.g08.bks.cpg/sg52_14_cif.got.tgz:27981.got - 2010.06.03 12:15:38.
