data_PCOD9412472
_publ_section_title
;
Structure prediction by ZEFSAII (Michael W. Deem and Ramdas Pophale) SiO2 
 PCOD9412472
Probable space group: P N N A
;
_chemical_formula_sum "Si O2"
_cell_formula_units_Z 40
_cell_length_a 14.623065
_cell_length_b 14.327002
_cell_length_c 8.712623
_cell_angle_alpha 90.000000
_cell_angle_beta 90.000000
_cell_angle_gamma 90.000000
_cell_volume 1825.335307
_symmetry_space_group_name_H-M "P N N A"
_symmetry_group_IT_number 52
_symmetry_cell_setting 'orthorhombic'
loop_
_space_group_symop_operation_xyz
x,y,z
1/2-x,-y,z
x,1/2-y,1/2-z
1/2-x,1/2+y,1/2-z
-x,-y,-z
1/2+x,y,-z
-x,1/2+y,1/2+z
1/2+x,1/2-y,1/2+z
loop_
_atom_site_type_symbol
_atom_site_label
_atom_site_fract_x
_atom_site_fract_y
_atom_site_fract_z
Si Si1 0.190266 0.750000 0.750000
Si Si2 0.056880 0.593311 0.657150
Si Si3 0.250000 0.500000 0.086011
Si Si4 0.922515 0.750000 0.750000
Si Si5 0.667121 0.322687 0.034488
Si Si6 0.413227 0.060205 0.186599
Si Si7 0.508695 0.250000 0.250000
O O1 0.133038 0.653805 0.745849
O O2 0.255022 0.744570 0.898163
O O3 0.097730 0.550797 0.499042
O O4 0.981775 0.677814 0.647807
O O5 0.997543 0.509399 0.729944
O O6 0.328323 0.459387 0.201067
O O7 0.295962 0.573479 0.970405
O O8 0.858095 0.806828 0.640006
O O9 0.576673 0.299431 0.129724
O O10 0.444899 0.166731 0.195594
#
# Coordination Sequence:
#
# PCOD9412472 Si02
#       7
#     4   8   4   4   8   8   4
#     4  10  26  44  69 101 140 192 224 290 352 417
#     4  10  23  45  69  98 138 188 231 278 353 428
#     4  12  28  42  74 108 142 180 244 306 354 416
#     4  11  20  46  72  93 140 182 235 286 342 424
#     4  11  26  45  68 106 138 185 233 295 345 416
#     4  11  25  45  69 105 137 184 234 290 356 420
#     4  11  26  48  73  98 144 188 231 288 360 425
#
# _framework density 21.913782000000001
#
# number of rings (size 3 to 8) (size 9 to 14) (size 15 to 20)
#    0.000    1.200    4.000    0.000    8.400    0.800 
#    3.600    0.000    0.000    0.000    0.000    0.000 
#    0.000    0.000    0.000    0.000    0.000    0.000 
#
# Total GULP energy -222972.417659 kJ/mol
# GULP energy per Si atom -5574.310441 kJ/mol
# Density = 2.186391 g / cm^3
# Si number density = 21.913782 Si / 1000 Ang^3
#
#
#
# Elastic Constant Matrix: (Units=GPa)
#
#
# Indices 1 2 3 4 5 6 
#
# 1 85.5285 23.7405 23.3405 0.0000 0.0000 0.0000
# 2 23.7405 98.1800 6.3819 0.0000 0.0000 0.0000
# 3 23.3405 6.3819 46.9319 0.0000 0.0000 0.0000
# 4 0.0000 0.0000 0.0000 35.3742 0.0000 0.0000
# 5 0.0000 0.0000 0.0000 0.0000 1.0488 0.0000
# 6 0.0000 0.0000 0.0000 0.0000 0.0000 29.7990
#
#
#
# Elastic Compliance Matrix: (Units=1/GPa)
#
#
# Indices 1 2 3 4 5 6 
#
# 1 0.014373 -0.003038 -0.006735 0.000000 0.000000 0.000000
# 2 -0.003038 0.010918 0.000026 0.000000 0.000000 0.000000
# 3 -0.006735 0.000026 0.024653 0.000000 0.000000 0.000000
# 4 0.000000 0.000000 0.000000 0.028269 0.000000 0.000000
# 5 0.000000 0.000000 0.000000 0.000000 0.953431 0.000000
# 6 0.000000 0.000000 0.000000 0.000000 0.000000 0.033558
#
#
# Mechanical properties :
#
#
# Convention : Reuss Voigt Hill
#
# Bulk Modulus (GPa) = 32.83927 37.50735 35.17331
# Shear Modulus (GPa) = 4.56685 25.05624 14.81154
#
# Velocity S-wave (km/s) = 1.44518 3.38509 2.60263
# Velocity P-wave (km/s) = 4.21935 5.69486 5.01171
#
# Compressibility (1/GPa) = 0.03045135
#
# Stress axis : x y z
#
# Youngs Moduli (GPa) = 69.57403 91.58998 40.56231
#
# Poissons Ratio (x) = 0.27823 0.27319
# Poissons Ratio (y) = 0.21135 -0.00106
# Poissons Ratio (z) = 0.46859 -0.00239
#
# Static dielectric constant tensor:
#      x y z
#    x 1.801270 0.000000 0.000000 
#    y 0.000000 1.749790 0.000000 
#    z 0.000000 0.000000 1.833640 
# 
# From -- ./inp_files/10088.got.cif
#   From: 2010.05.17/outbox.cif.g08.bks.cpg/sg52_6_cif.got.tgz:10088.got - 2010.06.03 12:15:38.
