data_PCOD9412217
_publ_section_title
;
Structure prediction by ZEFSAII (Michael W. Deem and Ramdas Pophale) SiO2 
 PCOD9412217
Probable space group: P N N A
;
_chemical_formula_sum "Si O2"
_cell_formula_units_Z 40
_cell_length_a 7.869307
_cell_length_b 8.764708
_cell_length_c 22.641703
_cell_angle_alpha 90.000000
_cell_angle_beta 90.000000
_cell_angle_gamma 90.000000
_cell_volume 1561.647570
_symmetry_space_group_name_H-M "P N N A"
_symmetry_group_IT_number 52
_symmetry_cell_setting 'orthorhombic'
loop_
_space_group_symop_operation_xyz
x,y,z
1/2-x,-y,z
x,1/2-y,1/2-z
1/2-x,1/2+y,1/2-z
-x,-y,-z
1/2+x,y,-z
-x,1/2+y,1/2+z
1/2+x,1/2-y,1/2+z
loop_
_atom_site_type_symbol
_atom_site_label
_atom_site_fract_x
_atom_site_fract_y
_atom_site_fract_z
Si Si1 0.250000 0.500000 0.146853
Si Si2 0.563838 0.166256 0.330352
Si Si3 0.236696 0.169002 0.544079
Si Si4 0.608891 0.280193 0.572605
Si Si5 0.044910 0.506429 0.658792
Si Si6 0.133150 0.750000 0.750000
O O1 0.420683 0.457854 0.181732
O O2 0.286326 0.653772 0.109263
O O3 0.613276 0.158687 0.399753
O O4 0.498308 0.338465 0.319972
O O5 0.736639 0.159937 0.293035
O O6 0.420344 0.210878 0.567485
O O7 0.180307 0.284891 0.493519
O O8 0.250000 0.000000 0.516690
O O9 0.571134 0.438661 0.605062
O O10 0.250000 0.500000 0.644019
O O11 0.031684 0.636530 0.708222
#
# Coordination Sequence:
#
# PCOD9412217 Si02
#       6
#     4   8   8   8   8   4
#     4  12  26  44  68 108 152 196 244 300 370 436
#     4  11  25  45  75 110 143 194 246 303 369 434
#     4  12  22  41  72 108 150 199 249 297 365 440
#     4  12  24  43  71 106 150 200 245 303 361 444
#     4  10  23  46  75 111 139 187 253 306 361 438
#     4  10  22  48  80 102 138 190 252 304 372 444
#
# _framework density 25.613973000000001
#
# number of rings (size 3 to 8) (size 9 to 14) (size 15 to 20)
#    0.000    0.800    7.000    1.800    0.000    8.800 
#    0.000    5.000    0.000    0.000    0.000    0.000 
#    0.000    0.000    0.000    0.000    0.000    0.000 
#
# Total GULP energy -224230.196512 kJ/mol
# GULP energy per Si atom -5605.754913 kJ/mol
# Density = 2.555567 g / cm^3
# Si number density = 25.613973 Si / 1000 Ang^3
#
#
#
# Elastic Constant Matrix: (Units=GPa)
#
#
# Indices 1 2 3 4 5 6 
#
# 1 99.8951 1.7821 21.9980 0.0000 0.0000 0.0000
# 2 1.7821 65.7776 17.6356 0.0000 0.0000 0.0000
# 3 21.9980 17.6356 117.2753 0.0000 0.0000 0.0000
# 4 0.0000 0.0000 0.0000 35.0101 0.0000 0.0000
# 5 0.0000 0.0000 0.0000 0.0000 24.5262 0.0000
# 6 0.0000 0.0000 0.0000 0.0000 0.0000 38.1643
#
#
#
# Elastic Compliance Matrix: (Units=1/GPa)
#
#
# Indices 1 2 3 4 5 6 
#
# 1 0.010446 0.000253 -0.001997 0.000000 0.000000 0.000000
# 2 0.000253 0.015848 -0.002430 0.000000 0.000000 0.000000
# 3 -0.001997 -0.002430 0.009267 0.000000 0.000000 0.000000
# 4 0.000000 0.000000 0.000000 0.028563 0.000000 0.000000
# 5 0.000000 0.000000 0.000000 0.000000 0.040773 0.000000
# 6 0.000000 0.000000 0.000000 0.000000 0.000000 0.026203
#
#
# Mechanical properties :
#
#
# Convention : Reuss Voigt Hill
#
# Bulk Modulus (GPa) = 36.75147 40.64216 38.69682
# Shear Modulus (GPa) = 33.66561 35.64226 34.65394
#
# Velocity S-wave (km/s) = 3.62932 3.73435 3.68221
# Velocity P-wave (km/s) = 5.65173 5.87328 5.76357
#
# Compressibility (1/GPa) = 0.02720979
#
# Stress axis : x y z
#
# Youngs Moduli (GPa) = 95.73194 63.10130 107.90870
#
# Poissons Ratio (x) = -0.01593 0.21553
# Poissons Ratio (y) = -0.02417 0.26227
# Poissons Ratio (z) = 0.19121 0.15337
#
# Static dielectric constant tensor:
#      x y z
#    x 1.985650 0.000000 0.000000 
#    y 0.000000 2.348790 0.000000 
#    z 0.000000 0.000000 2.090700 
# 
# From -- ./inp_files/39262.got.cif
#   From: 2010.05.17/outbox.cif.g08.bks.cpg/sg52_20_cif.got.tgz:39262.got - 2010.06.03 12:15:38.
