data_PCOD9412567
_publ_section_title
;
Structure prediction by ZEFSAII (Michael W. Deem and Ramdas Pophale) SiO2 
 PCOD9412567
Probable space group: P N N A
;
_chemical_formula_sum "Si O2"
_cell_formula_units_Z 60
_cell_length_a 13.116578
_cell_length_b 24.739943
_cell_length_c 8.348381
_cell_angle_alpha 90.000000
_cell_angle_beta 90.000000
_cell_angle_gamma 90.000000
_cell_volume 2709.077953
_symmetry_space_group_name_H-M "P N N A"
_symmetry_group_IT_number 52
_symmetry_cell_setting 'orthorhombic'
loop_
_space_group_symop_operation_xyz
x,y,z
1/2-x,-y,z
x,1/2-y,1/2-z
1/2-x,1/2+y,1/2-z
-x,-y,-z
1/2+x,y,-z
-x,1/2+y,1/2+z
1/2+x,1/2-y,1/2+z
loop_
_atom_site_type_symbol
_atom_site_label
_atom_site_fract_x
_atom_site_fract_y
_atom_site_fract_z
Si Si1 0.333069 0.631974 0.641810
Si Si2 0.817907 0.601523 0.816005
Si Si3 0.470275 0.435424 0.914599
Si Si4 0.903873 0.798433 0.867410
Si Si5 0.305443 0.154509 0.578515
Si Si6 0.799728 0.051057 0.963322
Si Si7 0.900120 0.250000 0.250000
Si Si8 0.497586 0.539496 0.724946
O O1 0.365859 0.686210 0.545456
O O2 0.295215 0.645358 0.817328
O O3 0.233510 0.604976 0.557165
O O4 0.419606 0.585796 0.663479
O O5 0.907459 0.573626 0.915870
O O6 0.880608 0.645148 0.715803
O O7 0.765489 0.559139 0.699669
O O8 0.731564 0.635894 0.905253
O O9 0.399856 0.384297 0.876585
O O10 0.449716 0.481743 0.780674
O O11 0.449976 0.447312 0.102158
O O12 0.860869 0.750000 0.750000
O O13 0.023466 0.786056 0.857414
O O14 0.338650 0.214328 0.624604
O O15 0.914338 0.038974 0.909526
O O16 0.750000 0.000000 0.051140
#
# Coordination Sequence:
#
# PCOD9412567 Si02
#       8
#     8   8   8   8   8   8   4   8
#     4  11  27  41  66 105 135 176 230 292 335 416
#     4  11  21  43  66  93 130 176 224 276 341 413
#     4  11  22  42  68  97 135 183 223 282 343 421
#     4   9  22  46  66  88 136 175 219 279 360 398
#     4  12  25  42  71 100 131 171 238 288 341 417
#     4  11  24  40  63  96 135 180 219 269 345 412
#     4  10  24  40  70  96 124 180 222 282 354 400
#     4  11  24  41  67  99 140 182 228 277 344 424
#
# _framework density 22.147756999999999
#
# number of rings (size 3 to 8) (size 9 to 14) (size 15 to 20)
#    0.400    0.800    5.333    0.000    5.600    0.533 
#    0.000    0.000    0.000    0.000    0.000    0.000 
#    0.000    0.000    0.000    0.000    0.000    0.000 
#
# Total GULP energy -334266.808921 kJ/mol
# GULP energy per Si atom -5571.113482 kJ/mol
# Density = 2.209735 g / cm^3
# Si number density = 22.147757 Si / 1000 Ang^3
#
#
#
# Elastic Constant Matrix: (Units=GPa)
#
#
# Indices 1 2 3 4 5 6 
#
# 1 79.8473 27.8499 1.3790 0.0000 0.0000 0.0000
# 2 27.8499 86.7855 8.2954 0.0000 0.0000 0.0000
# 3 1.3790 8.2954 49.3677 0.0000 0.0000 0.0000
# 4 0.0000 0.0000 0.0000 32.2959 0.0000 0.0000
# 5 0.0000 0.0000 0.0000 0.0000 20.4673 0.0000
# 6 0.0000 0.0000 0.0000 0.0000 0.0000 37.0646
#
#
#
# Elastic Compliance Matrix: (Units=1/GPa)
#
#
# Indices 1 2 3 4 5 6 
#
# 1 0.014109 -0.004563 0.000373 0.000000 0.000000 0.000000
# 2 -0.004563 0.013187 -0.002088 0.000000 0.000000 0.000000
# 3 0.000373 -0.002088 0.020597 0.000000 0.000000 0.000000
# 4 0.000000 0.000000 0.000000 0.030964 0.000000 0.000000
# 5 0.000000 0.000000 0.000000 0.000000 0.048858 0.000000
# 6 0.000000 0.000000 0.000000 0.000000 0.000000 0.026980
#
#
# Mechanical properties :
#
#
# Convention : Reuss Voigt Hill
#
# Bulk Modulus (GPa) = 28.30092 32.33877 30.31984
# Shear Modulus (GPa) = 27.92821 29.86398 28.89610
#
# Velocity S-wave (km/s) = 3.55490 3.67604 3.61598
# Velocity P-wave (km/s) = 5.44571 5.71408 5.58151
#
# Compressibility (1/GPa) = 0.03533454
#
# Stress axis : x y z
#
# Youngs Moduli (GPa) = 70.87623 75.83427 48.55156
#
# Poissons Ratio (x) = 0.34605 -0.01809
# Poissons Ratio (y) = 0.32343 0.10139
# Poissons Ratio (z) = -0.02641 0.15837
#
# Static dielectric constant tensor:
#      x y z
#    x 1.821240 0.000000 0.000000 
#    y 0.000000 1.828970 0.000000 
#    z 0.000000 0.000000 1.854510 
# 
# From -- ./inp_files/9016.got.cif
#   From: 2010.05.17/outbox.cif.g08.bks.cpg/sg52_5_cif.got.tgz:9016.got - 2010.06.03 12:15:38.
