data_PCOD9412434
_publ_section_title
;
Structure prediction by ZEFSAII (Michael W. Deem and Ramdas Pophale) SiO2 
 PCOD9412434
Probable space group: P N N A
;
_chemical_formula_sum "Si O2"
_cell_formula_units_Z 40
_cell_length_a 25.059623
_cell_length_b 8.404067
_cell_length_c 8.217912
_cell_angle_alpha 90.000000
_cell_angle_beta 90.000000
_cell_angle_gamma 90.000000
_cell_volume 1730.714872
_symmetry_space_group_name_H-M "P N N A"
_symmetry_group_IT_number 52
_symmetry_cell_setting 'orthorhombic'
loop_
_space_group_symop_operation_xyz
x,y,z
1/2-x,-y,z
x,1/2-y,1/2-z
1/2-x,1/2+y,1/2-z
-x,-y,-z
1/2+x,y,-z
-x,1/2+y,1/2+z
1/2+x,1/2-y,1/2+z
loop_
_atom_site_type_symbol
_atom_site_label
_atom_site_fract_x
_atom_site_fract_y
_atom_site_fract_z
Si Si1 0.001227 0.438019 0.308088
Si Si2 0.884040 0.430344 0.308791
Si Si3 0.707251 0.127974 0.626975
Si Si4 0.885510 0.069639 0.798341
Si Si5 0.210731 0.370012 0.634070
O O1 0.004494 0.250000 0.250000
O O2 0.942136 0.487819 0.248434
O O3 0.000000 0.500000 0.500000
O O4 0.055077 0.517702 0.243063
O O5 0.877307 0.250000 0.250000
O O6 0.883235 0.437089 0.505657
O O7 0.834409 0.539799 0.264484
O O8 0.736602 0.250000 0.750000
O O9 0.685845 0.252721 0.496327
O O10 0.750000 0.000000 0.565612
O O11 0.658949 0.039551 0.715055
O O12 0.876079 0.250000 0.750000
O O13 0.250000 0.500000 0.560109
O O14 0.242898 0.250000 0.750000
#
# Coordination Sequence:
#
# PCOD9412434 Si02
#       5
#     8   8   8   8   8
#     4   9  20  41  66  95 135 181 230 284 346 416
#     4  10  23  44  67  95 138 181 226 282 339 415
#     4  12  25  43  69 101 137 176 228 291 346 415
#     4  11  24  40  69 103 134 178 228 287 348 412
#     4  12  27  45  68  98 137 184 233 283 348 422
#
# _framework density 23.111834999999999
#
# number of rings (size 3 to 8) (size 9 to 14) (size 15 to 20)
#    0.000    1.200    2.000    3.000    8.400    0.800 
#    0.000    9.000    0.000    0.000    0.000    0.000 
#    0.000    0.000    0.000    0.000    0.000    0.000 
#
# Total GULP energy -223156.805816 kJ/mol
# GULP energy per Si atom -5578.920145 kJ/mol
# Density = 2.305923 g / cm^3
# Si number density = 23.111835 Si / 1000 Ang^3
#
#
#
# Elastic Constant Matrix: (Units=GPa)
#
#
# Indices 1 2 3 4 5 6 
#
# 1 162.0412 80.2130 26.2833 0.0000 0.0000 0.0000
# 2 80.2130 156.8913 49.7328 0.0000 0.0000 0.0000
# 3 26.2833 49.7328 46.8711 0.0000 0.0000 0.0000
# 4 0.0000 0.0000 0.0000 54.3436 0.0000 0.0000
# 5 0.0000 0.0000 0.0000 0.0000 -16.0635 0.0000
# 6 0.0000 0.0000 0.0000 0.0000 0.0000 38.2229
#
#
#
# Elastic Compliance Matrix: (Units=1/GPa)
#
#
# Indices 1 2 3 4 5 6 
#
# 1 0.008264 -0.004153 -0.000228 0.000000 0.000000 0.000000
# 2 -0.004153 0.011691 -0.010076 0.000000 0.000000 0.000000
# 3 -0.000228 -0.010076 0.032154 0.000000 0.000000 0.000000
# 4 0.000000 0.000000 0.000000 0.018401 0.000000 0.000000
# 5 0.000000 0.000000 0.000000 0.000000 -0.062253 0.000000
# 6 0.000000 0.000000 0.000000 0.000000 0.000000 0.026162
#
#
# Mechanical properties :
#
#
# Convention : Reuss Voigt Hill
#
# Bulk Modulus (GPa) = 43.11123 75.36242 59.23682
# Shear Modulus (GPa) = 70.35793 29.27224 49.81509
#
# Velocity S-wave (km/s) = 5.52345 3.56272 4.64766
# Velocity P-wave (km/s) = 7.70531 7.04290 7.38154
#
# Compressibility (1/GPa) = 0.02319581
#
# Stress axis : x y z
#
# Youngs Moduli (GPa) = 121.00756 85.53516 31.10032
#
# Poissons Ratio (x) = 0.35522 0.00708
# Poissons Ratio (y) = 0.50253 0.31337
# Poissons Ratio (z) = 0.02754 0.86186
#
# Static dielectric constant tensor:
#      x y z
#    x 1.837110 0.000000 0.000000 
#    y 0.000000 1.878560 0.000000 
#    z 0.000000 0.000000 2.016670 
# 
# From -- ./inp_files/13944.got.cif
#   From: 2010.05.17/outbox.cif.g08.bks.cpg/sg52_7_cif.got.tgz:13944.got - 2010.06.03 12:15:38.
