data_PCOD9412925
_publ_section_title
;
Structure prediction by ZEFSAII (Michael W. Deem and Ramdas Pophale) SiO2 
 PCOD9412925
Probable space group: P N N A
;
_chemical_formula_sum "Si O2"
_cell_formula_units_Z 40
_cell_length_a 14.489908
_cell_length_b 9.064251
_cell_length_c 12.810693
_cell_angle_alpha 90.000000
_cell_angle_beta 90.000000
_cell_angle_gamma 90.000000
_cell_volume 1682.558508
_symmetry_space_group_name_H-M "P N N A"
_symmetry_group_IT_number 52
_symmetry_cell_setting 'orthorhombic'
loop_
_space_group_symop_operation_xyz
x,y,z
1/2-x,-y,z
x,1/2-y,1/2-z
1/2-x,1/2+y,1/2-z
-x,-y,-z
1/2+x,y,-z
-x,1/2+y,1/2+z
1/2+x,1/2-y,1/2+z
loop_
_atom_site_type_symbol
_atom_site_label
_atom_site_fract_x
_atom_site_fract_y
_atom_site_fract_z
Si Si1 0.250000 0.500000 0.698670
Si Si2 0.850128 0.832264 0.022064
Si Si3 0.017163 0.875946 0.413112
Si Si4 0.776423 0.168612 0.639846
Si Si5 0.946424 0.418525 0.265365
Si Si6 0.000000 0.500000 0.500000
O O1 0.210049 0.373362 0.622210
O O2 0.162614 0.561105 0.761106
O O3 0.949092 0.760131 0.058263
O O4 0.890085 0.973027 0.961938
O O5 0.795793 0.730714 0.943765
O O6 0.121479 0.823549 0.409088
O O7 0.995341 0.957623 0.304518
O O8 0.000000 0.000000 0.500000
O O9 0.773302 0.250000 0.750000
O O10 0.750000 0.000000 0.658034
O O11 0.976382 0.250000 0.250000
O O12 0.960829 0.448376 0.386302
#
# Coordination Sequence:
#
# PCOD9412925 Si02
#       6
#     4   8   8   8   8   4
#     4  10  28  42  76 108 142 210 252 336 394 476
#     4  11  27  49  75 111 162 203 271 323 405 484
#     4  12  28  49  77 113 154 210 260 328 405 484
#     4  12  31  48  79 118 162 215 271 338 412 497
#     4  11  27  46  77 108 155 200 263 329 404 481
#     4  10  26  48  76 112 150 212 256 330 400 472
#
# _framework density 23.773319999999998
#
# number of rings (size 3 to 8) (size 9 to 14) (size 15 to 20)
#    0.000    0.800    2.000    1.200   21.000    0.000 
#    0.000    0.000    0.000    0.000    0.000    0.000 
#    0.000    0.000    0.000    0.000    0.000    0.000 
#
# Total GULP energy -223207.974717 kJ/mol
# GULP energy per Si atom -5580.199368 kJ/mol
# Density = 2.371921 g / cm^3
# Si number density = 23.773320 Si / 1000 Ang^3
#
#
#
# Elastic Constant Matrix: (Units=GPa)
#
#
# Indices 1 2 3 4 5 6 
#
# 1 138.7171 37.8915 28.3335 0.0000 0.0000 0.0000
# 2 37.8915 77.9397 34.9833 0.0000 0.0000 0.0000
# 3 28.3335 34.9833 65.3904 0.0000 0.0000 0.0000
# 4 0.0000 0.0000 0.0000 43.6999 0.0000 0.0000
# 5 0.0000 0.0000 0.0000 0.0000 35.5978 0.0000
# 6 0.0000 0.0000 0.0000 0.0000 0.0000 44.9504
#
#
#
# Elastic Compliance Matrix: (Units=1/GPa)
#
#
# Indices 1 2 3 4 5 6 
#
# 1 0.008495 -0.003261 -0.001936 0.000000 0.000000 0.000000
# 2 -0.003261 0.018137 -0.008290 0.000000 0.000000 0.000000
# 3 -0.001936 -0.008290 0.020567 0.000000 0.000000 0.000000
# 4 0.000000 0.000000 0.000000 0.022883 0.000000 0.000000
# 5 0.000000 0.000000 0.000000 0.000000 0.028092 0.000000
# 6 0.000000 0.000000 0.000000 0.000000 0.000000 0.022247
#
#
# Mechanical properties :
#
#
# Convention : Reuss Voigt Hill
#
# Bulk Modulus (GPa) = 49.44587 53.82932 51.63760
# Shear Modulus (GPa) = 32.43872 36.90552 34.67212
#
# Velocity S-wave (km/s) = 3.69792 3.94432 3.82310
# Velocity P-wave (km/s) = 6.25115 6.59055 6.42309
#
# Compressibility (1/GPa) = 0.02022414
#
# Stress axis : x y z
#
# Youngs Moduli (GPa) = 117.71399 55.13654 48.62175
#
# Poissons Ratio (x) = 0.17979 0.09415
# Poissons Ratio (y) = 0.38385 0.40308
# Poissons Ratio (z) = 0.22794 0.45709
#
# Static dielectric constant tensor:
#      x y z
#    x 1.960490 0.000000 0.000000 
#    y 0.000000 1.681510 0.000000 
#    z 0.000000 0.000000 1.652960 
# 
# From -- ./inp_files/26974.got.cif
#   From: 2010.05.17/outbox.cif.g08.bks.cpg/sg52_14_cif.got.tgz:26974.got - 2010.06.03 12:15:38.
