data_PCOD9412243
_publ_section_title
;
Structure prediction by ZEFSAII (Michael W. Deem and Ramdas Pophale) SiO2 
 PCOD9412243
Probable space group: P N N A
;
_chemical_formula_sum "Si O2"
_cell_formula_units_Z 64
_cell_length_a 29.088894
_cell_length_b 8.396229
_cell_length_c 11.371995
_cell_angle_alpha 90.000000
_cell_angle_beta 90.000000
_cell_angle_gamma 90.000000
_cell_volume 2777.462118
_symmetry_space_group_name_H-M "P N N A"
_symmetry_group_IT_number 52
_symmetry_cell_setting 'orthorhombic'
loop_
_space_group_symop_operation_xyz
x,y,z
1/2-x,-y,z
x,1/2-y,1/2-z
1/2-x,1/2+y,1/2-z
-x,-y,-z
1/2+x,y,-z
-x,1/2+y,1/2+z
1/2+x,1/2-y,1/2+z
loop_
_atom_site_type_symbol
_atom_site_label
_atom_site_fract_x
_atom_site_fract_y
_atom_site_fract_z
Si Si1 0.677210 0.094171 0.505241
Si Si2 0.453550 0.169126 0.406689
Si Si3 0.783382 0.644176 0.363210
Si Si4 0.641643 0.926941 0.721711
Si Si5 0.541249 0.963543 0.339291
Si Si6 0.614140 0.322019 0.621021
Si Si7 0.521851 0.475419 0.624164
Si Si8 0.355893 0.059320 0.725881
O O1 0.713994 0.226539 0.467407
O O2 0.633159 0.210943 0.520987
O O3 0.677153 0.006406 0.629952
O O4 0.670215 0.975412 0.397244
O O5 0.408632 0.080400 0.348564
O O6 0.449483 0.150784 0.548348
O O7 0.455766 0.348948 0.357765
O O8 0.504412 0.096051 0.383264
O O9 0.750000 0.500000 0.389537
O O10 0.768863 0.750000 0.250000
O O11 0.830184 0.552242 0.321694
O O12 0.655275 0.750000 0.750000
O O13 0.637520 0.009877 0.850166
O O14 0.513314 0.918622 0.222094
O O15 0.592095 0.001914 0.292779
O O16 0.622564 0.250000 0.750000
O O17 0.560719 0.345213 0.609751
O O18 0.500000 0.500000 0.500000
O O19 0.356137 0.250000 0.750000
#
# Coordination Sequence:
#
# PCOD9412243 Si02
#       8
#     8   8   8   8   8   8   8   8
#     4  10  24  41  65 102 138 183 227 286 353 426
#     4  11  23  41  59  83 130 195 251 310 354 400
#     4  10  23  46  75 108 144 176 215 278 367 449
#     4  11  19  41  65  94 137 189 246 299 347 416
#     4  11  25  40  57  86 133 188 249 305 348 411
#     4  10  23  39  59  89 134 177 234 291 343 408
#     4  12  27  34  56  84 128 191 250 294 367 407
#     4  11  25  42  67  97 137 181 239 295 354 430
#
# _framework density 23.042618000000001
#
# number of rings (size 3 to 8) (size 9 to 14) (size 15 to 20)
#    0.000    1.250    3.750    0.750    7.000    3.000 
#    0.000    0.000    0.000    0.000    0.000   49.875 
#    0.000    0.000    0.000    0.000    0.000    0.000 
#
# Total GULP energy -356907.401209 kJ/mol
# GULP energy per Si atom -5576.678144 kJ/mol
# Density = 2.299017 g / cm^3
# Si number density = 23.042618 Si / 1000 Ang^3
#
#
#
# Elastic Constant Matrix: (Units=GPa)
#
#
# Indices 1 2 3 4 5 6 
#
# 1 52.7241 23.5918 20.8072 0.0000 0.0000 0.0000
# 2 23.5918 100.1187 37.8426 0.0000 0.0000 0.0000
# 3 20.8072 37.8426 97.2736 0.0000 0.0000 0.0000
# 4 0.0000 0.0000 0.0000 38.7228 0.0000 0.0000
# 5 0.0000 0.0000 0.0000 0.0000 6.9595 0.0000
# 6 0.0000 0.0000 0.0000 0.0000 0.0000 28.0910
#
#
#
# Elastic Compliance Matrix: (Units=1/GPa)
#
#
# Indices 1 2 3 4 5 6 
#
# 1 0.021997 -0.003992 -0.003152 0.000000 0.000000 0.000000
# 2 -0.003992 0.012434 -0.003984 0.000000 0.000000 0.000000
# 3 -0.003152 -0.003984 0.012504 0.000000 0.000000 0.000000
# 4 0.000000 0.000000 0.000000 0.025825 0.000000 0.000000
# 5 0.000000 0.000000 0.000000 0.000000 0.143688 0.000000
# 6 0.000000 0.000000 0.000000 0.000000 0.000000 0.035599
#
#
# Mechanical properties :
#
#
# Convention : Reuss Voigt Hill
#
# Bulk Modulus (GPa) = 40.51807 46.06663 43.29235
# Shear Modulus (GPa) = 17.69728 25.94630 21.82179
#
# Velocity S-wave (km/s) = 2.77433 3.35925 3.08071
# Velocity P-wave (km/s) = 5.28060 5.92296 5.61098
#
# Compressibility (1/GPa) = 0.02468035
#
# Stress axis : x y z
#
# Youngs Moduli (GPa) = 45.46106 80.42168 79.97256
#
# Poissons Ratio (x) = 0.32103 0.25210
# Poissons Ratio (y) = 0.18147 0.31857
# Poissons Ratio (z) = 0.14331 0.32036
#
# Static dielectric constant tensor:
#      x y z
#    x 1.887870 0.000000 0.000000 
#    y 0.000000 2.081130 0.000000 
#    z 0.000000 0.000000 1.930280 
# 
# From -- ./inp_files/23206.got.cif
#   From: 2010.05.17/outbox.cif.g08.bks.cpg/sg52_12_cif.got.tgz:23206.got - 2010.06.03 12:15:38.
