data_PCOD9412963
_publ_section_title
;
Structure prediction by ZEFSAII (Michael W. Deem and Ramdas Pophale) SiO2 
 PCOD9412963
Probable space group: P N N A
;
_chemical_formula_sum "Si O2"
_cell_formula_units_Z 32
_cell_length_a 14.975409
_cell_length_b 9.444529
_cell_length_c 9.526376
_cell_angle_alpha 90.000000
_cell_angle_beta 90.000000
_cell_angle_gamma 90.000000
_cell_volume 1347.369511
_symmetry_space_group_name_H-M "P N N A"
_symmetry_group_IT_number 52
_symmetry_cell_setting 'orthorhombic'
loop_
_space_group_symop_operation_xyz
x,y,z
1/2-x,-y,z
x,1/2-y,1/2-z
1/2-x,1/2+y,1/2-z
-x,-y,-z
1/2+x,y,-z
-x,1/2+y,1/2+z
1/2+x,1/2-y,1/2+z
loop_
_atom_site_type_symbol
_atom_site_label
_atom_site_fract_x
_atom_site_fract_y
_atom_site_fract_z
Si Si1 0.901819 0.446345 0.838736
Si Si2 0.170745 0.843459 0.053921
Si Si3 0.963882 0.108678 0.162077
Si Si4 0.363960 0.746115 0.080635
O O1 0.886626 0.300241 0.918744
O O2 0.838408 0.426700 0.701251
O O3 0.995510 0.489114 0.764668
O O4 0.878945 0.578387 0.939177
O O5 0.271730 0.801706 0.019994
O O6 0.122208 0.923257 0.928553
O O7 0.943555 0.250000 0.250000
O O8 0.046270 0.162458 0.062499
O O9 0.351186 0.750000 0.250000
#
# Coordination Sequence:
#
# PCOD9412963 Si02
#       4
#     8   8   8   8
#     4   9  19  32  53  84 107 134 196 230 270 323
#     4  11  18  31  59  80 106 151 180 233 290 316
#     4   9  21  34  50  82 115 140 180 230 277 339
#     4   9  18  32  52  82 104 132 188 234 263 325
#
# _framework density 23.749980999999998
#
# number of rings (size 3 to 8) (size 9 to 14) (size 15 to 20)
#    0.000    3.000    2.500    1.500    3.500    4.000 
#    0.000    0.000    5.500    0.000   26.000    0.000 
#    0.000    0.000    0.000    0.000    0.000    0.000 
#
# Total GULP energy -178623.632930 kJ/mol
# GULP energy per Si atom -5581.988529 kJ/mol
# Density = 2.369592 g / cm^3
# Si number density = 23.749981 Si / 1000 Ang^3
#
#
#
# Elastic Constant Matrix: (Units=GPa)
#
#
# Indices 1 2 3 4 5 6 
#
# 1 139.8157 13.6877 40.3031 0.0000 0.0000 0.0000
# 2 13.6877 81.8230 1.2343 0.0000 0.0000 0.0000
# 3 40.3031 1.2343 32.2558 0.0000 0.0000 0.0000
# 4 0.0000 0.0000 0.0000 13.5946 0.0000 0.0000
# 5 0.0000 0.0000 0.0000 0.0000 24.0140 0.0000
# 6 0.0000 0.0000 0.0000 0.0000 0.0000 18.6031
#
#
#
# Elastic Compliance Matrix: (Units=1/GPa)
#
#
# Indices 1 2 3 4 5 6 
#
# 1 0.011409 -0.001694 -0.014190 0.000000 0.000000 0.000000
# 2 -0.001694 0.012480 0.001640 0.000000 0.000000 0.000000
# 3 -0.014190 0.001640 0.048670 0.000000 0.000000 0.000000
# 4 0.000000 0.000000 0.000000 0.073558 0.000000 0.000000
# 5 0.000000 0.000000 0.000000 0.000000 0.041642 0.000000
# 6 0.000000 0.000000 0.000000 0.000000 0.000000 0.053754
#
#
# Mechanical properties :
#
#
# Convention : Reuss Voigt Hill
#
# Bulk Modulus (GPa) = 22.69181 40.48273 31.58727
# Shear Modulus (GPa) = 17.56281 24.48698 21.02489
#
# Velocity S-wave (km/s) = 2.72230 3.21445 2.97856
# Velocity P-wave (km/s) = 4.41094 5.55512 5.01576
#
# Compressibility (1/GPa) = 0.04406876
#
# Stress axis : x y z
#
# Youngs Moduli (GPa) = 87.65379 80.12677 20.54675
#
# Poissons Ratio (x) = 0.13577 0.29156
# Poissons Ratio (y) = 0.14852 -0.03369
# Poissons Ratio (z) = 1.24380 -0.13138
#
# Static dielectric constant tensor:
#      x y z
#    x 1.924760 0.000000 0.000000 
#    y 0.000000 2.054570 0.000000 
#    z 0.000000 0.000000 1.906780 
# 
# From -- ./inp_files/19105.got.cif
#   From: 2010.05.17/outbox.cif.g08.bks.cpg/sg52_10_cif.got.tgz:19105.got - 2010.06.03 12:15:38.
