data_PCOD9412846
_publ_section_title
;
Structure prediction by ZEFSAII (Michael W. Deem and Ramdas Pophale) SiO2 
 PCOD9412846
Probable space group: P N N A
;
_chemical_formula_sum "Si O2"
_cell_formula_units_Z 40
_cell_length_a 24.406844
_cell_length_b 11.858126
_cell_length_c 5.616786
_cell_angle_alpha 90.000000
_cell_angle_beta 90.000000
_cell_angle_gamma 90.000000
_cell_volume 1625.607010
_symmetry_space_group_name_H-M "P N N A"
_symmetry_group_IT_number 52
_symmetry_cell_setting 'orthorhombic'
loop_
_space_group_symop_operation_xyz
x,y,z
1/2-x,-y,z
x,1/2-y,1/2-z
1/2-x,1/2+y,1/2-z
-x,-y,-z
1/2+x,y,-z
-x,1/2+y,1/2+z
1/2+x,1/2-y,1/2+z
loop_
_atom_site_type_symbol
_atom_site_label
_atom_site_fract_x
_atom_site_fract_y
_atom_site_fract_z
Si Si1 0.349890 0.750000 0.750000
Si Si2 0.464194 0.073571 0.188869
Si Si3 0.688421 0.459983 0.483337
Si Si4 0.813876 0.453599 0.986561
Si Si5 0.372345 0.250000 0.250000
Si Si6 0.053177 0.346045 0.052233
O O1 0.314195 0.669232 0.589242
O O2 0.391062 0.812823 0.575064
O O3 0.332211 0.174434 0.417826
O O4 0.414778 0.160111 0.125106
O O5 0.442036 0.970623 0.344845
O O6 0.500000 0.000000 0.000000
O O7 0.750000 0.500000 0.498538
O O8 0.667238 0.481401 0.747239
O O9 0.662887 0.521568 0.251111
O O10 0.750000 0.500000 0.007696
O O11 0.505933 0.141946 0.355893
O O12 0.040531 0.250000 0.250000
#
# Coordination Sequence:
#
# PCOD9412846 Si02
#       6
#     4   8   8   8   4   8
#     4  12  25  40  74 102 140 198 247 304 386 454
#     4  11  25  48  71 110 153 195 258 312 379 466
#     4  10  25  46  70 104 148 191 251 316 378 459
#     4  10  25  48  71 108 149 195 254 319 385 465
#     4  12  25  44  76 110 152 204 253 324 396 462
#     4  11  25  45  72 106 151 196 247 316 380 456
#
# _framework density 24.606193000000001
#
# number of rings (size 3 to 8) (size 9 to 14) (size 15 to 20)
#    0.000    1.200    0.000    4.200    8.400    7.200 
#   10.800    0.000    0.000    0.000    0.000    0.000 
#    0.000    0.000    0.000    0.000    0.000    0.000 
#
# Total GULP energy -223145.527886 kJ/mol
# GULP energy per Si atom -5578.638197 kJ/mol
# Density = 2.455019 g / cm^3
# Si number density = 24.606193 Si / 1000 Ang^3
#
#
#
# Elastic Constant Matrix: (Units=GPa)
#
#
# Indices 1 2 3 4 5 6 
#
# 1 141.7655 67.5292 36.8018 0.0000 0.0000 0.0000
# 2 67.5292 149.1355 36.7986 0.0000 0.0000 0.0000
# 3 36.8018 36.7986 155.3632 0.0000 0.0000 0.0000
# 4 0.0000 0.0000 0.0000 52.1796 0.0000 0.0000
# 5 0.0000 0.0000 0.0000 0.0000 30.6238 0.0000
# 6 0.0000 0.0000 0.0000 0.0000 0.0000 89.8996
#
#
#
# Elastic Compliance Matrix: (Units=1/GPa)
#
#
# Indices 1 2 3 4 5 6 
#
# 1 0.009224 -0.003863 -0.001270 0.000000 0.000000 0.000000
# 2 -0.003863 0.008740 -0.001155 0.000000 0.000000 0.000000
# 3 -0.001270 -0.001155 0.007011 0.000000 0.000000 0.000000
# 4 0.000000 0.000000 0.000000 0.019165 0.000000 0.000000
# 5 0.000000 0.000000 0.000000 0.000000 0.032654 0.000000
# 6 0.000000 0.000000 0.000000 0.000000 0.000000 0.011124
#
#
# Mechanical properties :
#
#
# Convention : Reuss Voigt Hill
#
# Bulk Modulus (GPa) = 80.65672 80.94702 80.80187
# Shear Modulus (GPa) = 47.78953 54.88290 51.33622
#
# Velocity S-wave (km/s) = 4.41179 4.72789 4.57257
# Velocity P-wave (km/s) = 7.66825 7.92290 7.79661
#
# Compressibility (1/GPa) = 0.01239822
#
# Stress axis : x y z
#
# Youngs Moduli (GPa) = 108.41536 114.42210 142.63549
#
# Poissons Ratio (x) = 0.44204 0.18113
# Poissons Ratio (y) = 0.41883 0.16473
# Poissons Ratio (z) = 0.13767 0.13215
#
# Static dielectric constant tensor:
#      x y z
#    x 1.974790 0.000000 0.000000 
#    y 0.000000 2.088590 0.000000 
#    z 0.000000 0.000000 1.783290 
# 
# From -- ./inp_files/5640.got.cif
#   From: 2010.05.17/outbox.cif.g08.bks.cpg/sg52_3_cif.got.tgz:5640.got - 2010.06.03 12:15:38.
