data_PCOD9412310
_publ_section_title
;
Structure prediction by ZEFSAII (Michael W. Deem and Ramdas Pophale) SiO2 
 PCOD9412310
Probable space group: P N N A
;
_chemical_formula_sum "Si O2"
_cell_formula_units_Z 40
_cell_length_a 23.241481
_cell_length_b 8.689541
_cell_length_c 8.893151
_cell_angle_alpha 90.000000
_cell_angle_beta 90.000000
_cell_angle_gamma 90.000000
_cell_volume 1796.041229
_symmetry_space_group_name_H-M "P N N A"
_symmetry_group_IT_number 52
_symmetry_cell_setting 'orthorhombic'
loop_
_space_group_symop_operation_xyz
x,y,z
1/2-x,-y,z
x,1/2-y,1/2-z
1/2-x,1/2+y,1/2-z
-x,-y,-z
1/2+x,y,-z
-x,1/2+y,1/2+z
1/2+x,1/2-y,1/2+z
loop_
_atom_site_type_symbol
_atom_site_label
_atom_site_fract_x
_atom_site_fract_y
_atom_site_fract_z
Si Si1 0.798216 0.885658 0.141911
Si Si2 0.905391 0.165335 0.586218
Si Si3 0.580806 0.535282 0.427837
Si Si4 0.726835 0.672513 0.913133
Si Si5 0.973872 0.568829 0.739329
O O1 0.818568 0.750000 0.250000
O O2 0.750000 0.000000 0.210709
O O3 0.853462 0.986247 0.096828
O O4 0.764087 0.791186 0.012677
O O5 0.906414 0.250000 0.750000
O O6 0.928351 0.283714 0.463033
O O7 0.839284 0.148292 0.539374
O O8 0.941406 0.013090 0.622131
O O9 0.560761 0.460433 0.584022
O O10 0.536997 0.497023 0.293434
O O11 0.750000 0.500000 0.906106
O O12 0.726035 0.750000 0.750000
O O13 0.975227 0.750000 0.750000
#
# Coordination Sequence:
#
# PCOD9412310 Si02
#       5
#     8   8   8   8   8
#     4  12  26  46  68 100 142 185 230 285 358 428
#     4   9  20  40  65  94 135 170 227 291 341 401
#     4  10  23  44  65  93 138 180 225 285 347 418
#     4  11  24  40  71 107 134 179 229 290 349 411
#     4  10  23  41  68  99 129 179 236 289 340 405
#
# _framework density 22.271203
#
# number of rings (size 3 to 8) (size 9 to 14) (size 15 to 20)
#    0.000    1.600    2.000    1.200    8.400    5.600 
#    3.600    0.000    0.000    0.000    0.000    0.000 
#    0.000    0.000    0.000    0.000    0.000    0.000 
#
# Total GULP energy -223405.693018 kJ/mol
# GULP energy per Si atom -5585.142325 kJ/mol
# Density = 2.222051 g / cm^3
# Si number density = 22.271203 Si / 1000 Ang^3
#
#
#
# Elastic Constant Matrix: (Units=GPa)
#
#
# Indices 1 2 3 4 5 6 
#
# 1 150.1729 56.6896 35.9663 0.0000 0.0000 0.0000
# 2 56.6896 134.4113 29.6146 0.0000 0.0000 0.0000
# 3 35.9663 29.6146 44.8725 0.0000 0.0000 0.0000
# 4 0.0000 0.0000 0.0000 26.0250 0.0000 0.0000
# 5 0.0000 0.0000 0.0000 0.0000 22.7107 0.0000
# 6 0.0000 0.0000 0.0000 0.0000 0.0000 15.5149
#
#
#
# Elastic Compliance Matrix: (Units=1/GPa)
#
#
# Indices 1 2 3 4 5 6 
#
# 1 0.008937 -0.002564 -0.005471 0.000000 0.000000 0.000000
# 2 -0.002564 0.009441 -0.004176 0.000000 0.000000 0.000000
# 3 -0.005471 -0.004176 0.029427 0.000000 0.000000 0.000000
# 4 0.000000 0.000000 0.000000 0.038425 0.000000 0.000000
# 5 0.000000 0.000000 0.000000 0.000000 0.044032 0.000000
# 6 0.000000 0.000000 0.000000 0.000000 0.000000 0.064454
#
#
# Mechanical properties :
#
#
# Convention : Reuss Voigt Hill
#
# Bulk Modulus (GPa) = 42.76619 63.77752 53.27185
# Shear Modulus (GPa) = 22.03297 26.66254 24.34775
#
# Velocity S-wave (km/s) = 3.14873 3.46378 3.31000
# Velocity P-wave (km/s) = 5.69767 6.68550 6.21126
#
# Compressibility (1/GPa) = 0.02338296
#
# Stress axis : x y z
#
# Youngs Moduli (GPa) = 111.89164 105.91768 33.98270
#
# Poissons Ratio (x) = 0.27156 0.18593
# Poissons Ratio (y) = 0.28688 0.14191
# Poissons Ratio (z) = 0.61219 0.44231
#
# Static dielectric constant tensor:
#      x y z
#    x 1.834150 0.000000 0.000000 
#    y 0.000000 1.788070 0.000000 
#    z 0.000000 0.000000 1.943540 
# 
# From -- ./inp_files/14002.got.cif
#   From: 2010.05.17/outbox.cif.g08.bks.cpg/sg52_8_cif.got.tgz:14002.got - 2010.06.03 12:15:38.
