data_PCOD9412073
_publ_section_title
;
Structure prediction by ZEFSAII (Michael W. Deem and Ramdas Pophale) SiO2 
 PCOD9412073
Probable space group: P N N A
;
_chemical_formula_sum "Si O2"
_cell_formula_units_Z 32
_cell_length_a 16.453553
_cell_length_b 10.431771
_cell_length_c 7.760584
_cell_angle_alpha 90.000000
_cell_angle_beta 90.000000
_cell_angle_gamma 90.000000
_cell_volume 1332.024287
_symmetry_space_group_name_H-M "P N N A"
_symmetry_group_IT_number 52
_symmetry_cell_setting 'orthorhombic'
loop_
_space_group_symop_operation_xyz
x,y,z
1/2-x,-y,z
x,1/2-y,1/2-z
1/2-x,1/2+y,1/2-z
-x,-y,-z
1/2+x,y,-z
-x,1/2+y,1/2+z
1/2+x,1/2-y,1/2+z
loop_
_atom_site_type_symbol
_atom_site_label
_atom_site_fract_x
_atom_site_fract_y
_atom_site_fract_z
Si Si1 0.999064 0.426967 0.225109
Si Si2 0.382680 0.058903 0.039824
Si Si3 0.085894 0.158991 0.591116
Si Si4 0.218674 0.297548 0.444409
O O1 0.949635 0.400444 0.400421
O O2 0.932145 0.512045 0.128275
O O3 0.070367 0.525323 0.284119
O O4 0.038552 0.326381 0.092045
O O5 0.311817 0.162922 0.041642
O O6 0.336729 0.922145 0.008420
O O7 0.058527 0.250000 0.750000
O O8 0.180517 0.187666 0.562004
O O9 0.205474 0.250000 0.250000
#
# Coordination Sequence:
#
# PCOD9412073 Si02
#       4
#     8   8   8   8
#     4  10  22  43  72  98 138 187 244 299 351 446
#     4  10  22  43  71  98 136 183 239 295 366 428
#     4  11  22  41  70  99 142 185 237 297 364 430
#     4  11  22  43  68  98 143 182 222 302 366 439
#
# _framework density 24.023586999999999
#
# number of rings (size 3 to 8) (size 9 to 14) (size 15 to 20)
#    0.000    1.500    5.000    0.000    0.000    1.000 
#    0.000   10.000    0.000    0.000    0.000    0.000 
#    0.000    0.000    0.000    0.000    0.000    0.000 
#
# Total GULP energy -178526.750313 kJ/mol
# GULP energy per Si atom -5578.960947 kJ/mol
# Density = 2.396891 g / cm^3
# Si number density = 24.023587 Si / 1000 Ang^3
#
#
#
# Elastic Constant Matrix: (Units=GPa)
#
#
# Indices 1 2 3 4 5 6 
#
# 1 143.9254 65.9453 50.9740 0.0000 0.0000 0.0000
# 2 65.9453 49.4863 32.9637 0.0000 0.0000 0.0000
# 3 50.9740 32.9637 158.3075 0.0000 0.0000 0.0000
# 4 0.0000 0.0000 0.0000 35.7070 0.0000 0.0000
# 5 0.0000 0.0000 0.0000 0.0000 12.5301 0.0000
# 6 0.0000 0.0000 0.0000 0.0000 0.0000 48.5663
#
#
#
# Elastic Compliance Matrix: (Units=1/GPa)
#
#
# Indices 1 2 3 4 5 6 
#
# 1 0.017959 -0.023314 -0.000928 0.000000 0.000000 0.000000
# 2 -0.023314 0.053727 -0.003680 0.000000 0.000000 0.000000
# 3 -0.000928 -0.003680 0.007382 0.000000 0.000000 0.000000
# 4 0.000000 0.000000 0.000000 0.028006 0.000000 0.000000
# 5 0.000000 0.000000 0.000000 0.000000 0.079808 0.000000
# 6 0.000000 0.000000 0.000000 0.000000 0.000000 0.020590
#
#
# Mechanical properties :
#
#
# Convention : Reuss Voigt Hill
#
# Bulk Modulus (GPa) = 43.06021 72.38725 57.72373
# Shear Modulus (GPa) = 18.44628 32.81643 25.63135
#
# Velocity S-wave (km/s) = 2.77400 3.69997 3.26992
# Velocity P-wave (km/s) = 5.31255 6.96061 6.19166
#
# Compressibility (1/GPa) = 0.02322329
#
# Stress axis : x y z
#
# Youngs Moduli (GPa) = 55.68270 18.61262 135.46386
#
# Poissons Ratio (x) = 0.43393 0.12573
# Poissons Ratio (y) = 1.29817 0.49857
# Poissons Ratio (z) = 0.05168 0.06850
#
# Static dielectric constant tensor:
#      x y z
#    x 1.873810 0.000000 0.000000 
#    y 0.000000 2.010510 0.000000 
#    z 0.000000 0.000000 2.083100 
# 
# From -- ./inp_files/9693.got.cif
#   From: 2010.05.17/outbox.cif.g08.bks.cpg/sg52_5_cif.got.tgz:9693.got - 2010.06.03 12:15:38.
