data_PCOD9412147
_publ_section_title
;
Structure prediction by ZEFSAII (Michael W. Deem and Ramdas Pophale) SiO2 
 PCOD9412147
Probable space group: P N N A
;
_chemical_formula_sum "Si O2"
_cell_formula_units_Z 64
_cell_length_a 9.061076
_cell_length_b 11.848092
_cell_length_c 28.013381
_cell_angle_alpha 90.000000
_cell_angle_beta 90.000000
_cell_angle_gamma 90.000000
_cell_volume 3007.417475
_symmetry_space_group_name_H-M "P N N A"
_symmetry_group_IT_number 52
_symmetry_cell_setting 'orthorhombic'
loop_
_space_group_symop_operation_xyz
x,y,z
1/2-x,-y,z
x,1/2-y,1/2-z
1/2-x,1/2+y,1/2-z
-x,-y,-z
1/2+x,y,-z
-x,1/2+y,1/2+z
1/2+x,1/2-y,1/2+z
loop_
_atom_site_type_symbol
_atom_site_label
_atom_site_fract_x
_atom_site_fract_y
_atom_site_fract_z
Si Si1 0.965252 0.718896 0.194760
Si Si2 0.911926 0.451317 0.953916
Si Si3 0.878950 0.253622 0.192566
Si Si4 0.901904 0.450423 0.368871
Si Si5 0.333036 0.107078 0.144239
Si Si6 0.444370 0.115098 0.974181
Si Si7 0.239629 0.281405 0.450629
Si Si8 0.926324 0.488010 0.144563
O O1 0.965259 0.750000 0.250000
O O2 0.796576 0.749496 0.178951
O O3 0.977653 0.588178 0.179946
O O4 0.101701 0.789343 0.173702
O O5 0.750000 0.500000 0.958877
O O6 0.859359 0.320848 0.946888
O O7 0.992570 0.494588 0.905942
O O8 0.000000 0.500000 0.000000
O O9 0.890924 0.250000 0.250000
O O10 0.951649 0.145481 0.167993
O O11 0.946144 0.367023 0.169706
O O12 0.750000 0.500000 0.349489
O O13 0.018835 0.549057 0.375240
O O14 0.881464 0.402011 0.421347
O O15 0.240812 0.153459 0.099678
O O16 0.250000 0.000000 0.167992
O O17 0.567850 0.215106 0.967145
O O18 0.312001 0.148970 0.007479
O O19 0.500000 0.000000 0.000000
O O20 0.750000 0.500000 0.136799
#
# Coordination Sequence:
#
# PCOD9412147 Si02
#       8
#     8   8   8   8   8   8   8   8
#     4  10  22  44  73  98 134 180 222 283 345 404
#     4  12  27  46  67  95 132 181 229 278 332 405
#     4  10  24  41  69 105 135 174 228 287 333 404
#     4  12  24  39  67 100 138 175 224 273 341 403
#     4  12  23  43  67  98 137 174 219 278 342 407
#     4  12  24  42  64  98 134 174 218 277 338 406
#     4  12  25  43  66  93 135 175 220 276 335 402
#     4  10  23  44  70 100 135 177 232 276 335 404
#
# _framework density 21.280716999999999
#
# number of rings (size 3 to 8) (size 9 to 14) (size 15 to 20)
#    0.000    0.750    5.000    2.250    5.250    0.500 
#    0.000    1.250    0.000    0.000    0.000    0.000 
#    0.000    0.000    0.000    0.000    0.000    0.000 
#
# Total GULP energy -356831.020735 kJ/mol
# GULP energy per Si atom -5575.484699 kJ/mol
# Density = 2.123228 g / cm^3
# Si number density = 21.280717 Si / 1000 Ang^3
#
#
#
# Elastic Constant Matrix: (Units=GPa)
#
#
# Indices 1 2 3 4 5 6 
#
# 1 67.4181 29.0121 19.5021 0.0000 0.0000 0.0000
# 2 29.0121 107.3983 48.9372 0.0000 0.0000 0.0000
# 3 19.5021 48.9372 102.9006 0.0000 0.0000 0.0000
# 4 0.0000 0.0000 0.0000 27.1184 0.0000 0.0000
# 5 0.0000 0.0000 0.0000 0.0000 17.7059 0.0000
# 6 0.0000 0.0000 0.0000 0.0000 0.0000 40.0746
#
#
#
# Elastic Compliance Matrix: (Units=1/GPa)
#
#
# Indices 1 2 3 4 5 6 
#
# 1 0.016923 -0.003970 -0.001319 0.000000 0.000000 0.000000
# 2 -0.003970 0.012819 -0.005344 0.000000 0.000000 0.000000
# 3 -0.001319 -0.005344 0.012509 0.000000 0.000000 0.000000
# 4 0.000000 0.000000 0.000000 0.036875 0.000000 0.000000
# 5 0.000000 0.000000 0.000000 0.000000 0.056478 0.000000
# 6 0.000000 0.000000 0.000000 0.000000 0.000000 0.024953
#
#
# Mechanical properties :
#
#
# Convention : Reuss Voigt Hill
#
# Bulk Modulus (GPa) = 47.65406 52.51332 50.08369
# Shear Modulus (GPa) = 26.48031 28.99749 27.73890
#
# Velocity S-wave (km/s) = 3.53134 3.69537 3.61428
# Velocity P-wave (km/s) = 6.25051 6.55269 6.40338
#
# Compressibility (1/GPa) = 0.02098457
#
# Stress axis : x y z
#
# Youngs Moduli (GPa) = 59.09121 78.01135 79.93939
#
# Poissons Ratio (x) = 0.30974 0.10544
# Poissons Ratio (y) = 0.23462 0.42718
# Poissons Ratio (z) = 0.07794 0.41687
#
# Static dielectric constant tensor:
#      x y z
#    x 1.775150 0.000000 0.000000 
#    y 0.000000 1.821340 0.000000 
#    z 0.000000 0.000000 1.706600 
# 
# From -- ./inp_files/44592.got.cif
#   From: 2010.05.17/outbox.cif.g08.bks.cpg/sg52_23_cif.got.tgz:44592.got - 2010.06.03 12:15:38.
