data_PCOD9412126
_publ_section_title
;
Structure prediction by ZEFSAII (Michael W. Deem and Ramdas Pophale) SiO2 
 PCOD9412126
Probable space group: P N N A
;
_chemical_formula_sum "Si O2"
_cell_formula_units_Z 56
_cell_length_a 30.512305
_cell_length_b 5.933631
_cell_length_c 14.812137
_cell_angle_alpha 90.000000
_cell_angle_beta 90.000000
_cell_angle_gamma 90.000000
_cell_volume 2681.719019
_symmetry_space_group_name_H-M "P N N A"
_symmetry_group_IT_number 52
_symmetry_cell_setting 'orthorhombic'
loop_
_space_group_symop_operation_xyz
x,y,z
1/2-x,-y,z
x,1/2-y,1/2-z
1/2-x,1/2+y,1/2-z
-x,-y,-z
1/2+x,y,-z
-x,1/2+y,1/2+z
1/2+x,1/2-y,1/2+z
loop_
_atom_site_type_symbol
_atom_site_label
_atom_site_fract_x
_atom_site_fract_y
_atom_site_fract_z
Si Si1 0.915472 0.555219 0.903820
Si Si2 0.741681 0.243497 0.066500
Si Si3 0.061102 0.750000 0.250000
Si Si4 0.117013 0.036650 0.694852
Si Si5 0.007490 0.120202 0.154838
Si Si6 0.641436 0.305102 0.473719
Si Si7 0.801176 0.250000 0.250000
Si Si8 0.420423 0.294355 0.564264
O O1 0.911418 0.423912 0.809626
O O2 0.955567 0.728461 0.893487
O O3 0.871870 0.692843 0.931755
O O4 0.927158 0.375336 0.981510
O O5 0.750000 0.500000 0.031135
O O6 0.689652 0.222452 0.065101
O O7 0.769899 0.234316 0.161058
O O8 0.750000 0.000000 0.018623
O O9 0.029806 0.611976 0.316768
O O10 0.098713 0.250000 0.750000
O O11 0.116921 0.151623 0.597497
O O12 0.164727 0.958602 0.734107
O O13 0.093295 0.811041 0.661070
O O14 0.997396 0.250000 0.250000
O O15 0.965843 0.087727 0.090683
O O16 0.620336 0.549935 0.465228
#
# Coordination Sequence:
#
# PCOD9412126 Si02
#       8
#     8   8   4   8   8   8   4   8
#     4  10  23  44  66  94 130 168 227 287 355 423
#     4  12  25  41  63  91 133 185 238 284 334 404
#     4  10  22  44  69  90 128 162 220 279 356 424
#     4  11  23  38  56  85 128 186 240 278 321 387
#     4  10  23  41  63  97 129 177 224 278 348 422
#     4  11  25  40  61  92 131 174 235 283 343 398
#     4  12  24  40  57  86 134 194 242 277 326 388
#     4  11  24  41  63  93 138 179 227 289 343 403
#
# _framework density 20.882127000000001
#
# number of rings (size 3 to 8) (size 9 to 14) (size 15 to 20)
#    0.000    1.143    1.429    4.286    6.000    6.857 
#    1.286    0.000    0.000    0.000    0.000    0.000 
#   10.714    0.000    0.000    0.000    0.000    0.000 
#
# Total GULP energy -311838.007490 kJ/mol
# GULP energy per Si atom -5568.535848 kJ/mol
# Density = 2.083460 g / cm^3
# Si number density = 20.882127 Si / 1000 Ang^3
#
#
#
# Elastic Constant Matrix: (Units=GPa)
#
#
# Indices 1 2 3 4 5 6 
#
# 1 56.0235 29.1444 32.0963 0.0000 0.0000 0.0000
# 2 29.1444 121.1732 28.8401 0.0000 0.0000 0.0000
# 3 32.0963 28.8401 55.4430 0.0000 0.0000 0.0000
# 4 0.0000 0.0000 0.0000 63.9702 0.0000 0.0000
# 5 0.0000 0.0000 0.0000 0.0000 57.3965 0.0000
# 6 0.0000 0.0000 0.0000 0.0000 0.0000 4.4527
#
#
#
# Elastic Compliance Matrix: (Units=1/GPa)
#
#
# Indices 1 2 3 4 5 6 
#
# 1 0.027791 -0.003259 -0.014393 0.000000 0.000000 0.000000
# 2 -0.003259 0.009801 -0.003212 0.000000 0.000000 0.000000
# 3 -0.014393 -0.003212 0.028040 0.000000 0.000000 0.000000
# 4 0.000000 0.000000 0.000000 0.015632 0.000000 0.000000
# 5 0.000000 0.000000 0.000000 0.000000 0.017423 0.000000
# 6 0.000000 0.000000 0.000000 0.000000 0.000000 0.224583
#
#
# Mechanical properties :
#
#
# Convention : Reuss Voigt Hill
#
# Bulk Modulus (GPa) = 41.83384 45.86681 43.85033
# Shear Modulus (GPa) = 13.40610 34.66781 24.03695
#
# Velocity S-wave (km/s) = 2.53650 4.07893 3.39643
# Velocity P-wave (km/s) = 5.35306 6.64800 6.03536
#
# Compressibility (1/GPa) = 0.02390409
#
# Stress axis : x y z
#
# Youngs Moduli (GPa) = 35.98307 102.03241 35.66381
#
# Poissons Ratio (x) = 0.33247 0.51332
# Poissons Ratio (y) = 0.11725 0.11454
# Poissons Ratio (z) = 0.51792 0.32770
#
# Static dielectric constant tensor:
#      x y z
#    x 1.602820 0.000000 0.000000 
#    y 0.000000 2.108310 0.000000 
#    z 0.000000 0.000000 0.585450 
# 
# From -- ./inp_files/29702.got.cif
#   From: 2010.05.17/outbox.cif.g08.bks.cpg/sg52_15_cif.got.tgz:29702.got - 2010.06.03 12:15:38.
