data_PCOD9412582
_publ_section_title
;
Structure prediction by ZEFSAII (Michael W. Deem and Ramdas Pophale) SiO2 
 PCOD9412582
Probable space group: P N N A
;
_chemical_formula_sum "Si O2"
_cell_formula_units_Z 52
_cell_length_a 23.268812
_cell_length_b 13.156814
_cell_length_c 8.393023
_cell_angle_alpha 90.000000
_cell_angle_beta 90.000000
_cell_angle_gamma 90.000000
_cell_volume 2569.468862
_symmetry_space_group_name_H-M "P N N A"
_symmetry_group_IT_number 52
_symmetry_cell_setting 'orthorhombic'
loop_
_space_group_symop_operation_xyz
x,y,z
1/2-x,-y,z
x,1/2-y,1/2-z
1/2-x,1/2+y,1/2-z
-x,-y,-z
1/2+x,y,-z
-x,1/2+y,1/2+z
1/2+x,1/2-y,1/2+z
loop_
_atom_site_type_symbol
_atom_site_label
_atom_site_fract_x
_atom_site_fract_y
_atom_site_fract_z
Si Si1 0.355773 0.154200 0.577497
Si Si2 0.056357 0.059133 0.936960
Si Si3 0.485397 0.382246 0.963229
Si Si4 0.486328 0.750000 0.750000
Si Si5 0.313550 0.040705 0.270706
Si Si6 0.844622 0.394618 0.411571
Si Si7 0.100007 0.143002 0.261113
O O1 0.421479 0.118032 0.606368
O O2 0.331219 0.121113 0.406251
O O3 0.359228 0.275932 0.575066
O O4 0.319591 0.108370 0.728707
O O5 0.046120 0.147214 0.806974
O O6 0.103227 0.974073 0.901326
O O7 0.078898 0.120686 0.085793
O O8 0.000000 0.000000 0.000000
O O9 0.541813 0.348924 0.864853
O O10 0.500000 0.500000 0.000000
O O11 0.479231 0.299251 0.104508
O O12 0.250000 0.000000 0.299171
O O13 0.359152 0.950042 0.303259
O O14 0.316580 0.076053 0.083949
O O15 0.132101 0.250000 0.250000
#
# Coordination Sequence:
#
# PCOD9412582 Si02
#       7
#     8   8   8   4   8   8   8
#     4  11  23  41  69 100 137 176 228 284 355 426
#     4  11  22  38  58  92 136 179 221 271 341 428
#     4  12  23  38  62 100 139 178 224 278 352 439
#     4  12  24  34  64  94 142 190 218 274 354 432
#     4  11  26  46  70  94 131 185 241 294 343 407
#     4  10  24  41  66  99 132 173 227 289 343 414
#     4  11  23  41  60  92 137 174 217 282 348 412
#
# _framework density 20.237645000000001
#
# number of rings (size 3 to 8) (size 9 to 14) (size 15 to 20)
#    0.000    0.923    3.077    4.154    6.462    1.846 
#    0.000    0.000    0.000    0.000    0.000    0.000 
#    0.000    0.000    0.000    0.000    0.000    0.000 
#
# Total GULP energy -289474.067226 kJ/mol
# GULP energy per Si atom -5566.808985 kJ/mol
# Density = 2.019158 g / cm^3
# Si number density = 20.237645 Si / 1000 Ang^3
#
#
#
# Elastic Constant Matrix: (Units=GPa)
#
#
# Indices 1 2 3 4 5 6 
#
# 1 55.4227 11.2082 24.7071 0.0000 0.0000 0.0000
# 2 11.2082 122.0932 41.0765 0.0000 0.0000 0.0000
# 3 24.7071 41.0765 116.5694 0.0000 0.0000 0.0000
# 4 0.0000 0.0000 0.0000 52.2142 0.0000 0.0000
# 5 0.0000 0.0000 0.0000 0.0000 9.5462 0.0000
# 6 0.0000 0.0000 0.0000 0.0000 0.0000 -1.0042
#
#
#
# Elastic Compliance Matrix: (Units=1/GPa)
#
#
# Indices 1 2 3 4 5 6 
#
# 1 0.019949 -0.000464 -0.004065 0.000000 0.000000 0.000000
# 2 -0.000464 0.009303 -0.003180 0.000000 0.000000 0.000000
# 3 -0.004065 -0.003180 0.010561 0.000000 0.000000 0.000000
# 4 0.000000 0.000000 0.000000 0.019152 0.000000 0.000000
# 5 0.000000 0.000000 0.000000 0.000000 0.104754 0.000000
# 6 0.000000 0.000000 0.000000 0.000000 0.000000 -0.995771
#
#
# Mechanical properties :
#
#
# Convention : Reuss Voigt Hill
#
# Bulk Modulus (GPa) = 40.99088 49.78542 45.38815
# Shear Modulus (GPa) = -6.18426 26.62414 10.21994
#
# Velocity S-wave (km/s) = -1.74999 3.63102 2.24965
# Velocity P-wave (km/s) = 4.02684 6.49868 5.40594
#
# Compressibility (1/GPa) = 0.02439567
#
# Stress axis : x y z
#
# Youngs Moduli (GPa) = 50.12785 107.49403 94.69143
#
# Poissons Ratio (x) = 0.04985 0.38490
# Poissons Ratio (y) = 0.02325 0.30110
# Poissons Ratio (z) = 0.20376 0.34181
#
# Static dielectric constant tensor:
#      x y z
#    x 1.630130 0.000000 0.000000 
#    y 0.000000 1.526450 0.000000 
#    z 0.000000 0.000000 2.019470 
# 
# From -- ./inp_files/14997.got.cif
#   From: 2010.05.17/outbox.cif.g08.bks.cpg/sg52_8_cif.got.tgz:14997.got - 2010.06.03 12:15:38.
