data_PCOD9412165
_publ_section_title
;
Structure prediction by ZEFSAII (Michael W. Deem and Ramdas Pophale) SiO2 
 PCOD9412165
Probable space group: P N N A
;
_chemical_formula_sum "Si O2"
_cell_formula_units_Z 24
_cell_length_a 15.426190
_cell_length_b 7.392325
_cell_length_c 8.709074
_cell_angle_alpha 90.000000
_cell_angle_beta 90.000000
_cell_angle_gamma 90.000000
_cell_volume 993.142824
_symmetry_space_group_name_H-M "P N N A"
_symmetry_group_IT_number 52
_symmetry_cell_setting 'orthorhombic'
loop_
_space_group_symop_operation_xyz
x,y,z
1/2-x,-y,z
x,1/2-y,1/2-z
1/2-x,1/2+y,1/2-z
-x,-y,-z
1/2+x,y,-z
-x,1/2+y,1/2+z
1/2+x,1/2-y,1/2+z
loop_
_atom_site_type_symbol
_atom_site_label
_atom_site_fract_x
_atom_site_fract_y
_atom_site_fract_z
Si Si1 0.135967 0.073714 0.095914
Si Si2 0.718093 0.750000 0.750000
Si Si3 0.652033 0.037217 0.249718
Si Si4 0.521797 0.750000 0.250000
O O1 0.212092 0.224354 0.112002
O O2 0.043728 0.160182 0.128244
O O3 0.158772 0.924915 0.225971
O O4 0.144552 0.985798 0.930562
O O5 0.632226 0.250000 0.250000
O O6 0.750000 0.000000 0.301388
O O7 0.581966 0.905177 0.324137
#
# Coordination Sequence:
#
# PCOD9412165 Si02
#       4
#     8   4   8   4
#     4  10  22  45  69 104 136 177 243 280 341 415
#     4   9  18  40  73  94 136 180 227 296 330 401
#     4  12  25  47  67  99 147 181 226 287 351 417
#     4  11  26  46  69 106 130 192 229 284 348 399
#
# _framework density 24.165709
#
# number of rings (size 3 to 8) (size 9 to 14) (size 15 to 20)
#    0.000    1.333    5.000    1.000    2.333    1.333 
#   30.000    0.000    0.000    0.000    0.000    0.000 
#    0.000    0.000    0.000    0.000    0.000    0.000 
#
# Total GULP energy -134031.380541 kJ/mol
# GULP energy per Si atom -5584.640856 kJ/mol
# Density = 2.411071 g / cm^3
# Si number density = 24.165709 Si / 1000 Ang^3
#
#
#
# Elastic Constant Matrix: (Units=GPa)
#
#
# Indices 1 2 3 4 5 6 
#
# 1 197.8184 87.5813 7.2051 0.0000 0.0000 0.0000
# 2 87.5813 184.1745 9.4404 0.0000 0.0000 0.0000
# 3 7.2051 9.4404 30.5348 0.0000 0.0000 0.0000
# 4 0.0000 0.0000 0.0000 30.2188 0.0000 0.0000
# 5 0.0000 0.0000 0.0000 0.0000 -2.1028 0.0000
# 6 0.0000 0.0000 0.0000 0.0000 0.0000 57.0742
#
#
#
# Elastic Compliance Matrix: (Units=1/GPa)
#
#
# Indices 1 2 3 4 5 6 
#
# 1 0.006413 -0.003020 -0.000580 0.000000 0.000000 0.000000
# 2 -0.003020 0.006939 -0.001433 0.000000 0.000000 0.000000
# 3 -0.000580 -0.001433 0.033329 0.000000 0.000000 0.000000
# 4 0.000000 0.000000 0.000000 0.033092 0.000000 0.000000
# 5 0.000000 0.000000 0.000000 0.000000 -0.475562 0.000000
# 6 0.000000 0.000000 0.000000 0.000000 0.000000 0.017521
#
#
# Mechanical properties :
#
#
# Convention : Reuss Voigt Hill
#
# Bulk Modulus (GPa) = 27.30977 68.99792 48.15384
# Shear Modulus (GPa) = -14.04508 37.59144 11.77318
#
# Velocity S-wave (km/s) = -2.41342 3.94835 2.20962
# Velocity P-wave (km/s) = 1.88665 7.02851 5.14584
#
# Compressibility (1/GPa) = 0.03661694
#
# Stress axis : x y z
#
# Youngs Moduli (GPa) = 155.92498 144.10849 30.00369
#
# Poissons Ratio (x) = 0.43522 0.01739
# Poissons Ratio (y) = 0.47090 0.04299
# Poissons Ratio (z) = 0.09038 0.20647
#
# Static dielectric constant tensor:
#      x y z
#    x 1.936380 0.000000 0.000000 
#    y 0.000000 1.973570 0.000000 
#    z 0.000000 0.000000 1.961190 
# 
# From -- ./inp_files/11295.got.cif
#   From: 2010.05.17/outbox.cif.g08.bks.cpg/sg52_6_cif.got.tgz:11295.got - 2010.06.03 12:15:38.
