data_PCOD9412043
_publ_section_title
;
Structure prediction by ZEFSAII (Michael W. Deem and Ramdas Pophale) SiO2 
 PCOD9412043
Probable space group: P N N A
;
_chemical_formula_sum "Si O2"
_cell_formula_units_Z 28
_cell_length_a 11.939800
_cell_length_b 7.296544
_cell_length_c 16.117042
_cell_angle_alpha 90.000000
_cell_angle_beta 90.000000
_cell_angle_gamma 90.000000
_cell_volume 1404.105031
_symmetry_space_group_name_H-M "P N N A"
_symmetry_group_IT_number 52
_symmetry_cell_setting 'orthorhombic'
loop_
_space_group_symop_operation_xyz
x,y,z
1/2-x,-y,z
x,1/2-y,1/2-z
1/2-x,1/2+y,1/2-z
-x,-y,-z
1/2+x,y,-z
-x,1/2+y,1/2+z
1/2+x,1/2-y,1/2+z
loop_
_atom_site_type_symbol
_atom_site_label
_atom_site_fract_x
_atom_site_fract_y
_atom_site_fract_z
Si Si1 0.087106 0.750000 0.250000
Si Si2 0.750000 0.000000 0.110431
Si Si3 0.971820 0.101244 0.179232
Si Si4 0.659406 0.151616 0.949062
Si Si5 0.750000 0.000000 0.637220
O O1 0.167019 0.623148 0.192952
O O2 0.008222 0.601181 0.293322
O O3 0.660229 0.888903 0.163038
O O4 0.824359 0.877529 0.046874
O O5 0.005727 0.250000 0.250000
O O6 0.039619 0.126009 0.093340
O O7 0.691343 0.353075 0.921066
O O8 0.750000 0.000000 0.913924
#
# Coordination Sequence:
#
# PCOD9412043 Si02
#       5
#     4   4   8   8   4
#     4  12  22  36  66 102 136 162 236 278 346 380
#     4  10  26  47  65  94 148 180 222 278 344 407
#     4  12  24  44  68 100 138 181 223 284 335 405
#     4  10  22  43  68  93 136 173 229 275 335 393
#     4  12  20  39  67 106 124 176 224 292 324 393
#
# _framework density 19.941528999999999
#
# number of rings (size 3 to 8) (size 9 to 14) (size 15 to 20)
#    0.857    0.000    5.714    2.571    2.000    0.000 
#    5.143    2.857    0.000    0.000    0.000    0.000 
#    0.000    0.000    0.000    0.000    0.000    0.000 
#
# Total GULP energy -156066.239523 kJ/mol
# GULP energy per Si atom -5573.794269 kJ/mol
# Density = 1.989614 g / cm^3
# Si number density = 19.941529 Si / 1000 Ang^3
#
#
#
# Elastic Constant Matrix: (Units=GPa)
#
#
# Indices 1 2 3 4 5 6 
#
# 1 87.4276 23.3401 17.5496 0.0000 0.0000 0.0000
# 2 23.3401 132.5641 32.6165 0.0000 0.0000 0.0000
# 3 17.5496 32.6165 61.6863 0.0000 0.0000 0.0000
# 4 0.0000 0.0000 0.0000 31.0035 0.0000 0.0000
# 5 0.0000 0.0000 0.0000 0.0000 -5.4004 0.0000
# 6 0.0000 0.0000 0.0000 0.0000 0.0000 26.3149
#
#
#
# Elastic Compliance Matrix: (Units=1/GPa)
#
#
# Indices 1 2 3 4 5 6 
#
# 1 0.012388 -0.001511 -0.002726 0.000000 0.000000 0.000000
# 2 -0.001511 0.008856 -0.004253 0.000000 0.000000 0.000000
# 3 -0.002726 -0.004253 0.019235 0.000000 0.000000 0.000000
# 4 0.000000 0.000000 0.000000 0.032254 0.000000 0.000000
# 5 0.000000 0.000000 0.000000 0.000000 -0.185173 0.000000
# 6 0.000000 0.000000 0.000000 0.000000 0.000000 0.038001
#
#
# Mechanical properties :
#
#
# Convention : Reuss Voigt Hill
#
# Bulk Modulus (GPa) = 42.55083 47.63225 45.09154
# Shear Modulus (GPa) = -100.75401 24.26174 -38.24613
#
# Velocity S-wave (km/s) = -7.11579 3.49183 -4.38415
# Velocity P-wave (km/s) = 6.79179 6.33995 1.72242
#
# Compressibility (1/GPa) = 0.02350130
#
# Stress axis : x y z
#
# Youngs Moduli (GPa) = 80.72035 112.91983 51.98807
#
# Poissons Ratio (x) = 0.17057 0.14171
# Poissons Ratio (y) = 0.12193 0.22109
# Poissons Ratio (z) = 0.22003 0.48022
#
# Static dielectric constant tensor:
#      x y z
#    x 1.756680 0.000000 0.000000 
#    y 0.000000 1.700220 0.000000 
#    z 0.000000 0.000000 1.726300 
# 
# From -- ./inp_files/36405.got.cif
#   From: 2010.05.17/outbox.cif.g08.bks.cpg/sg52_19_cif.got.tgz:36405.got - 2010.06.03 12:15:38.
