data_PCOD9412690
_publ_section_title
;
Structure prediction by ZEFSAII (Michael W. Deem and Ramdas Pophale) SiO2 
 PCOD9412690
Probable space group: P N N A
;
_chemical_formula_sum "Si O2"
_cell_formula_units_Z 60
_cell_length_a 9.132172
_cell_length_b 11.881898
_cell_length_c 24.844210
_cell_angle_alpha 90.000000
_cell_angle_beta 90.000000
_cell_angle_gamma 90.000000
_cell_volume 2695.784016
_symmetry_space_group_name_H-M "P N N A"
_symmetry_group_IT_number 52
_symmetry_cell_setting 'orthorhombic'
loop_
_space_group_symop_operation_xyz
x,y,z
1/2-x,-y,z
x,1/2-y,1/2-z
1/2-x,1/2+y,1/2-z
-x,-y,-z
1/2+x,y,-z
-x,1/2+y,1/2+z
1/2+x,1/2-y,1/2+z
loop_
_atom_site_type_symbol
_atom_site_label
_atom_site_fract_x
_atom_site_fract_y
_atom_site_fract_z
Si Si1 0.401260 0.664247 0.877012
Si Si2 0.015870 0.121757 0.026513
Si Si3 0.588035 0.168558 0.855502
Si Si4 0.461474 0.882036 0.739086
Si Si5 0.239787 0.285759 0.977026
Si Si6 0.244239 0.882067 0.837623
Si Si7 0.250000 0.500000 0.278112
Si Si8 0.736160 0.868931 0.598177
O O1 0.392606 0.602062 0.819923
O O2 0.309931 0.630225 0.929664
O O3 0.335080 0.786625 0.866528
O O4 0.572934 0.670286 0.888196
O O5 0.085756 0.109566 0.085764
O O6 0.879602 0.207307 0.035000
O O7 0.114671 0.194014 0.986681
O O8 0.000000 0.000000 0.000000
O O9 0.422795 0.159585 0.832334
O O10 0.648118 0.293016 0.868895
O O11 0.694224 0.101966 0.815703
O O12 0.500272 0.750000 0.750000
O O13 0.337672 0.904731 0.783609
O O14 0.607975 0.955254 0.746223
O O15 0.248947 0.348396 0.034227
O O16 0.250000 0.000000 0.868893
O O17 0.750000 0.000000 0.610585
#
# Coordination Sequence:
#
# PCOD9412690 Si02
#       8
#     8   8   8   8   8   8   4   8
#     4  11  24  47  71 100 149 191 255 306 375 447
#     4  11  24  37  65 114 149 187 242 301 384 466
#     4  11  25  42  76 110 147 201 246 299 404 446
#     4  10  24  44  70 105 147 199 243 310 373 447
#     4  11  23  43  68 100 144 196 244 307 374 448
#     4  11  22  43  73 110 153 190 235 316 383 447
#     4  12  24  46  78 110 152 194 248 316 382 456
#     4  11  27  50  74 102 146 200 259 312 371 461
#
# _framework density 22.256976000000002
#
# number of rings (size 3 to 8) (size 9 to 14) (size 15 to 20)
#    0.000    1.067    4.000    2.000    6.533    0.533 
#    0.000   11.333    0.000    0.000    0.000    0.000 
#    0.000    0.000    0.000    0.000    0.000    0.000 
#
# Total GULP energy -335235.635545 kJ/mol
# GULP energy per Si atom -5587.260592 kJ/mol
# Density = 2.220632 g / cm^3
# Si number density = 22.256976 Si / 1000 Ang^3
#
#
#
# Elastic Constant Matrix: (Units=GPa)
#
#
# Indices 1 2 3 4 5 6 
#
# 1 99.7689 44.4104 28.3167 0.0000 0.0000 0.0000
# 2 44.4104 113.9012 13.5909 0.0000 0.0000 0.0000
# 3 28.3167 13.5909 81.0467 0.0000 0.0000 0.0000
# 4 0.0000 0.0000 0.0000 7.0473 0.0000 0.0000
# 5 0.0000 0.0000 0.0000 0.0000 25.7826 0.0000
# 6 0.0000 0.0000 0.0000 0.0000 0.0000 18.6214
#
#
#
# Elastic Compliance Matrix: (Units=1/GPa)
#
#
# Indices 1 2 3 4 5 6 
#
# 1 0.013196 -0.004689 -0.003824 0.000000 0.000000 0.000000
# 2 -0.004689 0.010625 -0.000144 0.000000 0.000000 0.000000
# 3 -0.003824 -0.000144 0.013699 0.000000 0.000000 0.000000
# 4 0.000000 0.000000 0.000000 0.141899 0.000000 0.000000
# 5 0.000000 0.000000 0.000000 0.000000 0.038786 0.000000
# 6 0.000000 0.000000 0.000000 0.000000 0.000000 0.053702
#
#
# Mechanical properties :
#
#
# Convention : Reuss Voigt Hill
#
# Bulk Modulus (GPa) = 49.48912 51.92808 50.70860
# Shear Modulus (GPa) = 16.89454 24.18352 20.53903
#
# Velocity S-wave (km/s) = 2.75811 3.29988 3.04108
# Velocity P-wave (km/s) = 5.69442 6.15635 5.92989
#
# Compressibility (1/GPa) = 0.02020646
#
# Stress axis : x y z
#
# Youngs Moduli (GPa) = 75.78265 94.11933 72.99940
#
# Poissons Ratio (x) = 0.44130 0.27916
# Poissons Ratio (y) = 0.35532 0.01048
# Poissons Ratio (z) = 0.28980 0.01351
#
# Static dielectric constant tensor:
#      x y z
#    x 2.008100 0.000000 0.000000 
#    y 0.000000 2.133880 0.000000 
#    z 0.000000 0.000000 1.875850 
# 
# From -- ./inp_files/42334.got.cif
#   From: 2010.05.17/outbox.cif.g08.bks.cpg/sg52_22_cif.got.tgz:42334.got - 2010.06.03 12:15:38.
