data_PCOD9412560
_publ_section_title
;
Structure prediction by ZEFSAII (Michael W. Deem and Ramdas Pophale) SiO2 
 PCOD9412560
Probable space group: P N N A
;
_chemical_formula_sum "Si O2"
_cell_formula_units_Z 64
_cell_length_a 27.205780
_cell_length_b 9.028557
_cell_length_c 12.225402
_cell_angle_alpha 90.000000
_cell_angle_beta 90.000000
_cell_angle_gamma 90.000000
_cell_volume 3002.912479
_symmetry_space_group_name_H-M "P N N A"
_symmetry_group_IT_number 52
_symmetry_cell_setting 'orthorhombic'
loop_
_space_group_symop_operation_xyz
x,y,z
1/2-x,-y,z
x,1/2-y,1/2-z
1/2-x,1/2+y,1/2-z
-x,-y,-z
1/2+x,y,-z
-x,1/2+y,1/2+z
1/2+x,1/2-y,1/2+z
loop_
_atom_site_type_symbol
_atom_site_label
_atom_site_fract_x
_atom_site_fract_y
_atom_site_fract_z
Si Si1 0.706418 0.418015 0.781371
Si Si2 0.553126 0.505010 0.609176
Si Si3 0.516873 0.985535 0.652278
Si Si4 0.492419 0.750059 0.497884
Si Si5 0.804122 0.067334 0.367880
Si Si6 0.843001 0.388508 0.606990
Si Si7 0.130309 0.547870 0.074559
Si Si8 0.301794 0.421286 0.621698
O O1 0.750000 0.500000 0.846279
O O2 0.717355 0.250000 0.750000
O O3 0.697526 0.530454 0.679929
O O4 0.657676 0.424275 0.854037
O O5 0.519909 0.502707 0.717910
O O6 0.534421 0.631548 0.526664
O O7 0.551606 0.349933 0.546804
O O8 0.605989 0.549260 0.650508
O O9 0.485999 0.847573 0.606361
O O10 0.572026 0.961002 0.599448
O O11 0.496080 0.133711 0.597503
O O12 0.847962 0.029613 0.452191
O O13 0.796008 0.244053 0.373171
O O14 0.817970 0.027818 0.242467
O O15 0.750000 0.000000 0.390931
O O16 0.848514 0.210491 0.610987
O O17 0.836841 0.441739 0.482128
O O18 0.250000 0.500000 0.598675
#
# Coordination Sequence:
#
# PCOD9412560 Si02
#       8
#     8   8   8   8   8   8   8   8
#     4  12  26  40  60  98 138 174 216 266 322 396
#     4  11  22  42  67  94 130 168 214 273 346 401
#     4  11  22  42  67  94 130 168 214 273 346 401
#     4  10  24  40  64  96 122 170 216 264 330 422
#     4   9  19  37  59  85 120 164 208 252 304 368
#     4  11  22  38  65  94 127 169 211 266 326 394
#     4  11  22  38  65  94 127 169 211 266 326 394
#     4   9  19  37  59  85 120 164 208 252 304 368
#
# _framework density 21.312643999999999
#
# number of rings (size 3 to 8) (size 9 to 14) (size 15 to 20)
#    0.000    1.500    2.500    2.625    1.750    3.000 
#    0.000    7.500    0.000    0.000    0.000    0.000 
#    0.000    0.000    0.000    0.000    0.000    0.000 
#
# Total GULP energy -357082.158498 kJ/mol
# GULP energy per Si atom -5579.408727 kJ/mol
# Density = 2.126414 g / cm^3
# Si number density = 21.312644 Si / 1000 Ang^3
#
#
#
# Elastic Constant Matrix: (Units=GPa)
#
#
# Indices 1 2 3 4 5 6 
#
# 1 24.7042 15.8934 17.8672 0.0000 0.0000 0.0000
# 2 15.8934 85.0453 26.6963 0.0000 0.0000 0.0000
# 3 17.8672 26.6963 112.6306 0.0000 0.0000 0.0000
# 4 0.0000 0.0000 0.0000 18.4220 0.0000 0.0000
# 5 0.0000 0.0000 0.0000 0.0000 28.7780 0.0000
# 6 0.0000 0.0000 0.0000 0.0000 0.0000 24.0507
#
#
#
# Elastic Compliance Matrix: (Units=1/GPa)
#
#
# Indices 1 2 3 4 5 6 
#
# 1 0.049645 -0.007353 -0.006133 0.000000 0.000000 0.000000
# 2 -0.007353 0.013793 -0.002103 0.000000 0.000000 0.000000
# 3 -0.006133 -0.002103 0.010350 0.000000 0.000000 0.000000
# 4 0.000000 0.000000 0.000000 0.054283 0.000000 0.000000
# 5 0.000000 0.000000 0.000000 0.000000 0.034749 0.000000
# 6 0.000000 0.000000 0.000000 0.000000 0.000000 0.041579
#
#
# Mechanical properties :
#
#
# Convention : Reuss Voigt Hill
#
# Bulk Modulus (GPa) = 23.46810 38.14376 30.80593
# Shear Modulus (GPa) = 20.01782 25.04501 22.53141
#
# Velocity S-wave (km/s) = 3.06804 3.43173 3.25497
# Velocity P-wave (km/s) = 4.85651 5.79987 5.34903
#
# Compressibility (1/GPa) = 0.04261103
#
# Stress axis : x y z
#
# Youngs Moduli (GPa) = 20.14315 72.50280 96.61962
#
# Poissons Ratio (x) = 0.53308 0.59254
# Poissons Ratio (y) = 0.14810 0.20317
# Poissons Ratio (z) = 0.12353 0.15246
#
# Static dielectric constant tensor:
#      x y z
#    x 1.785440 0.000000 0.000000 
#    y 0.000000 1.768200 0.000000 
#    z 0.000000 0.000000 1.805310 
# 
# From -- ./inp_files/23203.got.cif
#   From: 2010.05.17/outbox.cif.g08.bks.cpg/sg52_12_cif.got.tgz:23203.got - 2010.06.03 12:15:38.
