data_PCOD9412535
_publ_section_title
;
Structure prediction by ZEFSAII (Michael W. Deem and Ramdas Pophale) SiO2 
 PCOD9412535
Probable space group: P N N A
;
_chemical_formula_sum "Si O2"
_cell_formula_units_Z 32
_cell_length_a 7.286868
_cell_length_b 10.581378
_cell_length_c 20.061982
_cell_angle_alpha 90.000000
_cell_angle_beta 90.000000
_cell_angle_gamma 90.000000
_cell_volume 1546.881223
_symmetry_space_group_name_H-M "P N N A"
_symmetry_group_IT_number 52
_symmetry_cell_setting 'orthorhombic'
loop_
_space_group_symop_operation_xyz
x,y,z
1/2-x,-y,z
x,1/2-y,1/2-z
1/2-x,1/2+y,1/2-z
-x,-y,-z
1/2+x,y,-z
-x,1/2+y,1/2+z
1/2+x,1/2-y,1/2+z
loop_
_atom_site_type_symbol
_atom_site_label
_atom_site_fract_x
_atom_site_fract_y
_atom_site_fract_z
Si Si1 0.345594 0.870639 0.354742
Si Si2 0.435397 0.250000 0.250000
Si Si3 0.026043 0.481938 0.274865
Si Si4 0.541608 0.856138 0.090068
Si Si5 0.750000 0.500000 0.505237
O O1 0.193345 0.790035 0.312991
O O2 0.447589 0.780559 0.406520
O O3 0.250000 0.000000 0.379749
O O4 0.484849 0.914416 0.296384
O O5 0.544169 0.375272 0.269351
O O6 0.250000 0.500000 0.285420
O O7 0.942772 0.402521 0.334270
O O8 0.716600 0.879977 0.043665
O O9 0.408213 0.957808 0.055278
#
# Coordination Sequence:
#
# PCOD9412535 Si02
#       5
#     8   4   8   8   4
#     4   9  15  25  51  81  97 126 163 230 271 306
#     4   8  12  22  42  84  94 122 154 202 276 298
#     4   9  14  24  52  76  99 121 160 226 257 311
#     4  11  17  36  44  76  96 134 182 214 255 329
#     4  10  24  28  54  64 100 146 174 216 258 304
#
# _framework density 20.686786999999999
#
# number of rings (size 3 to 8) (size 9 to 14) (size 15 to 20)
#    0.000    3.000    6.250    0.000    0.000    0.000 
#    0.000    1.250    5.500    0.000    0.000    0.000 
#    0.000    0.000    0.000    0.000    0.000    0.000 
#
# Total GULP energy -178188.671695 kJ/mol
# GULP energy per Si atom -5568.395990 kJ/mol
# Density = 2.063970 g / cm^3
# Si number density = 20.686787 Si / 1000 Ang^3
#
#
#
# Elastic Constant Matrix: (Units=GPa)
#
#
# Indices 1 2 3 4 5 6 
#
# 1 31.8419 4.0098 14.5761 0.0000 0.0000 0.0000
# 2 4.0098 124.1684 27.4340 0.0000 0.0000 0.0000
# 3 14.5761 27.4340 46.3487 0.0000 0.0000 0.0000
# 4 0.0000 0.0000 0.0000 22.2725 0.0000 0.0000
# 5 0.0000 0.0000 0.0000 0.0000 2.9465 0.0000
# 6 0.0000 0.0000 0.0000 0.0000 0.0000 13.5944
#
#
#
# Elastic Compliance Matrix: (Units=1/GPa)
#
#
# Indices 1 2 3 4 5 6 
#
# 1 0.036955 0.001581 -0.012558 0.000000 0.000000 0.000000
# 2 0.001581 0.009333 -0.006021 0.000000 0.000000 0.000000
# 3 -0.012558 -0.006021 0.029089 0.000000 0.000000 0.000000
# 4 0.000000 0.000000 0.000000 0.044898 0.000000 0.000000
# 5 0.000000 0.000000 0.000000 0.000000 0.339385 0.000000
# 6 0.000000 0.000000 0.000000 0.000000 0.000000 0.073560
#
#
# Mechanical properties :
#
#
# Convention : Reuss Voigt Hill
#
# Bulk Modulus (GPa) = 24.16599 32.71097 28.43848
# Shear Modulus (GPa) = 8.60572 18.18528 13.39550
#
# Velocity S-wave (km/s) = 2.04182 2.96814 2.54744
# Velocity P-wave (km/s) = 4.15523 5.25293 4.73599
#
# Compressibility (1/GPa) = 0.04138048
#
# Stress axis : x y z
#
# Youngs Moduli (GPa) = 27.06029 107.14777 34.37733
#
# Poissons Ratio (x) = -0.16942 0.43170
# Poissons Ratio (y) = -0.04279 0.20700
# Poissons Ratio (z) = 0.33981 0.64518
#
# Static dielectric constant tensor:
#      x y z
#    x 1.937740 0.000000 0.000000 
#    y 0.000000 1.801070 0.000000 
#    z 0.000000 0.000000 1.697530 
# 
# From -- ./inp_files/30819.got.cif
#   From: 2010.05.17/outbox.cif.g08.bks.cpg/sg52_16_cif.got.tgz:30819.got - 2010.06.03 12:15:38.
