data_PCOD9412021
_publ_section_title
;
Structure prediction by ZEFSAII (Michael W. Deem and Ramdas Pophale) SiO2 
 PCOD9412021
Probable space group: P N N A
;
_chemical_formula_sum "Si O2"
_cell_formula_units_Z 48
_cell_length_a 8.015673
_cell_length_b 14.018020
_cell_length_c 21.447942
_cell_angle_alpha 90.000000
_cell_angle_beta 90.000000
_cell_angle_gamma 90.000000
_cell_volume 2409.973647
_symmetry_space_group_name_H-M "P N N A"
_symmetry_group_IT_number 52
_symmetry_cell_setting 'orthorhombic'
loop_
_space_group_symop_operation_xyz
x,y,z
1/2-x,-y,z
x,1/2-y,1/2-z
1/2-x,1/2+y,1/2-z
-x,-y,-z
1/2+x,y,-z
-x,1/2+y,1/2+z
1/2+x,1/2-y,1/2+z
loop_
_atom_site_type_symbol
_atom_site_label
_atom_site_fract_x
_atom_site_fract_y
_atom_site_fract_z
Si Si1 0.355397 0.262601 0.589315
Si Si2 0.559930 0.968521 0.567682
Si Si3 0.709600 0.294439 0.646273
Si Si4 0.133604 0.917658 0.674324
Si Si5 0.806032 0.892521 0.727921
Si Si6 0.985984 0.247133 0.948130
O O1 0.516306 0.308606 0.625147
O O2 0.309448 0.175373 0.636490
O O3 0.441801 0.244492 0.521666
O O4 0.168178 0.296393 0.568949
O O5 0.523011 0.857259 0.573257
O O6 0.750000 0.000000 0.571596
O O7 0.500000 0.000000 0.500000
O O8 0.463105 0.025720 0.620032
O O9 0.732862 0.187164 0.675432
O O10 0.756154 0.361103 0.704515
O O11 0.837091 0.304671 0.589168
O O12 0.006116 0.888284 0.727702
O O13 0.250000 0.000000 0.700620
O O14 0.750000 0.000000 0.713812
#
# Coordination Sequence:
#
# PCOD9412021 Si02
#       6
#     8   8   8   8   8   8
#     4  11  21  33  56  86 120 158 191 245 307 366
#     4  12  20  28  47  82 122 157 189 228 290 372
#     4  10  23  41  60  89 121 160 206 250 301 365
#     4  11  20  33  51  83 118 153 196 235 291 362
#     4  10  22  43  62  81 119 164 205 254 298 350
#     4  12  20  34  55  86 123 157 194 241 308 364
#
# _framework density 19.91723
#
# number of rings (size 3 to 8) (size 9 to 14) (size 15 to 20)
#    0.000    1.000    5.000    5.000    0.000    0.000 
#    3.000    1.667    0.000    1.000    0.000    0.000 
#    0.000    0.000    0.000    0.000    0.000    0.000 
#
# Total GULP energy -267237.685798 kJ/mol
# GULP energy per Si atom -5567.451787 kJ/mol
# Density = 1.987190 g / cm^3
# Si number density = 19.917230 Si / 1000 Ang^3
#
#
#
# Elastic Constant Matrix: (Units=GPa)
#
#
# Indices 1 2 3 4 5 6 
#
# 1 83.7599 1.5228 8.1873 0.0000 0.0000 0.0000
# 2 1.5228 20.2422 10.2181 0.0000 0.0000 0.0000
# 3 8.1873 10.2181 55.4182 0.0000 0.0000 0.0000
# 4 0.0000 0.0000 0.0000 2.4811 0.0000 0.0000
# 5 0.0000 0.0000 0.0000 0.0000 27.1034 0.0000
# 6 0.0000 0.0000 0.0000 0.0000 0.0000 6.9202
#
#
#
# Elastic Compliance Matrix: (Units=1/GPa)
#
#
# Indices 1 2 3 4 5 6 
#
# 1 0.012114 -0.000009 -0.001788 0.000000 0.000000 0.000000
# 2 -0.000009 0.054472 -0.010042 0.000000 0.000000 0.000000
# 3 -0.001788 -0.010042 0.020160 0.000000 0.000000 0.000000
# 4 0.000000 0.000000 0.000000 0.403044 0.000000 0.000000
# 5 0.000000 0.000000 0.000000 0.000000 0.036896 0.000000
# 6 0.000000 0.000000 0.000000 0.000000 0.000000 0.144503
#
#
# Mechanical properties :
#
#
# Convention : Reuss Voigt Hill
#
# Bulk Modulus (GPa) = 15.85598 22.14187 18.99893
# Shear Modulus (GPa) = 6.98431 16.60044 11.79237
#
# Velocity S-wave (km/s) = 1.87464 2.89012 2.43589
# Velocity P-wave (km/s) = 3.55864 4.71997 4.17984
#
# Compressibility (1/GPa) = 0.06306767
#
# Stress axis : x y z
#
# Youngs Moduli (GPa) = 82.55038 18.35820 49.60224
#
# Poissons Ratio (x) = 0.00016 0.08869
# Poissons Ratio (y) = 0.00072 0.49812
# Poissons Ratio (z) = 0.14760 0.18436
#
# Static dielectric constant tensor:
#      x y z
#    x 1.783790 0.000000 0.000000 
#    y 0.000000 1.690600 0.000000 
#    z 0.000000 0.000000 1.688150 
# 
# From -- ./inp_files/35905.got.cif
#   From: 2010.05.17/outbox.cif.g08.bks.cpg/sg52_18_cif.got.tgz:35905.got - 2010.06.03 12:15:38.
