data_PCOD9412572
_publ_section_title
;
Structure prediction by ZEFSAII (Michael W. Deem and Ramdas Pophale) SiO2 
 PCOD9412572
Probable space group: P N N A
;
_chemical_formula_sum "Si O2"
_cell_formula_units_Z 28
_cell_length_a 9.094509
_cell_length_b 8.598230
_cell_length_c 15.787473
_cell_angle_alpha 90.000000
_cell_angle_beta 90.000000
_cell_angle_gamma 90.000000
_cell_volume 1234.527976
_symmetry_space_group_name_H-M "P N N A"
_symmetry_group_IT_number 52
_symmetry_cell_setting 'orthorhombic'
loop_
_space_group_symop_operation_xyz
x,y,z
1/2-x,-y,z
x,1/2-y,1/2-z
1/2-x,1/2+y,1/2-z
-x,-y,-z
1/2+x,y,-z
-x,1/2+y,1/2+z
1/2+x,1/2-y,1/2+z
loop_
_atom_site_type_symbol
_atom_site_label
_atom_site_fract_x
_atom_site_fract_y
_atom_site_fract_z
Si Si1 0.393071 0.079337 0.274541
Si Si2 0.078106 0.521856 0.910636
Si Si3 0.519272 0.364763 0.614707
Si Si4 0.250000 0.500000 0.505217
O O1 0.343058 0.250000 0.250000
O O2 0.250000 0.000000 0.314548
O O3 0.520140 0.101392 0.342855
O O4 0.446804 0.973276 0.195797
O O5 0.250000 0.500000 0.920880
O O6 0.026254 0.686663 0.870792
O O7 0.000000 0.500000 0.000000
O O8 0.379187 0.430339 0.562707
O O9 0.664805 0.378388 0.555698
#
# Coordination Sequence:
#
# PCOD9412572 Si02
#       4
#     8   8   8   4
#     4  12  28  47  73 105 147 192 245 305 372 436
#     4  12  28  46  75 107 148 190 245 300 369 442
#     4  11  24  46  73 105 147 187 243 297 366 437
#     4  10  24  40  78 104 140 184 242 292 366 422
#
# _framework density 22.680734000000001
#
# number of rings (size 3 to 8) (size 9 to 14) (size 15 to 20)
#    0.000    0.571    1.429    5.143   14.000    0.000 
#    0.000    0.000    0.000    0.000    0.000    0.000 
#    0.000    0.000    0.000    0.000    0.000    0.000 
#
# Total GULP energy -156707.715973 kJ/mol
# GULP energy per Si atom -5596.704142 kJ/mol
# Density = 2.262911 g / cm^3
# Si number density = 22.680734 Si / 1000 Ang^3
#
#
#
# Elastic Constant Matrix: (Units=GPa)
#
#
# Indices 1 2 3 4 5 6 
#
# 1 175.7321 6.2724 38.4144 0.0000 0.0000 0.0000
# 2 6.2724 73.9445 -10.9678 0.0000 0.0000 0.0000
# 3 38.4144 -10.9678 89.3251 0.0000 0.0000 0.0000
# 4 0.0000 0.0000 0.0000 30.9506 0.0000 0.0000
# 5 0.0000 0.0000 0.0000 0.0000 37.5822 0.0000
# 6 0.0000 0.0000 0.0000 0.0000 0.0000 34.2227
#
#
#
# Elastic Compliance Matrix: (Units=1/GPa)
#
#
# Indices 1 2 3 4 5 6 
#
# 1 0.006347 -0.000961 -0.002848 0.000000 0.000000 0.000000
# 2 -0.000961 0.013920 0.002122 0.000000 0.000000 0.000000
# 3 -0.002848 0.002122 0.012680 0.000000 0.000000 0.000000
# 4 0.000000 0.000000 0.000000 0.032310 0.000000 0.000000
# 5 0.000000 0.000000 0.000000 0.000000 0.026608 0.000000
# 6 0.000000 0.000000 0.000000 0.000000 0.000000 0.029220
#
#
# Mechanical properties :
#
#
# Convention : Reuss Voigt Hill
#
# Bulk Modulus (GPa) = 33.81193 45.15998 39.48595
# Shear Modulus (GPa) = 37.22557 40.90328 39.06442
#
# Velocity S-wave (km/s) = 4.05567 4.25130 4.15464
# Velocity P-wave (km/s) = 6.07219 6.63720 6.36097
#
# Compressibility (1/GPa) = 0.02957536
#
# Stress axis : x y z
#
# Youngs Moduli (GPa) = 157.54849 71.83934 78.86270
#
# Poissons Ratio (x) = 0.06902 0.22457
# Poissons Ratio (y) = 0.15137 -0.16737
# Poissons Ratio (z) = 0.44864 -0.15247
#
# Static dielectric constant tensor:
#      x y z
#    x 1.787810 0.000000 0.000000 
#    y 0.000000 1.930130 0.000000 
#    z 0.000000 0.000000 1.823430 
# 
# From -- ./inp_files/30640.got.cif
#   From: 2010.05.17/outbox.cif.g08.bks.cpg/sg52_16_cif.got.tgz:30640.got - 2010.06.03 12:15:38.
