data_PCOD9412374
_publ_section_title
;
Structure prediction by ZEFSAII (Michael W. Deem and Ramdas Pophale) SiO2 
 PCOD9412374
Probable space group: P N N A
;
_chemical_formula_sum "Si O2"
_cell_formula_units_Z 28
_cell_length_a 18.559161
_cell_length_b 7.278275
_cell_length_c 9.840938
_cell_angle_alpha 90.000000
_cell_angle_beta 90.000000
_cell_angle_gamma 90.000000
_cell_volume 1329.300891
_symmetry_space_group_name_H-M "P N N A"
_symmetry_group_IT_number 52
_symmetry_cell_setting 'orthorhombic'
loop_
_space_group_symop_operation_xyz
x,y,z
1/2-x,-y,z
x,1/2-y,1/2-z
1/2-x,1/2+y,1/2-z
-x,-y,-z
1/2+x,y,-z
-x,1/2+y,1/2+z
1/2+x,1/2-y,1/2+z
loop_
_atom_site_type_symbol
_atom_site_label
_atom_site_fract_x
_atom_site_fract_y
_atom_site_fract_z
Si Si1 0.856199 0.750000 0.250000
Si Si2 0.186858 0.220467 0.041805
Si Si3 0.350300 0.318048 0.392871
Si Si4 0.418071 0.016754 0.543633
O O1 0.808960 0.690897 0.378577
O O2 0.902980 0.918378 0.311578
O O3 0.266712 0.245193 0.096918
O O4 0.108329 0.723142 0.982172
O O5 0.134272 0.393841 0.053850
O O6 0.381518 0.250000 0.250000
O O7 0.348126 0.537147 0.399371
O O8 0.500000 0.000000 0.500000
#
# Coordination Sequence:
#
# PCOD9412374 Si02
#       4
#     4   8   8   8
#     4   8  22  42  60  94 122 160 226 246 328 370
#     4   9  23  40  62  97 124 168 219 264 317 373
#     4  11  24  38  67  97 129 169 216 264 327 375
#     4  10  23  43  65  94 134 171 209 268 324 383
#
# _framework density 21.063701999999999
#
# number of rings (size 3 to 8) (size 9 to 14) (size 15 to 20)
#    1.714    0.571    0.000    0.857   10.000    6.857 
#    0.000    2.857    0.000    0.000    0.000    0.000 
#    0.000    0.000    0.000    0.000    0.000    0.000 
#
# Total GULP energy -156015.185735 kJ/mol
# GULP energy per Si atom -5571.970919 kJ/mol
# Density = 2.101576 g / cm^3
# Si number density = 21.063702 Si / 1000 Ang^3
#
#
#
# Elastic Constant Matrix: (Units=GPa)
#
#
# Indices 1 2 3 4 5 6 
#
# 1 36.9101 9.5980 -13.1045 0.0000 0.0000 0.0000
# 2 9.5980 54.7479 -5.5008 0.0000 0.0000 0.0000
# 3 -13.1045 -5.5008 105.1262 0.0000 0.0000 0.0000
# 4 0.0000 0.0000 0.0000 36.5784 0.0000 0.0000
# 5 0.0000 0.0000 0.0000 0.0000 5.4968 0.0000
# 6 0.0000 0.0000 0.0000 0.0000 0.0000 9.5868
#
#
#
# Elastic Compliance Matrix: (Units=1/GPa)
#
#
# Indices 1 2 3 4 5 6 
#
# 1 0.029570 -0.004839 0.003433 0.000000 0.000000 0.000000
# 2 -0.004839 0.019154 0.000399 0.000000 0.000000 0.000000
# 3 0.003433 0.000399 0.009961 0.000000 0.000000 0.000000
# 4 0.000000 0.000000 0.000000 0.027339 0.000000 0.000000
# 5 0.000000 0.000000 0.000000 0.000000 0.181925 0.000000
# 6 0.000000 0.000000 0.000000 0.000000 0.000000 0.104310
#
#
# Mechanical properties :
#
#
# Convention : Reuss Voigt Hill
#
# Bulk Modulus (GPa) = 17.64580 19.86329 18.75455
# Shear Modulus (GPa) = 12.71734 24.05181 18.38458
#
# Velocity S-wave (km/s) = 2.45981 3.38281 2.95754
# Velocity P-wave (km/s) = 4.05747 4.97076 4.53715
#
# Compressibility (1/GPa) = 0.05667071
#
# Stress axis : x y z
#
# Youngs Moduli (GPa) = 33.81806 52.20841 100.38976
#
# Poissons Ratio (x) = 0.25264 -0.34462
# Poissons Ratio (y) = 0.16365 -0.04006
# Poissons Ratio (z) = -0.11609 -0.02083
#
# Static dielectric constant tensor:
#      x y z
#    x 1.703930 0.000000 0.000000 
#    y 0.000000 1.780480 0.000000 
#    z 0.000000 0.000000 1.801270 
# 
# From -- ./inp_files/21315.got.cif
#   From: 2010.05.17/outbox.cif.g08.bks.cpg/sg52_11_cif.got.tgz:21315.got - 2010.06.03 12:15:38.
