data_PCOD9412406
_publ_section_title
;
Structure prediction by ZEFSAII (Michael W. Deem and Ramdas Pophale) SiO2 
 PCOD9412406
Probable space group: P N N A
;
_chemical_formula_sum "Si O2"
_cell_formula_units_Z 32
_cell_length_a 23.015763
_cell_length_b 7.815307
_cell_length_c 7.545271
_cell_angle_alpha 90.000000
_cell_angle_beta 90.000000
_cell_angle_gamma 90.000000
_cell_volume 1357.207535
_symmetry_space_group_name_H-M "P N N A"
_symmetry_group_IT_number 52
_symmetry_cell_setting 'orthorhombic'
loop_
_space_group_symop_operation_xyz
x,y,z
1/2-x,-y,z
x,1/2-y,1/2-z
1/2-x,1/2+y,1/2-z
-x,-y,-z
1/2+x,y,-z
-x,1/2+y,1/2+z
1/2+x,1/2-y,1/2+z
loop_
_atom_site_type_symbol
_atom_site_label
_atom_site_fract_x
_atom_site_fract_y
_atom_site_fract_z
Si Si1 0.100896 0.980126 0.354737
Si Si2 0.204230 0.250000 0.750000
Si Si3 0.604215 0.359144 0.472934
Si Si4 0.281152 0.180305 0.439727
Si Si5 0.999335 0.750000 0.250000
O O1 0.105813 0.162654 0.452649
O O2 0.110778 0.023066 0.145625
O O3 0.151047 0.859066 0.431794
O O4 0.040754 0.877130 0.360670
O O5 0.154996 0.382535 0.672069
O O6 0.250969 0.281380 0.594213
O O7 0.542706 0.364442 0.373030
O O8 0.262828 0.250000 0.250000
O O9 0.250000 0.000000 0.467267
#
# Coordination Sequence:
#
# PCOD9412406 Si02
#       5
#     8   4   8   8   4
#     4  11  22  44  65 100 136 178 227 287 348 401
#     4  11  24  42  66 104 130 187 228 268 352 411
#     4  10  23  43  70  92 141 182 224 284 351 412
#     4  12  25  45  70 100 142 181 230 287 341 416
#     4  11  22  42  68 104 128 179 236 284 342 413
#
# _framework density 23.577825000000001
#
# number of rings (size 3 to 8) (size 9 to 14) (size 15 to 20)
#    0.000    1.000    3.750    3.000    0.000    3.000 
#    0.000    2.500    0.000    0.000    0.000    0.000 
#    0.000    0.000    0.000    0.000    0.000    0.000 
#
# Total GULP energy -178422.711778 kJ/mol
# GULP energy per Si atom -5575.709743 kJ/mol
# Density = 2.352416 g / cm^3
# Si number density = 23.577825 Si / 1000 Ang^3
#
#
#
# Elastic Constant Matrix: (Units=GPa)
#
#
# Indices 1 2 3 4 5 6 
#
# 1 199.2397 29.9685 66.8716 0.0000 0.0000 0.0000
# 2 29.9685 55.7704 -15.3389 0.0000 0.0000 0.0000
# 3 66.8716 -15.3389 98.6099 0.0000 0.0000 0.0000
# 4 0.0000 0.0000 0.0000 -19.7554 0.0000 0.0000
# 5 0.0000 0.0000 0.0000 0.0000 77.3780 0.0000
# 6 0.0000 0.0000 0.0000 0.0000 0.0000 25.2573
#
#
#
# Elastic Compliance Matrix: (Units=1/GPa)
#
#
# Indices 1 2 3 4 5 6 
#
# 1 0.008106 -0.006130 -0.006451 0.000000 0.000000 0.000000
# 2 -0.006130 0.023368 0.007792 0.000000 0.000000 0.000000
# 3 -0.006451 0.007792 0.015728 0.000000 0.000000 0.000000
# 4 0.000000 0.000000 0.000000 -0.050619 0.000000 0.000000
# 5 0.000000 0.000000 0.000000 0.000000 0.012924 0.000000
# 6 0.000000 0.000000 0.000000 0.000000 0.000000 0.039592
#
#
# Mechanical properties :
#
#
# Convention : Reuss Voigt Hill
#
# Bulk Modulus (GPa) = 26.57887 57.40248 41.99068
# Shear Modulus (GPa) = 70.20741 34.71722 52.46232
#
# Velocity S-wave (km/s) = 5.46274 3.84142 4.72218
# Velocity P-wave (km/s) = 7.14745 6.63884 6.89783
#
# Compressibility (1/GPa) = 0.03762387
#
# Stress axis : x y z
#
# Youngs Moduli (GPa) = 123.36217 42.79394 63.58274
#
# Poissons Ratio (x) = 0.26233 0.41015
# Poissons Ratio (y) = 0.75622 -0.49544
# Poissons Ratio (z) = 0.79577 -0.33345
#
# Static dielectric constant tensor:
#      x y z
#    x 1.935270 0.000000 0.000000 
#    y 0.000000 1.039060 0.000000 
#    z 0.000000 0.000000 1.930930 
# 
# From -- ./inp_files/12879.got.cif
#   From: 2010.05.17/outbox.cif.g08.bks.cpg/sg52_7_cif.got.tgz:12879.got - 2010.06.03 12:15:38.
