data_PCOD9412493
_publ_section_title
;
Structure prediction by ZEFSAII (Michael W. Deem and Ramdas Pophale) SiO2 
 PCOD9412493
Probable space group: P N N A
;
_chemical_formula_sum "Si O2"
_cell_formula_units_Z 32
_cell_length_a 13.360820
_cell_length_b 8.104325
_cell_length_c 12.435195
_cell_angle_alpha 90.000000
_cell_angle_beta 90.000000
_cell_angle_gamma 90.000000
_cell_volume 1346.488231
_symmetry_space_group_name_H-M "P N N A"
_symmetry_group_IT_number 52
_symmetry_cell_setting 'orthorhombic'
loop_
_space_group_symop_operation_xyz
x,y,z
1/2-x,-y,z
x,1/2-y,1/2-z
1/2-x,1/2+y,1/2-z
-x,-y,-z
1/2+x,y,-z
-x,1/2+y,1/2+z
1/2+x,1/2-y,1/2+z
loop_
_atom_site_type_symbol
_atom_site_label
_atom_site_fract_x
_atom_site_fract_y
_atom_site_fract_z
Si Si1 0.896928 0.831355 0.144423
Si Si2 0.685089 0.693881 0.409745
Si Si3 0.234012 0.305244 0.131568
Si Si4 0.986647 0.823061 0.553952
O O1 0.943658 0.750000 0.250000
O O2 0.790266 0.735714 0.132404
O O3 0.853293 0.015975 0.131919
O O4 0.971654 0.801281 0.046196
O O5 0.708802 0.702774 0.538445
O O6 0.589396 0.802549 0.383531
O O7 0.250000 0.500000 0.113697
O O8 0.265922 0.250000 0.250000
O O9 0.113904 0.290569 0.119918
O O10 0.000000 0.000000 0.500000
#
# Coordination Sequence:
#
# PCOD9412493 Si02
#       4
#     8   8   8   8
#     4  10  24  42  69  97 132 181 223 279 346 407
#     4  10  23  46  67  95 140 178 226 288 342 412
#     4  11  25  43  70  99 135 186 234 288 356 413
#     4  11  23  42  66  97 136 176 228 288 342 415
#
# _framework density 23.765526999999999
#
# number of rings (size 3 to 8) (size 9 to 14) (size 15 to 20)
#    0.000    1.500    2.500    0.750    7.000    8.000 
#    0.000    0.000    0.000    0.000    0.000    0.000 
#    0.000    0.000    0.000    0.000    0.000    0.000 
#
# Total GULP energy -178505.356706 kJ/mol
# GULP energy per Si atom -5578.292397 kJ/mol
# Density = 2.371144 g / cm^3
# Si number density = 23.765527 Si / 1000 Ang^3
#
#
#
# Elastic Constant Matrix: (Units=GPa)
#
#
# Indices 1 2 3 4 5 6 
#
# 1 99.9056 -6.8441 -17.4764 0.0000 0.0000 0.0000
# 2 -6.8441 79.5136 8.5660 0.0000 0.0000 0.0000
# 3 -17.4764 8.5660 124.1739 0.0000 0.0000 0.0000
# 4 0.0000 0.0000 0.0000 28.0733 0.0000 0.0000
# 5 0.0000 0.0000 0.0000 0.0000 -4.8622 0.0000
# 6 0.0000 0.0000 0.0000 0.0000 0.0000 29.5599
#
#
#
# Elastic Compliance Matrix: (Units=1/GPa)
#
#
# Indices 1 2 3 4 5 6 
#
# 1 0.010305 0.000736 0.001400 0.000000 0.000000 0.000000
# 2 0.000736 0.012723 -0.000774 0.000000 0.000000 0.000000
# 3 0.001400 -0.000774 0.008304 0.000000 0.000000 0.000000
# 4 0.000000 0.000000 0.000000 0.035621 0.000000 0.000000
# 5 0.000000 0.000000 0.000000 0.000000 -0.205668 0.000000
# 6 0.000000 0.000000 0.000000 0.000000 0.000000 0.033830
#
#
# Mechanical properties :
#
#
# Convention : Reuss Voigt Hill
#
# Bulk Modulus (GPa) = 29.36448 30.23158 29.79803
# Shear Modulus (GPa) = -51.94388 31.84404 -10.04992
#
# Velocity S-wave (km/s) = -4.68020 3.66447 -2.05863
# Velocity P-wave (km/s) = 4.10158 5.53650 2.62963
#
# Compressibility (1/GPa) = 0.03405475
#
# Stress axis : x y z
#
# Youngs Moduli (GPa) = 97.04317 78.59645 120.42982
#
# Poissons Ratio (x) = -0.05786 -0.16854
# Poissons Ratio (y) = -0.07144 0.09322
# Poissons Ratio (z) = -0.13581 0.06084
#
# Static dielectric constant tensor:
#      x y z
#    x 1.973920 0.000000 0.000000 
#    y 0.000000 2.912840 0.000000 
#    z 0.000000 0.000000 2.008790 
# 
# From -- ./inp_files/18847.got.cif
#   From: 2010.05.17/outbox.cif.g08.bks.cpg/sg52_10_cif.got.tgz:18847.got - 2010.06.03 12:15:38.
