data_PCOD9412538
_publ_section_title
;
Structure prediction by ZEFSAII (Michael W. Deem and Ramdas Pophale) SiO2 
 PCOD9412538
Probable space group: P N N A
;
_chemical_formula_sum "Si O2"
_cell_formula_units_Z 40
_cell_length_a 8.960576
_cell_length_b 27.363112
_cell_length_c 7.585162
_cell_angle_alpha 90.000000
_cell_angle_beta 90.000000
_cell_angle_gamma 90.000000
_cell_volume 1859.800141
_symmetry_space_group_name_H-M "P N N A"
_symmetry_group_IT_number 52
_symmetry_cell_setting 'orthorhombic'
loop_
_space_group_symop_operation_xyz
x,y,z
1/2-x,-y,z
x,1/2-y,1/2-z
1/2-x,1/2+y,1/2-z
-x,-y,-z
1/2+x,y,-z
-x,1/2+y,1/2+z
1/2+x,1/2-y,1/2+z
loop_
_atom_site_type_symbol
_atom_site_label
_atom_site_fract_x
_atom_site_fract_y
_atom_site_fract_z
Si Si1 0.654503 0.319031 0.667356
Si Si2 0.901255 0.250000 0.250000
Si Si3 0.637694 0.099441 0.132978
Si Si4 0.368895 0.035221 0.067226
Si Si5 0.913617 0.250000 0.750000
Si Si6 0.339588 0.820147 0.582626
O O1 0.970835 0.422792 0.654154
O O2 0.799500 0.285257 0.643390
O O3 0.513735 0.283896 0.639628
O O4 0.653887 0.331279 0.875519
O O5 0.798520 0.213574 0.360268
O O6 0.142546 0.136087 0.035030
O O7 0.672493 0.130744 0.304537
O O8 0.765989 0.060015 0.084201
O O9 0.250000 0.000000 0.167678
O O10 0.500000 0.000000 0.000000
O O11 0.019583 0.211460 0.650058
#
# Coordination Sequence:
#
# PCOD9412538 Si02
#       6
#     8   4   8   8   4   8
#     4  11  24  37  57  84 123 163 204 255 275 347
#     4  10  24  36  52  84 120 168 210 238 286 324
#     4  11  22  38  64  88 112 160 202 238 312 359
#     4   9  20  40  66  90 114 144 190 256 318 371
#     4  10  24  36  52  84 120 168 210 238 286 324
#     4  11  24  37  57  84 123 163 204 255 275 347
#
# _framework density 21.507687000000001
#
# number of rings (size 3 to 8) (size 9 to 14) (size 15 to 20)
#    0.000    1.600    0.000    3.600   16.800    0.000 
#    0.000    0.000    0.000   24.000    0.000    0.000 
#    0.000    0.000    0.000    0.000    0.000    0.000 
#
# Total GULP energy -223485.580327 kJ/mol
# GULP energy per Si atom -5587.139508 kJ/mol
# Density = 2.145873 g / cm^3
# Si number density = 21.507687 Si / 1000 Ang^3
#
#
#
# Elastic Constant Matrix: (Units=GPa)
#
#
# Indices 1 2 3 4 5 6 
#
# 1 169.4230 48.6930 26.8693 0.0000 0.0000 0.0000
# 2 48.6930 109.2083 39.8232 0.0000 0.0000 0.0000
# 3 26.8693 39.8232 85.0734 0.0000 0.0000 0.0000
# 4 0.0000 0.0000 0.0000 14.2615 0.0000 0.0000
# 5 0.0000 0.0000 0.0000 0.0000 23.7468 0.0000
# 6 0.0000 0.0000 0.0000 0.0000 0.0000 184.6263
#
#
#
# Elastic Compliance Matrix: (Units=1/GPa)
#
#
# Indices 1 2 3 4 5 6 
#
# 1 0.006824 -0.002721 -0.000882 0.000000 0.000000 0.000000
# 2 -0.002721 0.012127 -0.004817 0.000000 0.000000 0.000000
# 3 -0.000882 -0.004817 0.014288 0.000000 0.000000 0.000000
# 4 0.000000 0.000000 0.000000 0.070119 0.000000 0.000000
# 5 0.000000 0.000000 0.000000 0.000000 0.042111 0.000000
# 6 0.000000 0.000000 0.000000 0.000000 0.000000 0.005416
#
#
# Mechanical properties :
#
#
# Convention : Reuss Voigt Hill
#
# Bulk Modulus (GPa) = 60.97900 66.05285 63.51592
# Shear Modulus (GPa) = 28.86980 61.08155 44.97568
#
# Velocity S-wave (km/s) = 3.66772 5.33493 4.57786
# Velocity P-wave (km/s) = 6.80808 8.29015 7.58540
#
# Compressibility (1/GPa) = 0.01639909
#
# Stress axis : x y z
#
# Youngs Moduli (GPa) = 146.53500 82.46242 69.98953
#
# Poissons Ratio (x) = 0.22441 0.06170
# Poissons Ratio (y) = 0.39877 0.33714
# Poissons Ratio (z) = 0.12917 0.39723
#
# Static dielectric constant tensor:
#      x y z
#    x 1.819140 0.000000 0.000000 
#    y 0.000000 1.830920 0.000000 
#    z 0.000000 0.000000 1.867570 
# 
# From -- ./inp_files/7558.got.cif
#   From: 2010.05.17/outbox.cif.g08.bks.cpg/sg52_4_cif.got.tgz:7558.got - 2010.06.03 12:15:38.
