data_PCOD9412492
_publ_section_title
;
Structure prediction by ZEFSAII (Michael W. Deem and Ramdas Pophale) SiO2 
 PCOD9412492
Probable space group: P N N A
;
_chemical_formula_sum "Si O2"
_cell_formula_units_Z 40
_cell_length_a 13.388438
_cell_length_b 8.867459
_cell_length_c 17.823509
_cell_angle_alpha 90.000000
_cell_angle_beta 90.000000
_cell_angle_gamma 90.000000
_cell_volume 2116.032388
_symmetry_space_group_name_H-M "P N N A"
_symmetry_group_IT_number 52
_symmetry_cell_setting 'orthorhombic'
loop_
_space_group_symop_operation_xyz
x,y,z
1/2-x,-y,z
x,1/2-y,1/2-z
1/2-x,1/2+y,1/2-z
-x,-y,-z
1/2+x,y,-z
-x,1/2+y,1/2+z
1/2+x,1/2-y,1/2+z
loop_
_atom_site_type_symbol
_atom_site_label
_atom_site_fract_x
_atom_site_fract_y
_atom_site_fract_z
Si Si1 0.750000 0.500000 0.184029
Si Si2 0.250000 0.500000 0.068229
Si Si3 0.737698 0.254391 0.054138
Si Si4 0.150965 0.915693 0.284608
Si Si5 0.587398 0.975969 0.059095
Si Si6 0.049203 0.926056 0.768878
O O1 0.747381 0.354556 0.129303
O O2 0.848907 0.494312 0.234718
O O3 0.170010 0.572422 0.125782
O O4 0.287451 0.631844 0.013608
O O5 0.841059 0.165519 0.039656
O O6 0.655125 0.125714 0.061699
O O7 0.148470 0.750000 0.250000
O O8 0.250000 0.000000 0.252869
O O9 0.048780 0.998535 0.265692
O O10 0.546735 0.948476 0.142246
O O11 0.500000 0.000000 0.000000
O O12 0.049348 0.750000 0.750000
#
# Coordination Sequence:
#
# PCOD9412492 Si02
#       6
#     4   4   8   8   8   8
#     4  11  24  44  72  93 140 174 240 283 348 408
#     4   9  24  44  70  91 136 176 224 283 338 414
#     4  10  23  46  65  98 133 181 224 283 344 417
#     4  10  25  44  70 102 131 180 230 285 348 408
#     4  11  26  40  67  99 137 178 228 280 352 406
#     4  12  26  43  70 103 138 181 235 292 344 411
#
# _framework density 18.903303999999999
#
# number of rings (size 3 to 8) (size 9 to 14) (size 15 to 20)
#    0.600    0.800    2.000    1.800    8.400    0.000 
#    0.000    4.000    0.000    0.000    0.000    0.000 
#    0.000    0.000    0.000    0.000    0.000    0.000 
#
# Total GULP energy -223387.315810 kJ/mol
# GULP energy per Si atom -5584.682895 kJ/mol
# Density = 1.886028 g / cm^3
# Si number density = 18.903304 Si / 1000 Ang^3
#
#
#
# Elastic Constant Matrix: (Units=GPa)
#
#
# Indices 1 2 3 4 5 6 
#
# 1 124.3103 31.4546 47.3375 0.0000 0.0000 0.0000
# 2 31.4546 103.4422 41.0072 0.0000 0.0000 0.0000
# 3 47.3375 41.0072 147.1525 0.0000 0.0000 0.0000
# 4 0.0000 0.0000 0.0000 5.5060 0.0000 0.0000
# 5 0.0000 0.0000 0.0000 0.0000 31.3935 0.0000
# 6 0.0000 0.0000 0.0000 0.0000 0.0000 25.1381
#
#
#
# Elastic Compliance Matrix: (Units=1/GPa)
#
#
# Indices 1 2 3 4 5 6 
#
# 1 0.009482 -0.001882 -0.002526 0.000000 0.000000 0.000000
# 2 -0.001882 0.011241 -0.002527 0.000000 0.000000 0.000000
# 3 -0.002526 -0.002527 0.008313 0.000000 0.000000 0.000000
# 4 0.000000 0.000000 0.000000 0.181620 0.000000 0.000000
# 5 0.000000 0.000000 0.000000 0.000000 0.031854 0.000000
# 6 0.000000 0.000000 0.000000 0.000000 0.000000 0.039780
#
#
# Mechanical properties :
#
#
# Convention : Reuss Voigt Hill
#
# Bulk Modulus (GPa) = 65.93729 68.27818 67.10773
# Shear Modulus (GPa) = 16.59937 29.41456 23.00697
#
# Velocity S-wave (km/s) = 2.96652 3.94896 3.49246
# Velocity P-wave (km/s) = 6.83306 7.54921 7.20005
#
# Compressibility (1/GPa) = 0.01516593
#
# Stress axis : x y z
#
# Youngs Moduli (GPa) = 105.45755 88.95695 120.30070
#
# Poissons Ratio (x) = 0.16742 0.30387
# Poissons Ratio (y) = 0.19848 0.30403
# Poissons Ratio (z) = 0.26638 0.22481
#
# Static dielectric constant tensor:
#      x y z
#    x 1.540310 0.000000 0.000000 
#    y 0.000000 1.639780 0.000000 
#    z 0.000000 0.000000 1.641030 
# 
# From -- ./inp_files/32005.got.cif
#   From: 2010.05.17/outbox.cif.g08.bks.cpg/sg52_17_cif.got.tgz:32005.got - 2010.06.03 12:15:38.
