data_PCOD9412587
_publ_section_title
;
Structure prediction by ZEFSAII (Michael W. Deem and Ramdas Pophale) SiO2 
 PCOD9412587
Probable space group: P N N A
;
_chemical_formula_sum "Si O2"
_cell_formula_units_Z 48
_cell_length_a 14.417038
_cell_length_b 27.893236
_cell_length_c 5.699219
_cell_angle_alpha 90.000000
_cell_angle_beta 90.000000
_cell_angle_gamma 90.000000
_cell_volume 2291.871637
_symmetry_space_group_name_H-M "P N N A"
_symmetry_group_IT_number 52
_symmetry_cell_setting 'orthorhombic'
loop_
_space_group_symop_operation_xyz
x,y,z
1/2-x,-y,z
x,1/2-y,1/2-z
1/2-x,1/2+y,1/2-z
-x,-y,-z
1/2+x,y,-z
-x,1/2+y,1/2+z
1/2+x,1/2-y,1/2+z
loop_
_atom_site_type_symbol
_atom_site_label
_atom_site_fract_x
_atom_site_fract_y
_atom_site_fract_z
Si Si1 0.532116 0.358241 0.631065
Si Si2 0.719004 0.948968 0.826705
Si Si3 0.011974 0.952231 0.153301
Si Si4 0.113393 0.721558 0.502347
Si Si5 0.732977 0.143404 0.089132
Si Si6 0.130915 0.403602 0.981577
O O1 0.492032 0.406211 0.515932
O O2 0.473847 0.313645 0.541522
O O3 0.636993 0.351560 0.547259
O O4 0.548367 0.371947 0.901897
O O5 0.614127 0.953136 0.729969
O O6 0.800449 0.933286 0.648951
O O7 0.750000 0.000000 0.928089
O O8 0.719988 0.906551 0.015278
O O9 0.924679 0.941558 0.321331
O O10 0.000000 0.000000 0.000000
O O11 0.116836 0.750000 0.750000
O O12 0.202196 0.686801 0.517792
O O13 0.110015 0.750000 0.250000
O O14 0.698653 0.134207 0.352707
#
# Coordination Sequence:
#
# PCOD9412587 Si02
#       6
#     8   8   8   8   8   8
#     4  10  24  45  71 102 146 188 242 313 371 450
#     4  11  23  40  68 102 145 189 244 299 371 453
#     4  11  23  42  68 102 148 188 246 300 373 456
#     4  12  30  48  79 112 144 198 258 315 390 445
#     4  10  24  46  71 100 149 186 243 312 369 443
#     4  10  24  41  70 101 143 200 238 304 384 436
#
# _framework density 20.943581999999999
#
# number of rings (size 3 to 8) (size 9 to 14) (size 15 to 20)
#    0.000    1.333    1.667    3.000   11.667    6.000 
#    0.000    0.000    0.000    0.000    0.000    0.000 
#    0.000    0.000    0.000    0.000    0.000    0.000 
#
# Total GULP energy -267579.264397 kJ/mol
# GULP energy per Si atom -5574.568008 kJ/mol
# Density = 2.089591 g / cm^3
# Si number density = 20.943582 Si / 1000 Ang^3
#
#
#
# Elastic Constant Matrix: (Units=GPa)
#
#
# Indices 1 2 3 4 5 6 
#
# 1 144.3194 61.0443 32.8374 0.0000 0.0000 0.0000
# 2 61.0443 156.2351 69.0114 0.0000 0.0000 0.0000
# 3 32.8374 69.0114 97.2057 0.0000 0.0000 0.0000
# 4 0.0000 0.0000 0.0000 14.2748 0.0000 0.0000
# 5 0.0000 0.0000 0.0000 0.0000 -7.4410 0.0000
# 6 0.0000 0.0000 0.0000 0.0000 0.0000 41.0594
#
#
#
# Elastic Compliance Matrix: (Units=1/GPa)
#
#
# Indices 1 2 3 4 5 6 
#
# 1 0.008337 -0.002933 -0.000734 0.000000 0.000000 0.000000
# 2 -0.002933 0.010357 -0.006362 0.000000 0.000000 0.000000
# 3 -0.000734 -0.006362 0.015052 0.000000 0.000000 0.000000
# 4 0.000000 0.000000 0.000000 0.070053 0.000000 0.000000
# 5 0.000000 0.000000 0.000000 0.000000 -0.134390 0.000000
# 6 0.000000 0.000000 0.000000 0.000000 0.000000 0.024355
#
#
# Mechanical properties :
#
#
# Convention : Reuss Voigt Hill
#
# Bulk Modulus (GPa) = 73.05874 80.39402 76.72638
# Shear Modulus (GPa) = 271.96167 25.23643 148.59905
#
# Velocity S-wave (km/s) = 11.40773 3.47504 8.43244
# Velocity P-wave (km/s) = 14.43864 7.38718 11.46832
#
# Compressibility (1/GPa) = 0.01368762
#
# Stress axis : x y z
#
# Youngs Moduli (GPa) = 119.95113 96.55439 66.43597
#
# Poissons Ratio (x) = 0.28321 0.04875
# Poissons Ratio (y) = 0.35184 0.42267
# Poissons Ratio (z) = 0.08803 0.61428
#
# Static dielectric constant tensor:
#      x y z
#    x 1.783320 0.000000 0.000000 
#    y 0.000000 1.734550 0.000000 
#    z 0.000000 0.000000 1.934810 
# 
# From -- ./inp_files/2483.got.cif
#   From: 2010.05.17/outbox.cif.g08.bks.cpg/sg52_2_cif.got.tgz:2483.got - 2010.06.03 12:15:38.
