data_PCOD9412376
_publ_section_title
;
Structure prediction by ZEFSAII (Michael W. Deem and Ramdas Pophale) SiO2 
 PCOD9412376
Probable space group: P N N A
;
_chemical_formula_sum "Si O2"
_cell_formula_units_Z 40
_cell_length_a 14.250563
_cell_length_b 19.010623
_cell_length_c 6.412903
_cell_angle_alpha 90.000000
_cell_angle_beta 90.000000
_cell_angle_gamma 90.000000
_cell_volume 1737.332895
_symmetry_space_group_name_H-M "P N N A"
_symmetry_group_IT_number 52
_symmetry_cell_setting 'orthorhombic'
loop_
_space_group_symop_operation_xyz
x,y,z
1/2-x,-y,z
x,1/2-y,1/2-z
1/2-x,1/2+y,1/2-z
-x,-y,-z
1/2+x,y,-z
-x,1/2+y,1/2+z
1/2+x,1/2-y,1/2+z
loop_
_atom_site_type_symbol
_atom_site_label
_atom_site_fract_x
_atom_site_fract_y
_atom_site_fract_z
Si Si1 0.886119 0.163434 0.239049
Si Si2 0.890715 0.054890 0.869382
Si Si3 0.176969 0.171926 0.824901
Si Si4 0.819364 0.914823 0.800336
Si Si5 0.468252 0.597300 0.943498
O O1 0.891773 0.250000 0.250000
O O2 0.776556 0.140202 0.252565
O O3 0.952798 0.135730 0.420263
O O4 0.914542 0.117190 0.032540
O O5 0.791300 0.075888 0.762512
O O6 0.973975 0.044306 0.703258
O O7 0.860550 0.977289 0.950763
O O8 0.186479 0.250000 0.750000
O O9 0.082808 0.146048 0.722071
O O10 0.170991 0.157021 0.070998
O O11 0.882053 0.919916 0.596532
#
# Coordination Sequence:
#
# PCOD9412376 Si02
#       5
#     8   8   8   8   8
#     4  10  24  43  63  91 130 173 218 267 319 377
#     4  10  23  43  65  95 135 172 211 265 325 384
#     4  10  24  43  63  91 130 173 218 267 319 377
#     4  10  23  43  65  95 135 172 211 265 325 384
#     4  12  23  36  68  96 127 168 218 264 317 388
#
# _framework density 23.023796999999998
#
# number of rings (size 3 to 8) (size 9 to 14) (size 15 to 20)
#    0.000    1.600    0.000    3.000    5.600    4.800 
#    0.000   10.000    0.000    0.000    0.000    0.000 
#    0.000    0.000    0.000    0.000    0.000    0.000 
#
# Total GULP energy -222831.390410 kJ/mol
# GULP energy per Si atom -5570.784760 kJ/mol
# Density = 2.297139 g / cm^3
# Si number density = 23.023797 Si / 1000 Ang^3
#
#
#
# Elastic Constant Matrix: (Units=GPa)
#
#
# Indices 1 2 3 4 5 6 
#
# 1 111.4833 -13.7411 41.4615 0.0000 0.0000 0.0000
# 2 -13.7411 34.2523 3.2197 0.0000 0.0000 0.0000
# 3 41.4615 3.2197 50.2761 0.0000 0.0000 0.0000
# 4 0.0000 0.0000 0.0000 11.3445 0.0000 0.0000
# 5 0.0000 0.0000 0.0000 0.0000 64.0747 0.0000
# 6 0.0000 0.0000 0.0000 0.0000 0.0000 31.0377
#
#
#
# Elastic Compliance Matrix: (Units=1/GPa)
#
#
# Indices 1 2 3 4 5 6 
#
# 1 0.014410 0.006940 -0.012328 0.000000 0.000000 0.000000
# 2 0.006940 0.032714 -0.007818 0.000000 0.000000 0.000000
# 3 -0.012328 -0.007818 0.030558 0.000000 0.000000 0.000000
# 4 0.000000 0.000000 0.000000 0.088148 0.000000 0.000000
# 5 0.000000 0.000000 0.000000 0.000000 0.015607 0.000000
# 6 0.000000 0.000000 0.000000 0.000000 0.000000 0.032219
#
#
# Mechanical properties :
#
#
# Convention : Reuss Voigt Hill
#
# Bulk Modulus (GPa) = 19.50498 28.65464 24.07981
# Shear Modulus (GPa) = 19.44322 32.29615 25.86969
#
# Velocity S-wave (km/s) = 2.90915 3.74937 3.35566
# Velocity P-wave (km/s) = 4.44683 5.58716 5.04929
#
# Compressibility (1/GPa) = 0.05126895
#
# Stress axis : x y z
#
# Youngs Moduli (GPa) = 69.39468 30.56789 32.72499
#
# Poissons Ratio (x) = -0.21214 0.40344
# Poissons Ratio (y) = -0.48159 0.25585
# Poissons Ratio (z) = 0.85552 0.23898
#
# Static dielectric constant tensor:
#      x y z
#    x 1.890600 0.000000 0.000000 
#    y 0.000000 2.073380 0.000000 
#    z 0.000000 0.000000 1.944470 
# 
# From -- ./inp_files/2264.got.cif
#   From: 2010.05.17/outbox.cif.g08.bks.cpg/sg52_2_cif.got.tgz:2264.got - 2010.06.03 12:15:38.
