data_PCOD9412752
_publ_section_title
;
Structure prediction by ZEFSAII (Michael W. Deem and Ramdas Pophale) SiO2 
 PCOD9412752
Probable space group: P N N A
;
_chemical_formula_sum "Si O2"
_cell_formula_units_Z 40
_cell_length_a 9.533951
_cell_length_b 19.367205
_cell_length_c 9.357746
_cell_angle_alpha 90.000000
_cell_angle_beta 90.000000
_cell_angle_gamma 90.000000
_cell_volume 1727.870213
_symmetry_space_group_name_H-M "P N N A"
_symmetry_group_IT_number 52
_symmetry_cell_setting 'orthorhombic'
loop_
_space_group_symop_operation_xyz
x,y,z
1/2-x,-y,z
x,1/2-y,1/2-z
1/2-x,1/2+y,1/2-z
-x,-y,-z
1/2+x,y,-z
-x,1/2+y,1/2+z
1/2+x,1/2-y,1/2+z
loop_
_atom_site_type_symbol
_atom_site_label
_atom_site_fract_x
_atom_site_fract_y
_atom_site_fract_z
Si Si1 0.087915 0.342835 0.070521
Si Si2 0.277908 0.105036 0.978654
Si Si3 0.633352 0.754237 0.591211
Si Si4 0.456618 0.553026 0.321563
Si Si5 0.131468 0.440534 0.799910
O O1 0.232055 0.303977 0.105298
O O2 0.032256 0.386757 0.203320
O O3 0.113124 0.395209 0.939516
O O4 0.975201 0.287286 0.018591
O O5 0.417675 0.064247 0.934387
O O6 0.184233 0.104519 0.834394
O O7 0.318125 0.180305 0.033670
O O8 0.187222 0.067294 0.098513
O O9 0.569057 0.750000 0.750000
O O10 0.489695 0.481125 0.243081
O O11 0.250000 0.500000 0.822053
#
# Coordination Sequence:
#
# PCOD9412752 Si02
#       5
#     8   8   8   8   8
#     4  12  27  47  74 106 145 192 242 300 364 434
#     4  11  24  44  71 100 143 185 238 294 357 427
#     4  12  27  46  72 107 145 193 242 297 361 432
#     4  11  24  47  70 105 143 186 239 298 360 431
#     4  10  24  46  75 109 142 188 241 305 368 426
#
# _framework density 23.149885999999999
#
# number of rings (size 3 to 8) (size 9 to 14) (size 15 to 20)
#    0.000    0.800    2.000    4.800    5.600    1.600 
#    0.000    3.000    0.000    0.000    0.000    0.000 
#    0.000    0.000    0.000    0.000    0.000    0.000 
#
# Total GULP energy -224376.840407 kJ/mol
# GULP energy per Si atom -5609.421010 kJ/mol
# Density = 2.309720 g / cm^3
# Si number density = 23.149886 Si / 1000 Ang^3
#
#
#
# Elastic Constant Matrix: (Units=GPa)
#
#
# Indices 1 2 3 4 5 6 
#
# 1 63.7414 5.3327 31.8057 0.0000 0.0000 0.0000
# 2 5.3327 91.9893 59.5749 0.0000 0.0000 0.0000
# 3 31.8057 59.5749 103.0218 0.0000 0.0000 0.0000
# 4 0.0000 0.0000 0.0000 39.5400 0.0000 0.0000
# 5 0.0000 0.0000 0.0000 0.0000 24.1395 0.0000
# 6 0.0000 0.0000 0.0000 0.0000 0.0000 32.9962
#
#
#
# Elastic Compliance Matrix: (Units=1/GPa)
#
#
# Indices 1 2 3 4 5 6 
#
# 1 0.019624 0.004454 -0.008634 0.000000 0.000000 0.000000
# 2 0.004454 0.018391 -0.012010 0.000000 0.000000 0.000000
# 3 -0.008634 -0.012010 0.019317 0.000000 0.000000 0.000000
# 4 0.000000 0.000000 0.000000 0.025291 0.000000 0.000000
# 5 0.000000 0.000000 0.000000 0.000000 0.041426 0.000000
# 6 0.000000 0.000000 0.000000 0.000000 0.000000 0.030307
#
#
# Mechanical properties :
#
#
# Convention : Reuss Voigt Hill
#
# Bulk Modulus (GPa) = 40.07696 50.24212 45.15954
# Shear Modulus (GPa) = 25.63412 30.13776 27.88594
#
# Velocity S-wave (km/s) = 3.33124 3.61204 3.47447
# Velocity P-wave (km/s) = 5.66972 6.25666 5.97041
#
# Compressibility (1/GPa) = 0.02495199
#
# Stress axis : x y z
#
# Youngs Moduli (GPa) = 50.95788 54.37563 51.76694
#
# Poissons Ratio (x) = -0.24220 0.44697
# Poissons Ratio (y) = -0.22697 0.62172
# Poissons Ratio (z) = 0.43998 0.65305
#
# Static dielectric constant tensor:
#      x y z
#    x 1.872230 0.000000 0.000000 
#    y 0.000000 1.866760 0.000000 
#    z 0.000000 0.000000 1.836020 
# 
# From -- ./inp_files/8524.got.cif
#   From: 2010.05.17/outbox.cif.g08.bks.cpg/sg52_5_cif.got.tgz:8524.got - 2010.06.03 12:15:38.
