data_PCOD9412844
_publ_section_title
;
Structure prediction by ZEFSAII (Michael W. Deem and Ramdas Pophale) SiO2 
 PCOD9412844
Probable space group: P N N A
;
_chemical_formula_sum "Si O2"
_cell_formula_units_Z 48
_cell_length_a 12.705880
_cell_length_b 5.649696
_cell_length_c 27.241076
_cell_angle_alpha 90.000000
_cell_angle_beta 90.000000
_cell_angle_gamma 90.000000
_cell_volume 1955.483190
_symmetry_space_group_name_H-M "P N N A"
_symmetry_group_IT_number 52
_symmetry_cell_setting 'orthorhombic'
loop_
_space_group_symop_operation_xyz
x,y,z
1/2-x,-y,z
x,1/2-y,1/2-z
1/2-x,1/2+y,1/2-z
-x,-y,-z
1/2+x,y,-z
-x,1/2+y,1/2+z
1/2+x,1/2-y,1/2+z
loop_
_atom_site_type_symbol
_atom_site_label
_atom_site_fract_x
_atom_site_fract_y
_atom_site_fract_z
Si Si1 0.501536 0.752445 0.152696
Si Si2 0.063257 0.772809 0.031496
Si Si3 0.866000 0.496780 0.721098
Si Si4 0.404492 0.725124 0.054569
Si Si5 0.139573 0.421023 0.596886
Si Si6 0.360541 0.629109 0.802146
O O1 0.458536 0.976542 0.182257
O O2 0.414246 0.688818 0.112869
O O3 0.544121 0.550737 0.187445
O O4 0.596304 0.834577 0.118824
O O5 0.955886 0.795224 0.066049
O O6 0.129660 0.534500 0.037813
O O7 0.014556 0.752442 0.977107
O O8 0.130684 0.006696 0.043515
O O9 0.750000 0.500000 0.697177
O O10 0.869295 0.750000 0.750000
O O11 0.872200 0.250000 0.750000
O O12 0.250000 0.500000 0.572064
O O13 0.156411 0.271568 0.646950
O O14 0.250000 0.500000 0.793750
O O15 0.381759 0.750000 0.750000
#
# Coordination Sequence:
#
# PCOD9412844 Si02
#       6
#     8   8   8   8   8   8
#     4  11  24  39  65  90 126 175 220 278 342 402
#     4   9  18  34  58  85 121 162 205 263 318 381
#     4  10  25  46  66  92 122 162 220 285 344 407
#     4   9  18  35  58  89 117 153 211 266 323 386
#     4  11  22  38  57  90 135 177 223 264 324 406
#     4  12  26  40  55  90 138 189 234 279 324 399
#
# _framework density 24.546361999999998
#
# number of rings (size 3 to 8) (size 9 to 14) (size 15 to 20)
#    0.000    1.667    3.333    0.500    4.667    0.000 
#    0.000    0.833    0.000    0.000    0.000    5.833 
#    0.000    0.000    0.000    0.000    0.000    0.000 
#
# Total GULP energy -267451.618655 kJ/mol
# GULP energy per Si atom -5571.908722 kJ/mol
# Density = 2.449049 g / cm^3
# Si number density = 24.546362 Si / 1000 Ang^3
#
#
#
# Elastic Constant Matrix: (Units=GPa)
#
#
# Indices 1 2 3 4 5 6 
#
# 1 93.1236 24.3235 37.8157 0.0000 0.0000 0.0000
# 2 24.3235 174.7323 46.7184 0.0000 0.0000 0.0000
# 3 37.8157 46.7184 134.8506 0.0000 0.0000 0.0000
# 4 0.0000 0.0000 0.0000 63.3268 0.0000 0.0000
# 5 0.0000 0.0000 0.0000 0.0000 -37.2685 0.0000
# 6 0.0000 0.0000 0.0000 0.0000 0.0000 16.6140
#
#
#
# Elastic Compliance Matrix: (Units=1/GPa)
#
#
# Indices 1 2 3 4 5 6 
#
# 1 0.012236 -0.000866 -0.003131 0.000000 0.000000 0.000000
# 2 -0.000866 0.006369 -0.001963 0.000000 0.000000 0.000000
# 3 -0.003131 -0.001963 0.008974 0.000000 0.000000 0.000000
# 4 0.000000 0.000000 0.000000 0.015791 0.000000 0.000000
# 5 0.000000 0.000000 0.000000 0.000000 -0.026832 0.000000
# 6 0.000000 0.000000 0.000000 0.000000 0.000000 0.060190
#
#
# Mechanical properties :
#
#
# Convention : Reuss Voigt Hill
#
# Bulk Modulus (GPa) = 63.86942 68.93576 66.40259
# Shear Modulus (GPa) = 53.26596 28.12438 40.69517
#
# Velocity S-wave (km/s) = 4.66340 3.38859 4.07614
# Velocity P-wave (km/s) = 7.42110 6.59203 7.01882
#
# Compressibility (1/GPa) = 0.01565694
#
# Stress axis : x y z
#
# Youngs Moduli (GPa) = 81.72477 157.02062 111.43364
#
# Poissons Ratio (x) = 0.13600 0.34893
# Poissons Ratio (y) = 0.07078 0.21880
# Poissons Ratio (z) = 0.25590 0.30831
#
# Static dielectric constant tensor:
#      x y z
#    x 1.995600 0.000000 0.000000 
#    y 0.000000 2.128290 0.000000 
#    z 0.000000 0.000000 1.977610 
# 
# From -- ./inp_files/42999.got.cif
#   From: 2010.05.17/outbox.cif.g08.bks.cpg/sg52_22_cif.got.tgz:42999.got - 2010.06.03 12:15:38.
