data_PCOD9412996
_publ_section_title
;
Structure prediction by ZEFSAII (Michael W. Deem and Ramdas Pophale) SiO2 
 PCOD9412996
Probable space group: P N N A
;
_chemical_formula_sum "Si O2"
_cell_formula_units_Z 64
_cell_length_a 14.556729
_cell_length_b 17.613982
_cell_length_c 12.661181
_cell_angle_alpha 90.000000
_cell_angle_beta 90.000000
_cell_angle_gamma 90.000000
_cell_volume 3246.351657
_symmetry_space_group_name_H-M "P N N A"
_symmetry_group_IT_number 52
_symmetry_cell_setting 'orthorhombic'
loop_
_space_group_symop_operation_xyz
x,y,z
1/2-x,-y,z
x,1/2-y,1/2-z
1/2-x,1/2+y,1/2-z
-x,-y,-z
1/2+x,y,-z
-x,1/2+y,1/2+z
1/2+x,1/2-y,1/2+z
loop_
_atom_site_type_symbol
_atom_site_label
_atom_site_fract_x
_atom_site_fract_y
_atom_site_fract_z
Si Si1 0.076095 0.124415 0.965977
Si Si2 0.509078 0.942602 0.762749
Si Si3 0.151279 0.517681 0.423694
Si Si4 0.112728 0.644579 0.582955
Si Si5 0.630380 0.266120 0.125704
Si Si6 0.154101 0.952727 0.707424
Si Si7 0.081264 0.693314 0.152397
Si Si8 0.182322 0.812539 0.563123
O O1 0.034293 0.115432 0.848450
O O2 0.144644 0.193296 0.949663
O O3 0.995939 0.142333 0.050602
O O4 0.124776 0.045201 0.989708
O O5 0.573082 0.992658 0.837008
O O6 0.574240 0.892593 0.691176
O O7 0.429122 0.987156 0.705207
O O8 0.250000 0.500000 0.378905
O O9 0.151403 0.600091 0.479147
O O10 0.141939 0.592555 0.681636
O O11 0.146545 0.730201 0.605593
O O12 0.645864 0.250000 0.250000
O O13 0.523458 0.288461 0.114000
O O14 0.709530 0.321686 0.087380
O O15 0.141961 0.887493 0.618877
O O16 0.250000 0.000000 0.703528
O O17 0.101333 0.750000 0.250000
O O18 0.152962 0.695993 0.058159
#
# Coordination Sequence:
#
# PCOD9412996 Si02
#       8
#     8   8   8   8   8   8   8   8
#     4  11  19  36  66  98 126 165 213 272 325 386
#     4  11  21  39  61  87 126 171 215 252 321 394
#     4  11  21  35  61  98 129 164 207 269 328 384
#     4  11  20  38  62  94 133 160 208 277 334 377
#     4  11  21  39  67  96 128 168 213 264 331 392
#     4  12  25  40  62  95 133 173 216 270 332 387
#     4  11  22  44  70  89 125 175 219 265 327 397
#     4  12  26  40  65  99 129 166 223 277 326 396
#
# _framework density 19.714438999999999
#
# number of rings (size 3 to 8) (size 9 to 14) (size 15 to 20)
#    0.000    0.750    6.250    4.500    1.750    0.500 
#    0.000    1.875    2.750    0.000    0.000    0.000 
#    0.000    0.000    0.000    0.000    0.000    0.000 
#
# Total GULP energy -356938.114897 kJ/mol
# GULP energy per Si atom -5577.158045 kJ/mol
# Density = 1.966957 g / cm^3
# Si number density = 19.714439 Si / 1000 Ang^3
#
#
#
# Elastic Constant Matrix: (Units=GPa)
#
#
# Indices 1 2 3 4 5 6 
#
# 1 47.6823 -3.4698 31.7827 0.0000 0.0000 0.0000
# 2 -3.4698 77.0377 28.3831 0.0000 0.0000 0.0000
# 3 31.7827 28.3831 72.1015 0.0000 0.0000 0.0000
# 4 0.0000 0.0000 0.0000 30.9415 0.0000 0.0000
# 5 0.0000 0.0000 0.0000 0.0000 13.2300 0.0000
# 6 0.0000 0.0000 0.0000 0.0000 0.0000 24.0804
#
#
#
# Elastic Compliance Matrix: (Units=1/GPa)
#
#
# Indices 1 2 3 4 5 6 
#
# 1 0.033563 0.008144 -0.018000 0.000000 0.000000 0.000000
# 2 0.008144 0.017159 -0.010344 0.000000 0.000000 0.000000
# 3 -0.018000 -0.010344 0.025876 0.000000 0.000000 0.000000
# 4 0.000000 0.000000 0.000000 0.032319 0.000000 0.000000
# 5 0.000000 0.000000 0.000000 0.000000 0.075586 0.000000
# 6 0.000000 0.000000 0.000000 0.000000 0.000000 0.041528
#
#
# Mechanical properties :
#
#
# Convention : Reuss Voigt Hill
#
# Bulk Modulus (GPa) = 27.62785 34.46816 31.04800
# Shear Modulus (GPa) = 17.95348 22.99208 20.47278
#
# Velocity S-wave (km/s) = 3.02102 3.41875 3.22602
# Velocity P-wave (km/s) = 5.11988 5.75374 5.44604
#
# Compressibility (1/GPa) = 0.03619537
#
# Stress axis : x y z
#
# Youngs Moduli (GPa) = 29.79471 58.27981 38.64571
#
# Poissons Ratio (x) = -0.47461 0.69564
# Poissons Ratio (y) = -0.24264 0.39976
# Poissons Ratio (z) = 0.53632 0.60286
#
# Static dielectric constant tensor:
#      x y z
#    x 1.728470 0.000000 0.000000 
#    y 0.000000 1.776490 0.000000 
#    z 0.000000 0.000000 1.691570 
# 
# From -- ./inp_files/19883.got.cif
#   From: 2010.05.17/outbox.cif.g08.bks.cpg/sg52_10_cif.got.tgz:19883.got - 2010.06.03 12:15:38.
