data_PCOD9412141
_publ_section_title
;
Structure prediction by ZEFSAII (Michael W. Deem and Ramdas Pophale) SiO2 
 PCOD9412141
Probable space group: P N N A
;
_chemical_formula_sum "Si O2"
_cell_formula_units_Z 32
_cell_length_a 11.202843
_cell_length_b 10.481322
_cell_length_c 11.500237
_cell_angle_alpha 90.000000
_cell_angle_beta 90.000000
_cell_angle_gamma 90.000000
_cell_volume 1350.364784
_symmetry_space_group_name_H-M "P N N A"
_symmetry_group_IT_number 52
_symmetry_cell_setting 'orthorhombic'
loop_
_space_group_symop_operation_xyz
x,y,z
1/2-x,-y,z
x,1/2-y,1/2-z
1/2-x,1/2+y,1/2-z
-x,-y,-z
1/2+x,y,-z
-x,1/2+y,1/2+z
1/2+x,1/2-y,1/2+z
loop_
_atom_site_type_symbol
_atom_site_label
_atom_site_fract_x
_atom_site_fract_y
_atom_site_fract_z
Si Si1 0.376517 0.423009 0.963326
Si Si2 0.999490 0.997047 0.138720
Si Si3 0.250000 0.000000 0.932628
Si Si4 0.467732 0.250000 0.750000
Si Si5 0.693968 0.703116 0.632037
O O1 0.250000 0.500000 0.949485
O O2 0.400116 0.330670 0.851517
O O3 0.500000 0.500000 0.000000
O O4 0.353757 0.327645 0.069094
O O5 0.033083 0.135162 0.184430
O O6 0.859543 0.978569 0.154848
O O7 0.087001 0.887703 0.177479
O O8 0.000000 0.000000 0.000000
O O9 0.246140 0.881582 0.024446
O O10 0.756655 0.750000 0.750000
#
# Coordination Sequence:
#
# PCOD9412141 Si02
#       5
#     8   8   4   4   8
#     4  12  30  51  78 121 158 211 275 331 403 490
#     4  10  22  45  70 104 142 196 249 313 391 463
#     4  10  22  44  72 102 142 196 244 310 392 458
#     4  12  24  50  80 110 164 208 262 336 400 480
#     4  11  25  47  71 106 150 200 254 323 388 467
#
# _framework density 23.697299999999998
#
# number of rings (size 3 to 8) (size 9 to 14) (size 15 to 20)
#    0.000    1.000    5.000    1.500    7.000    0.000 
#   15.750    0.000    0.000    0.000    0.000    0.000 
#    0.000    0.000    0.000    0.000    0.000    0.000 
#
# Total GULP energy -178299.917898 kJ/mol
# GULP energy per Si atom -5571.872434 kJ/mol
# Density = 2.364336 g / cm^3
# Si number density = 23.697300 Si / 1000 Ang^3
#
#
#
# Elastic Constant Matrix: (Units=GPa)
#
#
# Indices 1 2 3 4 5 6 
#
# 1 155.0043 79.4816 29.6768 0.0000 0.0000 0.0000
# 2 79.4816 172.5536 78.1579 0.0000 0.0000 0.0000
# 3 29.6768 78.1579 145.1560 0.0000 0.0000 0.0000
# 4 0.0000 0.0000 0.0000 72.5523 0.0000 0.0000
# 5 0.0000 0.0000 0.0000 0.0000 20.6213 0.0000
# 6 0.0000 0.0000 0.0000 0.0000 0.0000 37.3218
#
#
#
# Elastic Compliance Matrix: (Units=1/GPa)
#
#
# Indices 1 2 3 4 5 6 
#
# 1 0.008472 -0.004124 0.000488 0.000000 0.000000 0.000000
# 2 -0.004124 0.009672 -0.004365 0.000000 0.000000 0.000000
# 3 0.000488 -0.004365 0.009139 0.000000 0.000000 0.000000
# 4 0.000000 0.000000 0.000000 0.013783 0.000000 0.000000
# 5 0.000000 0.000000 0.000000 0.000000 0.048494 0.000000
# 6 0.000000 0.000000 0.000000 0.000000 0.000000 0.026794
#
#
# Mechanical properties :
#
#
# Convention : Reuss Voigt Hill
#
# Bulk Modulus (GPa) = 88.62563 94.14960 91.38762
# Shear Modulus (GPa) = 36.73351 45.12560 40.92956
#
# Velocity S-wave (km/s) = 3.94142 4.36851 4.16045
# Velocity P-wave (km/s) = 7.62845 8.07846 7.85668
#
# Compressibility (1/GPa) = 0.01128342
#
# Stress axis : x y z
#
# Youngs Moduli (GPa) = 118.02914 103.39469 109.41664
#
# Poissons Ratio (x) = 0.42637 -0.05342
# Poissons Ratio (y) = 0.48672 0.47755
# Poissons Ratio (z) = -0.05762 0.45127
#
# Static dielectric constant tensor:
#      x y z
#    x 2.992030 0.000000 0.000000 
#    y 0.000000 1.864390 0.000000 
#    z 0.000000 0.000000 1.893850 
# 
# From -- ./inp_files/25619.got.cif
#   From: 2010.05.17/outbox.cif.g08.bks.cpg/sg52_13_cif.got.tgz:25619.got - 2010.06.03 12:15:38.
