data_PCOD9412770
_publ_section_title
;
Structure prediction by ZEFSAII (Michael W. Deem and Ramdas Pophale) SiO2 
 PCOD9412770
Probable space group: P N N A
;
_chemical_formula_sum "Si O2"
_cell_formula_units_Z 40
_cell_length_a 9.273189
_cell_length_b 19.636255
_cell_length_c 8.743205
_cell_angle_alpha 90.000000
_cell_angle_beta 90.000000
_cell_angle_gamma 90.000000
_cell_volume 1592.056353
_symmetry_space_group_name_H-M "P N N A"
_symmetry_group_IT_number 52
_symmetry_cell_setting 'orthorhombic'
loop_
_space_group_symop_operation_xyz
x,y,z
1/2-x,-y,z
x,1/2-y,1/2-z
1/2-x,1/2+y,1/2-z
-x,-y,-z
1/2+x,y,-z
-x,1/2+y,1/2+z
1/2+x,1/2-y,1/2+z
loop_
_atom_site_type_symbol
_atom_site_label
_atom_site_fract_x
_atom_site_fract_y
_atom_site_fract_z
Si Si1 0.856560 0.938268 0.139756
Si Si2 0.525371 0.207714 0.560602
Si Si3 0.756849 0.351464 0.113999
Si Si4 0.134440 0.354300 0.355286
Si Si5 0.852506 0.434321 0.814894
O O1 0.752460 0.882660 0.219718
O O2 0.985924 0.953215 0.260225
O O3 0.750000 0.000000 0.108194
O O4 0.915679 0.907498 0.982108
O O5 0.593378 0.173286 0.414110
O O6 0.355740 0.213613 0.576409
O O7 0.605357 0.278178 0.586931
O O8 0.555310 0.151217 0.692279
O O9 0.816822 0.405198 0.985908
O O10 0.294179 0.376464 0.302778
O O11 0.750000 0.500000 0.796206
#
# Coordination Sequence:
#
# PCOD9412770 Si02
#       5
#     8   8   8   8   8
#     4  12  28  44  75 111 144 192 245 298 363 427
#     4  10  24  47  74 100 144 187 234 297 363 433
#     4  11  24  47  72 107 137 193 243 294 360 431
#     4  10  26  45  72 105 146 181 238 299 370 422
#     4  11  26  48  72 101 149 194 241 299 357 438
#
# _framework density 25.124737
#
# number of rings (size 3 to 8) (size 9 to 14) (size 15 to 20)
#    0.000    1.200    2.000    1.200   11.200    5.600 
#    0.000    0.000    0.000    0.000    0.000    0.000 
#    0.000    0.000    0.000    0.000    0.000    0.000 
#
# Total GULP energy -223324.097354 kJ/mol
# GULP energy per Si atom -5583.102434 kJ/mol
# Density = 2.506755 g / cm^3
# Si number density = 25.124737 Si / 1000 Ang^3
#
#
#
# Elastic Constant Matrix: (Units=GPa)
#
#
# Indices 1 2 3 4 5 6 
#
# 1 96.7544 27.2528 -18.7371 0.0000 0.0000 0.0000
# 2 27.2528 96.1094 24.4865 0.0000 0.0000 0.0000
# 3 -18.7371 24.4865 44.9652 0.0000 0.0000 0.0000
# 4 0.0000 0.0000 0.0000 37.6903 0.0000 0.0000
# 5 0.0000 0.0000 0.0000 0.0000 25.9548 0.0000
# 6 0.0000 0.0000 0.0000 0.0000 0.0000 20.7522
#
#
#
# Elastic Compliance Matrix: (Units=1/GPa)
#
#
# Indices 1 2 3 4 5 6 
#
# 1 0.013889 -0.006285 0.009210 0.000000 0.000000 0.000000
# 2 -0.006285 0.014925 -0.010747 0.000000 0.000000 0.000000
# 3 0.009210 -0.010747 0.031930 0.000000 0.000000 0.000000
# 4 0.000000 0.000000 0.000000 0.026532 0.000000 0.000000
# 5 0.000000 0.000000 0.000000 0.000000 0.038529 0.000000
# 6 0.000000 0.000000 0.000000 0.000000 0.000000 0.048188
#
#
# Mechanical properties :
#
#
# Convention : Reuss Voigt Hill
#
# Bulk Modulus (GPa) = 22.17224 33.75924 27.96574
# Shear Modulus (GPa) = 24.42971 30.53458 27.48215
#
# Velocity S-wave (km/s) = 3.12161 3.48993 3.31090
# Velocity P-wave (km/s) = 4.67297 5.45025 5.07651
#
# Compressibility (1/GPa) = 0.04510145
#
# Stress axis : x y z
#
# Youngs Moduli (GPa) = 71.99724 67.00165 31.31882
#
# Poissons Ratio (x) = 0.42111 -0.28846
# Poissons Ratio (y) = 0.45251 0.33657
# Poissons Ratio (z) = -0.66312 0.72004
#
# Static dielectric constant tensor:
#      x y z
#    x 2.172400 0.000000 0.000000 
#    y 0.000000 1.965070 0.000000 
#    z 0.000000 0.000000 1.958130 
# 
# From -- ./inp_files/7434.got.cif
#   From: 2010.05.17/outbox.cif.g08.bks.cpg/sg52_4_cif.got.tgz:7434.got - 2010.06.03 12:15:38.
