data_PCOD9412116
_publ_section_title
;
Structure prediction by ZEFSAII (Michael W. Deem and Ramdas Pophale) SiO2 
 PCOD9412116
Probable space group: P N N A
;
_chemical_formula_sum "Si O2"
_cell_formula_units_Z 40
_cell_length_a 18.546540
_cell_length_b 9.476507
_cell_length_c 10.822650
_cell_angle_alpha 90.000000
_cell_angle_beta 90.000000
_cell_angle_gamma 90.000000
_cell_volume 1902.150177
_symmetry_space_group_name_H-M "P N N A"
_symmetry_group_IT_number 52
_symmetry_cell_setting 'orthorhombic'
loop_
_space_group_symop_operation_xyz
x,y,z
1/2-x,-y,z
x,1/2-y,1/2-z
1/2-x,1/2+y,1/2-z
-x,-y,-z
1/2+x,y,-z
-x,1/2+y,1/2+z
1/2+x,1/2-y,1/2+z
loop_
_atom_site_type_symbol
_atom_site_label
_atom_site_fract_x
_atom_site_fract_y
_atom_site_fract_z
Si Si1 0.809622 0.222949 0.881040
Si Si2 0.069389 0.019254 0.090582
Si Si3 0.920564 0.809614 0.467435
Si Si4 0.943677 0.424576 0.858356
Si Si5 0.766172 0.833281 0.371160
O O1 0.766490 0.250000 0.750000
O O2 0.858394 0.081979 0.912181
O O3 0.870098 0.340312 0.857781
O O4 0.765727 0.265345 0.003145
O O5 0.040529 0.997082 0.228510
O O6 0.090949 0.178374 0.057720
O O7 0.000000 0.000000 0.000000
O O8 0.852120 0.818921 0.380083
O O9 0.995347 0.811056 0.392956
O O10 0.930261 0.952835 0.543742
O O11 0.739121 0.750000 0.250000
O O12 0.750000 0.000000 0.365320
#
# Coordination Sequence:
#
# PCOD9412116 Si02
#       5
#     8   8   8   8   8
#     4  10  23  47  70  97 140 185 231 292 346 412
#     4  11  23  38  70 104 133 171 236 287 347 410
#     4  11  24  43  69  97 136 182 227 285 350 414
#     4  10  22  44  67  99 133 181 229 290 345 409
#     4  12  29  48  69 103 145 187 232 289 354 425
#
# _framework density 21.028834
#
# number of rings (size 3 to 8) (size 9 to 14) (size 15 to 20)
#    0.000    1.200    4.000    0.600    5.600    1.600 
#    0.000    0.000    0.000    0.000    0.000    0.000 
#    0.000    0.000    0.000    0.000    0.000    0.000 
#
# Total GULP energy -222985.594236 kJ/mol
# GULP energy per Si atom -5574.639856 kJ/mol
# Density = 2.098097 g / cm^3
# Si number density = 21.028834 Si / 1000 Ang^3
#
#
#
# Elastic Constant Matrix: (Units=GPa)
#
#
# Indices 1 2 3 4 5 6 
#
# 1 49.4830 0.0244 27.7494 0.0000 0.0000 0.0000
# 2 0.0244 109.4825 22.5896 0.0000 0.0000 0.0000
# 3 27.7494 22.5896 137.5626 0.0000 0.0000 0.0000
# 4 0.0000 0.0000 0.0000 709.7171 0.0000 0.0000
# 5 0.0000 0.0000 0.0000 0.0000 23.9729 0.0000
# 6 0.0000 0.0000 0.0000 0.0000 0.0000 8.7874
#
#
#
# Elastic Compliance Matrix: (Units=1/GPa)
#
#
# Indices 1 2 3 4 5 6 
#
# 1 0.022888 0.000981 -0.004778 0.000000 0.000000 0.000000
# 2 0.000981 0.009496 -0.001757 0.000000 0.000000 0.000000
# 3 -0.004778 -0.001757 0.008522 0.000000 0.000000 0.000000
# 4 0.000000 0.000000 0.000000 0.001409 0.000000 0.000000
# 5 0.000000 0.000000 0.000000 0.000000 0.041714 0.000000
# 6 0.000000 0.000000 0.000000 0.000000 0.000000 0.113799
#
#
# Mechanical properties :
#
#
# Convention : Reuss Voigt Hill
#
# Bulk Modulus (GPa) = 33.56055 44.13945 38.85000
# Shear Modulus (GPa) = 22.84472 164.90646 93.87559
#
# Velocity S-wave (km/s) = 3.29956 8.86507 6.68867
# Velocity P-wave (km/s) = 5.52359 11.21702 8.84114
#
# Compressibility (1/GPa) = 0.02979689
#
# Stress axis : x y z
#
# Youngs Moduli (GPa) = 43.69111 105.30491 117.34579
#
# Poissons Ratio (x) = -0.10328 0.56069
# Poissons Ratio (y) = -0.04285 0.20621
# Poissons Ratio (z) = 0.20876 0.18505
#
# Static dielectric constant tensor:
#      x y z
#    x 1.775980 0.000000 0.000000 
#    y 0.000000 1.756620 0.000000 
#    z 0.000000 0.000000 1.629880 
# 
# From -- ./inp_files/20339.got.cif
#   From: 2010.05.17/outbox.cif.g08.bks.cpg/sg52_11_cif.got.tgz:20339.got - 2010.06.03 12:15:38.
