data_PCOD9412467
_publ_section_title
;
Structure prediction by ZEFSAII (Michael W. Deem and Ramdas Pophale) SiO2 
 PCOD9412467
Probable space group: P N N A
;
_chemical_formula_sum "Si O2"
_cell_formula_units_Z 40
_cell_length_a 19.357329
_cell_length_b 17.301500
_cell_length_c 5.733795
_cell_angle_alpha 90.000000
_cell_angle_beta 90.000000
_cell_angle_gamma 90.000000
_cell_volume 1920.310029
_symmetry_space_group_name_H-M "P N N A"
_symmetry_group_IT_number 52
_symmetry_cell_setting 'orthorhombic'
loop_
_space_group_symop_operation_xyz
x,y,z
1/2-x,-y,z
x,1/2-y,1/2-z
1/2-x,1/2+y,1/2-z
-x,-y,-z
1/2+x,y,-z
-x,1/2+y,1/2+z
1/2+x,1/2-y,1/2+z
loop_
_atom_site_type_symbol
_atom_site_label
_atom_site_fract_x
_atom_site_fract_y
_atom_site_fract_z
Si Si1 0.822253 0.470651 0.465629
Si Si2 0.428826 0.085111 0.342574
Si Si3 0.915868 0.931544 0.342849
Si Si4 0.172355 0.206841 0.491071
Si Si5 0.821265 0.170343 0.387459
O O1 0.750000 0.500000 0.569273
O O2 0.875984 0.431408 0.636921
O O3 0.863333 0.543310 0.359077
O O4 0.806970 0.405291 0.271666
O O5 0.507812 0.094892 0.265559
O O6 0.393036 0.154360 0.482061
O O7 0.425638 0.009234 0.506234
O O8 0.878836 0.865114 0.486886
O O9 0.154441 0.250000 0.250000
O O10 0.251951 0.179842 0.461344
O O11 0.168932 0.250000 0.750000
O O12 0.827803 0.250000 0.250000
#
# Coordination Sequence:
#
# PCOD9412467 Si02
#       5
#     8   8   8   8   8
#     4  11  22  39  69  97 129 177 234 286 349 418
#     4  10  24  39  69  93 129 183 217 297 342 416
#     4  10  23  45  60  99 135 172 235 278 350 414
#     4  11  26  44  69 100 139 186 229 283 340 409
#     4  10  24  41  61  98 134 173 234 284 344 413
#
# _framework density 20.829968999999998
#
# number of rings (size 3 to 8) (size 9 to 14) (size 15 to 20)
#    0.000    1.600    2.000    0.600   11.200    0.800 
#    3.600    0.000    0.000    0.000    0.000    0.000 
#    0.000    0.000    0.000    0.000    0.000    0.000 
#
# Total GULP energy -223252.567791 kJ/mol
# GULP energy per Si atom -5581.314195 kJ/mol
# Density = 2.078256 g / cm^3
# Si number density = 20.829969 Si / 1000 Ang^3
#
#
#
# Elastic Constant Matrix: (Units=GPa)
#
#
# Indices 1 2 3 4 5 6 
#
# 1 163.9922 67.3768 29.2303 0.0000 0.0000 0.0000
# 2 67.3768 67.9355 14.1518 0.0000 0.0000 0.0000
# 3 29.2303 14.1518 47.8036 0.0000 0.0000 0.0000
# 4 0.0000 0.0000 0.0000 28.0780 0.0000 0.0000
# 5 0.0000 0.0000 0.0000 0.0000 20.8735 0.0000
# 6 0.0000 0.0000 0.0000 0.0000 0.0000 30.2761
#
#
#
# Elastic Compliance Matrix: (Units=1/GPa)
#
#
# Indices 1 2 3 4 5 6 
#
# 1 0.010867 -0.010011 -0.003681 0.000000 0.000000 0.000000
# 2 -0.010011 0.024909 -0.001253 0.000000 0.000000 0.000000
# 3 -0.003681 -0.001253 0.023541 0.000000 0.000000 0.000000
# 4 0.000000 0.000000 0.000000 0.035615 0.000000 0.000000
# 5 0.000000 0.000000 0.000000 0.000000 0.047908 0.000000
# 6 0.000000 0.000000 0.000000 0.000000 0.000000 0.033029
#
#
# Mechanical properties :
#
#
# Convention : Reuss Voigt Hill
#
# Bulk Modulus (GPa) = 33.98205 55.69433 44.83819
# Shear Modulus (GPa) = 23.19456 27.11034 25.15245
#
# Velocity S-wave (km/s) = 3.34056 3.61155 3.47870
# Velocity P-wave (km/s) = 5.58825 6.64731 6.14066
#
# Compressibility (1/GPa) = 0.02942730
#
# Stress axis : x y z
#
# Youngs Moduli (GPa) = 92.02213 40.14570 42.47952
#
# Poissons Ratio (x) = 0.40189 0.15638
# Poissons Ratio (y) = 0.92121 0.05322
# Poissons Ratio (z) = 0.33875 0.05030
#
# Static dielectric constant tensor:
#      x y z
#    x 1.743070 0.000000 0.000000 
#    y 0.000000 1.775520 0.000000 
#    z 0.000000 0.000000 1.841970 
# 
# From -- ./inp_files/3166.got.cif
#   From: 2010.05.17/outbox.cif.g08.bks.cpg/sg52_2_cif.got.tgz:3166.got - 2010.06.03 12:15:38.
