data_PCOD9412016
_publ_section_title
;
Structure prediction by ZEFSAII (Michael W. Deem and Ramdas Pophale) SiO2 
 PCOD9412016
Probable space group: P N N A
;
_chemical_formula_sum "Si O2"
_cell_formula_units_Z 32
_cell_length_a 9.172298
_cell_length_b 14.107023
_cell_length_c 10.864887
_cell_angle_alpha 90.000000
_cell_angle_beta 90.000000
_cell_angle_gamma 90.000000
_cell_volume 1405.849220
_symmetry_space_group_name_H-M "P N N A"
_symmetry_group_IT_number 52
_symmetry_cell_setting 'orthorhombic'
loop_
_space_group_symop_operation_xyz
x,y,z
1/2-x,-y,z
x,1/2-y,1/2-z
1/2-x,1/2+y,1/2-z
-x,-y,-z
1/2+x,y,-z
-x,1/2+y,1/2+z
1/2+x,1/2-y,1/2+z
loop_
_atom_site_type_symbol
_atom_site_label
_atom_site_fract_x
_atom_site_fract_y
_atom_site_fract_z
Si Si1 0.363023 0.585029 0.067088
Si Si2 0.581426 0.473296 0.197080
Si Si3 0.675673 0.214456 0.889979
Si Si4 0.536221 0.896884 0.942062
O O1 0.250000 0.500000 0.082159
O O2 0.479275 0.566419 0.177271
O O3 0.278886 0.683567 0.057161
O O4 0.437924 0.576181 0.934467
O O5 0.750000 0.500000 0.212556
O O6 0.535457 0.406163 0.307749
O O7 0.653092 0.250000 0.750000
O O8 0.798336 0.134871 0.913905
O O9 0.535462 0.177905 0.964410
O O10 0.500000 0.000000 0.000000
#
# Coordination Sequence:
#
# PCOD9412016 Si02
#       4
#     8   8   8   8
#     4  10  23  43  70 110 148 189 247 312 377 446
#     4  10  22  42  76 101 149 192 245 306 379 448
#     4  12  28  45  75 109 146 196 254 312 381 464
#     4  12  27  49  72 105 152 199 249 314 385 456
#
# _framework density 22.762042999999998
#
# number of rings (size 3 to 8) (size 9 to 14) (size 15 to 20)
#    0.000    1.000    0.000    5.250   14.000    0.000 
#    0.000    0.000    0.000    0.000    0.000    0.000 
#    0.000    0.000    0.000    0.000    0.000    0.000 
#
# Total GULP energy -178548.109200 kJ/mol
# GULP energy per Si atom -5579.628412 kJ/mol
# Density = 2.271024 g / cm^3
# Si number density = 22.762043 Si / 1000 Ang^3
#
#
#
# Elastic Constant Matrix: (Units=GPa)
#
#
# Indices 1 2 3 4 5 6 
#
# 1 86.4130 4.0835 31.6642 0.0000 0.0000 0.0000
# 2 4.0835 110.7199 10.1609 0.0000 0.0000 0.0000
# 3 31.6642 10.1609 130.9872 0.0000 0.0000 0.0000
# 4 0.0000 0.0000 0.0000 26.9700 0.0000 0.0000
# 5 0.0000 0.0000 0.0000 0.0000 12.9149 0.0000
# 6 0.0000 0.0000 0.0000 0.0000 0.0000 45.6518
#
#
#
# Elastic Compliance Matrix: (Units=1/GPa)
#
#
# Indices 1 2 3 4 5 6 
#
# 1 0.012701 -0.000188 -0.003056 0.000000 0.000000 0.000000
# 2 -0.000188 0.009099 -0.000660 0.000000 0.000000 0.000000
# 3 -0.003056 -0.000660 0.008424 0.000000 0.000000 0.000000
# 4 0.000000 0.000000 0.000000 0.037078 0.000000 0.000000
# 5 0.000000 0.000000 0.000000 0.000000 0.077430 0.000000
# 6 0.000000 0.000000 0.000000 0.000000 0.000000 0.021905
#
#
# Mechanical properties :
#
#
# Convention : Reuss Voigt Hill
#
# Bulk Modulus (GPa) = 44.61038 46.65971 45.63505
# Shear Modulus (GPa) = 27.48492 35.92143 31.70317
#
# Velocity S-wave (km/s) = 3.47866 3.97688 3.73608
# Velocity P-wave (km/s) = 5.98130 6.45219 6.22120
#
# Compressibility (1/GPa) = 0.02241631
#
# Stress axis : x y z
#
# Youngs Moduli (GPa) = 78.73457 109.89806 118.70531
#
# Poissons Ratio (x) = 0.02066 0.36272
# Poissons Ratio (y) = 0.01480 0.07839
# Poissons Ratio (z) = 0.24059 0.07258
#
# Static dielectric constant tensor:
#      x y z
#    x 2.032840 0.000000 0.000000 
#    y 0.000000 2.209110 0.000000 
#    z 0.000000 0.000000 1.963960 
# 
# From -- ./inp_files/16493.got.cif
#   From: 2010.05.17/outbox.cif.g08.bks.cpg/sg52_9_cif.got.tgz:16493.got - 2010.06.03 12:15:38.
