data_PCOD9412319
_publ_section_title
;
Structure prediction by ZEFSAII (Michael W. Deem and Ramdas Pophale) SiO2 
 PCOD9412319
Probable space group: P N N A
;
_chemical_formula_sum "Si O2"
_cell_formula_units_Z 48
_cell_length_a 18.133598
_cell_length_b 15.709231
_cell_length_c 8.824241
_cell_angle_alpha 90.000000
_cell_angle_beta 90.000000
_cell_angle_gamma 90.000000
_cell_volume 2513.716352
_symmetry_space_group_name_H-M "P N N A"
_symmetry_group_IT_number 52
_symmetry_cell_setting 'orthorhombic'
loop_
_space_group_symop_operation_xyz
x,y,z
1/2-x,-y,z
x,1/2-y,1/2-z
1/2-x,1/2+y,1/2-z
-x,-y,-z
1/2+x,y,-z
-x,1/2+y,1/2+z
1/2+x,1/2-y,1/2+z
loop_
_atom_site_type_symbol
_atom_site_label
_atom_site_fract_x
_atom_site_fract_y
_atom_site_fract_z
Si Si1 0.792627 0.912156 0.431416
Si Si2 0.955797 0.920700 0.568434
Si Si3 0.709367 0.750000 0.930531
Si Si4 0.292627 0.912156 0.931416
Si Si5 0.452309 0.250000 0.930865
Si Si6 0.544203 0.420700 0.568434
O O1 0.874609 0.916229 0.498191
O O2 0.749015 0.833231 0.502485
O O3 0.795853 0.902233 0.250000
O O4 0.750000 0.000000 0.465044
O O5 0.950690 0.929210 0.750000
O O6 0.000225 0.833977 0.534914
O O7 0.000000 0.000000 0.500000
O O8 0.715696 0.750000 0.750000
O O9 0.749015 0.833231 0.997515
O O10 0.624349 0.750000 0.981021
O O11 0.250000 0.000000 0.965045
O O12 0.374608 0.916229 0.998192
O O13 0.436395 0.250000 0.750000
O O14 0.499775 0.166023 0.965086
O O15 0.500000 0.500000 0.500000
#
# Coordination Sequence:
#
# PCOD9412319 Si02
#       6
#     8   8   8   8   8   8
#     4  11  24  42  64  90 123 163 205 252 306 363
#     4  11  23  40  63  91 123 160 204 253 305 362
#     4  12  25  40  63  93 123 159 203 252 305 364
#     4  11  24  42  64  90 123 163 205 252 306 363
#     4  10  23  42  61  85 121 161 199 244 301 362
#     4  11  23  40  63  91 123 160 204 253 305 362
#
# _framework density 19.095233
#
# number of rings (size 3 to 8) (size 9 to 14) (size 15 to 20)
#    0.000    1.000    0.000    6.500    0.000   14.667 
#    0.000    0.000    0.000    0.000    0.000    0.000 
#    0.000    0.000    0.000    0.000    0.000    0.000 
#
# Total GULP energy -268719.870146 kJ/mol
# GULP energy per Si atom -5598.330628 kJ/mol
# Density = 1.905177 g / cm^3
# Si number density = 19.095233 Si / 1000 Ang^3
#
#
#
# Elastic Constant Matrix: (Units=GPa)
#
#
# Indices 1 2 3 4 5 6 
#
# 1 215.0433 129.1351 113.3985 0.0000 0.0000 0.0000
# 2 129.1351 222.2535 122.2306 0.0000 0.0000 0.0000
# 3 113.3985 122.2306 112.5246 0.0000 0.0000 0.0000
# 4 0.0000 0.0000 0.0000 22.1050 0.0000 0.0000
# 5 0.0000 0.0000 0.0000 0.0000 44.6713 0.0000
# 6 0.0000 0.0000 0.0000 0.0000 0.0000 38.4979
#
#
#
# Elastic Compliance Matrix: (Units=1/GPa)
#
#
# Indices 1 2 3 4 5 6 
#
# 1 0.009963 -0.000663 -0.009320 0.000000 0.000000 0.000000
# 2 -0.000663 0.011220 -0.011519 0.000000 0.000000 0.000000
# 3 -0.009320 -0.011519 0.030793 0.000000 0.000000 0.000000
# 4 0.000000 0.000000 0.000000 0.045239 0.000000 0.000000
# 5 0.000000 0.000000 0.000000 0.000000 0.022386 0.000000
# 6 0.000000 0.000000 0.000000 0.000000 0.000000 0.025975
#
#
# Mechanical properties :
#
#
# Convention : Reuss Voigt Hill
#
# Bulk Modulus (GPa) = 111.48098 142.14997 126.81547
# Shear Modulus (GPa) = 26.09987 33.39198 29.74592
#
# Velocity S-wave (km/s) = 3.70107 4.18629 3.95114
# Velocity P-wave (km/s) = 8.76198 9.89803 9.34728
#
# Compressibility (1/GPa) = 0.00897014
#
# Stress axis : x y z
#
# Youngs Moduli (GPa) = 100.36773 89.12765 32.47509
#
# Poissons Ratio (x) = 0.05910 0.30268
# Poissons Ratio (y) = 0.06655 0.37409
# Poissons Ratio (z) = 0.93547 1.02670
#
# Static dielectric constant tensor:
#      x y z
#    x 1.615150 0.000000 0.000000 
#    y 0.000000 1.632180 0.000000 
#    z 0.000000 0.000000 1.640010 
# 
# From -- ./inp_files/12060.got.cif
#   From: 2010.05.17/outbox.cif.g08.bks.cpg/sg52_7_cif.got.tgz:12060.got - 2010.06.03 12:15:38.
