data_PCOD9412097
_publ_section_title
;
Structure prediction by ZEFSAII (Michael W. Deem and Ramdas Pophale) SiO2 
 PCOD9412097
Probable space group: P N N A
;
_chemical_formula_sum "Si O2"
_cell_formula_units_Z 44
_cell_length_a 10.487264
_cell_length_b 17.628741
_cell_length_c 11.439387
_cell_angle_alpha 90.000000
_cell_angle_beta 90.000000
_cell_angle_gamma 90.000000
_cell_volume 2114.882534
_symmetry_space_group_name_H-M "P N N A"
_symmetry_group_IT_number 52
_symmetry_cell_setting 'orthorhombic'
loop_
_space_group_symop_operation_xyz
x,y,z
1/2-x,-y,z
x,1/2-y,1/2-z
1/2-x,1/2+y,1/2-z
-x,-y,-z
1/2+x,y,-z
-x,1/2+y,1/2+z
1/2+x,1/2-y,1/2+z
loop_
_atom_site_type_symbol
_atom_site_label
_atom_site_fract_x
_atom_site_fract_y
_atom_site_fract_z
Si Si1 0.250000 0.000000 0.483326
Si Si2 0.906595 0.596061 0.560236
Si Si3 0.865905 0.351488 0.595870
Si Si4 0.460586 0.750000 0.750000
Si Si5 0.250000 0.500000 0.615892
Si Si6 0.567671 0.986925 0.729865
Si Si7 0.308362 0.600487 0.811234
O O1 0.366738 0.998739 0.393581
O O2 0.252829 0.073948 0.567285
O O3 0.783116 0.652421 0.561344
O O4 0.860207 0.529917 0.470170
O O5 0.925116 0.559551 0.686881
O O6 0.037109 0.628065 0.508595
O O7 0.869061 0.419255 0.692992
O O8 0.941068 0.281913 0.653935
O O9 0.367921 0.683322 0.796612
O O10 0.226415 0.572425 0.700132
O O11 0.428776 0.955615 0.703408
#
# Coordination Sequence:
#
# PCOD9412097 Si02
#       7
#     4   8   8   4   4   8   8
#     4  11  21  38  62  90 129 167 224 276 330 385
#     4  12  20  37  69  99 126 155 215 282 324 379
#     4  11  22  38  64  94 128 169 207 266 324 389
#     4  10  22  44  56  86 134 178 218 250 334 398
#     4  11  17  34  64  96 117 157 218 274 324 363
#     4  11  19  36  61  95 123 156 214 271 331 377
#     4  10  23  37  59  88 128 176 214 272 322 398
#
# _framework density 20.804939000000001
#
# number of rings (size 3 to 8) (size 9 to 14) (size 15 to 20)
#    0.000    1.091    7.273    2.182    0.000    0.000 
#    6.545    0.000    0.000    1.091    0.000    0.000 
#    0.000    0.000    0.000    0.000    0.000    0.000 
#
# Total GULP energy -245437.298612 kJ/mol
# GULP energy per Si atom -5578.120423 kJ/mol
# Density = 2.075759 g / cm^3
# Si number density = 20.804939 Si / 1000 Ang^3
#
#
#
# Elastic Constant Matrix: (Units=GPa)
#
#
# Indices 1 2 3 4 5 6 
#
# 1 84.8102 40.3816 45.6047 0.0000 0.0000 0.0000
# 2 40.3816 102.7833 48.7747 0.0000 0.0000 0.0000
# 3 45.6047 48.7747 150.6129 0.0000 0.0000 0.0000
# 4 0.0000 0.0000 0.0000 23.8220 0.0000 0.0000
# 5 0.0000 0.0000 0.0000 0.0000 32.5421 0.0000
# 6 0.0000 0.0000 0.0000 0.0000 0.0000 32.6527
#
#
#
# Elastic Compliance Matrix: (Units=1/GPa)
#
#
# Indices 1 2 3 4 5 6 
#
# 1 0.015758 -0.004640 -0.003269 0.000000 0.000000 0.000000
# 2 -0.004640 0.012862 -0.002760 0.000000 0.000000 0.000000
# 3 -0.003269 -0.002760 0.008523 0.000000 0.000000 0.000000
# 4 0.000000 0.000000 0.000000 0.041978 0.000000 0.000000
# 5 0.000000 0.000000 0.000000 0.000000 0.030729 0.000000
# 6 0.000000 0.000000 0.000000 0.000000 0.000000 0.030625
#
#
# Mechanical properties :
#
#
# Convention : Reuss Voigt Hill
#
# Bulk Modulus (GPa) = 63.27032 67.52538 65.39785
# Shear Modulus (GPa) = 29.92534 31.36638 30.64586
#
# Velocity S-wave (km/s) = 3.79671 3.88705 3.84214
# Velocity P-wave (km/s) = 7.04962 7.25758 7.15436
#
# Compressibility (1/GPa) = 0.01580520
#
# Stress axis : x y z
#
# Youngs Moduli (GPa) = 63.45981 77.74847 117.32630
#
# Poissons Ratio (x) = 0.36074 0.38352
# Poissons Ratio (y) = 0.29444 0.32386
# Poissons Ratio (z) = 0.20744 0.21461
#
# Static dielectric constant tensor:
#      x y z
#    x 1.881660 0.000000 0.000000 
#    y 0.000000 1.754290 0.000000 
#    z 0.000000 0.000000 1.790590 
# 
# From -- ./inp_files/16910.got.cif
#   From: 2010.05.17/outbox.cif.g08.bks.cpg/sg52_9_cif.got.tgz:16910.got - 2010.06.03 12:15:38.
