data_PCOD9412035
_publ_section_title
;
Structure prediction by ZEFSAII (Michael W. Deem and Ramdas Pophale) SiO2 
 PCOD9412035
Probable space group: P N N A
;
_chemical_formula_sum "Si O2"
_cell_formula_units_Z 40
_cell_length_a 15.529995
_cell_length_b 13.082424
_cell_length_c 8.951636
_cell_angle_alpha 90.000000
_cell_angle_beta 90.000000
_cell_angle_gamma 90.000000
_cell_volume 1818.703701
_symmetry_space_group_name_H-M "P N N A"
_symmetry_group_IT_number 52
_symmetry_cell_setting 'orthorhombic'
loop_
_space_group_symop_operation_xyz
x,y,z
1/2-x,-y,z
x,1/2-y,1/2-z
1/2-x,1/2+y,1/2-z
-x,-y,-z
1/2+x,y,-z
-x,1/2+y,1/2+z
1/2+x,1/2-y,1/2+z
loop_
_atom_site_type_symbol
_atom_site_label
_atom_site_fract_x
_atom_site_fract_y
_atom_site_fract_z
Si Si1 0.617434 0.063965 0.402822
Si Si2 0.654995 0.470565 0.430276
Si Si3 0.079836 0.887177 0.388258
Si Si4 0.129405 0.672253 0.443076
Si Si5 0.827503 0.767347 0.926234
O O1 0.661871 0.056577 0.242953
O O2 0.515445 0.068782 0.367969
O O3 0.642831 0.166966 0.487202
O O4 0.631725 0.965635 0.507961
O O5 0.750000 0.500000 0.489968
O O6 0.604980 0.576569 0.453882
O O7 0.624894 0.370429 0.518461
O O8 0.073189 0.774206 0.459300
O O9 0.121689 0.869187 0.226605
O O10 0.226889 0.712302 0.464586
O O11 0.836328 0.750000 0.750000
#
# Coordination Sequence:
#
# PCOD9412035 Si02
#       5
#     8   8   8   8   8
#     4  11  25  42  64  99 133 164 216 272 329 377
#     4  10  24  39  64  98 127 164 211 269 324 370
#     4  10  23  44  65  92 130 178 211 262 326 391
#     4  10  22  43  67  91 126 177 216 255 320 392
#     4  11  22  41  67  95 124 172 222 261 309 390
#
# _framework density 21.993687000000001
#
# number of rings (size 3 to 8) (size 9 to 14) (size 15 to 20)
#    0.000    1.600    2.000    1.800    8.400    1.600 
#    7.200    0.000    0.000    0.000    0.000    0.000 
#    0.000    0.000    0.000    0.000    0.000    0.000 
#
# Total GULP energy -223545.548782 kJ/mol
# GULP energy per Si atom -5588.638720 kJ/mol
# Density = 2.194363 g / cm^3
# Si number density = 21.993687 Si / 1000 Ang^3
#
#
#
# Elastic Constant Matrix: (Units=GPa)
#
#
# Indices 1 2 3 4 5 6 
#
# 1 26.2410 -5.2654 -5.2479 0.0000 0.0000 0.0000
# 2 -5.2654 171.1995 67.5692 0.0000 0.0000 0.0000
# 3 -5.2479 67.5692 79.2015 0.0000 0.0000 0.0000
# 4 0.0000 0.0000 0.0000 39.7648 0.0000 0.0000
# 5 0.0000 0.0000 0.0000 0.0000 74.7010 0.0000
# 6 0.0000 0.0000 0.0000 0.0000 0.0000 29.7729
#
#
#
# Elastic Compliance Matrix: (Units=1/GPa)
#
#
# Indices 1 2 3 4 5 6 
#
# 1 0.038628 0.000268 0.002331 0.000000 0.000000 0.000000
# 2 0.000268 0.008808 -0.007497 0.000000 0.000000 0.000000
# 3 0.002331 -0.007497 0.019176 0.000000 0.000000 0.000000
# 4 0.000000 0.000000 0.000000 0.025148 0.000000 0.000000
# 5 0.000000 0.000000 0.000000 0.000000 0.013387 0.000000
# 6 0.000000 0.000000 0.000000 0.000000 0.000000 0.033588
#
#
# Mechanical properties :
#
#
# Convention : Reuss Voigt Hill
#
# Bulk Modulus (GPa) = 17.60042 43.41710 30.50876
# Shear Modulus (GPa) = 29.85616 43.48681 36.67149
#
# Velocity S-wave (km/s) = 3.68841 4.45144 4.08777
# Velocity P-wave (km/s) = 5.11459 6.79735 6.01511
#
# Compressibility (1/GPa) = 0.05681683
#
# Stress axis : x y z
#
# Youngs Moduli (GPa) = 25.88781 113.53010 52.14794
#
# Poissons Ratio (x) = -0.03044 -0.12154
# Poissons Ratio (y) = -0.00694 0.39094
# Poissons Ratio (z) = -0.06034 0.85111
#
# Static dielectric constant tensor:
#      x y z
#    x 1.834790 0.000000 0.000000 
#    y 0.000000 1.850640 0.000000 
#    z 0.000000 0.000000 1.765450 
# 
# From -- ./inp_files/11607.got.cif
#   From: 2010.05.17/outbox.cif.g08.bks.cpg/sg52_6_cif.got.tgz:11607.got - 2010.06.03 12:15:38.
