data_PCOD9412570
_publ_section_title
;
Structure prediction by ZEFSAII (Michael W. Deem and Ramdas Pophale) SiO2 
 PCOD9412570
Probable space group: P N N A
;
_chemical_formula_sum "Si O2"
_cell_formula_units_Z 40
_cell_length_a 10.831533
_cell_length_b 19.195627
_cell_length_c 8.928819
_cell_angle_alpha 90.000000
_cell_angle_beta 90.000000
_cell_angle_gamma 90.000000
_cell_volume 1856.462790
_symmetry_space_group_name_H-M "P N N A"
_symmetry_group_IT_number 52
_symmetry_cell_setting 'orthorhombic'
loop_
_space_group_symop_operation_xyz
x,y,z
1/2-x,-y,z
x,1/2-y,1/2-z
1/2-x,1/2+y,1/2-z
-x,-y,-z
1/2+x,y,-z
-x,1/2+y,1/2+z
1/2+x,1/2-y,1/2+z
loop_
_atom_site_type_symbol
_atom_site_label
_atom_site_fract_x
_atom_site_fract_y
_atom_site_fract_z
Si Si1 0.878351 0.466177 0.570570
Si Si2 0.158332 0.250000 0.750000
Si Si3 0.533930 0.812552 0.533046
Si Si4 0.620728 0.966311 0.572874
Si Si5 0.213483 0.687248 0.467189
Si Si6 0.094685 0.250000 0.250000
O O1 0.750000 0.500000 0.514791
O O2 0.885064 0.477135 0.748793
O O3 0.860503 0.384240 0.541082
O O4 0.000000 0.500000 0.500000
O O5 0.235551 0.295216 0.631915
O O6 0.077409 0.196238 0.650894
O O7 0.607298 0.884221 0.541961
O O8 0.623940 0.749999 0.572734
O O9 0.482596 0.795200 0.368172
O O10 0.750000 0.000000 0.519529
O O11 0.500000 0.000000 0.500000
O O12 0.324720 0.695742 0.348699
#
# Coordination Sequence:
#
# PCOD9412570 Si02
#       6
#     8   4   8   8   8   4
#     4  11  28  47  73 107 150 195 241 303 372 437
#     4  10  24  40  76 106 138 186 248 302 370 434
#     4  11  24  44  72 103 141 186 246 300 367 439
#     4  11  28  48  72 107 149 196 244 303 370 438
#     4  11  24  45  72 104 142 186 249 300 366 440
#     4  10  24  40  78 102 142 184 244 310 370 428
#
# _framework density 21.546351999999999
#
# number of rings (size 3 to 8) (size 9 to 14) (size 15 to 20)
#    0.000    1.200    0.000    3.600   19.600    2.400 
#    0.000    0.000    0.000    0.000    0.000    0.000 
#    0.000    0.000    0.000    0.000    0.000    0.000 
#
# Total GULP energy -223872.469262 kJ/mol
# GULP energy per Si atom -5596.811732 kJ/mol
# Density = 2.149731 g / cm^3
# Si number density = 21.546352 Si / 1000 Ang^3
#
#
#
# Elastic Constant Matrix: (Units=GPa)
#
#
# Indices 1 2 3 4 5 6 
#
# 1 157.3065 82.0024 64.5241 0.0000 0.0000 0.0000
# 2 82.0024 165.8778 20.9616 0.0000 0.0000 0.0000
# 3 64.5241 20.9616 124.2173 0.0000 0.0000 0.0000
# 4 0.0000 0.0000 0.0000 18.0046 0.0000 0.0000
# 5 0.0000 0.0000 0.0000 0.0000 74.5925 0.0000
# 6 0.0000 0.0000 0.0000 0.0000 0.0000 48.9709
#
#
#
# Elastic Compliance Matrix: (Units=1/GPa)
#
#
# Indices 1 2 3 4 5 6 
#
# 1 0.010795 -0.004729 -0.004809 0.000000 0.000000 0.000000
# 2 -0.004729 0.008231 0.001067 0.000000 0.000000 0.000000
# 3 -0.004809 0.001067 0.010368 0.000000 0.000000 0.000000
# 4 0.000000 0.000000 0.000000 0.055541 0.000000 0.000000
# 5 0.000000 0.000000 0.000000 0.000000 0.013406 0.000000
# 6 0.000000 0.000000 0.000000 0.000000 0.000000 0.020420
#
#
# Mechanical properties :
#
#
# Convention : Reuss Voigt Hill
#
# Bulk Modulus (GPa) = 80.30148 86.93086 83.61617
# Shear Modulus (GPa) = 35.75140 46.97451 41.36296
#
# Velocity S-wave (km/s) = 4.07784 4.67428 4.38621
# Velocity P-wave (km/s) = 7.71504 8.34059 8.03391
#
# Compressibility (1/GPa) = 0.01245307
#
# Stress axis : x y z
#
# Youngs Moduli (GPa) = 92.63786 121.48730 96.44611
#
# Poissons Ratio (x) = 0.57447 0.46384
# Poissons Ratio (y) = 0.43805 -0.10293
# Poissons Ratio (z) = 0.44552 -0.12966
#
# Static dielectric constant tensor:
#      x y z
#    x 1.797610 0.000000 0.000000 
#    y 0.000000 1.641180 0.000000 
#    z 0.000000 0.000000 1.790780 
# 
# From -- ./inp_files/8547.got.cif
#   From: 2010.05.17/outbox.cif.g08.bks.cpg/sg52_5_cif.got.tgz:8547.got - 2010.06.03 12:15:38.
