data_PCOD9412295
_publ_section_title
;
Structure prediction by ZEFSAII (Michael W. Deem and Ramdas Pophale) SiO2 
 PCOD9412295
Probable space group: P N N A
;
_chemical_formula_sum "Si O2"
_cell_formula_units_Z 40
_cell_length_a 20.801825
_cell_length_b 11.223676
_cell_length_c 6.553507
_cell_angle_alpha 90.000000
_cell_angle_beta 90.000000
_cell_angle_gamma 90.000000
_cell_volume 1530.066573
_symmetry_space_group_name_H-M "P N N A"
_symmetry_group_IT_number 52
_symmetry_cell_setting 'orthorhombic'
loop_
_space_group_symop_operation_xyz
x,y,z
1/2-x,-y,z
x,1/2-y,1/2-z
1/2-x,1/2+y,1/2-z
-x,-y,-z
1/2+x,y,-z
-x,1/2+y,1/2+z
1/2+x,1/2-y,1/2+z
loop_
_atom_site_type_symbol
_atom_site_label
_atom_site_fract_x
_atom_site_fract_y
_atom_site_fract_z
Si Si1 0.995642 0.372331 0.719723
Si Si2 0.760832 0.642430 0.584646
Si Si3 0.096730 0.043133 0.475056
Si Si4 0.104704 0.093707 0.054549
Si Si5 0.861071 0.373124 0.306652
O O1 0.958815 0.250000 0.750000
O O2 0.032508 0.368914 0.502784
O O3 0.954788 0.472229 0.834160
O O4 0.059867 0.376898 0.863076
O O5 0.750000 0.500000 0.653788
O O6 0.752487 0.750000 0.750000
O O7 0.829123 0.645088 0.463142
O O8 0.705088 0.657254 0.416005
O O9 0.140016 0.952190 0.601654
O O10 0.126475 0.113689 0.289268
O O11 0.103144 0.956492 0.971536
O O12 0.895301 0.250000 0.250000
#
# Coordination Sequence:
#
# PCOD9412295 Si02
#       5
#     8   8   8   8   8
#     4  10  23  41  66 103 135 177 235 291 362 432
#     4  10  24  46  69 105 145 192 241 303 361 435
#     4  10  23  44  67  97 138 185 229 299 358 432
#     4  10  23  44  67  99 141 180 241 291 363 437
#     4  10  24  42  66 100 134 181 240 289 357 427
#
# _framework density 26.142654
#
# number of rings (size 3 to 8) (size 9 to 14) (size 15 to 20)
#    0.000    2.000    0.000    0.600   11.200    0.800 
#   10.800    0.000    0.000    0.000    0.000    0.000 
#    0.000    0.000    0.000    0.000    0.000    0.000 
#
# Total GULP energy -222829.518370 kJ/mol
# GULP energy per Si atom -5570.737959 kJ/mol
# Density = 2.608315 g / cm^3
# Si number density = 26.142654 Si / 1000 Ang^3
#
#
#
# Elastic Constant Matrix: (Units=GPa)
#
#
# Indices 1 2 3 4 5 6 
#
# 1 84.7143 8.4670 17.5305 0.0000 0.0000 0.0000
# 2 8.4670 138.4695 35.8925 0.0000 0.0000 0.0000
# 3 17.5305 35.8925 139.8977 0.0000 0.0000 0.0000
# 4 0.0000 0.0000 0.0000 41.0353 0.0000 0.0000
# 5 0.0000 0.0000 0.0000 0.0000 15.7227 0.0000
# 6 0.0000 0.0000 0.0000 0.0000 0.0000 16.2717
#
#
#
# Elastic Compliance Matrix: (Units=1/GPa)
#
#
# Indices 1 2 3 4 5 6 
#
# 1 0.012137 -0.000373 -0.001425 0.000000 0.000000 0.000000
# 2 -0.000373 0.007748 -0.001941 0.000000 0.000000 0.000000
# 3 -0.001425 -0.001941 0.007825 0.000000 0.000000 0.000000
# 4 0.000000 0.000000 0.000000 0.024369 0.000000 0.000000
# 5 0.000000 0.000000 0.000000 0.000000 0.063602 0.000000
# 6 0.000000 0.000000 0.000000 0.000000 0.000000 0.061456
#
#
# Mechanical properties :
#
#
# Convention : Reuss Voigt Hill
#
# Bulk Modulus (GPa) = 49.42901 54.09572 51.76236
# Shear Modulus (GPa) = 26.12896 34.68537 30.40717
#
# Velocity S-wave (km/s) = 3.16488 3.64644 3.41416
# Velocity P-wave (km/s) = 5.68364 6.20211 5.94852
#
# Compressibility (1/GPa) = 0.02023103
#
# Stress axis : x y z
#
# Youngs Moduli (GPa) = 82.39563 129.06990 127.80078
#
# Poissons Ratio (x) = 0.04810 0.18214
# Poissons Ratio (y) = 0.03071 0.24807
# Poissons Ratio (z) = 0.11743 0.25053
#
# Static dielectric constant tensor:
#      x y z
#    x 2.057000 0.000000 0.000000 
#    y 0.000000 2.251830 0.000000 
#    z 0.000000 0.000000 2.443200 
# 
# From -- ./inp_files/5579.got.cif
#   From: 2010.05.17/outbox.cif.g08.bks.cpg/sg52_3_cif.got.tgz:5579.got - 2010.06.03 12:15:38.
