data_PCOD9412687
_publ_section_title
;
Structure prediction by ZEFSAII (Michael W. Deem and Ramdas Pophale) SiO2 
 PCOD9412687
Probable space group: P N N A
;
_chemical_formula_sum "Si O2"
_cell_formula_units_Z 40
_cell_length_a 5.236614
_cell_length_b 14.510341
_cell_length_c 24.860008
_cell_angle_alpha 90.000000
_cell_angle_beta 90.000000
_cell_angle_gamma 90.000000
_cell_volume 1888.989071
_symmetry_space_group_name_H-M "P N N A"
_symmetry_group_IT_number 52
_symmetry_cell_setting 'orthorhombic'
loop_
_space_group_symop_operation_xyz
x,y,z
1/2-x,-y,z
x,1/2-y,1/2-z
1/2-x,1/2+y,1/2-z
-x,-y,-z
1/2+x,y,-z
-x,1/2+y,1/2+z
1/2+x,1/2-y,1/2+z
loop_
_atom_site_type_symbol
_atom_site_label
_atom_site_fract_x
_atom_site_fract_y
_atom_site_fract_z
Si Si1 0.492280 0.250000 0.250000
Si Si2 0.663231 0.696953 0.967452
Si Si3 0.500000 0.000000 0.500000
Si Si4 0.633509 0.596173 0.207026
Si Si5 0.491595 0.942081 0.178161
Si Si6 0.356110 0.749160 0.353647
O O1 0.661197 0.338336 0.236188
O O2 0.329230 0.265185 0.303178
O O3 0.673642 0.584239 0.969142
O O4 0.709714 0.735047 0.908761
O O5 0.897518 0.724127 0.005910
O O6 0.250000 0.000000 0.542397
O O7 0.750000 0.500000 0.188435
O O8 0.450004 0.575434 0.257709
O O9 0.512967 0.658940 0.160886
O O10 0.517926 0.844680 0.147646
O O11 0.250000 0.000000 0.157711
O O12 0.750000 0.000000 0.173462
#
# Coordination Sequence:
#
# PCOD9412687 Si02
#       6
#     4   8   4   8   8   8
#     4  12  22  44  64 104 144 188 240 296 364 442
#     4  10  24  44  68  96 135 190 242 292 355 423
#     4   8  16  40  60  82 124 168 226 276 322 394
#     4  11  24  40  62 101 147 185 234 291 358 444
#     4  11  23  41  68  98 140 182 227 289 366 433
#     4  12  24  42  71 100 143 191 237 305 361 443
#
# _framework density 21.175346999999999
#
# number of rings (size 3 to 8) (size 9 to 14) (size 15 to 20)
#    0.000    1.200    4.000    2.400    2.800    0.000 
#   10.800    0.000    0.000    3.600    0.000    0.000 
#    0.000    0.000    0.000    0.000    0.000    0.000 
#
# Total GULP energy -222710.561572 kJ/mol
# GULP energy per Si atom -5567.764039 kJ/mol
# Density = 2.112715 g / cm^3
# Si number density = 21.175347 Si / 1000 Ang^3
#
#
#
# Elastic Constant Matrix: (Units=GPa)
#
#
# Indices 1 2 3 4 5 6 
#
# 1 99.5677 70.5851 57.1993 0.0000 0.0000 0.0000
# 2 70.5851 118.5093 35.4984 0.0000 0.0000 0.0000
# 3 57.1993 35.4984 104.2330 0.0000 0.0000 0.0000
# 4 0.0000 0.0000 0.0000 54.6245 0.0000 0.0000
# 5 0.0000 0.0000 0.0000 0.0000 4.1977 0.0000
# 6 0.0000 0.0000 0.0000 0.0000 0.0000 50.7106
#
#
#
# Elastic Compliance Matrix: (Units=1/GPa)
#
#
# Indices 1 2 3 4 5 6 
#
# 1 0.022916 -0.011005 -0.008828 0.000000 0.000000 0.000000
# 2 -0.011005 0.014681 0.001039 0.000000 0.000000 0.000000
# 3 -0.008828 0.001039 0.014084 0.000000 0.000000 0.000000
# 4 0.000000 0.000000 0.000000 0.018307 0.000000 0.000000
# 5 0.000000 0.000000 0.000000 0.000000 0.238225 0.000000
# 6 0.000000 0.000000 0.000000 0.000000 0.000000 0.019720
#
#
# Mechanical properties :
#
#
# Convention : Reuss Voigt Hill
#
# Bulk Modulus (GPa) = 70.94699 72.09729 71.52214
# Shear Modulus (GPa) = 13.50552 32.50838 23.00695
#
# Velocity S-wave (km/s) = 2.52820 3.92241 3.29978
# Velocity P-wave (km/s) = 6.48842 7.39158 6.95468
#
# Compressibility (1/GPa) = 0.01409503
#
# Stress axis : x y z
#
# Youngs Moduli (GPa) = 43.63723 68.11299 71.00072
#
# Poissons Ratio (x) = 0.74957 0.62677
# Poissons Ratio (y) = 0.48022 -0.07377
# Poissons Ratio (z) = 0.38522 -0.07077
#
# Static dielectric constant tensor:
#      x y z
#    x 1.769740 0.000000 0.000000 
#    y 0.000000 1.725380 0.000000 
#    z 0.000000 0.000000 1.606970 
# 
# From -- ./inp_files/38673.got.cif
#   From: 2010.05.17/outbox.cif.g08.bks.cpg/sg52_20_cif.got.tgz:38673.got - 2010.06.03 12:15:38.
