data_PCOD9412436
_publ_section_title
;
Structure prediction by ZEFSAII (Michael W. Deem and Ramdas Pophale) SiO2 
 PCOD9412436
Probable space group: P N N A
;
_chemical_formula_sum "Si O2"
_cell_formula_units_Z 44
_cell_length_a 4.794937
_cell_length_b 23.464926
_cell_length_c 14.765051
_cell_angle_alpha 90.000000
_cell_angle_beta 90.000000
_cell_angle_gamma 90.000000
_cell_volume 1661.257849
_symmetry_space_group_name_H-M "P N N A"
_symmetry_group_IT_number 52
_symmetry_cell_setting 'orthorhombic'
loop_
_space_group_symop_operation_xyz
x,y,z
1/2-x,-y,z
x,1/2-y,1/2-z
1/2-x,1/2+y,1/2-z
-x,-y,-z
1/2+x,y,-z
-x,1/2+y,1/2+z
1/2+x,1/2-y,1/2+z
loop_
_atom_site_type_symbol
_atom_site_label
_atom_site_fract_x
_atom_site_fract_y
_atom_site_fract_z
Si Si1 0.175905 0.714022 0.435288
Si Si2 0.750000 0.000000 0.069767
Si Si3 0.389678 0.114730 0.553861
Si Si4 0.518392 0.107850 0.171865
Si Si5 0.502929 0.034774 0.325575
Si Si6 0.194962 0.295074 0.813383
O O1 0.983029 0.719902 0.524802
O O2 0.139196 0.650166 0.395752
O O3 0.060369 0.759049 0.359767
O O4 0.789734 0.938376 0.120573
O O5 0.500000 0.000000 0.000000
O O6 0.719315 0.112846 0.540574
O O7 0.213581 0.067355 0.606857
O O8 0.335018 0.173597 0.603391
O O9 0.350194 0.070000 0.245744
O O10 0.650102 0.153128 0.242758
O O11 0.750000 0.000000 0.276715
O O12 0.250000 0.000000 0.370376
O O13 0.353198 0.250000 0.750000
#
# Coordination Sequence:
#
# PCOD9412436 Si02
#       6
#     8   4   8   8   8   8
#     4  11  23  43  69  99 133 170 222 281 339 398
#     4  12  26  44  68  98 134 178 220 272 330 394
#     4  11  23  41  64  94 129 168 219 276 331 389
#     4  10  23  44  67  98 136 177 225 272 334 405
#     4  11  24  41  64  91 130 178 220 267 326 392
#     4   9  21  43  68  97 131 176 221 276 342 405
#
# _framework density 26.485956999999999
#
# number of rings (size 3 to 8) (size 9 to 14) (size 15 to 20)
#    0.000    1.455    0.909    3.273    1.273    3.636 
#    0.000   23.636    0.000    0.000    0.000    0.000 
#    0.000    0.000    0.000    0.000    0.000    0.000 
#
# Total GULP energy -245485.895326 kJ/mol
# GULP energy per Si atom -5579.224894 kJ/mol
# Density = 2.642567 g / cm^3
# Si number density = 26.485957 Si / 1000 Ang^3
#
#
#
# Elastic Constant Matrix: (Units=GPa)
#
#
# Indices 1 2 3 4 5 6 
#
# 1 103.4368 22.7753 4.8297 0.0000 0.0000 0.0000
# 2 22.7753 145.4579 48.5995 0.0000 0.0000 0.0000
# 3 4.8297 48.5995 83.6472 0.0000 0.0000 0.0000
# 4 0.0000 0.0000 0.0000 46.7281 0.0000 0.0000
# 5 0.0000 0.0000 0.0000 0.0000 15.7628 0.0000
# 6 0.0000 0.0000 0.0000 0.0000 0.0000 22.7103
#
#
#
# Elastic Compliance Matrix: (Units=1/GPa)
#
#
# Indices 1 2 3 4 5 6 
#
# 1 0.010024 -0.001708 0.000413 0.000000 0.000000 0.000000
# 2 -0.001708 0.008822 -0.005027 0.000000 0.000000 0.000000
# 3 0.000413 -0.005027 0.014852 0.000000 0.000000 0.000000
# 4 0.000000 0.000000 0.000000 0.021400 0.000000 0.000000
# 5 0.000000 0.000000 0.000000 0.000000 0.063440 0.000000
# 6 0.000000 0.000000 0.000000 0.000000 0.000000 0.044033
#
#
# Mechanical properties :
#
#
# Convention : Reuss Voigt Hill
#
# Bulk Modulus (GPa) = 47.49343 53.88343 50.68843
# Shear Modulus (GPa) = 27.43747 34.12942 30.78345
#
# Velocity S-wave (km/s) = 3.22207 3.59358 3.41289
# Velocity P-wave (km/s) = 5.64028 6.13243 5.89150
#
# Compressibility (1/GPa) = 0.02105554
#
# Stress axis : x y z
#
# Youngs Moduli (GPa) = 99.75613 113.35579 67.33212
#
# Poissons Ratio (x) = 0.19358 -0.02783
# Poissons Ratio (y) = 0.17035 0.33847
# Poissons Ratio (z) = -0.04124 0.56983
#
# Static dielectric constant tensor:
#      x y z
#    x 1.982820 0.000000 0.000000 
#    y 0.000000 2.251260 0.000000 
#    z 0.000000 0.000000 2.181100 
# 
# From -- ./inp_files/23668.got.cif
#   From: 2010.05.17/outbox.cif.g08.bks.cpg/sg52_12_cif.got.tgz:23668.got - 2010.06.03 12:15:38.
