data_PCOD9412349
_publ_section_title
;
Structure prediction by ZEFSAII (Michael W. Deem and Ramdas Pophale) SiO2 
 PCOD9412349
Probable space group: P N N A
;
_chemical_formula_sum "Si O2"
_cell_formula_units_Z 48
_cell_length_a 13.650235
_cell_length_b 16.236708
_cell_length_c 9.639035
_cell_angle_alpha 90.000000
_cell_angle_beta 90.000000
_cell_angle_gamma 90.000000
_cell_volume 2136.346364
_symmetry_space_group_name_H-M "P N N A"
_symmetry_group_IT_number 52
_symmetry_cell_setting 'orthorhombic'
loop_
_space_group_symop_operation_xyz
x,y,z
1/2-x,-y,z
x,1/2-y,1/2-z
1/2-x,1/2+y,1/2-z
-x,-y,-z
1/2+x,y,-z
-x,1/2+y,1/2+z
1/2+x,1/2-y,1/2+z
loop_
_atom_site_type_symbol
_atom_site_label
_atom_site_fract_x
_atom_site_fract_y
_atom_site_fract_z
Si Si1 0.460363 0.790231 0.934424
Si Si2 0.030087 0.568607 0.260134
Si Si3 0.428826 0.354192 0.994894
Si Si4 0.754393 0.244082 0.411692
Si Si5 0.761812 0.405805 0.601542
Si Si6 0.952762 0.615669 0.715601
O O1 0.456578 0.866081 0.828690
O O2 0.361768 0.737270 0.929589
O O3 0.545084 0.725341 0.911126
O O4 0.479729 0.828130 0.085524
O O5 0.137349 0.592624 0.315651
O O6 0.007991 0.476558 0.307898
O O7 0.041730 0.571808 0.094802
O O8 0.316115 0.334732 0.962403
O O9 0.496447 0.354984 0.857455
O O10 0.779184 0.250000 0.250000
O O11 0.770850 0.331765 0.490574
O O12 0.750000 0.500000 0.544542
O O13 0.666396 0.389076 0.700033
#
# Coordination Sequence:
#
# PCOD9412349 Si02
#       6
#     8   8   8   8   8   8
#     4  11  23  42  67  92 129 175 223 264 328 397
#     4  11  22  42  66  97 133 173 220 273 332 398
#     4  12  24  39  66  98 133 168 216 280 335 384
#     4  11  23  40  63  96 130 170 221 275 326 388
#     4   9  21  41  68  94 131 179 226 264 331 414
#     4  10  23  42  67  96 131 176 220 270 333 399
#
# _framework density 22.468266
#
# number of rings (size 3 to 8) (size 9 to 14) (size 15 to 20)
#    0.000    1.333    1.667    4.000    2.333    0.000 
#    0.000    0.000    0.000    0.000    0.000    0.000 
#    0.000    0.000    0.000    0.000    0.000    0.000 
#
# Total GULP energy -267903.228687 kJ/mol
# GULP energy per Si atom -5581.317264 kJ/mol
# Density = 2.241713 g / cm^3
# Si number density = 22.468266 Si / 1000 Ang^3
#
#
#
# Elastic Constant Matrix: (Units=GPa)
#
#
# Indices 1 2 3 4 5 6 
#
# 1 60.9797 10.8322 -2.9072 0.0000 0.0000 0.0000
# 2 10.8322 50.3279 7.4912 0.0000 0.0000 0.0000
# 3 -2.9072 7.4912 91.0847 0.0000 0.0000 0.0000
# 4 0.0000 0.0000 0.0000 26.5893 0.0000 0.0000
# 5 0.0000 0.0000 0.0000 0.0000 22.7059 0.0000
# 6 0.0000 0.0000 0.0000 0.0000 0.0000 22.8083
#
#
#
# Elastic Compliance Matrix: (Units=1/GPa)
#
#
# Indices 1 2 3 4 5 6 
#
# 1 0.017117 -0.003812 0.000860 0.000000 0.000000 0.000000
# 2 -0.003812 0.020965 -0.001846 0.000000 0.000000 0.000000
# 3 0.000860 -0.001846 0.011158 0.000000 0.000000 0.000000
# 4 0.000000 0.000000 0.000000 0.037609 0.000000 0.000000
# 5 0.000000 0.000000 0.000000 0.000000 0.044041 0.000000
# 6 0.000000 0.000000 0.000000 0.000000 0.000000 0.043844
#
#
# Mechanical properties :
#
#
# Convention : Reuss Voigt Hill
#
# Bulk Modulus (GPa) = 25.22470 25.91385 25.56927
# Shear Modulus (GPa) = 25.31065 26.88577 26.09821
#
# Velocity S-wave (km/s) = 3.35999 3.46296 3.41186
# Velocity P-wave (km/s) = 5.12873 5.24862 5.18902
#
# Compressibility (1/GPa) = 0.03964368
#
# Stress axis : x y z
#
# Youngs Moduli (GPa) = 58.42122 47.69863 89.62133
#
# Poissons Ratio (x) = 0.18183 -0.07706
# Poissons Ratio (y) = 0.22271 0.16543
# Poissons Ratio (z) = -0.05023 0.08805
#
# Static dielectric constant tensor:
#      x y z
#    x 1.866280 0.000000 0.000000 
#    y 0.000000 1.823750 0.000000 
#    z 0.000000 0.000000 1.862650 
# 
# From -- ./inp_files/10493.got.cif
#   From: 2010.05.17/outbox.cif.g08.bks.cpg/sg52_6_cif.got.tgz:10493.got - 2010.06.03 12:15:38.
