data_PCOD9412810
_publ_section_title
;
Structure prediction by ZEFSAII (Michael W. Deem and Ramdas Pophale) SiO2 
 PCOD9412810
Probable space group: P N N A
;
_chemical_formula_sum "Si O2"
_cell_formula_units_Z 32
_cell_length_a 11.375105
_cell_length_b 8.684781
_cell_length_c 11.717444
_cell_angle_alpha 90.000000
_cell_angle_beta 90.000000
_cell_angle_gamma 90.000000
_cell_volume 1157.569759
_symmetry_space_group_name_H-M "P N N A"
_symmetry_group_IT_number 52
_symmetry_cell_setting 'orthorhombic'
loop_
_space_group_symop_operation_xyz
x,y,z
1/2-x,-y,z
x,1/2-y,1/2-z
1/2-x,1/2+y,1/2-z
-x,-y,-z
1/2+x,y,-z
-x,1/2+y,1/2+z
1/2+x,1/2-y,1/2+z
loop_
_atom_site_type_symbol
_atom_site_label
_atom_site_fract_x
_atom_site_fract_y
_atom_site_fract_z
Si Si1 0.654117 0.608040 0.881446
Si Si2 0.993178 0.970017 0.178899
Si Si3 0.750000 0.500000 0.088619
Si Si4 0.175964 0.750000 0.750000
Si Si5 0.170210 0.133631 0.011680
O O1 0.750000 0.500000 0.820501
O O2 0.547862 0.603626 0.793663
O O3 0.733287 0.752305 0.927093
O O4 0.638973 0.519487 0.003009
O O5 0.095616 0.059487 0.113048
O O6 0.905740 0.109381 0.211347
O O7 0.931847 0.855058 0.087071
O O8 0.745831 0.342849 0.159090
O O9 0.250000 0.000000 0.959255
#
# Coordination Sequence:
#
# PCOD9412810 Si02
#       5
#     8   8   4   4   8
#     4  10  24  51  80 123 169 234 296 375 456 546
#     4  11  26  47  86 124 176 235 309 363 470 542
#     4  10  28  48  86 112 176 226 300 372 464 524
#     4  12  26  52  78 124 168 232 300 380 450 560
#     4  11  25  51  81 129 177 235 295 383 448 553
#
# _framework density 27.644121999999999
#
# number of rings (size 3 to 8) (size 9 to 14) (size 15 to 20)
#    0.750    0.500    0.000    3.750    5.250    4.000 
#   18.000    0.000    0.000    0.000    0.000    0.000 
#    0.000    0.000    0.000    0.000    0.000    0.000 
#
# Total GULP energy -178314.585863 kJ/mol
# GULP energy per Si atom -5572.330808 kJ/mol
# Density = 2.758120 g / cm^3
# Si number density = 27.644122 Si / 1000 Ang^3
#
#
#
# Elastic Constant Matrix: (Units=GPa)
#
#
# Indices 1 2 3 4 5 6 
#
# 1 146.1308 89.7018 116.9988 0.0000 0.0000 0.0000
# 2 89.7018 175.8312 108.4953 0.0000 0.0000 0.0000
# 3 116.9988 108.4953 249.4545 0.0000 0.0000 0.0000
# 4 0.0000 0.0000 0.0000 31.0786 0.0000 0.0000
# 5 0.0000 0.0000 0.0000 0.0000 76.3432 0.0000
# 6 0.0000 0.0000 0.0000 0.0000 0.0000 48.4636
#
#
#
# Elastic Compliance Matrix: (Units=1/GPa)
#
#
# Indices 1 2 3 4 5 6 
#
# 1 0.012572 -0.003793 -0.004247 0.000000 0.000000 0.000000
# 2 -0.003793 0.008918 -0.002100 0.000000 0.000000 0.000000
# 3 -0.004247 -0.002100 0.006914 0.000000 0.000000 0.000000
# 4 0.000000 0.000000 0.000000 0.032176 0.000000 0.000000
# 5 0.000000 0.000000 0.000000 0.000000 0.013099 0.000000
# 6 0.000000 0.000000 0.000000 0.000000 0.000000 0.020634
#
#
# Mechanical properties :
#
#
# Convention : Reuss Voigt Hill
#
# Bulk Modulus (GPa) = 123.08465 133.53423 128.30944
# Shear Modulus (GPa) = 42.62601 48.25846 45.44224
#
# Velocity S-wave (km/s) = 3.93103 4.18270 4.05882
# Velocity P-wave (km/s) = 8.07623 8.46972 8.27531
#
# Compressibility (1/GPa) = 0.00812449
#
# Stress axis : x y z
#
# Youngs Moduli (GPa) = 79.54440 112.13327 144.64200
#
# Poissons Ratio (x) = 0.42535 0.61423
# Poissons Ratio (y) = 0.30173 0.30369
# Poissons Ratio (z) = 0.33779 0.23543
#
# Static dielectric constant tensor:
#      x y z
#    x 2.091770 0.000000 0.000000 
#    y 0.000000 2.156090 0.000000 
#    z 0.000000 0.000000 2.326130 
# 
# From -- ./inp_files/18940.got.cif
#   From: 2010.05.17/outbox.cif.g08.bks.cpg/sg52_10_cif.got.tgz:18940.got - 2010.06.03 12:15:38.
