data_PCOD9412922
_publ_section_title
;
Structure prediction by ZEFSAII (Michael W. Deem and Ramdas Pophale) SiO2 
 PCOD9412922
Probable space group: P N N A
;
_chemical_formula_sum "Si O2"
_cell_formula_units_Z 32
_cell_length_a 7.797542
_cell_length_b 8.294744
_cell_length_c 17.021462
_cell_angle_alpha 90.000000
_cell_angle_beta 90.000000
_cell_angle_gamma 90.000000
_cell_volume 1100.924583
_symmetry_space_group_name_H-M "P N N A"
_symmetry_group_IT_number 52
_symmetry_cell_setting 'orthorhombic'
loop_
_space_group_symop_operation_xyz
x,y,z
1/2-x,-y,z
x,1/2-y,1/2-z
1/2-x,1/2+y,1/2-z
-x,-y,-z
1/2+x,y,-z
-x,1/2+y,1/2+z
1/2+x,1/2-y,1/2+z
loop_
_atom_site_type_symbol
_atom_site_label
_atom_site_fract_x
_atom_site_fract_y
_atom_site_fract_z
Si Si1 0.250000 0.500000 0.629715
Si Si2 0.750000 0.000000 0.747887
Si Si3 0.250000 0.500000 0.880111
Si Si4 0.679317 0.262607 0.875466
Si Si5 0.971318 0.738033 0.033239
Si Si6 0.829267 0.250000 0.250000
O O1 0.132318 0.384951 0.575418
O O2 0.121350 0.599114 0.690370
O O3 0.762008 0.142504 0.811219
O O4 0.627122 0.087394 0.681823
O O5 0.112127 0.429903 0.940718
O O6 0.258258 0.646413 0.817645
O O7 0.837658 0.275934 0.934654
O O8 0.533132 0.232157 0.939751
#
# Coordination Sequence:
#
# PCOD9412922 Si02
#       6
#     4   4   4   8   8   4
#     4   9  19  36  61  99 140 186 234 297 359 424
#     4  10  26  48  74 104 148 192 236 294 370 438
#     4   9  19  36  61  99 140 186 234 297 359 424
#     4  11  26  50  75 107 146 194 246 303 365 438
#     4  11  24  44  72 104 142 188 250 302 356 432
#     4   8  16  32  54  92 140 174 224 292 366 418
#
# _framework density 29.066479999999999
#
# number of rings (size 3 to 8) (size 9 to 14) (size 15 to 20)
#    0.000    2.000    0.000    1.500    0.000   20.000 
#    0.000   17.500    0.000    6.000    0.000    0.000 
#    0.000    0.000    0.000    0.000    0.000    0.000 
#
# Total GULP energy -178184.102964 kJ/mol
# GULP energy per Si atom -5568.253218 kJ/mol
# Density = 2.900032 g / cm^3
# Si number density = 29.066480 Si / 1000 Ang^3
#
#
#
# Elastic Constant Matrix: (Units=GPa)
#
#
# Indices 1 2 3 4 5 6 
#
# 1 82.4819 15.4251 74.0567 0.0000 0.0000 0.0000
# 2 15.4251 132.3931 87.3365 0.0000 0.0000 0.0000
# 3 74.0567 87.3365 349.0049 0.0000 0.0000 0.0000
# 4 0.0000 0.0000 0.0000 73.0281 0.0000 0.0000
# 5 0.0000 0.0000 0.0000 0.0000 135.9645 0.0000
# 6 0.0000 0.0000 0.0000 0.0000 0.0000 22.5646
#
#
#
# Elastic Compliance Matrix: (Units=1/GPa)
#
#
# Indices 1 2 3 4 5 6 
#
# 1 0.014997 0.000422 -0.003288 0.000000 0.000000 0.000000
# 2 0.000422 0.009059 -0.002356 0.000000 0.000000 0.000000
# 3 -0.003288 -0.002356 0.004153 0.000000 0.000000 0.000000
# 4 0.000000 0.000000 0.000000 0.013693 0.000000 0.000000
# 5 0.000000 0.000000 0.000000 0.000000 0.007355 0.000000
# 6 0.000000 0.000000 0.000000 0.000000 0.000000 0.044317
#
#
# Mechanical properties :
#
#
# Convention : Reuss Voigt Hill
#
# Bulk Modulus (GPa) = 56.29651 101.94627 79.12139
# Shear Modulus (GPa) = 45.47956 72.11555 58.79756
#
# Velocity S-wave (km/s) = 3.95989 4.98642 4.50251
# Velocity P-wave (km/s) = 6.34963 8.26451 7.36953
#
# Compressibility (1/GPa) = 0.01776309
#
# Stress axis : x y z
#
# Youngs Moduli (GPa) = 66.68019 110.39302 240.81406
#
# Poissons Ratio (x) = -0.04654 0.79174
# Poissons Ratio (y) = -0.02811 0.56743
# Poissons Ratio (z) = 0.21923 0.26012
#
# Static dielectric constant tensor:
#      x y z
#    x 2.543580 0.000000 0.000000 
#    y 0.000000 2.407360 0.000000 
#    z 0.000000 0.000000 2.083250 
# 
# From -- ./inp_files/25644.got.cif
#   From: 2010.05.17/outbox.cif.g08.bks.cpg/sg52_13_cif.got.tgz:25644.got - 2010.06.03 12:15:38.
