data_PCOD9412263
_publ_section_title
;
Structure prediction by ZEFSAII (Michael W. Deem and Ramdas Pophale) SiO2 
 PCOD9412263
Probable space group: P N N A
;
_chemical_formula_sum "Si O2"
_cell_formula_units_Z 40
_cell_length_a 11.752555
_cell_length_b 13.148592
_cell_length_c 13.423757
_cell_angle_alpha 90.000000
_cell_angle_beta 90.000000
_cell_angle_gamma 90.000000
_cell_volume 2074.367137
_symmetry_space_group_name_H-M "P N N A"
_symmetry_group_IT_number 52
_symmetry_cell_setting 'orthorhombic'
loop_
_space_group_symop_operation_xyz
x,y,z
1/2-x,-y,z
x,1/2-y,1/2-z
1/2-x,1/2+y,1/2-z
-x,-y,-z
1/2+x,y,-z
-x,1/2+y,1/2+z
1/2+x,1/2-y,1/2+z
loop_
_atom_site_type_symbol
_atom_site_label
_atom_site_fract_x
_atom_site_fract_y
_atom_site_fract_z
Si Si1 0.379437 0.628721 0.543932
Si Si2 0.117681 0.995659 0.370446
Si Si3 0.510086 0.830084 0.492962
Si Si4 0.956087 0.528385 0.649118
Si Si5 0.155587 0.692140 0.648632
O O1 0.423339 0.743354 0.528369
O O2 0.476162 0.567105 0.603598
O O3 0.374473 0.574165 0.436259
O O4 0.261402 0.632209 0.602113
O O5 0.053191 0.090891 0.420376
O O6 0.102844 0.001257 0.252057
O O7 0.250000 0.000000 0.397441
O O8 0.061359 0.894810 0.416550
O O9 0.608900 0.772937 0.431722
O O10 0.051723 0.614906 0.668278
O O11 0.186970 0.750000 0.750000
#
# Coordination Sequence:
#
# PCOD9412263 Si02
#       5
#     8   8   8   8   8
#     4  10  23  40  64  92 126 166 208 262 311 379
#     4  11  23  41  63  89 124 169 203 263 320 374
#     4  10  23  42  61  93 125 158 218 263 308 387
#     4  10  23  42  61  93 131 161 213 258 314 379
#     4  11  21  40  66  92 126 172 205 264 322 374
#
# _framework density 19.282989000000001
#
# number of rings (size 3 to 8) (size 9 to 14) (size 15 to 20)
#    0.000    1.600    2.000    1.800    2.800    4.800 
#    0.000    4.000    0.000    0.000    0.000    0.000 
#    0.000    0.000    0.000    0.000    0.000    0.000 
#
# Total GULP energy -223622.415979 kJ/mol
# GULP energy per Si atom -5590.560399 kJ/mol
# Density = 1.923910 g / cm^3
# Si number density = 19.282989 Si / 1000 Ang^3
#
#
#
# Elastic Constant Matrix: (Units=GPa)
#
#
# Indices 1 2 3 4 5 6 
#
# 1 53.2848 -1.2962 17.0467 0.0000 0.0000 0.0000
# 2 -1.2962 77.4471 16.3725 0.0000 0.0000 0.0000
# 3 17.0467 16.3725 90.9781 0.0000 0.0000 0.0000
# 4 0.0000 0.0000 0.0000 14.8884 0.0000 0.0000
# 5 0.0000 0.0000 0.0000 0.0000 17.5151 0.0000
# 6 0.0000 0.0000 0.0000 0.0000 0.0000 21.1314
#
#
#
# Elastic Compliance Matrix: (Units=1/GPa)
#
#
# Indices 1 2 3 4 5 6 
#
# 1 0.020066 0.001175 -0.003971 0.000000 0.000000 0.000000
# 2 0.001175 0.013492 -0.002648 0.000000 0.000000 0.000000
# 3 -0.003971 -0.002648 0.012212 0.000000 0.000000 0.000000
# 4 0.000000 0.000000 0.000000 0.067166 0.000000 0.000000
# 5 0.000000 0.000000 0.000000 0.000000 0.057094 0.000000
# 6 0.000000 0.000000 0.000000 0.000000 0.000000 0.047323
#
#
# Mechanical properties :
#
#
# Convention : Reuss Voigt Hill
#
# Bulk Modulus (GPa) = 28.66829 31.77290 30.22059
# Shear Modulus (GPa) = 20.84476 23.34612 22.09544
#
# Velocity S-wave (km/s) = 3.29141 3.48330 3.38871
# Velocity P-wave (km/s) = 5.41700 5.71759 5.56932
#
# Compressibility (1/GPa) = 0.03488175
#
# Stress axis : x y z
#
# Youngs Moduli (GPa) = 49.83516 74.12047 81.88435
#
# Poissons Ratio (x) = -0.08712 0.32519
# Poissons Ratio (y) = -0.05858 0.21685
# Poissons Ratio (z) = 0.19791 0.19628
#
# Static dielectric constant tensor:
#      x y z
#    x 1.641460 0.000000 0.000000 
#    y 0.000000 1.659260 0.000000 
#    z 0.000000 0.000000 1.650550 
# 
# From -- ./inp_files/17968.got.cif
#   From: 2010.05.17/outbox.cif.g08.bks.cpg/sg52_9_cif.got.tgz:17968.got - 2010.06.03 12:15:38.
