data_PCOD9412422
_publ_section_title
;
Structure prediction by ZEFSAII (Michael W. Deem and Ramdas Pophale) SiO2 
 PCOD9412422
Probable space group: P N N A
;
_chemical_formula_sum "Si O2"
_cell_formula_units_Z 36
_cell_length_a 23.314642
_cell_length_b 7.609210
_cell_length_c 8.536811
_cell_angle_alpha 90.000000
_cell_angle_beta 90.000000
_cell_angle_gamma 90.000000
_cell_volume 1514.481552
_symmetry_space_group_name_H-M "P N N A"
_symmetry_group_IT_number 52
_symmetry_cell_setting 'orthorhombic'
loop_
_space_group_symop_operation_xyz
x,y,z
1/2-x,-y,z
x,1/2-y,1/2-z
1/2-x,1/2+y,1/2-z
-x,-y,-z
1/2+x,y,-z
-x,1/2+y,1/2+z
1/2+x,1/2-y,1/2+z
loop_
_atom_site_type_symbol
_atom_site_label
_atom_site_fract_x
_atom_site_fract_y
_atom_site_fract_z
Si Si1 0.630987 0.059518 0.677024
Si Si2 0.250000 0.000000 0.170056
Si Si3 0.114835 0.819415 0.584707
Si Si4 0.969806 0.112545 0.864548
Si Si5 0.254218 0.291545 0.920804
O O1 0.638266 0.250000 0.750000
O O2 0.623105 0.015958 0.490432
O O3 0.570738 0.004642 0.755610
O O4 0.690659 0.963512 0.733751
O O5 0.266392 0.835534 0.057962
O O6 0.090093 0.750000 0.750000
O O7 0.075887 0.729921 0.456552
O O8 0.178666 0.742881 0.585924
O O9 0.003580 0.250000 0.750000
O O10 0.000000 0.000000 0.000000
O O11 0.250000 0.500000 0.942479
O O12 0.228303 0.250000 0.750000
#
# Coordination Sequence:
#
# PCOD9412422 Si02
#       5
#     8   4   8   8   8
#     4  11  25  42  68 103 139 184 241 293 364 443
#     4  12  24  40  68 102 144 192 238 294 358 450
#     4  10  23  44  65  95 140 182 234 294 357 427
#     4  10  23  45  70  99 136 180 240 301 364 434
#     4  11  22  39  63  99 142 187 232 284 356 430
#
# _framework density 23.770512
#
# number of rings (size 3 to 8) (size 9 to 14) (size 15 to 20)
#    0.000    1.333    3.333    1.333    4.667    2.667 
#    0.000    5.556    0.000    0.000    0.000    0.000 
#    0.000    0.000    0.000    0.000    0.000    0.000 
#
# Total GULP energy -200455.972523 kJ/mol
# GULP energy per Si atom -5568.221459 kJ/mol
# Density = 2.371641 g / cm^3
# Si number density = 23.770512 Si / 1000 Ang^3
#
#
#
# Elastic Constant Matrix: (Units=GPa)
#
#
# Indices 1 2 3 4 5 6 
#
# 1 57.8339 6.9938 12.2168 0.0000 0.0000 0.0000
# 2 6.9938 124.6984 53.5346 0.0000 0.0000 0.0000
# 3 12.2168 53.5346 146.3958 0.0000 0.0000 0.0000
# 4 0.0000 0.0000 0.0000 38.5653 0.0000 0.0000
# 5 0.0000 0.0000 0.0000 0.0000 22.8106 0.0000
# 6 0.0000 0.0000 0.0000 0.0000 0.0000 16.7269
#
#
#
# Elastic Compliance Matrix: (Units=1/GPa)
#
#
# Indices 1 2 3 4 5 6 
#
# 1 0.017620 -0.000423 -0.001316 0.000000 0.000000 0.000000
# 2 -0.000423 0.009523 -0.003447 0.000000 0.000000 0.000000
# 3 -0.001316 -0.003447 0.008201 0.000000 0.000000 0.000000
# 4 0.000000 0.000000 0.000000 0.025930 0.000000 0.000000
# 5 0.000000 0.000000 0.000000 0.000000 0.043839 0.000000
# 6 0.000000 0.000000 0.000000 0.000000 0.000000 0.059784
#
#
# Mechanical properties :
#
#
# Convention : Reuss Voigt Hill
#
# Bulk Modulus (GPa) = 40.04492 52.71317 46.37905
# Shear Modulus (GPa) = 27.23410 32.69942 29.96676
#
# Velocity S-wave (km/s) = 3.38851 3.71297 3.55444
# Velocity P-wave (km/s) = 5.67383 6.37225 6.03315
#
# Compressibility (1/GPa) = 0.02497196
#
# Stress axis : x y z
#
# Youngs Moduli (GPa) = 56.75367 105.00929 121.93465
#
# Poissons Ratio (x) = 0.04447 0.16041
# Poissons Ratio (y) = 0.02403 0.42032
# Poissons Ratio (z) = 0.07466 0.36197
#
# Static dielectric constant tensor:
#      x y z
#    x 1.897330 0.000000 0.000000 
#    y 0.000000 2.054400 0.000000 
#    z 0.000000 0.000000 2.050740 
# 
# From -- ./inp_files/14751.got.cif
#   From: 2010.05.17/outbox.cif.g08.bks.cpg/sg52_8_cif.got.tgz:14751.got - 2010.06.03 12:15:38.
