data_PCOD9412640
_publ_section_title
;
Structure prediction by ZEFSAII (Michael W. Deem and Ramdas Pophale) SiO2 
 PCOD9412640
Probable space group: P N N A
;
_chemical_formula_sum "Si O2"
_cell_formula_units_Z 36
_cell_length_a 10.657350
_cell_length_b 22.987786
_cell_length_c 5.273073
_cell_angle_alpha 90.000000
_cell_angle_beta 90.000000
_cell_angle_gamma 90.000000
_cell_volume 1291.844254
_symmetry_space_group_name_H-M "P N N A"
_symmetry_group_IT_number 52
_symmetry_cell_setting 'orthorhombic'
loop_
_space_group_symop_operation_xyz
x,y,z
1/2-x,-y,z
x,1/2-y,1/2-z
1/2-x,1/2+y,1/2-z
-x,-y,-z
1/2+x,y,-z
-x,1/2+y,1/2+z
1/2+x,1/2-y,1/2+z
loop_
_atom_site_type_symbol
_atom_site_label
_atom_site_fract_x
_atom_site_fract_y
_atom_site_fract_z
Si Si1 0.128775 0.354814 0.119458
Si Si2 0.246524 0.750000 0.250000
Si Si3 0.900587 0.186396 0.124451
Si Si4 0.719439 0.923866 0.012480
Si Si5 0.471431 0.548920 0.784992
O O1 0.040479 0.336039 0.357172
O O2 0.175593 0.289507 0.051866
O O3 0.219854 0.402075 0.246495
O O4 0.041289 0.388593 0.924741
O O5 0.155422 0.701129 0.354387
O O6 0.894668 0.250000 0.250000
O O7 0.813814 0.131218 0.196269
O O8 0.915571 0.051964 0.918569
O O9 0.833805 0.955820 0.155290
O O10 0.500000 0.500000 0.000000
#
# Coordination Sequence:
#
# PCOD9412640 Si02
#       5
#     8   4   8   8   8
#     4  11  25  47  79 122 167 220 280 346 422 511
#     4  10  24  42  74 120 174 224 268 346 416 514
#     4  11  23  43  76 119 172 221 270 338 425 507
#     4  11  27  54  82 124 167 215 292 350 421 522
#     4  12  30  57  89 119 168 229 288 363 434 503
#
# _framework density 27.867137
#
# number of rings (size 3 to 8) (size 9 to 14) (size 15 to 20)
#    0.000    0.889    3.333    1.333    9.333    1.778 
#   16.000    1.111    0.000    0.000    0.000    0.000 
#    0.000    0.000    0.000    0.000    0.000    0.000 
#
# Total GULP energy -200983.384958 kJ/mol
# GULP energy per Si atom -5582.871804 kJ/mol
# Density = 2.780371 g / cm^3
# Si number density = 27.867137 Si / 1000 Ang^3
#
#
#
# Elastic Constant Matrix: (Units=GPa)
#
#
# Indices 1 2 3 4 5 6 
#
# 1 193.1500 96.4260 42.5116 0.0000 0.0000 0.0000
# 2 96.4260 146.5373 52.4832 0.0000 0.0000 0.0000
# 3 42.5116 52.4832 75.9135 0.0000 0.0000 0.0000
# 4 0.0000 0.0000 0.0000 65.1176 0.0000 0.0000
# 5 0.0000 0.0000 0.0000 0.0000 37.0848 0.0000
# 6 0.0000 0.0000 0.0000 0.0000 0.0000 60.4443
#
#
#
# Elastic Compliance Matrix: (Units=1/GPa)
#
#
# Indices 1 2 3 4 5 6 
#
# 1 0.007777 -0.004729 -0.001086 0.000000 0.000000 0.000000
# 2 -0.004729 0.011945 -0.005610 0.000000 0.000000 0.000000
# 3 -0.001086 -0.005610 0.017660 0.000000 0.000000 0.000000
# 4 0.000000 0.000000 0.000000 0.015357 0.000000 0.000000
# 5 0.000000 0.000000 0.000000 0.000000 0.026965 0.000000
# 6 0.000000 0.000000 0.000000 0.000000 0.000000 0.016544
#
#
# Mechanical properties :
#
#
# Convention : Reuss Voigt Hill
#
# Bulk Modulus (GPa) = 68.81310 88.71582 78.76446
# Shear Modulus (GPa) = 40.34150 47.47466 43.90808
#
# Velocity S-wave (km/s) = 3.80891 4.13196 3.97372
# Velocity P-wave (km/s) = 6.64008 7.39381 7.02706
#
# Compressibility (1/GPa) = 0.01453212
#
# Stress axis : x y z
#
# Youngs Moduli (GPa) = 128.58504 83.71650 56.62576
#
# Poissons Ratio (x) = 0.39585 0.06150
# Poissons Ratio (y) = 0.60801 0.31769
# Poissons Ratio (z) = 0.13965 0.46968
#
# Static dielectric constant tensor:
#      x y z
#    x 2.171380 0.000000 0.000000 
#    y 0.000000 2.382270 0.000000 
#    z 0.000000 0.000000 2.249890 
# 
# From -- ./inp_files/1239.got.cif
#   From: 2010.05.17/outbox.cif.g08.bks.cpg/sg52_1_cif.got.tgz:1239.got - 2010.06.03 12:15:38.
