data_PCOD9412009
_publ_section_title
;
Structure prediction by ZEFSAII (Michael W. Deem and Ramdas Pophale) SiO2 
 PCOD9412009
Probable space group: P N N A
;
_chemical_formula_sum "Si O2"
_cell_formula_units_Z 36
_cell_length_a 19.533686
_cell_length_b 14.668622
_cell_length_c 5.124375
_cell_angle_alpha 90.000000
_cell_angle_beta 90.000000
_cell_angle_gamma 90.000000
_cell_volume 1468.298730
_symmetry_space_group_name_H-M "P N N A"
_symmetry_group_IT_number 52
_symmetry_cell_setting 'orthorhombic'
loop_
_space_group_symop_operation_xyz
x,y,z
1/2-x,-y,z
x,1/2-y,1/2-z
1/2-x,1/2+y,1/2-z
-x,-y,-z
1/2+x,y,-z
-x,1/2+y,1/2+z
1/2+x,1/2-y,1/2+z
loop_
_atom_site_type_symbol
_atom_site_label
_atom_site_fract_x
_atom_site_fract_y
_atom_site_fract_z
Si Si1 0.710583 0.145714 0.141737
Si Si2 0.420459 0.606006 0.935236
Si Si3 0.066485 0.565083 0.282552
Si Si4 0.362891 0.359267 0.780137
Si Si5 0.360885 0.750000 0.250000
O O1 0.710887 0.250000 0.250000
O O2 0.649620 0.090258 0.275815
O O3 0.785951 0.111402 0.200577
O O4 0.687933 0.167723 0.845939
O O5 0.488509 0.593700 0.769664
O O6 0.426945 0.538686 0.182466
O O7 0.410818 0.708524 0.035893
O O8 0.087759 0.591138 0.573183
O O9 0.115235 0.617026 0.073952
O O10 0.367794 0.250000 0.750000
#
# Coordination Sequence:
#
# PCOD9412009 Si02
#       5
#     8   8   8   8   4
#     4   9  22  42  67  98 136 184 235 284 346 428
#     4  10  25  45  68 102 141 187 236 286 355 423
#     4  11  27  45  71 105 145 179 236 301 348 416
#     4  11  26  45  71 103 142 186 234 293 358 415
#     4  10  22  42  72  94 138 188 236 282 348 434
#
# _framework density 24.518172
#
# number of rings (size 3 to 8) (size 9 to 14) (size 15 to 20)
#    0.000    1.778    0.000    0.667   17.111    6.222 
#    0.000    0.000    0.000    0.000    0.000    0.000 
#    0.000    0.000    0.000    0.000    0.000    0.000 
#
# Total GULP energy -201472.743260 kJ/mol
# GULP energy per Si atom -5596.465091 kJ/mol
# Density = 2.446237 g / cm^3
# Si number density = 24.518172 Si / 1000 Ang^3
#
#
#
# Elastic Constant Matrix: (Units=GPa)
#
#
# Indices 1 2 3 4 5 6 
#
# 1 164.4633 46.3586 11.1416 0.0000 0.0000 0.0000
# 2 46.3586 50.7988 10.7446 0.0000 0.0000 0.0000
# 3 11.1416 10.7446 62.3777 0.0000 0.0000 0.0000
# 4 0.0000 0.0000 0.0000 41.5188 0.0000 0.0000
# 5 0.0000 0.0000 0.0000 0.0000 31.5790 0.0000
# 6 0.0000 0.0000 0.0000 0.0000 0.0000 39.4868
#
#
#
# Elastic Compliance Matrix: (Units=1/GPa)
#
#
# Indices 1 2 3 4 5 6 
#
# 1 0.008188 -0.007434 -0.000182 0.000000 0.000000 0.000000
# 2 -0.007434 0.027179 -0.003354 0.000000 0.000000 0.000000
# 3 -0.000182 -0.003354 0.016642 0.000000 0.000000 0.000000
# 4 0.000000 0.000000 0.000000 0.024085 0.000000 0.000000
# 5 0.000000 0.000000 0.000000 0.000000 0.031667 0.000000
# 6 0.000000 0.000000 0.000000 0.000000 0.000000 0.025325
#
#
# Mechanical properties :
#
#
# Convention : Reuss Voigt Hill
#
# Bulk Modulus (GPa) = 33.25656 46.01436 39.63546
# Shear Modulus (GPa) = 30.29413 36.47661 33.38537
#
# Velocity S-wave (km/s) = 3.51889 3.86130 3.69407
# Velocity P-wave (km/s) = 5.48668 6.21995 5.86478
#
# Compressibility (1/GPa) = 0.03006925
#
# Stress axis : x y z
#
# Youngs Moduli (GPa) = 122.12707 36.79300 60.09045
#
# Poissons Ratio (x) = 0.27352 0.01094
# Poissons Ratio (y) = 0.90789 0.20153
# Poissons Ratio (z) = 0.02223 0.12340
#
# Static dielectric constant tensor:
#      x y z
#    x 1.909840 0.000000 0.000000 
#    y 0.000000 1.979970 0.000000 
#    z 0.000000 0.000000 2.077640 
# 
# From -- ./inp_files/4087.got.cif
#   From: 2010.05.17/outbox.cif.g08.bks.cpg/sg52_3_cif.got.tgz:4087.got - 2010.06.03 12:15:38.
