data_PCOD9412514
_publ_section_title
;
Structure prediction by ZEFSAII (Michael W. Deem and Ramdas Pophale) SiO2 
 PCOD9412514
Probable space group: P N N A
;
_chemical_formula_sum "Si O2"
_cell_formula_units_Z 56
_cell_length_a 23.484794
_cell_length_b 7.739414
_cell_length_c 14.343703
_cell_angle_alpha 90.000000
_cell_angle_beta 90.000000
_cell_angle_gamma 90.000000
_cell_volume 2607.090565
_symmetry_space_group_name_H-M "P N N A"
_symmetry_group_IT_number 52
_symmetry_cell_setting 'orthorhombic'
loop_
_space_group_symop_operation_xyz
x,y,z
1/2-x,-y,z
x,1/2-y,1/2-z
1/2-x,1/2+y,1/2-z
-x,-y,-z
1/2+x,y,-z
-x,1/2+y,1/2+z
1/2+x,1/2-y,1/2+z
loop_
_atom_site_type_symbol
_atom_site_label
_atom_site_fract_x
_atom_site_fract_y
_atom_site_fract_z
Si Si1 0.008142 0.899397 0.097057
Si Si2 0.198192 0.635105 0.658415
Si Si3 0.404315 0.921602 0.192592
Si Si4 0.382006 0.827864 0.850464
Si Si5 0.227561 0.698971 0.452251
Si Si6 0.651558 0.200107 0.544122
Si Si7 0.615675 0.850872 0.632786
O O1 0.060190 0.760990 0.102751
O O2 0.948845 0.818774 0.127688
O O3 0.030051 0.041599 0.170618
O O4 0.000000 0.000000 0.000000
O O5 0.250000 0.500000 0.670479
O O6 0.195221 0.750000 0.750000
O O7 0.140983 0.523048 0.646895
O O8 0.210323 0.728714 0.560261
O O9 0.394331 0.750000 0.250000
O O10 0.375117 0.870519 0.094358
O O11 0.385357 0.074702 0.261451
O O12 0.369012 0.750000 0.750000
O O13 0.350578 0.729796 0.934075
O O14 0.250000 0.500000 0.445043
O O15 0.282862 0.810110 0.425531
O O16 0.173035 0.747146 0.391644
O O17 0.618364 0.028228 0.572565
#
# Coordination Sequence:
#
# PCOD9412514 Si02
#       7
#     8   8   8   8   8   8   8
#     4  12  24  47  70  98 144 186 233 297 360 415
#     4  11  24  42  67  99 139 191 231 294 365 427
#     4  10  23  47  70  97 140 180 229 291 349 414
#     4  12  25  43  67 103 139 188 237 295 349 430
#     4  11  22  42  70 101 143 182 230 295 363 421
#     4  11  23  45  69 102 148 179 237 298 357 422
#     4  11  25  43  73 103 131 191 236 291 354 435
#
# _framework density 21.479882
#
# number of rings (size 3 to 8) (size 9 to 14) (size 15 to 20)
#    0.000    0.857    4.286    3.857    2.000    1.143 
#    2.571   12.857    0.000    0.000    0.000    0.000 
#    0.000    0.000    0.000    0.000    0.000    0.000 
#
# Total GULP energy -312864.380037 kJ/mol
# GULP energy per Si atom -5586.863929 kJ/mol
# Density = 2.143099 g / cm^3
# Si number density = 21.479882 Si / 1000 Ang^3
#
#
#
# Elastic Constant Matrix: (Units=GPa)
#
#
# Indices 1 2 3 4 5 6 
#
# 1 136.6769 30.7604 21.7724 0.0000 0.0000 0.0000
# 2 30.7604 84.8806 35.2332 0.0000 0.0000 0.0000
# 3 21.7724 35.2332 126.0147 0.0000 0.0000 0.0000
# 4 0.0000 0.0000 0.0000 35.1075 0.0000 0.0000
# 5 0.0000 0.0000 0.0000 0.0000 27.6388 0.0000
# 6 0.0000 0.0000 0.0000 0.0000 0.0000 32.9503
#
#
#
# Elastic Compliance Matrix: (Units=1/GPa)
#
#
# Indices 1 2 3 4 5 6 
#
# 1 0.008013 -0.002635 -0.000648 0.000000 0.000000 0.000000
# 2 -0.002635 0.014195 -0.003513 0.000000 0.000000 0.000000
# 3 -0.000648 -0.003513 0.009030 0.000000 0.000000 0.000000
# 4 0.000000 0.000000 0.000000 0.028484 0.000000 0.000000
# 5 0.000000 0.000000 0.000000 0.000000 0.036181 0.000000
# 6 0.000000 0.000000 0.000000 0.000000 0.000000 0.030349
#
#
# Mechanical properties :
#
#
# Convention : Reuss Voigt Hill
#
# Bulk Modulus (GPa) = 56.67359 58.12269 57.39814
# Shear Modulus (GPa) = 34.31128 36.45973 35.38550
#
# Velocity S-wave (km/s) = 4.00104 4.12441 4.06319
# Velocity P-wave (km/s) = 6.91276 7.05683 6.98517
#
# Compressibility (1/GPa) = 0.01764490
#
# Stress axis : x y z
#
# Youngs Moduli (GPa) = 124.80158 70.44949 110.74384
#
# Poissons Ratio (x) = 0.18563 0.07173
# Poissons Ratio (y) = 0.32884 0.38910
# Poissons Ratio (z) = 0.08083 0.24752
#
# Static dielectric constant tensor:
#      x y z
#    x 1.761310 0.000000 0.000000 
#    y 0.000000 1.872350 0.000000 
#    z 0.000000 0.000000 1.791840 
# 
# From -- ./inp_files/28783.got.cif
#   From: 2010.05.17/outbox.cif.g08.bks.cpg/sg52_15_cif.got.tgz:28783.got - 2010.06.03 12:15:38.
