data_PCOD9412207
_publ_section_title
;
Structure prediction by ZEFSAII (Michael W. Deem and Ramdas Pophale) SiO2 
 PCOD9412207
Probable space group: P N N A
;
_chemical_formula_sum "Si O2"
_cell_formula_units_Z 40
_cell_length_a 15.688730
_cell_length_b 7.391593
_cell_length_c 14.930041
_cell_angle_alpha 90.000000
_cell_angle_beta 90.000000
_cell_angle_gamma 90.000000
_cell_volume 1731.357828
_symmetry_space_group_name_H-M "P N N A"
_symmetry_group_IT_number 52
_symmetry_cell_setting 'orthorhombic'
loop_
_space_group_symop_operation_xyz
x,y,z
1/2-x,-y,z
x,1/2-y,1/2-z
1/2-x,1/2+y,1/2-z
-x,-y,-z
1/2+x,y,-z
-x,1/2+y,1/2+z
1/2+x,1/2-y,1/2+z
loop_
_atom_site_type_symbol
_atom_site_label
_atom_site_fract_x
_atom_site_fract_y
_atom_site_fract_z
Si Si1 0.827063 0.400091 0.682889
Si Si2 0.500944 0.519559 0.607436
Si Si3 0.563666 0.390477 0.065472
Si Si4 0.734765 0.287531 0.984883
Si Si5 0.853260 0.259920 0.150684
O O1 0.750000 0.500000 0.732985
O O2 0.860014 0.250000 0.750000
O O3 0.778691 0.315009 0.596967
O O4 0.906663 0.516715 0.649865
O O5 0.500000 0.500000 0.500000
O O6 0.482127 0.733029 0.620760
O O7 0.429396 0.385529 0.644479
O O8 0.634849 0.285297 0.006646
O O9 0.609148 0.541725 0.126514
O O10 0.500000 0.500000 0.000000
O O11 0.750000 0.500000 0.970981
O O12 0.784150 0.223951 0.073983
O O13 0.816217 0.250000 0.250000
#
# Coordination Sequence:
#
# PCOD9412207 Si02
#       5
#     8   8   8   8   8
#     4  12  27  44  70 104 140 183 236 295 364 435
#     4  12  23  46  72 101 138 187 241 293 356 428
#     4  11  23  43  74 103 138 190 235 291 355 423
#     4  10  22  47  69  99 145 184 231 295 356 421
#     4  11  26  45  69 104 143 187 238 292 357 426
#
# _framework density 23.103256999999999
#
# number of rings (size 3 to 8) (size 9 to 14) (size 15 to 20)
#    0.000    0.800    4.000    3.000    2.800    0.800 
#   10.800    0.000    0.000    0.000    0.000    0.000 
#    0.000    0.000    0.000    0.000    0.000    0.000 
#
# Total GULP energy -223810.202506 kJ/mol
# GULP energy per Si atom -5595.255063 kJ/mol
# Density = 2.305067 g / cm^3
# Si number density = 23.103257 Si / 1000 Ang^3
#
#
#
# Elastic Constant Matrix: (Units=GPa)
#
#
# Indices 1 2 3 4 5 6 
#
# 1 136.4270 27.6121 18.9059 0.0000 0.0000 0.0000
# 2 27.6121 96.0950 15.0863 0.0000 0.0000 0.0000
# 3 18.9059 15.0863 107.5697 0.0000 0.0000 0.0000
# 4 0.0000 0.0000 0.0000 30.7944 0.0000 0.0000
# 5 0.0000 0.0000 0.0000 0.0000 310.8120 0.0000
# 6 0.0000 0.0000 0.0000 0.0000 0.0000 44.7417
#
#
#
# Elastic Compliance Matrix: (Units=1/GPa)
#
#
# Indices 1 2 3 4 5 6 
#
# 1 0.007907 -0.002100 -0.001095 0.000000 0.000000 0.000000
# 2 -0.002100 0.011198 -0.001201 0.000000 0.000000 0.000000
# 3 -0.001095 -0.001201 0.009657 0.000000 0.000000 0.000000
# 4 0.000000 0.000000 0.000000 0.032473 0.000000 0.000000
# 5 0.000000 0.000000 0.000000 0.000000 0.003217 0.000000
# 6 0.000000 0.000000 0.000000 0.000000 0.000000 0.022351
#
#
# Mechanical properties :
#
#
# Convention : Reuss Voigt Hill
#
# Bulk Modulus (GPa) = 50.07703 51.47780 50.77742
# Shear Modulus (GPa) = 48.89819 95.83546 72.36682
#
# Velocity S-wave (km/s) = 4.60554 6.44759 5.60279
# Velocity P-wave (km/s) = 7.07133 8.81808 7.99257
#
# Compressibility (1/GPa) = 0.01996923
#
# Stress axis : x y z
#
# Youngs Moduli (GPa) = 126.47470 89.29844 103.54892
#
# Poissons Ratio (x) = 0.18753 0.11340
# Poissons Ratio (y) = 0.26560 0.12441
# Poissons Ratio (z) = 0.13851 0.10729
#
# Static dielectric constant tensor:
#      x y z
#    x 1.981180 0.000000 0.000000 
#    y 0.000000 1.831850 0.000000 
#    z 0.000000 0.000000 1.828890 
# 
# From -- ./inp_files/26895.got.cif
#   From: 2010.05.17/outbox.cif.g08.bks.cpg/sg52_14_cif.got.tgz:26895.got - 2010.06.03 12:15:38.
