data_PCOD9412336
_publ_section_title
;
Structure prediction by ZEFSAII (Michael W. Deem and Ramdas Pophale) SiO2 
 PCOD9412336
Probable space group: P N N A
;
_chemical_formula_sum "Si O2"
_cell_formula_units_Z 60
_cell_length_a 9.182693
_cell_length_b 27.220214
_cell_length_c 11.855483
_cell_angle_alpha 90.000000
_cell_angle_beta 90.000000
_cell_angle_gamma 90.000000
_cell_volume 2963.335695
_symmetry_space_group_name_H-M "P N N A"
_symmetry_group_IT_number 52
_symmetry_cell_setting 'orthorhombic'
loop_
_space_group_symop_operation_xyz
x,y,z
1/2-x,-y,z
x,1/2-y,1/2-z
1/2-x,1/2+y,1/2-z
-x,-y,-z
1/2+x,y,-z
-x,1/2+y,1/2+z
1/2+x,1/2-y,1/2+z
loop_
_atom_site_type_symbol
_atom_site_label
_atom_site_fract_x
_atom_site_fract_y
_atom_site_fract_z
Si Si1 0.093783 0.898416 0.748639
Si Si2 0.141851 0.046940 0.683246
Si Si3 0.316292 0.323382 0.080306
Si Si4 0.444509 0.250000 0.250000
Si Si5 0.667092 0.233118 0.043164
Si Si6 0.956209 0.205897 0.158847
Si Si7 0.076113 0.991514 0.883737
Si Si8 0.056209 0.109131 0.475053
O O1 0.266298 0.907532 0.736098
O O2 0.037770 0.844542 0.773480
O O3 0.045792 0.936520 0.842901
O O4 0.034647 0.912985 0.626823
O O5 0.080060 0.068053 0.568923
O O6 0.250000 0.000000 0.664599
O O7 0.034099 0.027451 0.780127
O O8 0.347796 0.294534 0.197572
O O9 0.203425 0.368326 0.077318
O O10 0.245881 0.283723 0.994832
O O11 0.464788 0.345990 0.030454
O O12 0.549227 0.237186 0.144036
O O13 0.803595 0.203059 0.091035
O O14 0.583585 0.213737 0.932447
O O15 0.953364 0.250000 0.250000
O O16 0.250000 0.000000 0.897349
O O17 0.000000 0.000000 0.000000
#
# Coordination Sequence:
#
# PCOD9412336 Si02
#       8
#     8   8   8   4   8   8   8   8
#     4  10  23  42  66  93 135 174 218 274 345 404
#     4   9  22  43  70  98 135 173 217 282 354 419
#     4  12  25  43  64  98 135 181 227 287 334 411
#     4  12  26  42  64  92 138 176 238 268 346 400
#     4  12  25  42  62  92 131 180 226 278 329 398
#     4  12  26  41  66  94 135 180 227 279 336 405
#     4   9  21  46  69  95 131 173 215 276 342 415
#     4  12  23  43  68 100 132 171 231 279 351 406
#
# _framework density 20.247451999999999
#
# number of rings (size 3 to 8) (size 9 to 14) (size 15 to 20)
#    0.000    1.333    4.667    1.600    4.667    4.267 
#    2.400    0.000    0.000    0.000    0.000    0.000 
#    0.000    0.000    0.000    0.000    0.000    0.000 
#
# Total GULP energy -334865.130802 kJ/mol
# GULP energy per Si atom -5581.085513 kJ/mol
# Density = 2.020137 g / cm^3
# Si number density = 20.247452 Si / 1000 Ang^3
#
#
#
# Elastic Constant Matrix: (Units=GPa)
#
#
# Indices 1 2 3 4 5 6 
#
# 1 61.8218 30.3203 44.7110 0.0000 0.0000 0.0000
# 2 30.3203 94.9433 78.9930 0.0000 0.0000 0.0000
# 3 44.7110 78.9930 149.3262 0.0000 0.0000 0.0000
# 4 0.0000 0.0000 0.0000 40.6247 0.0000 0.0000
# 5 0.0000 0.0000 0.0000 0.0000 61.2920 0.0000
# 6 0.0000 0.0000 0.0000 0.0000 0.0000 20.7132
#
#
#
# Elastic Compliance Matrix: (Units=1/GPa)
#
#
# Indices 1 2 3 4 5 6 
#
# 1 0.021009 -0.002636 -0.004896 0.000000 0.000000 0.000000
# 2 -0.002636 0.019143 -0.009337 0.000000 0.000000 0.000000
# 3 -0.004896 -0.009337 0.013102 0.000000 0.000000 0.000000
# 4 0.000000 0.000000 0.000000 0.024616 0.000000 0.000000
# 5 0.000000 0.000000 0.000000 0.000000 0.016315 0.000000
# 6 0.000000 0.000000 0.000000 0.000000 0.000000 0.048278
#
#
# Mechanical properties :
#
#
# Convention : Reuss Voigt Hill
#
# Bulk Modulus (GPa) = 51.24039 68.23776 59.73908
# Shear Modulus (GPa) = 27.36606 34.66378 31.01492
#
# Velocity S-wave (km/s) = 3.68037 4.14213 3.91806
# Velocity P-wave (km/s) = 6.58955 7.52671 7.07367
#
# Compressibility (1/GPa) = 0.01951585
#
# Stress axis : x y z
#
# Youngs Moduli (GPa) = 47.59800 52.23820 76.32244
#
# Poissons Ratio (x) = 0.13768 0.37370
# Poissons Ratio (y) = 0.12545 0.71266
# Poissons Ratio (z) = 0.23306 0.48777
#
# Static dielectric constant tensor:
#      x y z
#    x 1.742180 0.000000 0.000000 
#    y 0.000000 1.636380 0.000000 
#    z 0.000000 0.000000 1.725040 
# 
# From -- ./inp_files/17121.got.cif
#   From: 2010.05.17/outbox.cif.g08.bks.cpg/sg52_9_cif.got.tgz:17121.got - 2010.06.03 12:15:38.
