data_PCOD9412120
_publ_section_title
;
Structure prediction by ZEFSAII (Michael W. Deem and Ramdas Pophale) SiO2 
 PCOD9412120
Probable space group: P N N A
;
_chemical_formula_sum "Si O2"
_cell_formula_units_Z 48
_cell_length_a 6.214645
_cell_length_b 14.072536
_cell_length_c 25.709397
_cell_angle_alpha 90.000000
_cell_angle_beta 90.000000
_cell_angle_gamma 90.000000
_cell_volume 2248.436280
_symmetry_space_group_name_H-M "P N N A"
_symmetry_group_IT_number 52
_symmetry_cell_setting 'orthorhombic'
loop_
_space_group_symop_operation_xyz
x,y,z
1/2-x,-y,z
x,1/2-y,1/2-z
1/2-x,1/2+y,1/2-z
-x,-y,-z
1/2+x,y,-z
-x,1/2+y,1/2+z
1/2+x,1/2-y,1/2+z
loop_
_atom_site_type_symbol
_atom_site_label
_atom_site_fract_x
_atom_site_fract_y
_atom_site_fract_z
Si Si1 0.385016 0.904413 0.190220
Si Si2 0.360793 0.230775 0.989090
Si Si3 0.488767 0.235603 0.621871
Si Si4 0.890414 0.640584 0.170315
Si Si5 0.157159 0.896410 0.429193
Si Si6 0.250000 0.500000 0.747961
Si Si7 0.350909 0.250000 0.250000
O O1 0.407529 0.832276 0.142466
O O2 0.618804 0.932147 0.210485
O O3 0.283275 0.842618 0.236231
O O4 0.250000 0.000000 0.179853
O O5 0.386108 0.330565 0.020520
O O6 0.616188 0.191008 0.994923
O O7 0.340040 0.241559 0.927450
O O8 0.348211 0.182035 0.664629
O O9 0.662471 0.161933 0.601705
O O10 0.900298 0.557837 0.212820
O O11 0.968325 0.602545 0.114175
O O12 0.019985 0.725951 0.197479
O O13 0.250000 0.000000 0.442553
#
# Coordination Sequence:
#
# PCOD9412120 Si02
#       7
#     8   8   8   8   8   4   4
#     4  12  26  46  67 101 134 184 235 289 351 426
#     4  10  22  44  68 102 141 189 235 298 364 431
#     4  11  24  43  69  97 138 187 230 290 358 426
#     4  12  23  41  63 101 135 189 228 289 355 429
#     4  11  24  41  67 102 142 184 235 294 359 438
#     4  12  26  40  66  96 142 178 236 282 350 422
#     4  12  24  44  68  92 144 180 226 288 354 420
#
# _framework density 21.34817
#
# number of rings (size 3 to 8) (size 9 to 14) (size 15 to 20)
#    0.000    0.667    5.000    3.000    2.333    2.667 
#    1.500    0.000    0.000    4.000    0.000    0.000 
#    0.000    0.000    0.000    0.000    0.000    0.000 
#
# Total GULP energy -267567.572036 kJ/mol
# GULP energy per Si atom -5574.324417 kJ/mol
# Density = 2.129958 g / cm^3
# Si number density = 21.348170 Si / 1000 Ang^3
#
#
#
# Elastic Constant Matrix: (Units=GPa)
#
#
# Indices 1 2 3 4 5 6 
#
# 1 64.5112 20.1841 9.4570 0.0000 0.0000 0.0000
# 2 20.1841 70.9135 11.3799 0.0000 0.0000 0.0000
# 3 9.4570 11.3799 68.7821 0.0000 0.0000 0.0000
# 4 0.0000 0.0000 0.0000 25.9579 0.0000 0.0000
# 5 0.0000 0.0000 0.0000 0.0000 37.9302 0.0000
# 6 0.0000 0.0000 0.0000 0.0000 0.0000 28.0886
#
#
#
# Elastic Compliance Matrix: (Units=1/GPa)
#
#
# Indices 1 2 3 4 5 6 
#
# 1 0.017185 -0.004635 -0.001596 0.000000 0.000000 0.000000
# 2 -0.004635 0.015737 -0.001966 0.000000 0.000000 0.000000
# 3 -0.001596 -0.001966 0.015083 0.000000 0.000000 0.000000
# 4 0.000000 0.000000 0.000000 0.038524 0.000000 0.000000
# 5 0.000000 0.000000 0.000000 0.000000 0.026364 0.000000
# 6 0.000000 0.000000 0.000000 0.000000 0.000000 0.035602
#
#
# Mechanical properties :
#
#
# Convention : Reuss Voigt Hill
#
# Bulk Modulus (GPa) = 31.63532 31.80544 31.72038
# Shear Modulus (GPa) = 28.50185 29.27439 28.88812
#
# Velocity S-wave (km/s) = 3.65786 3.70710 3.68256
# Velocity P-wave (km/s) = 5.71759 5.76665 5.74217
#
# Compressibility (1/GPa) = 0.03161024
#
# Stress axis : x y z
#
# Youngs Moduli (GPa) = 58.18876 63.54611 66.29801
#
# Poissons Ratio (x) = 0.29456 0.10581
# Poissons Ratio (y) = 0.26973 0.13036
# Poissons Ratio (z) = 0.09287 0.12495
#
# Static dielectric constant tensor:
#      x y z
#    x 1.717830 0.000000 0.000000 
#    y 0.000000 1.753910 0.000000 
#    z 0.000000 0.000000 1.777860 
# 
# From -- ./inp_files/41715.got.cif
#   From: 2010.05.17/outbox.cif.g08.bks.cpg/sg52_21_cif.got.tgz:41715.got - 2010.06.03 12:15:38.
