data_PCOD9412183
_publ_section_title
;
Structure prediction by ZEFSAII (Michael W. Deem and Ramdas Pophale) SiO2 
 PCOD9412183
Probable space group: P N N A
;
_chemical_formula_sum "Si O2"
_cell_formula_units_Z 28
_cell_length_a 12.523875
_cell_length_b 16.513152
_cell_length_c 5.708881
_cell_angle_alpha 90.000000
_cell_angle_beta 90.000000
_cell_angle_gamma 90.000000
_cell_volume 1180.645981
_symmetry_space_group_name_H-M "P N N A"
_symmetry_group_IT_number 52
_symmetry_cell_setting 'orthorhombic'
loop_
_space_group_symop_operation_xyz
x,y,z
1/2-x,-y,z
x,1/2-y,1/2-z
1/2-x,1/2+y,1/2-z
-x,-y,-z
1/2+x,y,-z
-x,1/2+y,1/2+z
1/2+x,1/2-y,1/2+z
loop_
_atom_site_type_symbol
_atom_site_label
_atom_site_fract_x
_atom_site_fract_y
_atom_site_fract_z
Si Si1 0.573304 0.950883 0.177296
Si Si2 0.142445 0.250000 0.750000
Si Si3 0.790747 0.170739 0.857433
Si Si4 0.618520 0.403336 0.992486
O O1 0.484922 0.906286 0.330235
O O2 0.629165 0.014996 0.353915
O O3 0.646136 0.891515 0.023524
O O4 0.500000 0.000000 0.000000
O O5 0.210315 0.282898 0.531196
O O6 0.088196 0.169182 0.665422
O O7 0.850930 0.250000 0.750000
O O8 0.723020 0.120238 0.662154
#
# Coordination Sequence:
#
# PCOD9412183 Si02
#       4
#     8   4   8   8
#     4  11  25  46  72 114 143 194 248 312 370 444
#     4  10  22  46  68 104 142 200 238 308 374 438
#     4  10  24  48  72 107 147 200 246 309 380 444
#     4  10  24  45  73 106 147 190 249 303 374 445
#
# _framework density 23.715827999999998
#
# number of rings (size 3 to 8) (size 9 to 14) (size 15 to 20)
#    0.000    1.714    0.000    1.714    0.000   16.000 
#   33.429    0.000    6.286    0.000    0.000    0.000 
#    0.000    0.000    0.000    0.000    0.000    0.000 
#
# Total GULP energy -156456.442147 kJ/mol
# GULP energy per Si atom -5587.730077 kJ/mol
# Density = 2.366185 g / cm^3
# Si number density = 23.715828 Si / 1000 Ang^3
#
#
#
# Elastic Constant Matrix: (Units=GPa)
#
#
# Indices 1 2 3 4 5 6 
#
# 1 75.5281 63.7051 33.8916 0.0000 0.0000 0.0000
# 2 63.7051 137.6708 54.8609 0.0000 0.0000 0.0000
# 3 33.8916 54.8609 102.1196 0.0000 0.0000 0.0000
# 4 0.0000 0.0000 0.0000 75.4336 0.0000 0.0000
# 5 0.0000 0.0000 0.0000 0.0000 166.7151 0.0000
# 6 0.0000 0.0000 0.0000 0.0000 0.0000 0.6726
#
#
#
# Elastic Compliance Matrix: (Units=1/GPa)
#
#
# Indices 1 2 3 4 5 6 
#
# 1 0.022149 -0.009314 -0.002347 0.000000 0.000000 0.000000
# 2 -0.009314 0.013159 -0.003978 0.000000 0.000000 0.000000
# 3 -0.002347 -0.003978 0.012709 0.000000 0.000000 0.000000
# 4 0.000000 0.000000 0.000000 0.013257 0.000000 0.000000
# 5 0.000000 0.000000 0.000000 0.000000 0.005998 0.000000
# 6 0.000000 0.000000 0.000000 0.000000 0.000000 1.486844
#
#
# Mechanical properties :
#
#
# Convention : Reuss Voigt Hill
#
# Bulk Modulus (GPa) = 59.74387 68.91484 64.32935
# Shear Modulus (GPa) = 3.14273 59.42165 31.28219
#
# Velocity S-wave (km/s) = 1.15241 5.01100 3.63580
# Velocity P-wave (km/s) = 5.19778 7.91213 6.69398
#
# Compressibility (1/GPa) = 0.01673812
#
# Stress axis : x y z
#
# Youngs Moduli (GPa) = 45.14812 75.99479 78.68690
#
# Poissons Ratio (x) = 0.70781 0.18470
# Poissons Ratio (y) = 0.42050 0.31302
# Poissons Ratio (z) = 0.10598 0.30231
#
# Static dielectric constant tensor:
#      x y z
#    x 1.919380 0.000000 0.000000 
#    y 0.000000 2.021540 0.000000 
#    z 0.000000 0.000000 1.595970 
# 
# From -- ./inp_files/1836.got.cif
#   From: 2010.05.17/outbox.cif.g08.bks.cpg/sg52_1_cif.got.tgz:1836.got - 2010.06.03 12:15:38.
