data_PCOD9412894
_publ_section_title
;
Structure prediction by ZEFSAII (Michael W. Deem and Ramdas Pophale) SiO2 
 PCOD9412894
Probable space group: P N N A
;
_chemical_formula_sum "Si O2"
_cell_formula_units_Z 56
_cell_length_a 15.028338
_cell_length_b 8.214879
_cell_length_c 20.098668
_cell_angle_alpha 90.000000
_cell_angle_beta 90.000000
_cell_angle_gamma 90.000000
_cell_volume 2481.300719
_symmetry_space_group_name_H-M "P N N A"
_symmetry_group_IT_number 52
_symmetry_cell_setting 'orthorhombic'
loop_
_space_group_symop_operation_xyz
x,y,z
1/2-x,-y,z
x,1/2-y,1/2-z
1/2-x,1/2+y,1/2-z
-x,-y,-z
1/2+x,y,-z
-x,1/2+y,1/2+z
1/2+x,1/2-y,1/2+z
loop_
_atom_site_type_symbol
_atom_site_label
_atom_site_fract_x
_atom_site_fract_y
_atom_site_fract_z
Si Si1 0.652373 0.055706 0.064087
Si Si2 0.478440 0.750000 0.250000
Si Si3 0.355791 0.488853 0.315309
Si Si4 0.869893 0.762085 0.929103
Si Si5 0.886504 0.293001 0.002446
Si Si6 0.496022 0.258700 0.372082
Si Si7 0.458876 0.404189 0.875495
Si Si8 0.750000 0.000000 0.583399
O O1 0.578791 0.117527 0.117037
O O2 0.750000 0.000000 0.089569
O O3 0.620455 0.891919 0.027386
O O4 0.657450 0.191343 0.004314
O O5 0.413406 0.599032 0.265558
O O6 0.538951 0.715808 0.186369
O O7 0.250000 0.500000 0.299380
O O8 0.366113 0.573275 0.387808
O O9 0.412171 0.324072 0.328991
O O10 0.963683 0.671265 0.923461
O O11 0.811845 0.634832 0.884483
O O12 0.811226 0.381179 0.959460
O O13 0.882551 0.397221 0.070460
O O14 0.963422 0.283264 0.946857
O O15 0.527588 0.083386 0.347350
#
# Coordination Sequence:
#
# PCOD9412894 Si02
#       8
#     8   4   8   8   8   8   8   4
#     4  12  22  35  59  94 139 166 207 253 323 397
#     4  10  26  46  60  88 122 172 222 266 308 374
#     4  11  24  42  64  92 127 169 218 264 320 383
#     4  11  20  37  55  91 130 169 205 255 318 382
#     4  12  22  37  61  98 134 167 207 266 334 399
#     4  12  23  40  65  97 131 173 209 268 338 393
#     4  11  24  41  65  88 129 173 217 268 315 390
#     4  12  22  32  58  98 134 164 206 264 336 396
#
# _framework density 22.568808000000001
#
# number of rings (size 3 to 8) (size 9 to 14) (size 15 to 20)
#    0.000    0.571    5.714    4.714    0.000    1.714 
#    2.571    0.000    0.000    0.000    7.429    0.000 
#    0.000    0.000    0.000    0.000    0.000    0.000 
#
# Total GULP energy -312033.040626 kJ/mol
# GULP energy per Si atom -5572.018583 kJ/mol
# Density = 2.251744 g / cm^3
# Si number density = 22.568808 Si / 1000 Ang^3
#
#
#
# Elastic Constant Matrix: (Units=GPa)
#
#
# Indices 1 2 3 4 5 6 
#
# 1 45.9138 -5.6589 9.1856 0.0000 0.0000 0.0000
# 2 -5.6589 88.8174 -4.6337 0.0000 0.0000 0.0000
# 3 9.1856 -4.6337 51.8769 0.0000 0.0000 0.0000
# 4 0.0000 0.0000 0.0000 11.8901 0.0000 0.0000
# 5 0.0000 0.0000 0.0000 0.0000 146.2278 0.0000
# 6 0.0000 0.0000 0.0000 0.0000 0.0000 40.3073
#
#
#
# Elastic Compliance Matrix: (Units=1/GPa)
#
#
# Indices 1 2 3 4 5 6 
#
# 1 0.022716 0.001243 -0.003911 0.000000 0.000000 0.000000
# 2 0.001243 0.011380 0.000796 0.000000 0.000000 0.000000
# 3 -0.003911 0.000796 0.020040 0.000000 0.000000 0.000000
# 4 0.000000 0.000000 0.000000 0.084104 0.000000 0.000000
# 5 0.000000 0.000000 0.000000 0.000000 0.006839 0.000000
# 6 0.000000 0.000000 0.000000 0.000000 0.000000 0.024809
#
#
# Mechanical properties :
#
#
# Convention : Reuss Voigt Hill
#
# Bulk Modulus (GPa) = 19.84426 20.48825 20.16625
# Shear Modulus (GPa) = 26.25669 52.19939 39.22804
#
# Velocity S-wave (km/s) = 3.41457 4.81448 4.17364
# Velocity P-wave (km/s) = 4.93534 6.32483 5.67279
#
# Compressibility (1/GPa) = 0.05039242
#
# Stress axis : x y z
#
# Youngs Moduli (GPa) = 44.02256 87.87495 49.90011
#
# Poissons Ratio (x) = -0.10925 0.19516
# Poissons Ratio (y) = -0.05473 -0.03974
# Poissons Ratio (z) = 0.17218 -0.06998
#
# Static dielectric constant tensor:
#      x y z
#    x 1.969860 0.000000 0.000000 
#    y 0.000000 1.884590 0.000000 
#    z 0.000000 0.000000 1.882310 
# 
# From -- ./inp_files/37361.got.cif
#   From: 2010.05.17/outbox.cif.g08.bks.cpg/sg52_19_cif.got.tgz:37361.got - 2010.06.03 12:15:38.
