data_PCOD9412670
_publ_section_title
;
Structure prediction by ZEFSAII (Michael W. Deem and Ramdas Pophale) SiO2 
 PCOD9412670
Probable space group: P N N A
;
_chemical_formula_sum "Si O2"
_cell_formula_units_Z 32
_cell_length_a 15.049770
_cell_length_b 5.158991
_cell_length_c 18.070462
_cell_angle_alpha 90.000000
_cell_angle_beta 90.000000
_cell_angle_gamma 90.000000
_cell_volume 1403.020088
_symmetry_space_group_name_H-M "P N N A"
_symmetry_group_IT_number 52
_symmetry_cell_setting 'orthorhombic'
loop_
_space_group_symop_operation_xyz
x,y,z
1/2-x,-y,z
x,1/2-y,1/2-z
1/2-x,1/2+y,1/2-z
-x,-y,-z
1/2+x,y,-z
-x,1/2+y,1/2+z
1/2+x,1/2-y,1/2+z
loop_
_atom_site_type_symbol
_atom_site_label
_atom_site_fract_x
_atom_site_fract_y
_atom_site_fract_z
Si Si1 0.887382 0.800008 0.519152
Si Si2 0.828696 0.344159 0.174957
Si Si3 0.464297 0.750000 0.750000
Si Si4 0.460962 0.280520 0.406243
Si Si5 0.250000 0.500000 0.564009
O O1 0.930887 0.552524 0.559707
O O2 0.792710 0.710025 0.490061
O O3 0.949564 0.832003 0.446018
O O4 0.892854 0.053052 0.570273
O O5 0.750000 0.500000 0.136781
O O6 0.782845 0.250000 0.250000
O O7 0.906544 0.517649 0.211284
O O8 0.831371 0.105319 0.117116
O O9 0.522497 0.667519 0.680009
#
# Coordination Sequence:
#
# PCOD9412670 Si02
#       5
#     8   8   4   8   4
#     4  10  24  44  65  96 137 182 231 280 340 416
#     4  12  22  38  56 102 140 176 212 278 364 432
#     4  12  26  40  70  96 142 180 228 288 350 434
#     4  10  24  44  65  96 137 183 227 277 344 415
#     4  12  26  40  70  96 142 182 236 296 356 428
#
# _framework density 22.807941
#
# number of rings (size 3 to 8) (size 9 to 14) (size 15 to 20)
#    0.000    1.000    2.500    3.000   17.500    0.000 
#    0.000    0.000    0.000    3.000    0.000    0.000 
#    0.000    0.000    0.000    0.000    0.000    0.000 
#
# Total GULP energy -178392.648362 kJ/mol
# GULP energy per Si atom -5574.770261 kJ/mol
# Density = 2.275603 g / cm^3
# Si number density = 22.807941 Si / 1000 Ang^3
#
#
#
# Elastic Constant Matrix: (Units=GPa)
#
#
# Indices 1 2 3 4 5 6 
#
# 1 53.2611 22.2489 50.3683 0.0000 0.0000 0.0000
# 2 22.2489 106.4124 55.1143 0.0000 0.0000 0.0000
# 3 50.3683 55.1143 174.8521 0.0000 0.0000 0.0000
# 4 0.0000 0.0000 0.0000 33.8566 0.0000 0.0000
# 5 0.0000 0.0000 0.0000 0.0000 66.1540 0.0000
# 6 0.0000 0.0000 0.0000 0.0000 0.0000 36.5716
#
#
#
# Elastic Compliance Matrix: (Units=1/GPa)
#
#
# Indices 1 2 3 4 5 6 
#
# 1 0.026112 -0.001869 -0.006933 0.000000 0.000000 0.000000
# 2 -0.001869 0.011365 -0.003044 0.000000 0.000000 0.000000
# 3 -0.006933 -0.003044 0.008676 0.000000 0.000000 0.000000
# 4 0.000000 0.000000 0.000000 0.029536 0.000000 0.000000
# 5 0.000000 0.000000 0.000000 0.000000 0.015116 0.000000
# 6 0.000000 0.000000 0.000000 0.000000 0.000000 0.027344
#
#
# Mechanical properties :
#
#
# Convention : Reuss Voigt Hill
#
# Bulk Modulus (GPa) = 44.52058 65.55428 55.03743
# Shear Modulus (GPa) = 33.48345 41.10271 37.29308
#
# Velocity S-wave (km/s) = 3.83569 4.24975 4.04801
# Velocity P-wave (km/s) = 6.25930 7.27219 6.78467
#
# Compressibility (1/GPa) = 0.02246152
#
# Stress axis : x y z
#
# Youngs Moduli (GPa) = 38.29585 87.99211 115.26478
#
# Poissons Ratio (x) = 0.16444 0.79912
# Poissons Ratio (y) = 0.07157 0.35085
# Poissons Ratio (z) = 0.26550 0.26784
#
# Static dielectric constant tensor:
#      x y z
#    x 1.968750 0.000000 0.000000 
#    y 0.000000 1.561640 0.000000 
#    z 0.000000 0.000000 1.807600 
# 
# From -- ./inp_files/28442.got.cif
#   From: 2010.05.17/outbox.cif.g08.bks.cpg/sg52_15_cif.got.tgz:28442.got - 2010.06.03 12:15:38.
