data_PCOD9412614
_publ_section_title
;
Structure prediction by ZEFSAII (Michael W. Deem and Ramdas Pophale) SiO2 
 PCOD9412614
Probable space group: P N N A
;
_chemical_formula_sum "Si O2"
_cell_formula_units_Z 56
_cell_length_a 10.607170
_cell_length_b 12.363830
_cell_length_c 19.420298
_cell_angle_alpha 90.000000
_cell_angle_beta 90.000000
_cell_angle_gamma 90.000000
_cell_volume 2546.879771
_symmetry_space_group_name_H-M "P N N A"
_symmetry_group_IT_number 52
_symmetry_cell_setting 'orthorhombic'
loop_
_space_group_symop_operation_xyz
x,y,z
1/2-x,-y,z
x,1/2-y,1/2-z
1/2-x,1/2+y,1/2-z
-x,-y,-z
1/2+x,y,-z
-x,1/2+y,1/2+z
1/2+x,1/2-y,1/2+z
loop_
_atom_site_type_symbol
_atom_site_label
_atom_site_fract_x
_atom_site_fract_y
_atom_site_fract_z
Si Si1 0.512070 0.807367 0.410378
Si Si2 0.682714 0.276842 0.682868
Si Si3 0.098277 0.483857 0.269890
Si Si4 0.687446 0.611377 0.443648
Si Si5 0.388593 0.113231 0.096573
Si Si6 0.115030 0.014570 0.661437
Si Si7 0.089040 0.214803 0.560576
O O1 0.388668 0.809714 0.362167
O O2 0.581216 0.689160 0.408417
O O3 0.467248 0.824625 0.488212
O O4 0.594893 0.905712 0.383099
O O5 0.768324 0.250000 0.750000
O O6 0.584178 0.355597 0.720870
O O7 0.756448 0.346754 0.627026
O O8 0.250000 0.500000 0.255014
O O9 0.066509 0.531593 0.345025
O O10 0.002538 0.527058 0.213197
O O11 0.750000 0.500000 0.414075
O O12 0.630116 0.576412 0.518136
O O13 0.798349 0.700211 0.453664
O O14 0.480267 0.214716 0.095657
O O15 0.121431 0.115875 0.609945
O O16 0.250000 0.000000 0.698417
#
# Coordination Sequence:
#
# PCOD9412614 Si02
#       7
#     8   8   8   8   8   8   8
#     4  11  24  44  68  99 133 181 230 275 348 410
#     4  11  21  40  68  95 133 174 235 285 338 409
#     4  10  24  44  70 103 133 184 229 289 346 407
#     4  11  23  43  70 100 134 175 221 289 353 410
#     4  10  24  42  68 101 134 172 232 295 339 404
#     4  12  25  47  66 100 146 185 229 277 340 422
#     4  11  25  42  69  99 135 184 224 284 345 408
#
# _framework density 21.987689
#
# number of rings (size 3 to 8) (size 9 to 14) (size 15 to 20)
#    0.000    1.143    4.286    1.714    6.000    1.143 
#    2.571    1.429    0.000    0.000    0.000    0.000 
#    0.000    0.000    0.000    0.000    0.000    0.000 
#
# Total GULP energy -312275.780400 kJ/mol
# GULP energy per Si atom -5576.353221 kJ/mol
# Density = 2.193764 g / cm^3
# Si number density = 21.987689 Si / 1000 Ang^3
#
#
#
# Elastic Constant Matrix: (Units=GPa)
#
#
# Indices 1 2 3 4 5 6 
#
# 1 76.0848 21.0943 36.0661 0.0000 0.0000 0.0000
# 2 21.0943 90.5579 34.6335 0.0000 0.0000 0.0000
# 3 36.0661 34.6335 90.7269 0.0000 0.0000 0.0000
# 4 0.0000 0.0000 0.0000 32.0368 0.0000 0.0000
# 5 0.0000 0.0000 0.0000 0.0000 26.0689 0.0000
# 6 0.0000 0.0000 0.0000 0.0000 0.0000 27.6318
#
#
#
# Elastic Compliance Matrix: (Units=1/GPa)
#
#
# Indices 1 2 3 4 5 6 
#
# 1 0.016379 -0.001552 -0.005919 0.000000 0.000000 0.000000
# 2 -0.001552 0.013077 -0.004375 0.000000 0.000000 0.000000
# 3 -0.005919 -0.004375 0.015045 0.000000 0.000000 0.000000
# 4 0.000000 0.000000 0.000000 0.031214 0.000000 0.000000
# 5 0.000000 0.000000 0.000000 0.000000 0.038360 0.000000
# 6 0.000000 0.000000 0.000000 0.000000 0.000000 0.036190
#
#
# Mechanical properties :
#
#
# Convention : Reuss Voigt Hill
#
# Bulk Modulus (GPa) = 48.05332 48.99527 48.52429
# Shear Modulus (GPa) = 27.64053 28.18588 27.91321
#
# Velocity S-wave (km/s) = 3.54939 3.58424 3.56686
# Velocity P-wave (km/s) = 6.22091 6.28176 6.25141
#
# Compressibility (1/GPa) = 0.02081022
#
# Stress axis : x y z
#
# Youngs Moduli (GPa) = 61.05353 76.46781 66.46679
#
# Poissons Ratio (x) = 0.11865 0.39340
# Poissons Ratio (y) = 0.09474 0.29081
# Poissons Ratio (z) = 0.36136 0.33457
#
# Static dielectric constant tensor:
#      x y z
#    x 1.880350 0.000000 0.000000 
#    y 0.000000 1.902460 0.000000 
#    z 0.000000 0.000000 1.796960 
# 
# From -- ./inp_files/36826.got.cif
#   From: 2010.05.17/outbox.cif.g08.bks.cpg/sg52_19_cif.got.tgz:36826.got - 2010.06.03 12:15:38.
