data_PCOD9412736
_publ_section_title
;
Structure prediction by ZEFSAII (Michael W. Deem and Ramdas Pophale) SiO2 
 PCOD9412736
Probable space group: P N N A
;
_chemical_formula_sum "Si O2"
_cell_formula_units_Z 32
_cell_length_a 8.847178
_cell_length_b 10.729419
_cell_length_c 13.314485
_cell_angle_alpha 90.000000
_cell_angle_beta 90.000000
_cell_angle_gamma 90.000000
_cell_volume 1263.878550
_symmetry_space_group_name_H-M "P N N A"
_symmetry_group_IT_number 52
_symmetry_cell_setting 'orthorhombic'
loop_
_space_group_symop_operation_xyz
x,y,z
1/2-x,-y,z
x,1/2-y,1/2-z
1/2-x,1/2+y,1/2-z
-x,-y,-z
1/2+x,y,-z
-x,1/2+y,1/2+z
1/2+x,1/2-y,1/2+z
loop_
_atom_site_type_symbol
_atom_site_label
_atom_site_fract_x
_atom_site_fract_y
_atom_site_fract_z
Si Si1 0.207855 0.294864 0.427129
Si Si2 0.250000 0.500000 0.590911
Si Si3 0.914876 0.550826 0.214722
Si Si4 0.250000 0.500000 0.258629
Si Si5 0.480809 0.143471 0.467439
O O1 0.259917 0.385331 0.516388
O O2 0.240137 0.375020 0.327933
O O3 0.310645 0.174408 0.440036
O O4 0.042552 0.240003 0.449422
O O5 0.113223 0.465297 0.666219
O O6 0.750000 0.500000 0.178706
O O7 0.930569 0.666660 0.138500
O O8 0.085873 0.497523 0.205332
O O9 0.500000 0.000000 0.500000
#
# Coordination Sequence:
#
# PCOD9412736 Si02
#       5
#     8   4   8   4   8
#     4  11  24  44  75 102 144 187 242 294 366 426
#     4   9  22  46  71 106 134 186 243 306 352 411
#     4  10  24  46  71 103 147 180 243 294 356 431
#     4  11  24  46  77 112 134 190 247 308 354 417
#     4  12  26  46  67 106 150 194 230 293 369 438
#
# _framework density 25.318887
#
# number of rings (size 3 to 8) (size 9 to 14) (size 15 to 20)
#    0.750    0.500    0.000    5.250    3.500    8.000 
#    0.000    2.500    0.000    0.000    0.000    0.000 
#    0.000    0.000    0.000    0.000    0.000    0.000 
#
# Total GULP energy -178159.550236 kJ/mol
# GULP energy per Si atom -5567.485945 kJ/mol
# Density = 2.526126 g / cm^3
# Si number density = 25.318887 Si / 1000 Ang^3
#
#
#
# Elastic Constant Matrix: (Units=GPa)
#
#
# Indices 1 2 3 4 5 6 
#
# 1 180.1974 33.4303 15.7952 0.0000 0.0000 0.0000
# 2 33.4303 116.6011 22.3911 0.0000 0.0000 0.0000
# 3 15.7952 22.3911 95.1677 0.0000 0.0000 0.0000
# 4 0.0000 0.0000 0.0000 35.0938 0.0000 0.0000
# 5 0.0000 0.0000 0.0000 0.0000 15.7860 0.0000
# 6 0.0000 0.0000 0.0000 0.0000 0.0000 25.2126
#
#
#
# Elastic Compliance Matrix: (Units=1/GPa)
#
#
# Indices 1 2 3 4 5 6 
#
# 1 0.005895 -0.001573 -0.000608 0.000000 0.000000 0.000000
# 2 -0.001573 0.009402 -0.001951 0.000000 0.000000 0.000000
# 3 -0.000608 -0.001951 0.011068 0.000000 0.000000 0.000000
# 4 0.000000 0.000000 0.000000 0.028495 0.000000 0.000000
# 5 0.000000 0.000000 0.000000 0.000000 0.063347 0.000000
# 6 0.000000 0.000000 0.000000 0.000000 0.000000 0.039663
#
#
# Mechanical properties :
#
#
# Convention : Reuss Voigt Hill
#
# Bulk Modulus (GPa) = 55.25015 59.46662 57.35838
# Shear Modulus (GPa) = 29.04150 36.57511 32.80831
#
# Velocity S-wave (km/s) = 3.39046 3.80488 3.60363
# Velocity P-wave (km/s) = 6.09885 6.54530 6.32601
#
# Compressibility (1/GPa) = 0.01809950
#
# Stress axis : x y z
#
# Youngs Moduli (GPa) = 169.64532 106.36084 90.35270
#
# Poissons Ratio (x) = 0.16733 0.05495
# Poissons Ratio (y) = 0.26689 0.17628
# Poissons Ratio (z) = 0.10318 0.20751
#
# Static dielectric constant tensor:
#      x y z
#    x 2.078850 0.000000 0.000000 
#    y 0.000000 2.000620 0.000000 
#    z 0.000000 0.000000 2.097730 
# 
# From -- ./inp_files/24104.got.cif
#   From: 2010.05.17/outbox.cif.g08.bks.cpg/sg52_13_cif.got.tgz:24104.got - 2010.06.03 12:15:38.
