data_PCOD9412773
_publ_section_title
;
Structure prediction by ZEFSAII (Michael W. Deem and Ramdas Pophale) SiO2 
 PCOD9412773
Probable space group: P N N A
;
_chemical_formula_sum "Si O2"
_cell_formula_units_Z 32
_cell_length_a 5.635741
_cell_length_b 7.785817
_cell_length_c 32.221165
_cell_angle_alpha 90.000000
_cell_angle_beta 90.000000
_cell_angle_gamma 90.000000
_cell_volume 1413.827604
_symmetry_space_group_name_H-M "P N N A"
_symmetry_group_IT_number 52
_symmetry_cell_setting 'orthorhombic'
loop_
_space_group_symop_operation_xyz
x,y,z
1/2-x,-y,z
x,1/2-y,1/2-z
1/2-x,1/2+y,1/2-z
-x,-y,-z
1/2+x,y,-z
-x,1/2+y,1/2+z
1/2+x,1/2-y,1/2+z
loop_
_atom_site_type_symbol
_atom_site_label
_atom_site_fract_x
_atom_site_fract_y
_atom_site_fract_z
Si Si1 0.096924 0.226190 0.831569
Si Si2 0.250000 0.000000 0.120712
Si Si3 0.860226 0.308226 0.413517
Si Si4 0.250000 0.500000 0.974991
Si Si5 0.603518 0.750000 0.250000
Si Si6 0.250000 0.000000 0.295274
O O1 0.272989 0.266318 0.869240
O O2 0.233906 0.201239 0.788859
O O3 0.901348 0.370427 0.822973
O O4 0.955802 0.063132 0.848903
O O5 0.139958 0.150379 0.092360
O O6 0.750000 0.500000 0.421239
O O7 0.776291 0.171986 0.447136
O O8 0.500000 0.500000 0.000000
O O9 0.434074 0.600181 0.233702
#
# Coordination Sequence:
#
# PCOD9412773 Si02
#       6
#     8   4   8   4   4   4
#     4  11  26  44  71 104 144 199 258 317 388 469
#     4  10  24  47  76 107 146 200 253 320 390 478
#     4  10  26  49  79 114 156 205 256 321 401 481
#     4  12  32  53  86 125 162 206 269 336 411 502
#     4  12  28  44  62 104 142 204 254 322 384 454
#     4  12  28  42  64  96 148 198 260 326 381 458
#
# _framework density 22.633593999999999
#
# number of rings (size 3 to 8) (size 9 to 14) (size 15 to 20)
#    0.000    1.000    0.000    3.000   14.000   20.000 
#    0.000    0.000    0.000    0.000    0.000    0.000 
#    0.000    0.000    0.000    0.000    0.000    0.000 
#
# Total GULP energy -179088.906450 kJ/mol
# GULP energy per Si atom -5596.528327 kJ/mol
# Density = 2.258208 g / cm^3
# Si number density = 22.633594 Si / 1000 Ang^3
#
#
#
# Elastic Constant Matrix: (Units=GPa)
#
#
# Indices 1 2 3 4 5 6 
#
# 1 141.8934 53.4258 76.4698 0.0000 0.0000 0.0000
# 2 53.4258 130.4057 74.3009 0.0000 0.0000 0.0000
# 3 76.4698 74.3009 145.4687 0.0000 0.0000 0.0000
# 4 0.0000 0.0000 0.0000 39.9867 0.0000 0.0000
# 5 0.0000 0.0000 0.0000 0.0000 21.8852 0.0000
# 6 0.0000 0.0000 0.0000 0.0000 0.0000 30.1711
#
#
#
# Elastic Compliance Matrix: (Units=1/GPa)
#
#
# Indices 1 2 3 4 5 6 
#
# 1 0.010054 -0.001562 -0.004487 0.000000 0.000000 0.000000
# 2 -0.001562 0.011059 -0.004827 0.000000 0.000000 0.000000
# 3 -0.004487 -0.004827 0.011699 0.000000 0.000000 0.000000
# 4 0.000000 0.000000 0.000000 0.025008 0.000000 0.000000
# 5 0.000000 0.000000 0.000000 0.000000 0.045693 0.000000
# 6 0.000000 0.000000 0.000000 0.000000 0.000000 0.033144
#
#
# Mechanical properties :
#
#
# Convention : Reuss Voigt Hill
#
# Bulk Modulus (GPa) = 90.43152 91.79565 91.11359
# Shear Modulus (GPa) = 30.84575 32.64668 31.74622
#
# Velocity S-wave (km/s) = 3.69566 3.80201 3.74921
# Velocity P-wave (km/s) = 7.63229 7.74074 7.68670
#
# Compressibility (1/GPa) = 0.01105809
#
# Stress axis : x y z
#
# Youngs Moduli (GPa) = 99.46219 90.42525 85.47930
#
# Poissons Ratio (x) = 0.14128 0.38356
# Poissons Ratio (y) = 0.15540 0.41263
# Poissons Ratio (z) = 0.44631 0.43650
#
# Static dielectric constant tensor:
#      x y z
#    x 1.906010 0.000000 0.000000 
#    y 0.000000 1.906110 0.000000 
#    z 0.000000 0.000000 1.903110 
# 
# From -- ./inp_files/43530.got.cif
#   From: 2010.05.17/outbox.cif.g08.bks.cpg/sg52_22_cif.got.tgz:43530.got - 2010.06.03 12:15:38.
