data_PCOD9412992
_publ_section_title
;
Structure prediction by ZEFSAII (Michael W. Deem and Ramdas Pophale) SiO2 
 PCOD9412992
Probable space group: P N N A
;
_chemical_formula_sum "Si O2"
_cell_formula_units_Z 28
_cell_length_a 12.268041
_cell_length_b 4.943155
_cell_length_c 20.906544
_cell_angle_alpha 90.000000
_cell_angle_beta 90.000000
_cell_angle_gamma 90.000000
_cell_volume 1267.831956
_symmetry_space_group_name_H-M "P N N A"
_symmetry_group_IT_number 52
_symmetry_cell_setting 'orthorhombic'
loop_
_space_group_symop_operation_xyz
x,y,z
1/2-x,-y,z
x,1/2-y,1/2-z
1/2-x,1/2+y,1/2-z
-x,-y,-z
1/2+x,y,-z
-x,1/2+y,1/2+z
1/2+x,1/2-y,1/2+z
loop_
_atom_site_type_symbol
_atom_site_label
_atom_site_fract_x
_atom_site_fract_y
_atom_site_fract_z
Si Si1 0.451545 0.016758 0.109707
Si Si2 0.750000 0.500000 0.704485
Si Si3 0.627170 0.005219 0.544473
Si Si4 0.175552 0.261055 0.904762
O O1 0.356818 0.052709 0.161630
O O2 0.414015 0.200626 0.049577
O O3 0.567961 0.140003 0.129222
O O4 0.446179 0.707145 0.086636
O O5 0.773539 0.750000 0.750000
O O6 0.638216 0.113997 0.472865
O O7 0.750000 0.000000 0.571626
O O8 0.250000 0.500000 0.874228
O O9 0.250000 0.000000 0.917262
#
# Coordination Sequence:
#
# PCOD9412992 Si02
#       4
#     8   4   8   8
#     4  12  22  40  63  86 129 169 205 269 315 367
#     4  12  26  44  66  94 118 160 226 278 330 362
#     4  11  19  35  58  94 127 168 207 242 314 392
#     4  11  23  37  58  95 133 170 206 241 306 402
#
# _framework density 22.084947
#
# number of rings (size 3 to 8) (size 9 to 14) (size 15 to 20)
#    0.000    0.571    2.857    8.571    0.000    0.000 
#    0.000    0.000    0.000    3.429    0.000    0.000 
#    0.000    0.000    0.000    0.000    0.000    0.000 
#
# Total GULP energy -156562.500114 kJ/mol
# GULP energy per Si atom -5591.517861 kJ/mol
# Density = 2.203468 g / cm^3
# Si number density = 22.084947 Si / 1000 Ang^3
#
#
#
# Elastic Constant Matrix: (Units=GPa)
#
#
# Indices 1 2 3 4 5 6 
#
# 1 169.3897 42.2530 53.3046 0.0000 0.0000 0.0000
# 2 42.2530 125.1681 24.1633 0.0000 0.0000 0.0000
# 3 53.3046 24.1633 49.0823 0.0000 0.0000 0.0000
# 4 0.0000 0.0000 0.0000 19.7070 0.0000 0.0000
# 5 0.0000 0.0000 0.0000 0.0000 12.5444 0.0000
# 6 0.0000 0.0000 0.0000 0.0000 0.0000 57.7053
#
#
#
# Elastic Compliance Matrix: (Units=1/GPa)
#
#
# Indices 1 2 3 4 5 6 
#
# 1 0.009154 -0.001294 -0.009305 0.000000 0.000000 0.000000
# 2 -0.001294 0.009011 -0.003031 0.000000 0.000000 0.000000
# 3 -0.009305 -0.003031 0.031971 0.000000 0.000000 0.000000
# 4 0.000000 0.000000 0.000000 0.050743 0.000000 0.000000
# 5 0.000000 0.000000 0.000000 0.000000 0.079717 0.000000
# 6 0.000000 0.000000 0.000000 0.000000 0.000000 0.017329
#
#
# Mechanical properties :
#
#
# Convention : Reuss Voigt Hill
#
# Bulk Modulus (GPa) = 43.71124 64.78689 54.24906
# Shear Modulus (GPa) = 21.47654 32.91928 27.19791
#
# Velocity S-wave (km/s) = 3.12180 3.86499 3.51310
# Velocity P-wave (km/s) = 5.72970 7.02257 6.40882
#
# Compressibility (1/GPa) = 0.02287741
#
# Stress axis : x y z
#
# Youngs Moduli (GPa) = 109.23633 110.97328 31.27788
#
# Poissons Ratio (x) = 0.14360 0.29104
# Poissons Ratio (y) = 0.14135 0.09480
# Poissons Ratio (z) = 1.01644 0.33635
#
# Static dielectric constant tensor:
#      x y z
#    x 1.935100 0.000000 0.000000 
#    y 0.000000 1.785730 0.000000 
#    z 0.000000 0.000000 1.751840 
# 
# From -- ./inp_files/36355.got.cif
#   From: 2010.05.17/outbox.cif.g08.bks.cpg/sg52_19_cif.got.tgz:36355.got - 2010.06.03 12:15:38.
