data_PCOD9412889
_publ_section_title
;
Structure prediction by ZEFSAII (Michael W. Deem and Ramdas Pophale) SiO2 
 PCOD9412889
Probable space group: P N N A
;
_chemical_formula_sum "Si O2"
_cell_formula_units_Z 40
_cell_length_a 8.124414
_cell_length_b 19.924035
_cell_length_c 11.526419
_cell_angle_alpha 90.000000
_cell_angle_beta 90.000000
_cell_angle_gamma 90.000000
_cell_volume 1865.794225
_symmetry_space_group_name_H-M "P N N A"
_symmetry_group_IT_number 52
_symmetry_cell_setting 'orthorhombic'
loop_
_space_group_symop_operation_xyz
x,y,z
1/2-x,-y,z
x,1/2-y,1/2-z
1/2-x,1/2+y,1/2-z
-x,-y,-z
1/2+x,y,-z
-x,1/2+y,1/2+z
1/2+x,1/2-y,1/2+z
loop_
_atom_site_type_symbol
_atom_site_label
_atom_site_fract_x
_atom_site_fract_y
_atom_site_fract_z
Si Si1 0.939274 0.521888 0.626574
Si Si2 0.250000 0.000000 0.705021
Si Si3 0.778787 0.239024 0.956721
Si Si4 0.228106 0.650484 0.866784
Si Si5 0.482388 0.750000 0.750000
Si Si6 0.471932 0.173776 0.854491
O O1 0.750000 0.500000 0.650068
O O2 0.948140 0.602062 0.624084
O O3 0.000000 0.500000 0.500000
O O4 0.083000 0.498768 0.716516
O O5 0.255288 0.070255 0.634937
O O6 0.603478 0.226547 0.900250
O O7 0.907497 0.224395 0.855829
O O8 0.793175 0.313690 0.009658
O O9 0.813577 0.189319 0.064958
O O10 0.379222 0.689246 0.805429
O O11 0.082420 0.671255 0.778465
#
# Coordination Sequence:
#
# PCOD9412889 Si02
#       6
#     8   4   8   8   4   8
#     4  11  22  36  62  99 139 184 229 285 356 413
#     4  10  26  44  68  94 146 190 230 288 346 428
#     4  12  24  42  69 102 133 177 227 292 344 413
#     4  11  24  48  67 102 142 183 231 289 349 415
#     4  12  26  38  74 100 132 178 236 282 350 410
#     4  11  23  40  65  99 138 173 230 285 350 405
#
# _framework density 21.438593000000001
#
# number of rings (size 3 to 8) (size 9 to 14) (size 15 to 20)
#    0.000    0.800    5.000    1.200   11.200    0.000 
#    0.000    1.000    0.000    0.000    0.000    0.000 
#    0.000    0.000    0.000    0.000    0.000    0.000 
#
# Total GULP energy -223487.347141 kJ/mol
# GULP energy per Si atom -5587.183679 kJ/mol
# Density = 2.138980 g / cm^3
# Si number density = 21.438593 Si / 1000 Ang^3
#
#
#
# Elastic Constant Matrix: (Units=GPa)
#
#
# Indices 1 2 3 4 5 6 
#
# 1 113.9473 35.9013 23.6455 0.0000 0.0000 0.0000
# 2 35.9013 119.0145 32.9658 0.0000 0.0000 0.0000
# 3 23.6455 32.9658 47.9337 0.0000 0.0000 0.0000
# 4 0.0000 0.0000 0.0000 27.3552 0.0000 0.0000
# 5 0.0000 0.0000 0.0000 0.0000 -1.3058 0.0000
# 6 0.0000 0.0000 0.0000 0.0000 0.0000 31.9755
#
#
#
# Elastic Compliance Matrix: (Units=1/GPa)
#
#
# Indices 1 2 3 4 5 6 
#
# 1 0.010175 -0.002074 -0.003593 0.000000 0.000000 0.000000
# 2 -0.002074 0.010802 -0.006406 0.000000 0.000000 0.000000
# 3 -0.003593 -0.006406 0.027040 0.000000 0.000000 0.000000
# 4 0.000000 0.000000 0.000000 0.036556 0.000000 0.000000
# 5 0.000000 0.000000 0.000000 0.000000 -0.765830 0.000000
# 6 0.000000 0.000000 0.000000 0.000000 0.000000 0.031274
#
#
# Mechanical properties :
#
#
# Convention : Reuss Voigt Hill
#
# Bulk Modulus (GPa) = 41.89088 51.76897 46.82992
# Shear Modulus (GPa) = -8.09220 24.16384 8.03582
#
# Velocity S-wave (km/s) = -1.94494 3.36090 1.93815
# Velocity P-wave (km/s) = 3.81296 6.26585 5.18650
#
# Compressibility (1/GPa) = 0.02387155
#
# Stress axis : x y z
#
# Youngs Moduli (GPa) = 98.27957 92.57171 36.98200
#
# Poissons Ratio (x) = 0.19201 0.13287
# Poissons Ratio (y) = 0.20385 0.23691
# Poissons Ratio (z) = 0.35310 0.59302
#
# Static dielectric constant tensor:
#      x y z
#    x 1.849240 0.000000 0.000000 
#    y 0.000000 1.876800 0.000000 
#    z 0.000000 0.000000 1.694330 
# 
# From -- ./inp_files/16826.got.cif
#   From: 2010.05.17/outbox.cif.g08.bks.cpg/sg52_9_cif.got.tgz:16826.got - 2010.06.03 12:15:38.
