data_PCOD9412584
_publ_section_title
;
Structure prediction by ZEFSAII (Michael W. Deem and Ramdas Pophale) SiO2 
 PCOD9412584
Probable space group: P N N A
;
_chemical_formula_sum "Si O2"
_cell_formula_units_Z 32
_cell_length_a 9.322981
_cell_length_b 27.521083
_cell_length_c 5.282849
_cell_angle_alpha 90.000000
_cell_angle_beta 90.000000
_cell_angle_gamma 90.000000
_cell_volume 1355.465651
_symmetry_space_group_name_H-M "P N N A"
_symmetry_group_IT_number 52
_symmetry_cell_setting 'orthorhombic'
loop_
_space_group_symop_operation_xyz
x,y,z
1/2-x,-y,z
x,1/2-y,1/2-z
1/2-x,1/2+y,1/2-z
-x,-y,-z
1/2+x,y,-z
-x,1/2+y,1/2+z
1/2+x,1/2-y,1/2+z
loop_
_atom_site_type_symbol
_atom_site_label
_atom_site_fract_x
_atom_site_fract_y
_atom_site_fract_z
Si Si1 0.085133 0.517252 0.753194
Si Si2 0.447673 0.889038 0.127390
Si Si3 0.884833 0.307299 0.223667
Si Si4 0.665935 0.637718 0.718188
O O1 0.750000 0.500000 0.249218
O O2 0.064484 0.575534 0.750936
O O3 0.000000 0.500000 0.500000
O O4 0.000000 0.500000 0.000000
O O5 0.464153 0.835110 0.242338
O O6 0.287394 0.903665 0.197674
O O7 0.506634 0.883758 0.840566
O O8 0.890788 0.250000 0.250000
O O9 0.804401 0.330085 0.465403
O O10 0.830259 0.328224 0.959961
#
# Coordination Sequence:
#
# PCOD9412584 Si02
#       4
#     8   8   8   8
#     4  12  28  46  76 107 145 190 248 304 370 439
#     4  10  26  43  72  95 145 173 237 281 359 416
#     4  10  24  41  68  99 135 177 231 283 345 415
#     4  10  24  41  68  96 136 178 222 280 348 408
#
# _framework density 23.608122999999999
#
# number of rings (size 3 to 8) (size 9 to 14) (size 15 to 20)
#    1.500    0.000    0.000    3.000   10.500    2.000 
#    0.000    0.000    0.000    0.000    0.000    0.000 
#    0.000    0.000    0.000    0.000    0.000    0.000 
#
# Total GULP energy -178309.235733 kJ/mol
# GULP energy per Si atom -5572.163617 kJ/mol
# Density = 2.355439 g / cm^3
# Si number density = 23.608123 Si / 1000 Ang^3
#
#
#
# Elastic Constant Matrix: (Units=GPa)
#
#
# Indices 1 2 3 4 5 6 
#
# 1 132.6917 1.5154 53.6518 0.0000 0.0000 0.0000
# 2 1.5154 84.8089 31.1570 0.0000 0.0000 0.0000
# 3 53.6518 31.1570 188.4172 0.0000 0.0000 0.0000
# 4 0.0000 0.0000 0.0000 29.4577 0.0000 0.0000
# 5 0.0000 0.0000 0.0000 0.0000 30.2185 0.0000
# 6 0.0000 0.0000 0.0000 0.0000 0.0000 23.6664
#
#
#
# Elastic Compliance Matrix: (Units=1/GPa)
#
#
# Indices 1 2 3 4 5 6 
#
# 1 0.008566 0.000791 -0.002570 0.000000 0.000000 0.000000
# 2 0.000791 0.012627 -0.002313 0.000000 0.000000 0.000000
# 3 -0.002570 -0.002313 0.006422 0.000000 0.000000 0.000000
# 4 0.000000 0.000000 0.000000 0.033947 0.000000 0.000000
# 5 0.000000 0.000000 0.000000 0.000000 0.033092 0.000000
# 6 0.000000 0.000000 0.000000 0.000000 0.000000 0.042254
#
#
# Mechanical properties :
#
#
# Convention : Reuss Voigt Hill
#
# Bulk Modulus (GPa) = 51.46529 64.28514 57.87522
# Shear Modulus (GPa) = 32.98811 37.97475 35.48143
#
# Velocity S-wave (km/s) = 3.74213 4.01502 3.88097
# Velocity P-wave (km/s) = 6.36542 6.98449 6.68212
#
# Compressibility (1/GPa) = 0.01943057
#
# Stress axis : x y z
#
# Youngs Moduli (GPa) = 116.73489 79.19575 155.72101
#
# Poissons Ratio (x) = -0.06265 0.40022
# Poissons Ratio (y) = -0.09235 0.36023
# Poissons Ratio (z) = 0.30002 0.18320
#
# Static dielectric constant tensor:
#      x y z
#    x 2.128400 0.000000 0.000000 
#    y 0.000000 1.941560 0.000000 
#    z 0.000000 0.000000 1.940210 
# 
# From -- ./inp_files/441.got.cif
#   From: 2010.05.17/outbox.cif.g08.bks.cpg/sg52_1_cif.got.tgz:441.got - 2010.06.03 12:15:38.
