data_PCOD9412551
_publ_section_title
;
Structure prediction by ZEFSAII (Michael W. Deem and Ramdas Pophale) SiO2 
 PCOD9412551
Probable space group: P N N A
;
_chemical_formula_sum "Si O2"
_cell_formula_units_Z 48
_cell_length_a 25.781942
_cell_length_b 14.607028
_cell_length_c 6.191277
_cell_angle_alpha 90.000000
_cell_angle_beta 90.000000
_cell_angle_gamma 90.000000
_cell_volume 2331.619741
_symmetry_space_group_name_H-M "P N N A"
_symmetry_group_IT_number 52
_symmetry_cell_setting 'orthorhombic'
loop_
_space_group_symop_operation_xyz
x,y,z
1/2-x,-y,z
x,1/2-y,1/2-z
1/2-x,1/2+y,1/2-z
-x,-y,-z
1/2+x,y,-z
-x,1/2+y,1/2+z
1/2+x,1/2-y,1/2+z
loop_
_atom_site_type_symbol
_atom_site_label
_atom_site_fract_x
_atom_site_fract_y
_atom_site_fract_z
Si Si1 0.398788 0.835892 0.587667
Si Si2 0.655423 0.473016 0.385563
Si Si3 0.099631 0.839075 0.860374
Si Si4 0.750000 0.000000 0.441127
Si Si5 0.042429 0.750000 0.250000
Si Si6 0.001159 0.606195 0.943125
Si Si7 0.298726 0.851120 0.285660
O O1 0.405887 0.750000 0.750000
O O2 0.389418 0.919360 0.754354
O O3 0.442421 0.858635 0.405072
O O4 0.345802 0.830014 0.451637
O O5 0.632569 0.573328 0.431594
O O6 0.700951 0.493543 0.215083
O O7 0.677799 0.409745 0.581708
O O8 0.126742 0.750000 0.750000
O O9 0.048700 0.869912 0.717424
O O10 0.076778 0.793997 0.069912
O O11 0.755884 0.913459 0.598138
O O12 0.010644 0.833686 0.344474
O O13 0.000000 0.500000 0.000000
O O14 0.276462 0.750000 0.250000
#
# Coordination Sequence:
#
# PCOD9412551 Si02
#       7
#     8   8   8   4   4   8   8
#     4  11  22  40  67 102 135 174 219 281 331 393
#     4  11  23  46  68  97 132 170 227 279 341 397
#     4  10  24  43  63  92 134 182 220 270 320 399
#     4  10  26  46  70  96 134 170 218 290 344 412
#     4  10  24  40  58  90 134 172 226 264 318 388
#     4  11  22  38  62  95 132 178 222 264 327 388
#     4  11  24  43  72 103 131 172 224 277 353 411
#
# _framework density 20.586546999999999
#
# number of rings (size 3 to 8) (size 9 to 14) (size 15 to 20)
#    0.000    1.333    4.167    0.500    2.333    5.333 
#    6.000    0.000    0.000    0.000    0.000    0.000 
#    0.000    0.000    0.000    0.000    0.000    0.000 
#
# Total GULP energy -267321.428065 kJ/mol
# GULP energy per Si atom -5569.196418 kJ/mol
# Density = 2.053969 g / cm^3
# Si number density = 20.586547 Si / 1000 Ang^3
#
#
#
# Elastic Constant Matrix: (Units=GPa)
#
#
# Indices 1 2 3 4 5 6 
#
# 1 40.2256 42.1085 9.9347 0.0000 0.0000 0.0000
# 2 42.1085 202.6310 53.0308 0.0000 0.0000 0.0000
# 3 9.9347 53.0308 75.6493 0.0000 0.0000 0.0000
# 4 0.0000 0.0000 0.0000 15.4904 0.0000 0.0000
# 5 0.0000 0.0000 0.0000 0.0000 63.3926 0.0000
# 6 0.0000 0.0000 0.0000 0.0000 0.0000 99.7139
#
#
#
# Elastic Compliance Matrix: (Units=1/GPa)
#
#
# Indices 1 2 3 4 5 6 
#
# 1 0.031790 -0.006753 0.000559 0.000000 0.000000 0.000000
# 2 -0.006753 0.007478 -0.004355 0.000000 0.000000 0.000000
# 3 0.000559 -0.004355 0.016199 0.000000 0.000000 0.000000
# 4 0.000000 0.000000 0.000000 0.064556 0.000000 0.000000
# 5 0.000000 0.000000 0.000000 0.000000 0.015775 0.000000
# 6 0.000000 0.000000 0.000000 0.000000 0.000000 0.010029
#
#
# Mechanical properties :
#
#
# Convention : Reuss Voigt Hill
#
# Bulk Modulus (GPa) = 29.09627 58.73930 43.91779
# Shear Modulus (GPa) = 28.02978 49.94819 38.98898
#
# Velocity S-wave (km/s) = 3.69393 4.93105 4.35662
# Velocity P-wave (km/s) = 5.68839 7.81121 6.83275
#
# Compressibility (1/GPa) = 0.03436866
#
# Stress axis : x y z
#
# Youngs Moduli (GPa) = 31.45605 133.72215 61.73308
#
# Poissons Ratio (x) = 0.90296 -0.03449
# Poissons Ratio (y) = 0.21241 0.26888
# Poissons Ratio (z) = -0.01757 0.58243
#
# Static dielectric constant tensor:
#      x y z
#    x 1.820410 0.000000 0.000000 
#    y 0.000000 1.827420 0.000000 
#    z 0.000000 0.000000 1.744100 
# 
# From -- ./inp_files/5840.got.cif
#   From: 2010.05.17/outbox.cif.g08.bks.cpg/sg52_3_cif.got.tgz:5840.got - 2010.06.03 12:15:38.
