data_PCOD9412430
_publ_section_title
;
Structure prediction by ZEFSAII (Michael W. Deem and Ramdas Pophale) SiO2 
 PCOD9412430
Probable space group: P N N A
;
_chemical_formula_sum "Si O2"
_cell_formula_units_Z 56
_cell_length_a 13.638904
_cell_length_b 21.106780
_cell_length_c 8.860233
_cell_angle_alpha 90.000000
_cell_angle_beta 90.000000
_cell_angle_gamma 90.000000
_cell_volume 2550.624922
_symmetry_space_group_name_H-M "P N N A"
_symmetry_group_IT_number 52
_symmetry_cell_setting 'orthorhombic'
loop_
_space_group_symop_operation_xyz
x,y,z
1/2-x,-y,z
x,1/2-y,1/2-z
1/2-x,1/2+y,1/2-z
-x,-y,-z
1/2+x,y,-z
-x,1/2+y,1/2+z
1/2+x,1/2-y,1/2+z
loop_
_atom_site_type_symbol
_atom_site_label
_atom_site_fract_x
_atom_site_fract_y
_atom_site_fract_z
Si Si1 0.527778 0.931827 0.561171
Si Si2 0.367872 0.866692 0.176343
Si Si3 0.511979 0.727862 0.488966
Si Si4 0.853669 0.337279 0.150647
Si Si5 0.865056 0.665316 0.031629
Si Si6 0.160374 0.868411 0.004011
Si Si7 0.636327 0.989157 0.837288
O O1 0.592024 0.894113 0.438162
O O2 0.429475 0.892540 0.594694
O O3 0.589100 0.945998 0.709635
O O4 0.500000 0.000000 0.500000
O O5 0.355461 0.849397 0.352121
O O6 0.403673 0.939508 0.155493
O O7 0.448203 0.818593 0.114894
O O8 0.266413 0.860102 0.082824
O O9 0.582241 0.776983 0.401085
O O10 0.430418 0.772664 0.563682
O O11 0.583100 0.680481 0.580311
O O12 0.844270 0.350314 0.328300
O O13 0.743161 0.328981 0.094110
O O14 0.133651 0.942768 0.019441
O O15 0.750000 0.000000 0.797200
#
# Coordination Sequence:
#
# PCOD9412430 Si02
#       7
#     8   8   8   8   8   8   8
#     4  11  23  43  70  99 127 173 225 268 320 392
#     4  11  22  44  67  94 132 177 217 269 336 395
#     4  11  24  43  69  95 130 178 225 276 330 390
#     4  11  24  44  66  99 133 170 223 275 331 390
#     4  11  23  44  72  97 127 171 230 273 320 390
#     4  11  24  42  64 100 139 174 211 274 345 396
#     4  10  23  44  66  99 136 174 218 266 335 399
#
# _framework density 21.955404999999999
#
# number of rings (size 3 to 8) (size 9 to 14) (size 15 to 20)
#    0.000    1.143    1.429    6.000    0.000    1.714 
#    7.714   10.000    0.000    0.000    0.000    0.000 
#    0.000    0.000    0.000    0.000    0.000    0.000 
#
# Total GULP energy -313138.654578 kJ/mol
# GULP energy per Si atom -5591.761689 kJ/mol
# Density = 2.190543 g / cm^3
# Si number density = 21.955405 Si / 1000 Ang^3
#
#
#
# Elastic Constant Matrix: (Units=GPa)
#
#
# Indices 1 2 3 4 5 6 
#
# 1 145.1714 80.6389 36.6814 0.0000 0.0000 0.0000
# 2 80.6389 178.5490 49.9620 0.0000 0.0000 0.0000
# 3 36.6814 49.9620 53.4009 0.0000 0.0000 0.0000
# 4 0.0000 0.0000 0.0000 23.6574 0.0000 0.0000
# 5 0.0000 0.0000 0.0000 0.0000 14.9218 0.0000
# 6 0.0000 0.0000 0.0000 0.0000 0.0000 38.1423
#
#
#
# Elastic Compliance Matrix: (Units=1/GPa)
#
#
# Indices 1 2 3 4 5 6 
#
# 1 0.009644 -0.003389 -0.003453 0.000000 0.000000 0.000000
# 2 -0.003389 0.008778 -0.005885 0.000000 0.000000 0.000000
# 3 -0.003453 -0.005885 0.026604 0.000000 0.000000 0.000000
# 4 0.000000 0.000000 0.000000 0.042270 0.000000 0.000000
# 5 0.000000 0.000000 0.000000 0.000000 0.067016 0.000000
# 6 0.000000 0.000000 0.000000 0.000000 0.000000 0.026218
#
#
# Mechanical properties :
#
#
# Convention : Reuss Voigt Hill
#
# Bulk Modulus (GPa) = 51.09507 79.07622 65.08565
# Shear Modulus (GPa) = 23.52857 29.33356 26.43107
#
# Velocity S-wave (km/s) = 3.27716 3.65917 3.47342
# Velocity P-wave (km/s) = 6.13534 7.34491 6.76720
#
# Compressibility (1/GPa) = 0.01957136
#
# Stress axis : x y z
#
# Youngs Moduli (GPa) = 103.69666 113.92142 37.58791
#
# Poissons Ratio (x) = 0.38608 0.12981
# Poissons Ratio (y) = 0.35143 0.22120
# Poissons Ratio (z) = 0.35811 0.67040
#
# Static dielectric constant tensor:
#      x y z
#    x 5.163210 0.000000 0.000000 
#    y 0.000000 1.837250 0.000000 
#    z 0.000000 0.000000 1.868530 
# 
# From -- ./inp_files/10801.got.cif
#   From: 2010.05.17/outbox.cif.g08.bks.cpg/sg52_6_cif.got.tgz:10801.got - 2010.06.03 12:15:38.
