data_PCOD9412609
_publ_section_title
;
Structure prediction by ZEFSAII (Michael W. Deem and Ramdas Pophale) SiO2 
 PCOD9412609
Probable space group: P N N A
;
_chemical_formula_sum "Si O2"
_cell_formula_units_Z 52
_cell_length_a 10.259938
_cell_length_b 17.132300
_cell_length_c 15.309944
_cell_angle_alpha 90.000000
_cell_angle_beta 90.000000
_cell_angle_gamma 90.000000
_cell_volume 2691.125858
_symmetry_space_group_name_H-M "P N N A"
_symmetry_group_IT_number 52
_symmetry_cell_setting 'orthorhombic'
loop_
_space_group_symop_operation_xyz
x,y,z
1/2-x,-y,z
x,1/2-y,1/2-z
1/2-x,1/2+y,1/2-z
-x,-y,-z
1/2+x,y,-z
-x,1/2+y,1/2+z
1/2+x,1/2-y,1/2+z
loop_
_atom_site_type_symbol
_atom_site_label
_atom_site_fract_x
_atom_site_fract_y
_atom_site_fract_z
Si Si1 0.479313 0.765059 0.988091
Si Si2 0.750000 0.000000 0.816503
Si Si3 0.342708 0.866924 0.621719
Si Si4 0.250000 0.000000 0.485170
Si Si5 0.943562 0.346916 0.148787
Si Si6 0.356029 0.750000 0.250000
Si Si7 0.741232 0.664564 0.588479
Si Si8 0.047008 0.984017 0.337452
O O1 0.528254 0.708060 0.065998
O O2 0.362990 0.818926 0.024540
O O3 0.414973 0.707610 0.917431
O O4 0.603753 0.812275 0.953897
O O5 0.755164 0.077293 0.874733
O O6 0.871440 0.000655 0.749593
O O7 0.209306 0.843059 0.668959
O O8 0.443885 0.916118 0.678303
O O9 0.303049 0.928538 0.544043
O O10 0.357571 0.035136 0.418546
O O11 0.045215 0.318295 0.221457
O O12 0.975814 0.437042 0.132641
O O13 0.268561 0.722419 0.329996
#
# Coordination Sequence:
#
# PCOD9412609 Si02
#       8
#     8   4   8   4   8   4   8   8
#     4  11  24  40  68  99 131 174 222 278 324 395
#     4  11  26  46  66  88 127 180 226 268 335 404
#     4  12  21  34  60  96 133 165 213 264 335 393
#     4  11  20  30  56  92 133 170 196 256 323 402
#     4  11  20  40  60  93 133 172 211 269 327 392
#     4  10  24  42  66  88 136 172 212 266 342 396
#     4  11  25  46  69  96 128 178 226 275 335 393
#     4  11  22  35  60  96 130 171 212 263 332 400
#
# _framework density 19.322768
#
# number of rings (size 3 to 8) (size 9 to 14) (size 15 to 20)
#    0.000    0.923    6.154    1.385    2.154    0.615 
#    2.769    0.000    0.000    0.000    0.000    0.000 
#    0.000    0.000    0.000    0.000    0.000    0.000 
#
# Total GULP energy -290587.577481 kJ/mol
# GULP energy per Si atom -5588.222644 kJ/mol
# Density = 1.927879 g / cm^3
# Si number density = 19.322768 Si / 1000 Ang^3
#
#
#
# Elastic Constant Matrix: (Units=GPa)
#
#
# Indices 1 2 3 4 5 6 
#
# 1 151.1376 61.6585 51.9984 0.0000 0.0000 0.0000
# 2 61.6585 102.4667 41.2579 0.0000 0.0000 0.0000
# 3 51.9984 41.2579 58.9332 0.0000 0.0000 0.0000
# 4 0.0000 0.0000 0.0000 25.7415 0.0000 0.0000
# 5 0.0000 0.0000 0.0000 0.0000 16.5706 0.0000
# 6 0.0000 0.0000 0.0000 0.0000 0.0000 33.0651
#
#
#
# Elastic Compliance Matrix: (Units=1/GPa)
#
#
# Indices 1 2 3 4 5 6 
#
# 1 0.010353 -0.003553 -0.006647 0.000000 0.000000 0.000000
# 2 -0.003553 0.014810 -0.007233 0.000000 0.000000 0.000000
# 3 -0.006647 -0.007233 0.027897 0.000000 0.000000 0.000000
# 4 0.000000 0.000000 0.000000 0.038848 0.000000 0.000000
# 5 0.000000 0.000000 0.000000 0.000000 0.060348 0.000000
# 6 0.000000 0.000000 0.000000 0.000000 0.000000 0.030243
#
#
# Mechanical properties :
#
#
# Convention : Reuss Voigt Hill
#
# Bulk Modulus (GPa) = 54.96597 69.15192 62.05895
# Shear Modulus (GPa) = 22.37845 25.58364 23.98104
#
# Velocity S-wave (km/s) = 3.40684 3.64265 3.52671
# Velocity P-wave (km/s) = 6.63199 7.31829 6.98358
#
# Compressibility (1/GPa) = 0.01819307
#
# Stress axis : x y z
#
# Youngs Moduli (GPa) = 96.58961 67.52310 35.84643
#
# Poissons Ratio (x) = 0.23994 0.23828
# Poissons Ratio (y) = 0.34322 0.25927
# Poissons Ratio (z) = 0.64204 0.48837
#
# Static dielectric constant tensor:
#      x y z
#    x 1.694750 0.000000 0.000000 
#    y 0.000000 1.674970 0.000000 
#    z 0.000000 0.000000 1.667560 
# 
# From -- ./inp_files/31466.got.cif
#   From: 2010.05.17/outbox.cif.g08.bks.cpg/sg52_16_cif.got.tgz:31466.got - 2010.06.03 12:15:38.
