data_PCOD9412720
_publ_section_title
;
Structure prediction by ZEFSAII (Michael W. Deem and Ramdas Pophale) SiO2 
 PCOD9412720
Probable space group: P N N A
;
_chemical_formula_sum "Si O2"
_cell_formula_units_Z 60
_cell_length_a 8.847933
_cell_length_b 17.230117
_cell_length_c 16.320009
_cell_angle_alpha 90.000000
_cell_angle_beta 90.000000
_cell_angle_gamma 90.000000
_cell_volume 2488.000399
_symmetry_space_group_name_H-M "P N N A"
_symmetry_group_IT_number 52
_symmetry_cell_setting 'orthorhombic'
loop_
_space_group_symop_operation_xyz
x,y,z
1/2-x,-y,z
x,1/2-y,1/2-z
1/2-x,1/2+y,1/2-z
-x,-y,-z
1/2+x,y,-z
-x,1/2+y,1/2+z
1/2+x,1/2-y,1/2+z
loop_
_atom_site_type_symbol
_atom_site_label
_atom_site_fract_x
_atom_site_fract_y
_atom_site_fract_z
Si Si1 0.520025 0.907663 0.009024
Si Si2 0.291132 0.170444 0.542774
Si Si3 0.175395 0.750000 0.250000
Si Si4 0.737858 0.684375 0.579679
Si Si5 0.074225 0.428874 0.049945
Si Si6 0.915517 0.517907 0.770203
Si Si7 0.405913 0.858937 0.703423
Si Si8 0.320997 0.086031 0.830022
O O1 0.373000 0.868319 0.046554
O O2 0.647013 0.890786 0.077658
O O3 0.583322 0.866748 0.927323
O O4 0.500000 0.000000 0.000000
O O5 0.278838 0.243444 0.482743
O O6 0.463635 0.145877 0.554837
O O7 0.192051 0.169832 0.625884
O O8 0.221902 0.096929 0.496515
O O9 0.261483 0.712975 0.327126
O O10 0.058024 0.810543 0.289198
O O11 0.117055 0.445335 0.142524
O O12 0.000000 0.500000 0.000000
O O13 0.750000 0.500000 0.732052
O O14 0.026573 0.446286 0.794755
O O15 0.019236 0.573650 0.715487
O O16 0.290610 0.858479 0.780120
O O17 0.250000 0.000000 0.833105
#
# Coordination Sequence:
#
# PCOD9412720 Si02
#       8
#     8   8   4   8   8   8   8   8
#     4  12  28  53  85 114 152 203 272 340 398 475
#     4  12  25  47  68 108 150 206 242 315 374 480
#     4  12  30  50  76 108 160 208 256 332 410 476
#     4  12  30  52  79 116 156 203 266 319 416 482
#     4  12  23  38  68 102 150 196 257 297 375 446
#     4  11  24  40  70 109 149 193 256 315 373 450
#     4  11  25  47  73 100 155 202 255 308 389 468
#     4  10  24  45  74 110 145 193 258 323 389 453
#
# _framework density 24.115753000000002
#
# number of rings (size 3 to 8) (size 9 to 14) (size 15 to 20)
#    0.000    0.533    2.667    4.800   11.200    0.000 
#    2.400    0.000    0.000    0.000    0.000    0.000 
#    0.000    0.000    0.000    0.000    0.000    0.000 
#
# Total GULP energy -335863.942368 kJ/mol
# GULP energy per Si atom -5597.732373 kJ/mol
# Density = 2.406086 g / cm^3
# Si number density = 24.115753 Si / 1000 Ang^3
#
#
#
# Elastic Constant Matrix: (Units=GPa)
#
#
# Indices 1 2 3 4 5 6 
#
# 1 114.2236 29.5854 35.8365 0.0000 0.0000 0.0000
# 2 29.5854 95.4855 29.8286 0.0000 0.0000 0.0000
# 3 35.8365 29.8286 118.1353 0.0000 0.0000 0.0000
# 4 0.0000 0.0000 0.0000 27.3973 0.0000 0.0000
# 5 0.0000 0.0000 0.0000 0.0000 37.3401 0.0000
# 6 0.0000 0.0000 0.0000 0.0000 0.0000 38.9828
#
#
#
# Elastic Compliance Matrix: (Units=1/GPa)
#
#
# Indices 1 2 3 4 5 6 
#
# 1 0.010146 -0.002369 -0.002480 0.000000 0.000000 0.000000
# 2 -0.002369 0.011923 -0.002292 0.000000 0.000000 0.000000
# 3 -0.002480 -0.002292 0.009796 0.000000 0.000000 0.000000
# 4 0.000000 0.000000 0.000000 0.036500 0.000000 0.000000
# 5 0.000000 0.000000 0.000000 0.000000 0.026781 0.000000
# 6 0.000000 0.000000 0.000000 0.000000 0.000000 0.025652
#
#
# Mechanical properties :
#
#
# Convention : Reuss Voigt Hill
#
# Bulk Modulus (GPa) = 56.87096 57.59394 57.23245
# Shear Modulus (GPa) = 35.47597 36.25031 35.86314
#
# Velocity S-wave (km/s) = 3.83961 3.88129 3.86051
# Velocity P-wave (km/s) = 6.57955 6.63476 6.60722
#
# Compressibility (1/GPa) = 0.01758367
#
# Stress axis : x y z
#
# Youngs Moduli (GPa) = 98.55727 83.87315 102.08504
#
# Poissons Ratio (x) = 0.19871 0.25314
# Poissons Ratio (y) = 0.23350 0.23395
# Poissons Ratio (z) = 0.24439 0.19222
#
# Static dielectric constant tensor:
#      x y z
#    x 1.933980 0.000000 0.000000 
#    y 0.000000 2.127930 0.000000 
#    z 0.000000 0.000000 1.928360 
# 
# From -- ./inp_files/31479.got.cif
#   From: 2010.05.17/outbox.cif.g08.bks.cpg/sg52_16_cif.got.tgz:31479.got - 2010.06.03 12:15:38.
