data_PCOD9412873
_publ_section_title
;
Structure prediction by ZEFSAII (Michael W. Deem and Ramdas Pophale) SiO2 
 PCOD9412873
Probable space group: P N N A
;
_chemical_formula_sum "Si O2"
_cell_formula_units_Z 20
_cell_length_a 5.339427
_cell_length_b 5.788984
_cell_length_c 25.766954
_cell_angle_alpha 90.000000
_cell_angle_beta 90.000000
_cell_angle_gamma 90.000000
_cell_volume 796.452876
_symmetry_space_group_name_H-M "P N N A"
_symmetry_group_IT_number 52
_symmetry_cell_setting 'orthorhombic'
loop_
_space_group_symop_operation_xyz
x,y,z
1/2-x,-y,z
x,1/2-y,1/2-z
1/2-x,1/2+y,1/2-z
-x,-y,-z
1/2+x,y,-z
-x,1/2+y,1/2+z
1/2+x,1/2-y,1/2+z
loop_
_atom_site_type_symbol
_atom_site_label
_atom_site_fract_x
_atom_site_fract_y
_atom_site_fract_z
Si Si1 0.998247 0.394754 0.441570
Si Si2 0.998335 0.152357 0.807565
Si Si3 0.250000 0.000000 0.612041
O O1 0.250000 0.500000 0.420332
O O2 0.750000 0.500000 0.416898
O O3 0.000000 0.500000 0.500000
O O4 0.942785 0.130849 0.427746
O O5 0.956998 0.250000 0.750000
O O6 0.071556 0.352738 0.849079
O O7 0.750000 0.000000 0.818098
O O8 0.250000 0.000000 0.804528
#
# Coordination Sequence:
#
# PCOD9412873 Si02
#       3
#     8   8   4
#     4  10  25  49  77 117 159 208 274 328 398 480
#     4  12  28  52  79 117 164 217 272 335 414 497
#     4  12  28  50  84 120 166 218 268 342 410 478
#
# _framework density 25.111339000000001
#
# number of rings (size 3 to 8) (size 9 to 14) (size 15 to 20)
#    0.000    0.800    2.000    2.400    0.000   17.600 
#    0.000    0.000    0.000    2.400    0.000    0.000 
#    0.000    0.000    0.000    0.000    0.000    0.000 
#
# Total GULP energy -111559.680543 kJ/mol
# GULP energy per Si atom -5577.984027 kJ/mol
# Density = 2.505418 g / cm^3
# Si number density = 25.111339 Si / 1000 Ang^3
#
#
#
# Elastic Constant Matrix: (Units=GPa)
#
#
# Indices 1 2 3 4 5 6 
#
# 1 279.9611 91.1030 52.7437 0.0000 0.0000 0.0000
# 2 91.1030 134.1438 103.1501 0.0000 0.0000 0.0000
# 3 52.7437 103.1501 254.6075 0.0000 0.0000 0.0000
# 4 0.0000 0.0000 0.0000 72.4564 0.0000 0.0000
# 5 0.0000 0.0000 0.0000 0.0000 147.9300 0.0000
# 6 0.0000 0.0000 0.0000 0.0000 0.0000 74.8510
#
#
#
# Elastic Compliance Matrix: (Units=1/GPa)
#
#
# Indices 1 2 3 4 5 6 
#
# 1 0.004622 -0.003490 0.000456 0.000000 0.000000 0.000000
# 2 -0.003490 0.013463 -0.004731 0.000000 0.000000 0.000000
# 3 0.000456 -0.004731 0.005750 0.000000 0.000000 0.000000
# 4 0.000000 0.000000 0.000000 0.013801 0.000000 0.000000
# 5 0.000000 0.000000 0.000000 0.000000 0.006760 0.000000
# 6 0.000000 0.000000 0.000000 0.000000 0.000000 0.013360
#
#
# Mechanical properties :
#
#
# Convention : Reuss Voigt Hill
#
# Bulk Modulus (GPa) = 120.40825 129.18954 124.79890
# Shear Modulus (GPa) = 65.74371 87.16187 76.45279
#
# Velocity S-wave (km/s) = 5.12228 5.89792 5.52373
# Velocity P-wave (km/s) = 9.11249 9.89642 9.51253
#
# Compressibility (1/GPa) = 0.00830508
#
# Stress axis : x y z
#
# Youngs Moduli (GPa) = 216.37968 74.27875 173.91618
#
# Poissons Ratio (x) = 0.25920 -0.07937
# Poissons Ratio (y) = 0.75508 0.82286
# Poissons Ratio (z) = -0.09875 0.35144
#
# Static dielectric constant tensor:
#      x y z
#    x 1.896770 0.000000 0.000000 
#    y 0.000000 2.128890 0.000000 
#    z 0.000000 0.000000 4.130680 
# 
# From -- ./inp_files/41272.got.cif
#   From: 2010.05.17/outbox.cif.g08.bks.cpg/sg52_21_cif.got.tgz:41272.got - 2010.06.03 12:15:38.
