data_PCOD9412260
_publ_section_title
;
Structure prediction by ZEFSAII (Michael W. Deem and Ramdas Pophale) SiO2 
 PCOD9412260
Probable space group: P N N A
;
_chemical_formula_sum "Si O2"
_cell_formula_units_Z 32
_cell_length_a 8.284203
_cell_length_b 8.431502
_cell_length_c 22.312433
_cell_angle_alpha 90.000000
_cell_angle_beta 90.000000
_cell_angle_gamma 90.000000
_cell_volume 1558.484937
_symmetry_space_group_name_H-M "P N N A"
_symmetry_group_IT_number 52
_symmetry_cell_setting 'orthorhombic'
loop_
_space_group_symop_operation_xyz
x,y,z
1/2-x,-y,z
x,1/2-y,1/2-z
1/2-x,1/2+y,1/2-z
-x,-y,-z
1/2+x,y,-z
-x,1/2+y,1/2+z
1/2+x,1/2-y,1/2+z
loop_
_atom_site_type_symbol
_atom_site_label
_atom_site_fract_x
_atom_site_fract_y
_atom_site_fract_z
Si Si1 0.192483 0.319776 0.687521
Si Si2 0.683380 0.815384 0.061892
Si Si3 0.192692 0.679096 0.312668
Si Si4 0.314331 0.682023 0.062830
O O1 0.250000 0.500000 0.686954
O O2 0.256701 0.250000 0.750000
O O3 0.246564 0.245088 0.624278
O O4 0.000134 0.314274 0.688969
O O5 0.497560 0.753920 0.063472
O O6 0.750000 0.000000 0.063253
O O7 0.744811 0.756634 0.997955
O O8 0.250000 0.500000 0.316676
O O9 0.255999 0.750000 0.250000
O O10 0.247478 0.764107 0.372935
O O11 0.250000 0.500000 0.058365
#
# Coordination Sequence:
#
# PCOD9412260 Si02
#       4
#     8   8   8   8
#     4  10  23  40  63  91 122 163 210 261 317 381
#     4  11  23  42  65  91 128 173 217 266 328 399
#     4  11  23  41  64  93 129 169 214 264 325 393
#     4  12  25  41  65  97 130 167 215 271 331 397
#
# _framework density 20.532761000000001
#
# number of rings (size 3 to 8) (size 9 to 14) (size 15 to 20)
#    0.000    1.000    0.000    7.500    0.000    9.000 
#    0.000    0.000    0.000    0.000    0.000    0.000 
#    0.000    0.000    0.000    0.000    0.000    0.000 
#
# Total GULP energy -178192.235965 kJ/mol
# GULP energy per Si atom -5568.507374 kJ/mol
# Density = 2.048603 g / cm^3
# Si number density = 20.532761 Si / 1000 Ang^3
#
#
#
# Elastic Constant Matrix: (Units=GPa)
#
#
# Indices 1 2 3 4 5 6 
#
# 1 125.9530 37.0842 63.3182 0.0000 0.0000 0.0000
# 2 37.0842 122.7403 79.3936 0.0000 0.0000 0.0000
# 3 63.3182 79.3936 256.9235 0.0000 0.0000 0.0000
# 4 0.0000 0.0000 0.0000 47.1915 0.0000 0.0000
# 5 0.0000 0.0000 0.0000 0.0000 49.0936 0.0000
# 6 0.0000 0.0000 0.0000 0.0000 0.0000 22.7873
#
#
#
# Elastic Compliance Matrix: (Units=1/GPa)
#
#
# Indices 1 2 3 4 5 6 
#
# 1 0.009326 -0.001664 -0.001784 0.000000 0.000000 0.000000
# 2 -0.001664 0.010479 -0.002828 0.000000 0.000000 0.000000
# 3 -0.001784 -0.002828 0.005206 0.000000 0.000000 0.000000
# 4 0.000000 0.000000 0.000000 0.021190 0.000000 0.000000
# 5 0.000000 0.000000 0.000000 0.000000 0.020369 0.000000
# 6 0.000000 0.000000 0.000000 0.000000 0.000000 0.043884
#
#
# Mechanical properties :
#
#
# Convention : Reuss Voigt Hill
#
# Bulk Modulus (GPa) = 80.26269 96.13429 88.19849
# Shear Modulus (GPa) = 39.32030 45.53587 42.42808
#
# Velocity S-wave (km/s) = 4.38082 4.71437 4.55066
# Velocity P-wave (km/s) = 8.04759 8.74959 8.40592
#
# Compressibility (1/GPa) = 0.01245909
#
# Stress axis : x y z
#
# Youngs Moduli (GPa) = 107.22357 95.42538 192.08765
#
# Poissons Ratio (x) = 0.15875 0.34275
# Poissons Ratio (y) = 0.17838 0.54328
# Poissons Ratio (z) = 0.19133 0.26989
#
# Static dielectric constant tensor:
#      x y z
#    x 1.799110 0.000000 0.000000 
#    y 0.000000 1.781650 0.000000 
#    z 0.000000 0.000000 2.354330 
# 
# From -- ./inp_files/35470.got.cif
#   From: 2010.05.17/outbox.cif.g08.bks.cpg/sg52_18_cif.got.tgz:35470.got - 2010.06.03 12:15:38.
