data_PCOD9412480
_publ_section_title
;
Structure prediction by ZEFSAII (Michael W. Deem and Ramdas Pophale) SiO2 
 PCOD9412480
Probable space group: P N N A
;
_chemical_formula_sum "Si O2"
_cell_formula_units_Z 40
_cell_length_a 16.266263
_cell_length_b 8.397729
_cell_length_c 11.683814
_cell_angle_alpha 90.000000
_cell_angle_beta 90.000000
_cell_angle_gamma 90.000000
_cell_volume 1596.005119
_symmetry_space_group_name_H-M "P N N A"
_symmetry_group_IT_number 52
_symmetry_cell_setting 'orthorhombic'
loop_
_space_group_symop_operation_xyz
x,y,z
1/2-x,-y,z
x,1/2-y,1/2-z
1/2-x,1/2+y,1/2-z
-x,-y,-z
1/2+x,y,-z
-x,1/2+y,1/2+z
1/2+x,1/2-y,1/2+z
loop_
_atom_site_type_symbol
_atom_site_label
_atom_site_fract_x
_atom_site_fract_y
_atom_site_fract_z
Si Si1 0.825515 0.778593 0.480643
Si Si2 0.169183 0.814665 0.370791
Si Si3 0.904433 0.041897 0.026905
Si Si4 0.405805 0.924145 0.719538
Si Si5 0.053893 0.387059 0.153195
O O1 0.748777 0.838169 0.550885
O O2 0.834047 0.589880 0.498164
O O3 0.829493 0.859272 0.355622
O O4 0.913831 0.821381 0.534366
O O5 0.200551 0.750000 0.250000
O O6 0.115913 0.694780 0.450017
O O7 0.115313 0.535139 0.169475
O O8 0.895875 0.028602 0.165287
O O9 0.000000 0.000000 0.000000
O O10 0.446304 0.750000 0.750000
O O11 0.464019 0.039889 0.648280
O O12 0.060395 0.250000 0.250000
#
# Coordination Sequence:
#
# PCOD9412480 Si02
#       5
#     8   8   8   8   8
#     4  11  24  42  66 102 145 190 237 300 378 453
#     4  12  25  44  70 105 148 194 246 311 382 453
#     4  11  23  45  75 104 137 190 251 307 372 447
#     4  10  23  45  71 101 141 189 245 303 367 449
#     4  12  24  42  69 102 140 183 245 315 375 442
#
# _framework density 25.062578999999999
#
# number of rings (size 3 to 8) (size 9 to 14) (size 15 to 20)
#    0.000    0.800    0.000    9.000    0.000    3.200 
#    0.000   13.000    0.000    0.000    0.000    0.000 
#    0.000    0.000    0.000    0.000    0.000    0.000 
#
# Total GULP energy -223178.939559 kJ/mol
# GULP energy per Si atom -5579.473489 kJ/mol
# Density = 2.500554 g / cm^3
# Si number density = 25.062579 Si / 1000 Ang^3
#
#
#
# Elastic Constant Matrix: (Units=GPa)
#
#
# Indices 1 2 3 4 5 6 
#
# 1 90.4652 75.7905 46.2531 0.0000 0.0000 0.0000
# 2 75.7905 131.3982 67.1608 0.0000 0.0000 0.0000
# 3 46.2531 67.1608 144.5480 0.0000 0.0000 0.0000
# 4 0.0000 0.0000 0.0000 45.7913 0.0000 0.0000
# 5 0.0000 0.0000 0.0000 0.0000 21.5743 0.0000
# 6 0.0000 0.0000 0.0000 0.0000 0.0000 24.5835
#
#
#
# Elastic Compliance Matrix: (Units=1/GPa)
#
#
# Indices 1 2 3 4 5 6 
#
# 1 0.021628 -0.011721 -0.001475 0.000000 0.000000 0.000000
# 2 -0.011721 0.016333 -0.003838 0.000000 0.000000 0.000000
# 3 -0.001475 -0.003838 0.009173 0.000000 0.000000 0.000000
# 4 0.000000 0.000000 0.000000 0.021838 0.000000 0.000000
# 5 0.000000 0.000000 0.000000 0.000000 0.046352 0.000000
# 6 0.000000 0.000000 0.000000 0.000000 0.000000 0.040678
#
#
# Mechanical properties :
#
#
# Convention : Reuss Voigt Hill
#
# Bulk Modulus (GPa) = 76.53335 82.75779 79.64557
# Shear Modulus (GPa) = 25.71690 30.20362 27.96026
#
# Velocity S-wave (km/s) = 3.20677 3.47526 3.34371
# Velocity P-wave (km/s) = 6.65690 7.01394 6.83775
#
# Compressibility (1/GPa) = 0.01306620
#
# Stress axis : x y z
#
# Youngs Moduli (GPa) = 46.23690 61.22572 109.01254
#
# Poissons Ratio (x) = 0.71764 0.16075
# Poissons Ratio (y) = 0.54195 0.41841
# Poissons Ratio (z) = 0.06818 0.23499
#
# Static dielectric constant tensor:
#      x y z
#    x 1.962810 0.000000 0.000000 
#    y 0.000000 2.214360 0.000000 
#    z 0.000000 0.000000 2.016370 
# 
# From -- ./inp_files/20321.got.cif
#   From: 2010.05.17/outbox.cif.g08.bks.cpg/sg52_11_cif.got.tgz:20321.got - 2010.06.03 12:15:38.
