data_PCOD9412046
_publ_section_title
;
Structure prediction by ZEFSAII (Michael W. Deem and Ramdas Pophale) SiO2 
 PCOD9412046
Probable space group: P N N A
;
_chemical_formula_sum "Si O2"
_cell_formula_units_Z 48
_cell_length_a 25.628909
_cell_length_b 10.236104
_cell_length_c 8.817975
_cell_angle_alpha 90.000000
_cell_angle_beta 90.000000
_cell_angle_gamma 90.000000
_cell_volume 2313.309130
_symmetry_space_group_name_H-M "P N N A"
_symmetry_group_IT_number 52
_symmetry_cell_setting 'orthorhombic'
loop_
_space_group_symop_operation_xyz
x,y,z
1/2-x,-y,z
x,1/2-y,1/2-z
1/2-x,1/2+y,1/2-z
-x,-y,-z
1/2+x,y,-z
-x,1/2+y,1/2+z
1/2+x,1/2-y,1/2+z
loop_
_atom_site_type_symbol
_atom_site_label
_atom_site_fract_x
_atom_site_fract_y
_atom_site_fract_z
Si Si1 0.238602 0.674196 0.105917
Si Si2 0.584039 0.250000 0.750000
Si Si3 0.911774 0.250000 0.250000
Si Si4 0.005798 0.651831 0.963418
Si Si5 0.850909 0.487939 0.717565
Si Si6 0.822541 0.105959 0.082472
Si Si7 0.432893 0.250000 0.250000
Si Si8 0.750000 0.000000 0.346108
O O1 0.263440 0.750000 0.250000
O O2 0.197228 0.570213 0.181573
O O3 0.206705 0.782959 0.013381
O O4 0.269846 0.608532 0.966576
O O5 0.544360 0.274477 0.892182
O O6 0.620515 0.377785 0.755469
O O7 0.949176 0.346340 0.162254
O O8 0.875796 0.169986 0.136607
O O9 0.029980 0.725930 0.106896
O O10 0.000000 0.500000 0.000000
O O11 0.830865 0.503237 0.544571
O O12 0.894723 0.374097 0.726959
O O13 0.792478 0.059654 0.232306
#
# Coordination Sequence:
#
# PCOD9412046 Si02
#       8
#     8   4   4   8   8   8   4   4
#     4  10  22  43  68  96 130 188 226 274 358 438
#     4  11  26  42  62 109 142 170 243 304 340 407
#     4  11  20  40  68  96 129 183 224 278 358 419
#     4  11  24  38  67 100 139 179 233 294 343 414
#     4  11  22  44  69  97 139 193 235 279 359 439
#     4  11  22  42  71  98 134 182 231 284 362 421
#     4  12  20  40  72  93 131 193 233 270 358 422
#     4  12  24  40  70 106 132 160 244 304 324 418
#
# _framework density 20.749497999999999
#
# number of rings (size 3 to 8) (size 9 to 14) (size 15 to 20)
#    0.000    1.000    7.500    0.000    0.000    4.667 
#    7.500    0.000    0.000    0.000    0.000    0.000 
#    0.000    0.000    0.000    0.000    0.000    0.000 
#
# Total GULP energy -267764.444649 kJ/mol
# GULP energy per Si atom -5578.425930 kJ/mol
# Density = 2.070227 g / cm^3
# Si number density = 20.749498 Si / 1000 Ang^3
#
#
#
# Elastic Constant Matrix: (Units=GPa)
#
#
# Indices 1 2 3 4 5 6 
#
# 1 72.4194 43.9685 46.8414 0.0000 0.0000 0.0000
# 2 43.9685 105.7427 44.2189 0.0000 0.0000 0.0000
# 3 46.8414 44.2189 148.7856 0.0000 0.0000 0.0000
# 4 0.0000 0.0000 0.0000 43.9968 0.0000 0.0000
# 5 0.0000 0.0000 0.0000 0.0000 20.0195 0.0000
# 6 0.0000 0.0000 0.0000 0.0000 0.0000 19.7612
#
#
#
# Elastic Compliance Matrix: (Units=1/GPa)
#
#
# Indices 1 2 3 4 5 6 
#
# 1 0.020867 -0.006771 -0.004557 0.000000 0.000000 0.000000
# 2 -0.006771 0.012996 -0.001731 0.000000 0.000000 0.000000
# 3 -0.004557 -0.001731 0.008670 0.000000 0.000000 0.000000
# 4 0.000000 0.000000 0.000000 0.022729 0.000000 0.000000
# 5 0.000000 0.000000 0.000000 0.000000 0.049951 0.000000
# 6 0.000000 0.000000 0.000000 0.000000 0.000000 0.050604
#
#
# Mechanical properties :
#
#
# Convention : Reuss Voigt Hill
#
# Bulk Modulus (GPa) = 60.91790 66.33392 63.62591
# Shear Modulus (GPa) = 25.32839 29.55010 27.43924
#
# Velocity S-wave (km/s) = 3.49761 3.77787 3.64043
# Velocity P-wave (km/s) = 6.76265 7.14619 6.95706
#
# Compressibility (1/GPa) = 0.01641554
#
# Stress axis : x y z
#
# Youngs Moduli (GPa) = 47.92277 76.94633 115.33824
#
# Poissons Ratio (x) = 0.52100 0.52561
# Poissons Ratio (y) = 0.32448 0.19962
# Poissons Ratio (z) = 0.21839 0.13318
#
# Static dielectric constant tensor:
#      x y z
#    x 1.760900 0.000000 0.000000 
#    y 0.000000 1.786220 0.000000 
#    z 0.000000 0.000000 1.775490 
# 
# From -- ./inp_files/14368.got.cif
#   From: 2010.05.17/outbox.cif.g08.bks.cpg/sg52_8_cif.got.tgz:14368.got - 2010.06.03 12:15:38.
