data_PCOD9412151
_publ_section_title
;
Structure prediction by ZEFSAII (Michael W. Deem and Ramdas Pophale) SiO2 
 PCOD9412151
Probable space group: P N N A
;
_chemical_formula_sum "Si O2"
_cell_formula_units_Z 32
_cell_length_a 12.360057
_cell_length_b 7.722242
_cell_length_c 13.759945
_cell_angle_alpha 90.000000
_cell_angle_beta 90.000000
_cell_angle_gamma 90.000000
_cell_volume 1313.350304
_symmetry_space_group_name_H-M "P N N A"
_symmetry_group_IT_number 52
_symmetry_cell_setting 'orthorhombic'
loop_
_space_group_symop_operation_xyz
x,y,z
1/2-x,-y,z
x,1/2-y,1/2-z
1/2-x,1/2+y,1/2-z
-x,-y,-z
1/2+x,y,-z
-x,1/2+y,1/2+z
1/2+x,1/2-y,1/2+z
loop_
_atom_site_type_symbol
_atom_site_label
_atom_site_fract_x
_atom_site_fract_y
_atom_site_fract_z
Si Si1 0.864851 0.930269 0.803428
Si Si2 0.962321 0.200647 0.037893
Si Si3 0.309528 0.750000 0.750000
Si Si4 0.014992 0.068380 0.641642
Si Si5 0.750000 0.000000 0.085409
O O1 0.841507 0.750000 0.750000
O O2 0.953021 0.887003 0.886638
O O3 0.750000 0.000000 0.839349
O O4 0.915066 0.044186 0.715343
O O5 0.953591 0.393083 0.085301
O O6 0.859143 0.070676 0.032678
O O7 0.998677 0.267623 0.930263
O O8 0.384542 0.901441 0.710796
O O9 0.257922 0.666392 0.656195
#
# Coordination Sequence:
#
# PCOD9412151 Si02
#       5
#     8   8   4   8   4
#     4  10  22  44  74 105 145 200 250 308 378 450
#     4  10  23  48  73 106 146 197 253 311 378 468
#     4  12  24  42  70  98 152 188 234 312 364 452
#     4  10  23  47  70 102 149 197 251 309 383 449
#     4  12  24  42  72 110 144 196 250 308 388 456
#
# _framework density 24.365168000000001
#
# number of rings (size 3 to 8) (size 9 to 14) (size 15 to 20)
#    0.000    1.500    2.500    1.500    3.500    1.000 
#   15.750    2.500    0.000    0.000    0.000    0.000 
#    0.000    0.000    0.000    0.000    0.000    0.000 
#
# Total GULP energy -178469.771241 kJ/mol
# GULP energy per Si atom -5577.180351 kJ/mol
# Density = 2.430971 g / cm^3
# Si number density = 24.365168 Si / 1000 Ang^3
#
#
#
# Elastic Constant Matrix: (Units=GPa)
#
#
# Indices 1 2 3 4 5 6 
#
# 1 100.2577 39.8317 51.1420 0.0000 0.0000 0.0000
# 2 39.8317 128.0135 40.7303 0.0000 0.0000 0.0000
# 3 51.1420 40.7303 120.7908 0.0000 0.0000 0.0000
# 4 0.0000 0.0000 0.0000 47.0417 0.0000 0.0000
# 5 0.0000 0.0000 0.0000 0.0000 21.9790 0.0000
# 6 0.0000 0.0000 0.0000 0.0000 0.0000 489.7377
#
#
#
# Elastic Compliance Matrix: (Units=1/GPa)
#
#
# Indices 1 2 3 4 5 6 
#
# 1 0.013488 -0.002666 -0.004812 0.000000 0.000000 0.000000
# 2 -0.002666 0.009277 -0.002000 0.000000 0.000000 0.000000
# 3 -0.004812 -0.002000 0.010990 0.000000 0.000000 0.000000
# 4 0.000000 0.000000 0.000000 0.021258 0.000000 0.000000
# 5 0.000000 0.000000 0.000000 0.000000 0.045498 0.000000
# 6 0.000000 0.000000 0.000000 0.000000 0.000000 0.002042
#
#
# Mechanical properties :
#
#
# Convention : Reuss Voigt Hill
#
# Bulk Modulus (GPa) = 67.56222 68.05222 67.80722
# Shear Modulus (GPa) = 39.54402 126.24221 82.89311
#
# Velocity S-wave (km/s) = 4.03298 7.20590 5.83909
# Velocity P-wave (km/s) = 7.03391 9.86023 8.56446
#
# Compressibility (1/GPa) = 0.01480117
#
# Stress axis : x y z
#
# Youngs Moduli (GPa) = 74.14036 107.78906 90.98925
#
# Poissons Ratio (x) = 0.28735 0.43782
# Poissons Ratio (y) = 0.19765 0.18194
# Poissons Ratio (z) = 0.35675 0.21554
#
# Static dielectric constant tensor:
#      x y z
#    x 1.972450 0.000000 0.000000 
#    y 0.000000 1.943000 0.000000 
#    z 0.000000 0.000000 1.562500 
# 
# From -- ./inp_files/25634.got.cif
#   From: 2010.05.17/outbox.cif.g08.bks.cpg/sg52_13_cif.got.tgz:25634.got - 2010.06.03 12:15:38.
