data_PCOD9412522
_publ_section_title
;
Structure prediction by ZEFSAII (Michael W. Deem and Ramdas Pophale) SiO2 
 PCOD9412522
Probable space group: P N N A
;
_chemical_formula_sum "Si O2"
_cell_formula_units_Z 56
_cell_length_a 21.111038
_cell_length_b 22.592978
_cell_length_c 5.080662
_cell_angle_alpha 90.000000
_cell_angle_beta 90.000000
_cell_angle_gamma 90.000000
_cell_volume 2423.278731
_symmetry_space_group_name_H-M "P N N A"
_symmetry_group_IT_number 52
_symmetry_cell_setting 'orthorhombic'
loop_
_space_group_symop_operation_xyz
x,y,z
1/2-x,-y,z
x,1/2-y,1/2-z
1/2-x,1/2+y,1/2-z
-x,-y,-z
1/2+x,y,-z
-x,1/2+y,1/2+z
1/2+x,1/2-y,1/2+z
loop_
_atom_site_type_symbol
_atom_site_label
_atom_site_fract_x
_atom_site_fract_y
_atom_site_fract_z
Si Si1 0.092899 0.181721 0.185965
Si Si2 0.083798 0.484182 0.561249
Si Si3 0.696239 0.396969 0.426573
Si Si4 0.535035 0.419268 0.942927
Si Si5 0.046156 0.709347 0.499821
Si Si6 0.905256 0.099965 0.731858
Si Si7 0.730203 0.569337 0.929052
O O1 0.105111 0.250000 0.250000
O O2 0.083348 0.136584 0.431799
O O3 0.147580 0.154943 0.003922
O O4 0.021742 0.179874 0.066334
O O5 0.153474 0.456107 0.556729
O O6 0.042919 0.448129 0.344023
O O7 0.087088 0.549396 0.451049
O O8 0.033176 0.601587 0.042566
O O9 0.748348 0.405124 0.649865
O O10 0.730885 0.395768 0.149975
O O11 0.558095 0.468239 0.151904
O O12 0.033528 0.750000 0.250000
O O13 0.095536 0.660865 0.395774
O O14 0.064519 0.750000 0.750000
O O15 0.844505 0.081612 0.560739
O O16 0.750000 0.500000 0.948648
#
# Coordination Sequence:
#
# PCOD9412522 Si02
#       7
#     8   8   8   8   8   8   8
#     4  10  23  47  78 109 147 193 238 309 377 427
#     4  11  24  42  69 106 152 177 234 304 369 438
#     4  11  24  45  67 105 141 185 250 299 341 434
#     4  11  24  41  67 115 147 180 234 300 369 450
#     4  11  26  47  73 110 146 186 246 299 370 450
#     4  12  25  45  75 104 147 205 234 298 377 435
#     4  12  27  46  68 102 146 196 245 288 359 441
#
# _framework density 23.109185
#
# number of rings (size 3 to 8) (size 9 to 14) (size 15 to 20)
#    0.000    0.857    1.429    6.429    0.000    8.000 
#    2.571    0.714    0.000    6.000    0.000    0.000 
#    0.000    0.000    0.000    0.000    0.000    0.000 
#
# Total GULP energy -313751.842590 kJ/mol
# GULP energy per Si atom -5602.711475 kJ/mol
# Density = 2.305659 g / cm^3
# Si number density = 23.109185 Si / 1000 Ang^3
#
#
#
# Elastic Constant Matrix: (Units=GPa)
#
#
# Indices 1 2 3 4 5 6 
#
# 1 110.5880 27.7481 22.3312 0.0000 0.0000 0.0000
# 2 27.7481 119.6648 22.9790 0.0000 0.0000 0.0000
# 3 22.3312 22.9790 83.5723 0.0000 0.0000 0.0000
# 4 0.0000 0.0000 0.0000 19.2332 0.0000 0.0000
# 5 0.0000 0.0000 0.0000 0.0000 41.9280 0.0000
# 6 0.0000 0.0000 0.0000 0.0000 0.0000 15.7149
#
#
#
# Elastic Compliance Matrix: (Units=1/GPa)
#
#
# Indices 1 2 3 4 5 6 
#
# 1 0.009950 -0.001897 -0.002137 0.000000 0.000000 0.000000
# 2 -0.001897 0.009184 -0.002018 0.000000 0.000000 0.000000
# 3 -0.002137 -0.002018 0.013092 0.000000 0.000000 0.000000
# 4 0.000000 0.000000 0.000000 0.051994 0.000000 0.000000
# 5 0.000000 0.000000 0.000000 0.000000 0.023850 0.000000
# 6 0.000000 0.000000 0.000000 0.000000 0.000000 0.063634
#
#
# Mechanical properties :
#
#
# Convention : Reuss Voigt Hill
#
# Bulk Modulus (GPa) = 49.69916 51.10462 50.40189
# Shear Modulus (GPa) = 26.24459 31.42633 28.83546
#
# Velocity S-wave (km/s) = 3.37364 3.69169 3.53624
# Velocity P-wave (km/s) = 6.06038 6.35090 6.20734
#
# Compressibility (1/GPa) = 0.02012106
#
# Stress axis : x y z
#
# Youngs Moduli (GPa) = 100.50166 108.88377 76.38398
#
# Poissons Ratio (x) = 0.20654 0.16325
# Poissons Ratio (y) = 0.19064 0.15417
# Poissons Ratio (z) = 0.21479 0.21977
#
# Static dielectric constant tensor:
#      x y z
#    x 1.881210 0.000000 0.000000 
#    y 0.000000 1.906040 0.000000 
#    z 0.000000 0.000000 1.889230 
# 
# From -- ./inp_files/4514.got.cif
#   From: 2010.05.17/outbox.cif.g08.bks.cpg/sg52_3_cif.got.tgz:4514.got - 2010.06.03 12:15:38.
