data_PCOD9412132
_publ_section_title
;
Structure prediction by ZEFSAII (Michael W. Deem and Ramdas Pophale) SiO2 
 PCOD9412132
Probable space group: P N N A
;
_chemical_formula_sum "Si O2"
_cell_formula_units_Z 48
_cell_length_a 22.430117
_cell_length_b 8.602627
_cell_length_c 11.477012
_cell_angle_alpha 90.000000
_cell_angle_beta 90.000000
_cell_angle_gamma 90.000000
_cell_volume 2214.580479
_symmetry_space_group_name_H-M "P N N A"
_symmetry_group_IT_number 52
_symmetry_cell_setting 'orthorhombic'
loop_
_space_group_symop_operation_xyz
x,y,z
1/2-x,-y,z
x,1/2-y,1/2-z
1/2-x,1/2+y,1/2-z
-x,-y,-z
1/2+x,y,-z
-x,1/2+y,1/2+z
1/2+x,1/2-y,1/2+z
loop_
_atom_site_type_symbol
_atom_site_label
_atom_site_fract_x
_atom_site_fract_y
_atom_site_fract_z
Si Si1 0.526054 0.250000 0.250000
Si Si2 0.877994 0.547379 0.377972
Si Si3 0.428889 0.250000 0.750000
Si Si4 0.220807 0.250000 0.750000
Si Si5 0.977495 0.543049 0.875116
Si Si6 0.338147 0.921418 0.370561
Si Si7 0.313771 0.939113 0.111203
Si Si8 0.250000 0.500000 0.933160
O O1 0.569091 0.329342 0.347858
O O2 0.486652 0.390856 0.203783
O O3 0.892268 0.386146 0.313010
O O4 0.820813 0.627829 0.318979
O O5 0.863648 0.523412 0.514197
O O6 0.475279 0.328865 0.837098
O O7 0.252997 0.350481 0.848954
O O8 0.909155 0.592439 0.877114
O O9 0.000000 0.500000 0.000000
O O10 0.324179 0.995470 0.244200
O O11 0.312607 0.747175 0.378080
O O12 0.307145 0.002492 0.480839
O O13 0.250000 0.000000 0.070110
#
# Coordination Sequence:
#
# PCOD9412132 Si02
#       8
#     4   8   4   4   8   8   8   4
#     4   9  22  44  69 101 142 186 241 296 358 418
#     4  10  22  44  70 105 143 182 237 300 348 429
#     4  10  24  43  73 105 140 187 242 292 370 412
#     4  11  26  43  74 100 144 181 237 294 356 416
#     4  11  24  46  70 103 139 188 234 295 359 425
#     4  11  25  47  70  98 145 182 237 290 354 424
#     4  11  23  43  69 101 140 191 233 290 351 427
#     4  12  26  50  72 104 138 196 228 300 352 420
#
# _framework density 21.674534000000001
#
# number of rings (size 3 to 8) (size 9 to 14) (size 15 to 20)
#    0.000    1.333    2.500    2.000    5.833    3.333 
#    3.000    4.167    0.000    0.000    0.000    0.000 
#    0.000    0.000    0.000    0.000    0.000    0.000 
#
# Total GULP energy -268312.955733 kJ/mol
# GULP energy per Si atom -5589.853244 kJ/mol
# Density = 2.162520 g / cm^3
# Si number density = 21.674534 Si / 1000 Ang^3
#
#
#
# Elastic Constant Matrix: (Units=GPa)
#
#
# Indices 1 2 3 4 5 6 
#
# 1 90.7362 60.5624 53.7116 0.0000 0.0000 0.0000
# 2 60.5624 105.1956 44.8904 0.0000 0.0000 0.0000
# 3 53.7116 44.8904 147.7919 0.0000 0.0000 0.0000
# 4 0.0000 0.0000 0.0000 10.9341 0.0000 0.0000
# 5 0.0000 0.0000 0.0000 0.0000 55.8472 0.0000
# 6 0.0000 0.0000 0.0000 0.0000 0.0000 -45.4604
#
#
#
# Elastic Compliance Matrix: (Units=1/GPa)
#
#
# Indices 1 2 3 4 5 6 
#
# 1 0.020067 -0.009698 -0.004347 0.000000 0.000000 0.000000
# 2 -0.009698 0.015608 -0.001216 0.000000 0.000000 0.000000
# 3 -0.004347 -0.001216 0.008716 0.000000 0.000000 0.000000
# 4 0.000000 0.000000 0.000000 0.091457 0.000000 0.000000
# 5 0.000000 0.000000 0.000000 0.000000 0.017906 0.000000
# 6 0.000000 0.000000 0.000000 0.000000 0.000000 -0.021997
#
#
# Mechanical properties :
#
#
# Convention : Reuss Voigt Hill
#
# Bulk Modulus (GPa) = 72.10807 73.56140 72.83473
# Shear Modulus (GPa) = 29.95757 16.56815 23.26286
#
# Velocity S-wave (km/s) = 3.72177 2.76779 3.27965
# Velocity P-wave (km/s) = 7.19788 6.65034 6.92952
#
# Compressibility (1/GPa) = 0.01386807
#
# Stress axis : x y z
#
# Youngs Moduli (GPa) = 49.83251 64.06841 114.73532
#
# Poissons Ratio (x) = 0.62132 0.49880
# Poissons Ratio (y) = 0.48326 0.13957
# Poissons Ratio (z) = 0.21664 0.07794
#
# Static dielectric constant tensor:
#      x y z
#    x 1.732620 0.000000 0.000000 
#    y 0.000000 1.761820 0.000000 
#    z 0.000000 0.000000 1.794890 
# 
# From -- ./inp_files/22369.got.cif
#   From: 2010.05.17/outbox.cif.g08.bks.cpg/sg52_12_cif.got.tgz:22369.got - 2010.06.03 12:15:38.
