data_PCOD9412153
_publ_section_title
;
Structure prediction by ZEFSAII (Michael W. Deem and Ramdas Pophale) SiO2 
 PCOD9412153
Probable space group: P N N A
;
_chemical_formula_sum "Si O2"
_cell_formula_units_Z 32
_cell_length_a 10.624301
_cell_length_b 12.441333
_cell_length_c 9.966001
_cell_angle_alpha 90.000000
_cell_angle_beta 90.000000
_cell_angle_gamma 90.000000
_cell_volume 1317.310663
_symmetry_space_group_name_H-M "P N N A"
_symmetry_group_IT_number 52
_symmetry_cell_setting 'orthorhombic'
loop_
_space_group_symop_operation_xyz
x,y,z
1/2-x,-y,z
x,1/2-y,1/2-z
1/2-x,1/2+y,1/2-z
-x,-y,-z
1/2+x,y,-z
-x,1/2+y,1/2+z
1/2+x,1/2-y,1/2+z
loop_
_atom_site_type_symbol
_atom_site_label
_atom_site_fract_x
_atom_site_fract_y
_atom_site_fract_z
Si Si1 0.250000 0.000000 0.537576
Si Si2 0.608495 0.041095 0.103321
Si Si3 0.940604 0.076379 0.664960
Si Si4 0.359684 0.714285 0.960793
Si Si5 0.243819 0.750000 0.250000
O O1 0.133032 0.999245 0.435027
O O2 0.263550 0.878737 0.594871
O O3 0.545096 0.015753 0.247604
O O4 0.750000 0.000000 0.080388
O O5 0.630740 0.168998 0.104438
O O6 0.500000 0.000000 0.000000
O O7 0.843127 0.142903 0.757543
O O8 0.004884 0.166241 0.573512
O O9 0.323532 0.736482 0.114967
#
# Coordination Sequence:
#
# PCOD9412153 Si02
#       5
#     4   8   8   8   4
#     4  10  26  44  82 100 148 194 254 312 390 456
#     4  12  28  46  75 110 159 201 256 315 388 462
#     4  11  23  49  71 111 150 197 253 321 379 468
#     4  11  24  47  75 108 145 197 255 316 384 461
#     4  10  22  44  76 104 148 194 248 320 388 448
#
# _framework density 24.291917000000002
#
# number of rings (size 3 to 8) (size 9 to 14) (size 15 to 20)
#    0.000    1.000    2.500    2.250   14.000    0.000 
#    0.000    0.000    0.000    0.000    0.000    0.000 
#    0.000    0.000    0.000    0.000    0.000    0.000 
#
# Total GULP energy -178646.355056 kJ/mol
# GULP energy per Si atom -5582.698595 kJ/mol
# Density = 2.423663 g / cm^3
# Si number density = 24.291917 Si / 1000 Ang^3
#
#
#
# Elastic Constant Matrix: (Units=GPa)
#
#
# Indices 1 2 3 4 5 6 
#
# 1 143.8984 42.6168 50.3582 0.0000 0.0000 0.0000
# 2 42.6168 139.7044 11.0117 0.0000 0.0000 0.0000
# 3 50.3582 11.0117 79.8610 0.0000 0.0000 0.0000
# 4 0.0000 0.0000 0.0000 34.5883 0.0000 0.0000
# 5 0.0000 0.0000 0.0000 0.0000 44.9778 0.0000
# 6 0.0000 0.0000 0.0000 0.0000 0.0000 49.8497
#
#
#
# Elastic Compliance Matrix: (Units=1/GPa)
#
#
# Indices 1 2 3 4 5 6 
#
# 1 0.009715 -0.002508 -0.005780 0.000000 0.000000 0.000000
# 2 -0.002508 0.007884 0.000494 0.000000 0.000000 0.000000
# 3 -0.005780 0.000494 0.016098 0.000000 0.000000 0.000000
# 4 0.000000 0.000000 0.000000 0.028911 0.000000 0.000000
# 5 0.000000 0.000000 0.000000 0.000000 0.022233 0.000000
# 6 0.000000 0.000000 0.000000 0.000000 0.000000 0.020060
#
#
# Mechanical properties :
#
#
# Convention : Reuss Voigt Hill
#
# Bulk Modulus (GPa) = 55.21853 63.49302 59.35578
# Shear Modulus (GPa) = 39.51746 43.18166 41.34956
#
# Velocity S-wave (km/s) = 4.03770 4.22075 4.13024
# Velocity P-wave (km/s) = 6.67218 7.06734 6.87260
#
# Compressibility (1/GPa) = 0.01810986
#
# Stress axis : x y z
#
# Youngs Moduli (GPa) = 102.93474 126.83843 62.11801
#
# Poissons Ratio (x) = 0.31810 0.35905
# Poissons Ratio (y) = 0.25815 -0.03071
# Poissons Ratio (z) = 0.59498 -0.06270
#
# Static dielectric constant tensor:
#      x y z
#    x 2.017860 0.000000 0.000000 
#    y 0.000000 1.959020 0.000000 
#    z 0.000000 0.000000 2.038140 
# 
# From -- ./inp_files/8349.got.cif
#   From: 2010.05.17/outbox.cif.g08.bks.cpg/sg52_5_cif.got.tgz:8349.got - 2010.06.03 12:15:38.
