data_PCOD9412530
_publ_section_title
;
Structure prediction by ZEFSAII (Michael W. Deem and Ramdas Pophale) SiO2 
 PCOD9412530
Probable space group: P N N A
;
_chemical_formula_sum "Si O2"
_cell_formula_units_Z 32
_cell_length_a 14.268148
_cell_length_b 11.534226
_cell_length_c 8.463622
_cell_angle_alpha 90.000000
_cell_angle_beta 90.000000
_cell_angle_gamma 90.000000
_cell_volume 1392.875569
_symmetry_space_group_name_H-M "P N N A"
_symmetry_group_IT_number 52
_symmetry_cell_setting 'orthorhombic'
loop_
_space_group_symop_operation_xyz
x,y,z
1/2-x,-y,z
x,1/2-y,1/2-z
1/2-x,1/2+y,1/2-z
-x,-y,-z
1/2+x,y,-z
-x,1/2+y,1/2+z
1/2+x,1/2-y,1/2+z
loop_
_atom_site_type_symbol
_atom_site_label
_atom_site_fract_x
_atom_site_fract_y
_atom_site_fract_z
Si Si1 0.715682 0.244728 0.431113
Si Si2 0.087725 0.782057 0.070314
Si Si3 0.355523 0.962723 0.107875
Si Si4 0.552722 0.111005 0.568497
O O1 0.744750 0.250000 0.250000
O O2 0.807314 0.235653 0.539482
O O3 0.662308 0.363681 0.478553
O O4 0.643925 0.142044 0.465298
O O5 0.059938 0.750000 0.250000
O O6 0.094287 0.920228 0.049828
O O7 0.018306 0.717544 0.952772
O O8 0.410901 0.911916 0.256067
O O9 0.250000 0.000000 0.159647
O O10 0.500000 0.000000 0.500000
#
# Coordination Sequence:
#
# PCOD9412530 Si02
#       4
#     8   8   8   8
#     4  11  26  47  68 103 144 188 243 296 356 428
#     4  11  23  48  75 104 144 186 237 298 364 431
#     4  10  23  49  76 101 143 195 238 299 364 427
#     4  12  25  43  75 106 141 188 235 298 361 438
#
# _framework density 22.974055
#
# number of rings (size 3 to 8) (size 9 to 14) (size 15 to 20)
#    0.000    1.000    2.500    4.500    0.000    3.000 
#   18.000    0.000    0.000    0.000    0.000    0.000 
#    0.000    0.000    0.000    0.000    0.000    0.000 
#
# Total GULP energy -179329.401292 kJ/mol
# GULP energy per Si atom -5604.043790 kJ/mol
# Density = 2.292177 g / cm^3
# Si number density = 22.974055 Si / 1000 Ang^3
#
#
#
# Elastic Constant Matrix: (Units=GPa)
#
#
# Indices 1 2 3 4 5 6 
#
# 1 86.4227 60.7723 20.7876 0.0000 0.0000 0.0000
# 2 60.7723 92.0248 51.0978 0.0000 0.0000 0.0000
# 3 20.7876 51.0978 101.7177 0.0000 0.0000 0.0000
# 4 0.0000 0.0000 0.0000 37.6008 0.0000 0.0000
# 5 0.0000 0.0000 0.0000 0.0000 37.6136 0.0000
# 6 0.0000 0.0000 0.0000 0.0000 0.0000 43.9317
#
#
#
# Elastic Compliance Matrix: (Units=1/GPa)
#
#
# Indices 1 2 3 4 5 6 
#
# 1 0.022727 -0.017238 0.004015 0.000000 0.000000 0.000000
# 2 -0.017238 0.028145 -0.010616 0.000000 0.000000 0.000000
# 3 0.004015 -0.010616 0.014343 0.000000 0.000000 0.000000
# 4 0.000000 0.000000 0.000000 0.026595 0.000000 0.000000
# 5 0.000000 0.000000 0.000000 0.000000 0.026586 0.000000
# 6 0.000000 0.000000 0.000000 0.000000 0.000000 0.022763
#
#
# Mechanical properties :
#
#
# Convention : Reuss Voigt Hill
#
# Bulk Modulus (GPa) = 57.02003 60.60893 58.81448
# Shear Modulus (GPa) = 25.68274 33.66306 29.67290
#
# Velocity S-wave (km/s) = 3.34713 3.83203 3.59776
# Velocity P-wave (km/s) = 6.30959 6.78366 6.55091
#
# Compressibility (1/GPa) = 0.01753770
#
# Stress axis : x y z
#
# Youngs Moduli (GPa) = 44.00031 35.53026 69.71826
#
# Poissons Ratio (x) = 0.61247 -0.27991
# Poissons Ratio (y) = 0.75848 0.74011
# Poissons Ratio (z) = -0.17666 0.37718
#
# Static dielectric constant tensor:
#      x y z
#    x 1.861270 0.000000 0.000000 
#    y 0.000000 1.874440 0.000000 
#    z 0.000000 0.000000 1.785970 
# 
# From -- ./inp_files/9523.got.cif
#   From: 2010.05.17/outbox.cif.g08.bks.cpg/sg52_5_cif.got.tgz:9523.got - 2010.06.03 12:15:38.
