data_PCOD9412323
_publ_section_title
;
Structure prediction by ZEFSAII (Michael W. Deem and Ramdas Pophale) SiO2 
 PCOD9412323
Probable space group: P N N A
;
_chemical_formula_sum "Si O2"
_cell_formula_units_Z 32
_cell_length_a 14.553379
_cell_length_b 10.733488
_cell_length_c 9.187182
_cell_angle_alpha 90.000000
_cell_angle_beta 90.000000
_cell_angle_gamma 90.000000
_cell_volume 1435.116093
_symmetry_space_group_name_H-M "P N N A"
_symmetry_group_IT_number 52
_symmetry_cell_setting 'orthorhombic'
loop_
_space_group_symop_operation_xyz
x,y,z
1/2-x,-y,z
x,1/2-y,1/2-z
1/2-x,1/2+y,1/2-z
-x,-y,-z
1/2+x,y,-z
-x,1/2+y,1/2+z
1/2+x,1/2-y,1/2+z
loop_
_atom_site_type_symbol
_atom_site_label
_atom_site_fract_x
_atom_site_fract_y
_atom_site_fract_z
Si Si1 0.705631 0.672707 0.545154
Si Si2 0.416921 0.107397 0.790672
Si Si3 0.117296 0.056278 0.184999
Si Si4 0.650181 0.959620 0.505805
O O1 0.674765 0.612272 0.389702
O O2 0.810166 0.647852 0.602022
O O3 0.649198 0.583126 0.650383
O O4 0.667555 0.813353 0.546687
O O5 0.430276 0.250000 0.750000
O O6 0.513301 0.074093 0.864107
O O7 0.409966 0.032669 0.639639
O O8 0.123941 0.051223 0.361197
O O9 0.750000 0.000000 0.455493
#
# Coordination Sequence:
#
# PCOD9412323 Si02
#       4
#     8   8   8   8
#     4  10  23  42  63  96 129 172 207 268 320 382
#     4  10  24  42  64  95 130 166 218 269 315 383
#     4  11  22  39  70  89 129 170 214 258 330 375
#     4  11  23  40  67  93 132 167 216 264 319 384
#
# _framework density 22.297847999999998
#
# number of rings (size 3 to 8) (size 9 to 14) (size 15 to 20)
#    0.000    1.500    2.500    2.250    7.000    0.000 
#    0.000    0.000    5.500    0.000    0.000    0.000 
#    0.000    0.000    0.000    0.000    0.000    0.000 
#
# Total GULP energy -178152.915441 kJ/mol
# GULP energy per Si atom -5567.278608 kJ/mol
# Density = 2.224710 g / cm^3
# Si number density = 22.297848 Si / 1000 Ang^3
#
#
#
# Elastic Constant Matrix: (Units=GPa)
#
#
# Indices 1 2 3 4 5 6 
#
# 1 115.2351 27.2980 45.3368 0.0000 0.0000 0.0000
# 2 27.2980 28.1294 19.2767 0.0000 0.0000 0.0000
# 3 45.3368 19.2767 119.9176 0.0000 0.0000 0.0000
# 4 0.0000 0.0000 0.0000 6.6263 0.0000 0.0000
# 5 0.0000 0.0000 0.0000 0.0000 61.5111 0.0000
# 6 0.0000 0.0000 0.0000 0.0000 0.0000 0.3818
#
#
#
# Elastic Compliance Matrix: (Units=1/GPa)
#
#
# Indices 1 2 3 4 5 6 
#
# 1 0.012181 -0.009737 -0.003040 0.000000 0.000000 0.000000
# 2 -0.009737 0.047735 -0.003992 0.000000 0.000000 0.000000
# 3 -0.003040 -0.003992 0.010130 0.000000 0.000000 0.000000
# 4 0.000000 0.000000 0.000000 0.150914 0.000000 0.000000
# 5 0.000000 0.000000 0.000000 0.000000 0.016257 0.000000
# 6 0.000000 0.000000 0.000000 0.000000 0.000000 2.618961
#
#
# Mechanical properties :
#
#
# Convention : Reuss Voigt Hill
#
# Bulk Modulus (GPa) = 27.39171 49.67837 38.53504
# Shear Modulus (GPa) = 1.72302 25.12855 13.42578
#
# Velocity S-wave (km/s) = 0.88000 3.36065 2.45646
# Velocity P-wave (km/s) = 3.65290 6.11444 5.03637
#
# Compressibility (1/GPa) = 0.03650739
#
# Stress axis : x y z
#
# Youngs Moduli (GPa) = 82.09819 20.94885 98.71651
#
# Poissons Ratio (x) = 0.20399 0.30007
# Poissons Ratio (y) = 0.79942 0.39408
# Poissons Ratio (z) = 0.24956 0.08363
#
# Static dielectric constant tensor:
#      x y z
#    x 2.053690 0.000000 0.000000 
#    y 0.000000 1.806700 0.000000 
#    z 0.000000 0.000000 1.969850 
# 
# From -- ./inp_files/9572.got.cif
#   From: 2010.05.17/outbox.cif.g08.bks.cpg/sg52_5_cif.got.tgz:9572.got - 2010.06.03 12:15:38.
