data_PCOD9412915
_publ_section_title
;
Structure prediction by ZEFSAII (Michael W. Deem and Ramdas Pophale) SiO2 
 PCOD9412915
Probable space group: P N N A
;
_chemical_formula_sum "Si O2"
_cell_formula_units_Z 52
_cell_length_a 20.202958
_cell_length_b 13.319771
_cell_length_c 9.933222
_cell_angle_alpha 90.000000
_cell_angle_beta 90.000000
_cell_angle_gamma 90.000000
_cell_volume 2673.017863
_symmetry_space_group_name_H-M "P N N A"
_symmetry_group_IT_number 52
_symmetry_cell_setting 'orthorhombic'
loop_
_space_group_symop_operation_xyz
x,y,z
1/2-x,-y,z
x,1/2-y,1/2-z
1/2-x,1/2+y,1/2-z
-x,-y,-z
1/2+x,y,-z
-x,1/2+y,1/2+z
1/2+x,1/2-y,1/2+z
loop_
_atom_site_type_symbol
_atom_site_label
_atom_site_fract_x
_atom_site_fract_y
_atom_site_fract_z
Si Si1 0.512931 0.870143 0.608404
Si Si2 0.336072 0.854154 0.998148
Si Si3 0.894379 0.750000 0.250000
Si Si4 0.488004 0.400198 0.810433
Si Si5 0.250000 0.500000 0.354008
Si Si6 0.928471 0.451142 0.463863
Si Si7 0.358616 0.145499 0.212184
Si Si8 0.602865 0.250000 0.750000
O O1 0.447293 0.814045 0.661561
O O2 0.527357 0.847457 0.452256
O O3 0.579933 0.849205 0.686658
O O4 0.499353 0.985836 0.644820
O O5 0.356931 0.776547 0.115681
O O6 0.269724 0.906560 0.051027
O O7 0.345817 0.802291 0.855739
O O8 0.382850 0.951307 0.978231
O O9 0.438034 0.403891 0.684544
O O10 0.555202 0.346217 0.764998
O O11 0.310838 0.451936 0.270877
O O12 0.896199 0.372965 0.569073
O O13 0.000000 0.500000 0.500000
O O14 0.321892 0.250000 0.250000
#
# Coordination Sequence:
#
# PCOD9412915 Si02
#       8
#     8   8   4   8   4   8   8   4
#     4  11  22  37  59 100 136 156 198 268 338 389
#     4  11  23  40  68  88 127 173 221 266 313 393
#     4  12  20  40  69 103 128 164 208 268 348 394
#     4  11  22  33  56  98 139 159 191 246 332 406
#     4  10  26  48  64  84 124 184 240 266 314 380
#     4  11  19  38  60  91 132 171 196 255 333 389
#     4  11  23  40  67  88 122 171 225 266 318 390
#     4  12  22  34  61  99 126 166 206 256 318 402
#
# _framework density 19.453668
#
# number of rings (size 3 to 8) (size 9 to 14) (size 15 to 20)
#    0.000    0.923    6.923    0.923    3.231    0.000 
#    0.000    0.000    6.769    1.846    0.000    0.000 
#    0.000    0.000    0.000    0.000    0.000    0.000 
#
# Total GULP energy -289550.588129 kJ/mol
# GULP energy per Si atom -5568.280541 kJ/mol
# Density = 1.940939 g / cm^3
# Si number density = 19.453668 Si / 1000 Ang^3
#
#
#
# Elastic Constant Matrix: (Units=GPa)
#
#
# Indices 1 2 3 4 5 6 
#
# 1 30.4844 2.9974 10.7776 0.0000 0.0000 0.0000
# 2 2.9974 70.1137 32.2712 0.0000 0.0000 0.0000
# 3 10.7776 32.2712 140.2091 0.0000 0.0000 0.0000
# 4 0.0000 0.0000 0.0000 27.4475 0.0000 0.0000
# 5 0.0000 0.0000 0.0000 0.0000 7.7080 0.0000
# 6 0.0000 0.0000 0.0000 0.0000 0.0000 25.5616
#
#
#
# Elastic Compliance Matrix: (Units=1/GPa)
#
#
# Indices 1 2 3 4 5 6 
#
# 1 0.033725 -0.000278 -0.002528 0.000000 0.000000 0.000000
# 2 -0.000278 0.015955 -0.003651 0.000000 0.000000 0.000000
# 3 -0.002528 -0.003651 0.008167 0.000000 0.000000 0.000000
# 4 0.000000 0.000000 0.000000 0.036433 0.000000 0.000000
# 5 0.000000 0.000000 0.000000 0.000000 0.129735 0.000000
# 6 0.000000 0.000000 0.000000 0.000000 0.000000 0.039121
#
#
# Mechanical properties :
#
#
# Convention : Reuss Voigt Hill
#
# Bulk Modulus (GPa) = 22.25585 36.98885 29.62235
# Shear Modulus (GPa) = 17.18047 25.12749 21.15398
#
# Velocity S-wave (km/s) = 2.97501 3.59786 3.30116
# Velocity P-wave (km/s) = 4.82350 6.02616 5.45806
#
# Compressibility (1/GPa) = 0.04493201
#
# Stress axis : x y z
#
# Youngs Moduli (GPa) = 29.65172 62.67701 122.44619
#
# Poissons Ratio (x) = 0.01743 0.30959
# Poissons Ratio (y) = 0.00824 0.44703
# Poissons Ratio (z) = 0.07497 0.22883
#
# Static dielectric constant tensor:
#      x y z
#    x 1.729810 0.000000 0.000000 
#    y 0.000000 1.808500 0.000000 
#    z 0.000000 0.000000 1.834740 
# 
# From -- ./inp_files/13395.got.cif
#   From: 2010.05.17/outbox.cif.g08.bks.cpg/sg52_7_cif.got.tgz:13395.got - 2010.06.03 12:15:38.
