data_PCOD9412633
_publ_section_title
;
Structure prediction by ZEFSAII (Michael W. Deem and Ramdas Pophale) SiO2 
 PCOD9412633
Probable space group: P N N A
;
_chemical_formula_sum "Si O2"
_cell_formula_units_Z 20
_cell_length_a 9.528482
_cell_length_b 8.941524
_cell_length_c 10.036388
_cell_angle_alpha 90.000000
_cell_angle_beta 90.000000
_cell_angle_gamma 90.000000
_cell_volume 855.091732
_symmetry_space_group_name_H-M "P N N A"
_symmetry_group_IT_number 52
_symmetry_cell_setting 'orthorhombic'
loop_
_space_group_symop_operation_xyz
x,y,z
1/2-x,-y,z
x,1/2-y,1/2-z
1/2-x,1/2+y,1/2-z
-x,-y,-z
1/2+x,y,-z
-x,1/2+y,1/2+z
1/2+x,1/2-y,1/2+z
loop_
_atom_site_type_symbol
_atom_site_label
_atom_site_fract_x
_atom_site_fract_y
_atom_site_fract_z
Si Si1 0.938634 0.352289 0.568130
Si Si2 0.750000 0.000000 0.710686
Si Si3 0.299370 0.844231 0.547400
O O1 0.851714 0.407444 0.695328
O O2 0.830542 0.267809 0.469807
O O3 0.000000 0.500000 0.500000
O O4 0.065315 0.239733 0.599217
O O5 0.832775 0.895847 0.605712
O O6 0.250000 0.000000 0.614368
#
# Coordination Sequence:
#
# PCOD9412633 Si02
#       3
#     8   4   8
#     4  12  21  41  71 100 134 185 238 283 344 421
#     4  10  24  42  74  98 146 184 232 282 364 406
#     4  10  24  42  70  99 141 187 230 285 358 409
#
# _framework density 23.389303000000002
#
# number of rings (size 3 to 8) (size 9 to 14) (size 15 to 20)
#    1.200    0.000    4.000    2.400    0.000    0.000 
#    0.000    0.000   35.200    0.000    0.000    0.000 
#    0.000    0.000    0.000    0.000    0.000    0.000 
#
# Total GULP energy -111869.296973 kJ/mol
# GULP energy per Si atom -5593.464849 kJ/mol
# Density = 2.333607 g / cm^3
# Si number density = 23.389303 Si / 1000 Ang^3
#
#
#
# Elastic Constant Matrix: (Units=GPa)
#
#
# Indices 1 2 3 4 5 6 
#
# 1 167.5380 97.7435 35.0107 0.0000 0.0000 0.0000
# 2 97.7435 178.1737 47.5065 0.0000 0.0000 0.0000
# 3 35.0107 47.5065 73.0925 0.0000 0.0000 0.0000
# 4 0.0000 0.0000 0.0000 33.5694 0.0000 0.0000
# 5 0.0000 0.0000 0.0000 0.0000 30.2003 0.0000
# 6 0.0000 0.0000 0.0000 0.0000 0.0000 69.3093
#
#
#
# Elastic Compliance Matrix: (Units=1/GPa)
#
#
# Indices 1 2 3 4 5 6 
#
# 1 0.008882 -0.004522 -0.001315 0.000000 0.000000 0.000000
# 2 -0.004522 0.009091 -0.003743 0.000000 0.000000 0.000000
# 3 -0.001315 -0.003743 0.016744 0.000000 0.000000 0.000000
# 4 0.000000 0.000000 0.000000 0.029789 0.000000 0.000000
# 5 0.000000 0.000000 0.000000 0.000000 0.033112 0.000000
# 6 0.000000 0.000000 0.000000 0.000000 0.000000 0.014428
#
#
# Mechanical properties :
#
#
# Convention : Reuss Voigt Hill
#
# Bulk Modulus (GPa) = 64.28026 86.59172 75.43599
# Shear Modulus (GPa) = 36.65922 42.51869 39.58896
#
# Velocity S-wave (km/s) = 3.96327 4.26827 4.11860
# Velocity P-wave (km/s) = 6.96317 7.83538 7.41212
#
# Compressibility (1/GPa) = 0.01555688
#
# Stress axis : x y z
#
# Youngs Moduli (GPa) = 112.59191 109.99958 59.72279
#
# Poissons Ratio (x) = 0.49737 0.07856
# Poissons Ratio (y) = 0.50910 0.22353
# Poissons Ratio (z) = 0.14810 0.41171
#
# Static dielectric constant tensor:
#      x y z
#    x 1.832290 0.000000 0.000000 
#    y 0.000000 1.907100 0.000000 
#    z 0.000000 0.000000 1.865060 
# 
# From -- ./inp_files/16163.got.cif
#   From: 2010.05.17/outbox.cif.g08.bks.cpg/sg52_9_cif.got.tgz:16163.got - 2010.06.03 12:15:38.
