data_PCOD9412305
_publ_section_title
;
Structure prediction by ZEFSAII (Michael W. Deem and Ramdas Pophale) SiO2 
 PCOD9412305
Probable space group: P N N A
;
_chemical_formula_sum "Si O2"
_cell_formula_units_Z 32
_cell_length_a 16.755541
_cell_length_b 5.039724
_cell_length_c 17.511718
_cell_angle_alpha 90.000000
_cell_angle_beta 90.000000
_cell_angle_gamma 90.000000
_cell_volume 1478.747294
_symmetry_space_group_name_H-M "P N N A"
_symmetry_group_IT_number 52
_symmetry_cell_setting 'orthorhombic'
loop_
_space_group_symop_operation_xyz
x,y,z
1/2-x,-y,z
x,1/2-y,1/2-z
1/2-x,1/2+y,1/2-z
-x,-y,-z
1/2+x,y,-z
-x,1/2+y,1/2+z
1/2+x,1/2-y,1/2+z
loop_
_atom_site_type_symbol
_atom_site_label
_atom_site_fract_x
_atom_site_fract_y
_atom_site_fract_z
Si Si1 0.750000 0.500000 0.302915
Si Si2 0.103182 0.615260 0.410716
Si Si3 0.998305 0.587220 0.912180
Si Si4 0.750000 0.500000 0.695627
Si Si5 0.669233 0.818357 0.425029
O O1 0.769942 0.750000 0.250000
O O2 0.683618 0.592239 0.362615
O O3 0.035753 0.385750 0.412440
O O4 0.173482 0.511233 0.358377
O O5 0.142739 0.692196 0.493357
O O6 0.063833 0.881731 0.376191
O O7 0.090274 0.542660 0.890759
O O8 0.000000 0.500000 0.000000
O O9 0.747340 0.250000 0.750000
O O10 0.750000 0.000000 0.431975
#
# Coordination Sequence:
#
# PCOD9412305 Si02
#       5
#     4   8   8   4   8
#     4  12  27  44  63  98 140 180 230 276 329 406
#     4  11  25  44  72 103 138 175 228 288 346 401
#     4  10  23  41  68 107 139 166 224 295 344 399
#     4  12  27  46  73 100 142 184 234 276 339 422
#     4  11  25  42  78 102 133 182 235 282 344 402
#
# _framework density 21.639935999999999
#
# number of rings (size 3 to 8) (size 9 to 14) (size 15 to 20)
#    0.000    1.000    1.250    5.250   19.250    0.000 
#    0.000    5.000    5.500    0.000    0.000    0.000 
#    0.000    0.000    0.000    0.000    0.000    0.000 
#
# Total GULP energy -178554.123447 kJ/mol
# GULP energy per Si atom -5579.816358 kJ/mol
# Density = 2.159068 g / cm^3
# Si number density = 21.639936 Si / 1000 Ang^3
#
#
#
# Elastic Constant Matrix: (Units=GPa)
#
#
# Indices 1 2 3 4 5 6 
#
# 1 148.6057 48.2536 32.0872 0.0000 0.0000 0.0000
# 2 48.2536 139.1151 31.7449 0.0000 0.0000 0.0000
# 3 32.0872 31.7449 72.4182 0.0000 0.0000 0.0000
# 4 0.0000 0.0000 0.0000 47.9473 0.0000 0.0000
# 5 0.0000 0.0000 0.0000 0.0000 -49.1292 0.0000
# 6 0.0000 0.0000 0.0000 0.0000 0.0000 50.9513
#
#
#
# Elastic Compliance Matrix: (Units=1/GPa)
#
#
# Indices 1 2 3 4 5 6 
#
# 1 0.007997 -0.002184 -0.002586 0.000000 0.000000 0.000000
# 2 -0.002184 0.008584 -0.002795 0.000000 0.000000 0.000000
# 3 -0.002586 -0.002795 0.016180 0.000000 0.000000 0.000000
# 4 0.000000 0.000000 0.000000 0.020856 0.000000 0.000000
# 5 0.000000 0.000000 0.000000 0.000000 -0.020354 0.000000
# 6 0.000000 0.000000 0.000000 0.000000 0.000000 0.019627
#
#
# Mechanical properties :
#
#
# Convention : Reuss Voigt Hill
#
# Bulk Modulus (GPa) = 56.71992 64.92339 60.82165
# Shear Modulus (GPa) = 67.66410 26.49076 47.07743
#
# Velocity S-wave (km/s) = 5.59786 3.50260 4.66927
# Velocity P-wave (km/s) = 8.24918 6.81354 7.56549
#
# Compressibility (1/GPa) = 0.01763049
#
# Stress axis : x y z
#
# Youngs Moduli (GPa) = 125.05284 116.50221 61.80575
#
# Poissons Ratio (x) = 0.25440 0.15983
# Poissons Ratio (y) = 0.27307 0.17275
# Poissons Ratio (z) = 0.32338 0.32564
#
# Static dielectric constant tensor:
#      x y z
#    x 1.915650 0.000000 0.000000 
#    y 0.000000 1.934100 0.000000 
#    z 0.000000 0.000000 1.817410 
# 
# From -- ./inp_files/32714.got.cif
#   From: 2010.05.17/outbox.cif.g08.bks.cpg/sg52_17_cif.got.tgz:32714.got - 2010.06.03 12:15:38.
