data_PCOD9412360
_publ_section_title
;
Structure prediction by ZEFSAII (Michael W. Deem and Ramdas Pophale) SiO2 
 PCOD9412360
Probable space group: P N N A
;
_chemical_formula_sum "Si O2"
_cell_formula_units_Z 32
_cell_length_a 28.725450
_cell_length_b 8.919397
_cell_length_c 5.530475
_cell_angle_alpha 90.000000
_cell_angle_beta 90.000000
_cell_angle_gamma 90.000000
_cell_volume 1416.983421
_symmetry_space_group_name_H-M "P N N A"
_symmetry_group_IT_number 52
_symmetry_cell_setting 'orthorhombic'
loop_
_space_group_symop_operation_xyz
x,y,z
1/2-x,-y,z
x,1/2-y,1/2-z
1/2-x,1/2+y,1/2-z
-x,-y,-z
1/2+x,y,-z
-x,1/2+y,1/2+z
1/2+x,1/2-y,1/2+z
loop_
_atom_site_type_symbol
_atom_site_label
_atom_site_fract_x
_atom_site_fract_y
_atom_site_fract_z
Si Si1 0.353127 0.750000 0.250000
Si Si2 0.019899 0.070071 0.746257
Si Si3 0.144049 0.750000 0.250000
Si Si4 0.304851 0.995285 0.556642
Si Si5 0.884497 0.493592 0.424940
O O1 0.320806 0.659699 0.064874
O O2 0.384294 0.628668 0.385177
O O3 0.014075 0.250000 0.750000
O O4 0.074687 0.027818 0.741726
O O5 0.000000 0.000000 0.500000
O O6 0.000000 0.000000 0.000000
O O7 0.176310 0.871452 0.384563
O O8 0.111721 0.662937 0.438493
O O9 0.250000 0.000000 0.591025
O O10 0.334002 0.009451 0.801548
#
# Coordination Sequence:
#
# PCOD9412360 Si02
#       5
#     4   8   4   8   8
#     4  10  23  42  70  98 138 192 240 296 371 446
#     4  12  30  51  82 116 154 200 258 321 392 464
#     4  10  25  42  70 102 144 190 246 302 377 442
#     4  11  23  41  67 102 144 189 243 303 371 446
#     4  11  26  46  73 100 145 187 247 303 377 447
#
# _framework density 22.583186000000001
#
# number of rings (size 3 to 8) (size 9 to 14) (size 15 to 20)
#    0.000    1.000    0.000    4.500   12.250   10.000 
#    0.000    0.000    0.000    0.000    0.000    0.000 
#    0.000    0.000    0.000    0.000    0.000    0.000 
#
# Total GULP energy -179255.837572 kJ/mol
# GULP energy per Si atom -5601.744924 kJ/mol
# Density = 2.253179 g / cm^3
# Si number density = 22.583186 Si / 1000 Ang^3
#
#
#
# Elastic Constant Matrix: (Units=GPa)
#
#
# Indices 1 2 3 4 5 6 
#
# 1 104.6126 33.8612 31.3795 0.0000 0.0000 0.0000
# 2 33.8612 153.9225 56.7117 0.0000 0.0000 0.0000
# 3 31.3795 56.7117 115.2070 0.0000 0.0000 0.0000
# 4 0.0000 0.0000 0.0000 23.6976 0.0000 0.0000
# 5 0.0000 0.0000 0.0000 0.0000 31.2694 0.0000
# 6 0.0000 0.0000 0.0000 0.0000 0.0000 6.3535
#
#
#
# Elastic Compliance Matrix: (Units=1/GPa)
#
#
# Indices 1 2 3 4 5 6 
#
# 1 0.010710 -0.001565 -0.002147 0.000000 0.000000 0.000000
# 2 -0.001565 0.008165 -0.003593 0.000000 0.000000 0.000000
# 3 -0.002147 -0.003593 0.011033 0.000000 0.000000 0.000000
# 4 0.000000 0.000000 0.000000 0.042198 0.000000 0.000000
# 5 0.000000 0.000000 0.000000 0.000000 0.031980 0.000000
# 6 0.000000 0.000000 0.000000 0.000000 0.000000 0.157393
#
#
# Mechanical properties :
#
#
# Convention : Reuss Voigt Hill
#
# Bulk Modulus (GPa) = 65.36562 68.62743 66.99652
# Shear Modulus (GPa) = 17.78169 29.05009 23.41589
#
# Velocity S-wave (km/s) = 2.80908 3.59048 3.22354
# Velocity P-wave (km/s) = 6.28717 6.90242 6.60196
#
# Compressibility (1/GPa) = 0.01529856
#
# Stress axis : x y z
#
# Youngs Moduli (GPa) = 93.37454 122.47588 90.63425
#
# Poissons Ratio (x) = 0.19169 0.19455
# Poissons Ratio (y) = 0.14614 0.32564
# Poissons Ratio (z) = 0.20044 0.44005
#
# Static dielectric constant tensor:
#      x y z
#    x 1.812490 0.000000 0.000000 
#    y 0.000000 1.816980 0.000000 
#    z 0.000000 0.000000 1.821500 
# 
# From -- ./inp_files/6170.got.cif
#   From: 2010.05.17/outbox.cif.g08.bks.cpg/sg52_4_cif.got.tgz:6170.got - 2010.06.03 12:15:38.
