data_PCOD9412926
_publ_section_title
;
Structure prediction by ZEFSAII (Michael W. Deem and Ramdas Pophale) SiO2 
 PCOD9412926
Probable space group: P N N A
;
_chemical_formula_sum "Si O2"
_cell_formula_units_Z 32
_cell_length_a 30.310329
_cell_length_b 8.149782
_cell_length_c 4.703986
_cell_angle_alpha 90.000000
_cell_angle_beta 90.000000
_cell_angle_gamma 90.000000
_cell_volume 1161.990728
_symmetry_space_group_name_H-M "P N N A"
_symmetry_group_IT_number 52
_symmetry_cell_setting 'orthorhombic'
loop_
_space_group_symop_operation_xyz
x,y,z
1/2-x,-y,z
x,1/2-y,1/2-z
1/2-x,1/2+y,1/2-z
-x,-y,-z
1/2+x,y,-z
-x,1/2+y,1/2+z
1/2+x,1/2-y,1/2+z
loop_
_atom_site_type_symbol
_atom_site_label
_atom_site_fract_x
_atom_site_fract_y
_atom_site_fract_z
Si Si1 0.061666 0.008869 0.135529
Si Si2 0.250000 0.000000 0.379500
Si Si3 0.180806 0.750000 0.250000
Si Si4 0.693550 0.250000 0.250000
Si Si5 0.504372 0.250000 0.250000
Si Si6 0.869336 0.750000 0.750000
Si Si7 0.614265 0.750000 0.250000
O O1 0.029851 0.896089 0.326044
O O2 0.098820 0.098592 0.318831
O O3 0.084455 0.888790 0.903812
O O4 0.034294 0.152975 0.976557
O O5 0.214674 0.899030 0.196250
O O6 0.276431 0.877777 0.583320
O O7 0.148822 0.800776 0.504523
O O8 0.660376 0.310941 0.492769
#
# Coordination Sequence:
#
# PCOD9412926 Si02
#       7
#     8   4   4   4   4   4   4
#     4  11  26  48  78 111 154 198 254 313 380 452
#     4  12  28  52  80 114 156 202 256 318 384 456
#     4  12  28  50  78 113 153 202 255 315 382 454
#     4  12  28  50  78 113 153 202 255 315 382 454
#     4  10  26  48  76 112 152 200 252 312 380 452
#     4  12  27  49  78 113 153 202 255 315 380 453
#     4  12  27  49  78 113 153 202 255 315 380 453
#
# _framework density 27.538944000000001
#
# number of rings (size 3 to 8) (size 9 to 14) (size 15 to 20)
#    0.000    0.500    0.000    6.000    0.000   19.000 
#    0.000    0.000    0.000    0.000    0.000    0.000 
#    0.000    0.000    0.000    0.000    0.000    0.000 
#
# Total GULP energy -179531.510439 kJ/mol
# GULP energy per Si atom -5610.359701 kJ/mol
# Density = 2.747626 g / cm^3
# Si number density = 27.538944 Si / 1000 Ang^3
#
#
#
# Elastic Constant Matrix: (Units=GPa)
#
#
# Indices 1 2 3 4 5 6 
#
# 1 173.2744 105.2272 45.0682 0.0000 0.0000 0.0000
# 2 105.2272 171.2262 38.3566 0.0000 0.0000 0.0000
# 3 45.0682 38.3566 65.9356 0.0000 0.0000 0.0000
# 4 0.0000 0.0000 0.0000 63.9978 0.0000 0.0000
# 5 0.0000 0.0000 0.0000 0.0000 -462.5573 0.0000
# 6 0.0000 0.0000 0.0000 0.0000 0.0000 98.7429
#
#
#
# Elastic Compliance Matrix: (Units=1/GPa)
#
#
# Indices 1 2 3 4 5 6 
#
# 1 0.009945 -0.005277 -0.003728 0.000000 0.000000 0.000000
# 2 -0.005277 0.009515 -0.001928 0.000000 0.000000 0.000000
# 3 -0.003728 -0.001928 0.018836 0.000000 0.000000 0.000000
# 4 0.000000 0.000000 0.000000 0.015626 0.000000 0.000000
# 5 0.000000 0.000000 0.000000 0.000000 -0.002162 0.000000
# 6 0.000000 0.000000 0.000000 0.000000 0.000000 0.010127
#
#
# Mechanical properties :
#
#
# Convention : Reuss Voigt Hill
#
# Bulk Modulus (GPa) = 60.86391 87.52668 74.19530
# Shear Modulus (GPa) = 56.03407 -45.17771 5.42818
#
# Velocity S-wave (km/s) = 4.51568 -4.05471 1.40548
# Velocity P-wave (km/s) = 7.02407 3.15135 5.44374
#
# Compressibility (1/GPa) = 0.01643010
#
# Stress axis : x y z
#
# Youngs Moduli (GPa) = 100.54875 105.09635 53.08862
#
# Poissons Ratio (x) = 0.55457 0.19793
# Poissons Ratio (y) = 0.53058 0.10238
# Poissons Ratio (z) = 0.37487 0.20267
#
# Static dielectric constant tensor:
#      x y z
#    x 2.136260 0.000000 0.000000 
#    y 0.000000 2.147560 0.000000 
#    z 0.000000 0.000000 2.098920 
# 
# From -- ./inp_files/6207.got.cif
#   From: 2010.05.17/outbox.cif.g08.bks.cpg/sg52_4_cif.got.tgz:6207.got - 2010.06.03 12:15:38.
