data_PCOD9412507
_publ_section_title
;
Structure prediction by ZEFSAII (Michael W. Deem and Ramdas Pophale) SiO2 
 PCOD9412507
Probable space group: P N N A
;
_chemical_formula_sum "Si O2"
_cell_formula_units_Z 40
_cell_length_a 19.558814
_cell_length_b 12.326882
_cell_length_c 7.048644
_cell_angle_alpha 90.000000
_cell_angle_beta 90.000000
_cell_angle_gamma 90.000000
_cell_volume 1699.422375
_symmetry_space_group_name_H-M "P N N A"
_symmetry_group_IT_number 52
_symmetry_cell_setting 'orthorhombic'
loop_
_space_group_symop_operation_xyz
x,y,z
1/2-x,-y,z
x,1/2-y,1/2-z
1/2-x,1/2+y,1/2-z
-x,-y,-z
1/2+x,y,-z
-x,1/2+y,1/2+z
1/2+x,1/2-y,1/2+z
loop_
_atom_site_type_symbol
_atom_site_label
_atom_site_fract_x
_atom_site_fract_y
_atom_site_fract_z
Si Si1 0.109226 0.250000 0.750000
Si Si2 0.675047 0.964826 0.612065
Si Si3 0.175553 0.472107 0.669272
Si Si4 0.104018 0.750000 0.250000
Si Si5 0.927772 0.346813 0.369714
Si Si6 0.432782 0.852650 0.361663
O O1 0.155995 0.345963 0.661808
O O2 0.069805 0.184492 0.582353
O O3 0.676717 0.984651 0.386156
O O4 0.652250 0.845117 0.669145
O O5 0.750000 0.000000 0.679611
O O6 0.615142 0.045895 0.673191
O O7 0.250000 0.500000 0.590835
O O8 0.116095 0.547449 0.588555
O O9 0.059543 0.703157 0.423245
O O10 0.891078 0.250000 0.250000
O O11 0.993380 0.128182 0.262888
O O12 0.403405 0.750000 0.250000
#
# Coordination Sequence:
#
# PCOD9412507 Si02
#       6
#     4   8   8   4   8   8
#     4  10  24  45  74 108 137 198 236 296 368 421
#     4  10  24  45  73 110 147 186 244 298 346 437
#     4  10  23  46  76 109 148 189 239 297 359 429
#     4  12  26  45  74 106 143 196 240 292 366 419
#     4  11  25  47  69 106 145 189 240 298 352 427
#     4  10  25  47  68 104 148 183 242 298 353 425
#
# _framework density 23.537410000000001
#
# number of rings (size 3 to 8) (size 9 to 14) (size 15 to 20)
#    0.000    1.600    2.000    0.000    5.600    9.600 
#    3.600    0.000    0.000    0.000    2.600    0.000 
#    0.000    0.000    0.000    0.000    0.000    0.000 
#
# Total GULP energy -223514.264288 kJ/mol
# GULP energy per Si atom -5587.856607 kJ/mol
# Density = 2.348384 g / cm^3
# Si number density = 23.537410 Si / 1000 Ang^3
#
#
#
# Elastic Constant Matrix: (Units=GPa)
#
#
# Indices 1 2 3 4 5 6 
#
# 1 157.4737 87.2651 43.8788 0.0000 0.0000 0.0000
# 2 87.2651 171.3363 18.4427 0.0000 0.0000 0.0000
# 3 43.8788 18.4427 135.7406 0.0000 0.0000 0.0000
# 4 0.0000 0.0000 0.0000 31.8396 0.0000 0.0000
# 5 0.0000 0.0000 0.0000 0.0000 38.1870 0.0000
# 6 0.0000 0.0000 0.0000 0.0000 0.0000 -32.8832
#
#
#
# Elastic Compliance Matrix: (Units=1/GPa)
#
#
# Indices 1 2 3 4 5 6 
#
# 1 0.009603 -0.004624 -0.002476 0.000000 0.000000 0.000000
# 2 -0.004624 0.008150 0.000388 0.000000 0.000000 0.000000
# 3 -0.002476 0.000388 0.008115 0.000000 0.000000 0.000000
# 4 0.000000 0.000000 0.000000 0.031407 0.000000 0.000000
# 5 0.000000 0.000000 0.000000 0.000000 0.026187 0.000000
# 6 0.000000 0.000000 0.000000 0.000000 0.000000 -0.030411
#
#
# Mechanical properties :
#
#
# Convention : Reuss Voigt Hill
#
# Bulk Modulus (GPa) = 80.37230 84.85822 82.61526
# Shear Modulus (GPa) = 70.79747 28.42627 49.61187
#
# Velocity S-wave (km/s) = 5.49036 3.47898 4.59605
# Velocity P-wave (km/s) = 8.62628 7.22969 7.95868
#
# Compressibility (1/GPa) = 0.01244210
#
# Stress axis : x y z
#
# Youngs Moduli (GPa) = 104.13645 122.69843 123.23365
#
# Poissons Ratio (x) = 0.56741 0.30511
# Poissons Ratio (y) = 0.48157 -0.04776
# Poissons Ratio (z) = 0.25783 -0.04755
#
# Static dielectric constant tensor:
#      x y z
#    x 1.918400 0.000000 0.000000 
#    y 0.000000 1.823610 0.000000 
#    z 0.000000 0.000000 1.990990 
# 
# From -- ./inp_files/11705.got.cif
#   From: 2010.05.17/outbox.cif.g08.bks.cpg/sg52_6_cif.got.tgz:11705.got - 2010.06.03 12:15:38.
