data_PCOD9412778
_publ_section_title
;
Structure prediction by ZEFSAII (Michael W. Deem and Ramdas Pophale) SiO2 
 PCOD9412778
Probable space group: P N N A
;
_chemical_formula_sum "Si O2"
_cell_formula_units_Z 24
_cell_length_a 10.358910
_cell_length_b 18.299560
_cell_length_c 4.669283
_cell_angle_alpha 90.000000
_cell_angle_beta 90.000000
_cell_angle_gamma 90.000000
_cell_volume 885.125605
_symmetry_space_group_name_H-M "P N N A"
_symmetry_group_IT_number 52
_symmetry_cell_setting 'orthorhombic'
loop_
_space_group_symop_operation_xyz
x,y,z
1/2-x,-y,z
x,1/2-y,1/2-z
1/2-x,1/2+y,1/2-z
-x,-y,-z
1/2+x,y,-z
-x,1/2+y,1/2+z
1/2+x,1/2-y,1/2+z
loop_
_atom_site_type_symbol
_atom_site_label
_atom_site_fract_x
_atom_site_fract_y
_atom_site_fract_z
Si Si1 0.768840 0.578747 0.634115
Si Si2 0.614139 0.196239 0.508629
Si Si3 0.536714 0.569748 0.194272
O O1 0.750000 0.500000 0.784688
O O2 0.829927 0.422092 0.369769
O O3 0.921679 0.574983 0.565678
O O4 0.771153 0.648282 0.844628
O O5 0.649451 0.250000 0.250000
O O6 0.500433 0.137175 0.485873
O O7 0.564281 0.250000 0.750000
O O8 0.500000 0.500000 0.000000
#
# Coordination Sequence:
#
# PCOD9412778 Si02
#       3
#     8   8   8
#     4  10  24  47  88 130 178 237 308 368 462 555
#     4  10  26  51  86 121 181 240 301 373 469 539
#     4  10  25  49  92 127 184 245 306 377 469 557
#
# _framework density 27.114795999999998
#
# number of rings (size 3 to 8) (size 9 to 14) (size 15 to 20)
#    2.000    0.000    0.000    1.000    4.667    4.000 
#    0.000    8.333    7.333    2.000    0.000    0.000 
#    0.000    0.000    0.000    0.000    0.000    0.000 
#
# Total GULP energy -133671.424044 kJ/mol
# GULP energy per Si atom -5569.642669 kJ/mol
# Density = 2.705308 g / cm^3
# Si number density = 27.114796 Si / 1000 Ang^3
#
#
#
# Elastic Constant Matrix: (Units=GPa)
#
#
# Indices 1 2 3 4 5 6 
#
# 1 192.4027 31.6863 101.5758 0.0000 0.0000 0.0000
# 2 31.6863 262.9818 109.4824 0.0000 0.0000 0.0000
# 3 101.5758 109.4824 190.4157 0.0000 0.0000 0.0000
# 4 0.0000 0.0000 0.0000 66.3000 0.0000 0.0000
# 5 0.0000 0.0000 0.0000 0.0000 24.5465 0.0000
# 6 0.0000 0.0000 0.0000 0.0000 0.0000 -34.4017
#
#
#
# Elastic Compliance Matrix: (Units=1/GPa)
#
#
# Indices 1 2 3 4 5 6 
#
# 1 0.007427 0.000992 -0.004532 0.000000 0.000000 0.000000
# 2 0.000992 0.005132 -0.003480 0.000000 0.000000 0.000000
# 3 -0.004532 -0.003480 0.009670 0.000000 0.000000 0.000000
# 4 0.000000 0.000000 0.000000 0.015083 0.000000 0.000000
# 5 0.000000 0.000000 0.000000 0.000000 0.040739 0.000000
# 6 0.000000 0.000000 0.000000 0.000000 0.000000 -0.029068
#
#
# Mechanical properties :
#
#
# Convention : Reuss Voigt Hill
#
# Bulk Modulus (GPa) = 122.11910 125.69881 123.90895
# Shear Modulus (GPa) = 76.04444 38.15932 57.10188
#
# Velocity S-wave (km/s) = 5.30153 3.75550 4.59402
# Velocity P-wave (km/s) = 9.08904 8.07860 8.59867
#
# Compressibility (1/GPa) = 0.00818873
#
# Stress axis : x y z
#
# Youngs Moduli (GPa) = 134.64961 194.86910 103.41352
#
# Poissons Ratio (x) = -0.19329 0.46867
# Poissons Ratio (y) = -0.13356 0.35984
# Poissons Ratio (z) = 0.61023 0.67808
#
# Static dielectric constant tensor:
#      x y z
#    x 2.233600 0.000000 0.000000 
#    y 0.000000 2.112420 0.000000 
#    z 0.000000 0.000000 1.847790 
# 
# From -- ./inp_files/1699.got.cif
#   From: 2010.05.17/outbox.cif.g08.bks.cpg/sg52_1_cif.got.tgz:1699.got - 2010.06.03 12:15:38.
