data_PCOD9412547
_publ_section_title
;
Structure prediction by ZEFSAII (Michael W. Deem and Ramdas Pophale) SiO2 
 PCOD9412547
Probable space group: P N N A
;
_chemical_formula_sum "Si O2"
_cell_formula_units_Z 48
_cell_length_a 16.429751
_cell_length_b 25.228690
_cell_length_c 5.248360
_cell_angle_alpha 90.000000
_cell_angle_beta 90.000000
_cell_angle_gamma 90.000000
_cell_volume 2175.450966
_symmetry_space_group_name_H-M "P N N A"
_symmetry_group_IT_number 52
_symmetry_cell_setting 'orthorhombic'
loop_
_space_group_symop_operation_xyz
x,y,z
1/2-x,-y,z
x,1/2-y,1/2-z
1/2-x,1/2+y,1/2-z
-x,-y,-z
1/2+x,y,-z
-x,1/2+y,1/2+z
1/2+x,1/2-y,1/2+z
loop_
_atom_site_type_symbol
_atom_site_label
_atom_site_fract_x
_atom_site_fract_y
_atom_site_fract_z
Si Si1 0.489125 0.717370 0.006663
Si Si2 0.546313 0.961988 0.693219
Si Si3 0.226765 0.688045 0.700871
Si Si4 0.673973 0.339330 0.795761
Si Si5 0.934078 0.570351 0.589382
Si Si6 0.588006 0.877298 0.378514
O O1 0.520355 0.750000 0.250000
O O2 0.406106 0.692162 0.113159
O O3 0.554771 0.671774 0.957452
O O4 0.474909 0.750000 0.750000
O O5 0.613576 0.924512 0.567527
O O6 0.500000 0.000000 0.500000
O O7 0.580675 0.007027 0.882052
O O8 0.472844 0.926258 0.807947
O O9 0.208267 0.750000 0.750000
O O10 0.281210 0.686198 0.447127
O O11 0.149812 0.648665 0.680598
O O12 0.270561 0.663900 0.953066
O O13 0.641649 0.395613 0.685974
O O14 0.011087 0.595407 0.740843
#
# Coordination Sequence:
#
# PCOD9412547 Si02
#       6
#     8   8   8   8   8   8
#     4  11  23  39  65  99 127 170 234 285 319 391
#     4   9  19  40  69  98 121 159 217 287 341 385
#     4  12  26  44  62  95 142 187 216 265 338 404
#     4  11  25  42  67  92 135 181 220 270 335 399
#     4   9  21  41  72  96 124 166 227 281 334 394
#     4  10  24  38  67  94 133 172 219 277 338 397
#
# _framework density 22.06439
#
# number of rings (size 3 to 8) (size 9 to 14) (size 15 to 20)
#    0.000    1.667    0.000    3.500   14.000    1.333 
#    0.000    0.833    0.000    0.000    0.000    0.000 
#    0.000    0.000    0.000    0.000    0.000    0.000 
#
# Total GULP energy -267518.134472 kJ/mol
# GULP energy per Si atom -5573.294468 kJ/mol
# Density = 2.201417 g / cm^3
# Si number density = 22.064390 Si / 1000 Ang^3
#
#
#
# Elastic Constant Matrix: (Units=GPa)
#
#
# Indices 1 2 3 4 5 6 
#
# 1 47.1081 27.8783 16.4426 0.0000 0.0000 0.0000
# 2 27.8783 103.8798 36.5736 0.0000 0.0000 0.0000
# 3 16.4426 36.5736 122.9629 0.0000 0.0000 0.0000
# 4 0.0000 0.0000 0.0000 43.4608 0.0000 0.0000
# 5 0.0000 0.0000 0.0000 0.0000 -5.0248 0.0000
# 6 0.0000 0.0000 0.0000 0.0000 0.0000 20.6128
#
#
#
# Elastic Compliance Matrix: (Units=1/GPa)
#
#
# Indices 1 2 3 4 5 6 
#
# 1 0.025492 -0.006301 -0.001535 0.000000 0.000000 0.000000
# 2 -0.006301 0.012310 -0.002819 0.000000 0.000000 0.000000
# 3 -0.001535 -0.002819 0.009176 0.000000 0.000000 0.000000
# 4 0.000000 0.000000 0.000000 0.023009 0.000000 0.000000
# 5 0.000000 0.000000 0.000000 0.000000 -0.199014 0.000000
# 6 0.000000 0.000000 0.000000 0.000000 0.000000 0.048513
#
#
# Mechanical properties :
#
#
# Convention : Reuss Voigt Hill
#
# Bulk Modulus (GPa) = 38.95703 48.41555 43.68629
# Shear Modulus (GPa) = -98.72238 24.68020 -37.02109
#
# Velocity S-wave (km/s) = -6.69627 3.34811 -4.10062
# Velocity P-wave (km/s) = 6.48785 6.07757 1.60551
#
# Compressibility (1/GPa) = 0.02566931
#
# Stress axis : x y z
#
# Youngs Moduli (GPa) = 39.22746 81.23488 108.97782
#
# Poissons Ratio (x) = 0.51187 0.16725
# Poissons Ratio (y) = 0.24717 0.30719
# Poissons Ratio (z) = 0.06020 0.22899
#
# Static dielectric constant tensor:
#      x y z
#    x 1.856150 0.000000 0.000000 
#    y 0.000000 1.978260 0.000000 
#    z 0.000000 0.000000 1.977300 
# 
# From -- ./inp_files/3456.got.cif
#   From: 2010.05.17/outbox.cif.g08.bks.cpg/sg52_2_cif.got.tgz:3456.got - 2010.06.03 12:15:38.
