data_PCOD9412154
_publ_section_title
;
Structure prediction by ZEFSAII (Michael W. Deem and Ramdas Pophale) SiO2 
 PCOD9412154
Probable space group: P N N A
;
_chemical_formula_sum "Si O2"
_cell_formula_units_Z 32
_cell_length_a 7.229007
_cell_length_b 24.817992
_cell_length_c 6.961645
_cell_angle_alpha 90.000000
_cell_angle_beta 90.000000
_cell_angle_gamma 90.000000
_cell_volume 1248.984816
_symmetry_space_group_name_H-M "P N N A"
_symmetry_group_IT_number 52
_symmetry_cell_setting 'orthorhombic'
loop_
_space_group_symop_operation_xyz
x,y,z
1/2-x,-y,z
x,1/2-y,1/2-z
1/2-x,1/2+y,1/2-z
-x,-y,-z
1/2+x,y,-z
-x,1/2+y,1/2+z
1/2+x,1/2-y,1/2+z
loop_
_atom_site_type_symbol
_atom_site_label
_atom_site_fract_x
_atom_site_fract_y
_atom_site_fract_z
Si Si1 0.250000 0.000000 0.867902
Si Si2 0.844092 0.750000 0.250000
Si Si3 0.459529 0.174866 0.812652
Si Si4 0.336217 0.330152 0.108327
Si Si5 0.970097 0.417625 0.633551
O O1 0.125747 0.045049 0.766915
O O2 0.361992 0.039380 0.008000
O O3 0.690235 0.780125 0.113135
O O4 0.988131 0.706837 0.165151
O O5 0.346305 0.158511 0.619839
O O6 0.651964 0.191755 0.712923
O O7 0.505960 0.130893 0.976635
O O8 0.358148 0.388282 0.203675
#
# Coordination Sequence:
#
# PCOD9412154 Si02
#       5
#     4   4   8   8   8
#     4  10  22  44  78 104 132 190 246 304 376 420
#     4  12  28  42  70 106 142 194 248 292 352 434
#     4  12  27  47  71 106 148 193 244 298 361 440
#     4  12  27  47  71 106 148 193 244 298 361 440
#     4  11  24  48  74 102 146 186 244 311 360 428
#
# _framework density 25.620806000000002
#
# number of rings (size 3 to 8) (size 9 to 14) (size 15 to 20)
#    0.000    0.500    5.000    2.250    3.500    0.000 
#    0.000    7.500    0.000    0.000    0.000    0.000 
#    0.000    0.000    0.000    0.000    0.000    0.000 
#
# Total GULP energy -178275.702649 kJ/mol
# GULP energy per Si atom -5571.115708 kJ/mol
# Density = 2.556249 g / cm^3
# Si number density = 25.620806 Si / 1000 Ang^3
#
#
#
# Elastic Constant Matrix: (Units=GPa)
#
#
# Indices 1 2 3 4 5 6 
#
# 1 125.2416 26.8091 2.4623 0.0000 0.0000 0.0000
# 2 26.8091 104.5828 10.3338 0.0000 0.0000 0.0000
# 3 2.4623 10.3338 93.5749 0.0000 0.0000 0.0000
# 4 0.0000 0.0000 0.0000 54.3193 0.0000 0.0000
# 5 0.0000 0.0000 0.0000 0.0000 15.2704 0.0000
# 6 0.0000 0.0000 0.0000 0.0000 0.0000 47.3176
#
#
#
# Elastic Compliance Matrix: (Units=1/GPa)
#
#
# Indices 1 2 3 4 5 6 
#
# 1 0.008448 -0.002167 0.000017 0.000000 0.000000 0.000000
# 2 -0.002167 0.010223 -0.001072 0.000000 0.000000 0.000000
# 3 0.000017 -0.001072 0.010805 0.000000 0.000000 0.000000
# 4 0.000000 0.000000 0.000000 0.018410 0.000000 0.000000
# 5 0.000000 0.000000 0.000000 0.000000 0.065486 0.000000
# 6 0.000000 0.000000 0.000000 0.000000 0.000000 0.021134
#
#
# Mechanical properties :
#
#
# Convention : Reuss Voigt Hill
#
# Bulk Modulus (GPa) = 43.41870 44.73442 44.07656
# Shear Modulus (GPa) = 33.64118 42.30106 37.97112
#
# Velocity S-wave (km/s) = 3.62752 4.06771 3.85391
# Velocity P-wave (km/s) = 5.87611 6.28966 6.08640
#
# Compressibility (1/GPa) = 0.02303155
#
# Stress axis : x y z
#
# Youngs Moduli (GPa) = 118.36890 97.81574 92.55352
#
# Poissons Ratio (x) = 0.21200 -0.00158
# Poissons Ratio (y) = 0.25654 0.09921
# Poissons Ratio (z) = -0.00202 0.10485
#
# Static dielectric constant tensor:
#      x y z
#    x 2.206970 0.000000 0.000000 
#    y 0.000000 2.102280 0.000000 
#    z 0.000000 0.000000 2.078550 
# 
# From -- ./inp_files/7372.got.cif
#   From: 2010.05.17/outbox.cif.g08.bks.cpg/sg52_4_cif.got.tgz:7372.got - 2010.06.03 12:15:38.
