data_PCOD9412077
_publ_section_title
;
Structure prediction by ZEFSAII (Michael W. Deem and Ramdas Pophale) SiO2 
 PCOD9412077
Probable space group: P N N A
;
_chemical_formula_sum "Si O2"
_cell_formula_units_Z 32
_cell_length_a 8.262048
_cell_length_b 5.078938
_cell_length_c 30.008941
_cell_angle_alpha 90.000000
_cell_angle_beta 90.000000
_cell_angle_gamma 90.000000
_cell_volume 1259.248072
_symmetry_space_group_name_H-M "P N N A"
_symmetry_group_IT_number 52
_symmetry_cell_setting 'orthorhombic'
loop_
_space_group_symop_operation_xyz
x,y,z
1/2-x,-y,z
x,1/2-y,1/2-z
1/2-x,1/2+y,1/2-z
-x,-y,-z
1/2+x,y,-z
-x,1/2+y,1/2+z
1/2+x,1/2-y,1/2+z
loop_
_atom_site_type_symbol
_atom_site_label
_atom_site_fract_x
_atom_site_fract_y
_atom_site_fract_z
Si Si1 0.979500 0.240766 0.436462
Si Si2 0.484067 0.250000 0.250000
Si Si3 0.250000 0.500000 0.000813
Si Si4 0.750000 0.500000 0.823054
Si Si5 0.750000 0.000000 0.366715
Si Si6 0.750000 0.500000 0.612428
Si Si7 0.250000 0.500000 0.696025
O O1 0.824226 0.231608 0.469618
O O2 0.082331 0.487149 0.416667
O O3 0.906584 0.063509 0.396740
O O4 0.113092 0.102978 0.466589
O O5 0.384872 0.395326 0.211394
O O6 0.595397 0.470692 0.272751
O O7 0.771019 0.747551 0.855977
O O8 0.762576 0.749116 0.335649
#
# Coordination Sequence:
#
# PCOD9412077 Si02
#       7
#     8   4   4   4   4   4   4
#     4  10  22  43  72 105 147 191 245 302 368 440
#     4  12  28  50  76 108 150 194 250 312 380 454
#     4   9  21  44  71 107 146 194 244 303 369 442
#     4  12  28  48  75 108 146 194 248 308 377 448
#     4  11  25  46  73 104 144 192 242 302 367 442
#     4  12  25  44  73 107 144 192 246 307 371 444
#     4  12  27  48  74 106 144 192 244 304 374 444
#
# _framework density 25.411992000000001
#
# number of rings (size 3 to 8) (size 9 to 14) (size 15 to 20)
#    0.000    1.000    0.000    5.250    0.000   10.000 
#    0.000    8.750    0.000    0.000    0.000    0.000 
#    0.000    0.000    0.000    0.000    0.000    0.000 
#
# Total GULP energy -179048.656002 kJ/mol
# GULP energy per Si atom -5595.270500 kJ/mol
# Density = 2.535415 g / cm^3
# Si number density = 25.411992 Si / 1000 Ang^3
#
#
#
# Elastic Constant Matrix: (Units=GPa)
#
#
# Indices 1 2 3 4 5 6 
#
# 1 166.1033 60.6235 79.3146 0.0000 0.0000 0.0000
# 2 60.6235 161.9266 70.7744 0.0000 0.0000 0.0000
# 3 79.3146 70.7744 151.9741 0.0000 0.0000 0.0000
# 4 0.0000 0.0000 0.0000 26.2476 0.0000 0.0000
# 5 0.0000 0.0000 0.0000 0.0000 63.1680 0.0000
# 6 0.0000 0.0000 0.0000 0.0000 0.0000 46.8195
#
#
#
# Elastic Compliance Matrix: (Units=1/GPa)
#
#
# Indices 1 2 3 4 5 6 
#
# 1 0.008308 -0.001526 -0.003626 0.000000 0.000000 0.000000
# 2 -0.001526 0.008034 -0.002945 0.000000 0.000000 0.000000
# 3 -0.003626 -0.002945 0.009844 0.000000 0.000000 0.000000
# 4 0.000000 0.000000 0.000000 0.038099 0.000000 0.000000
# 5 0.000000 0.000000 0.000000 0.000000 0.015831 0.000000
# 6 0.000000 0.000000 0.000000 0.000000 0.000000 0.021359
#
#
# Mechanical properties :
#
#
# Convention : Reuss Voigt Hill
#
# Bulk Modulus (GPa) = 100.06805 100.15878 100.11342
# Shear Modulus (GPa) = 41.32268 45.19977 43.26123
#
# Velocity S-wave (km/s) = 4.03688 4.22201 4.13048
# Velocity P-wave (km/s) = 7.82255 7.95404 7.88857
#
# Compressibility (1/GPa) = 0.00999320
#
# Stress axis : x y z
#
# Youngs Moduli (GPa) = 120.35900 124.46802 101.58726
#
# Poissons Ratio (x) = 0.18993 0.36831
# Poissons Ratio (y) = 0.18366 0.29919
# Poissons Ratio (z) = 0.43636 0.36657
#
# Static dielectric constant tensor:
#      x y z
#    x 2.106340 0.000000 0.000000 
#    y 0.000000 1.972030 0.000000 
#    z 0.000000 0.000000 2.013780 
# 
# From -- ./inp_files/44106.got.cif
#   From: 2010.05.17/outbox.cif.g08.bks.cpg/sg52_23_cif.got.tgz:44106.got - 2010.06.03 12:15:38.
