data_PCOD9412502
_publ_section_title
;
Structure prediction by ZEFSAII (Michael W. Deem and Ramdas Pophale) SiO2 
 PCOD9412502
Probable space group: P N N A
;
_chemical_formula_sum "Si O2"
_cell_formula_units_Z 44
_cell_length_a 10.669092
_cell_length_b 17.642908
_cell_length_c 9.560418
_cell_angle_alpha 90.000000
_cell_angle_beta 90.000000
_cell_angle_gamma 90.000000
_cell_volume 1799.593892
_symmetry_space_group_name_H-M "P N N A"
_symmetry_group_IT_number 52
_symmetry_cell_setting 'orthorhombic'
loop_
_space_group_symop_operation_xyz
x,y,z
1/2-x,-y,z
x,1/2-y,1/2-z
1/2-x,1/2+y,1/2-z
-x,-y,-z
1/2+x,y,-z
-x,1/2+y,1/2+z
1/2+x,1/2-y,1/2+z
loop_
_atom_site_type_symbol
_atom_site_label
_atom_site_fract_x
_atom_site_fract_y
_atom_site_fract_z
Si Si1 0.947705 0.250000 0.750000
Si Si2 0.422305 0.615151 0.204912
Si Si3 0.211710 0.606064 0.798067
Si Si4 0.750000 0.500000 0.947657
Si Si5 0.157690 0.232272 0.537668
Si Si6 0.706095 0.862772 0.899104
Si Si7 0.750000 0.500000 0.437284
O O1 0.865878 0.173017 0.765755
O O2 0.030186 0.258166 0.610864
O O3 0.567766 0.616198 0.241895
O O4 0.362483 0.538681 0.137944
O O5 0.346955 0.622937 0.347151
O O6 0.383894 0.682889 0.097945
O O7 0.284233 0.679350 0.843471
O O8 0.292513 0.562013 0.679722
O O9 0.198572 0.561674 0.944816
O O10 0.265469 0.293078 0.502594
O O11 0.667452 0.943641 0.965005
#
# Coordination Sequence:
#
# PCOD9412502 Si02
#       7
#     4   8   8   4   8   8   4
#     4  12  26  48  76 100 146 190 244 306 364 436
#     4  11  22  42  72 103 145 190 240 298 361 441
#     4  10  23  46  71 105 141 190 246 297 366 433
#     4   9  21  40  66 108 145 191 236 292 370 435
#     4  11  24  47  73 104 141 193 248 298 363 442
#     4  12  26  49  69 111 143 191 243 299 377 434
#     4  11  27  48  70 108 147 183 242 302 370 431
#
# _framework density 24.449959
#
# number of rings (size 3 to 8) (size 9 to 14) (size 15 to 20)
#    0.000    1.091    1.818    3.273    5.091    0.727 
#   19.636    0.000    0.000    0.000    0.000    0.000 
#    0.000    0.000    0.000    0.000    0.000    0.000 
#
# Total GULP energy -245407.825711 kJ/mol
# GULP energy per Si atom -5577.450584 kJ/mol
# Density = 2.439431 g / cm^3
# Si number density = 24.449959 Si / 1000 Ang^3
#
#
#
# Elastic Constant Matrix: (Units=GPa)
#
#
# Indices 1 2 3 4 5 6 
#
# 1 91.4326 6.9586 3.7243 0.0000 0.0000 0.0000
# 2 6.9586 99.7412 16.3575 0.0000 0.0000 0.0000
# 3 3.7243 16.3575 66.6549 0.0000 0.0000 0.0000
# 4 0.0000 0.0000 0.0000 51.3579 0.0000 0.0000
# 5 0.0000 0.0000 0.0000 0.0000 -9.6270 0.0000
# 6 0.0000 0.0000 0.0000 0.0000 0.0000 13.2957
#
#
#
# Elastic Compliance Matrix: (Units=1/GPa)
#
#
# Indices 1 2 3 4 5 6 
#
# 1 0.011008 -0.000695 -0.000444 0.000000 0.000000 0.000000
# 2 -0.000695 0.010490 -0.002536 0.000000 0.000000 0.000000
# 3 -0.000444 -0.002536 0.015650 0.000000 0.000000 0.000000
# 4 0.000000 0.000000 0.000000 0.019471 0.000000 0.000000
# 5 0.000000 0.000000 0.000000 0.000000 -0.103875 0.000000
# 6 0.000000 0.000000 0.000000 0.000000 0.000000 0.075212
#
#
# Mechanical properties :
#
#
# Convention : Reuss Voigt Hill
#
# Bulk Modulus (GPa) = 33.55956 34.65662 34.10809
# Shear Modulus (GPa) = 110.52320 26.39121 68.45721
#
# Velocity S-wave (km/s) = 6.73067 3.28898 5.29714
# Velocity P-wave (km/s) = 8.61152 5.35056 7.16892
#
# Compressibility (1/GPa) = 0.02979776
#
# Stress axis : x y z
#
# Youngs Moduli (GPa) = 90.84282 95.32646 63.89893
#
# Poissons Ratio (x) = 0.06626 0.02840
# Poissons Ratio (y) = 0.06314 0.16202
# Poissons Ratio (z) = 0.04038 0.24170
#
# Static dielectric constant tensor:
#      x y z
#    x 1.941720 0.000000 0.000000 
#    y 0.000000 2.124460 0.000000 
#    z 0.000000 0.000000 1.963580 
# 
# From -- ./inp_files/18167.got.cif
#   From: 2010.05.17/outbox.cif.g08.bks.cpg/sg52_10_cif.got.tgz:18167.got - 2010.06.03 12:15:38.
