data_PCOD9412518
_publ_section_title
;
Structure prediction by ZEFSAII (Michael W. Deem and Ramdas Pophale) SiO2 
 PCOD9412518
Probable space group: P N N A
;
_chemical_formula_sum "Si O2"
_cell_formula_units_Z 40
_cell_length_a 22.644382
_cell_length_b 8.573717
_cell_length_c 9.318442
_cell_angle_alpha 90.000000
_cell_angle_beta 90.000000
_cell_angle_gamma 90.000000
_cell_volume 1809.143113
_symmetry_space_group_name_H-M "P N N A"
_symmetry_group_IT_number 52
_symmetry_cell_setting 'orthorhombic'
loop_
_space_group_symop_operation_xyz
x,y,z
1/2-x,-y,z
x,1/2-y,1/2-z
1/2-x,1/2+y,1/2-z
-x,-y,-z
1/2+x,y,-z
-x,1/2+y,1/2+z
1/2+x,1/2-y,1/2+z
loop_
_atom_site_type_symbol
_atom_site_label
_atom_site_fract_x
_atom_site_fract_y
_atom_site_fract_z
Si Si1 0.665514 0.750000 0.250000
Si Si2 0.951755 0.808953 0.587724
Si Si3 0.750000 0.500000 0.405784
Si Si4 0.750000 0.000000 0.615634
Si Si5 0.663441 0.750000 0.750000
Si Si6 0.328639 0.765589 0.074923
Si Si7 0.418406 0.163776 0.490554
O O1 0.708753 0.618995 0.317070
O O2 0.621472 0.829769 0.366458
O O3 0.957870 0.750000 0.750000
O O4 0.895491 0.721365 0.522996
O O5 0.014779 0.781360 0.516559
O O6 0.929908 0.989747 0.574311
O O7 0.707785 0.404097 0.510507
O O8 0.706394 0.890717 0.707008
O O9 0.793040 0.888592 0.526691
O O10 0.619203 0.730509 0.617789
O O11 0.329361 0.750000 0.250000
#
# Coordination Sequence:
#
# PCOD9412518 Si02
#       7
#     4   8   4   4   4   8   8
#     4  12  30  50  76 108 158 208 232 326 382 474
#     4  10  23  47  75 107 147 199 255 316 369 452
#     4  12  31  49  74 112 163 199 254 304 409 447
#     4  12  23  37  74 110 151 173 260 308 377 413
#     4  12  26  44  76 110 142 204 248 332 358 470
#     4  11  24  44  75 110 140 197 249 320 351 453
#     4  11  25  48  75 106 152 198 255 311 382 451
#
# _framework density 22.109915000000001
#
# number of rings (size 3 to 8) (size 9 to 14) (size 15 to 20)
#    0.000    0.800    4.000    1.800    5.600    0.800 
#    7.200    2.000    0.000    0.000    0.000    0.000 
#    0.000    0.000    0.000    0.000    0.000    0.000 
#
# Total GULP energy -223560.985115 kJ/mol
# GULP energy per Si atom -5589.024628 kJ/mol
# Density = 2.205959 g / cm^3
# Si number density = 22.109915 Si / 1000 Ang^3
#
#
#
# Elastic Constant Matrix: (Units=GPa)
#
#
# Indices 1 2 3 4 5 6 
#
# 1 253.9888 74.7580 62.8347 0.0000 0.0000 0.0000
# 2 74.7580 104.9324 40.7250 0.0000 0.0000 0.0000
# 3 62.8347 40.7250 82.6777 0.0000 0.0000 0.0000
# 4 0.0000 0.0000 0.0000 41.8993 0.0000 0.0000
# 5 0.0000 0.0000 0.0000 0.0000 28.3165 0.0000
# 6 0.0000 0.0000 0.0000 0.0000 0.0000 25.2909
#
#
#
# Elastic Compliance Matrix: (Units=1/GPa)
#
#
# Indices 1 2 3 4 5 6 
#
# 1 0.005446 -0.002811 -0.002754 0.000000 0.000000 0.000000
# 2 -0.002811 0.013233 -0.004382 0.000000 0.000000 0.000000
# 3 -0.002754 -0.004382 0.016347 0.000000 0.000000 0.000000
# 4 0.000000 0.000000 0.000000 0.023867 0.000000 0.000000
# 5 0.000000 0.000000 0.000000 0.000000 0.035315 0.000000
# 6 0.000000 0.000000 0.000000 0.000000 0.000000 0.039540
#
#
# Mechanical properties :
#
#
# Convention : Reuss Voigt Hill
#
# Bulk Modulus (GPa) = 66.08729 88.69272 77.39001
# Shear Modulus (GPa) = 31.50871 36.65343 34.08107
#
# Velocity S-wave (km/s) = 3.77914 4.07600 3.93037
# Velocity P-wave (km/s) = 6.99984 7.89641 7.46160
#
# Compressibility (1/GPa) = 0.01513150
#
# Stress axis : x y z
#
# Youngs Moduli (GPa) = 183.62344 75.56705 61.17369
#
# Poissons Ratio (x) = 0.21241 0.16849
# Poissons Ratio (y) = 0.51615 0.26807
# Poissons Ratio (z) = 0.50575 0.33114
#
# Static dielectric constant tensor:
#      x y z
#    x 1.806820 0.000000 0.000000 
#    y 0.000000 1.892640 0.000000 
#    z 0.000000 0.000000 1.858460 
# 
# From -- ./inp_files/14100.got.cif
#   From: 2010.05.17/outbox.cif.g08.bks.cpg/sg52_8_cif.got.tgz:14100.got - 2010.06.03 12:15:38.
