data_PCOD9412032
_publ_section_title
;
Structure prediction by ZEFSAII (Michael W. Deem and Ramdas Pophale) SiO2 
 PCOD9412032
Probable space group: P N N A
;
_chemical_formula_sum "Si O2"
_cell_formula_units_Z 40
_cell_length_a 8.499561
_cell_length_b 8.662641
_cell_length_c 21.408893
_cell_angle_alpha 90.000000
_cell_angle_beta 90.000000
_cell_angle_gamma 90.000000
_cell_volume 1576.307795
_symmetry_space_group_name_H-M "P N N A"
_symmetry_group_IT_number 52
_symmetry_cell_setting 'orthorhombic'
loop_
_space_group_symop_operation_xyz
x,y,z
1/2-x,-y,z
x,1/2-y,1/2-z
1/2-x,1/2+y,1/2-z
-x,-y,-z
1/2+x,y,-z
-x,1/2+y,1/2+z
1/2+x,1/2-y,1/2+z
loop_
_atom_site_type_symbol
_atom_site_label
_atom_site_fract_x
_atom_site_fract_y
_atom_site_fract_z
Si Si1 0.916285 0.589423 0.316728
Si Si2 0.111366 0.399904 0.215032
Si Si3 0.303347 0.327520 0.859173
Si Si4 0.054591 0.629965 0.451332
Si Si5 0.781112 0.679661 0.008021
O O1 0.750000 0.500000 0.319106
O O2 0.838837 0.759710 0.317551
O O3 0.007857 0.580620 0.382114
O O4 0.024214 0.513780 0.264188
O O5 0.250000 0.500000 0.184127
O O6 0.180793 0.250000 0.250000
O O7 0.972204 0.331004 0.172623
O O8 0.250000 0.500000 0.871067
O O9 0.307995 0.259918 0.928728
O O10 0.958575 0.785886 0.470972
O O11 0.000000 0.500000 0.500000
O O12 0.230407 0.696127 0.456108
O O13 0.750000 0.500000 0.993792
#
# Coordination Sequence:
#
# PCOD9412032 Si02
#       5
#     8   8   8   8   8
#     4  11  23  46  73 101 135 189 242 281 349 441
#     4  12  28  45  70 104 148 180 237 310 368 416
#     4  10  23  44  73 100 135 190 241 285 352 441
#     4  11  22  39  70 101 139 179 235 293 344 413
#     4  10  22  43  67 100 140 186 234 283 352 420
#
# _framework density 25.375755999999999
#
# number of rings (size 3 to 8) (size 9 to 14) (size 15 to 20)
#    0.000    1.200    2.000    4.200    2.800    1.600 
#    0.000    1.000    0.000    0.000    0.000    0.000 
#    0.000    0.000    0.000    0.000    0.000    0.000 
#
# Total GULP energy -223605.595318 kJ/mol
# GULP energy per Si atom -5590.139883 kJ/mol
# Density = 2.531800 g / cm^3
# Si number density = 25.375756 Si / 1000 Ang^3
#
#
#
# Elastic Constant Matrix: (Units=GPa)
#
#
# Indices 1 2 3 4 5 6 
#
# 1 79.8505 14.6941 28.3869 0.0000 0.0000 0.0000
# 2 14.6941 79.2642 -2.6178 0.0000 0.0000 0.0000
# 3 28.3869 -2.6178 76.6289 0.0000 0.0000 0.0000
# 4 0.0000 0.0000 0.0000 20.7538 0.0000 0.0000
# 5 0.0000 0.0000 0.0000 0.0000 39.6753 0.0000
# 6 0.0000 0.0000 0.0000 0.0000 0.0000 55.2772
#
#
#
# Elastic Compliance Matrix: (Units=1/GPa)
#
#
# Indices 1 2 3 4 5 6 
#
# 1 0.015098 -0.002987 -0.005695 0.000000 0.000000 0.000000
# 2 -0.002987 0.013221 0.001558 0.000000 0.000000 0.000000
# 3 -0.005695 0.001558 0.015213 0.000000 0.000000 0.000000
# 4 0.000000 0.000000 0.000000 0.048184 0.000000 0.000000
# 5 0.000000 0.000000 0.000000 0.000000 0.025205 0.000000
# 6 0.000000 0.000000 0.000000 0.000000 0.000000 0.018091
#
#
# Mechanical properties :
#
#
# Convention : Reuss Voigt Hill
#
# Bulk Modulus (GPa) = 34.14795 35.18555 34.66675
# Shear Modulus (GPa) = 31.44266 36.15994 33.80130
#
# Velocity S-wave (km/s) = 3.52388 3.77899 3.65366
# Velocity P-wave (km/s) = 5.48116 5.73907 5.61159
#
# Compressibility (1/GPa) = 0.02928434
#
# Stress axis : x y z
#
# Youngs Moduli (GPa) = 66.23567 75.63599 65.73409
#
# Poissons Ratio (x) = 0.22592 0.37435
# Poissons Ratio (y) = 0.19784 -0.10242
# Poissons Ratio (z) = 0.37721 -0.11785
#
# Static dielectric constant tensor:
#      x y z
#    x 2.084920 0.000000 0.000000 
#    y 0.000000 1.788490 0.000000 
#    z 0.000000 0.000000 2.136090 
# 
# From -- ./inp_files/39240.got.cif
#   From: 2010.05.17/outbox.cif.g08.bks.cpg/sg52_20_cif.got.tgz:39240.got - 2010.06.03 12:15:38.
