data_PCOD9412216
_publ_section_title
;
Structure prediction by ZEFSAII (Michael W. Deem and Ramdas Pophale) SiO2 
 PCOD9412216
Probable space group: P N N A
;
_chemical_formula_sum "Si O2"
_cell_formula_units_Z 44
_cell_length_a 9.629403
_cell_length_b 14.738171
_cell_length_c 10.718868
_cell_angle_alpha 90.000000
_cell_angle_beta 90.000000
_cell_angle_gamma 90.000000
_cell_volume 1521.219475
_symmetry_space_group_name_H-M "P N N A"
_symmetry_group_IT_number 52
_symmetry_cell_setting 'orthorhombic'
loop_
_space_group_symop_operation_xyz
x,y,z
1/2-x,-y,z
x,1/2-y,1/2-z
1/2-x,1/2+y,1/2-z
-x,-y,-z
1/2+x,y,-z
-x,1/2+y,1/2+z
1/2+x,1/2-y,1/2+z
loop_
_atom_site_type_symbol
_atom_site_label
_atom_site_fract_x
_atom_site_fract_y
_atom_site_fract_z
Si Si1 0.881616 0.250000 0.250000
Si Si2 0.041880 0.422846 0.597200
Si Si3 0.146819 0.555344 0.794825
Si Si4 0.131018 0.454998 0.082351
Si Si5 0.947044 0.761229 0.498276
Si Si6 0.156780 0.841477 0.294723
O O1 0.801629 0.343111 0.223757
O O2 0.963155 0.262832 0.379676
O O3 0.134578 0.472257 0.699115
O O4 0.000000 0.500000 0.500000
O O5 0.117415 0.334991 0.539919
O O6 0.907857 0.383892 0.669027
O O7 0.250000 0.500000 0.896779
O O8 0.979126 0.572009 0.805524
O O9 0.197747 0.563764 0.132361
O O10 0.145042 0.348096 0.027137
O O11 0.000000 0.500000 0.000000
O O12 0.042129 0.797934 0.385099
O O13 0.239881 0.750000 0.250000
#
# Coordination Sequence:
#
# PCOD9412216 Si02
#       6
#     4   8   8   8   8   8
#     4  10  22  48  74 110 156 214 262 324 402 494
#     4  11  22  48  78 116 160 206 266 336 411 494
#     4  11  25  48  75 114 158 204 264 331 405 485
#     4  11  24  49  79 114 152 213 267 331 394 497
#     4  10  24  45  76 118 159 209 264 340 407 483
#     4  10  24  46  75 114 156 207 268 330 401 484
#
# _framework density 28.924163
#
# number of rings (size 3 to 8) (size 9 to 14) (size 15 to 20)
#    0.000    1.455    3.636    0.000    5.091    2.182 
#   14.727    0.000    0.000    0.000    0.000    0.000 
#    0.000    0.000    0.000    0.000    0.000    0.000 
#
# Total GULP energy -245255.262262 kJ/mol
# GULP energy per Si atom -5573.983233 kJ/mol
# Density = 2.885833 g / cm^3
# Si number density = 28.924163 Si / 1000 Ang^3
#
#
#
# Elastic Constant Matrix: (Units=GPa)
#
#
# Indices 1 2 3 4 5 6 
#
# 1 123.2847 92.1016 19.1625 0.0000 0.0000 0.0000
# 2 92.1016 342.0839 71.3409 0.0000 0.0000 0.0000
# 3 19.1625 71.3409 105.3376 0.0000 0.0000 0.0000
# 4 0.0000 0.0000 0.0000 37.0513 0.0000 0.0000
# 5 0.0000 0.0000 0.0000 0.0000 23.4919 0.0000
# 6 0.0000 0.0000 0.0000 0.0000 0.0000 60.6711
#
#
#
# Elastic Compliance Matrix: (Units=1/GPa)
#
#
# Indices 1 2 3 4 5 6 
#
# 1 0.010154 -0.002735 0.000005 0.000000 0.000000 0.000000
# 2 -0.002735 0.004141 -0.002307 0.000000 0.000000 0.000000
# 3 0.000005 -0.002307 0.011055 0.000000 0.000000 0.000000
# 4 0.000000 0.000000 0.000000 0.026990 0.000000 0.000000
# 5 0.000000 0.000000 0.000000 0.000000 0.042568 0.000000
# 6 0.000000 0.000000 0.000000 0.000000 0.000000 0.016482
#
#
# Mechanical properties :
#
#
# Convention : Reuss Voigt Hill
#
# Bulk Modulus (GPa) = 65.46271 103.99069 84.72670
# Shear Modulus (GPa) = 39.50897 50.11628 44.81262
#
# Velocity S-wave (km/s) = 3.69989 4.16706 3.94040
# Velocity P-wave (km/s) = 6.39796 7.69308 7.07522
#
# Compressibility (1/GPa) = 0.01527587
#
# Stress axis : x y z
#
# Youngs Moduli (GPa) = 98.48754 241.50877 90.45954
#
# Poissons Ratio (x) = 0.66047 -0.00046
# Poissons Ratio (y) = 0.26934 0.20867
# Poissons Ratio (z) = -0.00050 0.55711
#
# Static dielectric constant tensor:
#      x y z
#    x 2.210330 0.000000 0.000000 
#    y 0.000000 2.266410 0.000000 
#    z 0.000000 0.000000 9.688440 
# 
# From -- ./inp_files/19425.got.cif
#   From: 2010.05.17/outbox.cif.g08.bks.cpg/sg52_10_cif.got.tgz:19425.got - 2010.06.03 12:15:38.
