data_PCOD9412969
_publ_section_title
;
Structure prediction by ZEFSAII (Michael W. Deem and Ramdas Pophale) SiO2 
 PCOD9412969
Probable space group: P N N A
;
_chemical_formula_sum "Si O2"
_cell_formula_units_Z 64
_cell_length_a 9.489506
_cell_length_b 13.323343
_cell_length_c 31.118612
_cell_angle_alpha 90.000000
_cell_angle_beta 90.000000
_cell_angle_gamma 90.000000
_cell_volume 3934.386589
_symmetry_space_group_name_H-M "P N N A"
_symmetry_group_IT_number 52
_symmetry_cell_setting 'orthorhombic'
loop_
_space_group_symop_operation_xyz
x,y,z
1/2-x,-y,z
x,1/2-y,1/2-z
1/2-x,1/2+y,1/2-z
-x,-y,-z
1/2+x,y,-z
-x,1/2+y,1/2+z
1/2+x,1/2-y,1/2+z
loop_
_atom_site_type_symbol
_atom_site_label
_atom_site_fract_x
_atom_site_fract_y
_atom_site_fract_z
Si Si1 0.026994 0.376696 0.862348
Si Si2 0.413528 0.119696 0.540825
Si Si3 0.045364 0.388915 0.131449
Si Si4 0.587478 0.375273 0.042543
Si Si5 0.330349 0.101299 0.779233
Si Si6 0.828375 0.897562 0.776010
Si Si7 0.726763 0.807669 0.685333
Si Si8 0.796859 0.185448 0.314879
O O1 0.020531 0.342858 0.912021
O O2 0.188059 0.363854 0.847741
O O3 0.981215 0.492934 0.862440
O O4 0.936918 0.318052 0.826466
O O5 0.494531 0.145013 0.584692
O O6 0.497517 0.155397 0.498874
O O7 0.251630 0.154837 0.540630
O O8 0.411518 0.997501 0.541290
O O9 0.201770 0.357414 0.143559
O O10 0.951254 0.334177 0.166954
O O11 0.501513 0.093420 0.778430
O O12 0.285031 0.131491 0.730938
O O13 0.283497 0.195685 0.808104
O O14 0.250000 0.000000 0.791495
O O15 0.776245 0.868789 0.727629
O O16 0.776330 0.805190 0.805411
O O17 0.750000 0.000000 0.787958
#
# Coordination Sequence:
#
# PCOD9412969 Si02
#       8
#     8   8   8   8   8   8   8   8
#     4  11  22  31  53  78 103 138 179 211 245 306
#     4   9  18  29  47  66 103 136 169 206 251 299
#     4  11  18  35  51  73 103 145 169 212 254 294
#     4   9  18  31  43  71 100 136 171 205 248 302
#     4  11  23  37  56  74 100 137 174 215 264 302
#     4  11  23  39  53  72 106 135 169 219 265 302
#     4  11  23  36  52  75 104 136 177 212 255 306
#     4  11  21  36  53  75 103 131 181 218 247 297
#
# _framework density 16.266831
#
# number of rings (size 3 to 8) (size 9 to 14) (size 15 to 20)
#    0.000    1.500    3.750    3.000    5.250    1.000 
#    0.000    0.000    0.000    0.000    0.000    0.000 
#    0.000    6.000    0.000    0.000    0.000    0.000 
#
# Total GULP energy -356950.767614 kJ/mol
# GULP energy per Si atom -5577.355744 kJ/mol
# Density = 1.622981 g / cm^3
# Si number density = 16.266831 Si / 1000 Ang^3
#
#
#
# Elastic Constant Matrix: (Units=GPa)
#
#
# Indices 1 2 3 4 5 6 
#
# 1 45.3822 16.6313 8.7858 0.0000 0.0000 0.0000
# 2 16.6313 78.4413 17.9972 0.0000 0.0000 0.0000
# 3 8.7858 17.9972 71.1686 0.0000 0.0000 0.0000
# 4 0.0000 0.0000 0.0000 9.7624 0.0000 0.0000
# 5 0.0000 0.0000 0.0000 0.0000 24.2085 0.0000
# 6 0.0000 0.0000 0.0000 0.0000 0.0000 24.0515
#
#
#
# Elastic Compliance Matrix: (Units=1/GPa)
#
#
# Indices 1 2 3 4 5 6 
#
# 1 0.024104 -0.004701 -0.001787 0.000000 0.000000 0.000000
# 2 -0.004701 0.014450 -0.003074 0.000000 0.000000 0.000000
# 3 -0.001787 -0.003074 0.015049 0.000000 0.000000 0.000000
# 4 0.000000 0.000000 0.000000 0.102433 0.000000 0.000000
# 5 0.000000 0.000000 0.000000 0.000000 0.041308 0.000000
# 6 0.000000 0.000000 0.000000 0.000000 0.000000 0.041577
#
#
# Mechanical properties :
#
#
# Convention : Reuss Voigt Hill
#
# Bulk Modulus (GPa) = 29.00213 31.31341 30.15777
# Shear Modulus (GPa) = 18.55027 21.70967 20.12997
#
# Velocity S-wave (km/s) = 3.38061 3.65718 3.52161
# Velocity P-wave (km/s) = 5.75376 6.09302 5.92582
#
# Compressibility (1/GPa) = 0.03448023
#
# Stress axis : x y z
#
# Youngs Moduli (GPa) = 41.48751 69.20289 66.44924
#
# Poissons Ratio (x) = 0.32529 0.11874
# Poissons Ratio (y) = 0.19501 0.20426
# Poissons Ratio (z) = 0.07414 0.21272
#
# Static dielectric constant tensor:
#      x y z
#    x 1.546930 0.000000 0.000000 
#    y 0.000000 1.531980 0.000000 
#    z 0.000000 0.000000 1.538920 
# 
# From -- ./inp_files/44605.got.cif
#   From: 2010.05.17/outbox.cif.g08.bks.cpg/sg52_23_cif.got.tgz:44605.got - 2010.06.03 12:15:38.
