data_PCOD9412250
_publ_section_title
;
Structure prediction by ZEFSAII (Michael W. Deem and Ramdas Pophale) SiO2 
 PCOD9412250
Probable space group: P N N A
;
_chemical_formula_sum "Si O2"
_cell_formula_units_Z 32
_cell_length_a 11.546312
_cell_length_b 6.967520
_cell_length_c 18.779611
_cell_angle_alpha 90.000000
_cell_angle_beta 90.000000
_cell_angle_gamma 90.000000
_cell_volume 1510.803926
_symmetry_space_group_name_H-M "P N N A"
_symmetry_group_IT_number 52
_symmetry_cell_setting 'orthorhombic'
loop_
_space_group_symop_operation_xyz
x,y,z
1/2-x,-y,z
x,1/2-y,1/2-z
1/2-x,1/2+y,1/2-z
-x,-y,-z
1/2+x,y,-z
-x,1/2+y,1/2+z
1/2+x,1/2-y,1/2+z
loop_
_atom_site_type_symbol
_atom_site_label
_atom_site_fract_x
_atom_site_fract_y
_atom_site_fract_z
Si Si1 0.921339 0.809464 0.332781
Si Si2 0.329619 0.242799 0.665395
Si Si3 0.125295 0.556611 0.069945
Si Si4 0.032513 0.691092 0.541541
O O1 0.942045 0.750000 0.250000
O O2 0.801634 0.705802 0.355940
O O3 0.039568 0.823474 0.377888
O O4 0.873235 0.025303 0.344179
O O5 0.332036 0.250000 0.750000
O O6 0.424256 0.357478 0.620500
O O7 0.250000 0.500000 0.100044
O O8 0.066375 0.354476 0.047012
O O9 0.133659 0.693805 0.000743
O O10 0.000000 0.500000 0.500000
#
# Coordination Sequence:
#
# PCOD9412250 Si02
#       4
#     8   8   8   8
#     4   9  19  37  62  88 119 165 204 256 320 370
#     4   9  19  36  61  92 122 151 207 268 309 367
#     4  10  23  41  59  88 130 166 205 264 322 377
#     4  10  23  39  64  91 123 166 213 260 318 387
#
# _framework density 21.180776999999999
#
# number of rings (size 3 to 8) (size 9 to 14) (size 15 to 20)
#    0.000    2.500    0.000    0.000   14.000    1.000 
#    0.000    5.000    0.000    0.000    0.000    0.000 
#    0.000    0.000    0.000    0.000    0.000    0.000 
#
# Total GULP energy -178165.675045 kJ/mol
# GULP energy per Si atom -5567.677345 kJ/mol
# Density = 2.113257 g / cm^3
# Si number density = 21.180777 Si / 1000 Ang^3
#
#
#
# Elastic Constant Matrix: (Units=GPa)
#
#
# Indices 1 2 3 4 5 6 
#
# 1 110.6502 22.4838 50.6032 0.0000 0.0000 0.0000
# 2 22.4838 97.3847 29.5398 0.0000 0.0000 0.0000
# 3 50.6032 29.5398 76.4459 0.0000 0.0000 0.0000
# 4 0.0000 0.0000 0.0000 38.9269 0.0000 0.0000
# 5 0.0000 0.0000 0.0000 0.0000 103.6194 0.0000
# 6 0.0000 0.0000 0.0000 0.0000 0.0000 22.6599
#
#
#
# Elastic Compliance Matrix: (Units=1/GPa)
#
#
# Indices 1 2 3 4 5 6 
#
# 1 0.012978 -0.000442 -0.008420 0.000000 0.000000 0.000000
# 2 -0.000442 0.011647 -0.004208 0.000000 0.000000 0.000000
# 3 -0.008420 -0.004208 0.020281 0.000000 0.000000 0.000000
# 4 0.000000 0.000000 0.000000 0.025689 0.000000 0.000000
# 5 0.000000 0.000000 0.000000 0.000000 0.009651 0.000000
# 6 0.000000 0.000000 0.000000 0.000000 0.000000 0.044131
#
#
# Mechanical properties :
#
#
# Convention : Reuss Voigt Hill
#
# Bulk Modulus (GPa) = 53.28862 54.41491 53.85176
# Shear Modulus (GPa) = 31.89359 45.16485 38.52922
#
# Velocity S-wave (km/s) = 3.88465 4.62275 4.26968
# Velocity P-wave (km/s) = 6.73307 7.36475 7.05598
#
# Compressibility (1/GPa) = 0.01876573
#
# Stress axis : x y z
#
# Youngs Moduli (GPa) = 77.05367 85.85889 49.30825
#
# Poissons Ratio (x) = 0.03798 0.41517
# Poissons Ratio (y) = 0.03408 0.20748
# Poissons Ratio (z) = 0.64878 0.36128
#
# Static dielectric constant tensor:
#      x y z
#    x 1.789670 0.000000 0.000000 
#    y 0.000000 1.893970 0.000000 
#    z 0.000000 0.000000 2.070020 
# 
# From -- ./inp_files/36424.got.cif
#   From: 2010.05.17/outbox.cif.g08.bks.cpg/sg52_19_cif.got.tgz:36424.got - 2010.06.03 12:15:38.
