data_PCOD9412224
_publ_section_title
;
Structure prediction by ZEFSAII (Michael W. Deem and Ramdas Pophale) SiO2 
 PCOD9412224
Probable space group: P N N A
;
_chemical_formula_sum "Si O2"
_cell_formula_units_Z 40
_cell_length_a 11.757840
_cell_length_b 23.406379
_cell_length_c 6.044554
_cell_angle_alpha 90.000000
_cell_angle_beta 90.000000
_cell_angle_gamma 90.000000
_cell_volume 1663.512393
_symmetry_space_group_name_H-M "P N N A"
_symmetry_group_IT_number 52
_symmetry_cell_setting 'orthorhombic'
loop_
_space_group_symop_operation_xyz
x,y,z
1/2-x,-y,z
x,1/2-y,1/2-z
1/2-x,1/2+y,1/2-z
-x,-y,-z
1/2+x,y,-z
-x,1/2+y,1/2+z
1/2+x,1/2-y,1/2+z
loop_
_atom_site_type_symbol
_atom_site_label
_atom_site_fract_x
_atom_site_fract_y
_atom_site_fract_z
Si Si1 0.250000 0.500000 0.789309
Si Si2 0.526544 0.250000 0.250000
Si Si3 0.236775 0.093604 0.400157
Si Si4 0.130294 0.695092 0.883158
Si Si5 0.584282 0.550721 0.565217
Si Si6 0.565803 0.151358 0.941108
O O1 0.324740 0.458519 0.633623
O O2 0.181590 0.454353 0.941713
O O3 0.439922 0.214743 0.402969
O O4 0.594131 0.293911 0.408161
O O5 0.281242 0.146899 0.544309
O O6 0.339128 0.058537 0.282818
O O7 0.163042 0.121261 0.203252
O O8 0.176389 0.750000 0.750000
O O9 0.032269 0.670661 0.726878
O O10 0.500000 0.500000 0.500000
O O11 0.500499 0.604265 0.579376
#
# Coordination Sequence:
#
# PCOD9412224 Si02
#       6
#     4   4   8   8   8   8
#     4  12  26  44  72 110 148 204 252 304 386 446
#     4  10  22  50  74 100 150 188 248 310 378 444
#     4  12  26  46  75 112 149 201 256 305 382 450
#     4  10  23  48  72 105 145 193 243 316 381 446
#     4  12  26  46  73 107 152 197 250 310 373 449
#     4  11  24  46  74 109 146 195 249 315 375 450
#
# _framework density 24.045508000000002
#
# number of rings (size 3 to 8) (size 9 to 14) (size 15 to 20)
#    0.000    0.800    4.000    3.000    2.800    3.200 
#    7.200    0.000    0.000    0.000    0.000    0.000 
#    0.000    0.000    0.000    0.000    0.000    0.000 
#
# Total GULP energy -223498.959867 kJ/mol
# GULP energy per Si atom -5587.473997 kJ/mol
# Density = 2.399078 g / cm^3
# Si number density = 24.045508 Si / 1000 Ang^3
#
#
#
# Elastic Constant Matrix: (Units=GPa)
#
#
# Indices 1 2 3 4 5 6 
#
# 1 71.5457 33.7063 25.5609 0.0000 0.0000 0.0000
# 2 33.7063 127.7484 46.4865 0.0000 0.0000 0.0000
# 3 25.5609 46.4865 81.2522 0.0000 0.0000 0.0000
# 4 0.0000 0.0000 0.0000 68.1137 0.0000 0.0000
# 5 0.0000 0.0000 0.0000 0.0000 38.7334 0.0000
# 6 0.0000 0.0000 0.0000 0.0000 0.0000 35.9304
#
#
#
# Elastic Compliance Matrix: (Units=1/GPa)
#
#
# Indices 1 2 3 4 5 6 
#
# 1 0.016693 -0.003149 -0.003450 0.000000 0.000000 0.000000
# 2 -0.003149 0.010480 -0.005005 0.000000 0.000000 0.000000
# 3 -0.003450 -0.005005 0.016256 0.000000 0.000000 0.000000
# 4 0.000000 0.000000 0.000000 0.014681 0.000000 0.000000
# 5 0.000000 0.000000 0.000000 0.000000 0.025817 0.000000
# 6 0.000000 0.000000 0.000000 0.000000 0.000000 0.027832
#
#
# Mechanical properties :
#
#
# Convention : Reuss Voigt Hill
#
# Bulk Modulus (GPa) = 49.45298 54.67262 52.06280
# Shear Modulus (GPa) = 35.28361 40.20833 37.74597
#
# Velocity S-wave (km/s) = 3.83478 4.09366 3.96633
# Velocity P-wave (km/s) = 6.34180 6.71793 6.53257
#
# Compressibility (1/GPa) = 0.02022123
#
# Stress axis : x y z
#
# Youngs Moduli (GPa) = 59.90468 95.41839 61.51471
#
# Poissons Ratio (x) = 0.30049 0.21221
# Poissons Ratio (y) = 0.18865 0.30790
# Poissons Ratio (z) = 0.20666 0.47760
#
# Static dielectric constant tensor:
#      x y z
#    x 1.887200 0.000000 0.000000 
#    y 0.000000 1.883770 0.000000 
#    z 0.000000 0.000000 1.948690 
# 
# From -- ./inp_files/1410.got.cif
#   From: 2010.05.17/outbox.cif.g08.bks.cpg/sg52_1_cif.got.tgz:1410.got - 2010.06.03 12:15:38.
