data_PCOD9412803
_publ_section_title
;
Structure prediction by ZEFSAII (Michael W. Deem and Ramdas Pophale) SiO2 
 PCOD9412803
Probable space group: P N N A
;
_chemical_formula_sum "Si O2"
_cell_formula_units_Z 32
_cell_length_a 16.294799
_cell_length_b 9.479474
_cell_length_c 7.849535
_cell_angle_alpha 90.000000
_cell_angle_beta 90.000000
_cell_angle_gamma 90.000000
_cell_volume 1212.487242
_symmetry_space_group_name_H-M "P N N A"
_symmetry_group_IT_number 52
_symmetry_cell_setting 'orthorhombic'
loop_
_space_group_symop_operation_xyz
x,y,z
1/2-x,-y,z
x,1/2-y,1/2-z
1/2-x,1/2+y,1/2-z
-x,-y,-z
1/2+x,y,-z
-x,1/2+y,1/2+z
1/2+x,1/2-y,1/2+z
loop_
_atom_site_type_symbol
_atom_site_label
_atom_site_fract_x
_atom_site_fract_y
_atom_site_fract_z
Si Si1 0.162594 0.157967 0.468179
Si Si2 0.596355 0.455772 0.616934
Si Si3 0.326768 0.227451 0.936734
Si Si4 0.056937 0.533320 0.842807
O O1 0.109721 0.302320 0.466531
O O2 0.140447 0.067818 0.300638
O O3 0.257099 0.201394 0.451181
O O4 0.134987 0.069380 0.634184
O O5 0.643929 0.578077 0.512317
O O6 0.501419 0.480856 0.677983
O O7 0.286173 0.250000 0.750000
O O8 0.408408 0.316121 0.901082
O O9 0.000000 0.500000 0.000000
#
# Coordination Sequence:
#
# PCOD9412803 Si02
#       4
#     8   8   8   8
#     4  10  24  49  81 115 158 213 270 329 406 490
#     4  10  25  51  80 113 158 213 272 328 406 490
#     4  12  28  50  78 116 163 212 269 339 411 489
#     4  10  25  47  73 114 155 204 266 327 396 481
#
# _framework density 26.392033000000001
#
# number of rings (size 3 to 8) (size 9 to 14) (size 15 to 20)
#    0.000    1.500    0.000    1.500    7.000   23.000 
#   13.500    0.000    5.500    0.000    0.000    0.000 
#    0.000    0.000    0.000    0.000    0.000    0.000 
#
# Total GULP energy -178759.161107 kJ/mol
# GULP energy per Si atom -5586.223785 kJ/mol
# Density = 2.633196 g / cm^3
# Si number density = 26.392033 Si / 1000 Ang^3
#
#
#
# Elastic Constant Matrix: (Units=GPa)
#
#
# Indices 1 2 3 4 5 6 
#
# 1 137.0401 72.1842 38.4065 0.0000 0.0000 0.0000
# 2 72.1842 194.7234 77.3200 0.0000 0.0000 0.0000
# 3 38.4065 77.3200 125.2697 0.0000 0.0000 0.0000
# 4 0.0000 0.0000 0.0000 29.6600 0.0000 0.0000
# 5 0.0000 0.0000 0.0000 0.0000 28.2945 0.0000
# 6 0.0000 0.0000 0.0000 0.0000 0.0000 57.5265
#
#
#
# Elastic Compliance Matrix: (Units=1/GPa)
#
#
# Indices 1 2 3 4 5 6 
#
# 1 0.009151 -0.003018 -0.000943 0.000000 0.000000 0.000000
# 2 -0.003018 0.007798 -0.003888 0.000000 0.000000 0.000000
# 3 -0.000943 -0.003888 0.010672 0.000000 0.000000 0.000000
# 4 0.000000 0.000000 0.000000 0.033715 0.000000 0.000000
# 5 0.000000 0.000000 0.000000 0.000000 0.035343 0.000000
# 6 0.000000 0.000000 0.000000 0.000000 0.000000 0.017383
#
#
# Mechanical properties :
#
#
# Convention : Reuss Voigt Hill
#
# Bulk Modulus (GPa) = 83.86970 92.53940 88.20455
# Shear Modulus (GPa) = 37.38772 41.03768 39.21270
#
# Velocity S-wave (km/s) = 3.76790 3.94753 3.85876
# Velocity P-wave (km/s) = 7.12578 7.47776 7.30389
#
# Compressibility (1/GPa) = 0.01192326
#
# Stress axis : x y z
#
# Youngs Moduli (GPa) = 109.27730 128.23764 93.70682
#
# Poissons Ratio (x) = 0.38701 0.08835
# Poissons Ratio (y) = 0.32979 0.36432
# Poissons Ratio (z) = 0.10304 0.49858
#
# Static dielectric constant tensor:
#      x y z
#    x 2.178610 0.000000 0.000000 
#    y 0.000000 2.047670 0.000000 
#    z 0.000000 0.000000 42.219480 
# 
# From -- ./inp_files/12805.got.cif
#   From: 2010.05.17/outbox.cif.g08.bks.cpg/sg52_7_cif.got.tgz:12805.got - 2010.06.03 12:15:38.
