data_PCOD9412650
_publ_section_title
;
Structure prediction by ZEFSAII (Michael W. Deem and Ramdas Pophale) SiO2 
 PCOD9412650
Probable space group: P N N A
;
_chemical_formula_sum "Si O2"
_cell_formula_units_Z 36
_cell_length_a 14.943085
_cell_length_b 14.961686
_cell_length_c 7.247886
_cell_angle_alpha 90.000000
_cell_angle_beta 90.000000
_cell_angle_gamma 90.000000
_cell_volume 1620.437021
_symmetry_space_group_name_H-M "P N N A"
_symmetry_group_IT_number 52
_symmetry_cell_setting 'orthorhombic'
loop_
_space_group_symop_operation_xyz
x,y,z
1/2-x,-y,z
x,1/2-y,1/2-z
1/2-x,1/2+y,1/2-z
-x,-y,-z
1/2+x,y,-z
-x,1/2+y,1/2+z
1/2+x,1/2-y,1/2+z
loop_
_atom_site_type_symbol
_atom_site_label
_atom_site_fract_x
_atom_site_fract_y
_atom_site_fract_z
Si Si1 0.974166 0.399813 0.552062
Si Si2 0.116324 0.262893 0.525991
Si Si3 0.068521 0.073686 0.569406
Si Si4 0.209326 0.656556 0.331849
Si Si5 0.750000 0.000000 0.534753
O O1 0.032804 0.322843 0.461469
O O2 0.012534 0.390525 0.758283
O O3 0.000000 0.500000 0.500000
O O4 0.868973 0.384652 0.543202
O O5 0.130693 0.250000 0.750000
O O6 0.096067 0.162452 0.458016
O O7 0.203393 0.311854 0.443951
O O8 0.163931 0.024216 0.588795
O O9 0.000000 0.000000 0.500000
O O10 0.172542 0.750000 0.250000
O O11 0.228133 0.583495 0.171715
#
# Coordination Sequence:
#
# PCOD9412650 Si02
#       5
#     8   8   8   8   4
#     4  11  25  44  67  98 138 179 229 291 350 415
#     4  10  24  43  67  99 138 181 230 290 343 416
#     4  11  23  43  67 100 139 180 231 285 352 419
#     4  12  23  44  70  98 134 181 231 284 348 419
#     4  12  24  40  76 102 136 188 238 290 362 426
#
# _framework density 22.216227
#
# number of rings (size 3 to 8) (size 9 to 14) (size 15 to 20)
#    0.000    0.889    4.444    3.333    0.000    3.556 
#    0.000    1.111    0.000    0.000    0.000    0.000 
#    0.000    0.000    0.000    0.000    0.000    0.000 
#
# Total GULP energy -200731.074144 kJ/mol
# GULP energy per Si atom -5575.863171 kJ/mol
# Density = 2.216566 g / cm^3
# Si number density = 22.216227 Si / 1000 Ang^3
#
#
#
# Elastic Constant Matrix: (Units=GPa)
#
#
# Indices 1 2 3 4 5 6 
#
# 1 149.8363 35.1294 -4.4747 0.0000 0.0000 0.0000
# 2 35.1294 134.2465 -10.7581 0.0000 0.0000 0.0000
# 3 -4.4747 -10.7581 36.2602 0.0000 0.0000 0.0000
# 4 0.0000 0.0000 0.0000 32.1324 0.0000 0.0000
# 5 0.0000 0.0000 0.0000 0.0000 27.0158 0.0000
# 6 0.0000 0.0000 0.0000 0.0000 0.0000 54.2081
#
#
#
# Elastic Compliance Matrix: (Units=1/GPa)
#
#
# Indices 1 2 3 4 5 6 
#
# 1 0.007114 -0.001835 0.000334 0.000000 0.000000 0.000000
# 2 -0.001835 0.008104 0.002178 0.000000 0.000000 0.000000
# 3 0.000334 0.002178 0.028266 0.000000 0.000000 0.000000
# 4 0.000000 0.000000 0.000000 0.031121 0.000000 0.000000
# 5 0.000000 0.000000 0.000000 0.000000 0.037015 0.000000
# 6 0.000000 0.000000 0.000000 0.000000 0.000000 0.018447
#
#
# Mechanical properties :
#
#
# Convention : Reuss Voigt Hill
#
# Bulk Modulus (GPa) = 22.30325 40.01513 31.15919
# Shear Modulus (GPa) = 34.80439 42.70102 38.75271
#
# Velocity S-wave (km/s) = 3.96235 4.38889 4.18106
# Velocity P-wave (km/s) = 5.56728 6.61316 6.11263
#
# Compressibility (1/GPa) = 0.04483652
#
# Stress axis : x y z
#
# Youngs Moduli (GPa) = 140.56585 123.40105 35.37849
#
# Poissons Ratio (x) = 0.22643 -0.01180
# Poissons Ratio (y) = 0.25792 -0.07705
# Poissons Ratio (z) = -0.04688 -0.26875
#
# Static dielectric constant tensor:
#      x y z
#    x 1.848240 0.000000 0.000000 
#    y 0.000000 1.978950 0.000000 
#    z 0.000000 0.000000 1.447970 
# 
# From -- ./inp_files/9964.got.cif
#   From: 2010.05.17/outbox.cif.g08.bks.cpg/sg52_5_cif.got.tgz:9964.got - 2010.06.03 12:15:38.
