data_PCOD9412429
_publ_section_title
;
Structure prediction by ZEFSAII (Michael W. Deem and Ramdas Pophale) SiO2 
 PCOD9412429
Probable space group: P N N A
;
_chemical_formula_sum "Si O2"
_cell_formula_units_Z 24
_cell_length_a 14.740688
_cell_length_b 4.992843
_cell_length_c 15.028369
_cell_angle_alpha 90.000000
_cell_angle_beta 90.000000
_cell_angle_gamma 90.000000
_cell_volume 1106.057013
_symmetry_space_group_name_H-M "P N N A"
_symmetry_group_IT_number 52
_symmetry_cell_setting 'orthorhombic'
loop_
_space_group_symop_operation_xyz
x,y,z
1/2-x,-y,z
x,1/2-y,1/2-z
1/2-x,1/2+y,1/2-z
-x,-y,-z
1/2+x,y,-z
-x,1/2+y,1/2+z
1/2+x,1/2-y,1/2+z
loop_
_atom_site_type_symbol
_atom_site_label
_atom_site_fract_x
_atom_site_fract_y
_atom_site_fract_z
Si Si1 0.250000 0.000000 0.810101
Si Si2 0.599107 0.246409 0.933882
Si Si3 0.382388 0.252739 0.955225
Si Si4 0.311591 0.750000 0.250000
O O1 0.214791 0.250000 0.750000
O O2 0.325426 0.139140 0.872978
O O3 0.489836 0.250999 0.934624
O O4 0.630854 0.323385 0.836431
O O5 0.637157 0.451459 0.008107
O O6 0.630458 0.952979 0.963367
O O7 0.250000 0.500000 0.274341
#
# Coordination Sequence:
#
# PCOD9412429 Si02
#       4
#     4   8   8   4
#     4  12  26  42  68 106 132 172 226 282 336 394
#     4  10  23  44  66  95 130 177 219 269 335 397
#     4  10  23  44  69  93 131 177 217 271 338 395
#     4  12  26  40  66 102 130 170 226 276 330 394
#
# _framework density 21.698699999999999
#
# number of rings (size 3 to 8) (size 9 to 14) (size 15 to 20)
#    0.000    1.333    0.000    4.000    9.333    0.000 
#    3.000    0.000    0.000    0.000    0.000    0.000 
#    0.000    0.000    0.000    0.000    0.000    0.000 
#
# Total GULP energy -134258.478252 kJ/mol
# GULP energy per Si atom -5594.103260 kJ/mol
# Density = 2.164931 g / cm^3
# Si number density = 21.698700 Si / 1000 Ang^3
#
#
#
# Elastic Constant Matrix: (Units=GPa)
#
#
# Indices 1 2 3 4 5 6 
#
# 1 75.2314 26.9016 48.9440 0.0000 0.0000 0.0000
# 2 26.9016 111.8369 21.5614 0.0000 0.0000 0.0000
# 3 48.9440 21.5614 122.9444 0.0000 0.0000 0.0000
# 4 0.0000 0.0000 0.0000 36.7264 0.0000 0.0000
# 5 0.0000 0.0000 0.0000 0.0000 19.9472 0.0000
# 6 0.0000 0.0000 0.0000 0.0000 0.0000 11.9726
#
#
#
# Elastic Compliance Matrix: (Units=1/GPa)
#
#
# Indices 1 2 3 4 5 6 
#
# 1 0.018996 -0.003220 -0.006998 0.000000 0.000000 0.000000
# 2 -0.003220 0.009800 -0.000437 0.000000 0.000000 0.000000
# 3 -0.006998 -0.000437 0.010996 0.000000 0.000000 0.000000
# 4 0.000000 0.000000 0.000000 0.027228 0.000000 0.000000
# 5 0.000000 0.000000 0.000000 0.000000 0.050132 0.000000
# 6 0.000000 0.000000 0.000000 0.000000 0.000000 0.083524
#
#
# Mechanical properties :
#
#
# Convention : Reuss Voigt Hill
#
# Bulk Modulus (GPa) = 54.10253 56.09187 55.09720
# Shear Modulus (GPa) = 21.91556 27.90296 24.90926
#
# Velocity S-wave (km/s) = 3.18149 3.58987 3.39183
# Velocity P-wave (km/s) = 6.20351 6.56425 6.38643
#
# Compressibility (1/GPa) = 0.01848342
#
# Stress axis : x y z
#
# Youngs Moduli (GPa) = 52.64151 102.03643 90.94112
#
# Poissons Ratio (x) = 0.32859 0.63638
# Poissons Ratio (y) = 0.16952 0.03972
# Poissons Ratio (z) = 0.36837 0.04456
#
# Static dielectric constant tensor:
#      x y z
#    x 1.782940 0.000000 0.000000 
#    y 0.000000 1.766890 0.000000 
#    z 0.000000 0.000000 1.751160 
# 
# From -- ./inp_files/20070.got.cif
#   From: 2010.05.17/outbox.cif.g08.bks.cpg/sg52_11_cif.got.tgz:20070.got - 2010.06.03 12:15:38.
