data_PCOD9412117
_publ_section_title
;
Structure prediction by ZEFSAII (Michael W. Deem and Ramdas Pophale) SiO2 
 PCOD9412117
Probable space group: P N N A
;
_chemical_formula_sum "Si O2"
_cell_formula_units_Z 32
_cell_length_a 15.250396
_cell_length_b 7.136029
_cell_length_c 13.567851
_cell_angle_alpha 90.000000
_cell_angle_beta 90.000000
_cell_angle_gamma 90.000000
_cell_volume 1476.552159
_symmetry_space_group_name_H-M "P N N A"
_symmetry_group_IT_number 52
_symmetry_cell_setting 'orthorhombic'
loop_
_space_group_symop_operation_xyz
x,y,z
1/2-x,-y,z
x,1/2-y,1/2-z
1/2-x,1/2+y,1/2-z
-x,-y,-z
1/2+x,y,-z
-x,1/2+y,1/2+z
1/2+x,1/2-y,1/2+z
loop_
_atom_site_type_symbol
_atom_site_label
_atom_site_fract_x
_atom_site_fract_y
_atom_site_fract_z
Si Si1 0.662566 0.768391 0.936757
Si Si2 0.837613 0.122104 0.345796
Si Si3 0.341498 0.692665 0.359096
Si Si4 0.980355 0.988223 0.614879
O O1 0.765386 0.719846 0.926163
O O2 0.652943 0.977197 0.892173
O O3 0.645723 0.742435 0.053719
O O4 0.597130 0.639252 0.872873
O O5 0.827434 0.250000 0.250000
O O6 0.926337 0.998366 0.332271
O O7 0.750000 0.000000 0.358076
O O8 0.310669 0.750000 0.250000
O O9 0.435471 0.788595 0.367161
O O10 0.000000 0.000000 0.500000
#
# Coordination Sequence:
#
# PCOD9412117 Si02
#       4
#     8   8   8   8
#     4  10  24  43  72 100 143 179 221 300 352 424
#     4  11  25  48  68  99 137 193 247 294 352 419
#     4  11  24  41  68 108 137 175 228 280 365 428
#     4  10  22  44  67  99 137 180 232 291 347 420
#
# _framework density 21.67211
#
# number of rings (size 3 to 8) (size 9 to 14) (size 15 to 20)
#    0.000    1.500    0.000    4.500   10.500    4.000 
#    9.000    0.000    0.000    0.000    0.000    0.000 
#    0.000    0.000    0.000    0.000    0.000    0.000 
#
# Total GULP energy -178491.773041 kJ/mol
# GULP energy per Si atom -5577.867908 kJ/mol
# Density = 2.162278 g / cm^3
# Si number density = 21.672110 Si / 1000 Ang^3
#
#
#
# Elastic Constant Matrix: (Units=GPa)
#
#
# Indices 1 2 3 4 5 6 
#
# 1 163.5980 50.3195 7.3030 0.0000 0.0000 0.0000
# 2 50.3195 107.5898 31.5186 0.0000 0.0000 0.0000
# 3 7.3030 31.5186 107.9421 0.0000 0.0000 0.0000
# 4 0.0000 0.0000 0.0000 25.9697 0.0000 0.0000
# 5 0.0000 0.0000 0.0000 0.0000 -111.7302 0.0000
# 6 0.0000 0.0000 0.0000 0.0000 0.0000 30.0912
#
#
#
# Elastic Compliance Matrix: (Units=1/GPa)
#
#
# Indices 1 2 3 4 5 6 
#
# 1 0.007168 -0.003511 0.000540 0.000000 0.000000 0.000000
# 2 -0.003511 0.011884 -0.003232 0.000000 0.000000 0.000000
# 3 0.000540 -0.003232 0.010172 0.000000 0.000000 0.000000
# 4 0.000000 0.000000 0.000000 0.038506 0.000000 0.000000
# 5 0.000000 0.000000 0.000000 0.000000 -0.008950 0.000000
# 6 0.000000 0.000000 0.000000 0.000000 0.000000 0.033232
#
#
# Mechanical properties :
#
#
# Convention : Reuss Voigt Hill
#
# Bulk Modulus (GPa) = 59.46297 61.93467 60.69882
# Shear Modulus (GPa) = 45.44472 8.19872 26.82172
#
# Velocity S-wave (km/s) = 4.58418 1.94712 3.52179
# Velocity P-wave (km/s) = 7.45096 5.80475 6.67877
#
# Compressibility (1/GPa) = 0.01681719
#
# Stress axis : x y z
#
# Youngs Moduli (GPa) = 139.50321 84.15028 98.31370
#
# Poissons Ratio (x) = 0.29544 -0.05311
# Poissons Ratio (y) = 0.48977 0.31779
# Poissons Ratio (z) = -0.07535 0.27201
#
# Static dielectric constant tensor:
#      x y z
#    x 2.051680 0.000000 0.000000 
#    y 0.000000 1.805470 0.000000 
#    z 0.000000 0.000000 0.921300 
# 
# From -- ./inp_files/19004.got.cif
#   From: 2010.05.17/outbox.cif.g08.bks.cpg/sg52_10_cif.got.tgz:19004.got - 2010.06.03 12:15:38.
