data_PCOD9412471
_publ_section_title
;
Structure prediction by ZEFSAII (Michael W. Deem and Ramdas Pophale) SiO2 
 PCOD9412471
Probable space group: P N N A
;
_chemical_formula_sum "Si O2"
_cell_formula_units_Z 60
_cell_length_a 9.161869
_cell_length_b 24.758592
_cell_length_c 11.170378
_cell_angle_alpha 90.000000
_cell_angle_beta 90.000000
_cell_angle_gamma 90.000000
_cell_volume 2533.832431
_symmetry_space_group_name_H-M "P N N A"
_symmetry_group_IT_number 52
_symmetry_cell_setting 'orthorhombic'
loop_
_space_group_symop_operation_xyz
x,y,z
1/2-x,-y,z
x,1/2-y,1/2-z
1/2-x,1/2+y,1/2-z
-x,-y,-z
1/2+x,y,-z
-x,1/2+y,1/2+z
1/2+x,1/2-y,1/2+z
loop_
_atom_site_type_symbol
_atom_site_label
_atom_site_fract_x
_atom_site_fract_y
_atom_site_fract_z
Si Si1 0.702558 0.250000 0.250000
Si Si2 0.595507 0.127497 0.769700
Si Si3 0.806551 0.781234 0.887066
Si Si4 0.313667 0.149381 0.903479
Si Si5 0.477207 0.282544 0.057432
Si Si6 0.346122 0.052837 0.305862
Si Si7 0.878611 0.105321 0.441619
Si Si8 0.325481 0.558738 0.748576
O O1 0.790167 0.203811 0.178244
O O2 0.599675 0.284695 0.160602
O O3 0.636712 0.190939 0.766083
O O4 0.478450 0.128354 0.878850
O O5 0.748414 0.097516 0.759749
O O6 0.504692 0.102644 0.658657
O O7 0.661751 0.746242 0.886323
O O8 0.744442 0.831247 0.969144
O O9 0.938320 0.753168 0.958627
O O10 0.217571 0.099823 0.856028
O O11 0.409964 0.335956 0.998103
O O12 0.376981 0.066533 0.444800
O O13 0.503664 0.048724 0.248369
O O14 0.250000 0.000000 0.298303
O O15 0.732514 0.090546 0.367672
O O16 0.250000 0.500000 0.744080
#
# Coordination Sequence:
#
# PCOD9412471 Si02
#       8
#     4   8   8   8   8   8   8   8
#     4  10  24  42  70  98 142 192 232 290 352 430
#     4  11  26  43  72 101 142 188 236 295 355 424
#     4  11  25  45  68 105 145 188 240 291 354 423
#     4  10  23  45  69  97 144 188 238 289 360 419
#     4  11  26  42  67 105 142 191 234 289 357 426
#     4  12  26  45  71 105 141 183 247 301 358 433
#     4  11  26  44  67 103 145 190 237 291 364 426
#     4  11  25  45  72 100 142 193 237 299 366 426
#
# _framework density 23.679546999999999
#
# number of rings (size 3 to 8) (size 9 to 14) (size 15 to 20)
#    0.000    1.067    1.333    3.600   16.800    2.133 
#    0.000    0.667    0.000    5.600    0.000    0.933 
#    0.000    0.000    0.000    0.000    0.000    0.000 
#
# Total GULP energy -335431.535949 kJ/mol
# GULP energy per Si atom -5590.525599 kJ/mol
# Density = 2.362565 g / cm^3
# Si number density = 23.679547 Si / 1000 Ang^3
#
#
#
# Elastic Constant Matrix: (Units=GPa)
#
#
# Indices 1 2 3 4 5 6 
#
# 1 193.3815 41.3006 20.9265 0.0000 0.0000 0.0000
# 2 41.3006 76.2436 1.7130 0.0000 0.0000 0.0000
# 3 20.9265 1.7130 51.8091 0.0000 0.0000 0.0000
# 4 0.0000 0.0000 0.0000 23.8734 0.0000 0.0000
# 5 0.0000 0.0000 0.0000 0.0000 17.6469 0.0000
# 6 0.0000 0.0000 0.0000 0.0000 0.0000 38.0846
#
#
#
# Elastic Compliance Matrix: (Units=1/GPa)
#
#
# Indices 1 2 3 4 5 6 
#
# 1 0.006124 -0.003264 -0.002366 0.000000 0.000000 0.000000
# 2 -0.003264 0.014866 0.000827 0.000000 0.000000 0.000000
# 3 -0.002366 0.000827 0.020230 0.000000 0.000000 0.000000
# 4 0.000000 0.000000 0.000000 0.041888 0.000000 0.000000
# 5 0.000000 0.000000 0.000000 0.000000 0.056667 0.000000
# 6 0.000000 0.000000 0.000000 0.000000 0.000000 0.026257
#
#
# Mechanical properties :
#
#
# Convention : Reuss Voigt Hill
#
# Bulk Modulus (GPa) = 31.63207 49.92383 40.77795
# Shear Modulus (GPa) = 26.85633 33.08725 29.97179
#
# Velocity S-wave (km/s) = 3.37138 3.74209 3.56156
# Velocity P-wave (km/s) = 5.34250 6.30872 5.84561
#
# Compressibility (1/GPa) = 0.03161349
#
# Stress axis : x y z
#
# Youngs Moduli (GPa) = 163.28401 67.26967 49.43187
#
# Poissons Ratio (x) = 0.21959 0.11694
# Poissons Ratio (y) = 0.53301 -0.04088
# Poissons Ratio (z) = 0.38629 -0.05563
#
# Static dielectric constant tensor:
#      x y z
#    x 1.901580 0.000000 0.000000 
#    y 0.000000 2.019830 0.000000 
#    z 0.000000 0.000000 1.951420 
# 
# From -- ./inp_files/17125.got.cif
#   From: 2010.05.17/outbox.cif.g08.bks.cpg/sg52_9_cif.got.tgz:17125.got - 2010.06.03 12:15:38.
