data_PCOD9412566
_publ_section_title
;
Structure prediction by ZEFSAII (Michael W. Deem and Ramdas Pophale) SiO2 
 PCOD9412566
Probable space group: P N N A
;
_chemical_formula_sum "Si O2"
_cell_formula_units_Z 40
_cell_length_a 11.185351
_cell_length_b 20.120809
_cell_length_c 7.891799
_cell_angle_alpha 90.000000
_cell_angle_beta 90.000000
_cell_angle_gamma 90.000000
_cell_volume 1776.114954
_symmetry_space_group_name_H-M "P N N A"
_symmetry_group_IT_number 52
_symmetry_cell_setting 'orthorhombic'
loop_
_space_group_symop_operation_xyz
x,y,z
1/2-x,-y,z
x,1/2-y,1/2-z
1/2-x,1/2+y,1/2-z
-x,-y,-z
1/2+x,y,-z
-x,1/2+y,1/2+z
1/2+x,1/2-y,1/2+z
loop_
_atom_site_type_symbol
_atom_site_label
_atom_site_fract_x
_atom_site_fract_y
_atom_site_fract_z
Si Si1 0.811331 0.571784 0.543029
Si Si2 0.004268 0.735681 0.948761
Si Si3 0.752463 0.211717 0.070116
Si Si4 0.383260 0.976242 0.723832
Si Si5 0.062478 0.408392 0.114128
O O1 0.750000 0.500000 0.585840
O O2 0.740563 0.631470 0.446826
O O3 0.915925 0.557773 0.403253
O O4 0.853867 0.601907 0.722487
O O5 0.002017 0.750000 0.750000
O O6 0.127770 0.763187 0.025036
O O7 0.003814 0.656470 0.952392
O O8 0.880214 0.766508 0.013535
O O9 0.760807 0.250000 0.250000
O O10 0.372490 0.932930 0.554985
O O11 0.250000 0.000000 0.758851
O O12 0.471664 0.035297 0.677656
#
# Coordination Sequence:
#
# PCOD9412566 Si02
#       5
#     8   8   8   8   8
#     4  11  24  43  72 100 138 182 237 294 359 426
#     4  11  25  44  72  97 145 184 240 294 359 428
#     4  11  26  46  70 104 141 191 235 300 363 430
#     4  10  24  40  68  98 139 176 227 296 354 416
#     4  11  23  44  67 102 135 184 235 292 352 428
#
# _framework density 22.521065
#
# number of rings (size 3 to 8) (size 9 to 14) (size 15 to 20)
#    0.000    1.200    2.000    2.400   14.000    2.400 
#    0.000    0.000    0.000    0.000    0.000    0.000 
#    0.000    0.000    0.000    0.000    0.000    0.000 
#
# Total GULP energy -222891.864324 kJ/mol
# GULP energy per Si atom -5572.296608 kJ/mol
# Density = 2.246981 g / cm^3
# Si number density = 22.521065 Si / 1000 Ang^3
#
#
#
# Elastic Constant Matrix: (Units=GPa)
#
#
# Indices 1 2 3 4 5 6 
#
# 1 98.2532 17.9833 26.5366 0.0000 0.0000 0.0000
# 2 17.9833 129.6845 27.6910 0.0000 0.0000 0.0000
# 3 26.5366 27.6910 65.2169 0.0000 0.0000 0.0000
# 4 0.0000 0.0000 0.0000 -46.4721 0.0000 0.0000
# 5 0.0000 0.0000 0.0000 0.0000 28.1899 0.0000
# 6 0.0000 0.0000 0.0000 0.0000 0.0000 26.5903
#
#
#
# Elastic Compliance Matrix: (Units=1/GPa)
#
#
# Indices 1 2 3 4 5 6 
#
# 1 0.011485 -0.000654 -0.004395 0.000000 0.000000 0.000000
# 2 -0.000654 0.008517 -0.003350 0.000000 0.000000 0.000000
# 3 -0.004395 -0.003350 0.018544 0.000000 0.000000 0.000000
# 4 0.000000 0.000000 0.000000 -0.021518 0.000000 0.000000
# 5 0.000000 0.000000 0.000000 0.000000 0.035474 0.000000
# 6 0.000000 0.000000 0.000000 0.000000 0.000000 0.037608
#
#
# Mechanical properties :
#
#
# Convention : Reuss Voigt Hill
#
# Bulk Modulus (GPa) = 45.98362 48.61959 47.30161
# Shear Modulus (GPa) = 43.79920 16.39121 30.09520
#
# Velocity S-wave (km/s) = 4.41478 2.70073 3.65953
# Velocity P-wave (km/s) = 6.81539 5.60006 6.23739
#
# Compressibility (1/GPa) = 0.02174687
#
# Stress axis : x y z
#
# Youngs Moduli (GPa) = 87.07304 117.41125 53.92461
#
# Poissons Ratio (x) = 0.07679 0.23702
# Poissons Ratio (y) = 0.05695 0.18066
# Poissons Ratio (z) = 0.38272 0.39335
#
# Static dielectric constant tensor:
#      x y z
#    x 1.880490 0.000000 0.000000 
#    y 0.000000 1.244050 0.000000 
#    z 0.000000 0.000000 1.915040 
# 
# From -- ./inp_files/8685.got.cif
#   From: 2010.05.17/outbox.cif.g08.bks.cpg/sg52_5_cif.got.tgz:8685.got - 2010.06.03 12:15:38.
