data_PCOD9412049
_publ_section_title
;
Structure prediction by ZEFSAII (Michael W. Deem and Ramdas Pophale) SiO2 
 PCOD9412049
Probable space group: P N N A
;
_chemical_formula_sum "Si O2"
_cell_formula_units_Z 28
_cell_length_a 10.181433
_cell_length_b 14.798050
_cell_length_c 9.023762
_cell_angle_alpha 90.000000
_cell_angle_beta 90.000000
_cell_angle_gamma 90.000000
_cell_volume 1359.568302
_symmetry_space_group_name_H-M "P N N A"
_symmetry_group_IT_number 52
_symmetry_cell_setting 'orthorhombic'
loop_
_space_group_symop_operation_xyz
x,y,z
1/2-x,-y,z
x,1/2-y,1/2-z
1/2-x,1/2+y,1/2-z
-x,-y,-z
1/2+x,y,-z
-x,1/2+y,1/2+z
1/2+x,1/2-y,1/2+z
loop_
_atom_site_type_symbol
_atom_site_label
_atom_site_fract_x
_atom_site_fract_y
_atom_site_fract_z
Si Si1 0.595530 0.351414 0.192237
Si Si2 0.128311 0.244984 0.077666
Si Si3 0.896813 0.134921 0.926552
Si Si4 0.250000 0.500000 0.624494
O O1 0.630282 0.250000 0.250000
O O2 0.450165 0.372846 0.257661
O O3 0.688536 0.423996 0.269451
O O4 0.611070 0.337381 0.016558
O O5 0.099608 0.250000 0.250000
O O6 0.273383 0.202466 0.063806
O O7 0.020746 0.177595 0.009749
O O8 0.854082 0.045673 0.013306
#
# Coordination Sequence:
#
# PCOD9412049 Si02
#       4
#     8   8   8   4
#     4  10  22  43  68  99 135 180 231 273 338 414
#     4  11  24  42  71  98 139 184 228 281 342 402
#     4  11  23  42  69 100 137 177 236 275 349 402
#     4  12  22  42  72 102 136 184 220 296 334 406
#
# _framework density 20.594771999999999
#
# number of rings (size 3 to 8) (size 9 to 14) (size 15 to 20)
#    0.000    1.143    5.714    3.429    4.000    0.000 
#    0.000    2.857    0.000    0.000    0.000    0.000 
#    0.000    0.000    0.000    0.000    0.000    0.000 
#
# Total GULP energy -156230.485987 kJ/mol
# GULP energy per Si atom -5579.660214 kJ/mol
# Density = 2.054790 g / cm^3
# Si number density = 20.594772 Si / 1000 Ang^3
#
#
#
# Elastic Constant Matrix: (Units=GPa)
#
#
# Indices 1 2 3 4 5 6 
#
# 1 128.9263 41.7465 47.0678 0.0000 0.0000 0.0000
# 2 41.7465 110.0485 51.8504 0.0000 0.0000 0.0000
# 3 47.0678 51.8504 168.4207 0.0000 0.0000 0.0000
# 4 0.0000 0.0000 0.0000 36.3697 0.0000 0.0000
# 5 0.0000 0.0000 0.0000 0.0000 12.4817 0.0000
# 6 0.0000 0.0000 0.0000 0.0000 0.0000 21.0842
#
#
#
# Elastic Compliance Matrix: (Units=1/GPa)
#
#
# Indices 1 2 3 4 5 6 
#
# 1 0.009270 -0.002685 -0.001764 0.000000 0.000000 0.000000
# 2 -0.002685 0.011407 -0.002761 0.000000 0.000000 0.000000
# 3 -0.001764 -0.002761 0.007281 0.000000 0.000000 0.000000
# 4 0.000000 0.000000 0.000000 0.027495 0.000000 0.000000
# 5 0.000000 0.000000 0.000000 0.000000 0.080118 0.000000
# 6 0.000000 0.000000 0.000000 0.000000 0.000000 0.047429
#
#
# Mechanical properties :
#
#
# Convention : Reuss Voigt Hill
#
# Bulk Modulus (GPa) = 73.87699 76.52499 75.20099
# Shear Modulus (GPa) = 24.76085 31.76917 28.26501
#
# Velocity S-wave (km/s) = 3.47116 3.93184 3.70866
# Velocity P-wave (km/s) = 7.21214 7.60596 7.41166
#
# Compressibility (1/GPa) = 0.01353601
#
# Stress axis : x y z
#
# Youngs Moduli (GPa) = 107.87658 87.66891 137.35293
#
# Poissons Ratio (x) = 0.23543 0.24227
# Poissons Ratio (y) = 0.28969 0.37925
# Poissons Ratio (z) = 0.19028 0.24207
#
# Static dielectric constant tensor:
#      x y z
#    x 1.738410 0.000000 0.000000 
#    y 0.000000 1.754800 0.000000 
#    z 0.000000 0.000000 1.868810 
# 
# From -- ./inp_files/7094.got.cif
#   From: 2010.05.17/outbox.cif.g08.bks.cpg/sg52_4_cif.got.tgz:7094.got - 2010.06.03 12:15:38.
