data_PCOD9412787
_publ_section_title
;
Structure prediction by ZEFSAII (Michael W. Deem and Ramdas Pophale) SiO2 
 PCOD9412787
Probable space group: P N N A
;
_chemical_formula_sum "Si O2"
_cell_formula_units_Z 40
_cell_length_a 14.689709
_cell_length_b 15.280687
_cell_length_c 6.883200
_cell_angle_alpha 90.000000
_cell_angle_beta 90.000000
_cell_angle_gamma 90.000000
_cell_volume 1545.063956
_symmetry_space_group_name_H-M "P N N A"
_symmetry_group_IT_number 52
_symmetry_cell_setting 'orthorhombic'
loop_
_space_group_symop_operation_xyz
x,y,z
1/2-x,-y,z
x,1/2-y,1/2-z
1/2-x,1/2+y,1/2-z
-x,-y,-z
1/2+x,y,-z
-x,1/2+y,1/2+z
1/2+x,1/2-y,1/2+z
loop_
_atom_site_type_symbol
_atom_site_label
_atom_site_fract_x
_atom_site_fract_y
_atom_site_fract_z
Si Si1 0.600080 0.708019 0.931019
Si Si2 0.909174 0.548662 0.409553
Si Si3 0.702509 0.225528 0.025661
Si Si4 0.928068 0.620796 0.965316
Si Si5 0.654378 0.530475 0.734902
O O1 0.545158 0.750000 0.750000
O O2 0.522832 0.672406 0.073883
O O3 0.637539 0.621280 0.833230
O O4 0.688452 0.766106 0.982385
O O5 0.857254 0.636471 0.495758
O O6 0.922065 0.578219 0.185168
O O7 0.843937 0.473250 0.499858
O O8 0.000000 0.500000 0.500000
O O9 0.697115 0.250000 0.250000
O O10 0.650786 0.307827 0.929955
O O11 0.914830 0.539748 0.824818
O O12 0.750000 0.500000 0.812232
#
# Coordination Sequence:
#
# PCOD9412787 Si02
#       5
#     8   8   8   8   8
#     4  12  24  46  71 104 149 192 250 311 378 455
#     4  11  24  45  75 109 148 198 257 311 384 457
#     4  10  24  48  70 107 151 198 248 318 386 454
#     4  11  25  48  75 106 151 194 252 317 378 459
#     4  12  25  46  73 107 147 198 248 312 379 453
#
# _framework density 25.888895999999999
#
# number of rings (size 3 to 8) (size 9 to 14) (size 15 to 20)
#    0.000    0.800    4.000    3.600    0.000    0.800 
#   10.800    0.000    0.000    0.000    0.000    0.000 
#    0.000    0.000    0.000    0.000    0.000    0.000 
#
# Total GULP energy -222695.897751 kJ/mol
# GULP energy per Si atom -5567.397444 kJ/mol
# Density = 2.582997 g / cm^3
# Si number density = 25.888896 Si / 1000 Ang^3
#
#
#
# Elastic Constant Matrix: (Units=GPa)
#
#
# Indices 1 2 3 4 5 6 
#
# 1 152.5113 41.4129 21.7137 0.0000 0.0000 0.0000
# 2 41.4129 122.0127 36.0011 0.0000 0.0000 0.0000
# 3 21.7137 36.0011 101.2530 0.0000 0.0000 0.0000
# 4 0.0000 0.0000 0.0000 52.7809 0.0000 0.0000
# 5 0.0000 0.0000 0.0000 0.0000 55.1692 0.0000
# 6 0.0000 0.0000 0.0000 0.0000 0.0000 49.9430
#
#
#
# Elastic Compliance Matrix: (Units=1/GPa)
#
#
# Indices 1 2 3 4 5 6 
#
# 1 0.007275 -0.002244 -0.000762 0.000000 0.000000 0.000000
# 2 -0.002244 0.009849 -0.003021 0.000000 0.000000 0.000000
# 3 -0.000762 -0.003021 0.011114 0.000000 0.000000 0.000000
# 4 0.000000 0.000000 0.000000 0.018946 0.000000 0.000000
# 5 0.000000 0.000000 0.000000 0.000000 0.018126 0.000000
# 6 0.000000 0.000000 0.000000 0.000000 0.000000 0.020023
#
#
# Mechanical properties :
#
#
# Convention : Reuss Voigt Hill
#
# Bulk Modulus (GPa) = 61.79158 63.78138 62.78648
# Shear Modulus (GPa) = 48.64720 50.02190 49.33455
#
# Velocity S-wave (km/s) = 4.33953 4.40042 4.37008
# Velocity P-wave (km/s) = 7.00204 7.10692 7.05467
#
# Compressibility (1/GPa) = 0.01618343
#
# Stress axis : x y z
#
# Youngs Moduli (GPa) = 137.46054 101.53459 89.97940
#
# Poissons Ratio (x) = 0.22788 0.06857
# Poissons Ratio (y) = 0.30850 0.27179
# Poissons Ratio (z) = 0.10476 0.30669
#
# Static dielectric constant tensor:
#      x y z
#    x 2.315530 0.000000 0.000000 
#    y 0.000000 1.913930 0.000000 
#    z 0.000000 0.000000 2.106710 
# 
# From -- ./inp_files/10024.got.cif
#   From: 2010.05.17/outbox.cif.g08.bks.cpg/sg52_6_cif.got.tgz:10024.got - 2010.06.03 12:15:38.
