data_PCOD9412232
_publ_section_title
;
Structure prediction by ZEFSAII (Michael W. Deem and Ramdas Pophale) SiO2 
 PCOD9412232
Probable space group: P N N A
;
_chemical_formula_sum "Si O2"
_cell_formula_units_Z 64
_cell_length_a 12.312361
_cell_length_b 14.026487
_cell_length_c 19.088261
_cell_angle_alpha 90.000000
_cell_angle_beta 90.000000
_cell_angle_gamma 90.000000
_cell_volume 3296.526860
_symmetry_space_group_name_H-M "P N N A"
_symmetry_group_IT_number 52
_symmetry_cell_setting 'orthorhombic'
loop_
_space_group_symop_operation_xyz
x,y,z
1/2-x,-y,z
x,1/2-y,1/2-z
1/2-x,1/2+y,1/2-z
-x,-y,-z
1/2+x,y,-z
-x,1/2+y,1/2+z
1/2+x,1/2-y,1/2+z
loop_
_atom_site_type_symbol
_atom_site_label
_atom_site_fract_x
_atom_site_fract_y
_atom_site_fract_z
Si Si1 0.994530 0.346957 0.211816
Si Si2 0.774692 0.888756 0.505745
Si Si3 0.893383 0.240055 0.421480
Si Si4 0.718226 0.394115 0.384392
Si Si5 0.235915 0.388821 0.173330
Si Si6 0.365589 0.967136 0.734384
Si Si7 0.973003 0.186190 0.684645
Si Si8 0.948487 0.758170 0.041088
O O1 0.964828 0.250000 0.250000
O O2 0.949194 0.330416 0.133855
O O3 0.936729 0.437980 0.246183
O O4 0.124422 0.356403 0.208820
O O5 0.682088 0.824884 0.470487
O O6 0.774819 0.876300 0.589572
O O7 0.884618 0.840129 0.476964
O O8 0.750000 0.000000 0.491074
O O9 0.820303 0.321458 0.384536
O O10 0.982447 0.285074 0.473133
O O11 0.750000 0.500000 0.409537
O O12 0.667662 0.413620 0.306857
O O13 0.633814 0.340805 0.435035
O O14 0.250000 0.500000 0.187328
O O15 0.348645 0.342594 0.196647
O O16 0.441183 0.900725 0.686747
O O17 0.250000 0.000000 0.702332
O O18 0.007466 0.250000 0.750000
O O19 0.981212 0.237446 0.610179
#
# Coordination Sequence:
#
# PCOD9412232 Si02
#       8
#     8   8   8   8   8   8   8   8
#     4  12  25  42  67  95 130 174 217 280 332 392
#     4  10  23  38  61  96 136 168 210 265 328 402
#     4  11  24  42  67  97 132 174 224 272 337 396
#     4  10  23  46  65  94 131 171 229 283 329 397
#     4  11  22  42  64  93 133 173 213 266 330 398
#     4  11  25  41  65  97 133 170 221 275 338 396
#     4  12  24  41  65  95 133 178 218 268 334 401
#     4  11  23  40  67  95 130 178 222 269 337 399
#
# _framework density 19.414373000000001
#
# number of rings (size 3 to 8) (size 9 to 14) (size 15 to 20)
#    0.000    1.000    5.000    1.875    5.250    1.500 
#    0.000    0.000    0.000    1.500    0.000    0.000 
#    0.000    0.000    0.000    0.000    0.000    0.000 
#
# Total GULP energy -357298.558753 kJ/mol
# GULP energy per Si atom -5582.789981 kJ/mol
# Density = 1.937019 g / cm^3
# Si number density = 19.414373 Si / 1000 Ang^3
#
#
#
# Elastic Constant Matrix: (Units=GPa)
#
#
# Indices 1 2 3 4 5 6 
#
# 1 118.4251 34.4476 20.3389 0.0000 0.0000 0.0000
# 2 34.4476 94.8133 21.8230 0.0000 0.0000 0.0000
# 3 20.3389 21.8230 63.2652 0.0000 0.0000 0.0000
# 4 0.0000 0.0000 0.0000 26.2386 0.0000 0.0000
# 5 0.0000 0.0000 0.0000 0.0000 30.8546 0.0000
# 6 0.0000 0.0000 0.0000 0.0000 0.0000 34.9965
#
#
#
# Elastic Compliance Matrix: (Units=1/GPa)
#
#
# Indices 1 2 3 4 5 6 
#
# 1 0.009684 -0.003043 -0.002063 0.000000 0.000000 0.000000
# 2 -0.003043 0.012413 -0.003303 0.000000 0.000000 0.000000
# 3 -0.002063 -0.003303 0.017609 0.000000 0.000000 0.000000
# 4 0.000000 0.000000 0.000000 0.038112 0.000000 0.000000
# 5 0.000000 0.000000 0.000000 0.000000 0.032410 0.000000
# 6 0.000000 0.000000 0.000000 0.000000 0.000000 0.028574
#
#
# Mechanical properties :
#
#
# Convention : Reuss Voigt Hill
#
# Bulk Modulus (GPa) = 43.69523 47.74696 45.72110
# Shear Modulus (GPa) = 30.62760 31.74421 31.18591
#
# Velocity S-wave (km/s) = 3.97618 4.04801 4.01225
# Velocity P-wave (km/s) = 6.60572 6.81876 6.71308
#
# Compressibility (1/GPa) = 0.02288579
#
# Stress axis : x y z
#
# Youngs Moduli (GPa) = 103.26524 80.55992 56.78810
#
# Poissons Ratio (x) = 0.24518 0.11718
# Poissons Ratio (y) = 0.31428 0.18760
# Poissons Ratio (z) = 0.21308 0.26612
#
# Static dielectric constant tensor:
#      x y z
#    x 1.719260 0.000000 0.000000 
#    y 0.000000 1.661770 0.000000 
#    z 0.000000 0.000000 1.676750 
# 
# From -- ./inp_files/32403.got.cif
#   From: 2010.05.17/outbox.cif.g08.bks.cpg/sg52_17_cif.got.tgz:32403.got - 2010.06.03 12:15:38.
