data_PCOD9412517
_publ_section_title
;
Structure prediction by ZEFSAII (Michael W. Deem and Ramdas Pophale) SiO2 
 PCOD9412517
Probable space group: P N N A
;
_chemical_formula_sum "Si O2"
_cell_formula_units_Z 40
_cell_length_a 9.505021
_cell_length_b 18.277475
_cell_length_c 8.118635
_cell_angle_alpha 90.000000
_cell_angle_beta 90.000000
_cell_angle_gamma 90.000000
_cell_volume 1410.432465
_symmetry_space_group_name_H-M "P N N A"
_symmetry_group_IT_number 52
_symmetry_cell_setting 'orthorhombic'
loop_
_space_group_symop_operation_xyz
x,y,z
1/2-x,-y,z
x,1/2-y,1/2-z
1/2-x,1/2+y,1/2-z
-x,-y,-z
1/2+x,y,-z
-x,1/2+y,1/2+z
1/2+x,1/2-y,1/2+z
loop_
_atom_site_type_symbol
_atom_site_label
_atom_site_fract_x
_atom_site_fract_y
_atom_site_fract_z
Si Si1 0.282292 0.863117 0.885521
Si Si2 0.958060 0.544685 0.169295
Si Si3 0.490221 0.230205 0.927826
Si Si4 0.825597 0.174122 0.646647
Si Si5 0.643705 0.437836 0.723054
O O1 0.317155 0.912493 0.724709
O O2 0.125410 0.832750 0.899300
O O3 0.391611 0.795352 0.938730
O O4 0.309706 0.912467 0.044810
O O5 0.064538 0.612217 0.203004
O O6 0.995096 0.477726 0.289607
O O7 0.000000 0.500000 0.000000
O O8 0.549451 0.250000 0.750000
O O9 0.392928 0.298250 0.979244
O O10 0.831077 0.250000 0.750000
O O11 0.679342 0.129617 0.654634
O O12 0.750000 0.500000 0.784092
#
# Coordination Sequence:
#
# PCOD9412517 Si02
#       5
#     8   8   8   8   8
#     4  12  26  51  76 116 162 213 273 342 409 512
#     4  11  26  44  75 110 156 210 269 336 408 493
#     4  12  30  45  82 120 159 212 279 344 419 494
#     4  11  22  49  73 106 157 209 263 333 414 477
#     4  10  23  47  75 104 151 216 257 326 413 482
#
# _framework density 28.360095000000001
#
# number of rings (size 3 to 8) (size 9 to 14) (size 15 to 20)
#    0.000    0.800    4.000    1.800   11.200    0.000 
#    0.000    0.000    0.000    0.000    0.000    0.000 
#    0.000    0.000    0.000    0.000    0.000    0.000 
#
# Total GULP energy -223268.304433 kJ/mol
# GULP energy per Si atom -5581.707611 kJ/mol
# Density = 2.829555 g / cm^3
# Si number density = 28.360095 Si / 1000 Ang^3
#
#
#
# Elastic Constant Matrix: (Units=GPa)
#
#
# Indices 1 2 3 4 5 6 
#
# 1 114.4786 48.3887 -11.6904 0.0000 0.0000 0.0000
# 2 48.3887 181.2564 23.0604 0.0000 0.0000 0.0000
# 3 -11.6904 23.0604 114.6665 0.0000 0.0000 0.0000
# 4 0.0000 0.0000 0.0000 66.1415 0.0000 0.0000
# 5 0.0000 0.0000 0.0000 0.0000 -3.6897 0.0000
# 6 0.0000 0.0000 0.0000 0.0000 0.0000 44.2252
#
#
#
# Elastic Compliance Matrix: (Units=1/GPa)
#
#
# Indices 1 2 3 4 5 6 
#
# 1 0.010131 -0.002910 0.001618 0.000000 0.000000 0.000000
# 2 -0.002910 0.006498 -0.001604 0.000000 0.000000 0.000000
# 3 0.001618 -0.001604 0.009208 0.000000 0.000000 0.000000
# 4 0.000000 0.000000 0.000000 0.015119 0.000000 0.000000
# 5 0.000000 0.000000 0.000000 0.000000 -0.271023 0.000000
# 6 0.000000 0.000000 0.000000 0.000000 0.000000 0.022612
#
#
# Mechanical properties :
#
#
# Convention : Reuss Voigt Hill
#
# Bulk Modulus (GPa) = 49.88637 58.87989 54.38313
# Shear Modulus (GPa) = -25.64340 44.71157 9.53408
#
# Velocity S-wave (km/s) = -3.01027 3.97491 1.83551
# Velocity P-wave (km/s) = 2.35505 6.47094 4.86926
#
# Compressibility (1/GPa) = 0.02004556
#
# Stress axis : x y z
#
# Youngs Moduli (GPa) = 98.71005 153.89303 108.59651
#
# Poissons Ratio (x) = 0.44789 -0.17572
# Poissons Ratio (y) = 0.28728 0.17414
# Poissons Ratio (z) = -0.15973 0.24677
#
# Static dielectric constant tensor:
#      x y z
#    x 2.351390 0.000000 0.000000 
#    y 0.000000 2.106420 0.000000 
#    z 0.000000 0.000000 2.389240 
# 
# From -- ./inp_files/8533.got.cif
#   From: 2010.05.17/outbox.cif.g08.bks.cpg/sg52_5_cif.got.tgz:8533.got - 2010.06.03 12:15:38.
