data_PCOD9412386
_publ_section_title
;
Structure prediction by ZEFSAII (Michael W. Deem and Ramdas Pophale) SiO2 
 PCOD9412386
Probable space group: P N N A
;
_chemical_formula_sum "Si O2"
_cell_formula_units_Z 32
_cell_length_a 13.781869
_cell_length_b 5.195776
_cell_length_c 16.911038
_cell_angle_alpha 90.000000
_cell_angle_beta 90.000000
_cell_angle_gamma 90.000000
_cell_volume 1210.957224
_symmetry_space_group_name_H-M "P N N A"
_symmetry_group_IT_number 52
_symmetry_cell_setting 'orthorhombic'
loop_
_space_group_symop_operation_xyz
x,y,z
1/2-x,-y,z
x,1/2-y,1/2-z
1/2-x,1/2+y,1/2-z
-x,-y,-z
1/2+x,y,-z
-x,1/2+y,1/2+z
1/2+x,1/2-y,1/2+z
loop_
_atom_site_type_symbol
_atom_site_label
_atom_site_fract_x
_atom_site_fract_y
_atom_site_fract_z
Si Si1 0.512509 0.309238 0.402516
Si Si2 0.362422 0.432923 0.820944
Si Si3 0.361025 0.997582 0.502569
Si Si4 0.642736 0.004547 0.805302
O O1 0.430039 0.119937 0.437923
O O2 0.446500 0.528140 0.365701
O O3 0.571134 0.181760 0.330668
O O4 0.594743 0.280579 0.470568
O O5 0.250000 0.500000 0.806915
O O6 0.392642 0.250000 0.750000
O O7 0.365961 0.341112 0.913527
O O8 0.250000 0.000000 0.478009
O O9 0.634071 0.750000 0.750000
O O10 0.750000 0.000000 0.844246
O O11 0.641567 0.250000 0.750000
#
# Coordination Sequence:
#
# PCOD9412386 Si02
#       4
#     8   8   8   8
#     4   9  18  38  67  96 143 196 249 306 374 455
#     4   9  18  35  62 102 150 198 247 318 380 456
#     4   8  17  36  67 102 148 197 252 315 380 453
#     4  10  23  43  68 103 145 196 249 310 376 447
#
# _framework density 26.425374999999999
#
# number of rings (size 3 to 8) (size 9 to 14) (size 15 to 20)
#    1.500    1.500    0.000    0.000    0.000    5.000 
#    0.000    3.750    0.000    7.500    0.000    0.000 
#    0.000    0.000    0.000    0.000    0.000    0.000 
#
# Total GULP energy -178665.548167 kJ/mol
# GULP energy per Si atom -5583.298380 kJ/mol
# Density = 2.636523 g / cm^3
# Si number density = 26.425375 Si / 1000 Ang^3
#
#
#
# Elastic Constant Matrix: (Units=GPa)
#
#
# Indices 1 2 3 4 5 6 
#
# 1 219.7057 19.9556 29.1172 0.0000 0.0000 0.0000
# 2 19.9556 76.4043 29.9634 0.0000 0.0000 0.0000
# 3 29.1172 29.9634 110.7886 0.0000 0.0000 0.0000
# 4 0.0000 0.0000 0.0000 49.1697 0.0000 0.0000
# 5 0.0000 0.0000 0.0000 0.0000 271.2987 0.0000
# 6 0.0000 0.0000 0.0000 0.0000 0.0000 20.0726
#
#
#
# Elastic Compliance Matrix: (Units=1/GPa)
#
#
# Indices 1 2 3 4 5 6 
#
# 1 0.004764 -0.000843 -0.001024 0.000000 0.000000 0.000000
# 2 -0.000843 0.014790 -0.003779 0.000000 0.000000 0.000000
# 3 -0.001024 -0.003779 0.010317 0.000000 0.000000 0.000000
# 4 0.000000 0.000000 0.000000 0.020338 0.000000 0.000000
# 5 0.000000 0.000000 0.000000 0.000000 0.003686 0.000000
# 6 0.000000 0.000000 0.000000 0.000000 0.000000 0.049819
#
#
# Mechanical properties :
#
#
# Convention : Reuss Voigt Hill
#
# Bulk Modulus (GPa) = 53.81964 62.77457 58.29710
# Shear Modulus (GPa) = 41.25463 89.96568 65.61016
#
# Velocity S-wave (km/s) = 3.95546 5.84116 4.98822
# Velocity P-wave (km/s) = 6.42431 8.32461 7.43542
#
# Compressibility (1/GPa) = 0.01858058
#
# Stress axis : x y z
#
# Youngs Moduli (GPa) = 209.91645 67.61224 96.92442
#
# Poissons Ratio (x) = 0.05697 0.09926
# Poissons Ratio (y) = 0.17688 0.36624
# Poissons Ratio (z) = 0.21498 0.25548
#
# Static dielectric constant tensor:
#      x y z
#    x 2.008170 0.000000 0.000000 
#    y 0.000000 2.128910 0.000000 
#    z 0.000000 0.000000 2.038120 
# 
# From -- ./inp_files/32596.got.cif
#   From: 2010.05.17/outbox.cif.g08.bks.cpg/sg52_17_cif.got.tgz:32596.got - 2010.06.03 12:15:38.
