data_PCOD9412623
_publ_section_title
;
Structure prediction by ZEFSAII (Michael W. Deem and Ramdas Pophale) SiO2 
 PCOD9412623
Probable space group: P N N A
;
_chemical_formula_sum "Si O2"
_cell_formula_units_Z 32
_cell_length_a 11.579230
_cell_length_b 7.479283
_cell_length_c 15.337590
_cell_angle_alpha 90.000000
_cell_angle_beta 90.000000
_cell_angle_gamma 90.000000
_cell_volume 1328.301830
_symmetry_space_group_name_H-M "P N N A"
_symmetry_group_IT_number 52
_symmetry_cell_setting 'orthorhombic'
loop_
_space_group_symop_operation_xyz
x,y,z
1/2-x,-y,z
x,1/2-y,1/2-z
1/2-x,1/2+y,1/2-z
-x,-y,-z
1/2+x,y,-z
-x,1/2+y,1/2+z
1/2+x,1/2-y,1/2+z
loop_
_atom_site_type_symbol
_atom_site_label
_atom_site_fract_x
_atom_site_fract_y
_atom_site_fract_z
Si Si1 0.868314 0.746510 0.012533
Si Si2 0.750000 0.000000 0.607289
Si Si3 0.958244 0.479865 0.611835
Si Si4 0.682240 0.816274 0.151605
Si Si5 0.349618 0.250000 0.250000
O O1 0.760695 0.720640 0.079046
O O2 0.980025 0.804869 0.069249
O O3 0.855982 0.574005 0.951121
O O4 0.865306 0.924126 0.950222
O O5 0.781243 0.164218 0.670045
O O6 0.918502 0.413120 0.705855
O O7 0.054652 0.634271 0.620643
O O8 0.678427 0.750000 0.250000
O O9 0.750000 0.000000 0.158342
#
# Coordination Sequence:
#
# PCOD9412623 Si02
#       5
#     8   4   8   8   4
#     4  10  25  46  69 102 137 190 220 298 342 425
#     4  12  28  44  76  96 148 180 246 280 358 414
#     4  10  25  45  73  99 145 179 238 283 359 412
#     4  10  24  42  70 102 140 178 225 292 342 413
#     4  12  28  44  70 104 134 188 230 296 342 420
#
# _framework density 24.090910000000001
#
# number of rings (size 3 to 8) (size 9 to 14) (size 15 to 20)
#    0.000    1.500    0.000    1.500   26.250    1.000 
#    0.000    0.000    0.000    0.000    0.000    0.000 
#    0.000    0.000    0.000    0.000    0.000    0.000 
#
# Total GULP energy -178548.667237 kJ/mol
# GULP energy per Si atom -5579.645851 kJ/mol
# Density = 2.403608 g / cm^3
# Si number density = 24.090910 Si / 1000 Ang^3
#
#
#
# Elastic Constant Matrix: (Units=GPa)
#
#
# Indices 1 2 3 4 5 6 
#
# 1 69.1992 17.0241 40.4360 0.0000 0.0000 0.0000
# 2 17.0241 63.7920 31.0192 0.0000 0.0000 0.0000
# 3 40.4360 31.0192 140.7572 0.0000 0.0000 0.0000
# 4 0.0000 0.0000 0.0000 51.5238 0.0000 0.0000
# 5 0.0000 0.0000 0.0000 0.0000 15.7053 0.0000
# 6 0.0000 0.0000 0.0000 0.0000 0.0000 17.8822
#
#
#
# Elastic Compliance Matrix: (Units=1/GPa)
#
#
# Indices 1 2 3 4 5 6 
#
# 1 0.017722 -0.002524 -0.004535 0.000000 0.000000 0.000000
# 2 -0.002524 0.017917 -0.003223 0.000000 0.000000 0.000000
# 3 -0.004535 -0.003223 0.009117 0.000000 0.000000 0.000000
# 4 0.000000 0.000000 0.000000 0.019409 0.000000 0.000000
# 5 0.000000 0.000000 0.000000 0.000000 0.063673 0.000000
# 6 0.000000 0.000000 0.000000 0.000000 0.000000 0.055921
#
#
# Mechanical properties :
#
#
# Convention : Reuss Voigt Hill
#
# Bulk Modulus (GPa) = 41.33668 50.07856 45.70762
# Shear Modulus (GPa) = 23.54183 29.37352 26.45768
#
# Velocity S-wave (km/s) = 3.12942 3.49560 3.31757
# Velocity P-wave (km/s) = 5.50033 6.09301 5.80424
#
# Compressibility (1/GPa) = 0.02419159
#
# Stress axis : x y z
#
# Youngs Moduli (GPa) = 56.42725 55.81307 109.67956
#
# Poissons Ratio (x) = 0.14089 0.49737
# Poissons Ratio (y) = 0.14244 0.35352
# Poissons Ratio (z) = 0.25588 0.17990
#
# Static dielectric constant tensor:
#      x y z
#    x 2.197560 0.000000 0.000000 
#    y 0.000000 2.464610 0.000000 
#    z 0.000000 0.000000 2.334720 
# 
# From -- ./inp_files/25558.got.cif
#   From: 2010.05.17/outbox.cif.g08.bks.cpg/sg52_13_cif.got.tgz:25558.got - 2010.06.03 12:15:38.
