data_PCOD9412920
_publ_section_title
;
Structure prediction by ZEFSAII (Michael W. Deem and Ramdas Pophale) SiO2 
 PCOD9412920
Probable space group: P N N A
;
_chemical_formula_sum "Si O2"
_cell_formula_units_Z 60
_cell_length_a 20.723034
_cell_length_b 22.749238
_cell_length_c 6.352354
_cell_angle_alpha 90.000000
_cell_angle_beta 90.000000
_cell_angle_gamma 90.000000
_cell_volume 2994.710781
_symmetry_space_group_name_H-M "P N N A"
_symmetry_group_IT_number 52
_symmetry_cell_setting 'orthorhombic'
loop_
_space_group_symop_operation_xyz
x,y,z
1/2-x,-y,z
x,1/2-y,1/2-z
1/2-x,1/2+y,1/2-z
-x,-y,-z
1/2+x,y,-z
-x,1/2+y,1/2+z
1/2+x,1/2-y,1/2+z
loop_
_atom_site_type_symbol
_atom_site_label
_atom_site_fract_x
_atom_site_fract_y
_atom_site_fract_z
Si Si1 0.503717 0.434843 0.908578
Si Si2 0.722037 0.058126 0.714604
Si Si3 0.789010 0.349221 0.484970
Si Si4 0.778006 0.750000 0.750000
Si Si5 0.568669 0.610430 0.452586
Si Si6 0.555991 0.122421 0.204784
Si Si7 0.186102 0.340934 0.892554
Si Si8 0.401939 0.979602 0.064296
O O1 0.441814 0.412050 0.784724
O O2 0.558931 0.442973 0.736446
O O3 0.500000 0.500000 0.000000
O O4 0.522297 0.385665 0.072969
O O5 0.691056 0.101349 0.541691
O O6 0.671060 0.030932 0.877658
O O7 0.750000 0.000000 0.604614
O O8 0.768659 0.095932 0.865381
O O9 0.766250 0.294321 0.620953
O O10 0.865929 0.352998 0.460495
O O11 0.747724 0.344713 0.266925
O O12 0.813972 0.787756 0.565032
O O13 0.502664 0.639076 0.545719
O O14 0.577742 0.547348 0.570297
O O15 0.621904 0.158416 0.244774
O O16 0.579562 0.056160 0.144039
#
# Coordination Sequence:
#
# PCOD9412920 Si02
#       8
#     8   8   8   4   8   8   8   8
#     4  11  19  32  54  87 133 183 210 237 301 383
#     4  11  22  34  60  99 136 167 215 262 310 392
#     4  11  24  44  66  92 126 167 220 276 331 383
#     4  10  26  48  72  90 110 164 232 284 334 380
#     4  11  23  34  61  95 134 180 211 249 318 398
#     4  11  21  36  60  92 132 169 211 261 311 384
#     4  11  24  42  69  93 123 170 220 273 326 379
#     4  11  19  33  53  93 134 174 213 244 307 393
#
# _framework density 20.035325
#
# number of rings (size 3 to 8) (size 9 to 14) (size 15 to 20)
#    0.000    1.067    6.667    1.200    0.000    4.800 
#    0.000    0.000    5.867    0.000    0.000    0.000 
#    0.000    0.000    0.000    0.000    0.000    0.000 
#
# Total GULP energy -334164.290712 kJ/mol
# GULP energy per Si atom -5569.404845 kJ/mol
# Density = 1.998972 g / cm^3
# Si number density = 20.035325 Si / 1000 Ang^3
#
#
#
# Elastic Constant Matrix: (Units=GPa)
#
#
# Indices 1 2 3 4 5 6 
#
# 1 125.2899 36.1107 33.7687 0.0000 0.0000 0.0000
# 2 36.1107 79.3730 21.9514 0.0000 0.0000 0.0000
# 3 33.7687 21.9514 76.4263 0.0000 0.0000 0.0000
# 4 0.0000 0.0000 0.0000 14.4347 0.0000 0.0000
# 5 0.0000 0.0000 0.0000 0.0000 22.3619 0.0000
# 6 0.0000 0.0000 0.0000 0.0000 0.0000 14.1803
#
#
#
# Elastic Compliance Matrix: (Units=1/GPa)
#
#
# Indices 1 2 3 4 5 6 
#
# 1 0.009918 -0.003585 -0.003353 0.000000 0.000000 0.000000
# 2 -0.003585 0.014982 -0.002719 0.000000 0.000000 0.000000
# 3 -0.003353 -0.002719 0.015347 0.000000 0.000000 0.000000
# 4 0.000000 0.000000 0.000000 0.069278 0.000000 0.000000
# 5 0.000000 0.000000 0.000000 0.000000 0.044719 0.000000
# 6 0.000000 0.000000 0.000000 0.000000 0.000000 0.070520
#
#
# Mechanical properties :
#
#
# Convention : Reuss Voigt Hill
#
# Bulk Modulus (GPa) = 47.77075 51.63898 49.70486
# Shear Modulus (GPa) = 19.91591 22.81260 21.36426
#
# Velocity S-wave (km/s) = 3.15626 3.37800 3.26901
# Velocity P-wave (km/s) = 6.09735 6.40660 6.25388
#
# Compressibility (1/GPa) = 0.02093331
#
# Stress axis : x y z
#
# Youngs Moduli (GPa) = 100.82251 66.74776 65.15999
#
# Poissons Ratio (x) = 0.23930 0.21846
# Poissons Ratio (y) = 0.36147 0.17717
# Poissons Ratio (z) = 0.33802 0.18149
#
# Static dielectric constant tensor:
#      x y z
#    x 1.768930 0.000000 0.000000 
#    y 0.000000 1.737970 0.000000 
#    z 0.000000 0.000000 1.787570 
# 
# From -- ./inp_files/5264.got.cif
#   From: 2010.05.17/outbox.cif.g08.bks.cpg/sg52_3_cif.got.tgz:5264.got - 2010.06.03 12:15:38.
