data_PCOD9412222
_publ_section_title
;
Structure prediction by ZEFSAII (Michael W. Deem and Ramdas Pophale) SiO2 
 PCOD9412222
Probable space group: P N N A
;
_chemical_formula_sum "Si O2"
_cell_formula_units_Z 24
_cell_length_a 12.230909
_cell_length_b 13.949009
_cell_length_c 6.287119
_cell_angle_alpha 90.000000
_cell_angle_beta 90.000000
_cell_angle_gamma 90.000000
_cell_volume 1072.639461
_symmetry_space_group_name_H-M "P N N A"
_symmetry_group_IT_number 52
_symmetry_cell_setting 'orthorhombic'
loop_
_space_group_symop_operation_xyz
x,y,z
1/2-x,-y,z
x,1/2-y,1/2-z
1/2-x,1/2+y,1/2-z
-x,-y,-z
1/2+x,y,-z
-x,1/2+y,1/2+z
1/2+x,1/2-y,1/2+z
loop_
_atom_site_type_symbol
_atom_site_label
_atom_site_fract_x
_atom_site_fract_y
_atom_site_fract_z
Si Si1 0.878647 0.334275 0.884315
Si Si2 0.472732 0.750000 0.250000
Si Si3 0.250000 0.500000 0.881139
Si Si4 0.933116 0.908074 0.078821
O O1 0.819384 0.250000 0.750000
O O2 0.977602 0.360789 0.730057
O O3 0.806766 0.422932 0.963313
O O4 0.943195 0.301558 0.092371
O O5 0.410624 0.668399 0.389337
O O6 0.167846 0.443173 0.722801
O O7 0.000000 0.000000 0.000000
#
# Coordination Sequence:
#
# PCOD9412222 Si02
#       4
#     8   4   4   8
#     4  10  24  49  70 105 150 187 244 310 363 442
#     4  10  22  50  68 104 154 186 238 316 366 422
#     4  12  24  46  76 110 142 206 252 296 378 444
#     4  11  24  47  73 103 150 193 244 308 365 442
#
# _framework density 22.374711999999999
#
# number of rings (size 3 to 8) (size 9 to 14) (size 15 to 20)
#    0.000    1.333    3.333    1.000    0.000    1.333 
#   12.000    0.000    0.000    0.000    0.000    0.000 
#    0.000    0.000    0.000    0.000    0.000    0.000 
#
# Total GULP energy -134025.544535 kJ/mol
# GULP energy per Si atom -5584.397689 kJ/mol
# Density = 2.232379 g / cm^3
# Si number density = 22.374712 Si / 1000 Ang^3
#
#
#
# Elastic Constant Matrix: (Units=GPa)
#
#
# Indices 1 2 3 4 5 6 
#
# 1 109.4539 81.0433 62.3584 0.0000 0.0000 0.0000
# 2 81.0433 176.2305 98.5703 0.0000 0.0000 0.0000
# 3 62.3584 98.5703 154.2545 0.0000 0.0000 0.0000
# 4 0.0000 0.0000 0.0000 75.0108 0.0000 0.0000
# 5 0.0000 0.0000 0.0000 0.0000 295.5907 0.0000
# 6 0.0000 0.0000 0.0000 0.0000 0.0000 31.0632
#
#
#
# Elastic Compliance Matrix: (Units=1/GPa)
#
#
# Indices 1 2 3 4 5 6 
#
# 1 0.014439 -0.005252 -0.002481 0.000000 0.000000 0.000000
# 2 -0.005252 0.010741 -0.004740 0.000000 0.000000 0.000000
# 3 -0.002481 -0.004740 0.010515 0.000000 0.000000 0.000000
# 4 0.000000 0.000000 0.000000 0.013331 0.000000 0.000000
# 5 0.000000 0.000000 0.000000 0.000000 0.003383 0.000000
# 6 0.000000 0.000000 0.000000 0.000000 0.000000 0.032192
#
#
# Mechanical properties :
#
#
# Convention : Reuss Voigt Hill
#
# Bulk Modulus (GPa) = 93.04265 102.65367 97.84816
# Shear Modulus (GPa) = 44.19652 93.53072 68.86362
#
# Velocity S-wave (km/s) = 4.44924 6.47246 5.55376
# Velocity P-wave (km/s) = 8.25036 10.09138 9.21695
#
# Compressibility (1/GPa) = 0.01074776
#
# Stress axis : x y z
#
# Youngs Moduli (GPa) = 69.25893 93.09840 95.10433
#
# Poissons Ratio (x) = 0.48900 0.23591
# Poissons Ratio (y) = 0.36378 0.45084
# Poissons Ratio (z) = 0.17180 0.44133
#
# Static dielectric constant tensor:
#      x y z
#    x 1.788200 0.000000 0.000000 
#    y 0.000000 1.891500 0.000000 
#    z 0.000000 0.000000 1.768040 
# 
# From -- ./inp_files/728.got.cif
#   From: 2010.05.17/outbox.cif.g08.bks.cpg/sg52_1_cif.got.tgz:728.got - 2010.06.03 12:15:38.
