data_PCOD9412296
_publ_section_title
;
Structure prediction by ZEFSAII (Michael W. Deem and Ramdas Pophale) SiO2 
 PCOD9412296
Probable space group: P N N A
;
_chemical_formula_sum "Si O2"
_cell_formula_units_Z 60
_cell_length_a 14.213512
_cell_length_b 8.524423
_cell_length_c 22.697826
_cell_angle_alpha 90.000000
_cell_angle_beta 90.000000
_cell_angle_gamma 90.000000
_cell_volume 2750.113735
_symmetry_space_group_name_H-M "P N N A"
_symmetry_group_IT_number 52
_symmetry_cell_setting 'orthorhombic'
loop_
_space_group_symop_operation_xyz
x,y,z
1/2-x,-y,z
x,1/2-y,1/2-z
1/2-x,1/2+y,1/2-z
-x,-y,-z
1/2+x,y,-z
-x,1/2+y,1/2+z
1/2+x,1/2-y,1/2+z
loop_
_atom_site_type_symbol
_atom_site_label
_atom_site_fract_x
_atom_site_fract_y
_atom_site_fract_z
Si Si1 0.596084 0.574806 0.739936
Si Si2 0.102313 0.762491 0.583128
Si Si3 0.487838 0.752435 0.532927
Si Si4 0.229022 0.314965 0.505182
Si Si5 0.962934 0.507809 0.612805
Si Si6 0.276112 0.750000 0.250000
Si Si7 0.012857 0.509916 0.138271
Si Si8 0.814107 0.787505 0.615095
O O1 0.647242 0.750000 0.750000
O O2 0.549623 0.574254 0.675900
O O3 0.661454 0.418852 0.743340
O O4 0.526167 0.564194 0.794712
O O5 0.206237 0.749712 0.557973
O O6 0.062047 0.596952 0.606082
O O7 0.038789 0.809282 0.525989
O O8 0.071519 0.884927 0.632654
O O9 0.380050 0.714697 0.519139
O O10 0.543282 0.600765 0.556063
O O11 0.491855 0.862420 0.589403
O O12 0.250000 0.500000 0.498622
O O13 0.247680 0.222013 0.443823
O O14 0.881575 0.636096 0.610073
O O15 0.261488 0.772815 0.323677
O O16 0.112602 0.430451 0.120067
#
# Coordination Sequence:
#
# PCOD9412296 Si02
#       8
#     8   8   8   8   8   4   8   8
#     4  10  23  41  66  96 128 184 216 273 331 400
#     4  11  25  40  65  99 131 178 223 279 338 399
#     4  12  22  45  66  94 140 175 227 278 335 409
#     4  12  25  40  70 101 132 178 229 281 338 394
#     4  11  21  42  68  90 131 178 224 269 328 406
#     4  10  24  42  60 104 140 170 232 262 328 424
#     4  11  24  45  63  95 138 179 220 268 343 405
#     4  11  25  39  64  99 140 181 211 277 330 405
#
# _framework density 21.817278999999999
#
# number of rings (size 3 to 8) (size 9 to 14) (size 15 to 20)
#    0.400    0.533    5.333    2.400    5.600    3.733 
#    0.000    0.000    0.000    4.800    0.000    0.000 
#    0.000    0.000    0.000    0.000    0.000    0.000 
#
# Total GULP energy -335138.929208 kJ/mol
# GULP energy per Si atom -5585.648820 kJ/mol
# Density = 2.176762 g / cm^3
# Si number density = 21.817279 Si / 1000 Ang^3
#
#
#
# Elastic Constant Matrix: (Units=GPa)
#
#
# Indices 1 2 3 4 5 6 
#
# 1 82.1541 3.7615 44.6877 0.0000 0.0000 0.0000
# 2 3.7615 53.7100 26.9964 0.0000 0.0000 0.0000
# 3 44.6877 26.9964 155.9737 0.0000 0.0000 0.0000
# 4 0.0000 0.0000 0.0000 39.3550 0.0000 0.0000
# 5 0.0000 0.0000 0.0000 0.0000 47.2598 0.0000
# 6 0.0000 0.0000 0.0000 0.0000 0.0000 7.0984
#
#
#
# Elastic Compliance Matrix: (Units=1/GPa)
#
#
# Indices 1 2 3 4 5 6 
#
# 1 0.014487 0.001174 -0.004354 0.000000 0.000000 0.000000
# 2 0.001174 0.020488 -0.003882 0.000000 0.000000 0.000000
# 3 -0.004354 -0.003882 0.008331 0.000000 0.000000 0.000000
# 4 0.000000 0.000000 0.000000 0.025410 0.000000 0.000000
# 5 0.000000 0.000000 0.000000 0.000000 0.021160 0.000000
# 6 0.000000 0.000000 0.000000 0.000000 0.000000 0.140878
#
#
# Mechanical properties :
#
#
# Convention : Reuss Voigt Hill
#
# Bulk Modulus (GPa) = 34.26950 49.19211 41.73081
# Shear Modulus (GPa) = 19.63837 33.16880 26.40358
#
# Velocity S-wave (km/s) = 3.00347 3.90333 3.48259
# Velocity P-wave (km/s) = 5.26967 6.55064 5.94476
#
# Compressibility (1/GPa) = 0.02918046
#
# Stress axis : x y z
#
# Youngs Moduli (GPa) = 69.02882 48.80974 120.03816
#
# Poissons Ratio (x) = -0.05729 0.52261
# Poissons Ratio (y) = -0.08102 0.46603
# Poissons Ratio (z) = 0.30053 0.18950
#
# Static dielectric constant tensor:
#      x y z
#    x 1.792850 0.000000 0.000000 
#    y 0.000000 1.941510 0.000000 
#    z 0.000000 0.000000 1.764610 
# 
# From -- ./inp_files/40647.got.cif
#   From: 2010.05.17/outbox.cif.g08.bks.cpg/sg52_21_cif.got.tgz:40647.got - 2010.06.03 12:15:38.
