data_PCOD9412621
_publ_section_title
;
Structure prediction by ZEFSAII (Michael W. Deem and Ramdas Pophale) SiO2 
 PCOD9412621
Probable space group: P N N A
;
_chemical_formula_sum "Si O2"
_cell_formula_units_Z 12
_cell_length_a 6.313681
_cell_length_b 12.721190
_cell_length_c 4.287756
_cell_angle_alpha 90.000000
_cell_angle_beta 90.000000
_cell_angle_gamma 90.000000
_cell_volume 344.381995
_symmetry_space_group_name_H-M "P N N A"
_symmetry_group_IT_number 52
_symmetry_cell_setting 'orthorhombic'
loop_
_space_group_symop_operation_xyz
x,y,z
1/2-x,-y,z
x,1/2-y,1/2-z
1/2-x,1/2+y,1/2-z
-x,-y,-z
1/2+x,y,-z
-x,1/2+y,1/2+z
1/2+x,1/2-y,1/2+z
loop_
_atom_site_type_symbol
_atom_site_label
_atom_site_fract_x
_atom_site_fract_y
_atom_site_fract_z
Si Si1 0.605220 0.584992 0.735326
Si Si2 0.116431 0.750000 0.750000
O O1 0.750000 0.500000 0.919782
O O2 0.500000 0.500000 0.500000
O O3 0.718968 0.666452 0.492481
O O4 0.518600 0.666871 0.996619
#
# Coordination Sequence:
#
# PCOD9412621 Si02
#       2
#     8   4
#     4  11  24  44  69 102 140 183 236 297 358 432
#     4  10  24  42  70 100 136 188 236 286 364 438
#
# _framework density 34.845027999999999
#
# number of rings (size 3 to 8) (size 9 to 14) (size 15 to 20)
#    0.000    1.333    0.000    4.000    0.000   10.667 
#    0.000    0.000    0.000    0.000    0.000    0.000 
#    0.000    0.000    0.000    0.000    0.000    0.000 
#
# Total GULP energy -66942.969659 kJ/mol
# GULP energy per Si atom -5578.580805 kJ/mol
# Density = 3.476572 g / cm^3
# Si number density = 34.845028 Si / 1000 Ang^3
#
#
#
# Elastic Constant Matrix: (Units=GPa)
#
#
# Indices 1 2 3 4 5 6 
#
# 1 50.0341 124.5043 85.6765 0.0000 0.0000 0.0000
# 2 124.5043 501.2529 179.2981 0.0000 0.0000 0.0000
# 3 85.6765 179.2981 389.0757 0.0000 0.0000 0.0000
# 4 0.0000 0.0000 0.0000 127.8329 0.0000 0.0000
# 5 0.0000 0.0000 0.0000 0.0000 58.0410 0.0000
# 6 0.0000 0.0000 0.0000 0.0000 0.0000 93.3012
#
#
#
# Elastic Compliance Matrix: (Units=1/GPa)
#
#
# Indices 1 2 3 4 5 6 
#
# 1 0.071943 -0.014611 -0.009109 0.000000 0.000000 0.000000
# 2 -0.014611 0.005356 0.000749 0.000000 0.000000 0.000000
# 3 -0.009109 0.000749 0.004231 0.000000 0.000000 0.000000
# 4 0.000000 0.000000 0.000000 0.007823 0.000000 0.000000
# 5 0.000000 0.000000 0.000000 0.000000 0.017229 0.000000
# 6 0.000000 0.000000 0.000000 0.000000 0.000000 0.010718
#
#
# Mechanical properties :
#
#
# Convention : Reuss Voigt Hill
#
# Bulk Modulus (GPa) = 28.09958 191.03561 109.56760
# Shear Modulus (GPa) = 28.55444 92.56061 60.55753
#
# Velocity S-wave (km/s) = 2.86574 5.15957 4.17335
# Velocity P-wave (km/s) = 4.36253 9.50990 7.39831
#
# Compressibility (1/GPa) = 0.03558772
#
# Stress axis : x y z
#
# Youngs Moduli (GPa) = 13.89996 186.69649 236.36391
#
# Poissons Ratio (x) = 2.72789 2.15299
# Poissons Ratio (y) = 0.20310 -0.17707
# Poissons Ratio (z) = 0.12661 -0.13986
#
# Static dielectric constant tensor:
#      x y z
#    x 3.847170 0.000000 0.000000 
#    y 0.000000 2.390850 0.000000 
#    z 0.000000 0.000000 2.582840 
# 
# From -- ./inp_files/135.got.cif
#   From: 2010.05.17/outbox.cif.g08.bks.cpg/sg52_1_cif.got.tgz:135.got - 2010.06.03 12:15:38.
