data_PCOD9412927
_publ_section_title
;
Structure prediction by ZEFSAII (Michael W. Deem and Ramdas Pophale) SiO2 
 PCOD9412927
Probable space group: P N N A
;
_chemical_formula_sum "Si O2"
_cell_formula_units_Z 28
_cell_length_a 9.317062
_cell_length_b 20.589479
_cell_length_c 5.032588
_cell_angle_alpha 90.000000
_cell_angle_beta 90.000000
_cell_angle_gamma 90.000000
_cell_volume 965.418730
_symmetry_space_group_name_H-M "P N N A"
_symmetry_group_IT_number 52
_symmetry_cell_setting 'orthorhombic'
loop_
_space_group_symop_operation_xyz
x,y,z
1/2-x,-y,z
x,1/2-y,1/2-z
1/2-x,1/2+y,1/2-z
-x,-y,-z
1/2+x,y,-z
-x,1/2+y,1/2+z
1/2+x,1/2-y,1/2+z
loop_
_atom_site_type_symbol
_atom_site_label
_atom_site_fract_x
_atom_site_fract_y
_atom_site_fract_z
Si Si1 0.680883 0.635641 0.999477
Si Si2 0.926975 0.642221 0.630129
Si Si3 0.250000 0.000000 0.435427
Si Si4 0.136309 0.250000 0.750000
Si Si5 0.000000 0.000000 0.000000
O O1 0.758522 0.635812 0.710783
O O2 0.726249 0.563860 0.110410
O O3 0.518166 0.642576 0.095505
O O4 0.760591 0.696241 0.125942
O O5 0.950251 0.708344 0.466991
O O6 0.979975 0.579689 0.468957
O O7 0.389099 0.996807 0.252754
#
# Coordination Sequence:
#
# PCOD9412927 Si02
#       5
#     8   8   4   4   4
#     4  11  29  51  82 120 165 217 276 345 417 498
#     4  11  29  52  85 118 169 216 283 341 427 492
#     4  10  26  48  82 120 162 212 280 346 410 494
#     4  12  30  50  80 124 164 220 276 350 410 516
#     4  10  26  48  82 118 158 218 276 346 414 494
#
# _framework density 29.002960999999999
#
# number of rings (size 3 to 8) (size 9 to 14) (size 15 to 20)
#    0.000    1.143    0.000    0.857   20.000    2.286 
#    0.000    0.000    0.000    1.714    0.000    0.000 
#    0.000    0.000    0.000    0.000    0.000    0.000 
#
# Total GULP energy -156097.617202 kJ/mol
# GULP energy per Si atom -5574.914900 kJ/mol
# Density = 2.893695 g / cm^3
# Si number density = 29.002961 Si / 1000 Ang^3
#
#
#
# Elastic Constant Matrix: (Units=GPa)
#
#
# Indices 1 2 3 4 5 6 
#
# 1 170.0133 47.9887 61.2931 0.0000 0.0000 0.0000
# 2 47.9887 260.5499 28.2247 0.0000 0.0000 0.0000
# 3 61.2931 28.2247 85.0961 0.0000 0.0000 0.0000
# 4 0.0000 0.0000 0.0000 70.9247 0.0000 0.0000
# 5 0.0000 0.0000 0.0000 0.0000 32.7747 0.0000
# 6 0.0000 0.0000 0.0000 0.0000 0.0000 41.7369
#
#
#
# Elastic Compliance Matrix: (Units=1/GPa)
#
#
# Indices 1 2 3 4 5 6 
#
# 1 0.008142 -0.000897 -0.005567 0.000000 0.000000 0.000000
# 2 -0.000897 0.004080 -0.000707 0.000000 0.000000 0.000000
# 3 -0.005567 -0.000707 0.015996 0.000000 0.000000 0.000000
# 4 0.000000 0.000000 0.000000 0.014099 0.000000 0.000000
# 5 0.000000 0.000000 0.000000 0.000000 0.030511 0.000000
# 6 0.000000 0.000000 0.000000 0.000000 0.000000 0.023960
#
#
# Mechanical properties :
#
#
# Convention : Reuss Voigt Hill
#
# Bulk Modulus (GPa) = 72.06939 87.85249 79.96094
# Shear Modulus (GPa) = 43.19442 54.29745 48.74593
#
# Velocity S-wave (km/s) = 3.86335 4.33151 4.10411
# Velocity P-wave (km/s) = 6.69354 7.44128 7.07729
#
# Compressibility (1/GPa) = 0.01387552
#
# Stress axis : x y z
#
# Youngs Moduli (GPa) = 122.81950 245.11018 62.51567
#
# Poissons Ratio (x) = 0.21975 0.34804
# Poissons Ratio (y) = 0.11011 0.04423
# Poissons Ratio (z) = 0.68376 0.17340
#
# Static dielectric constant tensor:
#      x y z
#    x 2.349080 0.000000 0.000000 
#    y 0.000000 2.236850 0.000000 
#    z 0.000000 0.000000 2.401270 
# 
# From -- ./inp_files/908.got.cif
#   From: 2010.05.17/outbox.cif.g08.bks.cpg/sg52_1_cif.got.tgz:908.got - 2010.06.03 12:15:38.
