data_PCOD9412632
_publ_section_title
;
Structure prediction by ZEFSAII (Michael W. Deem and Ramdas Pophale) SiO2 
 PCOD9412632
Probable space group: P N N A
;
_chemical_formula_sum "Si O2"
_cell_formula_units_Z 36
_cell_length_a 9.558432
_cell_length_b 10.569173
_cell_length_c 16.145784
_cell_angle_alpha 90.000000
_cell_angle_beta 90.000000
_cell_angle_gamma 90.000000
_cell_volume 1631.123331
_symmetry_space_group_name_H-M "P N N A"
_symmetry_group_IT_number 52
_symmetry_cell_setting 'orthorhombic'
loop_
_space_group_symop_operation_xyz
x,y,z
1/2-x,-y,z
x,1/2-y,1/2-z
1/2-x,1/2+y,1/2-z
-x,-y,-z
1/2+x,y,-z
-x,1/2+y,1/2+z
1/2+x,1/2-y,1/2+z
loop_
_atom_site_type_symbol
_atom_site_label
_atom_site_fract_x
_atom_site_fract_y
_atom_site_fract_z
Si Si1 0.701091 0.363556 0.121084
Si Si2 0.579833 0.750000 0.250000
Si Si3 0.998540 0.058087 0.114590
Si Si4 0.561894 0.727320 0.662461
Si Si5 0.757799 0.339441 0.510075
O O1 0.750000 0.500000 0.092237
O O2 0.818878 0.323394 0.186813
O O3 0.553026 0.338782 0.164261
O O4 0.688141 0.268235 0.044928
O O5 0.497728 0.848434 0.192776
O O6 0.136321 0.083094 0.058598
O O7 0.004947 0.085894 0.851620
O O8 0.865358 0.095609 0.056760
O O9 0.638204 0.750000 0.750000
O O10 0.657579 0.731147 0.582088
#
# Coordination Sequence:
#
# PCOD9412632 Si02
#       5
#     8   4   8   8   8
#     4  11  24  44  68 101 137 188 239 293 360 439
#     4  10  24  42  70  98 146 174 234 294 376 424
#     4  11  25  46  76 106 143 190 249 303 368 454
#     4  12  25  43  71 104 142 188 244 301 367 434
#     4  11  25  46  72 104 140 191 239 304 363 438
#
# _framework density 22.070679999999999
#
# number of rings (size 3 to 8) (size 9 to 14) (size 15 to 20)
#    0.000    0.889    3.333    2.667    4.667    2.667 
#    4.000    0.000    0.000    0.000    0.000    0.000 
#    0.000    0.000    0.000    0.000    0.000    0.000 
#
# Total GULP energy -200958.076148 kJ/mol
# GULP energy per Si atom -5582.168782 kJ/mol
# Density = 2.202045 g / cm^3
# Si number density = 22.070680 Si / 1000 Ang^3
#
#
#
# Elastic Constant Matrix: (Units=GPa)
#
#
# Indices 1 2 3 4 5 6 
#
# 1 72.4818 31.4133 14.7510 0.0000 0.0000 0.0000
# 2 31.4133 65.3010 35.1607 0.0000 0.0000 0.0000
# 3 14.7510 35.1607 143.5943 0.0000 0.0000 0.0000
# 4 0.0000 0.0000 0.0000 51.6083 0.0000 0.0000
# 5 0.0000 0.0000 0.0000 0.0000 22.5474 0.0000
# 6 0.0000 0.0000 0.0000 0.0000 0.0000 14.3367
#
#
#
# Elastic Compliance Matrix: (Units=1/GPa)
#
#
# Indices 1 2 3 4 5 6 
#
# 1 0.017442 -0.008554 0.000303 0.000000 0.000000 0.000000
# 2 -0.008554 0.021834 -0.004468 0.000000 0.000000 0.000000
# 3 0.000303 -0.004468 0.008027 0.000000 0.000000 0.000000
# 4 0.000000 0.000000 0.000000 0.019377 0.000000 0.000000
# 5 0.000000 0.000000 0.000000 0.000000 0.044351 0.000000
# 6 0.000000 0.000000 0.000000 0.000000 0.000000 0.069751
#
#
# Mechanical properties :
#
#
# Convention : Reuss Voigt Hill
#
# Bulk Modulus (GPa) = 45.73321 49.33636 47.53479
# Shear Modulus (GPa) = 23.41840 31.03528 27.22684
#
# Velocity S-wave (km/s) = 3.26093 3.75397 3.51610
# Velocity P-wave (km/s) = 5.91138 6.41810 6.16995
#
# Compressibility (1/GPa) = 0.02186595
#
# Stress axis : x y z
#
# Youngs Moduli (GPa) = 57.33281 45.80022 124.58073
#
# Poissons Ratio (x) = 0.39175 -0.03771
# Poissons Ratio (y) = 0.49040 0.55658
# Poissons Ratio (z) = -0.01735 0.20462
#
# Static dielectric constant tensor:
#      x y z
#    x 1.827060 0.000000 0.000000 
#    y 0.000000 2.104140 0.000000 
#    z 0.000000 0.000000 1.783720 
# 
# From -- ./inp_files/25752.got.cif
#   From: 2010.05.17/outbox.cif.g08.bks.cpg/sg52_13_cif.got.tgz:25752.got - 2010.06.03 12:15:38.
