data_PCOD9412466
_publ_section_title
;
Structure prediction by ZEFSAII (Michael W. Deem and Ramdas Pophale) SiO2 
 PCOD9412466
Probable space group: P N N A
;
_chemical_formula_sum "Si O2"
_cell_formula_units_Z 60
_cell_length_a 25.120270
_cell_length_b 9.920113
_cell_length_c 9.864841
_cell_angle_alpha 90.000000
_cell_angle_beta 90.000000
_cell_angle_gamma 90.000000
_cell_volume 2458.278099
_symmetry_space_group_name_H-M "P N N A"
_symmetry_group_IT_number 52
_symmetry_cell_setting 'orthorhombic'
loop_
_space_group_symop_operation_xyz
x,y,z
1/2-x,-y,z
x,1/2-y,1/2-z
1/2-x,1/2+y,1/2-z
-x,-y,-z
1/2+x,y,-z
-x,1/2+y,1/2+z
1/2+x,1/2-y,1/2+z
loop_
_atom_site_type_symbol
_atom_site_label
_atom_site_fract_x
_atom_site_fract_y
_atom_site_fract_z
Si Si1 0.916409 0.014472 0.736434
Si Si2 0.249443 0.759379 0.934122
Si Si3 0.545819 0.181094 0.535317
Si Si4 0.528707 0.400881 0.246443
Si Si5 0.058768 0.833426 0.888822
Si Si6 0.143308 0.788752 0.410019
Si Si7 0.150173 0.325866 0.393782
Si Si8 0.250000 0.000000 0.738247
O O1 0.857444 0.250000 0.750000
O O2 0.884467 0.066143 0.605864
O O3 0.965622 0.105944 0.778660
O O4 0.949783 0.887505 0.682276
O O5 0.201848 0.711430 0.030181
O O6 0.226285 0.883827 0.840818
O O7 0.271826 0.620444 0.862093
O O8 0.297271 0.824975 0.018093
O O9 0.536266 0.075163 0.414261
O O10 0.496607 0.283546 0.544020
O O11 0.602592 0.253822 0.525848
O O12 0.550972 0.250000 0.250000
O O13 0.554820 0.511408 0.342215
O O14 0.066924 0.750000 0.750000
O O15 0.105866 0.795463 0.990471
O O16 0.125642 0.467798 0.346990
O O17 0.160258 0.250000 0.250000
#
# Coordination Sequence:
#
# PCOD9412466 Si02
#       8
#     8   8   8   8   8   8   8   4
#     4  11  22  44  73 112 151 204 263 316 388 473
#     4  11  27  55  81 113 153 202 267 334 409 476
#     4  11  22  44  71 106 154 207 259 317 390 482
#     4  12  25  42  68 111 160 205 256 326 391 465
#     4  12  24  46  77 108 156 217 267 318 405 477
#     4  12  29  47  77 115 163 206 264 333 402 480
#     4  10  23  44  77 109 149 205 266 325 391 478
#     4  10  28  54  82 110 156 192 266 344 394 478
#
# _framework density 24.407328
#
# number of rings (size 3 to 8) (size 9 to 14) (size 15 to 20)
#    0.000    0.800    4.000    2.400    7.467    2.667 
#    2.400    0.000    0.000    0.000    0.000    0.000 
#    0.000    0.000    0.000    0.000    0.000    0.000 
#
# Total GULP energy -334894.594069 kJ/mol
# GULP energy per Si atom -5581.576568 kJ/mol
# Density = 2.435178 g / cm^3
# Si number density = 24.407328 Si / 1000 Ang^3
#
#
#
# Elastic Constant Matrix: (Units=GPa)
#
#
# Indices 1 2 3 4 5 6 
#
# 1 111.0957 37.5828 73.5524 0.0000 0.0000 0.0000
# 2 37.5828 148.7146 47.1960 0.0000 0.0000 0.0000
# 3 73.5524 47.1960 117.6674 0.0000 0.0000 0.0000
# 4 0.0000 0.0000 0.0000 61.6916 0.0000 0.0000
# 5 0.0000 0.0000 0.0000 0.0000 -16.0895 0.0000
# 6 0.0000 0.0000 0.0000 0.0000 0.0000 17.0387
#
#
#
# Elastic Compliance Matrix: (Units=1/GPa)
#
#
# Indices 1 2 3 4 5 6 
#
# 1 0.015476 -0.000964 -0.009287 0.000000 0.000000 0.000000
# 2 -0.000964 0.007765 -0.002512 0.000000 0.000000 0.000000
# 3 -0.009287 -0.002512 0.015312 0.000000 0.000000 0.000000
# 4 0.000000 0.000000 0.000000 0.016210 0.000000 0.000000
# 5 0.000000 0.000000 0.000000 0.000000 -0.062152 0.000000
# 6 0.000000 0.000000 0.000000 0.000000 0.000000 0.058690
#
#
# Mechanical properties :
#
#
# Convention : Reuss Voigt Hill
#
# Bulk Modulus (GPa) = 76.76765 77.12667 76.94716
# Shear Modulus (GPa) = 61.60005 27.13791 44.36898
#
# Velocity S-wave (km/s) = 5.02923 3.33810 4.26826
# Velocity P-wave (km/s) = 8.07745 6.82097 7.47565
#
# Compressibility (1/GPa) = 0.01302632
#
# Stress axis : x y z
#
# Youngs Moduli (GPa) = 64.61586 128.78155 65.30995
#
# Poissons Ratio (x) = 0.12410 0.60656
# Poissons Ratio (y) = 0.06227 0.16407
# Poissons Ratio (z) = 0.60011 0.32352
#
# Static dielectric constant tensor:
#      x y z
#    x 1.871970 0.000000 0.000000 
#    y 0.000000 2.156190 0.000000 
#    z 0.000000 0.000000 2.087480 
# 
# From -- ./inp_files/22894.got.cif
#   From: 2010.05.17/outbox.cif.g08.bks.cpg/sg52_12_cif.got.tgz:22894.got - 2010.06.03 12:15:38.
