data_PCOD9412085
_publ_section_title
;
Structure prediction by ZEFSAII (Michael W. Deem and Ramdas Pophale) SiO2 
 PCOD9412085
Probable space group: P N N A
;
_chemical_formula_sum "Si O2"
_cell_formula_units_Z 32
_cell_length_a 12.463919
_cell_length_b 10.357087
_cell_length_c 11.751052
_cell_angle_alpha 90.000000
_cell_angle_beta 90.000000
_cell_angle_gamma 90.000000
_cell_volume 1516.942051
_symmetry_space_group_name_H-M "P N N A"
_symmetry_group_IT_number 52
_symmetry_cell_setting 'orthorhombic'
loop_
_space_group_symop_operation_xyz
x,y,z
1/2-x,-y,z
x,1/2-y,1/2-z
1/2-x,1/2+y,1/2-z
-x,-y,-z
1/2+x,y,-z
-x,1/2+y,1/2+z
1/2+x,1/2-y,1/2+z
loop_
_atom_site_type_symbol
_atom_site_label
_atom_site_fract_x
_atom_site_fract_y
_atom_site_fract_z
Si Si1 0.623091 0.001741 0.627270
Si Si2 0.250000 0.500000 0.722345
Si Si3 0.645367 0.750000 0.250000
Si Si4 0.029663 0.116058 0.819707
Si Si5 0.021867 0.718000 0.971112
O O1 0.550767 0.967420 0.739456
O O2 0.593400 0.890149 0.535953
O O3 0.750000 0.000000 0.651204
O O4 0.582109 0.136115 0.571198
O O5 0.285432 0.372637 0.787989
O O6 0.143000 0.453281 0.660993
O O7 0.573888 0.775303 0.141263
O O8 0.047279 0.250000 0.750000
O O9 0.990400 0.166466 0.940404
#
# Coordination Sequence:
#
# PCOD9412085 Si02
#       5
#     8   4   4   8   8
#     4  10  22  43  73 100 138 190 235 285 355 427
#     4  12  24  42  74 102 138 184 238 292 346 428
#     4  12  26  44  70 104 146 182 234 294 356 424
#     4  10  22  45  68 102 135 177 239 290 346 423
#     4  10  24  43  68 102 142 180 233 292 356 417
#
# _framework density 21.095071000000001
#
# number of rings (size 3 to 8) (size 9 to 14) (size 15 to 20)
#    0.000    1.500    3.750    0.000    5.250    1.000 
#    9.000    0.000    0.000    0.000    0.000    0.000 
#    0.000    0.000    0.000    0.000    0.000    0.000 
#
# Total GULP energy -178457.141702 kJ/mol
# GULP energy per Si atom -5576.785678 kJ/mol
# Density = 2.104706 g / cm^3
# Si number density = 21.095071 Si / 1000 Ang^3
#
#
#
# Elastic Constant Matrix: (Units=GPa)
#
#
# Indices 1 2 3 4 5 6 
#
# 1 130.7551 29.0041 55.1684 0.0000 0.0000 0.0000
# 2 29.0041 57.8324 28.3133 0.0000 0.0000 0.0000
# 3 55.1684 28.3133 153.1900 0.0000 0.0000 0.0000
# 4 0.0000 0.0000 0.0000 11.6312 0.0000 0.0000
# 5 0.0000 0.0000 0.0000 0.0000 3.5087 0.0000
# 6 0.0000 0.0000 0.0000 0.0000 0.0000 20.8480
#
#
#
# Elastic Compliance Matrix: (Units=1/GPa)
#
#
# Indices 1 2 3 4 5 6 
#
# 1 0.009600 -0.003433 -0.002823 0.000000 0.000000 0.000000
# 2 -0.003433 0.020239 -0.002504 0.000000 0.000000 0.000000
# 3 -0.002823 -0.002504 0.008007 0.000000 0.000000 0.000000
# 4 0.000000 0.000000 0.000000 0.085976 0.000000 0.000000
# 5 0.000000 0.000000 0.000000 0.000000 0.285003 0.000000
# 6 0.000000 0.000000 0.000000 0.000000 0.000000 0.047966
#
#
# Mechanical properties :
#
#
# Convention : Reuss Voigt Hill
#
# Bulk Modulus (GPa) = 49.19677 62.97214 56.08445
# Shear Modulus (GPa) = 10.39313 22.48369 16.43841
#
# Velocity S-wave (km/s) = 2.22205 3.26824 2.79454
# Velocity P-wave (km/s) = 5.47315 6.64517 6.08743
#
# Compressibility (1/GPa) = 0.02032654
#
# Stress axis : x y z
#
# Youngs Moduli (GPa) = 104.16238 49.40942 124.88533
#
# Poissons Ratio (x) = 0.16961 0.35254
# Poissons Ratio (y) = 0.35756 0.31277
# Poissons Ratio (z) = 0.29404 0.12374
#
# Static dielectric constant tensor:
#      x y z
#    x 1.770350 0.000000 0.000000 
#    y 0.000000 1.864080 0.000000 
#    z 0.000000 0.000000 1.747000 
# 
# From -- ./inp_files/17684.got.cif
#   From: 2010.05.17/outbox.cif.g08.bks.cpg/sg52_9_cif.got.tgz:17684.got - 2010.06.03 12:15:38.
