data_PCOD9412205
_publ_section_title
;
Structure prediction by ZEFSAII (Michael W. Deem and Ramdas Pophale) SiO2 
 PCOD9412205
Probable space group: P N N A
;
_chemical_formula_sum "Si O2"
_cell_formula_units_Z 32
_cell_length_a 19.235395
_cell_length_b 5.912540
_cell_length_c 11.802173
_cell_angle_alpha 90.000000
_cell_angle_beta 90.000000
_cell_angle_gamma 90.000000
_cell_volume 1342.261635
_symmetry_space_group_name_H-M "P N N A"
_symmetry_group_IT_number 52
_symmetry_cell_setting 'orthorhombic'
loop_
_space_group_symop_operation_xyz
x,y,z
1/2-x,-y,z
x,1/2-y,1/2-z
1/2-x,1/2+y,1/2-z
-x,-y,-z
1/2+x,y,-z
-x,1/2+y,1/2+z
1/2+x,1/2-y,1/2+z
loop_
_atom_site_type_symbol
_atom_site_label
_atom_site_fract_x
_atom_site_fract_y
_atom_site_fract_z
Si Si1 0.396319 0.750000 0.250000
Si Si2 0.655334 0.603107 0.930504
Si Si3 0.250000 0.500000 0.483891
Si Si4 0.368455 0.765269 0.885604
Si Si5 0.023855 0.876353 0.129897
O O1 0.352747 0.568206 0.176739
O O2 0.446491 0.620626 0.337363
O O3 0.719254 0.780042 0.918766
O O4 0.583758 0.742743 0.933855
O O5 0.653658 0.461702 0.047079
O O6 0.313754 0.561013 0.564150
O O7 0.363207 0.750000 0.750000
O O8 0.446547 0.846637 0.916512
O O9 0.019333 0.750000 0.250000
#
# Coordination Sequence:
#
# PCOD9412205 Si02
#       5
#     4   8   4   8   8
#     4  10  22  46  80 108 148 184 258 310 368 430
#     4  11  24  46  75 107 144 197 246 310 368 439
#     4  12  28  42  70 106 154 194 248 296 376 446
#     4  11  26  45  73 109 148 196 245 303 366 439
#     4   9  21  43  76 109 142 189 248 310 361 430
#
# _framework density 23.840358999999999
#
# number of rings (size 3 to 8) (size 9 to 14) (size 15 to 20)
#    0.000    1.500    0.000    3.000    3.500   10.000 
#    0.000    0.000  123.750    0.000    0.000    0.000 
#    0.000    0.000    0.000    0.000    0.000    0.000 
#
# Total GULP energy -178971.073966 kJ/mol
# GULP energy per Si atom -5592.846061 kJ/mol
# Density = 2.378610 g / cm^3
# Si number density = 23.840359 Si / 1000 Ang^3
#
#
#
# Elastic Constant Matrix: (Units=GPa)
#
#
# Indices 1 2 3 4 5 6 
#
# 1 194.0910 68.9363 42.9450 0.0000 0.0000 0.0000
# 2 68.9363 143.9844 71.9257 0.0000 0.0000 0.0000
# 3 42.9450 71.9257 133.7176 0.0000 0.0000 0.0000
# 4 0.0000 0.0000 0.0000 29.7486 0.0000 0.0000
# 5 0.0000 0.0000 0.0000 0.0000 117.6304 0.0000
# 6 0.0000 0.0000 0.0000 0.0000 0.0000 12.3436
#
#
#
# Elastic Compliance Matrix: (Units=1/GPa)
#
#
# Indices 1 2 3 4 5 6 
#
# 1 0.006237 -0.002715 -0.000543 0.000000 0.000000 0.000000
# 2 -0.002715 0.010679 -0.004872 0.000000 0.000000 0.000000
# 3 -0.000543 -0.004872 0.010273 0.000000 0.000000 0.000000
# 4 0.000000 0.000000 0.000000 0.033615 0.000000 0.000000
# 5 0.000000 0.000000 0.000000 0.000000 0.008501 0.000000
# 6 0.000000 0.000000 0.000000 0.000000 0.000000 0.081013
#
#
# Mechanical properties :
#
#
# Convention : Reuss Voigt Hill
#
# Bulk Modulus (GPa) = 91.49551 93.26746 92.38149
# Shear Modulus (GPa) = 29.37358 51.14358 40.25858
#
# Velocity S-wave (km/s) = 3.51393 4.63671 4.11381
# Velocity P-wave (km/s) = 7.41116 8.23845 7.83573
#
# Compressibility (1/GPa) = 0.01092950
#
# Stress axis : x y z
#
# Youngs Moduli (GPa) = 160.34554 93.64323 97.33852
#
# Poissons Ratio (x) = 0.25423 0.05282
# Poissons Ratio (y) = 0.43531 0.47425
# Poissons Ratio (z) = 0.08701 0.45625
#
# Static dielectric constant tensor:
#      x y z
#    x 1.896650 0.000000 0.000000 
#    y 0.000000 2.010130 0.000000 
#    z 0.000000 0.000000 1.918580 
# 
# From -- ./inp_files/21232.got.cif
#   From: 2010.05.17/outbox.cif.g08.bks.cpg/sg52_11_cif.got.tgz:21232.got - 2010.06.03 12:15:38.
