data_PCOD9412825
_publ_section_title
;
Structure prediction by ZEFSAII (Michael W. Deem and Ramdas Pophale) SiO2 
 PCOD9412825
Probable space group: P N N A
;
_chemical_formula_sum "Si O2"
_cell_formula_units_Z 40
_cell_length_a 14.152641
_cell_length_b 13.377559
_cell_length_c 9.248126
_cell_angle_alpha 90.000000
_cell_angle_beta 90.000000
_cell_angle_gamma 90.000000
_cell_volume 1750.927257
_symmetry_space_group_name_H-M "P N N A"
_symmetry_group_IT_number 52
_symmetry_cell_setting 'orthorhombic'
loop_
_space_group_symop_operation_xyz
x,y,z
1/2-x,-y,z
x,1/2-y,1/2-z
1/2-x,1/2+y,1/2-z
-x,-y,-z
1/2+x,y,-z
-x,1/2+y,1/2+z
1/2+x,1/2-y,1/2+z
loop_
_atom_site_type_symbol
_atom_site_label
_atom_site_fract_x
_atom_site_fract_y
_atom_site_fract_z
Si Si1 0.485054 0.009546 0.748901
Si Si2 0.088597 0.304040 0.101883
Si Si3 0.326136 0.340978 0.647215
Si Si4 0.184477 0.091988 0.625670
Si Si5 0.439711 0.314982 0.395338
O O1 0.546045 0.090644 0.662484
O O2 0.402113 0.071189 0.828329
O O3 0.422864 0.941765 0.642419
O O4 0.536371 0.929059 0.850101
O O5 0.114589 0.250000 0.250000
O O6 0.176584 0.325223 0.996386
O O7 0.014944 0.236331 0.007389
O O8 0.358027 0.250000 0.750000
O O9 0.227555 0.372324 0.721070
O O10 0.341084 0.314314 0.481679
O O11 0.250000 0.000000 0.579348
O O12 0.439001 0.250000 0.250000
#
# Coordination Sequence:
#
# PCOD9412825 Si02
#       5
#     8   8   8   8   8
#     4  11  22  44  76 103 141 186 256 293 367 444
#     4  12  24  46  75 110 146 187 256 305 357 453
#     4  11  23  45  68 103 149 189 234 303 373 433
#     4  10  25  43  73 100 147 196 230 301 380 428
#     4  12  24  40  77 109 137 194 250 303 360 444
#
# _framework density 22.845040000000001
#
# number of rings (size 3 to 8) (size 9 to 14) (size 15 to 20)
#    0.000    0.800    6.000    1.200    2.800    0.000 
#    0.000    3.000    0.000    0.000    0.000    0.000 
#    0.000    0.000    0.000    0.000    0.000    0.000 
#
# Total GULP energy -223343.940032 kJ/mol
# GULP energy per Si atom -5583.598501 kJ/mol
# Density = 2.279304 g / cm^3
# Si number density = 22.845040 Si / 1000 Ang^3
#
#
#
# Elastic Constant Matrix: (Units=GPa)
#
#
# Indices 1 2 3 4 5 6 
#
# 1 55.2383 35.2040 16.7295 0.0000 0.0000 0.0000
# 2 35.2040 127.8375 34.1929 0.0000 0.0000 0.0000
# 3 16.7295 34.1929 94.0627 0.0000 0.0000 0.0000
# 4 0.0000 0.0000 0.0000 44.8880 0.0000 0.0000
# 5 0.0000 0.0000 0.0000 0.0000 19.3376 0.0000
# 6 0.0000 0.0000 0.0000 0.0000 0.0000 31.0175
#
#
#
# Elastic Compliance Matrix: (Units=1/GPa)
#
#
# Indices 1 2 3 4 5 6 
#
# 1 0.022265 -0.005618 -0.001918 0.000000 0.000000 0.000000
# 2 -0.005618 0.010083 -0.002666 0.000000 0.000000 0.000000
# 3 -0.001918 -0.002666 0.011941 0.000000 0.000000 0.000000
# 4 0.000000 0.000000 0.000000 0.022278 0.000000 0.000000
# 5 0.000000 0.000000 0.000000 0.000000 0.051713 0.000000
# 6 0.000000 0.000000 0.000000 0.000000 0.000000 0.032240
#
#
# Mechanical properties :
#
#
# Convention : Reuss Voigt Hill
#
# Bulk Modulus (GPa) = 41.86714 49.93239 45.89977
# Shear Modulus (GPa) = 27.95098 31.78275 29.86687
#
# Velocity S-wave (km/s) = 3.50166 3.73397 3.61968
# Velocity P-wave (km/s) = 5.89196 6.36353 6.13228
#
# Compressibility (1/GPa) = 0.02388508
#
# Stress axis : x y z
#
# Youngs Moduli (GPa) = 44.91397 99.17988 83.74267
#
# Poissons Ratio (x) = 0.55723 0.16058
# Poissons Ratio (y) = 0.25235 0.22325
# Poissons Ratio (z) = 0.08612 0.26441
#
# Static dielectric constant tensor:
#      x y z
#    x 1.870280 0.000000 0.000000 
#    y 0.000000 1.979050 0.000000 
#    z 0.000000 0.000000 1.897310 
# 
# From -- ./inp_files/10037.got.cif
#   From: 2010.05.17/outbox.cif.g08.bks.cpg/sg52_6_cif.got.tgz:10037.got - 2010.06.03 12:15:38.
