data_PCOD9412300
_publ_section_title
;
Structure prediction by ZEFSAII (Michael W. Deem and Ramdas Pophale) SiO2 
 PCOD9412300
Probable space group: P N N A
;
_chemical_formula_sum "Si O2"
_cell_formula_units_Z 48
_cell_length_a 8.884587
_cell_length_b 9.808530
_cell_length_c 25.194623
_cell_angle_alpha 90.000000
_cell_angle_beta 90.000000
_cell_angle_gamma 90.000000
_cell_volume 2195.578824
_symmetry_space_group_name_H-M "P N N A"
_symmetry_group_IT_number 52
_symmetry_cell_setting 'orthorhombic'
loop_
_space_group_symop_operation_xyz
x,y,z
1/2-x,-y,z
x,1/2-y,1/2-z
1/2-x,1/2+y,1/2-z
-x,-y,-z
1/2+x,y,-z
-x,1/2+y,1/2+z
1/2+x,1/2-y,1/2+z
loop_
_atom_site_type_symbol
_atom_site_label
_atom_site_fract_x
_atom_site_fract_y
_atom_site_fract_z
Si Si1 0.560126 0.121693 0.040990
Si Si2 0.750000 0.000000 0.239150
Si Si3 0.200449 0.204284 0.853957
Si Si4 0.548233 0.284804 0.852403
Si Si5 0.756025 0.663565 0.554998
Si Si6 0.763712 0.750000 0.750000
Si Si7 0.480376 0.066340 0.310575
O O1 0.638102 0.107477 0.098493
O O2 0.414874 0.209313 0.054383
O O3 0.681677 0.189305 0.003467
O O4 0.500000 0.000000 0.000000
O O5 0.713460 0.124347 0.200997
O O6 0.602337 0.985573 0.274526
O O7 0.371301 0.255945 0.862448
O O8 0.079188 0.322840 0.842358
O O9 0.638984 0.226876 0.901635
O O10 0.624660 0.217299 0.799475
O O11 0.578161 0.445744 0.847320
O O12 0.750000 0.500000 0.566086
O O13 0.647767 0.862485 0.725559
#
# Coordination Sequence:
#
# PCOD9412300 Si02
#       7
#     8   4   8   8   8   4   8
#     4  10  23  44  68 104 141 183 243 314 361 443
#     4  12  24  40  74 102 146 196 256 292 368 430
#     4  12  25  42  74 102 144 200 248 299 374 441
#     4  12  26  43  69 107 147 196 237 307 375 449
#     4  10  23  41  67  99 142 178 243 300 374 431
#     4  12  26  44  68 102 150 192 250 302 368 448
#     4  12  25  49  69 108 155 199 251 306 368 461
#
# _framework density 21.862116
#
# number of rings (size 3 to 8) (size 9 to 14) (size 15 to 20)
#    0.000    0.667    3.333    3.500    8.167    1.333 
#    0.000    0.833    0.000    2.000    0.000    0.000 
#    0.000    0.000    0.000    0.000    0.000    0.000 
#
# Total GULP energy -267843.350182 kJ/mol
# GULP energy per Si atom -5580.069795 kJ/mol
# Density = 2.181236 g / cm^3
# Si number density = 21.862116 Si / 1000 Ang^3
#
#
#
# Elastic Constant Matrix: (Units=GPa)
#
#
# Indices 1 2 3 4 5 6 
#
# 1 130.1521 28.8130 26.9775 0.0000 0.0000 0.0000
# 2 28.8130 78.2076 20.9233 0.0000 0.0000 0.0000
# 3 26.9775 20.9233 94.0075 0.0000 0.0000 0.0000
# 4 0.0000 0.0000 0.0000 -35.7569 0.0000 0.0000
# 5 0.0000 0.0000 0.0000 0.0000 86.2612 0.0000
# 6 0.0000 0.0000 0.0000 0.0000 0.0000 32.0869
#
#
#
# Elastic Compliance Matrix: (Units=1/GPa)
#
#
# Indices 1 2 3 4 5 6 
#
# 1 0.008670 -0.002689 -0.001890 0.000000 0.000000 0.000000
# 2 -0.002689 0.014430 -0.002440 0.000000 0.000000 0.000000
# 3 -0.001890 -0.002440 0.011723 0.000000 0.000000 0.000000
# 4 0.000000 0.000000 0.000000 -0.027967 0.000000 0.000000
# 5 0.000000 0.000000 0.000000 0.000000 0.011593 0.000000
# 6 0.000000 0.000000 0.000000 0.000000 0.000000 0.031165
#
#
# Mechanical properties :
#
#
# Convention : Reuss Voigt Hill
#
# Bulk Modulus (GPa) = 48.10937 50.64388 49.37662
# Shear Modulus (GPa) = 70.84172 31.56181 51.20176
#
# Velocity S-wave (km/s) = 5.69862 3.80370 4.84470
# Velocity P-wave (km/s) = 8.08409 6.51968 7.34366
#
# Compressibility (1/GPa) = 0.02078597
#
# Stress axis : x y z
#
# Youngs Moduli (GPa) = 115.33725 69.30081 85.30366
#
# Poissons Ratio (x) = 0.18633 0.16120
# Poissons Ratio (y) = 0.31011 0.20815
# Poissons Ratio (z) = 0.21795 0.16910
#
# Static dielectric constant tensor:
#      x y z
#    x 2.066490 0.000000 0.000000 
#    y 0.000000 1.830950 0.000000 
#    z 0.000000 0.000000 1.799060 
# 
# From -- ./inp_files/39511.got.cif
#   From: 2010.05.17/outbox.cif.g08.bks.cpg/sg52_20_cif.got.tgz:39511.got - 2010.06.03 12:15:38.
