data_PCOD9412962
_publ_section_title
;
Structure prediction by ZEFSAII (Michael W. Deem and Ramdas Pophale) SiO2 
 PCOD9412962
Probable space group: P N N A
;
_chemical_formula_sum "Si O2"
_cell_formula_units_Z 48
_cell_length_a 13.664168
_cell_length_b 13.682022
_cell_length_c 10.159900
_cell_angle_alpha 90.000000
_cell_angle_beta 90.000000
_cell_angle_gamma 90.000000
_cell_volume 1899.428328
_symmetry_space_group_name_H-M "P N N A"
_symmetry_group_IT_number 52
_symmetry_cell_setting 'orthorhombic'
loop_
_space_group_symop_operation_xyz
x,y,z
1/2-x,-y,z
x,1/2-y,1/2-z
1/2-x,1/2+y,1/2-z
-x,-y,-z
1/2+x,y,-z
-x,1/2+y,1/2+z
1/2+x,1/2-y,1/2+z
loop_
_atom_site_type_symbol
_atom_site_label
_atom_site_fract_x
_atom_site_fract_y
_atom_site_fract_z
Si Si1 0.197434 0.162664 0.646406
Si Si2 0.840339 0.428577 0.580885
Si Si3 0.915570 0.351439 0.086724
Si Si4 0.329542 0.787723 0.101444
Si Si5 0.008661 0.634406 0.205974
Si Si6 0.974435 0.124461 0.136064
O O1 0.217455 0.250000 0.750000
O O2 0.302796 0.119698 0.612681
O O3 0.156055 0.206895 0.509913
O O4 0.105714 0.105265 0.705982
O O5 0.750000 0.500000 0.605495
O O6 0.779623 0.326696 0.581278
O O7 0.921973 0.421074 0.692568
O O8 0.898400 0.439756 0.445041
O O9 0.934209 0.235062 0.108122
O O10 0.975287 0.395225 0.209071
O O11 0.948481 0.376916 0.940486
O O12 0.339457 0.750000 0.250000
O O13 0.414891 0.867929 0.083577
O O14 0.010085 0.750000 0.250000
#
# Coordination Sequence:
#
# PCOD9412962 Si02
#       6
#     8   8   8   8   8   8
#     4  11  18  29  57  89 114 145 190 260 312 343
#     4  12  26  41  58  88 137 175 198 244 318 389
#     4  11  18  34  60  90 118 142 202 274 308 341
#     4  12  21  36  65  92 114 158 210 263 313 351
#     4  11  20  36  59  89 119 155 211 262 300 358
#     4  11  20  37  58  92 118 152 207 262 309 358
#
# _framework density 25.270759999999999
#
# number of rings (size 3 to 8) (size 9 to 14) (size 15 to 20)
#    0.000    0.667    8.333    2.500    0.000    0.667 
#    0.000    0.833    0.000    7.000    0.000    0.000 
#    0.000    0.000    0.000    0.000    0.000    0.000 
#
# Total GULP energy -268853.283451 kJ/mol
# GULP energy per Si atom -5601.110072 kJ/mol
# Density = 2.521324 g / cm^3
# Si number density = 25.270760 Si / 1000 Ang^3
#
#
#
# Elastic Constant Matrix: (Units=GPa)
#
#
# Indices 1 2 3 4 5 6 
#
# 1 205.0295 9.8300 38.9363 0.0000 0.0000 0.0000
# 2 9.8300 52.7490 12.5881 0.0000 0.0000 0.0000
# 3 38.9363 12.5881 156.4324 0.0000 0.0000 0.0000
# 4 0.0000 0.0000 0.0000 24.2848 0.0000 0.0000
# 5 0.0000 0.0000 0.0000 0.0000 47.7053 0.0000
# 6 0.0000 0.0000 0.0000 0.0000 0.0000 31.7316
#
#
#
# Elastic Compliance Matrix: (Units=1/GPa)
#
#
# Indices 1 2 3 4 5 6 
#
# 1 0.005142 -0.000666 -0.001226 0.000000 0.000000 0.000000
# 2 -0.000666 0.019415 -0.001397 0.000000 0.000000 0.000000
# 3 -0.001226 -0.001397 0.006810 0.000000 0.000000 0.000000
# 4 0.000000 0.000000 0.000000 0.041178 0.000000 0.000000
# 5 0.000000 0.000000 0.000000 0.000000 0.020962 0.000000
# 6 0.000000 0.000000 0.000000 0.000000 0.000000 0.031514
#
#
# Mechanical properties :
#
#
# Convention : Reuss Voigt Hill
#
# Bulk Modulus (GPa) = 40.33861 59.65776 49.99818
# Shear Modulus (GPa) = 35.74943 44.26810 40.00877
#
# Velocity S-wave (km/s) = 3.76527 4.18993 3.98327
# Velocity P-wave (km/s) = 5.90764 6.86047 6.40181
#
# Compressibility (1/GPa) = 0.02479015
#
# Stress axis : x y z
#
# Youngs Moduli (GPa) = 194.47139 51.50649 146.83943
#
# Poissons Ratio (x) = 0.03428 0.18007
# Poissons Ratio (y) = 0.12944 0.20508
# Poissons Ratio (z) = 0.23849 0.07194
#
# Static dielectric constant tensor:
#      x y z
#    x 1.950140 0.000000 0.000000 
#    y 0.000000 2.207590 0.000000 
#    z 0.000000 0.000000 1.923710 
# 
# From -- ./inp_files/10507.got.cif
#   From: 2010.05.17/outbox.cif.g08.bks.cpg/sg52_6_cif.got.tgz:10507.got - 2010.06.03 12:15:38.
