data_PCOD9412830
_publ_section_title
;
Structure prediction by ZEFSAII (Michael W. Deem and Ramdas Pophale) SiO2 
 PCOD9412830
Probable space group: P N N A
;
_chemical_formula_sum "Si O2"
_cell_formula_units_Z 40
_cell_length_a 18.563699
_cell_length_b 11.183341
_cell_length_c 9.112431
_cell_angle_alpha 90.000000
_cell_angle_beta 90.000000
_cell_angle_gamma 90.000000
_cell_volume 1891.778730
_symmetry_space_group_name_H-M "P N N A"
_symmetry_group_IT_number 52
_symmetry_cell_setting 'orthorhombic'
loop_
_space_group_symop_operation_xyz
x,y,z
1/2-x,-y,z
x,1/2-y,1/2-z
1/2-x,1/2+y,1/2-z
-x,-y,-z
1/2+x,y,-z
-x,1/2+y,1/2+z
1/2+x,1/2-y,1/2+z
loop_
_atom_site_type_symbol
_atom_site_label
_atom_site_fract_x
_atom_site_fract_y
_atom_site_fract_z
Si Si1 0.549604 0.989295 0.645867
Si Si2 0.168685 0.458128 0.954452
Si Si3 0.210897 0.250000 0.750000
Si Si4 0.624112 0.750000 0.750000
Si Si5 0.579565 0.891625 0.226207
Si Si6 0.801438 0.390976 0.495158
O O1 0.574144 0.855986 0.686638
O O2 0.500000 0.000000 0.500000
O O3 0.623099 0.057098 0.602232
O O4 0.498670 0.048240 0.766780
O O5 0.250000 0.500000 0.981070
O O6 0.167322 0.342751 0.849885
O O7 0.129101 0.560609 0.860035
O O8 0.259419 0.323429 0.635531
O O9 0.675677 0.695297 0.625723
O O10 0.572679 0.750000 0.250000
O O11 0.623293 0.927634 0.080987
O O12 0.750000 0.500000 0.540723
#
# Coordination Sequence:
#
# PCOD9412830 Si02
#       6
#     8   8   4   4   8   8
#     4  10  25  44  69 101 141 191 231 291 367 425
#     4  11  20  39  73 105 138 185 238 294 362 429
#     4  12  20  41  78 106 141 182 244 300 362 449
#     4  12  28  47  70 100 157 186 238 312 360 417
#     4  11  20  42  71 101 143 190 237 287 353 438
#     4  12  24  44  74 110 144 193 240 302 368 434
#
# _framework density 21.144121999999999
#
# number of rings (size 3 to 8) (size 9 to 14) (size 15 to 20)
#    0.000    0.800    5.000    3.600    0.000    6.400 
#    3.600    0.000    2.200    0.000    0.000    0.000 
#    0.000    0.000    0.000    0.000    0.000    0.000 
#
# Total GULP energy -223537.545367 kJ/mol
# GULP energy per Si atom -5588.438634 kJ/mol
# Density = 2.109600 g / cm^3
# Si number density = 21.144122 Si / 1000 Ang^3
#
#
#
# Elastic Constant Matrix: (Units=GPa)
#
#
# Indices 1 2 3 4 5 6 
#
# 1 148.9186 83.7084 59.3165 0.0000 0.0000 0.0000
# 2 83.7084 135.7643 33.6080 0.0000 0.0000 0.0000
# 3 59.3165 33.6080 72.6704 0.0000 0.0000 0.0000
# 4 0.0000 0.0000 0.0000 40.2280 0.0000 0.0000
# 5 0.0000 0.0000 0.0000 0.0000 22.0801 0.0000
# 6 0.0000 0.0000 0.0000 0.0000 0.0000 35.3235
#
#
#
# Elastic Compliance Matrix: (Units=1/GPa)
#
#
# Indices 1 2 3 4 5 6 
#
# 1 0.013485 -0.006312 -0.008087 0.000000 0.000000 0.000000
# 2 -0.006312 0.011273 -0.000061 0.000000 0.000000 0.000000
# 3 -0.008087 -0.000061 0.020390 0.000000 0.000000 0.000000
# 4 0.000000 0.000000 0.000000 0.024858 0.000000 0.000000
# 5 0.000000 0.000000 0.000000 0.000000 0.045290 0.000000
# 6 0.000000 0.000000 0.000000 0.000000 0.000000 0.028310
#
#
# Mechanical properties :
#
#
# Convention : Reuss Voigt Hill
#
# Bulk Modulus (GPa) = 61.62860 78.95769 70.29315
# Shear Modulus (GPa) = 28.10007 31.57433 29.83720
#
# Velocity S-wave (km/s) = 3.64947 3.86850 3.76058
# Velocity P-wave (km/s) = 6.85335 7.57479 7.22308
#
# Compressibility (1/GPa) = 0.01622623
#
# Stress axis : x y z
#
# Youngs Moduli (GPa) = 74.15882 88.70956 49.04288
#
# Poissons Ratio (x) = 0.55995 0.39663
# Poissons Ratio (y) = 0.46810 0.00299
# Poissons Ratio (z) = 0.59976 0.00542
#
# Static dielectric constant tensor:
#      x y z
#    x 1.796050 0.000000 0.000000 
#    y 0.000000 1.734300 0.000000 
#    z 0.000000 0.000000 1.804500 
# 
# From -- ./inp_files/11702.got.cif
#   From: 2010.05.17/outbox.cif.g08.bks.cpg/sg52_6_cif.got.tgz:11702.got - 2010.06.03 12:15:38.
