data_PCOD9412701
_publ_section_title
;
Structure prediction by ZEFSAII (Michael W. Deem and Ramdas Pophale) SiO2 
 PCOD9412701
Probable space group: P N N A
;
_chemical_formula_sum "Si O2"
_cell_formula_units_Z 64
_cell_length_a 18.277053
_cell_length_b 11.981257
_cell_length_c 14.329471
_cell_angle_alpha 90.000000
_cell_angle_beta 90.000000
_cell_angle_gamma 90.000000
_cell_volume 3137.897210
_symmetry_space_group_name_H-M "P N N A"
_symmetry_group_IT_number 52
_symmetry_cell_setting 'orthorhombic'
loop_
_space_group_symop_operation_xyz
x,y,z
1/2-x,-y,z
x,1/2-y,1/2-z
1/2-x,1/2+y,1/2-z
-x,-y,-z
1/2+x,y,-z
-x,1/2+y,1/2+z
1/2+x,1/2-y,1/2+z
loop_
_atom_site_type_symbol
_atom_site_label
_atom_site_fract_x
_atom_site_fract_y
_atom_site_fract_z
Si Si1 0.334747 0.501062 0.970759
Si Si2 0.331349 0.247935 0.929410
Si Si3 0.432726 0.886762 0.943724
Si Si4 0.169011 0.290609 0.854538
Si Si5 0.039166 0.989344 0.206582
Si Si6 0.831694 0.451611 0.568706
Si Si7 0.039412 0.449577 0.091099
Si Si8 0.484498 0.299833 0.617500
O O1 0.250000 0.500000 0.993167
O O2 0.356275 0.373234 0.954537
O O3 0.343098 0.579384 0.879326
O O4 0.377512 0.554262 0.056480
O O5 0.252593 0.258929 0.881072
O O6 0.397340 0.198053 0.867561
O O7 0.324663 0.168979 0.019757
O O8 0.386606 0.778267 0.918187
O O9 0.473381 0.934314 0.852754
O O10 0.495759 0.854804 0.017336
O O11 0.376087 0.970514 0.994400
O O12 0.156327 0.250000 0.750000
O O13 0.115733 0.952000 0.159617
O O14 0.032808 0.974166 0.317063
O O15 0.028432 0.121698 0.187733
O O16 0.750000 0.500000 0.584736
O O17 0.011048 0.326451 0.112670
O O18 0.000000 0.500000 0.000000
#
# Coordination Sequence:
#
# PCOD9412701 Si02
#       8
#     8   8   8   8   8   8   8   8
#     4  10  24  45  64  88 133 175 217 269 327 390
#     4  11  21  43  65  94 133 174 213 268 327 399
#     4  11  21  39  67  96 134 163 216 277 327 384
#     4  11  25  41  64  97 130 177 220 272 335 398
#     4  11  25  39  66 104 130 166 227 279 322 395
#     4  11  21  42  69  98 131 172 217 268 334 390
#     4  12  25  42  64  95 130 179 220 269 336 392
#     4  11  21  42  66  93 133 172 217 273 329 395
#
# _framework density 20.395824000000001
#
# number of rings (size 3 to 8) (size 9 to 14) (size 15 to 20)
#    0.000    1.000    6.250    1.125    1.750    1.500 
#    6.750    1.875    0.000    0.000    0.000    0.000 
#    0.000    0.000    0.000    0.000    0.000    0.000 
#
# Total GULP energy -357439.095107 kJ/mol
# GULP energy per Si atom -5584.985861 kJ/mol
# Density = 2.034940 g / cm^3
# Si number density = 20.395824 Si / 1000 Ang^3
#
#
#
# Elastic Constant Matrix: (Units=GPa)
#
#
# Indices 1 2 3 4 5 6 
#
# 1 91.3305 17.3730 20.8526 0.0000 0.0000 0.0000
# 2 17.3730 95.6101 24.3418 0.0000 0.0000 0.0000
# 3 20.8526 24.3418 123.2547 0.0000 0.0000 0.0000
# 4 0.0000 0.0000 0.0000 17.4085 0.0000 0.0000
# 5 0.0000 0.0000 0.0000 0.0000 6.0046 0.0000
# 6 0.0000 0.0000 0.0000 0.0000 0.0000 28.5024
#
#
#
# Elastic Compliance Matrix: (Units=1/GPa)
#
#
# Indices 1 2 3 4 5 6 
#
# 1 0.011646 -0.001700 -0.001635 0.000000 0.000000 0.000000
# 2 -0.001700 0.011261 -0.001936 0.000000 0.000000 0.000000
# 3 -0.001635 -0.001936 0.008772 0.000000 0.000000 0.000000
# 4 0.000000 0.000000 0.000000 0.057443 0.000000 0.000000
# 5 0.000000 0.000000 0.000000 0.000000 0.166540 0.000000
# 6 0.000000 0.000000 0.000000 0.000000 0.000000 0.035085
#
#
# Mechanical properties :
#
#
# Convention : Reuss Voigt Hill
#
# Bulk Modulus (GPa) = 47.30969 48.37003 47.83986
# Shear Modulus (GPa) = 16.21613 26.89160 21.55387
#
# Velocity S-wave (km/s) = 2.82276 3.63504 3.25434
# Velocity P-wave (km/s) = 5.81980 6.43313 6.13413
#
# Compressibility (1/GPa) = 0.02113732
#
# Stress axis : x y z
#
# Youngs Moduli (GPa) = 85.86774 88.80180 113.99612
#
# Poissons Ratio (x) = 0.15096 0.18633
# Poissons Ratio (y) = 0.14597 0.22074
# Poissons Ratio (z) = 0.14035 0.17195
#
# Static dielectric constant tensor:
#      x y z
#    x 1.778580 0.000000 0.000000 
#    y 0.000000 1.721630 0.000000 
#    z 0.000000 0.000000 1.735820 
# 
# From -- ./inp_files/28309.got.cif
#   From: 2010.05.17/outbox.cif.g08.bks.cpg/sg52_15_cif.got.tgz:28309.got - 2010.06.03 12:15:38.
