data_PCOD9412274
_publ_section_title
;
Structure prediction by ZEFSAII (Michael W. Deem and Ramdas Pophale) SiO2 
 PCOD9412274
Probable space group: P N N A
;
_chemical_formula_sum "Si O2"
_cell_formula_units_Z 56
_cell_length_a 13.516565
_cell_length_b 15.706283
_cell_length_c 11.418720
_cell_angle_alpha 90.000000
_cell_angle_beta 90.000000
_cell_angle_gamma 90.000000
_cell_volume 2424.137106
_symmetry_space_group_name_H-M "P N N A"
_symmetry_group_IT_number 52
_symmetry_cell_setting 'orthorhombic'
loop_
_space_group_symop_operation_xyz
x,y,z
1/2-x,-y,z
x,1/2-y,1/2-z
1/2-x,1/2+y,1/2-z
-x,-y,-z
1/2+x,y,-z
-x,1/2+y,1/2+z
1/2+x,1/2-y,1/2+z
loop_
_atom_site_type_symbol
_atom_site_label
_atom_site_fract_x
_atom_site_fract_y
_atom_site_fract_z
Si Si1 0.335741 0.437610 0.106345
Si Si2 0.915735 0.705806 0.134728
Si Si3 0.764800 0.321003 0.427398
Si Si4 0.568261 0.697621 0.066835
Si Si5 0.786761 0.657541 0.693631
Si Si6 0.478150 0.563528 0.241942
Si Si7 0.841619 0.953922 0.239276
O O1 0.250000 0.500000 0.063236
O O2 0.366012 0.367471 0.011610
O O3 0.288564 0.389488 0.218480
O O4 0.425237 0.497389 0.151402
O O5 0.961958 0.750000 0.250000
O O6 0.810472 0.747347 0.110957
O O7 0.894185 0.610006 0.171286
O O8 0.980521 0.720955 0.021567
O O9 0.871150 0.281376 0.397314
O O10 0.759979 0.333516 0.566091
O O11 0.717086 0.401450 0.361029
O O12 0.524715 0.641580 0.170475
O O13 0.808448 0.750000 0.750000
O O14 0.887306 0.602212 0.684670
O O15 0.569675 0.515003 0.303079
O O16 0.750000 0.000000 0.300139
#
# Coordination Sequence:
#
# PCOD9412274 Si02
#       7
#     8   8   8   8   8   8   8
#     4  10  23  40  68 103 136 169 227 291 353 400
#     4  10  24  44  66 100 134 177 234 290 351 417
#     4  11  26  43  70 100 137 187 231 282 352 426
#     4  12  23  41  74 102 133 183 229 289 359 412
#     4  11  23  44  69 102 141 182 236 294 342 418
#     4  11  25  43  67 103 141 178 233 293 350 412
#     4  11  25  45  65  95 141 188 233 284 350 420
#
# _framework density 23.101004
#
# number of rings (size 3 to 8) (size 9 to 14) (size 15 to 20)
#    0.000    1.143    2.857    2.143    4.000    5.143 
#    0.000    0.000    0.000    0.000    0.000    0.000 
#    0.000    0.000    0.000    0.000    0.000    0.000 
#
# Total GULP energy -313394.922555 kJ/mol
# GULP energy per Si atom -5596.337903 kJ/mol
# Density = 2.304843 g / cm^3
# Si number density = 23.101004 Si / 1000 Ang^3
#
#
#
# Elastic Constant Matrix: (Units=GPa)
#
#
# Indices 1 2 3 4 5 6 
#
# 1 111.9388 51.5881 26.0295 0.0000 0.0000 0.0000
# 2 51.5881 86.8607 24.1214 0.0000 0.0000 0.0000
# 3 26.0295 24.1214 71.1257 0.0000 0.0000 0.0000
# 4 0.0000 0.0000 0.0000 15.7890 0.0000 0.0000
# 5 0.0000 0.0000 0.0000 0.0000 -7.2326 0.0000
# 6 0.0000 0.0000 0.0000 0.0000 0.0000 32.9237
#
#
#
# Elastic Compliance Matrix: (Units=1/GPa)
#
#
# Indices 1 2 3 4 5 6 
#
# 1 0.012630 -0.006864 -0.002294 0.000000 0.000000 0.000000
# 2 -0.006864 0.016440 -0.003063 0.000000 0.000000 0.000000
# 3 -0.002294 -0.003063 0.015938 0.000000 0.000000 0.000000
# 4 0.000000 0.000000 0.000000 0.063335 0.000000 0.000000
# 5 0.000000 0.000000 0.000000 0.000000 -0.138263 0.000000
# 6 0.000000 0.000000 0.000000 0.000000 0.000000 0.030373
#
#
# Mechanical properties :
#
#
# Convention : Reuss Voigt Hill
#
# Bulk Modulus (GPa) = 48.62694 52.60034 50.61364
# Shear Modulus (GPa) = 157.46283 19.50844 88.48563
#
# Velocity S-wave (km/s) = 8.26503 2.90915 6.19572
# Velocity P-wave (km/s) = 10.59134 5.83981 8.55219
#
# Compressibility (1/GPa) = 0.02056473
#
# Stress axis : x y z
#
# Youngs Moduli (GPa) = 79.17377 60.82638 62.74239
#
# Poissons Ratio (x) = 0.41753 0.14395
# Poissons Ratio (y) = 0.54347 0.19221
# Poissons Ratio (z) = 0.18165 0.18634
#
# Static dielectric constant tensor:
#      x y z
#    x 1.859730 0.000000 0.000000 
#    y 0.000000 1.905630 0.000000 
#    z 0.000000 0.000000 1.860350 
# 
# From -- ./inp_files/19632.got.cif
#   From: 2010.05.17/outbox.cif.g08.bks.cpg/sg52_10_cif.got.tgz:19632.got - 2010.06.03 12:15:38.
