data_PCOD9412290
_publ_section_title
;
Structure prediction by ZEFSAII (Michael W. Deem and Ramdas Pophale) SiO2 
 PCOD9412290
Probable space group: P N N A
;
_chemical_formula_sum "Si O2"
_cell_formula_units_Z 56
_cell_length_a 9.716242
_cell_length_b 19.427909
_cell_length_c 12.604736
_cell_angle_alpha 90.000000
_cell_angle_beta 90.000000
_cell_angle_gamma 90.000000
_cell_volume 2379.348941
_symmetry_space_group_name_H-M "P N N A"
_symmetry_group_IT_number 52
_symmetry_cell_setting 'orthorhombic'
loop_
_space_group_symop_operation_xyz
x,y,z
1/2-x,-y,z
x,1/2-y,1/2-z
1/2-x,1/2+y,1/2-z
-x,-y,-z
1/2+x,y,-z
-x,1/2+y,1/2+z
1/2+x,1/2-y,1/2+z
loop_
_atom_site_type_symbol
_atom_site_label
_atom_site_fract_x
_atom_site_fract_y
_atom_site_fract_z
Si Si1 0.116145 0.186131 0.524525
Si Si2 0.052973 0.970176 0.216403
Si Si3 0.827538 0.434990 0.495331
Si Si4 0.930764 0.660060 0.499691
Si Si5 0.750000 0.000000 0.287979
Si Si6 0.129716 0.898180 0.540441
Si Si7 0.250000 0.500000 0.129687
Si Si8 0.977146 0.323581 0.746438
O O1 0.080466 0.259637 0.473474
O O2 0.276282 0.168551 0.517412
O O3 0.074948 0.183048 0.650065
O O4 0.026517 0.126501 0.468584
O O5 0.097959 0.971084 0.095173
O O6 0.891197 0.973492 0.235380
O O7 0.103095 0.894698 0.256727
O O8 0.133391 0.025039 0.287143
O O9 0.750000 0.500000 0.442522
O O10 0.708719 0.380579 0.522545
O O11 0.946463 0.385332 0.448851
O O12 0.955348 0.664723 0.370592
O O13 0.690065 0.936082 0.356682
O O14 0.163732 0.952778 0.449525
O O15 0.900920 0.250000 0.750000
#
# Coordination Sequence:
#
# PCOD9412290 Si02
#       8
#     8   8   8   8   4   8   4   8
#     4  11  20  38  62  94 130 170 205 255 321 377
#     4  11  21  40  63  91 126 167 210 263 316 380
#     4  11  23  45  65  91 118 166 216 273 325 369
#     4  10  23  41  65  91 122 163 221 263 315 387
#     4  11  22  38  60  97 132 172 213 252 324 381
#     4  11  21  34  62  97 135 168 207 253 317 390
#     4  11  20  36  60  97 136 170 209 260 308 391
#     4   9  19  38  61  84 117 165 209 248 312 380
#
# _framework density 23.535851000000001
#
# number of rings (size 3 to 8) (size 9 to 14) (size 15 to 20)
#    0.000    1.429    3.571    2.143    0.000    2.286 
#   10.286    0.000    0.000    0.000    0.000    0.000 
#    0.000    0.000    0.000    0.000    0.000    0.000 
#
# Total GULP energy -312272.873026 kJ/mol
# GULP energy per Si atom -5576.301304 kJ/mol
# Density = 2.348228 g / cm^3
# Si number density = 23.535851 Si / 1000 Ang^3
#
#
#
# Elastic Constant Matrix: (Units=GPa)
#
#
# Indices 1 2 3 4 5 6 
#
# 1 101.4979 20.3236 14.8801 0.0000 0.0000 0.0000
# 2 20.3236 125.1988 15.6964 0.0000 0.0000 0.0000
# 3 14.8801 15.6964 40.8106 0.0000 0.0000 0.0000
# 4 0.0000 0.0000 0.0000 6.3596 0.0000 0.0000
# 5 0.0000 0.0000 0.0000 0.0000 12.2528 0.0000
# 6 0.0000 0.0000 0.0000 0.0000 0.0000 37.3525
#
#
#
# Elastic Compliance Matrix: (Units=1/GPa)
#
#
# Indices 1 2 3 4 5 6 
#
# 1 0.010606 -0.001300 -0.003367 0.000000 0.000000 0.000000
# 2 -0.001300 0.008551 -0.002815 0.000000 0.000000 0.000000
# 3 -0.003367 -0.002815 0.026814 0.000000 0.000000 0.000000
# 4 0.000000 0.000000 0.000000 0.157243 0.000000 0.000000
# 5 0.000000 0.000000 0.000000 0.000000 0.081614 0.000000
# 6 0.000000 0.000000 0.000000 0.000000 0.000000 0.026772
#
#
# Mechanical properties :
#
#
# Convention : Reuss Voigt Hill
#
# Bulk Modulus (GPa) = 32.25033 41.03415 36.64224
# Shear Modulus (GPa) = 14.84118 25.63344 20.23731
#
# Velocity S-wave (km/s) = 2.51385 3.30377 2.93550
# Velocity P-wave (km/s) = 4.70726 5.65913 5.20500
#
# Compressibility (1/GPa) = 0.03100743
#
# Stress axis : x y z
#
# Youngs Moduli (GPa) = 94.28347 116.94279 37.29401
#
# Poissons Ratio (x) = 0.15197 0.12558
# Poissons Ratio (y) = 0.12253 0.10499
# Poissons Ratio (z) = 0.31749 0.32920
#
# Static dielectric constant tensor:
#      x y z
#    x 1.890510 0.000000 0.000000 
#    y 0.000000 1.989180 0.000000 
#    z 0.000000 0.000000 1.931400 
# 
# From -- ./inp_files/24991.got.cif
#   From: 2010.05.17/outbox.cif.g08.bks.cpg/sg52_13_cif.got.tgz:24991.got - 2010.06.03 12:15:38.
