data_PCOD9412561
_publ_section_title
;
Structure prediction by ZEFSAII (Michael W. Deem and Ramdas Pophale) SiO2 
 PCOD9412561
Probable space group: P N N A
;
_chemical_formula_sum "Si O2"
_cell_formula_units_Z 32
_cell_length_a 8.199011
_cell_length_b 29.467539
_cell_length_c 4.784111
_cell_angle_alpha 90.000000
_cell_angle_beta 90.000000
_cell_angle_gamma 90.000000
_cell_volume 1155.863590
_symmetry_space_group_name_H-M "P N N A"
_symmetry_group_IT_number 52
_symmetry_cell_setting 'orthorhombic'
loop_
_space_group_symop_operation_xyz
x,y,z
1/2-x,-y,z
x,1/2-y,1/2-z
1/2-x,1/2+y,1/2-z
-x,-y,-z
1/2+x,y,-z
-x,1/2+y,1/2+z
1/2+x,1/2-y,1/2+z
loop_
_atom_site_type_symbol
_atom_site_label
_atom_site_fract_x
_atom_site_fract_y
_atom_site_fract_z
Si Si1 0.500000 0.000000 0.500000
Si Si2 0.751492 0.370924 0.791874
Si Si3 0.756212 0.067198 0.217682
Si Si4 0.953592 0.688647 0.379260
Si Si5 0.673675 0.750000 0.250000
O O1 0.579859 0.955590 0.338135
O O2 0.388565 0.967255 0.706488
O O3 0.767609 0.417088 0.601690
O O4 0.615867 0.340955 0.637576
O O5 0.915901 0.342115 0.775281
O O6 0.724740 0.387994 0.102296
O O7 0.801321 0.708780 0.206546
O O8 0.055685 0.730212 0.515371
#
# Coordination Sequence:
#
# PCOD9412561 Si02
#       5
#     4   8   8   8   4
#     4  10  24  40  66  96 136 180 228 290 350 416
#     4  11  24  43  69  99 137 184 235 292 359 431
#     4  11  24  42  65  98 135 180 233 288 354 424
#     4  10  24  42  69 101 140 186 236 299 365 434
#     4  10  24  44  64 102 140 182 240 298 370 440
#
# _framework density 27.684930999999999
#
# number of rings (size 3 to 8) (size 9 to 14) (size 15 to 20)
#    0.000    1.500    0.000    3.000    0.000   18.000 
#    0.000    0.000    0.000    0.000    0.000    0.000 
#    0.000    0.000    0.000    0.000    0.000    0.000 
#
# Total GULP energy -178578.747230 kJ/mol
# GULP energy per Si atom -5580.585851 kJ/mol
# Density = 2.762192 g / cm^3
# Si number density = 27.684931 Si / 1000 Ang^3
#
#
#
# Elastic Constant Matrix: (Units=GPa)
#
#
# Indices 1 2 3 4 5 6 
#
# 1 137.8361 40.7504 39.7122 0.0000 0.0000 0.0000
# 2 40.7504 129.7374 19.7760 0.0000 0.0000 0.0000
# 3 39.7122 19.7760 93.0861 0.0000 0.0000 0.0000
# 4 0.0000 0.0000 0.0000 16.4279 0.0000 0.0000
# 5 0.0000 0.0000 0.0000 0.0000 69.6396 0.0000
# 6 0.0000 0.0000 0.0000 0.0000 0.0000 59.3946
#
#
#
# Elastic Compliance Matrix: (Units=1/GPa)
#
#
# Indices 1 2 3 4 5 6 
#
# 1 0.008883 -0.002286 -0.003304 0.000000 0.000000 0.000000
# 2 -0.002286 0.008554 -0.000842 0.000000 0.000000 0.000000
# 3 -0.003304 -0.000842 0.012331 0.000000 0.000000 0.000000
# 4 0.000000 0.000000 0.000000 0.060872 0.000000 0.000000
# 5 0.000000 0.000000 0.000000 0.000000 0.014360 0.000000
# 6 0.000000 0.000000 0.000000 0.000000 0.000000 0.016837
#
#
# Mechanical properties :
#
#
# Convention : Reuss Voigt Hill
#
# Bulk Modulus (GPa) = 59.15805 62.34856 60.75330
# Shear Modulus (GPa) = 35.62885 46.45381 41.04133
#
# Velocity S-wave (km/s) = 3.59129 4.10072 3.85443
# Velocity P-wave (km/s) = 6.21379 6.70752 6.46537
#
# Compressibility (1/GPa) = 0.01690387
#
# Stress axis : x y z
#
# Youngs Moduli (GPa) = 112.57647 116.89898 81.09591
#
# Poissons Ratio (x) = 0.26729 0.26793
# Poissons Ratio (y) = 0.25741 0.06828
# Poissons Ratio (z) = 0.37193 0.09842
#
# Static dielectric constant tensor:
#      x y z
#    x 2.139030 0.000000 0.000000 
#    y 0.000000 2.194600 0.000000 
#    z 0.000000 0.000000 2.063120 
# 
# From -- ./inp_files/428.got.cif
#   From: 2010.05.17/outbox.cif.g08.bks.cpg/sg52_1_cif.got.tgz:428.got - 2010.06.03 12:15:38.
