data_PCOD9412704
_publ_section_title
;
Structure prediction by ZEFSAII (Michael W. Deem and Ramdas Pophale) SiO2 
 PCOD9412704
Probable space group: P N N A
;
_chemical_formula_sum "Si O2"
_cell_formula_units_Z 64
_cell_length_a 7.838518
_cell_length_b 15.698238
_cell_length_c 24.195557
_cell_angle_alpha 90.000000
_cell_angle_beta 90.000000
_cell_angle_gamma 90.000000
_cell_volume 2977.285576
_symmetry_space_group_name_H-M "P N N A"
_symmetry_group_IT_number 52
_symmetry_cell_setting 'orthorhombic'
loop_
_space_group_symop_operation_xyz
x,y,z
1/2-x,-y,z
x,1/2-y,1/2-z
1/2-x,1/2+y,1/2-z
-x,-y,-z
1/2+x,y,-z
-x,1/2+y,1/2+z
1/2+x,1/2-y,1/2+z
loop_
_atom_site_type_symbol
_atom_site_label
_atom_site_fract_x
_atom_site_fract_y
_atom_site_fract_z
Si Si1 0.993991 0.112026 0.650621
Si Si2 0.032171 0.220467 0.453372
Si Si3 0.552641 0.023856 0.561893
Si Si4 0.153681 0.253452 0.574096
Si Si5 0.546134 0.128126 0.154544
Si Si6 0.451860 0.999249 0.757709
Si Si7 0.767452 0.746260 0.645304
Si Si8 0.092676 0.821334 0.790353
O O1 0.115738 0.187710 0.625350
O O2 0.994891 0.068011 0.710800
O O3 0.810771 0.159104 0.648614
O O4 0.030359 0.035076 0.608343
O O5 0.019631 0.123439 0.432019
O O6 0.067772 0.218136 0.518520
O O7 0.185030 0.264634 0.419487
O O8 0.852129 0.261618 0.438724
O O9 0.750000 0.000000 0.566527
O O10 0.500000 0.000000 0.500000
O O11 0.073093 0.344098 0.591240
O O12 0.505478 0.037497 0.181464
O O13 0.382645 0.186719 0.169525
O O14 0.737380 0.147813 0.177832
O O15 0.250000 0.000000 0.750032
O O16 0.494860 0.099009 0.758391
O O17 0.943623 0.724342 0.675241
O O18 0.162743 0.750000 0.750000
#
# Coordination Sequence:
#
# PCOD9412704 Si02
#       8
#     8   8   8   8   8   8   8   8
#     4  11  25  40  63  98 136 187 218 284 335 412
#     4  12  23  41  62 102 132 185 228 279 338 420
#     4  12  24  38  55  88 137 178 226 275 329 404
#     4  11  23  39  69  93 138 177 228 274 345 406
#     4  10  24  45  67  96 132 178 219 290 334 400
#     4  10  26  44  70  99 136 177 238 281 353 408
#     4  11  25  43  66  96 139 173 230 277 339 401
#     4  11  26  45  69  99 129 182 230 283 344 417
#
# _framework density 21.496089999999999
#
# number of rings (size 3 to 8) (size 9 to 14) (size 15 to 20)
#    0.000    1.000    3.750    2.250   12.250    0.500 
#    0.000    0.000    0.000    0.750    3.250    0.000 
#    0.000    0.000    0.000    0.000    0.000    0.000 
#
# Total GULP energy -356602.398272 kJ/mol
# GULP energy per Si atom -5571.912473 kJ/mol
# Density = 2.144716 g / cm^3
# Si number density = 21.496090 Si / 1000 Ang^3
#
#
#
# Elastic Constant Matrix: (Units=GPa)
#
#
# Indices 1 2 3 4 5 6 
#
# 1 67.2488 2.1240 17.5672 0.0000 0.0000 0.0000
# 2 2.1240 70.1351 36.7895 0.0000 0.0000 0.0000
# 3 17.5672 36.7895 55.7537 0.0000 0.0000 0.0000
# 4 0.0000 0.0000 0.0000 35.7939 0.0000 0.0000
# 5 0.0000 0.0000 0.0000 0.0000 15.2756 0.0000
# 6 0.0000 0.0000 0.0000 0.0000 0.0000 18.9482
#
#
#
# Elastic Compliance Matrix: (Units=1/GPa)
#
#
# Indices 1 2 3 4 5 6 
#
# 1 0.016734 0.003455 -0.007552 0.000000 0.000000 0.000000
# 2 0.003455 0.022519 -0.015948 0.000000 0.000000 0.000000
# 3 -0.007552 -0.015948 0.030839 0.000000 0.000000 0.000000
# 4 0.000000 0.000000 0.000000 0.027938 0.000000 0.000000
# 5 0.000000 0.000000 0.000000 0.000000 0.065464 0.000000
# 6 0.000000 0.000000 0.000000 0.000000 0.000000 0.052775
#
#
# Mechanical properties :
#
#
# Convention : Reuss Voigt Hill
#
# Bulk Modulus (GPa) = 33.33208 34.01099 33.67154
# Shear Modulus (GPa) = 18.77159 23.11401 20.94280
#
# Velocity S-wave (km/s) = 2.95830 3.28268 3.12470
# Velocity P-wave (km/s) = 5.21617 5.49766 5.35877
#
# Compressibility (1/GPa) = 0.03000113
#
# Stress axis : x y z
#
# Youngs Moduli (GPa) = 59.75902 44.40682 32.42653
#
# Poissons Ratio (x) = -0.15341 0.24489
# Poissons Ratio (y) = -0.20645 0.51713
# Poissons Ratio (z) = 0.45131 0.70820
#
# Static dielectric constant tensor:
#      x y z
#    x 1.800080 0.000000 0.000000 
#    y 0.000000 1.868090 0.000000 
#    z 0.000000 0.000000 1.817400 
# 
# From -- ./inp_files/39691.got.cif
#   From: 2010.05.17/outbox.cif.g08.bks.cpg/sg52_20_cif.got.tgz:39691.got - 2010.06.03 12:15:38.
