data_PCOD9412064
_publ_section_title
;
Structure prediction by ZEFSAII (Michael W. Deem and Ramdas Pophale) SiO2 
 PCOD9412064
Probable space group: P N N A
;
_chemical_formula_sum "Si O2"
_cell_formula_units_Z 40
_cell_length_a 9.697381
_cell_length_b 8.712458
_cell_length_c 17.610023
_cell_angle_alpha 90.000000
_cell_angle_beta 90.000000
_cell_angle_gamma 90.000000
_cell_volume 1487.836058
_symmetry_space_group_name_H-M "P N N A"
_symmetry_group_IT_number 52
_symmetry_cell_setting 'orthorhombic'
loop_
_space_group_symop_operation_xyz
x,y,z
1/2-x,-y,z
x,1/2-y,1/2-z
1/2-x,1/2+y,1/2-z
-x,-y,-z
1/2+x,y,-z
-x,1/2+y,1/2+z
1/2+x,1/2-y,1/2+z
loop_
_atom_site_type_symbol
_atom_site_label
_atom_site_fract_x
_atom_site_fract_y
_atom_site_fract_z
Si Si1 0.354583 0.879997 0.187204
Si Si2 0.483116 0.600573 0.795344
Si Si3 0.103905 0.701305 0.046922
Si Si4 0.893191 0.179070 0.379258
Si Si5 0.173277 0.340896 0.535470
O O1 0.304333 0.750000 0.250000
O O2 0.262930 0.747541 0.036100
O O3 0.250000 0.000000 0.143125
O O4 0.419889 0.013298 0.237490
O O5 0.432899 0.750000 0.750000
O O6 0.387892 0.460772 0.822465
O O7 0.571547 0.634987 0.871656
O O8 0.989455 0.836553 0.040603
O O9 0.250000 0.000000 0.965775
O O10 0.079539 0.618705 0.965555
O O11 0.744405 0.257766 0.391921
O O12 0.015315 0.296182 0.355007
#
# Coordination Sequence:
#
# PCOD9412064 Si02
#       5
#     8   8   8   8   8
#     4  10  22  43  70 107 144 191 243 305 373 447
#     4  11  24  43  69 110 145 194 240 308 381 444
#     4  10  24  44  74 104 144 194 253 302 372 443
#     4   9  24  46  72 103 148 186 252 307 367 446
#     4  10  23  44  73 110 143 189 257 306 378 430
#
# _framework density 26.884684
#
# number of rings (size 3 to 8) (size 9 to 14) (size 15 to 20)
#    1.200    0.800    0.000    1.800    2.800    6.400 
#    0.000    7.000    0.000    0.000    0.000    0.000 
#    0.000    0.000    0.000    0.000    0.000    0.000 
#
# Total GULP energy -223034.624246 kJ/mol
# GULP energy per Si atom -5575.865606 kJ/mol
# Density = 2.682349 g / cm^3
# Si number density = 26.884684 Si / 1000 Ang^3
#
#
#
# Elastic Constant Matrix: (Units=GPa)
#
#
# Indices 1 2 3 4 5 6 
#
# 1 113.4401 31.3365 25.8328 0.0000 0.0000 0.0000
# 2 31.3365 71.0521 21.5596 0.0000 0.0000 0.0000
# 3 25.8328 21.5596 122.4420 0.0000 0.0000 0.0000
# 4 0.0000 0.0000 0.0000 53.2305 0.0000 0.0000
# 5 0.0000 0.0000 0.0000 0.0000 30.5447 0.0000
# 6 0.0000 0.0000 0.0000 0.0000 0.0000 16.2552
#
#
#
# Elastic Compliance Matrix: (Units=1/GPa)
#
#
# Indices 1 2 3 4 5 6 
#
# 1 0.010275 -0.004093 -0.001447 0.000000 0.000000 0.000000
# 2 -0.004093 0.016499 -0.002042 0.000000 0.000000 0.000000
# 3 -0.001447 -0.002042 0.008832 0.000000 0.000000 0.000000
# 4 0.000000 0.000000 0.000000 0.018786 0.000000 0.000000
# 5 0.000000 0.000000 0.000000 0.000000 0.032739 0.000000
# 6 0.000000 0.000000 0.000000 0.000000 0.000000 0.061519
#
#
# Mechanical properties :
#
#
# Convention : Reuss Voigt Hill
#
# Bulk Modulus (GPa) = 48.91667 51.59912 50.25789
# Shear Modulus (GPa) = 29.30363 35.21976 32.26169
#
# Velocity S-wave (km/s) = 3.30506 3.62336 3.46786
# Velocity P-wave (km/s) = 5.72704 6.06130 5.89654
#
# Compressibility (1/GPa) = 0.02044293
#
# Stress axis : x y z
#
# Youngs Moduli (GPa) = 97.32031 60.61093 113.22514
#
# Poissons Ratio (x) = 0.24806 0.16387
# Poissons Ratio (y) = 0.39830 0.23116
# Poissons Ratio (z) = 0.14085 0.12374
#
# Static dielectric constant tensor:
#      x y z
#    x 2.175580 0.000000 0.000000 
#    y 0.000000 2.178830 0.000000 
#    z 0.000000 0.000000 2.159880 
# 
# From -- ./inp_files/31953.got.cif
#   From: 2010.05.17/outbox.cif.g08.bks.cpg/sg52_16_cif.got.tgz:31953.got - 2010.06.03 12:15:38.
