data_PCOD9412913
_publ_section_title
;
Structure prediction by ZEFSAII (Michael W. Deem and Ramdas Pophale) SiO2 
 PCOD9412913
Probable space group: P N N A
;
_chemical_formula_sum "Si O2"
_cell_formula_units_Z 32
_cell_length_a 8.961588
_cell_length_b 18.277067
_cell_length_c 7.150312
_cell_angle_alpha 90.000000
_cell_angle_beta 90.000000
_cell_angle_gamma 90.000000
_cell_volume 1171.160645
_symmetry_space_group_name_H-M "P N N A"
_symmetry_group_IT_number 52
_symmetry_cell_setting 'orthorhombic'
loop_
_space_group_symop_operation_xyz
x,y,z
1/2-x,-y,z
x,1/2-y,1/2-z
1/2-x,1/2+y,1/2-z
-x,-y,-z
1/2+x,y,-z
-x,1/2+y,1/2+z
1/2+x,1/2-y,1/2+z
loop_
_atom_site_type_symbol
_atom_site_label
_atom_site_fract_x
_atom_site_fract_y
_atom_site_fract_z
Si Si1 0.461377 0.121975 0.391559
Si Si2 0.522371 0.826933 0.200690
Si Si3 0.750000 0.500000 0.747535
Si Si4 0.746751 0.750000 0.750000
Si Si5 0.287868 0.578477 0.609630
O O1 0.512176 0.132882 0.603689
O O2 0.362017 0.049648 0.362657
O O3 0.356762 0.191015 0.346440
O O4 0.596827 0.117243 0.246028
O O5 0.604587 0.750000 0.250000
O O6 0.367024 0.794235 0.121397
O O7 0.635584 0.876256 0.086969
O O8 0.661910 0.448522 0.596625
O O9 0.250000 0.500000 0.703290
#
# Coordination Sequence:
#
# PCOD9412913 Si02
#       5
#     8   8   4   4   8
#     4  12  25  46  80 107 150 209 245 317 387 442
#     4  10  26  49  71 110 155 191 260 318 380 453
#     4  10  28  44  74 116 148 196 262 304 380 464
#     4  10  28  42  74 108 148 190 266 296 380 452
#     4  10  26  47  73 112 157 197 253 320 372 456
#
# _framework density 27.323322999999998
#
# number of rings (size 3 to 8) (size 9 to 14) (size 15 to 20)
#    1.500    0.000    0.000    2.250   10.500    3.000 
#    0.000    0.000    0.000    0.000    0.000    0.000 
#    0.000    0.000    0.000    0.000    0.000    0.000 
#
# Total GULP energy -179362.514646 kJ/mol
# GULP energy per Si atom -5605.078583 kJ/mol
# Density = 2.726113 g / cm^3
# Si number density = 27.323323 Si / 1000 Ang^3
#
#
#
# Elastic Constant Matrix: (Units=GPa)
#
#
# Indices 1 2 3 4 5 6 
#
# 1 161.6961 73.7442 64.0859 0.0000 0.0000 0.0000
# 2 73.7442 138.1678 53.5855 0.0000 0.0000 0.0000
# 3 64.0859 53.5855 151.0122 0.0000 0.0000 0.0000
# 4 0.0000 0.0000 0.0000 36.2272 0.0000 0.0000
# 5 0.0000 0.0000 0.0000 0.0000 40.6076 0.0000
# 6 0.0000 0.0000 0.0000 0.0000 0.0000 58.2382
#
#
#
# Elastic Compliance Matrix: (Units=1/GPa)
#
#
# Indices 1 2 3 4 5 6 
#
# 1 0.008876 -0.003799 -0.002418 0.000000 0.000000 0.000000
# 2 -0.003799 0.010019 -0.001943 0.000000 0.000000 0.000000
# 3 -0.002418 -0.001943 0.008338 0.000000 0.000000 0.000000
# 4 0.000000 0.000000 0.000000 0.027604 0.000000 0.000000
# 5 0.000000 0.000000 0.000000 0.000000 0.024626 0.000000
# 6 0.000000 0.000000 0.000000 0.000000 0.000000 0.017171
#
#
# Mechanical properties :
#
#
# Convention : Reuss Voigt Hill
#
# Bulk Modulus (GPa) = 91.64933 92.63415 92.14174
# Shear Modulus (GPa) = 42.88506 44.31196 43.59851
#
# Velocity S-wave (km/s) = 3.96604 4.03148 3.99889
# Velocity P-wave (km/s) = 7.38837 7.45969 7.42412
#
# Compressibility (1/GPa) = 0.01091115
#
# Stress axis : x y z
#
# Youngs Moduli (GPa) = 112.66735 99.81221 119.93694
#
# Poissons Ratio (x) = 0.37921 0.29007
# Poissons Ratio (y) = 0.42805 0.23301
# Poissons Ratio (z) = 0.27249 0.19391
#
# Static dielectric constant tensor:
#      x y z
#    x 2.089140 0.000000 0.000000 
#    y 0.000000 2.329080 0.000000 
#    z 0.000000 0.000000 2.116820 
# 
# From -- ./inp_files/8467.got.cif
#   From: 2010.05.17/outbox.cif.g08.bks.cpg/sg52_5_cif.got.tgz:8467.got - 2010.06.03 12:15:38.
