data_PCOD9412039
_publ_section_title
;
Structure prediction by ZEFSAII (Michael W. Deem and Ramdas Pophale) SiO2 
 PCOD9412039
Probable space group: P N N A
;
_chemical_formula_sum "Si O2"
_cell_formula_units_Z 60
_cell_length_a 12.160970
_cell_length_b 11.537299
_cell_length_c 18.977603
_cell_angle_alpha 90.000000
_cell_angle_beta 90.000000
_cell_angle_gamma 90.000000
_cell_volume 2662.647788
_symmetry_space_group_name_H-M "P N N A"
_symmetry_group_IT_number 52
_symmetry_cell_setting 'orthorhombic'
loop_
_space_group_symop_operation_xyz
x,y,z
1/2-x,-y,z
x,1/2-y,1/2-z
1/2-x,1/2+y,1/2-z
-x,-y,-z
1/2+x,y,-z
-x,1/2+y,1/2+z
1/2+x,1/2-y,1/2+z
loop_
_atom_site_type_symbol
_atom_site_label
_atom_site_fract_x
_atom_site_fract_y
_atom_site_fract_z
Si Si1 0.250000 0.500000 0.801905
Si Si2 0.554227 0.532039 0.304745
Si Si3 0.132784 0.627332 0.290538
Si Si4 0.158605 0.580414 0.558815
Si Si5 0.453676 0.294416 0.435885
Si Si6 0.749976 0.629785 0.930125
Si Si7 0.194684 0.196006 0.584757
Si Si8 0.132020 0.305061 0.323493
O O1 0.349131 0.453640 0.752320
O O2 0.210815 0.394000 0.851664
O O3 0.459187 0.460617 0.262315
O O4 0.620227 0.500021 0.376191
O O5 0.479054 0.630439 0.341916
O O6 0.120435 0.750000 0.250000
O O7 0.089221 0.633852 0.369803
O O8 0.263608 0.616340 0.300455
O O9 0.250000 0.500000 0.519612
O O10 0.067564 0.627365 0.504423
O O11 0.217731 0.698363 0.586240
O O12 0.371308 0.184224 0.436092
O O13 0.574282 0.250573 0.419831
O O14 0.750000 0.500000 0.900548
O O15 0.821910 0.715274 0.880900
O O16 0.792972 0.631102 0.009776
O O17 0.099543 0.250000 0.250000
#
# Coordination Sequence:
#
# PCOD9412039 Si02
#       8
#     4   8   8   8   8   8   8   8
#     4  12  28  44  72 102 146 206 240 302 362 436
#     4  12  25  44  66 103 141 195 236 297 359 428
#     4  10  22  43  68 100 139 182 238 293 366 427
#     4  11  25  44  68 105 143 185 244 300 364 437
#     4  10  23  41  72  99 136 192 228 301 362 435
#     4  10  22  44  70 104 140 181 241 301 367 433
#     4  11  24  46  67 102 145 187 250 289 364 444
#     4  10  24  41  69 103 136 182 233 302 357 429
#
# _framework density 22.533961000000001
#
# number of rings (size 3 to 8) (size 9 to 14) (size 15 to 20)
#    0.000    1.333    1.333    2.800    1.867   10.133 
#    0.000    0.000    0.000    0.000    0.000    0.000 
#    0.000    0.000    0.000    0.000    0.000    0.000 
#
# Total GULP energy -334572.029110 kJ/mol
# GULP energy per Si atom -5576.200485 kJ/mol
# Density = 2.248267 g / cm^3
# Si number density = 22.533961 Si / 1000 Ang^3
#
#
#
# Elastic Constant Matrix: (Units=GPa)
#
#
# Indices 1 2 3 4 5 6 
#
# 1 135.4965 30.7129 37.7561 0.0000 0.0000 0.0000
# 2 30.7129 103.2262 30.2733 0.0000 0.0000 0.0000
# 3 37.7561 30.2733 109.2658 0.0000 0.0000 0.0000
# 4 0.0000 0.0000 0.0000 32.1913 0.0000 0.0000
# 5 0.0000 0.0000 0.0000 0.0000 89.8013 0.0000
# 6 0.0000 0.0000 0.0000 0.0000 0.0000 21.8414
#
#
#
# Elastic Compliance Matrix: (Units=1/GPa)
#
#
# Indices 1 2 3 4 5 6 
#
# 1 0.008466 -0.001808 -0.002424 0.000000 0.000000 0.000000
# 2 -0.001808 0.010930 -0.002404 0.000000 0.000000 0.000000
# 3 -0.002424 -0.002404 0.010656 0.000000 0.000000 0.000000
# 4 0.000000 0.000000 0.000000 0.031064 0.000000 0.000000
# 5 0.000000 0.000000 0.000000 0.000000 0.011136 0.000000
# 6 0.000000 0.000000 0.000000 0.000000 0.000000 0.045785
#
#
# Mechanical properties :
#
#
# Convention : Reuss Voigt Hill
#
# Bulk Modulus (GPa) = 59.59515 60.60812 60.10163
# Shear Modulus (GPa) = 36.52270 45.38320 40.95295
#
# Velocity S-wave (km/s) = 4.03026 4.49262 4.26771
# Velocity P-wave (km/s) = 6.93986 7.33936 7.14240
#
# Compressibility (1/GPa) = 0.01677989
#
# Stress axis : x y z
#
# Youngs Moduli (GPa) = 118.12539 91.48911 93.84659
#
# Poissons Ratio (x) = 0.16539 0.22752
# Poissons Ratio (y) = 0.21354 0.22558
# Poissons Ratio (z) = 0.28638 0.21991
#
# Static dielectric constant tensor:
#      x y z
#    x 1.968840 0.000000 0.000000 
#    y 0.000000 1.805630 0.000000 
#    z 0.000000 0.000000 1.861580 
# 
# From -- ./inp_files/36885.got.cif
#   From: 2010.05.17/outbox.cif.g08.bks.cpg/sg52_19_cif.got.tgz:36885.got - 2010.06.03 12:15:38.
