data_PCOD9412921
_publ_section_title
;
Structure prediction by ZEFSAII (Michael W. Deem and Ramdas Pophale) SiO2 
 PCOD9412921
Probable space group: P N N A
;
_chemical_formula_sum "Si O2"
_cell_formula_units_Z 48
_cell_length_a 9.413508
_cell_length_b 11.225354
_cell_length_c 22.070380
_cell_angle_alpha 90.000000
_cell_angle_beta 90.000000
_cell_angle_gamma 90.000000
_cell_volume 2332.176165
_symmetry_space_group_name_H-M "P N N A"
_symmetry_group_IT_number 52
_symmetry_cell_setting 'orthorhombic'
loop_
_space_group_symop_operation_xyz
x,y,z
1/2-x,-y,z
x,1/2-y,1/2-z
1/2-x,1/2+y,1/2-z
-x,-y,-z
1/2+x,y,-z
-x,1/2+y,1/2+z
1/2+x,1/2-y,1/2+z
loop_
_atom_site_type_symbol
_atom_site_label
_atom_site_fract_x
_atom_site_fract_y
_atom_site_fract_z
Si Si1 0.605640 0.545535 0.826053
Si Si2 0.999691 0.270466 0.622674
Si Si3 0.132722 0.924517 0.021445
Si Si4 0.862757 0.608014 0.267857
Si Si5 0.749623 0.721320 0.043926
Si Si6 0.048219 0.095698 0.450165
O O1 0.750000 0.500000 0.795810
O O2 0.612934 0.681818 0.848050
O O3 0.470753 0.555074 0.782163
O O4 0.586036 0.465530 0.886520
O O5 0.052473 0.368362 0.669900
O O6 0.139884 0.201388 0.598363
O O7 0.931441 0.323291 0.563020
O O8 0.250000 0.000000 0.056844
O O9 0.222399 0.860714 0.968508
O O10 0.000000 0.000000 0.000000
O O11 0.750000 0.500000 0.275624
O O12 0.821472 0.750000 0.250000
O O13 0.594548 0.671832 0.058480
O O14 0.823109 0.665158 0.983706
O O15 0.000000 0.000000 0.500000
#
# Coordination Sequence:
#
# PCOD9412921 Si02
#       6
#     8   8   8   8   8   8
#     4  11  24  44  71  99 135 175 231 295 350 414
#     4  11  24  43  67  96 141 176 230 286 348 420
#     4  12  23  39  60  89 132 180 221 266 337 416
#     4  10  26  48  73 100 136 189 244 294 348 416
#     4  12  23  39  61 101 137 177 219 279 357 415
#     4  12  22  36  66 101 139 168 215 278 355 416
#
# _framework density 20.581637000000001
#
# number of rings (size 3 to 8) (size 9 to 14) (size 15 to 20)
#    0.000    0.667    5.000    2.500    7.000    0.667 
#    0.000    4.167    0.000    0.000    0.000    0.000 
#    0.000    0.000    0.000    0.000    0.000    0.000 
#
# Total GULP energy -267714.525561 kJ/mol
# GULP energy per Si atom -5577.385949 kJ/mol
# Density = 2.053479 g / cm^3
# Si number density = 20.581637 Si / 1000 Ang^3
#
#
#
# Elastic Constant Matrix: (Units=GPa)
#
#
# Indices 1 2 3 4 5 6 
#
# 1 108.0361 57.1770 21.5314 0.0000 0.0000 0.0000
# 2 57.1770 89.4248 12.5487 0.0000 0.0000 0.0000
# 3 21.5314 12.5487 67.9694 0.0000 0.0000 0.0000
# 4 0.0000 0.0000 0.0000 24.0751 0.0000 0.0000
# 5 0.0000 0.0000 0.0000 0.0000 18.7058 0.0000
# 6 0.0000 0.0000 0.0000 0.0000 0.0000 46.6859
#
#
#
# Elastic Compliance Matrix: (Units=1/GPa)
#
#
# Indices 1 2 3 4 5 6 
#
# 1 0.014551 -0.008887 -0.002969 0.000000 0.000000 0.000000
# 2 -0.008887 0.016908 -0.000306 0.000000 0.000000 0.000000
# 3 -0.002969 -0.000306 0.015710 0.000000 0.000000 0.000000
# 4 0.000000 0.000000 0.000000 0.041537 0.000000 0.000000
# 5 0.000000 0.000000 0.000000 0.000000 0.053459 0.000000
# 6 0.000000 0.000000 0.000000 0.000000 0.000000 0.021420
#
#
# Mechanical properties :
#
#
# Convention : Reuss Voigt Hill
#
# Bulk Modulus (GPa) = 43.77499 49.77160 46.77329
# Shear Modulus (GPa) = 25.57229 29.50491 27.53860
#
# Velocity S-wave (km/s) = 3.52871 3.79034 3.66186
# Velocity P-wave (km/s) = 6.15772 6.58715 6.37605
#
# Compressibility (1/GPa) = 0.02284409
#
# Stress axis : x y z
#
# Youngs Moduli (GPa) = 68.72194 59.14349 63.65572
#
# Poissons Ratio (x) = 0.52563 0.18898
# Poissons Ratio (y) = 0.61076 0.01950
# Poissons Ratio (z) = 0.20402 0.01811
#
# Static dielectric constant tensor:
#      x y z
#    x 1.906760 0.000000 0.000000 
#    y 0.000000 1.881090 0.000000 
#    z 0.000000 0.000000 1.733560 
# 
# From -- ./inp_files/39428.got.cif
#   From: 2010.05.17/outbox.cif.g08.bks.cpg/sg52_20_cif.got.tgz:39428.got - 2010.06.03 12:15:38.
