data_PCOD9412113
_publ_section_title
;
Structure prediction by ZEFSAII (Michael W. Deem and Ramdas Pophale) SiO2 
 PCOD9412113
Probable space group: P N N A
;
_chemical_formula_sum "Si O2"
_cell_formula_units_Z 56
_cell_length_a 13.295816
_cell_length_b 11.904702
_cell_length_c 15.028153
_cell_angle_alpha 90.000000
_cell_angle_beta 90.000000
_cell_angle_gamma 90.000000
_cell_volume 2378.697044
_symmetry_space_group_name_H-M "P N N A"
_symmetry_group_IT_number 52
_symmetry_cell_setting 'orthorhombic'
loop_
_space_group_symop_operation_xyz
x,y,z
1/2-x,-y,z
x,1/2-y,1/2-z
1/2-x,1/2+y,1/2-z
-x,-y,-z
1/2+x,y,-z
-x,1/2+y,1/2+z
1/2+x,1/2-y,1/2+z
loop_
_atom_site_type_symbol
_atom_site_label
_atom_site_fract_x
_atom_site_fract_y
_atom_site_fract_z
Si Si1 0.713168 0.214660 0.571516
Si Si2 0.579406 0.844724 0.972773
Si Si3 0.925815 0.226244 0.349571
Si Si4 0.084611 0.454920 0.164261
Si Si5 0.361484 0.550542 0.363779
Si Si6 0.997865 0.189780 0.661857
Si Si7 0.711778 0.373338 0.125211
O O1 0.822433 0.271594 0.558295
O O2 0.685482 0.113491 0.638707
O O3 0.649611 0.321234 0.605936
O O4 0.687937 0.162203 0.475939
O O5 0.495248 0.784190 0.913925
O O6 0.595108 0.971167 0.941104
O O7 0.566002 0.823195 0.076828
O O8 0.960659 0.250000 0.250000
O O9 0.808058 0.197558 0.345319
O O10 0.993544 0.119145 0.377001
O O11 0.079821 0.460790 0.271299
O O12 0.068393 0.582398 0.133307
O O13 0.250000 0.500000 0.346340
O O14 0.955716 0.250000 0.750000
O O15 0.110010 0.144130 0.680142
O O16 0.750000 0.500000 0.127615
#
# Coordination Sequence:
#
# PCOD9412113 Si02
#       7
#     8   8   8   8   8   8   8
#     4  10  24  40  68 102 136 177 225 275 340 410
#     4  10  24  44  70 101 138 180 223 278 348 409
#     4  11  24  46  68  96 131 177 234 281 334 402
#     4  12  24  40  68 101 137 177 223 280 339 407
#     4  10  22  44  67 102 143 177 220 277 347 417
#     4  12  25  43  67 101 137 176 225 281 341 405
#     4  11  24  45  65  95 130 179 233 279 332 395
#
# _framework density 23.542299
#
# number of rings (size 3 to 8) (size 9 to 14) (size 15 to 20)
#    0.000    1.143    2.857    2.571    6.000    1.143 
#    2.571    4.286    0.000    0.000    0.000    0.000 
#    0.000    0.000    0.000    0.000    0.000    0.000 
#
# Total GULP energy -313216.698577 kJ/mol
# GULP energy per Si atom -5593.155332 kJ/mol
# Density = 2.348872 g / cm^3
# Si number density = 23.542299 Si / 1000 Ang^3
#
#
#
# Elastic Constant Matrix: (Units=GPa)
#
#
# Indices 1 2 3 4 5 6 
#
# 1 77.0548 2.5128 -17.1486 0.0000 0.0000 0.0000
# 2 2.5128 136.8193 33.0595 0.0000 0.0000 0.0000
# 3 -17.1486 33.0595 99.3540 0.0000 0.0000 0.0000
# 4 0.0000 0.0000 0.0000 35.0526 0.0000 0.0000
# 5 0.0000 0.0000 0.0000 0.0000 23.7697 0.0000
# 6 0.0000 0.0000 0.0000 0.0000 0.0000 32.2310
#
#
#
# Elastic Compliance Matrix: (Units=1/GPa)
#
#
# Indices 1 2 3 4 5 6 
#
# 1 0.013595 -0.000888 0.002642 0.000000 0.000000 0.000000
# 2 -0.000888 0.008006 -0.002817 0.000000 0.000000 0.000000
# 3 0.002642 -0.002817 0.011458 0.000000 0.000000 0.000000
# 4 0.000000 0.000000 0.000000 0.028529 0.000000 0.000000
# 5 0.000000 0.000000 0.000000 0.000000 0.042070 0.000000
# 6 0.000000 0.000000 0.000000 0.000000 0.000000 0.031026
#
#
# Mechanical properties :
#
#
# Convention : Reuss Voigt Hill
#
# Bulk Modulus (GPa) = 32.32851 38.89728 35.61290
# Shear Modulus (GPa) = 33.98552 37.86428 35.92490
#
# Velocity S-wave (km/s) = 3.80359 4.01478 3.91061
# Velocity P-wave (km/s) = 5.74905 6.16842 5.96242
#
# Compressibility (1/GPa) = 0.03093245
#
# Stress axis : x y z
#
# Youngs Moduli (GPa) = 73.55809 124.90723 87.27194
#
# Poissons Ratio (x) = 0.11092 -0.23057
# Poissons Ratio (y) = 0.06532 0.24586
# Poissons Ratio (z) = -0.19434 0.35189
#
# Static dielectric constant tensor:
#      x y z
#    x 1.931830 0.000000 0.000000 
#    y 0.000000 1.855850 0.000000 
#    z 0.000000 0.000000 1.842450 
# 
# From -- ./inp_files/27286.got.cif
#   From: 2010.05.17/outbox.cif.g08.bks.cpg/sg52_14_cif.got.tgz:27286.got - 2010.06.03 12:15:38.
