data_PCOD9412382
_publ_section_title
;
Structure prediction by ZEFSAII (Michael W. Deem and Ramdas Pophale) SiO2 
 PCOD9412382
Probable space group: P N N A
;
_chemical_formula_sum "Si O2"
_cell_formula_units_Z 40
_cell_length_a 10.365350
_cell_length_b 26.536067
_cell_length_c 6.613798
_cell_angle_alpha 90.000000
_cell_angle_beta 90.000000
_cell_angle_gamma 90.000000
_cell_volume 1819.162323
_symmetry_space_group_name_H-M "P N N A"
_symmetry_group_IT_number 52
_symmetry_cell_setting 'orthorhombic'
loop_
_space_group_symop_operation_xyz
x,y,z
1/2-x,-y,z
x,1/2-y,1/2-z
1/2-x,1/2+y,1/2-z
-x,-y,-z
1/2+x,y,-z
-x,1/2+y,1/2+z
1/2+x,1/2-y,1/2+z
loop_
_atom_site_type_symbol
_atom_site_label
_atom_site_fract_x
_atom_site_fract_y
_atom_site_fract_z
Si Si1 0.028217 0.807450 0.180020
Si Si2 0.683744 0.193036 0.839879
Si Si3 0.619910 0.933883 0.120915
Si Si4 0.904932 0.948159 0.200137
Si Si5 0.959461 0.621771 0.951113
O O1 0.017766 0.750000 0.250000
O O2 0.170152 0.813988 0.087719
O O3 0.015160 0.841628 0.377459
O O4 0.916224 0.815803 0.019443
O O5 0.669932 0.250000 0.750000
O O6 0.649049 0.153118 0.666415
O O7 0.773320 0.929532 0.091745
O O8 0.565189 0.896735 0.290750
O O9 0.597502 0.991404 0.197194
O O10 0.531103 0.929987 0.922078
O O11 0.905828 0.925881 0.424744
#
# Coordination Sequence:
#
# PCOD9412382 Si02
#       5
#     8   8   8   8   8
#     4  11  25  44  65  93 127 169 217 267 318 376
#     4  11  25  44  65  93 127 169 217 267 318 376
#     4  10  23  43  67  97 132 169 213 265 321 383
#     4  10  23  43  67  97 132 169 213 265 321 383
#     4  12  23  40  68  98 128 172 215 266 316 384
#
# _framework density 21.988142
#
# number of rings (size 3 to 8) (size 9 to 14) (size 15 to 20)
#    0.000    1.200    2.000    3.000    0.000   10.400 
#    0.000    4.000    0.000    0.000    0.000    0.000 
#    0.000    0.000    0.000    0.000    0.000    0.000 
#
# Total GULP energy -223962.657767 kJ/mol
# GULP energy per Si atom -5599.066444 kJ/mol
# Density = 2.193810 g / cm^3
# Si number density = 21.988142 Si / 1000 Ang^3
#
#
#
# Elastic Constant Matrix: (Units=GPa)
#
#
# Indices 1 2 3 4 5 6 
#
# 1 131.1180 8.7134 41.9160 0.0000 0.0000 0.0000
# 2 8.7134 75.9476 25.4764 0.0000 0.0000 0.0000
# 3 41.9160 25.4764 85.1655 0.0000 0.0000 0.0000
# 4 0.0000 0.0000 0.0000 39.8952 0.0000 0.0000
# 5 0.0000 0.0000 0.0000 0.0000 35.6238 0.0000
# 6 0.0000 0.0000 0.0000 0.0000 0.0000 16.1044
#
#
#
# Elastic Compliance Matrix: (Units=1/GPa)
#
#
# Indices 1 2 3 4 5 6 
#
# 1 0.009068 0.000508 -0.004615 0.000000 0.000000 0.000000
# 2 0.000508 0.014664 -0.004636 0.000000 0.000000 0.000000
# 3 -0.004615 -0.004636 0.015400 0.000000 0.000000 0.000000
# 4 0.000000 0.000000 0.000000 0.025066 0.000000 0.000000
# 5 0.000000 0.000000 0.000000 0.000000 0.028071 0.000000
# 6 0.000000 0.000000 0.000000 0.000000 0.000000 0.062095
#
#
# Mechanical properties :
#
#
# Convention : Reuss Voigt Hill
#
# Bulk Modulus (GPa) = 46.20025 49.38253 47.79139
# Shear Modulus (GPa) = 27.92254 32.73302 30.32778
#
# Velocity S-wave (km/s) = 3.56742 3.86251 3.71789
# Velocity P-wave (km/s) = 6.16650 6.51149 6.34134
#
# Compressibility (1/GPa) = 0.02164490
#
# Stress axis : x y z
#
# Youngs Moduli (GPa) = 110.27398 68.19415 64.93422
#
# Poissons Ratio (x) = -0.03462 0.29967
# Poissons Ratio (y) = -0.05599 0.30107
# Poissons Ratio (z) = 0.50892 0.31618
#
# Static dielectric constant tensor:
#      x y z
#    x 1.784850 0.000000 0.000000 
#    y 0.000000 1.843240 0.000000 
#    z 0.000000 0.000000 1.755710 
# 
# From -- ./inp_files/1354.got.cif
#   From: 2010.05.17/outbox.cif.g08.bks.cpg/sg52_1_cif.got.tgz:1354.got - 2010.06.03 12:15:38.
