data_PCOD9412909
_publ_section_title
;
Structure prediction by ZEFSAII (Michael W. Deem and Ramdas Pophale) SiO2 
 PCOD9412909
Probable space group: P N N A
;
_chemical_formula_sum "Si O2"
_cell_formula_units_Z 40
_cell_length_a 5.166205
_cell_length_b 10.433872
_cell_length_c 29.146293
_cell_angle_alpha 90.000000
_cell_angle_beta 90.000000
_cell_angle_gamma 90.000000
_cell_volume 1571.087837
_symmetry_space_group_name_H-M "P N N A"
_symmetry_group_IT_number 52
_symmetry_cell_setting 'orthorhombic'
loop_
_space_group_symop_operation_xyz
x,y,z
1/2-x,-y,z
x,1/2-y,1/2-z
1/2-x,1/2+y,1/2-z
-x,-y,-z
1/2+x,y,-z
-x,1/2+y,1/2+z
1/2+x,1/2-y,1/2+z
loop_
_atom_site_type_symbol
_atom_site_label
_atom_site_fract_x
_atom_site_fract_y
_atom_site_fract_z
Si Si1 0.044352 0.356824 0.624220
Si Si2 0.052263 0.226450 0.348032
Si Si3 0.030866 0.750000 0.750000
Si Si4 0.704042 0.800963 0.026101
Si Si5 0.750000 0.000000 0.598725
Si Si6 0.250000 0.500000 0.955691
Si Si7 0.250000 0.500000 0.703588
O O1 0.251983 0.262088 0.648575
O O2 0.180153 0.358021 0.573999
O O3 0.036787 0.467245 0.663840
O O4 0.753449 0.307325 0.621485
O O5 0.135433 0.228197 0.295422
O O6 0.088871 0.089318 0.368422
O O7 0.186145 0.620664 0.736031
O O8 0.671393 0.643671 0.026846
O O9 0.416195 0.841608 0.011726
O O10 0.517909 0.951892 0.567424
#
# Coordination Sequence:
#
# PCOD9412909 Si02
#       7
#     8   8   4   8   4   4   4
#     4  11  24  46  67  99 143 195 231 300 377 426
#     4  11  23  41  67  99 147 188 236 295 366 442
#     4  10  26  46  78 114 142 194 246 302 362 440
#     4  12  23  40  66 101 143 189 255 308 360 438
#     4  12  20  37  64  96 141 189 238 290 360 443
#     4  12  22  38  62 100 138 192 238 302 371 417
#     4  10  26  51  80 108 155 189 246 306 367 448
#
# _framework density 25.460065
#
# number of rings (size 3 to 8) (size 9 to 14) (size 15 to 20)
#    0.000    0.800    4.000    3.000    0.000   12.000 
#    0.000    1.000    0.000    0.000    0.000    0.000 
#    0.000    0.000    0.000    0.000    0.000    0.000 
#
# Total GULP energy -222724.429535 kJ/mol
# GULP energy per Si atom -5568.110738 kJ/mol
# Density = 2.540212 g / cm^3
# Si number density = 25.460065 Si / 1000 Ang^3
#
#
#
# Elastic Constant Matrix: (Units=GPa)
#
#
# Indices 1 2 3 4 5 6 
#
# 1 106.6015 7.7414 13.4153 0.0000 0.0000 0.0000
# 2 7.7414 98.5479 18.7597 0.0000 0.0000 0.0000
# 3 13.4153 18.7597 147.5133 0.0000 0.0000 0.0000
# 4 0.0000 0.0000 0.0000 -28.2546 0.0000 0.0000
# 5 0.0000 0.0000 0.0000 0.0000 41.9195 0.0000
# 6 0.0000 0.0000 0.0000 0.0000 0.0000 21.5005
#
#
#
# Elastic Compliance Matrix: (Units=1/GPa)
#
#
# Indices 1 2 3 4 5 6 
#
# 1 0.009524 -0.000598 -0.000790 0.000000 0.000000 0.000000
# 2 -0.000598 0.010437 -0.001273 0.000000 0.000000 0.000000
# 3 -0.000790 -0.001273 0.007013 0.000000 0.000000 0.000000
# 4 0.000000 0.000000 0.000000 -0.035393 0.000000 0.000000
# 5 0.000000 0.000000 0.000000 0.000000 0.023855 0.000000
# 6 0.000000 0.000000 0.000000 0.000000 0.000000 0.046510
#
#
# Mechanical properties :
#
#
# Convention : Reuss Voigt Hill
#
# Bulk Modulus (GPa) = 46.18605 48.05504 47.12054
# Shear Modulus (GPa) = 67.12785 27.88286 47.50535
#
# Velocity S-wave (km/s) = 5.14035 3.31291 4.32427
# Velocity P-wave (km/s) = 7.30827 5.79219 6.59395
#
# Compressibility (1/GPa) = 0.02165156
#
# Stress axis : x y z
#
# Youngs Moduli (GPa) = 105.00270 95.81653 142.59680
#
# Poissons Ratio (x) = 0.05727 0.11266
# Poissons Ratio (y) = 0.06276 0.18151
# Poissons Ratio (z) = 0.08296 0.12196
#
# Static dielectric constant tensor:
#      x y z
#    x 0.509810 0.000000 0.000000 
#    y 0.000000 2.237610 0.000000 
#    z 0.000000 0.000000 2.050330 
# 
# From -- ./inp_files/41557.got.cif
#   From: 2010.05.17/outbox.cif.g08.bks.cpg/sg52_21_cif.got.tgz:41557.got - 2010.06.03 12:15:38.
