data_PCOD9412771
_publ_section_title
;
Structure prediction by ZEFSAII (Michael W. Deem and Ramdas Pophale) SiO2 
 PCOD9412771
Probable space group: P N N A
;
_chemical_formula_sum "Si O2"
_cell_formula_units_Z 36
_cell_length_a 14.823227
_cell_length_b 19.298323
_cell_length_c 4.793000
_cell_angle_alpha 90.000000
_cell_angle_beta 90.000000
_cell_angle_gamma 90.000000
_cell_volume 1371.101984
_symmetry_space_group_name_H-M "P N N A"
_symmetry_group_IT_number 52
_symmetry_cell_setting 'orthorhombic'
loop_
_space_group_symop_operation_xyz
x,y,z
1/2-x,-y,z
x,1/2-y,1/2-z
1/2-x,1/2+y,1/2-z
-x,-y,-z
1/2+x,y,-z
-x,1/2+y,1/2+z
1/2+x,1/2-y,1/2+z
loop_
_atom_site_type_symbol
_atom_site_label
_atom_site_fract_x
_atom_site_fract_y
_atom_site_fract_z
Si Si1 0.716907 0.393177 0.354554
Si Si2 0.335999 0.414544 0.145321
Si Si3 0.479861 0.316679 0.900667
Si Si4 0.636933 0.250000 0.250000
Si Si5 0.421052 0.949840 0.404514
O O1 0.699873 0.312222 0.332185
O O2 0.752679 0.601521 0.674700
O O3 0.802772 0.418006 0.174485
O O4 0.633296 0.425611 0.181621
O O5 0.365120 0.490223 0.253107
O O6 0.412711 0.354607 0.124057
O O7 0.433478 0.250000 0.750000
O O8 0.529655 0.384024 0.757350
O O9 0.566617 0.279241 0.028054
O O10 0.500000 0.000000 0.500000
#
# Coordination Sequence:
#
# PCOD9412771 Si02
#       5
#     8   8   8   4   8
#     4  11  26  46  74 111 155 197 255 326 391 460
#     4  11  26  47  76 111 151 199 261 325 392 466
#     4  10  24  47  74 106 149 206 262 320 390 479
#     4  10  26  44  70 106 148 204 254 316 392 480
#     4   9  22  50  74 112 150 209 260 321 388 481
#
# _framework density 26.256250999999999
#
# number of rings (size 3 to 8) (size 9 to 14) (size 15 to 20)
#    0.000    1.778    0.000    0.667   10.889    3.556 
#    4.000    4.444    4.889    0.000    0.000    0.000 
#    0.000    0.000    0.000    0.000    0.000    0.000 
#
# Total GULP energy -200728.879317 kJ/mol
# GULP energy per Si atom -5575.802203 kJ/mol
# Density = 2.619649 g / cm^3
# Si number density = 26.256251 Si / 1000 Ang^3
#
#
#
# Elastic Constant Matrix: (Units=GPa)
#
#
# Indices 1 2 3 4 5 6 
#
# 1 85.0189 64.0050 12.5851 0.0000 0.0000 0.0000
# 2 64.0050 241.3889 47.5598 0.0000 0.0000 0.0000
# 3 12.5851 47.5598 86.1393 0.0000 0.0000 0.0000
# 4 0.0000 0.0000 0.0000 23.0359 0.0000 0.0000
# 5 0.0000 0.0000 0.0000 0.0000 30.6869 0.0000
# 6 0.0000 0.0000 0.0000 0.0000 0.0000 -25.1544
#
#
#
# Elastic Compliance Matrix: (Units=1/GPa)
#
#
# Indices 1 2 3 4 5 6 
#
# 1 0.014696 -0.003898 0.000005 0.000000 0.000000 0.000000
# 2 -0.003898 0.005682 -0.002568 0.000000 0.000000 0.000000
# 3 0.000005 -0.002568 0.013026 0.000000 0.000000 0.000000
# 4 0.000000 0.000000 0.000000 0.043411 0.000000 0.000000
# 5 0.000000 0.000000 0.000000 0.000000 0.032587 0.000000
# 6 0.000000 0.000000 0.000000 0.000000 0.000000 -0.039754
#
#
# Mechanical properties :
#
#
# Convention : Reuss Voigt Hill
#
# Bulk Modulus (GPa) = 48.82124 73.42742 61.12433
# Shear Modulus (GPa) = 55.93125 24.94016 40.43570
#
# Velocity S-wave (km/s) = 4.62042 3.08535 3.92859
# Velocity P-wave (km/s) = 6.86287 6.38114 6.62638
#
# Compressibility (1/GPa) = 0.02048289
#
# Stress axis : x y z
#
# Youngs Moduli (GPa) = 68.04783 175.99280 76.76884
#
# Poissons Ratio (x) = 0.68594 -0.00038
# Poissons Ratio (y) = 0.26522 0.19713
# Poissons Ratio (z) = -0.00033 0.45191
#
# Static dielectric constant tensor:
#      x y z
#    x 2.160110 0.000000 0.000000 
#    y 0.000000 2.044820 0.000000 
#    z 0.000000 0.000000 1.937990 
# 
# From -- ./inp_files/2160.got.cif
#   From: 2010.05.17/outbox.cif.g08.bks.cpg/sg52_2_cif.got.tgz:2160.got - 2010.06.03 12:15:38.
