data_PCOD9412432
_publ_section_title
;
Structure prediction by ZEFSAII (Michael W. Deem and Ramdas Pophale) SiO2 
 PCOD9412432
Probable space group: P N N A
;
_chemical_formula_sum "Si O2"
_cell_formula_units_Z 32
_cell_length_a 20.293602
_cell_length_b 6.968147
_cell_length_c 10.412830
_cell_angle_alpha 90.000000
_cell_angle_beta 90.000000
_cell_angle_gamma 90.000000
_cell_volume 1472.465815
_symmetry_space_group_name_H-M "P N N A"
_symmetry_group_IT_number 52
_symmetry_cell_setting 'orthorhombic'
loop_
_space_group_symop_operation_xyz
x,y,z
1/2-x,-y,z
x,1/2-y,1/2-z
1/2-x,1/2+y,1/2-z
-x,-y,-z
1/2+x,y,-z
-x,1/2+y,1/2+z
1/2+x,1/2-y,1/2+z
loop_
_atom_site_type_symbol
_atom_site_label
_atom_site_fract_x
_atom_site_fract_y
_atom_site_fract_z
Si Si1 0.068766 0.902761 0.853021
Si Si2 0.786619 0.324136 0.381259
Si Si3 0.436300 0.403777 0.352567
Si Si4 0.848655 0.750000 0.750000
Si Si5 0.250000 0.000000 0.427207
O O1 0.045019 0.750000 0.750000
O O2 0.146097 0.921983 0.829815
O O3 0.069573 0.837655 0.000917
O O4 0.015034 0.067086 0.839158
O O5 0.750000 0.500000 0.448032
O O6 0.752887 0.250000 0.250000
O O7 0.788761 0.149026 0.480195
O O8 0.412195 0.250000 0.250000
O O9 0.395612 0.600894 0.328633
O O10 0.801295 0.622269 0.841399
#
# Coordination Sequence:
#
# PCOD9412432 Si02
#       5
#     8   8   8   4   4
#     4  10  23  44  67 102 139 182 234 292 352 424
#     4  11  23  45  68 103 141 181 237 294 364 428
#     4  11  24  47  71 100 144 187 237 295 354 433
#     4  12  28  46  72 106 138 192 240 292 362 428
#     4  12  28  44  72 102 142 190 238 304 352 438
#
# _framework density 21.732254000000001
#
# number of rings (size 3 to 8) (size 9 to 14) (size 15 to 20)
#    0.000    1.000    2.500    3.000    7.000    2.000 
#   18.000    0.000    0.000    0.000    0.000    0.000 
#    0.000    0.000    0.000    0.000    0.000    0.000 
#
# Total GULP energy -178411.712414 kJ/mol
# GULP energy per Si atom -5575.366013 kJ/mol
# Density = 2.168279 g / cm^3
# Si number density = 21.732254 Si / 1000 Ang^3
#
#
#
# Elastic Constant Matrix: (Units=GPa)
#
#
# Indices 1 2 3 4 5 6 
#
# 1 92.2644 44.8614 11.8403 0.0000 0.0000 0.0000
# 2 44.8614 107.4453 67.9313 0.0000 0.0000 0.0000
# 3 11.8403 67.9313 146.8975 0.0000 0.0000 0.0000
# 4 0.0000 0.0000 0.0000 42.5781 0.0000 0.0000
# 5 0.0000 0.0000 0.0000 0.0000 20.0092 0.0000
# 6 0.0000 0.0000 0.0000 0.0000 0.0000 22.9502
#
#
#
# Elastic Compliance Matrix: (Units=1/GPa)
#
#
# Indices 1 2 3 4 5 6 
#
# 1 0.014103 -0.007306 0.002242 0.000000 0.000000 0.000000
# 2 -0.007306 0.016937 -0.007244 0.000000 0.000000 0.000000
# 3 0.002242 -0.007244 0.009976 0.000000 0.000000 0.000000
# 4 0.000000 0.000000 0.000000 0.023486 0.000000 0.000000
# 5 0.000000 0.000000 0.000000 0.000000 0.049977 0.000000
# 6 0.000000 0.000000 0.000000 0.000000 0.000000 0.043573
#
#
# Mechanical properties :
#
#
# Convention : Reuss Voigt Hill
#
# Bulk Modulus (GPa) = 60.97005 66.20814 63.58909
# Shear Modulus (GPa) = 26.57671 31.90576 29.24123
#
# Velocity S-wave (km/s) = 3.50081 3.83577 3.67212
# Velocity P-wave (km/s) = 6.66760 7.08160 6.87772
#
# Compressibility (1/GPa) = 0.01640150
#
# Stress axis : x y z
#
# Youngs Moduli (GPa) = 70.90717 59.04223 100.23586
#
# Poissons Ratio (x) = 0.43134 -0.22470
# Poissons Ratio (y) = 0.51802 0.72606
# Poissons Ratio (z) = -0.15895 0.42767
#
# Static dielectric constant tensor:
#      x y z
#    x 1.837030 0.000000 0.000000 
#    y 0.000000 1.540550 0.000000 
#    z 0.000000 0.000000 1.961220 
# 
# From -- ./inp_files/21259.got.cif
#   From: 2010.05.17/outbox.cif.g08.bks.cpg/sg52_11_cif.got.tgz:21259.got - 2010.06.03 12:15:38.
