data_PCOD9412953
_publ_section_title
;
Structure prediction by ZEFSAII (Michael W. Deem and Ramdas Pophale) SiO2 
 PCOD9412953
Probable space group: P N N A
;
_chemical_formula_sum "Si O2"
_cell_formula_units_Z 48
_cell_length_a 16.000926
_cell_length_b 19.113414
_cell_length_c 9.441504
_cell_angle_alpha 90.000000
_cell_angle_beta 90.000000
_cell_angle_gamma 90.000000
_cell_volume 2887.517101
_symmetry_space_group_name_H-M "P N N A"
_symmetry_group_IT_number 52
_symmetry_cell_setting 'orthorhombic'
loop_
_space_group_symop_operation_xyz
x,y,z
1/2-x,-y,z
x,1/2-y,1/2-z
1/2-x,1/2+y,1/2-z
-x,-y,-z
1/2+x,y,-z
-x,1/2+y,1/2+z
1/2+x,1/2-y,1/2+z
loop_
_atom_site_type_symbol
_atom_site_label
_atom_site_fract_x
_atom_site_fract_y
_atom_site_fract_z
Si Si1 0.384795 0.449536 0.921136
Si Si2 0.480286 0.420065 0.663208
Si Si3 0.218561 0.921712 0.317331
Si Si4 0.956805 0.080731 0.835684
Si Si5 0.120588 0.172842 0.311710
Si Si6 0.445024 0.896686 0.575295
O O1 0.397483 0.423210 0.761296
O O2 0.386798 0.534058 0.924625
O O3 0.310708 0.421763 0.018310
O O4 0.469860 0.423324 0.998361
O O5 0.520157 0.497987 0.677021
O O6 0.462867 0.402725 0.500769
O O7 0.547491 0.367304 0.727331
O O8 0.135580 0.907466 0.225521
O O9 0.292713 0.868033 0.291352
O O10 0.250000 0.000000 0.284520
O O11 0.024203 0.119048 0.734214
O O12 0.126475 0.250000 0.250000
O O13 0.094843 0.162818 0.477232
#
# Coordination Sequence:
#
# PCOD9412953 Si02
#       6
#     8   8   8   8   8   8
#     4   8  14  27  52  73  95 124 173 213 247 299
#     4   9  17  33  52  80 101 129 172 222 264 313
#     4  11  17  31  51  76 104 136 172 219 260 312
#     4   9  17  31  57  79 102 127 174 224 262 307
#     4  11  21  33  50  74 106 139 175 218 271 319
#     4   8  14  29  49  74  94 128 171 210 248 307
#
# _framework density 16.623277999999999
#
# number of rings (size 3 to 8) (size 9 to 14) (size 15 to 20)
#    0.000    2.667    3.333    2.000    0.000    0.000 
#    0.000    8.333    0.000    0.000    0.000    0.000 
#    0.000    0.000    0.000    0.000    0.000    0.000 
#
# Total GULP energy -267275.864080 kJ/mol
# GULP energy per Si atom -5568.247168 kJ/mol
# Density = 1.658544 g / cm^3
# Si number density = 16.623278 Si / 1000 Ang^3
#
#
#
# Elastic Constant Matrix: (Units=GPa)
#
#
# Indices 1 2 3 4 5 6 
#
# 1 76.6148 41.4030 43.1698 0.0000 0.0000 0.0000
# 2 41.4030 73.8820 44.8853 0.0000 0.0000 0.0000
# 3 43.1698 44.8853 143.9459 0.0000 0.0000 0.0000
# 4 0.0000 0.0000 0.0000 14.5130 0.0000 0.0000
# 5 0.0000 0.0000 0.0000 0.0000 18.7798 0.0000
# 6 0.0000 0.0000 0.0000 0.0000 0.0000 14.6154
#
#
#
# Elastic Compliance Matrix: (Units=1/GPa)
#
#
# Indices 1 2 3 4 5 6 
#
# 1 0.019751 -0.009215 -0.003050 0.000000 0.000000 0.000000
# 2 -0.009215 0.020998 -0.003784 0.000000 0.000000 0.000000
# 3 -0.003050 -0.003784 0.009042 0.000000 0.000000 0.000000
# 4 0.000000 0.000000 0.000000 0.068904 0.000000 0.000000
# 5 0.000000 0.000000 0.000000 0.000000 0.053249 0.000000
# 6 0.000000 0.000000 0.000000 0.000000 0.000000 0.068421
#
#
# Mechanical properties :
#
#
# Convention : Reuss Voigt Hill
#
# Bulk Modulus (GPa) = 56.52155 61.48432 59.00294
# Shear Modulus (GPa) = 17.96237 20.58062 19.27150
#
# Velocity S-wave (km/s) = 3.29075 3.52243 3.40855
# Velocity P-wave (km/s) = 6.96520 7.32192 7.14578
#
# Compressibility (1/GPa) = 0.01769237
#
# Stress axis : x y z
#
# Youngs Moduli (GPa) = 50.63082 47.62307 110.59992
#
# Poissons Ratio (x) = 0.43887 0.33730
# Poissons Ratio (y) = 0.46658 0.41850
# Poissons Ratio (z) = 0.15441 0.18020
#
# Static dielectric constant tensor:
#      x y z
#    x 1.559840 0.000000 0.000000 
#    y 0.000000 1.539020 0.000000 
#    z 0.000000 0.000000 1.611830 
# 
# From -- ./inp_files/10626.got.cif
#   From: 2010.05.17/outbox.cif.g08.bks.cpg/sg52_6_cif.got.tgz:10626.got - 2010.06.03 12:15:38.
