data_PCOD9412780
_publ_section_title
;
Structure prediction by ZEFSAII (Michael W. Deem and Ramdas Pophale) SiO2 
 PCOD9412780
Probable space group: P N N A
;
_chemical_formula_sum "Si O2"
_cell_formula_units_Z 48
_cell_length_a 4.969915
_cell_length_b 19.764204
_cell_length_c 18.415142
_cell_angle_alpha 90.000000
_cell_angle_beta 90.000000
_cell_angle_gamma 90.000000
_cell_volume 1808.853361
_symmetry_space_group_name_H-M "P N N A"
_symmetry_group_IT_number 52
_symmetry_cell_setting 'orthorhombic'
loop_
_space_group_symop_operation_xyz
x,y,z
1/2-x,-y,z
x,1/2-y,1/2-z
1/2-x,1/2+y,1/2-z
-x,-y,-z
1/2+x,y,-z
-x,1/2+y,1/2+z
1/2+x,1/2-y,1/2+z
loop_
_atom_site_type_symbol
_atom_site_label
_atom_site_fract_x
_atom_site_fract_y
_atom_site_fract_z
Si Si1 0.433492 0.598826 0.452752
Si Si2 0.113513 0.740475 0.550278
Si Si3 0.969957 0.750000 0.250000
Si Si4 0.250000 0.000000 0.861102
Si Si5 0.203810 0.608249 0.758863
Si Si6 0.291756 0.835681 0.358429
Si Si7 0.011845 0.453478 0.900700
O O1 0.125006 0.600440 0.475724
O O2 0.527632 0.668431 0.414687
O O3 0.520278 0.532280 0.410701
O O4 0.910480 0.742729 0.481408
O O5 0.045922 0.802579 0.601940
O O6 0.140009 0.773461 0.320055
O O7 0.795430 0.683406 0.260806
O O8 0.205257 0.061957 0.807215
O O9 0.347034 0.571795 0.826906
O O10 0.901379 0.618273 0.790904
O O11 0.129761 0.880618 0.417846
O O12 0.750000 0.500000 0.892579
O O13 0.250000 0.500000 0.937877
#
# Coordination Sequence:
#
# PCOD9412780 Si02
#       7
#     8   8   4   4   8   8   8
#     4  10  24  48  66  99 141 194 244 303 345 421
#     4  10  25  45  76 103 138 195 255 302 367 435
#     4  10  26  38  68 104 152 184 238 308 378 426
#     4  12  24  42  72 102 144 196 242 292 374 448
#     4  11  24  43  65 107 144 190 240 293 379 443
#     4  11  24  44  71 104 148 185 246 313 376 449
#     4  11  21  42  65  98 143 180 223 281 373 439
#
# _framework density 26.536149000000002
#
# number of rings (size 3 to 8) (size 9 to 14) (size 15 to 20)
#    0.000    1.333    2.500    1.000    9.333    2.667 
#   12.000    0.000    0.000    3.000    0.000    0.000 
#    0.000    0.000    0.000    0.000    0.000    0.000 
#
# Total GULP energy -268189.083012 kJ/mol
# GULP energy per Si atom -5587.272563 kJ/mol
# Density = 2.647575 g / cm^3
# Si number density = 26.536149 Si / 1000 Ang^3
#
#
#
# Elastic Constant Matrix: (Units=GPa)
#
#
# Indices 1 2 3 4 5 6 
#
# 1 98.1597 46.9436 9.1771 0.0000 0.0000 0.0000
# 2 46.9436 195.1612 39.8531 0.0000 0.0000 0.0000
# 3 9.1771 39.8531 56.3106 0.0000 0.0000 0.0000
# 4 0.0000 0.0000 0.0000 47.5119 0.0000 0.0000
# 5 0.0000 0.0000 0.0000 0.0000 90.6065 0.0000
# 6 0.0000 0.0000 0.0000 0.0000 0.0000 60.8894
#
#
#
# Elastic Compliance Matrix: (Units=1/GPa)
#
#
# Indices 1 2 3 4 5 6 
#
# 1 0.011512 -0.002789 0.000098 0.000000 0.000000 0.000000
# 2 -0.002789 0.006665 -0.004263 0.000000 0.000000 0.000000
# 3 0.000098 -0.004263 0.020760 0.000000 0.000000 0.000000
# 4 0.000000 0.000000 0.000000 0.021047 0.000000 0.000000
# 5 0.000000 0.000000 0.000000 0.000000 0.011037 0.000000
# 6 0.000000 0.000000 0.000000 0.000000 0.000000 0.016423
#
#
# Mechanical properties :
#
#
# Convention : Reuss Voigt Hill
#
# Bulk Modulus (GPa) = 39.95370 60.17545 50.06458
# Shear Modulus (GPa) = 45.58068 56.71206 51.14637
#
# Velocity S-wave (km/s) = 4.14899 4.62796 4.39500
# Velocity P-wave (km/s) = 6.16775 7.16124 6.68298
#
# Compressibility (1/GPa) = 0.02502897
#
# Stress axis : x y z
#
# Youngs Moduli (GPa) = 86.86451 150.03014 48.17045
#
# Poissons Ratio (x) = 0.41844 -0.00471
# Poissons Ratio (y) = 0.24227 0.20534
# Poissons Ratio (z) = -0.00849 0.63954
#
# Static dielectric constant tensor:
#      x y z
#    x 2.118730 0.000000 0.000000 
#    y 0.000000 2.178610 0.000000 
#    z 0.000000 0.000000 2.123830 
# 
# From -- ./inp_files/35154.got.cif
#   From: 2010.05.17/outbox.cif.g08.bks.cpg/sg52_18_cif.got.tgz:35154.got - 2010.06.03 12:15:38.
