data_PCOD9412630
_publ_section_title
;
Structure prediction by ZEFSAII (Michael W. Deem and Ramdas Pophale) SiO2 
 PCOD9412630
Probable space group: P N N A
;
_chemical_formula_sum "Si O2"
_cell_formula_units_Z 40
_cell_length_a 16.094473
_cell_length_b 16.441522
_cell_length_c 7.560279
_cell_angle_alpha 90.000000
_cell_angle_beta 90.000000
_cell_angle_gamma 90.000000
_cell_volume 2000.583126
_symmetry_space_group_name_H-M "P N N A"
_symmetry_group_IT_number 52
_symmetry_cell_setting 'orthorhombic'
loop_
_space_group_symop_operation_xyz
x,y,z
1/2-x,-y,z
x,1/2-y,1/2-z
1/2-x,1/2+y,1/2-z
-x,-y,-z
1/2+x,y,-z
-x,1/2+y,1/2+z
1/2+x,1/2-y,1/2+z
loop_
_atom_site_type_symbol
_atom_site_label
_atom_site_fract_x
_atom_site_fract_y
_atom_site_fract_z
Si Si1 0.990801 0.250000 0.750000
Si Si2 0.700963 0.083880 0.749471
Si Si3 0.405387 0.512184 0.938151
Si Si4 0.346441 0.161020 0.445688
Si Si5 0.262161 0.250000 0.750000
Si Si6 0.875971 0.629074 0.380615
O O1 0.931076 0.189128 0.644890
O O2 0.050081 0.305073 0.628205
O O3 0.772603 0.147206 0.695115
O O4 0.750000 0.000000 0.785519
O O5 0.641821 0.069357 0.580291
O O6 0.648157 0.106207 0.920936
O O7 0.398934 0.553363 0.745970
O O8 0.500000 0.500000 0.000000
O O9 0.360723 0.424745 0.954525
O O10 0.317750 0.228101 0.583546
O O11 0.203182 0.326011 0.705918
#
# Coordination Sequence:
#
# PCOD9412630 Si02
#       6
#     4   8   8   8   4   8
#     4  11  24  44  62  99 142 170 226 283 338 408
#     4  10  24  42  70  96 129 175 227 277 322 403
#     4  11  23  45  68  96 137 173 223 284 333 402
#     4  11  23  44  67 101 136 176 229 286 335 407
#     4  11  24  40  70  97 130 178 216 281 338 398
#     4  11  24  44  67  95 133 179 223 271 347 401
#
# _framework density 19.994171999999999
#
# number of rings (size 3 to 8) (size 9 to 14) (size 15 to 20)
#    0.000    1.200    4.000    1.200    2.800    2.400 
#    0.000    0.000    0.000    0.000    0.000    0.000 
#    0.000    0.000    0.000    0.000    0.000    0.000 
#
# Total GULP energy -223658.940099 kJ/mol
# GULP energy per Si atom -5591.473502 kJ/mol
# Density = 1.994866 g / cm^3
# Si number density = 19.994172 Si / 1000 Ang^3
#
#
#
# Elastic Constant Matrix: (Units=GPa)
#
#
# Indices 1 2 3 4 5 6 
#
# 1 121.2847 27.1784 56.4737 0.0000 0.0000 0.0000
# 2 27.1784 70.4057 46.0106 0.0000 0.0000 0.0000
# 3 56.4737 46.0106 116.2212 0.0000 0.0000 0.0000
# 4 0.0000 0.0000 0.0000 33.0816 0.0000 0.0000
# 5 0.0000 0.0000 0.0000 0.0000 9.2745 0.0000
# 6 0.0000 0.0000 0.0000 0.0000 0.0000 24.3506
#
#
#
# Elastic Compliance Matrix: (Units=1/GPa)
#
#
# Indices 1 2 3 4 5 6 
#
# 1 0.010707 -0.000989 -0.004811 0.000000 0.000000 0.000000
# 2 -0.000989 0.019252 -0.007141 0.000000 0.000000 0.000000
# 3 -0.004811 -0.007141 0.013769 0.000000 0.000000 0.000000
# 4 0.000000 0.000000 0.000000 0.030228 0.000000 0.000000
# 5 0.000000 0.000000 0.000000 0.000000 0.107823 0.000000
# 6 0.000000 0.000000 0.000000 0.000000 0.000000 0.041067
#
#
# Mechanical properties :
#
#
# Convention : Reuss Voigt Hill
#
# Bulk Modulus (GPa) = 56.03623 63.02632 59.53127
# Shear Modulus (GPa) = 19.63274 25.22460 22.42867
#
# Velocity S-wave (km/s) = 3.13696 3.55575 3.35290
# Velocity P-wave (km/s) = 6.41933 6.96050 6.69539
#
# Compressibility (1/GPa) = 0.01784560
#
# Stress axis : x y z
#
# Youngs Moduli (GPa) = 93.39788 51.94297 72.62637
#
# Poissons Ratio (x) = 0.05137 0.34941
# Poissons Ratio (y) = 0.09238 0.51862
# Poissons Ratio (z) = 0.44935 0.37092
#
# Static dielectric constant tensor:
#      x y z
#    x 1.687000 0.000000 0.000000 
#    y 0.000000 1.797770 0.000000 
#    z 0.000000 0.000000 1.679260 
# 
# From -- ./inp_files/3260.got.cif
#   From: 2010.05.17/outbox.cif.g08.bks.cpg/sg52_2_cif.got.tgz:3260.got - 2010.06.03 12:15:38.
