data_PCOD9412578
_publ_section_title
;
Structure prediction by ZEFSAII (Michael W. Deem and Ramdas Pophale) SiO2 
 PCOD9412578
Probable space group: P N N A
;
_chemical_formula_sum "Si O2"
_cell_formula_units_Z 24
_cell_length_a 11.656356
_cell_length_b 17.765248
_cell_length_c 4.451620
_cell_angle_alpha 90.000000
_cell_angle_beta 90.000000
_cell_angle_gamma 90.000000
_cell_volume 921.832812
_symmetry_space_group_name_H-M "P N N A"
_symmetry_group_IT_number 52
_symmetry_cell_setting 'orthorhombic'
loop_
_space_group_symop_operation_xyz
x,y,z
1/2-x,-y,z
x,1/2-y,1/2-z
1/2-x,1/2+y,1/2-z
-x,-y,-z
1/2+x,y,-z
-x,1/2+y,1/2+z
1/2+x,1/2-y,1/2+z
loop_
_atom_site_type_symbol
_atom_site_label
_atom_site_fract_x
_atom_site_fract_y
_atom_site_fract_z
Si Si1 0.104146 0.667351 0.828153
Si Si2 0.701317 0.421558 0.822559
Si Si3 0.550190 0.376789 0.309466
O O1 0.146892 0.750000 0.750000
O O2 0.055766 0.620476 0.543848
O O3 0.200628 0.621993 0.000648
O O4 0.997345 0.680665 0.059394
O O5 0.750000 0.500000 0.706865
O O6 0.652691 0.371556 0.549713
O O7 0.600904 0.437591 0.071406
#
# Coordination Sequence:
#
# PCOD9412578 Si02
#       3
#     8   8   8
#     4  11  24  43  65  95 135 180 228 282 346 411
#     4  11  24  42  68 101 136 179 230 287 348 408
#     4  10  24  41  65  97 132 174 227 279 340 411
#
# _framework density 26.035088999999999
#
# number of rings (size 3 to 8) (size 9 to 14) (size 15 to 20)
#    0.000    1.333    0.000    4.000    0.000   13.333 
#    0.000    0.000    0.000    0.000    0.000    0.000 
#    0.000    0.000    0.000    0.000    0.000    0.000 
#
# Total GULP energy -133749.209826 kJ/mol
# GULP energy per Si atom -5572.883743 kJ/mol
# Density = 2.597583 g / cm^3
# Si number density = 26.035089 Si / 1000 Ang^3
#
#
#
# Elastic Constant Matrix: (Units=GPa)
#
#
# Indices 1 2 3 4 5 6 
#
# 1 58.5297 43.2110 39.4872 0.0000 0.0000 0.0000
# 2 43.2110 86.1573 13.1760 0.0000 0.0000 0.0000
# 3 39.4872 13.1760 169.5962 0.0000 0.0000 0.0000
# 4 0.0000 0.0000 0.0000 -36.0661 0.0000 0.0000
# 5 0.0000 0.0000 0.0000 0.0000 86.8745 0.0000
# 6 0.0000 0.0000 0.0000 0.0000 0.0000 18.0812
#
#
#
# Elastic Compliance Matrix: (Units=1/GPa)
#
#
# Indices 1 2 3 4 5 6 
#
# 1 0.032887 -0.015507 -0.006452 0.000000 0.000000 0.000000
# 2 -0.015507 0.019058 0.002130 0.000000 0.000000 0.000000
# 3 -0.006452 0.002130 0.007233 0.000000 0.000000 0.000000
# 4 0.000000 0.000000 0.000000 -0.027727 0.000000 0.000000
# 5 0.000000 0.000000 0.000000 0.000000 0.011511 0.000000
# 6 0.000000 0.000000 0.000000 0.000000 0.000000 0.055306
#
#
# Mechanical properties :
#
#
# Convention : Reuss Voigt Hill
#
# Bulk Modulus (GPa) = 51.23154 56.22572 53.72863
# Shear Modulus (GPa) = 34.61775 28.33853 31.47814
#
# Velocity S-wave (km/s) = 3.65040 3.30278 3.48093
# Velocity P-wave (km/s) = 6.12273 6.01561 6.06941
#
# Compressibility (1/GPa) = 0.01951922
#
# Stress axis : x y z
#
# Youngs Moduli (GPa) = 30.40704 52.47025 138.25142
#
# Poissons Ratio (x) = 0.81367 0.89205
# Poissons Ratio (y) = 0.47153 -0.29447
# Poissons Ratio (z) = 0.19620 -0.11176
#
# Static dielectric constant tensor:
#      x y z
#    x 2.190610 0.000000 0.000000 
#    y 0.000000 2.004430 0.000000 
#    z 0.000000 0.000000 2.039630 
# 
# From -- ./inp_files/858.got.cif
#   From: 2010.05.17/outbox.cif.g08.bks.cpg/sg52_1_cif.got.tgz:858.got - 2010.06.03 12:15:38.
