data_PCOD9412084
_publ_section_title
;
Structure prediction by ZEFSAII (Michael W. Deem and Ramdas Pophale) SiO2 
 PCOD9412084
Probable space group: P N N A
;
_chemical_formula_sum "Si O2"
_cell_formula_units_Z 32
_cell_length_a 13.022311
_cell_length_b 8.231286
_cell_length_c 13.074525
_cell_angle_alpha 90.000000
_cell_angle_beta 90.000000
_cell_angle_gamma 90.000000
_cell_volume 1401.463123
_symmetry_space_group_name_H-M "P N N A"
_symmetry_group_IT_number 52
_symmetry_cell_setting 'orthorhombic'
loop_
_space_group_symop_operation_xyz
x,y,z
1/2-x,-y,z
x,1/2-y,1/2-z
1/2-x,1/2+y,1/2-z
-x,-y,-z
1/2+x,y,-z
-x,1/2+y,1/2+z
1/2+x,1/2-y,1/2+z
loop_
_atom_site_type_symbol
_atom_site_label
_atom_site_fract_x
_atom_site_fract_y
_atom_site_fract_z
Si Si1 0.978495 0.741973 0.995818
Si Si2 0.024606 0.432911 0.210073
Si Si3 0.167119 0.378239 0.827935
Si Si4 0.867896 0.452189 0.606820
O O1 0.897903 0.708861 0.085390
O O2 0.086941 0.793295 0.048916
O O3 0.974787 0.597192 0.912100
O O4 0.936488 0.900866 0.937399
O O5 0.031044 0.250000 0.250000
O O6 0.107909 0.540524 0.271015
O O7 0.916253 0.516367 0.234502
O O8 0.250000 0.500000 0.872293
O O9 0.215662 0.250000 0.750000
O O10 0.750000 0.500000 0.588640
#
# Coordination Sequence:
#
# PCOD9412084 Si02
#       4
#     8   8   8   8
#     4  10  23  43  66 102 137 180 240 295 355 438
#     4  10  22  45  65  97 137 176 233 293 350 430
#     4  12  25  42  65  99 136 184 233 294 360 426
#     4  10  22  43  72  99 140 188 232 298 368 423
#
# _framework density 22.833279000000001
#
# number of rings (size 3 to 8) (size 9 to 14) (size 15 to 20)
#    0.000    1.500    2.500    1.500    3.500    2.000 
#   13.500    0.000    0.000    0.000    0.000    0.000 
#    0.000    0.000    0.000    0.000    0.000    0.000 
#
# Total GULP energy -178557.483940 kJ/mol
# GULP energy per Si atom -5579.921373 kJ/mol
# Density = 2.278131 g / cm^3
# Si number density = 22.833279 Si / 1000 Ang^3
#
#
#
# Elastic Constant Matrix: (Units=GPa)
#
#
# Indices 1 2 3 4 5 6 
#
# 1 93.2348 6.8942 44.0097 0.0000 0.0000 0.0000
# 2 6.8942 50.2897 46.4660 0.0000 0.0000 0.0000
# 3 44.0097 46.4660 131.4277 0.0000 0.0000 0.0000
# 4 0.0000 0.0000 0.0000 19.9270 0.0000 0.0000
# 5 0.0000 0.0000 0.0000 0.0000 8.7262 0.0000
# 6 0.0000 0.0000 0.0000 0.0000 0.0000 37.6587
#
#
#
# Elastic Compliance Matrix: (Units=1/GPa)
#
#
# Indices 1 2 3 4 5 6 
#
# 1 0.013110 0.003355 -0.005576 0.000000 0.000000 0.000000
# 2 0.003355 0.030390 -0.011868 0.000000 0.000000 0.000000
# 3 -0.005576 -0.011868 0.013672 0.000000 0.000000 0.000000
# 4 0.000000 0.000000 0.000000 0.050183 0.000000 0.000000
# 5 0.000000 0.000000 0.000000 0.000000 0.114597 0.000000
# 6 0.000000 0.000000 0.000000 0.000000 0.000000 0.026554
#
#
# Mechanical properties :
#
#
# Convention : Reuss Voigt Hill
#
# Bulk Modulus (GPa) = 34.49029 52.18801 43.33915
# Shear Modulus (GPa) = 17.46126 25.10121 21.28124
#
# Velocity S-wave (km/s) = 2.76837 3.31921 3.05622
# Velocity P-wave (km/s) = 5.03553 6.13150 5.61034
#
# Compressibility (1/GPa) = 0.02899367
#
# Stress axis : x y z
#
# Youngs Moduli (GPa) = 76.28033 32.90523 73.14371
#
# Poissons Ratio (x) = -0.11039 0.40784
# Poissons Ratio (y) = -0.25590 0.86805
# Poissons Ratio (z) = 0.42533 0.39051
#
# Static dielectric constant tensor:
#      x y z
#    x 1.798440 0.000000 0.000000 
#    y 0.000000 1.916730 0.000000 
#    z 0.000000 0.000000 1.945010 
# 
# From -- ./inp_files/25465.got.cif
#   From: 2010.05.17/outbox.cif.g08.bks.cpg/sg52_13_cif.got.tgz:25465.got - 2010.06.03 12:15:38.
