data_PCOD9412827
_publ_section_title
;
Structure prediction by ZEFSAII (Michael W. Deem and Ramdas Pophale) SiO2 
 PCOD9412827
Probable space group: P N N A
;
_chemical_formula_sum "Si O2"
_cell_formula_units_Z 36
_cell_length_a 5.317110
_cell_length_b 13.991689
_cell_length_c 20.009404
_cell_angle_alpha 90.000000
_cell_angle_beta 90.000000
_cell_angle_gamma 90.000000
_cell_volume 1488.606604
_symmetry_space_group_name_H-M "P N N A"
_symmetry_group_IT_number 52
_symmetry_cell_setting 'orthorhombic'
loop_
_space_group_symop_operation_xyz
x,y,z
1/2-x,-y,z
x,1/2-y,1/2-z
1/2-x,1/2+y,1/2-z
-x,-y,-z
1/2+x,y,-z
-x,1/2+y,1/2+z
1/2+x,1/2-y,1/2+z
loop_
_atom_site_type_symbol
_atom_site_label
_atom_site_fract_x
_atom_site_fract_y
_atom_site_fract_z
Si Si1 0.671628 0.900450 0.169226
Si Si2 0.615146 0.110856 0.957365
Si Si3 0.357783 0.750000 0.250000
Si Si4 0.004187 0.458646 0.924109
Si Si5 0.417738 0.252673 0.116442
O O1 0.478971 0.935257 0.111235
O O2 0.530390 0.833307 0.220946
O O3 0.885151 0.833728 0.132766
O O4 0.750000 0.000000 0.201362
O O5 0.681832 0.216400 0.928329
O O6 0.879993 0.092915 0.993829
O O7 0.185770 0.717102 0.188549
O O8 0.750000 0.500000 0.892826
O O9 0.024302 0.344561 0.920830
O O10 0.250000 0.500000 0.889893
O O11 0.000000 0.500000 0.000000
#
# Coordination Sequence:
#
# PCOD9412827 Si02
#       5
#     8   8   4   8   8
#     4  11  26  51  79 109 154 207 264 327 396 474
#     4  11  24  42  77 111 154 196 251 314 393 467
#     4  10  26  50  76 110 152 208 274 328 390 474
#     4  10  25  43  73 111 154 197 250 314 401 476
#     4  11  25  49  74 110 160 208 262 333 391 480
#
# _framework density 24.183689000000001
#
# number of rings (size 3 to 8) (size 9 to 14) (size 15 to 20)
#    0.000    1.333    2.222    0.667   12.444    4.444 
#    8.000    0.000    0.000    0.000    0.000    0.000 
#    0.000    0.000    0.000    0.000    0.000    0.000 
#
# Total GULP energy -201006.748982 kJ/mol
# GULP energy per Si atom -5583.520805 kJ/mol
# Density = 2.412865 g / cm^3
# Si number density = 24.183689 Si / 1000 Ang^3
#
#
#
# Elastic Constant Matrix: (Units=GPa)
#
#
# Indices 1 2 3 4 5 6 
#
# 1 167.4177 33.4271 48.4601 0.0000 0.0000 0.0000
# 2 33.4271 114.3981 57.0672 0.0000 0.0000 0.0000
# 3 48.4601 57.0672 118.9913 0.0000 0.0000 0.0000
# 4 0.0000 0.0000 0.0000 27.1784 0.0000 0.0000
# 5 0.0000 0.0000 0.0000 0.0000 37.2249 0.0000
# 6 0.0000 0.0000 0.0000 0.0000 0.0000 41.5200
#
#
#
# Elastic Compliance Matrix: (Units=1/GPa)
#
#
# Indices 1 2 3 4 5 6 
#
# 1 0.006826 -0.000799 -0.002397 0.000000 0.000000 0.000000
# 2 -0.000799 0.011584 -0.005230 0.000000 0.000000 0.000000
# 3 -0.002397 -0.005230 0.011888 0.000000 0.000000 0.000000
# 4 0.000000 0.000000 0.000000 0.036794 0.000000 0.000000
# 5 0.000000 0.000000 0.000000 0.000000 0.026864 0.000000
# 6 0.000000 0.000000 0.000000 0.000000 0.000000 0.024085
#
#
# Mechanical properties :
#
#
# Convention : Reuss Voigt Hill
#
# Bulk Modulus (GPa) = 74.36773 75.41287 74.89030
# Shear Modulus (GPa) = 35.87428 38.64151 37.25789
#
# Velocity S-wave (km/s) = 3.85568 4.00163 3.92933
# Velocity P-wave (km/s) = 7.11616 7.25271 7.18476
#
# Compressibility (1/GPa) = 0.01344669
#
# Stress axis : x y z
#
# Youngs Moduli (GPa) = 146.48971 86.32659 84.11501
#
# Poissons Ratio (x) = 0.06897 0.20162
# Poissons Ratio (y) = 0.11704 0.43993
# Poissons Ratio (z) = 0.35113 0.45150
#
# Static dielectric constant tensor:
#      x y z
#    x 2.020100 0.000000 0.000000 
#    y 0.000000 1.942430 0.000000 
#    z 0.000000 0.000000 1.874160 
# 
# From -- ./inp_files/34958.got.cif
#   From: 2010.05.17/outbox.cif.g08.bks.cpg/sg52_18_cif.got.tgz:34958.got - 2010.06.03 12:15:38.
