data_PCOD9412105
_publ_section_title
;
Structure prediction by ZEFSAII (Michael W. Deem and Ramdas Pophale) SiO2 
 PCOD9412105
Probable space group: P N N A
;
_chemical_formula_sum "Si O2"
_cell_formula_units_Z 40
_cell_length_a 8.561062
_cell_length_b 17.954237
_cell_length_c 12.496253
_cell_angle_alpha 90.000000
_cell_angle_beta 90.000000
_cell_angle_gamma 90.000000
_cell_volume 1920.765760
_symmetry_space_group_name_H-M "P N N A"
_symmetry_group_IT_number 52
_symmetry_cell_setting 'orthorhombic'
loop_
_space_group_symop_operation_xyz
x,y,z
1/2-x,-y,z
x,1/2-y,1/2-z
1/2-x,1/2+y,1/2-z
-x,-y,-z
1/2+x,y,-z
-x,1/2+y,1/2+z
1/2+x,1/2-y,1/2+z
loop_
_atom_site_type_symbol
_atom_site_label
_atom_site_fract_x
_atom_site_fract_y
_atom_site_fract_z
Si Si1 0.505074 0.289064 0.865160
Si Si2 0.934162 0.005081 0.118506
Si Si3 0.486202 0.142586 0.240310
Si Si4 0.361395 0.732628 0.911462
Si Si5 0.660723 0.419623 0.769617
O O1 0.529691 0.250000 0.750000
O O2 0.321835 0.278604 0.891326
O O3 0.561361 0.375480 0.858592
O O4 0.600675 0.255821 0.964678
O O5 0.033998 0.069810 0.175241
O O6 0.750000 0.000000 0.107630
O O7 0.966235 0.936980 0.197354
O O8 0.000000 0.000000 0.000000
O O9 0.565652 0.200045 0.158022
O O10 0.548787 0.162498 0.357981
O O11 0.299457 0.137792 0.240423
O O12 0.750000 0.500000 0.791498
#
# Coordination Sequence:
#
# PCOD9412105 Si02
#       5
#     8   8   8   8   8
#     4  12  26  44  72 105 142 186 242 295 365 435
#     4  11  23  39  65  95 138 185 237 291 353 419
#     4  10  22  44  65  98 141 177 232 289 355 424
#     4  11  25  44  69 105 142 185 237 298 363 427
#     4  10  24  45  67 101 138 188 237 289 358 426
#
# _framework density 20.825029000000001
#
# number of rings (size 3 to 8) (size 9 to 14) (size 15 to 20)
#    0.000    1.200    2.000    4.200    8.400    0.000 
#    0.000   10.000    0.000    0.000    0.000    0.000 
#    0.000    0.000    0.000    0.000    0.000    0.000 
#
# Total GULP energy -222959.441489 kJ/mol
# GULP energy per Si atom -5573.986037 kJ/mol
# Density = 2.077763 g / cm^3
# Si number density = 20.825029 Si / 1000 Ang^3
#
#
#
# Elastic Constant Matrix: (Units=GPa)
#
#
# Indices 1 2 3 4 5 6 
#
# 1 198.3901 45.0180 51.0785 0.0000 0.0000 0.0000
# 2 45.0180 43.7187 21.0809 0.0000 0.0000 0.0000
# 3 51.0785 21.0809 124.6304 0.0000 0.0000 0.0000
# 4 0.0000 0.0000 0.0000 6.7000 0.0000 0.0000
# 5 0.0000 0.0000 0.0000 0.0000 105.6131 0.0000
# 6 0.0000 0.0000 0.0000 0.0000 0.0000 34.2872
#
#
#
# Elastic Compliance Matrix: (Units=1/GPa)
#
#
# Indices 1 2 3 4 5 6 
#
# 1 0.006921 -0.006270 -0.001776 0.000000 0.000000 0.000000
# 2 -0.006270 0.030585 -0.002604 0.000000 0.000000 0.000000
# 3 -0.001776 -0.002604 0.009192 0.000000 0.000000 0.000000
# 4 0.000000 0.000000 0.000000 0.149253 0.000000 0.000000
# 5 0.000000 0.000000 0.000000 0.000000 0.009469 0.000000
# 6 0.000000 0.000000 0.000000 0.000000 0.000000 0.029165
#
#
# Mechanical properties :
#
#
# Convention : Reuss Voigt Hill
#
# Bulk Modulus (GPa) = 39.37183 66.78820 53.08002
# Shear Modulus (GPa) = 18.91431 45.95752 32.43592
#
# Velocity S-wave (km/s) = 3.01699 4.70280 3.95086
# Velocity P-wave (km/s) = 5.57524 7.85042 6.80854
#
# Compressibility (1/GPa) = 0.02539887
#
# Stress axis : x y z
#
# Youngs Moduli (GPa) = 144.49776 32.69541 108.79120
#
# Poissons Ratio (x) = 0.20500 0.19319
# Poissons Ratio (y) = 0.90599 0.28327
# Poissons Ratio (z) = 0.25659 0.08513
#
# Static dielectric constant tensor:
#      x y z
#    x 1.877180 0.000000 0.000000 
#    y 0.000000 1.720520 0.000000 
#    z 0.000000 0.000000 1.711060 
# 
# From -- ./inp_files/16620.got.cif
#   From: 2010.05.17/outbox.cif.g08.bks.cpg/sg52_9_cif.got.tgz:16620.got - 2010.06.03 12:15:38.
