data_PCOD9412261
_publ_section_title
;
Structure prediction by ZEFSAII (Michael W. Deem and Ramdas Pophale) SiO2 
 PCOD9412261
Probable space group: P N N A
;
_chemical_formula_sum "Si O2"
_cell_formula_units_Z 64
_cell_length_a 15.353597
_cell_length_b 8.735939
_cell_length_c 25.244960
_cell_angle_alpha 90.000000
_cell_angle_beta 90.000000
_cell_angle_gamma 90.000000
_cell_volume 3386.058187
_symmetry_space_group_name_H-M "P N N A"
_symmetry_group_IT_number 52
_symmetry_cell_setting 'orthorhombic'
loop_
_space_group_symop_operation_xyz
x,y,z
1/2-x,-y,z
x,1/2-y,1/2-z
1/2-x,1/2+y,1/2-z
-x,-y,-z
1/2+x,y,-z
-x,1/2+y,1/2+z
1/2+x,1/2-y,1/2+z
loop_
_atom_site_type_symbol
_atom_site_label
_atom_site_fract_x
_atom_site_fract_y
_atom_site_fract_z
Si Si1 0.773261 0.323967 0.467083
Si Si2 0.570157 0.317137 0.307561
Si Si3 0.577075 0.817651 0.191292
Si Si4 0.751274 0.817735 0.579200
Si Si5 0.522992 0.822370 0.008884
Si Si6 0.937404 0.818056 0.611437
Si Si7 0.254671 0.681481 0.856695
Si Si8 0.446072 0.317354 0.103865
O O1 0.750000 0.500000 0.457027
O O2 0.737699 0.270384 0.523829
O O3 0.877469 0.309219 0.471343
O O4 0.738443 0.223514 0.418697
O O5 0.548825 0.250000 0.250000
O O6 0.577484 0.499541 0.306249
O O7 0.662260 0.247754 0.326301
O O8 0.498245 0.266639 0.350156
O O9 0.570538 0.750000 0.250000
O O10 0.496991 0.759885 0.155516
O O11 0.666501 0.758002 0.165050
O O12 0.834094 0.789133 0.616415
O O13 0.656876 0.777524 0.602742
O O14 0.750000 0.000000 0.567498
O O15 0.464734 0.748828 0.054447
O O16 0.516744 0.734391 0.953126
O O17 0.500000 0.000000 0.000000
O O18 0.953819 0.000189 0.610993
O O19 0.250000 0.500000 0.849521
#
# Coordination Sequence:
#
# PCOD9412261 Si02
#       8
#     8   8   8   8   8   8   8   8
#     4  11  22  36  56  91 131 167 209 253 306 374
#     4  12  26  44  67  92 124 166 209 262 314 372
#     4  12  25  45  65  92 126 162 212 259 313 375
#     4   9  21  40  62  89 127 165 206 257 314 371
#     4  11  22  36  58  91 127 168 210 258 313 372
#     4  11  21  40  64  91 125 165 207 261 313 373
#     4  12  25  41  63  92 127 167 209 254 311 374
#     4  10  23  40  63  92 123 164 212 258 315 373
#
# _framework density 18.901033999999999
#
# number of rings (size 3 to 8) (size 9 to 14) (size 15 to 20)
#    0.000    1.000    1.250    6.000    3.500    1.000 
#    0.000    0.625    0.000    0.000    0.000    0.000 
#    0.000    0.000    0.000    0.000    0.000    0.000 
#
# Total GULP energy -358077.471836 kJ/mol
# GULP energy per Si atom -5594.960497 kJ/mol
# Density = 1.885801 g / cm^3
# Si number density = 18.901034 Si / 1000 Ang^3
#
#
#
# Elastic Constant Matrix: (Units=GPa)
#
#
# Indices 1 2 3 4 5 6 
#
# 1 87.2504 48.7449 55.4971 0.0000 0.0000 0.0000
# 2 48.7449 146.9921 59.2520 0.0000 0.0000 0.0000
# 3 55.4971 59.2520 115.2706 0.0000 0.0000 0.0000
# 4 0.0000 0.0000 0.0000 36.4006 0.0000 0.0000
# 5 0.0000 0.0000 0.0000 0.0000 28.5231 0.0000
# 6 0.0000 0.0000 0.0000 0.0000 0.0000 21.1211
#
#
#
# Elastic Compliance Matrix: (Units=1/GPa)
#
#
# Indices 1 2 3 4 5 6 
#
# 1 0.017537 -0.003042 -0.006879 0.000000 0.000000 0.000000
# 2 -0.003042 0.009109 -0.003217 0.000000 0.000000 0.000000
# 3 -0.006879 -0.003217 0.013641 0.000000 0.000000 0.000000
# 4 0.000000 0.000000 0.000000 0.027472 0.000000 0.000000
# 5 0.000000 0.000000 0.000000 0.000000 0.035059 0.000000
# 6 0.000000 0.000000 0.000000 0.000000 0.000000 0.047346
#
#
# Mechanical properties :
#
#
# Convention : Reuss Voigt Hill
#
# Bulk Modulus (GPa) = 71.38485 75.16678 73.27581
# Shear Modulus (GPa) = 27.60731 29.61024 28.60877
#
# Velocity S-wave (km/s) = 3.82596 3.96232 3.89473
# Velocity P-wave (km/s) = 7.57410 7.79668 7.68619
#
# Compressibility (1/GPa) = 0.01400858
#
# Stress axis : x y z
#
# Youngs Moduli (GPa) = 57.02367 109.78210 73.30835
#
# Poissons Ratio (x) = 0.33401 0.50429
# Poissons Ratio (y) = 0.17349 0.23586
# Poissons Ratio (z) = 0.39227 0.35322
#
# Static dielectric constant tensor:
#      x y z
#    x 1.667560 0.000000 0.000000 
#    y 0.000000 1.660270 0.000000 
#    z 0.000000 0.000000 1.622270 
# 
# From -- ./inp_files/40685.got.cif
#   From: 2010.05.17/outbox.cif.g08.bks.cpg/sg52_21_cif.got.tgz:40685.got - 2010.06.03 12:15:38.
