data_PCOD9412412
_publ_section_title
;
Structure prediction by ZEFSAII (Michael W. Deem and Ramdas Pophale) SiO2 
 PCOD9412412
Probable space group: P N N A
;
_chemical_formula_sum "Si O2"
_cell_formula_units_Z 40
_cell_length_a 14.984082
_cell_length_b 21.168217
_cell_length_c 5.520424
_cell_angle_alpha 90.000000
_cell_angle_beta 90.000000
_cell_angle_gamma 90.000000
_cell_volume 1751.002859
_symmetry_space_group_name_H-M "P N N A"
_symmetry_group_IT_number 52
_symmetry_cell_setting 'orthorhombic'
loop_
_space_group_symop_operation_xyz
x,y,z
1/2-x,-y,z
x,1/2-y,1/2-z
1/2-x,1/2+y,1/2-z
-x,-y,-z
1/2+x,y,-z
-x,1/2+y,1/2+z
1/2+x,1/2-y,1/2+z
loop_
_atom_site_type_symbol
_atom_site_label
_atom_site_fract_x
_atom_site_fract_y
_atom_site_fract_z
Si Si1 0.646711 0.182973 0.781352
Si Si2 0.525593 0.813637 0.910867
Si Si3 0.440772 0.907837 0.556600
Si Si4 0.129186 0.952120 0.574074
Si Si5 0.306116 0.393223 0.443510
O O1 0.694214 0.250000 0.750000
O O2 0.624382 0.146327 0.537136
O O3 0.707689 0.135413 0.931075
O O4 0.550842 0.197601 0.895099
O O5 0.529480 0.750000 0.750000
O O6 0.486793 0.877612 0.788776
O O7 0.624782 0.834843 0.978831
O O8 0.529596 0.921680 0.395936
O O9 0.388703 0.973239 0.567103
O O10 0.170891 0.927091 0.317523
O O11 0.181929 0.935201 0.817503
#
# Coordination Sequence:
#
# PCOD9412412 Si02
#       5
#     8   8   8   8   8
#     4  12  25  44  68 105 139 188 241 289 352 424
#     4  11  23  44  69  97 139 184 228 290 354 412
#     4  10  23  43  71  99 137 184 233 287 350 422
#     4  10  24  46  71 102 138 183 232 287 354 415
#     4  11  26  45  71 103 138 184 233 291 351 418
#
# _framework density 22.844052999999999
#
# number of rings (size 3 to 8) (size 9 to 14) (size 15 to 20)
#    0.000    1.200    4.000    0.600    5.600    3.200 
#    0.000    3.000    0.000    0.000    0.000    0.000 
#    0.000    0.000    0.000    0.000    0.000    0.000 
#
# Total GULP energy -223303.514789 kJ/mol
# GULP energy per Si atom -5582.587870 kJ/mol
# Density = 2.279206 g / cm^3
# Si number density = 22.844053 Si / 1000 Ang^3
#
#
#
# Elastic Constant Matrix: (Units=GPa)
#
#
# Indices 1 2 3 4 5 6 
#
# 1 70.3381 10.2696 15.5142 0.0000 0.0000 0.0000
# 2 10.2696 103.0255 23.4083 0.0000 0.0000 0.0000
# 3 15.5142 23.4083 88.1486 0.0000 0.0000 0.0000
# 4 0.0000 0.0000 0.0000 27.8630 0.0000 0.0000
# 5 0.0000 0.0000 0.0000 0.0000 53.9626 0.0000
# 6 0.0000 0.0000 0.0000 0.0000 0.0000 26.2779
#
#
#
# Elastic Compliance Matrix: (Units=1/GPa)
#
#
# Indices 1 2 3 4 5 6 
#
# 1 0.014877 -0.000945 -0.002367 0.000000 0.000000 0.000000
# 2 -0.000945 0.010390 -0.002593 0.000000 0.000000 0.000000
# 3 -0.002367 -0.002593 0.012450 0.000000 0.000000 0.000000
# 4 0.000000 0.000000 0.000000 0.035890 0.000000 0.000000
# 5 0.000000 0.000000 0.000000 0.000000 0.018531 0.000000
# 6 0.000000 0.000000 0.000000 0.000000 0.000000 0.038055
#
#
# Mechanical properties :
#
#
# Convention : Reuss Voigt Hill
#
# Bulk Modulus (GPa) = 38.60091 39.98849 39.29470
# Shear Modulus (GPa) = 33.19210 35.77537 34.48374
#
# Velocity S-wave (km/s) = 3.81594 3.96165 3.88948
# Velocity P-wave (km/s) = 6.02905 6.20236 6.11632
#
# Compressibility (1/GPa) = 0.02590612
#
# Stress axis : x y z
#
# Youngs Moduli (GPa) = 67.21697 96.24991 80.32353
#
# Poissons Ratio (x) = 0.09096 0.19016
# Poissons Ratio (y) = 0.06352 0.20825
# Poissons Ratio (z) = 0.15913 0.24955
#
# Static dielectric constant tensor:
#      x y z
#    x 1.859610 0.000000 0.000000 
#    y 0.000000 1.992320 0.000000 
#    z 0.000000 0.000000 1.889600 
# 
# From -- ./inp_files/3336.got.cif
#   From: 2010.05.17/outbox.cif.g08.bks.cpg/sg52_2_cif.got.tgz:3336.got - 2010.06.03 12:15:38.
