data_PCOD9412316
_publ_section_title
;
Structure prediction by ZEFSAII (Michael W. Deem and Ramdas Pophale) SiO2 
 PCOD9412316
Probable space group: P N N A
;
_chemical_formula_sum "Si O2"
_cell_formula_units_Z 48
_cell_length_a 22.094708
_cell_length_b 8.885418
_cell_length_c 13.024207
_cell_angle_alpha 90.000000
_cell_angle_beta 90.000000
_cell_angle_gamma 90.000000
_cell_volume 2556.921646
_symmetry_space_group_name_H-M "P N N A"
_symmetry_group_IT_number 52
_symmetry_cell_setting 'orthorhombic'
loop_
_space_group_symop_operation_xyz
x,y,z
1/2-x,-y,z
x,1/2-y,1/2-z
1/2-x,1/2+y,1/2-z
-x,-y,-z
1/2+x,y,-z
-x,1/2+y,1/2+z
1/2+x,1/2-y,1/2+z
loop_
_atom_site_type_symbol
_atom_site_label
_atom_site_fract_x
_atom_site_fract_y
_atom_site_fract_z
Si Si1 0.121345 0.637312 0.427787
Si Si2 0.971138 0.904716 0.593160
Si Si3 0.006864 0.597476 0.287566
Si Si4 0.577139 0.827550 0.150806
Si Si5 0.266863 0.325177 0.138851
Si Si6 0.856610 0.708273 0.627375
O O1 0.055999 0.647559 0.372333
O O2 0.115594 0.646046 0.549764
O O3 0.168036 0.770768 0.400554
O O4 0.140443 0.470835 0.389469
O O5 0.911009 0.804326 0.575943
O O6 0.022939 0.787406 0.624654
O O7 0.961013 0.013224 0.691548
O O8 0.000000 0.000000 0.500000
O O9 0.976783 0.750000 0.250000
O O10 0.956780 0.482905 0.325992
O O11 0.607842 0.750000 0.250000
O O12 0.250000 0.500000 0.146186
O O13 0.265549 0.250000 0.250000
O O14 0.208378 0.256166 0.083099
O O15 0.860880 0.750000 0.750000
#
# Coordination Sequence:
#
# PCOD9412316 Si02
#       6
#     8   8   8   8   8   8
#     4  12  22  39  65  86 122 168 208 257 312 376
#     4  11  22  36  58  91 130 163 201 250 307 383
#     4  11  22  34  59  91 125 159 205 246 315 376
#     4  10  23  42  58  88 124 161 204 262 313 373
#     4  11  25  39  60  92 127 161 205 255 312 376
#     4  11  21  40  59  88 130 165 203 257 313 380
#
# _framework density 18.772573999999999
#
# number of rings (size 3 to 8) (size 9 to 14) (size 15 to 20)
#    0.000    1.000    3.333    5.000    7.000    0.000 
#    0.000    0.000    0.000    2.000    0.000    0.000 
#    0.000    0.000    0.000    0.000    0.000    0.000 
#
# Total GULP energy -267705.915420 kJ/mol
# GULP energy per Si atom -5577.206571 kJ/mol
# Density = 1.872985 g / cm^3
# Si number density = 18.772574 Si / 1000 Ang^3
#
#
#
# Elastic Constant Matrix: (Units=GPa)
#
#
# Indices 1 2 3 4 5 6 
#
# 1 41.1756 22.7636 28.3617 0.0000 0.0000 0.0000
# 2 22.7636 147.4036 42.8294 0.0000 0.0000 0.0000
# 3 28.3617 42.8294 96.2985 0.0000 0.0000 0.0000
# 4 0.0000 0.0000 0.0000 27.8162 0.0000 0.0000
# 5 0.0000 0.0000 0.0000 0.0000 8.1660 0.0000
# 6 0.0000 0.0000 0.0000 0.0000 0.0000 28.4362
#
#
#
# Elastic Compliance Matrix: (Units=1/GPa)
#
#
# Indices 1 2 3 4 5 6 
#
# 1 0.031230 -0.002470 -0.008100 0.000000 0.000000 0.000000
# 2 -0.002470 0.007986 -0.002825 0.000000 0.000000 0.000000
# 3 -0.008100 -0.002825 0.014026 0.000000 0.000000 0.000000
# 4 0.000000 0.000000 0.000000 0.035950 0.000000 0.000000
# 5 0.000000 0.000000 0.000000 0.000000 0.122459 0.000000
# 6 0.000000 0.000000 0.000000 0.000000 0.000000 0.035166
#
#
# Mechanical properties :
#
#
# Convention : Reuss Voigt Hill
#
# Bulk Modulus (GPa) = 37.79959 52.53190 45.16574
# Shear Modulus (GPa) = 17.70386 25.61188 21.65787
#
# Velocity S-wave (km/s) = 3.07428 3.69768 3.40030
# Velocity P-wave (km/s) = 5.72545 6.80254 6.28710
#
# Compressibility (1/GPa) = 0.02645532
#
# Stress axis : x y z
#
# Youngs Moduli (GPa) = 32.02000 125.21639 71.29553
#
# Poissons Ratio (x) = 0.30922 0.57747
# Poissons Ratio (y) = 0.07907 0.20138
# Poissons Ratio (z) = 0.25935 0.35368
#
# Static dielectric constant tensor:
#      x y z
#    x 1.679080 0.000000 0.000000 
#    y 0.000000 1.693990 0.000000 
#    z 0.000000 0.000000 1.632370 
# 
# From -- ./inp_files/22271.got.cif
#   From: 2010.05.17/outbox.cif.g08.bks.cpg/sg52_12_cif.got.tgz:22271.got - 2010.06.03 12:15:38.
