data_PCOD9412288
_publ_section_title
;
Structure prediction by ZEFSAII (Michael W. Deem and Ramdas Pophale) SiO2 
 PCOD9412288
Probable space group: P N N A
;
_chemical_formula_sum "Si O2"
_cell_formula_units_Z 32
_cell_length_a 14.222876
_cell_length_b 5.310895
_cell_length_c 18.098084
_cell_angle_alpha 90.000000
_cell_angle_beta 90.000000
_cell_angle_gamma 90.000000
_cell_volume 1367.060511
_symmetry_space_group_name_H-M "P N N A"
_symmetry_group_IT_number 52
_symmetry_cell_setting 'orthorhombic'
loop_
_space_group_symop_operation_xyz
x,y,z
1/2-x,-y,z
x,1/2-y,1/2-z
1/2-x,1/2+y,1/2-z
-x,-y,-z
1/2+x,y,-z
-x,1/2+y,1/2+z
1/2+x,1/2-y,1/2+z
loop_
_atom_site_type_symbol
_atom_site_label
_atom_site_fract_x
_atom_site_fract_y
_atom_site_fract_z
Si Si1 0.636773 0.997644 0.294647
Si Si2 0.250000 0.000000 0.974630
Si Si3 0.424589 0.719134 0.937743
Si Si4 0.375575 0.362731 0.068637
Si Si5 0.750000 0.500000 0.798094
O O1 0.610256 0.250000 0.250000
O O2 0.590005 0.009851 0.374798
O O3 0.750000 0.000000 0.303921
O O4 0.610138 0.750000 0.250000
O O5 0.338208 0.909025 0.926662
O O6 0.207437 0.783482 0.026619
O O7 0.531074 0.810561 0.929527
O O8 0.407008 0.595894 0.017592
O O9 0.337774 0.445623 0.147584
O O10 0.765534 0.750000 0.750000
#
# Coordination Sequence:
#
# PCOD9412288 Si02
#       5
#     8   4   8   8   4
#     4  10  23  41  64 101 144 191 234 293 374 446
#     4  12  21  44  74 107 146 192 244 326 373 450
#     4  11  25  42  75 104 144 196 254 318 374 457
#     4  11  25  46  70 110 141 194 260 313 379 454
#     4  12  27  50  78 107 158 208 254 318 393 464
#
# _framework density 23.407889000000001
#
# number of rings (size 3 to 8) (size 9 to 14) (size 15 to 20)
#    0.000    1.000    2.500    3.000    8.750    2.000 
#    0.000    0.000    0.000    0.000    0.000    0.000 
#    0.000    0.000    0.000    0.000    0.000    0.000 
#
# Total GULP energy -179180.012614 kJ/mol
# GULP energy per Si atom -5599.375394 kJ/mol
# Density = 2.335461 g / cm^3
# Si number density = 23.407889 Si / 1000 Ang^3
#
#
#
# Elastic Constant Matrix: (Units=GPa)
#
#
# Indices 1 2 3 4 5 6 
#
# 1 160.2898 35.8439 40.6414 0.0000 0.0000 0.0000
# 2 35.8439 105.8730 45.1298 0.0000 0.0000 0.0000
# 3 40.6414 45.1298 131.0158 0.0000 0.0000 0.0000
# 4 0.0000 0.0000 0.0000 30.3328 0.0000 0.0000
# 5 0.0000 0.0000 0.0000 0.0000 6.5862 0.0000
# 6 0.0000 0.0000 0.0000 0.0000 0.0000 29.6249
#
#
#
# Elastic Compliance Matrix: (Units=1/GPa)
#
#
# Indices 1 2 3 4 5 6 
#
# 1 0.007022 -0.001698 -0.001593 0.000000 0.000000 0.000000
# 2 -0.001698 0.011482 -0.003428 0.000000 0.000000 0.000000
# 3 -0.001593 -0.003428 0.009308 0.000000 0.000000 0.000000
# 4 0.000000 0.000000 0.000000 0.032968 0.000000 0.000000
# 5 0.000000 0.000000 0.000000 0.000000 0.151832 0.000000
# 6 0.000000 0.000000 0.000000 0.000000 0.000000 0.033755
#
#
# Mechanical properties :
#
#
# Convention : Reuss Voigt Hill
#
# Bulk Modulus (GPa) = 69.57886 71.15654 70.36770
# Shear Modulus (GPa) = 18.89662 31.67968 25.28815
#
# Velocity S-wave (km/s) = 2.84434 3.68282 3.29040
# Velocity P-wave (km/s) = 6.36994 6.96769 6.67551
#
# Compressibility (1/GPa) = 0.01437218
#
# Stress axis : x y z
#
# Youngs Moduli (GPa) = 142.39993 87.09646 107.43680
#
# Poissons Ratio (x) = 0.14792 0.17119
# Poissons Ratio (y) = 0.24184 0.36831
# Poissons Ratio (z) = 0.22690 0.29858
#
# Static dielectric constant tensor:
#      x y z
#    x 1.936370 0.000000 0.000000 
#    y 0.000000 1.945710 0.000000 
#    z 0.000000 0.000000 1.862570 
# 
# From -- ./inp_files/32633.got.cif
#   From: 2010.05.17/outbox.cif.g08.bks.cpg/sg52_17_cif.got.tgz:32633.got - 2010.06.03 12:15:38.
