data_PCOD9412285
_publ_section_title
;
Structure prediction by ZEFSAII (Michael W. Deem and Ramdas Pophale) SiO2 
 PCOD9412285
Probable space group: P N N A
;
_chemical_formula_sum "Si O2"
_cell_formula_units_Z 40
_cell_length_a 9.952304
_cell_length_b 7.852665
_cell_length_c 22.867003
_cell_angle_alpha 90.000000
_cell_angle_beta 90.000000
_cell_angle_gamma 90.000000
_cell_volume 1787.104518
_symmetry_space_group_name_H-M "P N N A"
_symmetry_group_IT_number 52
_symmetry_cell_setting 'orthorhombic'
loop_
_space_group_symop_operation_xyz
x,y,z
1/2-x,-y,z
x,1/2-y,1/2-z
1/2-x,1/2+y,1/2-z
-x,-y,-z
1/2+x,y,-z
-x,1/2+y,1/2+z
1/2+x,1/2-y,1/2+z
loop_
_atom_site_type_symbol
_atom_site_label
_atom_site_fract_x
_atom_site_fract_y
_atom_site_fract_z
Si Si1 0.432954 0.276331 0.188002
Si Si2 0.124806 0.125651 0.987309
Si Si3 0.192294 0.312169 0.638449
Si Si4 0.203826 0.301838 0.105001
Si Si5 0.461876 0.334502 0.813886
O O1 0.361372 0.250000 0.250000
O O2 0.571928 0.176511 0.184499
O O3 0.335029 0.221247 0.135639
O O4 0.487004 0.470449 0.186161
O O5 0.125645 0.224041 0.925102
O O6 0.250000 0.000000 0.985216
O O7 0.157796 0.250143 0.040723
O O8 0.000000 0.000000 0.000000
O O9 0.250000 0.500000 0.635435
O O10 0.315047 0.191350 0.657273
O O11 0.250000 0.500000 0.105613
O O12 0.077273 0.253773 0.145527
O O13 0.459284 0.250000 0.750000
#
# Coordination Sequence:
#
# PCOD9412285 Si02
#       5
#     8   8   8   8   8
#     4  11  23  40  62  90 121 161 205 252 307 366
#     4  11  23  41  64  92 123 162 208 255 306 365
#     4  11  23  40  61  88 122 161 202 251 305 364
#     4  10  23  41  63  91 124 161 205 254 310 367
#     4  11  23  40  61  89 123 161 203 252 308 368
#
# _framework density 22.382573000000001
#
# number of rings (size 3 to 8) (size 9 to 14) (size 15 to 20)
#    0.000    1.200    0.000    6.600    0.000    3.200 
#    0.000    5.000    0.000    0.000    0.000    0.000 
#    0.000    0.000    0.000    0.000    0.000    0.000 
#
# Total GULP energy -223333.347135 kJ/mol
# GULP energy per Si atom -5583.333678 kJ/mol
# Density = 2.233163 g / cm^3
# Si number density = 22.382573 Si / 1000 Ang^3
#
#
#
# Elastic Constant Matrix: (Units=GPa)
#
#
# Indices 1 2 3 4 5 6 
#
# 1 95.7163 5.4421 27.6093 0.0000 0.0000 0.0000
# 2 5.4421 30.6764 9.4334 0.0000 0.0000 0.0000
# 3 27.6093 9.4334 140.8552 0.0000 0.0000 0.0000
# 4 0.0000 0.0000 0.0000 32.5233 0.0000 0.0000
# 5 0.0000 0.0000 0.0000 0.0000 34.6647 0.0000
# 6 0.0000 0.0000 0.0000 0.0000 0.0000 25.3261
#
#
#
# Elastic Compliance Matrix: (Units=1/GPa)
#
#
# Indices 1 2 3 4 5 6 
#
# 1 0.011127 -0.001331 -0.002092 0.000000 0.000000 0.000000
# 2 -0.001331 0.033443 -0.001979 0.000000 0.000000 0.000000
# 3 -0.002092 -0.001979 0.007642 0.000000 0.000000 0.000000
# 4 0.000000 0.000000 0.000000 0.030747 0.000000 0.000000
# 5 0.000000 0.000000 0.000000 0.000000 0.028848 0.000000
# 6 0.000000 0.000000 0.000000 0.000000 0.000000 0.039485
#
#
# Mechanical properties :
#
#
# Convention : Reuss Voigt Hill
#
# Bulk Modulus (GPa) = 24.14947 39.13528 31.64237
# Shear Modulus (GPa) = 28.42570 33.48702 30.95636
#
# Velocity S-wave (km/s) = 3.56756 3.87217 3.72298
# Velocity P-wave (km/s) = 5.27094 6.12489 5.71389
#
# Compressibility (1/GPa) = 0.04140877
#
# Stress axis : x y z
#
# Youngs Moduli (GPa) = 89.87482 29.90171 130.85504
#
# Poissons Ratio (x) = 0.03979 0.27373
# Poissons Ratio (y) = 0.11959 0.25895
# Poissons Ratio (z) = 0.18800 0.05917
#
# Static dielectric constant tensor:
#      x y z
#    x 1.809810 0.000000 0.000000 
#    y 0.000000 1.829850 0.000000 
#    z 0.000000 0.000000 1.920330 
# 
# From -- ./inp_files/39221.got.cif
#   From: 2010.05.17/outbox.cif.g08.bks.cpg/sg52_20_cif.got.tgz:39221.got - 2010.06.03 12:15:38.
