data_PCOD9412884
_publ_section_title
;
Structure prediction by ZEFSAII (Michael W. Deem and Ramdas Pophale) SiO2 
 PCOD9412884
Probable space group: P N N A
;
_chemical_formula_sum "Si O2"
_cell_formula_units_Z 44
_cell_length_a 4.929572
_cell_length_b 14.993412
_cell_length_c 26.247813
_cell_angle_alpha 90.000000
_cell_angle_beta 90.000000
_cell_angle_gamma 90.000000
_cell_volume 1940.004836
_symmetry_space_group_name_H-M "P N N A"
_symmetry_group_IT_number 52
_symmetry_cell_setting 'orthorhombic'
loop_
_space_group_symop_operation_xyz
x,y,z
1/2-x,-y,z
x,1/2-y,1/2-z
1/2-x,1/2+y,1/2-z
-x,-y,-z
1/2+x,y,-z
-x,1/2+y,1/2+z
1/2+x,1/2-y,1/2+z
loop_
_atom_site_type_symbol
_atom_site_label
_atom_site_fract_x
_atom_site_fract_y
_atom_site_fract_z
Si Si1 0.250000 0.000000 0.595716
Si Si2 0.922911 0.830471 0.467171
Si Si3 0.139337 0.706440 0.615304
Si Si4 0.140042 0.597059 0.358460
Si Si5 0.521355 0.621772 0.180301
Si Si6 0.490088 0.143564 0.254943
O O1 0.383278 0.925313 0.560288
O O2 0.056105 0.946494 0.634220
O O3 0.737066 0.824412 0.517870
O O4 0.788527 0.756162 0.431006
O O5 0.332935 0.623546 0.628535
O O6 0.116811 0.781948 0.658975
O O7 0.837005 0.667448 0.613195
O O8 0.250000 0.500000 0.371715
O O9 0.139720 0.608752 0.297266
O O10 0.216849 0.624150 0.199462
O O11 0.721239 0.604386 0.227958
O O12 0.512352 0.250000 0.250000
#
# Coordination Sequence:
#
# PCOD9412884 Si02
#       6
#     4   8   8   8   8   8
#     4  10  26  40  66  98 144 166 208 262 324 386
#     4  11  24  44  72  99 126 165 211 264 329 408
#     4  11  22  43  63  89 124 165 206 259 329 379
#     4  12  25  39  63  92 124 170 215 267 317 365
#     4  11  23  38  58  90 127 177 208 256 307 370
#     4  12  22  39  59  86 127 171 226 259 300 359
#
# _framework density 22.680353
#
# number of rings (size 3 to 8) (size 9 to 14) (size 15 to 20)
#    0.000    0.727    3.636    3.818    2.545    5.818 
#    0.000    0.000    0.000   10.909    0.000    0.000 
#    0.000    0.000    0.000    0.000    0.000    0.000 
#
# Total GULP energy -246264.428645 kJ/mol
# GULP energy per Si atom -5596.918833 kJ/mol
# Density = 2.262873 g / cm^3
# Si number density = 22.680353 Si / 1000 Ang^3
#
#
#
# Elastic Constant Matrix: (Units=GPa)
#
#
# Indices 1 2 3 4 5 6 
#
# 1 93.9421 -1.6789 -0.8120 0.0000 0.0000 0.0000
# 2 -1.6789 82.8110 17.8112 0.0000 0.0000 0.0000
# 3 -0.8120 17.8112 38.9417 0.0000 0.0000 0.0000
# 4 0.0000 0.0000 0.0000 13.6973 0.0000 0.0000
# 5 0.0000 0.0000 0.0000 0.0000 15.6298 0.0000
# 6 0.0000 0.0000 0.0000 0.0000 0.0000 1.5720
#
#
#
# Elastic Compliance Matrix: (Units=1/GPa)
#
#
# Indices 1 2 3 4 5 6 
#
# 1 0.010649 0.000186 0.000137 0.000000 0.000000 0.000000
# 2 0.000186 0.013397 -0.006123 0.000000 0.000000 0.000000
# 3 0.000137 -0.006123 0.028483 0.000000 0.000000 0.000000
# 4 0.000000 0.000000 0.000000 0.073007 0.000000 0.000000
# 5 0.000000 0.000000 0.000000 0.000000 0.063981 0.000000
# 6 0.000000 0.000000 0.000000 0.000000 0.000000 0.636129
#
#
# Mechanical properties :
#
#
# Convention : Reuss Voigt Hill
#
# Bulk Modulus (GPa) = 24.43281 27.37059 25.90170
# Shear Modulus (GPa) = 5.87621 19.53811 12.70716
#
# Velocity S-wave (km/s) = 1.61137 2.93824 2.36957
# Velocity P-wave (km/s) = 3.77599 4.85852 4.35105
#
# Compressibility (1/GPa) = 0.04092857
#
# Stress axis : x y z
#
# Youngs Moduli (GPa) = 93.90228 74.64630 35.10862
#
# Poissons Ratio (x) = -0.01392 -0.00480
# Poissons Ratio (y) = -0.01751 0.21498
# Poissons Ratio (z) = -0.01284 0.45709
#
# Static dielectric constant tensor:
#      x y z
#    x 1.794160 0.000000 0.000000 
#    y 0.000000 1.854330 0.000000 
#    z 0.000000 0.000000 1.847430 
# 
# From -- ./inp_files/41632.got.cif
#   From: 2010.05.17/outbox.cif.g08.bks.cpg/sg52_21_cif.got.tgz:41632.got - 2010.06.03 12:15:38.
