data_PCOD9412861
_publ_section_title
;
Structure prediction by ZEFSAII (Michael W. Deem and Ramdas Pophale) SiO2 
 PCOD9412861
Probable space group: P N N A
;
_chemical_formula_sum "Si O2"
_cell_formula_units_Z 56
_cell_length_a 14.453143
_cell_length_b 11.929070
_cell_length_c 13.938476
_cell_angle_alpha 90.000000
_cell_angle_beta 90.000000
_cell_angle_gamma 90.000000
_cell_volume 2403.168254
_symmetry_space_group_name_H-M "P N N A"
_symmetry_group_IT_number 52
_symmetry_cell_setting 'orthorhombic'
loop_
_space_group_symop_operation_xyz
x,y,z
1/2-x,-y,z
x,1/2-y,1/2-z
1/2-x,1/2+y,1/2-z
-x,-y,-z
1/2+x,y,-z
-x,1/2+y,1/2+z
1/2+x,1/2-y,1/2+z
loop_
_atom_site_type_symbol
_atom_site_label
_atom_site_fract_x
_atom_site_fract_y
_atom_site_fract_z
Si Si1 0.537764 0.250000 0.250000
Si Si2 0.407589 0.841092 0.445630
Si Si3 0.750000 0.000000 0.082051
Si Si4 0.410446 0.003082 0.779650
Si Si5 0.856220 0.464703 0.068993
Si Si6 0.570279 0.759502 0.551899
Si Si7 0.237451 0.159425 0.081529
Si Si8 0.907293 0.616666 0.737941
O O1 0.592346 0.133090 0.229872
O O2 0.475934 0.227067 0.344036
O O3 0.410304 0.926311 0.532794
O O4 0.486476 0.749572 0.473292
O O5 0.311134 0.778478 0.432538
O O6 0.410168 0.916226 0.349613
O O7 0.668139 0.956178 0.148307
O O8 0.706718 0.089269 0.010130
O O9 0.387471 0.058479 0.677032
O O10 0.512047 0.044402 0.809917
O O11 0.750000 0.500000 0.069402
O O12 0.877809 0.365074 0.996276
O O13 0.652124 0.669758 0.572145
O O14 0.188558 0.112742 0.178437
O O15 0.930059 0.750000 0.750000
#
# Coordination Sequence:
#
# PCOD9412861 Si02
#       8
#     4   8   4   8   8   8   8   8
#     4  12  28  44  74 112 154 200 254 318 394 470
#     4  11  22  47  72 106 146 188 243 322 366 450
#     4  12  30  46  70 102 150 202 248 310 392 468
#     4  12  26  49  74 108 147 202 254 319 385 464
#     4  12  23  44  72 112 143 187 260 317 375 450
#     4  12  25  44  76 107 151 198 249 310 394 451
#     4  11  28  46  67 108 145 194 251 303 379 473
#     4  10  25  47  74 104 148 192 250 309 383 462
#
# _framework density 23.302571
#
# number of rings (size 3 to 8) (size 9 to 14) (size 15 to 20)
#    0.000    0.571    5.000    2.143    9.000    0.571 
#    2.571    0.000    0.000    0.000    0.000    0.000 
#    0.000    0.000    0.000    0.000    0.000    0.000 
#
# Total GULP energy -312540.005279 kJ/mol
# GULP energy per Si atom -5581.071523 kJ/mol
# Density = 2.324953 g / cm^3
# Si number density = 23.302571 Si / 1000 Ang^3
#
#
#
# Elastic Constant Matrix: (Units=GPa)
#
#
# Indices 1 2 3 4 5 6 
#
# 1 109.2312 14.3106 46.8822 0.0000 0.0000 0.0000
# 2 14.3106 43.9555 7.7155 0.0000 0.0000 0.0000
# 3 46.8822 7.7155 162.6546 0.0000 0.0000 0.0000
# 4 0.0000 0.0000 0.0000 32.0568 0.0000 0.0000
# 5 0.0000 0.0000 0.0000 0.0000 5.7943 0.0000
# 6 0.0000 0.0000 0.0000 0.0000 0.0000 36.3594
#
#
#
# Elastic Compliance Matrix: (Units=1/GPa)
#
#
# Indices 1 2 3 4 5 6 
#
# 1 0.010826 -0.003002 -0.002978 0.000000 0.000000 0.000000
# 2 -0.003002 0.023774 -0.000262 0.000000 0.000000 0.000000
# 3 -0.002978 -0.000262 0.007019 0.000000 0.000000 0.000000
# 4 0.000000 0.000000 0.000000 0.031195 0.000000 0.000000
# 5 0.000000 0.000000 0.000000 0.000000 0.172584 0.000000
# 6 0.000000 0.000000 0.000000 0.000000 0.000000 0.027503
#
#
# Mechanical properties :
#
#
# Convention : Reuss Voigt Hill
#
# Bulk Modulus (GPa) = 34.32433 50.40644 42.36539
# Shear Modulus (GPa) = 16.94354 31.30429 24.12392
#
# Velocity S-wave (km/s) = 2.69942 3.66920 3.22102
# Velocity P-wave (km/s) = 4.94749 6.29515 5.66156
#
# Compressibility (1/GPa) = 0.02913385
#
# Stress axis : x y z
#
# Youngs Moduli (GPa) = 92.36680 42.06325 142.47391
#
# Poissons Ratio (x) = 0.12627 0.42430
# Poissons Ratio (y) = 0.27729 0.03739
# Poissons Ratio (z) = 0.27508 0.01104
#
# Static dielectric constant tensor:
#      x y z
#    x 1.810700 0.000000 0.000000 
#    y 0.000000 2.093100 0.000000 
#    z 0.000000 0.000000 1.920610 
# 
# From -- ./inp_files/27334.got.cif
#   From: 2010.05.17/outbox.cif.g08.bks.cpg/sg52_14_cif.got.tgz:27334.got - 2010.06.03 12:15:38.
