data_PCOD9412980
_publ_section_title
;
Structure prediction by ZEFSAII (Michael W. Deem and Ramdas Pophale) SiO2 
 PCOD9412980
Probable space group: P N N A
;
_chemical_formula_sum "Si O2"
_cell_formula_units_Z 32
_cell_length_a 30.679275
_cell_length_b 4.954158
_cell_length_c 12.136239
_cell_angle_alpha 90.000000
_cell_angle_beta 90.000000
_cell_angle_gamma 90.000000
_cell_volume 1844.586670
_symmetry_space_group_name_H-M "P N N A"
_symmetry_group_IT_number 52
_symmetry_cell_setting 'orthorhombic'
loop_
_space_group_symop_operation_xyz
x,y,z
1/2-x,-y,z
x,1/2-y,1/2-z
1/2-x,1/2+y,1/2-z
-x,-y,-z
1/2+x,y,-z
-x,1/2+y,1/2+z
1/2+x,1/2-y,1/2+z
loop_
_atom_site_type_symbol
_atom_site_label
_atom_site_fract_x
_atom_site_fract_y
_atom_site_fract_z
Si Si1 0.703142 0.502041 0.332462
Si Si2 0.982952 0.498642 0.823834
Si Si3 0.934666 0.699255 0.034183
Si Si4 0.112567 0.790723 0.881978
O O1 0.750000 0.500000 0.393173
O O2 0.709009 0.750000 0.250000
O O3 0.659968 0.576045 0.399505
O O4 0.695239 0.250000 0.250000
O O5 0.965720 0.250000 0.750000
O O6 0.024245 0.381557 0.889819
O O7 0.997628 0.750000 0.750000
O O8 0.949225 0.626074 0.910985
O O9 0.895128 0.502531 0.067317
O O10 0.921952 0.004597 0.063224
O O11 0.107082 0.750000 0.750000
#
# Coordination Sequence:
#
# PCOD9412980 Si02
#       4
#     8   8   8   8
#     4   9  17  28  43  66  97 130 155 181 227 280
#     4  11  22  36  50  67  96 126 157 201 242 274
#     4  11  22  33  50  72  92 125 166 194 231 285
#     4  11  19  31  49  71 100 128 158 194 228 276
#
# _framework density 17.348058999999999
#
# number of rings (size 3 to 8) (size 9 to 14) (size 15 to 20)
#    0.000    1.500    0.000    9.000    0.000    4.000 
#    0.000    0.000    0.000    0.000    0.000    0.000 
#    0.000   20.000    0.000    0.000    0.000    0.000 
#
# Total GULP energy -178495.820743 kJ/mol
# GULP energy per Si atom -5577.994398 kJ/mol
# Density = 1.730857 g / cm^3
# Si number density = 17.348059 Si / 1000 Ang^3
#
#
#
# Elastic Constant Matrix: (Units=GPa)
#
#
# Indices 1 2 3 4 5 6 
#
# 1 61.9325 -11.3321 13.8514 0.0000 0.0000 0.0000
# 2 -11.3321 81.8713 11.3837 0.0000 0.0000 0.0000
# 3 13.8514 11.3837 58.1002 0.0000 0.0000 0.0000
# 4 0.0000 0.0000 0.0000 22.5716 0.0000 0.0000
# 5 0.0000 0.0000 0.0000 0.0000 9.8851 0.0000
# 6 0.0000 0.0000 0.0000 0.0000 0.0000 26.1396
#
#
#
# Elastic Compliance Matrix: (Units=1/GPa)
#
#
# Indices 1 2 3 4 5 6 
#
# 1 0.017808 0.003141 -0.004861 0.000000 0.000000 0.000000
# 2 0.003141 0.013110 -0.003318 0.000000 0.000000 0.000000
# 3 -0.004861 -0.003318 0.019021 0.000000 0.000000 0.000000
# 4 0.000000 0.000000 0.000000 0.044304 0.000000 0.000000
# 5 0.000000 0.000000 0.000000 0.000000 0.101162 0.000000
# 6 0.000000 0.000000 0.000000 0.000000 0.000000 0.038256
#
#
# Mechanical properties :
#
#
# Convention : Reuss Voigt Hill
#
# Bulk Modulus (GPa) = 25.08534 25.52333 25.30433
# Shear Modulus (GPa) = 19.45337 24.25265 21.85301
#
# Velocity S-wave (km/s) = 3.35230 3.74305 3.55305
# Velocity P-wave (km/s) = 5.42912 5.78143 5.60804
#
# Compressibility (1/GPa) = 0.03986392
#
# Stress axis : x y z
#
# Youngs Moduli (GPa) = 56.15301 76.27582 52.57470
#
# Poissons Ratio (x) = -0.23957 0.25557
# Poissons Ratio (y) = -0.17637 0.17442
# Poissons Ratio (z) = 0.27296 0.25305
#
# Static dielectric constant tensor:
#      x y z
#    x 1.683440 0.000000 0.000000 
#    y 0.000000 1.594730 0.000000 
#    z 0.000000 0.000000 1.582390 
# 
# From -- ./inp_files/22582.got.cif
#   From: 2010.05.17/outbox.cif.g08.bks.cpg/sg52_12_cif.got.tgz:22582.got - 2010.06.03 12:15:38.
