data_PCOD9412166
_publ_section_title
;
Structure prediction by ZEFSAII (Michael W. Deem and Ramdas Pophale) SiO2 
 PCOD9412166
Probable space group: P N N A
;
_chemical_formula_sum "Si O2"
_cell_formula_units_Z 40
_cell_length_a 12.110527
_cell_length_b 5.385552
_cell_length_c 23.721718
_cell_angle_alpha 90.000000
_cell_angle_beta 90.000000
_cell_angle_gamma 90.000000
_cell_volume 1547.174877
_symmetry_space_group_name_H-M "P N N A"
_symmetry_group_IT_number 52
_symmetry_cell_setting 'orthorhombic'
loop_
_space_group_symop_operation_xyz
x,y,z
1/2-x,-y,z
x,1/2-y,1/2-z
1/2-x,1/2+y,1/2-z
-x,-y,-z
1/2+x,y,-z
-x,1/2+y,1/2+z
1/2+x,1/2-y,1/2+z
loop_
_atom_site_type_symbol
_atom_site_label
_atom_site_fract_x
_atom_site_fract_y
_atom_site_fract_z
Si Si1 0.380485 0.962604 0.361300
Si Si2 0.885935 0.750000 0.250000
Si Si3 0.900343 0.763106 0.367468
Si Si4 0.750000 0.500000 0.531512
Si Si5 0.030607 0.250000 0.250000
Si Si6 0.250000 0.500000 0.955900
Si Si7 0.473811 0.580839 0.436404
O O1 0.398480 0.780483 0.307219
O O2 0.431033 0.850761 0.419330
O O3 0.250000 0.000000 0.366178
O O4 0.474582 0.167218 0.348895
O O5 0.828224 0.760206 0.310972
O O6 0.954639 0.493637 0.255175
O O7 0.851104 0.950144 0.413313
O O8 0.923672 0.504511 0.398955
O O9 0.751023 0.748506 0.492995
O O10 0.645041 0.550288 0.570983
O O11 0.500000 0.500000 0.500000
#
# Coordination Sequence:
#
# PCOD9412166 Si02
#       7
#     8   4   8   4   4   4   8
#     4  11  25  43  72 107 149 194 247 304 376 450
#     4  10  22  45  75 100 146 188 245 301 370 436
#     4  11  25  46  72 105 148 193 249 303 373 433
#     4  12  28  44  71 108 145 192 244 294 374 438
#     4  10  22  45  69 106 144 194 231 307 370 448
#     4  12  28  48  73 104 143 198 250 304 352 440
#     4  12  24  43  72 102 147 193 238 308 366 439
#
# _framework density 25.853577000000001
#
# number of rings (size 3 to 8) (size 9 to 14) (size 15 to 20)
#    0.000    0.800    4.000    2.400    4.200    4.800 
#    1.800    5.000    0.000    0.000    0.000    0.000 
#    0.000    0.000    0.000    0.000    0.000    0.000 
#
# Total GULP energy -223062.430043 kJ/mol
# GULP energy per Si atom -5576.560751 kJ/mol
# Density = 2.579473 g / cm^3
# Si number density = 25.853577 Si / 1000 Ang^3
#
#
#
# Elastic Constant Matrix: (Units=GPa)
#
#
# Indices 1 2 3 4 5 6 
#
# 1 83.1954 21.7021 -11.6334 0.0000 0.0000 0.0000
# 2 21.7021 136.5324 24.7105 0.0000 0.0000 0.0000
# 3 -11.6334 24.7105 103.6376 0.0000 0.0000 0.0000
# 4 0.0000 0.0000 0.0000 41.2746 0.0000 0.0000
# 5 0.0000 0.0000 0.0000 0.0000 26.2986 0.0000
# 6 0.0000 0.0000 0.0000 0.0000 0.0000 42.1935
#
#
#
# Elastic Compliance Matrix: (Units=1/GPa)
#
#
# Indices 1 2 3 4 5 6 
#
# 1 0.012936 -0.002424 0.002030 0.000000 0.000000 0.000000
# 2 -0.002424 0.008109 -0.002205 0.000000 0.000000 0.000000
# 3 0.002030 -0.002205 0.010403 0.000000 0.000000 0.000000
# 4 0.000000 0.000000 0.000000 0.024228 0.000000 0.000000
# 5 0.000000 0.000000 0.000000 0.000000 0.038025 0.000000
# 6 0.000000 0.000000 0.000000 0.000000 0.000000 0.023700
#
#
# Mechanical properties :
#
#
# Convention : Reuss Voigt Hill
#
# Bulk Modulus (GPa) = 38.09642 43.65820 40.87731
# Shear Modulus (GPa) = 38.06671 41.19241 39.62956
#
# Velocity S-wave (km/s) = 3.84134 3.99594 3.91941
# Velocity P-wave (km/s) = 5.86873 6.18170 6.02725
#
# Compressibility (1/GPa) = 0.02624918
#
# Stress axis : x y z
#
# Youngs Moduli (GPa) = 77.30389 123.32499 96.12881
#
# Poissons Ratio (x) = 0.29889 -0.19514
# Poissons Ratio (y) = 0.18735 0.21200
# Poissons Ratio (z) = -0.15692 0.27198
#
# Static dielectric constant tensor:
#      x y z
#    x 2.065860 0.000000 0.000000 
#    y 0.000000 2.429680 0.000000 
#    z 0.000000 0.000000 2.154350 
# 
# From -- ./inp_files/42617.got.cif
#   From: 2010.05.17/outbox.cif.g08.bks.cpg/sg52_22_cif.got.tgz:42617.got - 2010.06.03 12:15:38.
