data_PCOD9412213
_publ_section_title
;
Structure prediction by ZEFSAII (Michael W. Deem and Ramdas Pophale) SiO2 
 PCOD9412213
Probable space group: P N N A
;
_chemical_formula_sum "Si O2"
_cell_formula_units_Z 48
_cell_length_a 8.783047
_cell_length_b 23.632942
_cell_length_c 11.595873
_cell_angle_alpha 90.000000
_cell_angle_beta 90.000000
_cell_angle_gamma 90.000000
_cell_volume 2406.946550
_symmetry_space_group_name_H-M "P N N A"
_symmetry_group_IT_number 52
_symmetry_cell_setting 'orthorhombic'
loop_
_space_group_symop_operation_xyz
x,y,z
1/2-x,-y,z
x,1/2-y,1/2-z
1/2-x,1/2+y,1/2-z
-x,-y,-z
1/2+x,y,-z
-x,1/2+y,1/2+z
1/2+x,1/2-y,1/2+z
loop_
_atom_site_type_symbol
_atom_site_label
_atom_site_fract_x
_atom_site_fract_y
_atom_site_fract_z
Si Si1 0.088365 0.969360 0.393410
Si Si2 0.250000 0.000000 0.026566
Si Si3 0.870736 0.250000 0.250000
Si Si4 0.898088 0.679218 0.331160
Si Si5 0.607131 0.833767 0.621104
Si Si6 0.403098 0.731865 0.039606
Si Si7 0.013393 0.051630 0.851964
O O1 0.126944 0.901429 0.393366
O O2 0.987854 0.973813 0.276638
O O3 0.250000 0.000000 0.381555
O O4 0.000000 0.000000 0.500000
O O5 0.379872 0.980039 0.940755
O O6 0.162797 0.953849 0.105818
O O7 0.753977 0.302618 0.261983
O O8 0.979323 0.252209 0.139845
O O9 0.042293 0.685461 0.245499
O O10 0.892537 0.717239 0.446490
O O11 0.915251 0.613698 0.356545
O O12 0.475173 0.819287 0.531436
O O13 0.747492 0.793078 0.590010
#
# Coordination Sequence:
#
# PCOD9412213 Si02
#       7
#     8   4   4   8   8   8   8
#     4  11  24  44  68 101 134 177 223 276 340 407
#     4  10  22  48  68  98 130 172 226 280 328 410
#     4  12  26  40  64 100 136 178 230 268 336 410
#     4  11  24  46  66  97 139 173 226 282 333 405
#     4  11  23  44  69  95 139 176 221 285 334 400
#     4  12  24  43  65  98 135 178 221 279 338 404
#     4  10  24  44  70  99 131 174 222 281 340 397
#
# _framework density 19.942278999999999
#
# number of rings (size 3 to 8) (size 9 to 14) (size 15 to 20)
#    0.000    1.000    4.167    1.000    5.833    1.333 
#    6.000    0.000    0.000    0.000    0.000    0.000 
#    0.000    0.000    0.000    0.000    0.000    0.000 
#
# Total GULP energy -267485.224448 kJ/mol
# GULP energy per Si atom -5572.608843 kJ/mol
# Density = 1.989689 g / cm^3
# Si number density = 19.942279 Si / 1000 Ang^3
#
#
#
# Elastic Constant Matrix: (Units=GPa)
#
#
# Indices 1 2 3 4 5 6 
#
# 1 115.1698 45.3516 63.7856 0.0000 0.0000 0.0000
# 2 45.3516 91.0045 57.5605 0.0000 0.0000 0.0000
# 3 63.7856 57.5605 134.8757 0.0000 0.0000 0.0000
# 4 0.0000 0.0000 0.0000 -26.7207 0.0000 0.0000
# 5 0.0000 0.0000 0.0000 0.0000 44.4448 0.0000
# 6 0.0000 0.0000 0.0000 0.0000 0.0000 9.3272
#
#
#
# Elastic Compliance Matrix: (Units=1/GPa)
#
#
# Indices 1 2 3 4 5 6 
#
# 1 0.012491 -0.003409 -0.004453 0.000000 0.000000 0.000000
# 2 -0.003409 0.015981 -0.005208 0.000000 0.000000 0.000000
# 3 -0.004453 -0.005208 0.011743 0.000000 0.000000 0.000000
# 4 0.000000 0.000000 0.000000 -0.037424 0.000000 0.000000
# 5 0.000000 0.000000 0.000000 0.000000 0.022500 0.000000
# 6 0.000000 0.000000 0.000000 0.000000 0.000000 0.107213
#
#
# Mechanical properties :
#
#
# Convention : Reuss Voigt Hill
#
# Bulk Modulus (GPa) = 71.04234 74.93839 72.99036
# Shear Modulus (GPa) = 30.61186 17.03374 23.82280
#
# Velocity S-wave (km/s) = 3.92219 2.92576 3.46003
# Velocity P-wave (km/s) = 7.49751 7.00519 7.25553
#
# Compressibility (1/GPa) = 0.01407611
#
# Stress axis : x y z
#
# Youngs Moduli (GPa) = 80.05685 62.57270 85.15905
#
# Poissons Ratio (x) = 0.21328 0.37918
# Poissons Ratio (y) = 0.27288 0.44354
# Poissons Ratio (z) = 0.35647 0.32590
#
# Static dielectric constant tensor:
#      x y z
#    x 1.738610 0.000000 0.000000 
#    y 0.000000 1.722580 0.000000 
#    z 0.000000 0.000000 2.259290 
# 
# From -- ./inp_files/16999.got.cif
#   From: 2010.05.17/outbox.cif.g08.bks.cpg/sg52_9_cif.got.tgz:16999.got - 2010.06.03 12:15:38.
