data_PCOD9412394
_publ_section_title
;
Structure prediction by ZEFSAII (Michael W. Deem and Ramdas Pophale) SiO2 
 PCOD9412394
Probable space group: P N N A
;
_chemical_formula_sum "Si O2"
_cell_formula_units_Z 48
_cell_length_a 26.142234
_cell_length_b 7.671073
_cell_length_c 10.405662
_cell_angle_alpha 90.000000
_cell_angle_beta 90.000000
_cell_angle_gamma 90.000000
_cell_volume 2086.740900
_symmetry_space_group_name_H-M "P N N A"
_symmetry_group_IT_number 52
_symmetry_cell_setting 'orthorhombic'
loop_
_space_group_symop_operation_xyz
x,y,z
1/2-x,-y,z
x,1/2-y,1/2-z
1/2-x,1/2+y,1/2-z
-x,-y,-z
1/2+x,y,-z
-x,1/2+y,1/2+z
1/2+x,1/2-y,1/2+z
loop_
_atom_site_type_symbol
_atom_site_label
_atom_site_fract_x
_atom_site_fract_y
_atom_site_fract_z
Si Si1 0.867398 0.604921 0.560473
Si Si2 0.808563 0.481261 0.345177
Si Si3 0.117818 0.009955 0.340637
Si Si4 0.192131 0.577144 0.927747
Si Si5 0.501551 0.572258 0.859173
Si Si6 0.540377 0.454995 0.392689
O O1 0.819787 0.611516 0.463819
O O2 0.889415 0.790281 0.607853
O O3 0.859622 0.508997 0.695838
O O4 0.905933 0.512272 0.459944
O O5 0.750000 0.500000 0.309773
O O6 0.832986 0.509007 0.202971
O O7 0.811149 0.282589 0.394344
O O8 0.157245 0.941463 0.446123
O O9 0.062280 0.919930 0.330211
O O10 0.250000 0.500000 0.951478
O O11 0.474112 0.465465 0.744977
O O12 0.470712 0.751419 0.871744
O O13 0.500000 0.500000 0.000000
O O14 0.500000 0.500000 0.500000
#
# Coordination Sequence:
#
# PCOD9412394 Si02
#       6
#     8   8   8   8   8   8
#     4  11  24  42  65  94 130 175 216 268 327 383
#     4  10  23  43  68  99 130 167 214 267 326 393
#     4  11  24  42  65  94 131 172 218 269 325 384
#     4  10  23  43  68  99 130 167 213 269 326 390
#     4  11  24  41  63  94 129 174 218 267 320 379
#     4  11  24  41  63  92 132 173 215 267 322 376
#
# _framework density 23.002375000000001
#
# number of rings (size 3 to 8) (size 9 to 14) (size 15 to 20)
#    0.000    1.333    3.333    1.000    4.667    4.000 
#    0.000    0.000    0.000    0.000    0.000    0.000 
#    0.000    0.000    0.000    0.000    0.000    0.000 
#
# Total GULP energy -267487.290116 kJ/mol
# GULP energy per Si atom -5572.651877 kJ/mol
# Density = 2.295002 g / cm^3
# Si number density = 23.002375 Si / 1000 Ang^3
#
#
#
# Elastic Constant Matrix: (Units=GPa)
#
#
# Indices 1 2 3 4 5 6 
#
# 1 54.8734 -2.1507 43.0411 0.0000 0.0000 0.0000
# 2 -2.1507 44.6695 34.4479 0.0000 0.0000 0.0000
# 3 43.0411 34.4479 238.4456 0.0000 0.0000 0.0000
# 4 0.0000 0.0000 0.0000 28.9037 0.0000 0.0000
# 5 0.0000 0.0000 0.0000 0.0000 35.0198 0.0000
# 6 0.0000 0.0000 0.0000 0.0000 0.0000 22.9996
#
#
#
# Elastic Compliance Matrix: (Units=1/GPa)
#
#
# Indices 1 2 3 4 5 6 
#
# 1 0.022056 0.004650 -0.004653 0.000000 0.000000 0.000000
# 2 0.004650 0.026174 -0.004621 0.000000 0.000000 0.000000
# 3 -0.004653 -0.004621 0.005701 0.000000 0.000000 0.000000
# 4 0.000000 0.000000 0.000000 0.034598 0.000000 0.000000
# 5 0.000000 0.000000 0.000000 0.000000 0.028555 0.000000
# 6 0.000000 0.000000 0.000000 0.000000 0.000000 0.043479
#
#
# Mechanical properties :
#
#
# Convention : Reuss Voigt Hill
#
# Bulk Modulus (GPa) = 22.37942 54.29611 38.33776
# Shear Modulus (GPa) = 27.07027 34.89464 30.98246
#
# Velocity S-wave (km/s) = 3.43424 3.89910 3.67403
# Velocity P-wave (km/s) = 5.04734 6.62770 5.89076
#
# Compressibility (1/GPa) = 0.04468391
#
# Stress axis : x y z
#
# Youngs Moduli (GPa) = 45.33968 38.20598 175.39918
#
# Poissons Ratio (x) = -0.17767 0.81614
# Poissons Ratio (y) = -0.21084 0.81047
# Poissons Ratio (z) = 0.21097 0.17654
#
# Static dielectric constant tensor:
#      x y z
#    x 0.643930 0.000000 0.000000 
#    y 0.000000 1.961740 0.000000 
#    z 0.000000 0.000000 1.862750 
# 
# From -- ./inp_files/15550.got.cif
#   From: 2010.05.17/outbox.cif.g08.bks.cpg/sg52_8_cif.got.tgz:15550.got - 2010.06.03 12:15:38.
