data_PCOD9412397
_publ_section_title
;
Structure prediction by ZEFSAII (Michael W. Deem and Ramdas Pophale) SiO2 
 PCOD9412397
Probable space group: P N N A
;
_chemical_formula_sum "Si O2"
_cell_formula_units_Z 36
_cell_length_a 23.809884
_cell_length_b 11.097261
_cell_length_c 6.197241
_cell_angle_alpha 90.000000
_cell_angle_beta 90.000000
_cell_angle_gamma 90.000000
_cell_volume 1637.462887
_symmetry_space_group_name_H-M "P N N A"
_symmetry_group_IT_number 52
_symmetry_cell_setting 'orthorhombic'
loop_
_space_group_symop_operation_xyz
x,y,z
1/2-x,-y,z
x,1/2-y,1/2-z
1/2-x,1/2+y,1/2-z
-x,-y,-z
1/2+x,y,-z
-x,1/2+y,1/2+z
1/2+x,1/2-y,1/2+z
loop_
_atom_site_type_symbol
_atom_site_label
_atom_site_fract_x
_atom_site_fract_y
_atom_site_fract_z
Si Si1 0.744297 0.864073 0.086776
Si Si2 0.030615 0.933271 0.801572
Si Si3 0.081615 0.419024 0.077643
Si Si4 0.379740 0.365389 0.393342
Si Si5 0.328183 0.750000 0.250000
O O1 0.748237 0.750000 0.250000
O O2 0.750000 0.000000 0.183749
O O3 0.682817 0.868019 0.982624
O O4 0.789024 0.836931 0.894950
O O5 0.979858 0.879163 0.662529
O O6 0.066801 0.023892 0.652447
O O7 0.076353 0.851915 0.913965
O O8 0.000000 0.000000 0.000000
O O9 0.104349 0.520464 0.244093
O O10 0.129410 0.318543 0.087275
O O11 0.386229 0.250000 0.250000
#
# Coordination Sequence:
#
# PCOD9412397 Si02
#       5
#     8   8   8   8   4
#     4  12  29  48  73 108 147 199 259 320 388 460
#     4   9  22  42  67 104 144 190 245 297 379 446
#     4  10  23  43  69 101 146 192 241 306 371 458
#     4  11  24  42  69 103 143 186 252 309 373 458
#     4  12  26  46  74 104 148 194 252 310 386 466
#
# _framework density 21.985230000000001
#
# number of rings (size 3 to 8) (size 9 to 14) (size 15 to 20)
#    0.000    1.333    3.333    0.000    6.222    6.222 
#    0.000    0.000    0.000    0.000    0.000    0.000 
#    0.000    0.000    0.000    0.000    0.000    0.000 
#
# Total GULP energy -201133.669266 kJ/mol
# GULP energy per Si atom -5587.046368 kJ/mol
# Density = 2.193519 g / cm^3
# Si number density = 21.985230 Si / 1000 Ang^3
#
#
#
# Elastic Constant Matrix: (Units=GPa)
#
#
# Indices 1 2 3 4 5 6 
#
# 1 172.8695 50.4895 45.4660 0.0000 0.0000 0.0000
# 2 50.4895 113.5381 38.1391 0.0000 0.0000 0.0000
# 3 45.4660 38.1391 88.9641 0.0000 0.0000 0.0000
# 4 0.0000 0.0000 0.0000 53.9940 0.0000 0.0000
# 5 0.0000 0.0000 0.0000 0.0000 0.9626 0.0000
# 6 0.0000 0.0000 0.0000 0.0000 0.0000 27.4072
#
#
#
# Elastic Compliance Matrix: (Units=1/GPa)
#
#
# Indices 1 2 3 4 5 6 
#
# 1 0.007156 -0.002282 -0.002679 0.000000 0.000000 0.000000
# 2 -0.002282 0.011017 -0.003557 0.000000 0.000000 0.000000
# 3 -0.002679 -0.003557 0.014134 0.000000 0.000000 0.000000
# 4 0.000000 0.000000 0.000000 0.018521 0.000000 0.000000
# 5 0.000000 0.000000 0.000000 0.000000 1.038816 0.000000
# 6 0.000000 0.000000 0.000000 0.000000 0.000000 0.036487
#
#
# Mechanical properties :
#
#
# Convention : Reuss Voigt Hill
#
# Bulk Modulus (GPa) = 65.47946 71.50675 68.49311
# Shear Modulus (GPa) = 4.35443 32.55790 18.45616
#
# Velocity S-wave (km/s) = 1.40887 3.85242 2.90052
# Velocity P-wave (km/s) = 5.70040 7.23766 6.51453
#
# Compressibility (1/GPa) = 0.01527196
#
# Stress axis : x y z
#
# Youngs Moduli (GPa) = 139.74679 90.76619 70.75044
#
# Poissons Ratio (x) = 0.20716 0.18951
# Poissons Ratio (y) = 0.31895 0.25164
# Poissons Ratio (z) = 0.37433 0.32283
#
# Static dielectric constant tensor:
#      x y z
#    x 1.779950 0.000000 0.000000 
#    y 0.000000 1.883680 0.000000 
#    z 0.000000 0.000000 1.896790 
# 
# From -- ./inp_files/4873.got.cif
#   From: 2010.05.17/outbox.cif.g08.bks.cpg/sg52_3_cif.got.tgz:4873.got - 2010.06.03 12:15:38.
