data_PCOD9412737
_publ_section_title
;
Structure prediction by ZEFSAII (Michael W. Deem and Ramdas Pophale) SiO2 
 PCOD9412737
Probable space group: P N N A
;
_chemical_formula_sum "Si O2"
_cell_formula_units_Z 60
_cell_length_a 11.151720
_cell_length_b 29.100278
_cell_length_c 8.714663
_cell_angle_alpha 90.000000
_cell_angle_beta 90.000000
_cell_angle_gamma 90.000000
_cell_volume 2828.066334
_symmetry_space_group_name_H-M "P N N A"
_symmetry_group_IT_number 52
_symmetry_cell_setting 'orthorhombic'
loop_
_space_group_symop_operation_xyz
x,y,z
1/2-x,-y,z
x,1/2-y,1/2-z
1/2-x,1/2+y,1/2-z
-x,-y,-z
1/2+x,y,-z
-x,1/2+y,1/2+z
1/2+x,1/2-y,1/2+z
loop_
_atom_site_type_symbol
_atom_site_label
_atom_site_fract_x
_atom_site_fract_y
_atom_site_fract_z
Si Si1 0.444315 0.686179 0.995349
Si Si2 0.364501 0.914831 0.942025
Si Si3 0.677373 0.842524 0.010115
Si Si4 0.193884 0.760912 0.570557
Si Si5 0.431568 0.110549 0.279350
Si Si6 0.750000 0.000000 0.207829
Si Si7 0.968141 0.622116 0.736733
Si Si8 0.923765 0.454931 0.046283
O O1 0.569099 0.714961 0.017492
O O2 0.415078 0.662452 0.159137
O O3 0.320581 0.712000 0.950121
O O4 0.487546 0.647617 0.872558
O O5 0.479120 0.916249 0.833341
O O6 0.296604 0.960672 0.903123
O O7 0.286590 0.869322 0.909992
O O8 0.394485 0.908468 0.118634
O O9 0.653023 0.863423 0.841458
O O10 0.701375 0.788928 0.992430
O O11 0.566411 0.853950 0.124083
O O12 0.180924 0.750000 0.750000
O O13 0.376025 0.073268 0.397137
O O14 0.665752 0.973720 0.326957
O O15 0.010580 0.585626 0.862416
O O16 0.000000 0.500000 0.000000
#
# Coordination Sequence:
#
# PCOD9412737 Si02
#       8
#     8   8   8   8   8   4   8   8
#     4  11  27  48  75 107 145 197 249 304 372 436
#     4  11  24  44  72 100 140 185 234 295 372 429
#     4  11  24  44  68 103 144 186 236 297 370 429
#     4  12  27  46  75 108 152 193 254 310 363 446
#     4  10  25  44  71 102 143 189 235 302 365 439
#     4  12  24  42  76 102 138 186 234 306 358 450
#     4  10  24  46  71  99 143 185 235 301 366 438
#     4  11  23  44  68 102 138 182 240 289 359 438
#
# _framework density 21.215909
#
# number of rings (size 3 to 8) (size 9 to 14) (size 15 to 20)
#    0.000    1.067    4.000    0.800    7.467    2.667 
#    0.000    0.000    0.000    0.000    0.000    0.000 
#    0.000    0.000    0.000    0.000    0.000    0.000 
#
# Total GULP energy -334587.174963 kJ/mol
# GULP energy per Si atom -5576.452916 kJ/mol
# Density = 2.116762 g / cm^3
# Si number density = 21.215909 Si / 1000 Ang^3
#
#
#
# Elastic Constant Matrix: (Units=GPa)
#
#
# Indices 1 2 3 4 5 6 
#
# 1 56.0479 21.6249 16.8040 0.0000 0.0000 0.0000
# 2 21.6249 103.1189 22.7874 0.0000 0.0000 0.0000
# 3 16.8040 22.7874 90.0956 0.0000 0.0000 0.0000
# 4 0.0000 0.0000 0.0000 30.8016 0.0000 0.0000
# 5 0.0000 0.0000 0.0000 0.0000 1636.9492 0.0000
# 6 0.0000 0.0000 0.0000 0.0000 0.0000 27.3988
#
#
#
# Elastic Compliance Matrix: (Units=1/GPa)
#
#
# Indices 1 2 3 4 5 6 
#
# 1 0.020075 -0.003583 -0.002838 0.000000 0.000000 0.000000
# 2 -0.003583 0.010911 -0.002091 0.000000 0.000000 0.000000
# 3 -0.002838 -0.002091 0.012158 0.000000 0.000000 0.000000
# 4 0.000000 0.000000 0.000000 0.032466 0.000000 0.000000
# 5 0.000000 0.000000 0.000000 0.000000 0.000611 0.000000
# 6 0.000000 0.000000 0.000000 0.000000 0.000000 0.036498
#
#
# Mechanical properties :
#
#
# Convention : Reuss Voigt Hill
#
# Bulk Modulus (GPa) = 38.28601 41.29945 39.79273
# Shear Modulus (GPa) = 36.11427 351.56633 193.84030
#
# Velocity S-wave (km/s) = 4.13028 12.88676 9.56890
# Velocity P-wave (km/s) = 6.38989 15.52203 11.86937
#
# Compressibility (1/GPa) = 0.02611920
#
# Stress axis : x y z
#
# Youngs Moduli (GPa) = 49.81296 91.65027 82.25275
#
# Poissons Ratio (x) = 0.32836 0.23344
# Poissons Ratio (y) = 0.17847 0.17203
# Poissons Ratio (z) = 0.14137 0.19168
#
# Static dielectric constant tensor:
#      x y z
#    x 1.841910 0.000000 0.000000 
#    y 0.000000 1.059060 0.000000 
#    z 0.000000 0.000000 1.710170 
# 
# From -- ./inp_files/9021.got.cif
#   From: 2010.05.17/outbox.cif.g08.bks.cpg/sg52_5_cif.got.tgz:9021.got - 2010.06.03 12:15:38.
