data_PCOD9412875
_publ_section_title
;
Structure prediction by ZEFSAII (Michael W. Deem and Ramdas Pophale) SiO2 
 PCOD9412875
Probable space group: P N N A
;
_chemical_formula_sum "Si O2"
_cell_formula_units_Z 48
_cell_length_a 19.494985
_cell_length_b 9.384841
_cell_length_c 11.351659
_cell_angle_alpha 90.000000
_cell_angle_beta 90.000000
_cell_angle_gamma 90.000000
_cell_volume 2076.869273
_symmetry_space_group_name_H-M "P N N A"
_symmetry_group_IT_number 52
_symmetry_cell_setting 'orthorhombic'
loop_
_space_group_symop_operation_xyz
x,y,z
1/2-x,-y,z
x,1/2-y,1/2-z
1/2-x,1/2+y,1/2-z
-x,-y,-z
1/2+x,y,-z
-x,1/2+y,1/2+z
1/2+x,1/2-y,1/2+z
loop_
_atom_site_type_symbol
_atom_site_label
_atom_site_fract_x
_atom_site_fract_y
_atom_site_fract_z
Si Si1 0.796001 0.612495 0.404904
Si Si2 0.082360 0.610158 0.932327
Si Si3 0.443467 0.912539 0.783541
Si Si4 0.685441 0.409099 0.956805
Si Si5 0.686943 0.750000 0.250000
Si Si6 0.515367 0.171394 0.871693
Si Si7 0.647589 0.250000 0.750000
O O1 0.750000 0.500000 0.481909
O O2 0.868917 0.572336 0.346243
O O3 0.811180 0.764680 0.466391
O O4 0.739519 0.639188 0.304338
O O5 0.054733 0.493812 0.840601
O O6 0.140610 0.694260 0.857594
O O7 0.023885 0.726769 0.964141
O O8 0.119291 0.511792 0.028948
O O9 0.457286 0.750000 0.750000
O O10 0.492859 0.008133 0.865563
O O11 0.750000 0.500000 0.995653
O O12 0.690197 0.364298 0.820767
O O13 0.490775 0.250000 0.750000
O O14 0.596371 0.187040 0.851159
#
# Coordination Sequence:
#
# PCOD9412875 Si02
#       7
#     8   8   8   8   4   8   4
#     4  12  22  30  55  95 138 165 196 264 346 407
#     4  11  18  35  62  99 130 163 211 263 350 407
#     4  11  18  30  58  98 138 161 188 261 342 419
#     4  12  26  41  67  97 122 181 237 276 329 404
#     4  12  17  30  56  98 139 160 196 260 344 428
#     4   8  19  40  64  84 122 171 213 272 331 383
#     4  10  25  50  66  78 127 180 246 280 300 376
#
# _framework density 23.111711
#
# number of rings (size 3 to 8) (size 9 to 14) (size 15 to 20)
#    0.500    0.667    8.333    0.000    0.000    1.333 
#    0.000    0.833    5.500    0.000    0.000    0.000 
#    0.000    0.000    0.000    0.000    0.000    0.000 
#
# Total GULP energy -267485.652260 kJ/mol
# GULP energy per Si atom -5572.617755 kJ/mol
# Density = 2.305911 g / cm^3
# Si number density = 23.111711 Si / 1000 Ang^3
#
#
#
# Elastic Constant Matrix: (Units=GPa)
#
#
# Indices 1 2 3 4 5 6 
#
# 1 37.2129 16.9432 -1.2361 0.0000 0.0000 0.0000
# 2 16.9432 148.4514 15.4403 0.0000 0.0000 0.0000
# 3 -1.2361 15.4403 49.6170 0.0000 0.0000 0.0000
# 4 0.0000 0.0000 0.0000 25.9325 0.0000 0.0000
# 5 0.0000 0.0000 0.0000 0.0000 -101.2595 0.0000
# 6 0.0000 0.0000 0.0000 0.0000 0.0000 9.7451
#
#
#
# Elastic Compliance Matrix: (Units=1/GPa)
#
#
# Indices 1 2 3 4 5 6 
#
# 1 0.028497 -0.003438 0.001780 0.000000 0.000000 0.000000
# 2 -0.003438 0.007376 -0.002381 0.000000 0.000000 0.000000
# 3 0.001780 -0.002381 0.020940 0.000000 0.000000 0.000000
# 4 0.000000 0.000000 0.000000 0.038562 0.000000 0.000000
# 5 0.000000 0.000000 0.000000 0.000000 -0.009876 0.000000
# 6 0.000000 0.000000 0.000000 0.000000 0.000000 0.102616
#
#
# Mechanical properties :
#
#
# Convention : Reuss Voigt Hill
#
# Bulk Modulus (GPa) = 20.51927 33.06401 26.79164
# Shear Modulus (GPa) = 23.53643 0.49255 12.01449
#
# Velocity S-wave (km/s) = 3.19466 0.46215 2.28248
# Velocity P-wave (km/s) = 4.74399 3.82387 4.30856
#
# Compressibility (1/GPa) = 0.04873469
#
# Stress axis : x y z
#
# Youngs Moduli (GPa) = 35.09188 135.57126 47.75629
#
# Poissons Ratio (x) = 0.46603 -0.08499
# Poissons Ratio (y) = 0.12063 0.11371
# Poissons Ratio (z) = -0.06245 0.32280
#
# Static dielectric constant tensor:
#      x y z
#    x 1.888750 0.000000 0.000000 
#    y 0.000000 2.209980 0.000000 
#    z 0.000000 0.000000 1.994510 
# 
# From -- ./inp_files/28107.got.cif
#   From: 2010.05.17/outbox.cif.g08.bks.cpg/sg52_15_cif.got.tgz:28107.got - 2010.06.03 12:15:38.
