data_PCOD9412706
_publ_section_title
;
Structure prediction by ZEFSAII (Michael W. Deem and Ramdas Pophale) SiO2 
 PCOD9412706
Probable space group: P N N A
;
_chemical_formula_sum "Si O2"
_cell_formula_units_Z 48
_cell_length_a 8.795652
_cell_length_b 11.128028
_cell_length_c 22.569347
_cell_angle_alpha 90.000000
_cell_angle_beta 90.000000
_cell_angle_gamma 90.000000
_cell_volume 2209.048453
_symmetry_space_group_name_H-M "P N N A"
_symmetry_group_IT_number 52
_symmetry_cell_setting 'orthorhombic'
loop_
_space_group_symop_operation_xyz
x,y,z
1/2-x,-y,z
x,1/2-y,1/2-z
1/2-x,1/2+y,1/2-z
-x,-y,-z
1/2+x,y,-z
-x,1/2+y,1/2+z
1/2+x,1/2-y,1/2+z
loop_
_atom_site_type_symbol
_atom_site_label
_atom_site_fract_x
_atom_site_fract_y
_atom_site_fract_z
Si Si1 0.250000 0.000000 0.811222
Si Si2 0.361136 0.743665 0.819252
Si Si3 0.084133 0.393482 0.102219
Si Si4 0.250000 0.500000 0.500502
Si Si5 0.500714 0.823871 0.036865
Si Si6 0.562126 0.649751 0.925097
Si Si7 0.054219 0.873823 0.719057
O O1 0.302729 0.875294 0.839768
O O2 0.106273 0.963567 0.770100
O O3 0.412794 0.750000 0.750000
O O4 0.483746 0.697444 0.865413
O O5 0.213695 0.657296 0.814340
O O6 0.255780 0.363526 0.082491
O O7 0.016745 0.509227 0.068611
O O8 0.995241 0.271307 0.088977
O O9 0.065863 0.419551 0.171668
O O10 0.348032 0.596737 0.464077
O O11 0.366955 0.421178 0.537597
O O12 0.516300 0.739976 0.977936
O O13 0.004123 0.750000 0.750000
#
# Coordination Sequence:
#
# PCOD9412706 Si02
#       7
#     4   8   8   4   8   8   8
#     4   8  16  37  60  88 120 156 207 256 296 362
#     4   9  19  36  59  90 121 160 205 249 301 356
#     4  11  23  41  62  89 127 159 203 253 301 361
#     4  10  24  45  68  80 134 150 209 246 304 364
#     4  11  23  46  62  95 117 166 196 255 303 368
#     4  11  24  39  62  92 125 159 203 252 304 360
#     4   9  19  37  58  87 119 160 205 250 298 356
#
# _framework density 21.728814
#
# number of rings (size 3 to 8) (size 9 to 14) (size 15 to 20)
#    0.000    2.333    1.667    2.500    2.333    1.333 
#    9.000    0.000    0.000    0.000    0.000    0.000 
#    0.000    0.000    0.000    0.000    0.000    0.000 
#
# Total GULP energy -267878.328007 kJ/mol
# GULP energy per Si atom -5580.798500 kJ/mol
# Density = 2.167936 g / cm^3
# Si number density = 21.728814 Si / 1000 Ang^3
#
#
#
# Elastic Constant Matrix: (Units=GPa)
#
#
# Indices 1 2 3 4 5 6 
#
# 1 34.6709 31.1355 19.2243 0.0000 0.0000 0.0000
# 2 31.1355 145.8278 10.0081 0.0000 0.0000 0.0000
# 3 19.2243 10.0081 63.7925 0.0000 0.0000 0.0000
# 4 0.0000 0.0000 0.0000 6.9908 0.0000 0.0000
# 5 0.0000 0.0000 0.0000 0.0000 9.6586 0.0000
# 6 0.0000 0.0000 0.0000 0.0000 0.0000 17.1921
#
#
#
# Elastic Compliance Matrix: (Units=1/GPa)
#
#
# Indices 1 2 3 4 5 6 
#
# 1 0.042742 -0.008331 -0.011573 0.000000 0.000000 0.000000
# 2 -0.008331 0.008556 0.001168 0.000000 0.000000 0.000000
# 3 -0.011573 0.001168 0.018980 0.000000 0.000000 0.000000
# 4 0.000000 0.000000 0.000000 0.143045 0.000000 0.000000
# 5 0.000000 0.000000 0.000000 0.000000 0.103535 0.000000
# 6 0.000000 0.000000 0.000000 0.000000 0.000000 0.058166
#
#
# Mechanical properties :
#
#
# Convention : Reuss Voigt Hill
#
# Bulk Modulus (GPa) = 30.48304 40.55857 35.52081
# Shear Modulus (GPa) = 11.80825 19.02984 15.41905
#
# Velocity S-wave (km/s) = 2.33370 2.96258 2.66675
# Velocity P-wave (km/s) = 4.61745 5.51442 5.08575
#
# Compressibility (1/GPa) = 0.03280512
#
# Stress axis : x y z
#
# Youngs Moduli (GPa) = 23.39633 116.87630 52.68635
#
# Poissons Ratio (x) = 0.97375 0.60976
# Poissons Ratio (y) = 0.19493 -0.06156
# Poissons Ratio (z) = 0.27078 -0.13656
#
# Static dielectric constant tensor:
#      x y z
#    x 1.817800 0.000000 0.000000 
#    y 0.000000 1.823620 0.000000 
#    z 0.000000 0.000000 1.815620 
# 
# From -- ./inp_files/39488.got.cif
#   From: 2010.05.17/outbox.cif.g08.bks.cpg/sg52_20_cif.got.tgz:39488.got - 2010.06.03 12:15:38.
