data_PCOD9412694
_publ_section_title
;
Structure prediction by ZEFSAII (Michael W. Deem and Ramdas Pophale) SiO2 
 PCOD9412694
Probable space group: P N N A
;
_chemical_formula_sum "Si O2"
_cell_formula_units_Z 32
_cell_length_a 28.405063
_cell_length_b 9.645286
_cell_length_c 4.888022
_cell_angle_alpha 90.000000
_cell_angle_beta 90.000000
_cell_angle_gamma 90.000000
_cell_volume 1339.195615
_symmetry_space_group_name_H-M "P N N A"
_symmetry_group_IT_number 52
_symmetry_cell_setting 'orthorhombic'
loop_
_space_group_symop_operation_xyz
x,y,z
1/2-x,-y,z
x,1/2-y,1/2-z
1/2-x,1/2+y,1/2-z
-x,-y,-z
1/2+x,y,-z
-x,1/2+y,1/2+z
1/2+x,1/2-y,1/2+z
loop_
_atom_site_type_symbol
_atom_site_label
_atom_site_fract_x
_atom_site_fract_y
_atom_site_fract_z
Si Si1 0.149604 0.101067 0.884344
Si Si2 0.750000 0.000000 0.052199
Si Si3 0.021164 0.845253 0.474211
Si Si4 0.299383 0.250000 0.250000
Si Si5 0.122184 0.943737 0.417500
O O1 0.143361 0.250000 0.750000
O O2 0.114923 0.004095 0.716994
O O3 0.202892 0.054177 0.804448
O O4 0.140214 0.061270 0.200782
O O5 0.732598 0.867015 0.882990
O O6 0.994761 0.750000 0.250000
O O7 0.072520 0.879586 0.346856
O O8 0.023411 0.750000 0.750000
O O9 0.000000 0.000000 0.500000
O O10 0.336321 0.169231 0.440007
#
# Coordination Sequence:
#
# PCOD9412694 Si02
#       5
#     8   4   8   4   8
#     4  11  26  42  68 102 145 186 244 299 360 421
#     4  10  26  38  70  98 144 186 250 294 358 414
#     4  12  27  50  81 114 151 191 247 305 378 451
#     4  10  24  44  70  98 142 190 238 294 352 428
#     4  11  25  46  72 102 140 195 235 292 368 440
#
# _framework density 23.894943999999999
#
# number of rings (size 3 to 8) (size 9 to 14) (size 15 to 20)
#    0.000    1.000    1.250    3.000   14.000    4.000 
#    0.000    0.000    0.000    0.000    0.000    0.000 
#    0.000    0.000    0.000    0.000    0.000    0.000 
#
# Total GULP energy -178592.901572 kJ/mol
# GULP energy per Si atom -5581.028174 kJ/mol
# Density = 2.384056 g / cm^3
# Si number density = 23.894944 Si / 1000 Ang^3
#
#
#
# Elastic Constant Matrix: (Units=GPa)
#
#
# Indices 1 2 3 4 5 6 
#
# 1 80.7000 47.8202 4.2635 0.0000 0.0000 0.0000
# 2 47.8202 190.2646 49.2954 0.0000 0.0000 0.0000
# 3 4.2635 49.2954 99.3507 0.0000 0.0000 0.0000
# 4 0.0000 0.0000 0.0000 40.9896 0.0000 0.0000
# 5 0.0000 0.0000 0.0000 0.0000 17.5960 0.0000
# 6 0.0000 0.0000 0.0000 0.0000 0.0000 24.4975
#
#
#
# Elastic Compliance Matrix: (Units=1/GPa)
#
#
# Indices 1 2 3 4 5 6 
#
# 1 0.014724 -0.004059 0.001382 0.000000 0.000000 0.000000
# 2 -0.004059 0.007150 -0.003373 0.000000 0.000000 0.000000
# 3 0.001382 -0.003373 0.011680 0.000000 0.000000 0.000000
# 4 0.000000 0.000000 0.000000 0.024396 0.000000 0.000000
# 5 0.000000 0.000000 0.000000 0.000000 0.056831 0.000000
# 6 0.000000 0.000000 0.000000 0.000000 0.000000 0.040820
#
#
# Mechanical properties :
#
#
# Convention : Reuss Voigt Hill
#
# Bulk Modulus (GPa) = 46.61322 63.67481 55.14402
# Shear Modulus (GPa) = 28.59553 34.54572 31.57062
#
# Velocity S-wave (km/s) = 3.46312 3.80640 3.63881
# Velocity P-wave (km/s) = 5.96161 6.78410 6.38611
#
# Compressibility (1/GPa) = 0.02145314
#
# Stress axis : x y z
#
# Youngs Moduli (GPa) = 67.91836 139.86157 85.61738
#
# Poissons Ratio (x) = 0.56764 -0.11832
# Poissons Ratio (y) = 0.27565 0.28883
# Poissons Ratio (z) = -0.09386 0.47182
#
# Static dielectric constant tensor:
#      x y z
#    x 1.964220 0.000000 0.000000 
#    y 0.000000 2.004850 0.000000 
#    z 0.000000 0.000000 1.962630 
# 
# From -- ./inp_files/6258.got.cif
#   From: 2010.05.17/outbox.cif.g08.bks.cpg/sg52_4_cif.got.tgz:6258.got - 2010.06.03 12:15:38.
