data_PCOD9412893
_publ_section_title
;
Structure prediction by ZEFSAII (Michael W. Deem and Ramdas Pophale) SiO2 
 PCOD9412893
Probable space group: P N N A
;
_chemical_formula_sum "Si O2"
_cell_formula_units_Z 64
_cell_length_a 23.778271
_cell_length_b 14.778681
_cell_length_c 8.694965
_cell_angle_alpha 90.000000
_cell_angle_beta 90.000000
_cell_angle_gamma 90.000000
_cell_volume 3055.510535
_symmetry_space_group_name_H-M "P N N A"
_symmetry_group_IT_number 52
_symmetry_cell_setting 'orthorhombic'
loop_
_space_group_symop_operation_xyz
x,y,z
1/2-x,-y,z
x,1/2-y,1/2-z
1/2-x,1/2+y,1/2-z
-x,-y,-z
1/2+x,y,-z
-x,1/2+y,1/2+z
1/2+x,1/2-y,1/2+z
loop_
_atom_site_type_symbol
_atom_site_label
_atom_site_fract_x
_atom_site_fract_y
_atom_site_fract_z
Si Si1 0.836565 0.808346 0.907016
Si Si2 0.954104 0.282406 0.077321
Si Si3 0.139294 0.598863 0.037657
Si Si4 0.932892 0.706845 0.092440
Si Si5 0.258985 0.208927 0.591654
Si Si6 0.380361 0.336888 0.351142
Si Si7 0.816811 0.003569 0.002063
Si Si8 0.162139 0.434699 0.841081
O O1 0.836435 0.750000 0.750000
O O2 0.837913 0.917312 0.900573
O O3 0.889955 0.774447 0.005682
O O4 0.780171 0.779558 0.999941
O O5 0.960141 0.250000 0.250000
O O6 0.909051 0.362910 0.072549
O O7 0.927928 0.204757 0.963000
O O8 0.013976 0.312937 0.012566
O O9 0.109916 0.597499 0.204629
O O10 0.192476 0.665681 0.011322
O O11 0.162144 0.503873 0.981335
O O12 0.954516 0.750000 0.250000
O O13 0.894290 0.623047 0.140692
O O14 0.282949 0.250000 0.750000
O O15 0.215255 0.131485 0.644497
O O16 0.361091 0.250000 0.250000
O O17 0.338659 0.397999 0.451044
O O18 0.750000 0.000000 0.992499
O O19 0.834829 0.983899 0.177441
#
# Coordination Sequence:
#
# PCOD9412893 Si02
#       8
#     8   8   8   8   8   8   8   8
#     4  11  25  40  65 102 139 189 228 280 349 409
#     4  11  24  46  73  95 125 184 230 289 354 415
#     4  11  24  39  68  96 138 177 230 285 350 414
#     4  11  22  47  71  92 141 175 231 290 348 410
#     4  11  22  41  66  97 143 186 227 280 352 419
#     4  10  26  45  64 100 138 180 231 286 349 408
#     4  12  25  39  68 101 144 182 233 282 341 422
#     4  11  23  42  64 103 136 183 227 282 344 421
#
# _framework density 20.945765000000002
#
# number of rings (size 3 to 8) (size 9 to 14) (size 15 to 20)
#    0.000    1.000    2.500    4.500    8.750    0.500 
#    0.000    0.625    0.000    0.000    0.000    0.000 
#    0.000    0.000    0.000    0.000    0.000    0.000 
#
# Total GULP energy -357379.686814 kJ/mol
# GULP energy per Si atom -5584.057606 kJ/mol
# Density = 2.089809 g / cm^3
# Si number density = 20.945765 Si / 1000 Ang^3
#
#
#
# Elastic Constant Matrix: (Units=GPa)
#
#
# Indices 1 2 3 4 5 6 
#
# 1 84.9089 5.6445 2.0590 0.0000 0.0000 0.0000
# 2 5.6445 49.0096 3.7528 0.0000 0.0000 0.0000
# 3 2.0590 3.7528 102.0544 0.0000 0.0000 0.0000
# 4 0.0000 0.0000 0.0000 32.1078 0.0000 0.0000
# 5 0.0000 0.0000 0.0000 0.0000 -2.5407 0.0000
# 6 0.0000 0.0000 0.0000 0.0000 0.0000 -293.6194
#
#
#
# Elastic Compliance Matrix: (Units=1/GPa)
#
#
# Indices 1 2 3 4 5 6 
#
# 1 0.011872 -0.001353 -0.000190 0.000000 0.000000 0.000000
# 2 -0.001353 0.020616 -0.000731 0.000000 0.000000 0.000000
# 3 -0.000190 -0.000731 0.009829 0.000000 0.000000 0.000000
# 4 0.000000 0.000000 0.000000 0.031145 0.000000 0.000000
# 5 0.000000 0.000000 0.000000 0.000000 -0.393596 0.000000
# 6 0.000000 0.000000 0.000000 0.000000 0.000000 -0.003406
#
#
# Mechanical properties :
#
#
# Convention : Reuss Voigt Hill
#
# Bulk Modulus (GPa) = 26.47572 28.76507 27.62039
# Shear Modulus (GPa) = -16.31838 -37.84268 -27.08053
#
# Velocity S-wave (km/s) = -2.79422 -4.25514 -3.59958
# Velocity P-wave (km/s) = 1.50244 3.22159 2.01511
#
# Compressibility (1/GPa) = 0.03777046
#
# Stress axis : x y z
#
# Youngs Moduli (GPa) = 84.23279 48.50620 101.73565
#
# Poissons Ratio (x) = 0.06562 0.01931
# Poissons Ratio (y) = 0.11395 0.07435
# Poissons Ratio (z) = 0.01599 0.03545
#
# Static dielectric constant tensor:
#      x y z
#    x 1.721900 0.000000 0.000000 
#    y 0.000000 1.855890 0.000000 
#    z 0.000000 0.000000 1.767880 
# 
# From -- ./inp_files/14518.got.cif
#   From: 2010.05.17/outbox.cif.g08.bks.cpg/sg52_8_cif.got.tgz:14518.got - 2010.06.03 12:15:38.
