data_PCOD9412314
_publ_section_title
;
Structure prediction by ZEFSAII (Michael W. Deem and Ramdas Pophale) SiO2 
 PCOD9412314
Probable space group: P N N A
;
_chemical_formula_sum "Si O2"
_cell_formula_units_Z 48
_cell_length_a 14.630687
_cell_length_b 17.389899
_cell_length_c 9.475850
_cell_angle_alpha 90.000000
_cell_angle_beta 90.000000
_cell_angle_gamma 90.000000
_cell_volume 2410.904216
_symmetry_space_group_name_H-M "P N N A"
_symmetry_group_IT_number 52
_symmetry_cell_setting 'orthorhombic'
loop_
_space_group_symop_operation_xyz
x,y,z
1/2-x,-y,z
x,1/2-y,1/2-z
1/2-x,1/2+y,1/2-z
-x,-y,-z
1/2+x,y,-z
-x,1/2+y,1/2+z
1/2+x,1/2-y,1/2+z
loop_
_atom_site_type_symbol
_atom_site_label
_atom_site_fract_x
_atom_site_fract_y
_atom_site_fract_z
Si Si1 0.324985 0.934370 0.977774
Si Si2 0.428520 0.230024 0.083998
Si Si3 0.583586 0.153775 0.467179
Si Si4 0.152215 0.461363 0.208219
Si Si5 0.247977 0.270543 0.595238
Si Si6 0.005166 0.075221 0.813102
O O1 0.295163 0.855410 0.905017
O O2 0.417950 0.965180 0.907748
O O3 0.250000 0.000000 0.962340
O O4 0.332753 0.916938 0.144354
O O5 0.423429 0.250000 0.250000
O O6 0.496882 0.289896 0.008373
O O7 0.468783 0.144308 0.088487
O O8 0.329929 0.232693 0.014920
O O9 0.610443 0.093574 0.588760
O O10 0.669004 0.209794 0.440968
O O11 0.556724 0.109152 0.324162
O O12 0.250000 0.500000 0.167380
O O13 0.078755 0.526174 0.253033
O O14 0.283826 0.250000 0.750000
#
# Coordination Sequence:
#
# PCOD9412314 Si02
#       6
#     8   8   8   8   8   8
#     4  11  24  43  69 100 136 183 226 279 342 408
#     4  10  23  41  72  96 134 178 222 281 346 402
#     4  11  24  44  68 101 134 179 224 283 345 410
#     4  11  26  42  69 102 136 177 235 281 342 410
#     4  12  24  45  67 100 137 174 230 281 340 406
#     4  11  22  48  67  96 139 181 219 283 348 404
#
# _framework density 19.909541999999998
#
# number of rings (size 3 to 8) (size 9 to 14) (size 15 to 20)
#    0.000    1.000    3.333    3.500    7.000    3.333 
#    0.000    0.000    0.000    0.000    0.000    0.000 
#    0.000    0.000    0.000    0.000    0.000    0.000 
#
# Total GULP energy -268250.318644 kJ/mol
# GULP energy per Si atom -5588.548305 kJ/mol
# Density = 1.986423 g / cm^3
# Si number density = 19.909542 Si / 1000 Ang^3
#
#
#
# Elastic Constant Matrix: (Units=GPa)
#
#
# Indices 1 2 3 4 5 6 
#
# 1 144.4058 37.6369 44.8942 0.0000 0.0000 0.0000
# 2 37.6369 74.3019 46.7544 0.0000 0.0000 0.0000
# 3 44.8942 46.7544 60.0988 0.0000 0.0000 0.0000
# 4 0.0000 0.0000 0.0000 23.0943 0.0000 0.0000
# 5 0.0000 0.0000 0.0000 0.0000 40.2505 0.0000
# 6 0.0000 0.0000 0.0000 0.0000 0.0000 34.8760
#
#
#
# Elastic Compliance Matrix: (Units=1/GPa)
#
#
# Indices 1 2 3 4 5 6 
#
# 1 0.009035 -0.000646 -0.006247 0.000000 0.000000 0.000000
# 2 -0.000646 0.026411 -0.020064 0.000000 0.000000 0.000000
# 3 -0.006247 -0.020064 0.036915 0.000000 0.000000 0.000000
# 4 0.000000 0.000000 0.000000 0.043301 0.000000 0.000000
# 5 0.000000 0.000000 0.000000 0.000000 0.024844 0.000000
# 6 0.000000 0.000000 0.000000 0.000000 0.000000 0.028673
#
#
# Mechanical properties :
#
#
# Convention : Reuss Voigt Hill
#
# Bulk Modulus (GPa) = 54.20890 59.70863 56.95877
# Shear Modulus (GPa) = 21.81087 29.61223 25.71155
#
# Velocity S-wave (km/s) = 3.31342 3.86079 3.59753
# Velocity P-wave (km/s) = 6.47496 7.06607 6.77696
#
# Compressibility (1/GPa) = 0.01844716
#
# Stress axis : x y z
#
# Youngs Moduli (GPa) = 110.67574 37.86269 27.08919
#
# Poissons Ratio (x) = 0.02445 0.16923
# Poissons Ratio (y) = 0.07148 0.54353
# Poissons Ratio (z) = 0.69140 0.75969
#
# Static dielectric constant tensor:
#      x y z
#    x 1.696500 0.000000 0.000000 
#    y 0.000000 1.716080 0.000000 
#    z 0.000000 0.000000 1.685080 
# 
# From -- ./inp_files/10441.got.cif
#   From: 2010.05.17/outbox.cif.g08.bks.cpg/sg52_6_cif.got.tgz:10441.got - 2010.06.03 12:15:38.
