data_PCOD9412793
_publ_section_title
;
Structure prediction by ZEFSAII (Michael W. Deem and Ramdas Pophale) SiO2 
 PCOD9412793
Probable space group: P N N A
;
_chemical_formula_sum "Si O2"
_cell_formula_units_Z 24
_cell_length_a 10.392565
_cell_length_b 12.784656
_cell_length_c 7.120290
_cell_angle_alpha 90.000000
_cell_angle_beta 90.000000
_cell_angle_gamma 90.000000
_cell_volume 946.039955
_symmetry_space_group_name_H-M "P N N A"
_symmetry_group_IT_number 52
_symmetry_cell_setting 'orthorhombic'
loop_
_space_group_symop_operation_xyz
x,y,z
1/2-x,-y,z
x,1/2-y,1/2-z
1/2-x,1/2+y,1/2-z
-x,-y,-z
1/2+x,y,-z
-x,1/2+y,1/2+z
1/2+x,1/2-y,1/2+z
loop_
_atom_site_type_symbol
_atom_site_label
_atom_site_fract_x
_atom_site_fract_y
_atom_site_fract_z
Si Si1 0.921394 0.981531 0.186854
Si Si2 0.458553 0.335004 0.990799
Si Si3 0.708878 0.210201 0.040008
O O1 0.808608 0.911173 0.088227
O O2 0.999107 0.904604 0.330579
O O3 0.915812 0.085087 0.322475
O O4 0.000000 0.000000 0.000000
O O5 0.584453 0.264953 0.946980
O O6 0.341153 0.257222 0.037411
O O7 0.707345 0.250000 0.250000
#
# Coordination Sequence:
#
# PCOD9412793 Si02
#       3
#     8   8   8
#     4  10  24  48  76 114 144 207 259 312 400 475
#     4  10  24  51  71 107 159 195 250 336 382 465
#     4  10  24  48  74 107 156 199 255 327 392 464
#
# _framework density 25.368905000000002
#
# number of rings (size 3 to 8) (size 9 to 14) (size 15 to 20)
#    0.000    2.000    0.000    0.000    4.667   12.000 
#   24.000    3.333    0.000    0.000    0.000    0.000 
#    0.000    0.000    0.000    0.000    0.000    0.000 
#
# Total GULP energy -133755.714391 kJ/mol
# GULP energy per Si atom -5573.154766 kJ/mol
# Density = 2.531116 g / cm^3
# Si number density = 25.368905 Si / 1000 Ang^3
#
#
#
# Elastic Constant Matrix: (Units=GPa)
#
#
# Indices 1 2 3 4 5 6 
#
# 1 197.3480 113.8417 40.2473 0.0000 0.0000 0.0000
# 2 113.8417 237.4468 73.3188 0.0000 0.0000 0.0000
# 3 40.2473 73.3188 177.0697 0.0000 0.0000 0.0000
# 4 0.0000 0.0000 0.0000 27.9984 0.0000 0.0000
# 5 0.0000 0.0000 0.0000 0.0000 11.7074 0.0000
# 6 0.0000 0.0000 0.0000 0.0000 0.0000 63.9030
#
#
#
# Elastic Compliance Matrix: (Units=1/GPa)
#
#
# Indices 1 2 3 4 5 6 
#
# 1 0.007013 -0.003291 -0.000231 0.000000 0.000000 0.000000
# 2 -0.003291 0.006373 -0.001891 0.000000 0.000000 0.000000
# 3 -0.000231 -0.001891 0.006483 0.000000 0.000000 0.000000
# 4 0.000000 0.000000 0.000000 0.035716 0.000000 0.000000
# 5 0.000000 0.000000 0.000000 0.000000 0.085416 0.000000
# 6 0.000000 0.000000 0.000000 0.000000 0.000000 0.015649
#
#
# Mechanical properties :
#
#
# Convention : Reuss Voigt Hill
#
# Bulk Modulus (GPa) = 110.58562 118.52000 114.55281
# Shear Modulus (GPa) = 29.32722 46.35221 37.83972
#
# Velocity S-wave (km/s) = 3.40373 4.27913 3.86629
# Velocity P-wave (km/s) = 7.68979 8.44006 8.07364
#
# Compressibility (1/GPa) = 0.00904277
#
# Stress axis : x y z
#
# Youngs Moduli (GPa) = 142.59951 156.91094 154.24843
#
# Poissons Ratio (x) = 0.51635 0.03569
# Poissons Ratio (y) = 0.46925 0.29167
# Poissons Ratio (z) = 0.03299 0.29670
#
# Static dielectric constant tensor:
#      x y z
#    x 2.739810 0.000000 0.000000 
#    y 0.000000 2.184330 0.000000 
#    z 0.000000 0.000000 1.905270 
# 
# From -- ./inp_files/8011.got.cif
#   From: 2010.05.17/outbox.cif.g08.bks.cpg/sg52_5_cif.got.tgz:8011.got - 2010.06.03 12:15:38.
