data_PCOD9412156
_publ_section_title
;
Structure prediction by ZEFSAII (Michael W. Deem and Ramdas Pophale) SiO2 
 PCOD9412156
Probable space group: P N N A
;
_chemical_formula_sum "Si O2"
_cell_formula_units_Z 40
_cell_length_a 14.853337
_cell_length_b 5.034639
_cell_length_c 24.049461
_cell_angle_alpha 90.000000
_cell_angle_beta 90.000000
_cell_angle_gamma 90.000000
_cell_volume 1798.447306
_symmetry_space_group_name_H-M "P N N A"
_symmetry_group_IT_number 52
_symmetry_cell_setting 'orthorhombic'
loop_
_space_group_symop_operation_xyz
x,y,z
1/2-x,-y,z
x,1/2-y,1/2-z
1/2-x,1/2+y,1/2-z
-x,-y,-z
1/2+x,y,-z
-x,1/2+y,1/2+z
1/2+x,1/2-y,1/2+z
loop_
_atom_site_type_symbol
_atom_site_label
_atom_site_fract_x
_atom_site_fract_y
_atom_site_fract_z
Si Si1 0.250000 0.000000 0.209937
Si Si2 0.947378 0.089654 0.807977
Si Si3 0.406470 0.215572 0.537999
Si Si4 0.092617 0.750000 0.750000
Si Si5 0.750000 0.000000 0.317930
Si Si6 0.990865 0.280485 0.573270
Si Si7 0.250000 0.000000 0.895958
O O1 0.246456 0.750000 0.250000
O O2 0.153321 0.019320 0.180185
O O3 0.944402 0.250000 0.750000
O O4 0.970760 0.256261 0.862331
O O5 0.026153 0.878548 0.795643
O O6 0.484552 0.412837 0.561035
O O7 0.413107 0.214948 0.471248
O O8 0.320506 0.352681 0.564238
O O9 0.427931 0.918086 0.557373
O O10 0.161923 0.944600 0.719136
O O11 0.725670 0.258306 0.354501
#
# Coordination Sequence:
#
# PCOD9412156 Si02
#       7
#     4   8   8   4   4   8   4
#     4  10  22  45  64 101 131 170 231 288 340 438
#     4  11  26  42  74 100 143 186 232 288 372 422
#     4  10  23  42  67  94 134 178 234 289 354 407
#     4  12  28  46  64 104 150 202 230 292 360 428
#     4  12  29  42  66 103 145 189 256 286 338 446
#     4  10  23  43  65  99 132 177 231 288 348 436
#     4  12  25  43  70  98 138 185 235 306 352 408
#
# _framework density 22.241408
#
# number of rings (size 3 to 8) (size 9 to 14) (size 15 to 20)
#    0.000    1.200    1.000    3.000   12.600    0.800 
#    0.000    0.000    0.000    4.800    0.000    0.000 
#    0.000    0.000    0.000    0.000    0.000    0.000 
#
# Total GULP energy -223469.018241 kJ/mol
# GULP energy per Si atom -5586.725456 kJ/mol
# Density = 2.219079 g / cm^3
# Si number density = 22.241408 Si / 1000 Ang^3
#
#
#
# Elastic Constant Matrix: (Units=GPa)
#
#
# Indices 1 2 3 4 5 6 
#
# 1 140.1398 28.0464 55.9306 0.0000 0.0000 0.0000
# 2 28.0464 109.4649 38.1012 0.0000 0.0000 0.0000
# 3 55.9306 38.1012 172.1064 0.0000 0.0000 0.0000
# 4 0.0000 0.0000 0.0000 35.0500 0.0000 0.0000
# 5 0.0000 0.0000 0.0000 0.0000 6.5290 0.0000
# 6 0.0000 0.0000 0.0000 0.0000 0.0000 25.3361
#
#
#
# Elastic Compliance Matrix: (Units=1/GPa)
#
#
# Indices 1 2 3 4 5 6 
#
# 1 0.008366 -0.001297 -0.002432 0.000000 0.000000 0.000000
# 2 -0.001297 0.010099 -0.001814 0.000000 0.000000 0.000000
# 3 -0.002432 -0.001814 0.007002 0.000000 0.000000 0.000000
# 4 0.000000 0.000000 0.000000 0.028531 0.000000 0.000000
# 5 0.000000 0.000000 0.000000 0.000000 0.153162 0.000000
# 6 0.000000 0.000000 0.000000 0.000000 0.000000 0.039469
#
#
# Mechanical properties :
#
#
# Convention : Reuss Voigt Hill
#
# Bulk Modulus (GPa) = 69.53432 73.98529 71.75981
# Shear Modulus (GPa) = 19.04701 33.35856 26.20279
#
# Velocity S-wave (km/s) = 2.92957 3.87698 3.43608
# Velocity P-wave (km/s) = 6.54022 7.30604 6.93371
#
# Compressibility (1/GPa) = 0.01438139
#
# Stress axis : x y z
#
# Youngs Moduli (GPa) = 119.53495 99.01814 142.81249
#
# Poissons Ratio (x) = 0.12843 0.34725
# Poissons Ratio (y) = 0.15505 0.25910
# Poissons Ratio (z) = 0.29065 0.17964
#
# Static dielectric constant tensor:
#      x y z
#    x 1.881450 0.000000 0.000000 
#    y 0.000000 1.808220 0.000000 
#    z 0.000000 0.000000 1.816950 
# 
# From -- ./inp_files/40551.got.cif
#   From: 2010.05.17/outbox.cif.g08.bks.cpg/sg52_21_cif.got.tgz:40551.got - 2010.06.03 12:15:38.
