data_PCOD9412178
_publ_section_title
;
Structure prediction by ZEFSAII (Michael W. Deem and Ramdas Pophale) SiO2 
 PCOD9412178
Probable space group: P N N A
;
_chemical_formula_sum "Si O2"
_cell_formula_units_Z 24
_cell_length_a 16.447575
_cell_length_b 7.416400
_cell_length_c 7.372855
_cell_angle_alpha 90.000000
_cell_angle_beta 90.000000
_cell_angle_gamma 90.000000
_cell_volume 899.354089
_symmetry_space_group_name_H-M "P N N A"
_symmetry_group_IT_number 52
_symmetry_cell_setting 'orthorhombic'
loop_
_space_group_symop_operation_xyz
x,y,z
1/2-x,-y,z
x,1/2-y,1/2-z
1/2-x,1/2+y,1/2-z
-x,-y,-z
1/2+x,y,-z
-x,1/2+y,1/2+z
1/2+x,1/2-y,1/2+z
loop_
_atom_site_type_symbol
_atom_site_label
_atom_site_fract_x
_atom_site_fract_y
_atom_site_fract_z
Si Si1 0.156386 0.928418 0.010998
Si Si2 0.557813 0.075991 0.658688
Si Si3 0.842594 0.483874 0.125899
O O1 0.096724 0.962419 0.179286
O O2 0.153286 0.784926 0.537135
O O3 0.250000 0.000000 0.048625
O O4 0.118365 0.010457 0.823506
O O5 0.520500 0.250000 0.750000
O O6 0.634368 0.124644 0.529420
O O7 0.500000 0.000000 0.500000
O O8 0.750000 0.500000 0.176023
#
# Coordination Sequence:
#
# PCOD9412178 Si02
#       3
#     8   8   8
#     4  10  22  45  79 111 144 186 245 308 372 444
#     4  12  28  47  70 103 149 199 247 299 373 448
#     4  10  22  45  77 111 145 185 243 310 374 440
#
# _framework density 26.685821000000001
#
# number of rings (size 3 to 8) (size 9 to 14) (size 15 to 20)
#    0.000    1.333    0.000    4.000    4.667    5.333 
#    6.000    0.000    0.000    0.000    0.000    0.000 
#    0.000    0.000    0.000    0.000    0.000    0.000 
#
# Total GULP energy -134063.176184 kJ/mol
# GULP energy per Si atom -5585.965674 kJ/mol
# Density = 2.662508 g / cm^3
# Si number density = 26.685821 Si / 1000 Ang^3
#
#
#
# Elastic Constant Matrix: (Units=GPa)
#
#
# Indices 1 2 3 4 5 6 
#
# 1 92.5611 34.4095 73.8467 0.0000 0.0000 0.0000
# 2 34.4095 116.4471 86.1505 0.0000 0.0000 0.0000
# 3 73.8467 86.1505 276.7594 0.0000 0.0000 0.0000
# 4 0.0000 0.0000 0.0000 39.5381 0.0000 0.0000
# 5 0.0000 0.0000 0.0000 0.0000 54.2617 0.0000
# 6 0.0000 0.0000 0.0000 0.0000 0.0000 39.6135
#
#
#
# Elastic Compliance Matrix: (Units=1/GPa)
#
#
# Indices 1 2 3 4 5 6 
#
# 1 0.014005 -0.001785 -0.003181 0.000000 0.000000 0.000000
# 2 -0.001785 0.011384 -0.003068 0.000000 0.000000 0.000000
# 3 -0.003181 -0.003068 0.005417 0.000000 0.000000 0.000000
# 4 0.000000 0.000000 0.000000 0.025292 0.000000 0.000000
# 5 0.000000 0.000000 0.000000 0.000000 0.018429 0.000000
# 6 0.000000 0.000000 0.000000 0.000000 0.000000 0.025244
#
#
# Mechanical properties :
#
#
# Convention : Reuss Voigt Hill
#
# Bulk Modulus (GPa) = 67.84608 97.17567 82.51087
# Shear Modulus (GPa) = 41.40695 46.10671 43.75683
#
# Velocity S-wave (km/s) = 3.94337 4.16114 4.05372
# Velocity P-wave (km/s) = 6.79800 7.71885 7.27301
#
# Compressibility (1/GPa) = 0.01473925
#
# Stress axis : x y z
#
# Youngs Moduli (GPa) = 71.40125 87.83911 184.60372
#
# Poissons Ratio (x) = 0.15678 0.58730
# Poissons Ratio (y) = 0.12744 0.56628
# Poissons Ratio (z) = 0.22716 0.26945
#
# Static dielectric constant tensor:
#      x y z
#    x 2.440830 0.000000 0.000000 
#    y 0.000000 2.211110 0.000000 
#    z 0.000000 0.000000 2.178800 
# 
# From -- ./inp_files/2819.got.cif
#   From: 2010.05.17/outbox.cif.g08.bks.cpg/sg52_2_cif.got.tgz:2819.got - 2010.06.03 12:15:38.
