data_PCOD9412098
_publ_section_title
;
Structure prediction by ZEFSAII (Michael W. Deem and Ramdas Pophale) SiO2 
 PCOD9412098
Probable space group: P N N A
;
_chemical_formula_sum "Si O2"
_cell_formula_units_Z 36
_cell_length_a 13.953060
_cell_length_b 8.219656
_cell_length_c 15.094127
_cell_angle_alpha 90.000000
_cell_angle_beta 90.000000
_cell_angle_gamma 90.000000
_cell_volume 1731.135665
_symmetry_space_group_name_H-M "P N N A"
_symmetry_group_IT_number 52
_symmetry_cell_setting 'orthorhombic'
loop_
_space_group_symop_operation_xyz
x,y,z
1/2-x,-y,z
x,1/2-y,1/2-z
1/2-x,1/2+y,1/2-z
-x,-y,-z
1/2+x,y,-z
-x,1/2+y,1/2+z
1/2+x,1/2-y,1/2+z
loop_
_atom_site_type_symbol
_atom_site_label
_atom_site_fract_x
_atom_site_fract_y
_atom_site_fract_z
Si Si1 0.562571 0.250000 0.250000
Si Si2 0.127252 0.589564 0.429154
Si Si3 0.589547 0.178347 0.061866
Si Si4 0.800460 0.658186 0.912946
Si Si5 0.432911 0.573362 0.251074
O O1 0.622038 0.217023 0.160889
O O2 0.497202 0.412939 0.234208
O O3 0.127683 0.493058 0.522228
O O4 0.217521 0.703607 0.410185
O O5 0.113019 0.463606 0.347385
O O6 0.025545 0.679981 0.431324
O O7 0.620751 0.297911 0.985187
O O8 0.750000 0.500000 0.949670
O O9 0.849661 0.603200 0.821014
O O10 0.485156 0.750000 0.250000
#
# Coordination Sequence:
#
# PCOD9412098 Si02
#       5
#     4   8   8   8   8
#     4  10  24  46  64  92 132 180 228 276 314 396
#     4  10  23  43  64  95 135 175 209 278 340 391
#     4  10  22  44  63  88 134 175 220 264 329 386
#     4  12  25  38  67 101 134 170 220 275 337 407
#     4  11  23  39  65 101 132 166 212 279 353 397
#
# _framework density 20.795597999999998
#
# number of rings (size 3 to 8) (size 9 to 14) (size 15 to 20)
#    0.000    1.333    2.222    3.333    3.111    3.556 
#    0.000    2.222    0.000    2.667    0.000    0.000 
#    0.000    0.000    0.000    0.000    0.000    0.000 
#
# Total GULP energy -200749.630414 kJ/mol
# GULP energy per Si atom -5576.378623 kJ/mol
# Density = 2.074827 g / cm^3
# Si number density = 20.795598 Si / 1000 Ang^3
#
#
#
# Elastic Constant Matrix: (Units=GPa)
#
#
# Indices 1 2 3 4 5 6 
#
# 1 66.0877 25.0280 43.2607 0.0000 0.0000 0.0000
# 2 25.0280 126.5328 49.2914 0.0000 0.0000 0.0000
# 3 43.2607 49.2914 184.2663 0.0000 0.0000 0.0000
# 4 0.0000 0.0000 0.0000 33.3010 0.0000 0.0000
# 5 0.0000 0.0000 0.0000 0.0000 3.3375 0.0000
# 6 0.0000 0.0000 0.0000 0.0000 0.0000 22.4395
#
#
#
# Elastic Compliance Matrix: (Units=1/GPa)
#
#
# Indices 1 2 3 4 5 6 
#
# 1 0.018405 -0.002185 -0.003736 0.000000 0.000000 0.000000
# 2 -0.002185 0.009082 -0.001916 0.000000 0.000000 0.000000
# 3 -0.003736 -0.001916 0.006817 0.000000 0.000000 0.000000
# 4 0.000000 0.000000 0.000000 0.030029 0.000000 0.000000
# 5 0.000000 0.000000 0.000000 0.000000 0.299625 0.000000
# 6 0.000000 0.000000 0.000000 0.000000 0.000000 0.044564
#
#
# Mechanical properties :
#
#
# Convention : Reuss Voigt Hill
#
# Bulk Modulus (GPa) = 53.68328 68.00519 60.84424
# Shear Modulus (GPa) = 11.61691 29.10271 20.35981
#
# Velocity S-wave (km/s) = 2.36609 3.74500 3.13236
# Velocity P-wave (km/s) = 5.77367 7.17445 6.51184
#
# Compressibility (1/GPa) = 0.01862777
#
# Stress axis : x y z
#
# Youngs Moduli (GPa) = 54.33388 110.11016 146.69637
#
# Poissons Ratio (x) = 0.24058 0.54813
# Poissons Ratio (y) = 0.11871 0.28114
# Poissons Ratio (z) = 0.20302 0.21102
#
# Static dielectric constant tensor:
#      x y z
#    x 1.738690 0.000000 0.000000 
#    y 0.000000 1.857340 0.000000 
#    z 0.000000 0.000000 1.755400 
# 
# From -- ./inp_files/26772.got.cif
#   From: 2010.05.17/outbox.cif.g08.bks.cpg/sg52_14_cif.got.tgz:26772.got - 2010.06.03 12:15:38.
