data_PCOD9412939
_publ_section_title
;
Structure prediction by ZEFSAII (Michael W. Deem and Ramdas Pophale) SiO2 
 PCOD9412939
Probable space group: P N N A
;
_chemical_formula_sum "Si O2"
_cell_formula_units_Z 40
_cell_length_a 17.964743
_cell_length_b 18.504951
_cell_length_c 5.262016
_cell_angle_alpha 90.000000
_cell_angle_beta 90.000000
_cell_angle_gamma 90.000000
_cell_volume 1749.287176
_symmetry_space_group_name_H-M "P N N A"
_symmetry_group_IT_number 52
_symmetry_cell_setting 'orthorhombic'
loop_
_space_group_symop_operation_xyz
x,y,z
1/2-x,-y,z
x,1/2-y,1/2-z
1/2-x,1/2+y,1/2-z
-x,-y,-z
1/2+x,y,-z
-x,1/2+y,1/2+z
1/2+x,1/2-y,1/2+z
loop_
_atom_site_type_symbol
_atom_site_label
_atom_site_fract_x
_atom_site_fract_y
_atom_site_fract_z
Si Si1 0.783225 0.627812 0.998953
Si Si2 0.919379 0.943096 0.630480
Si Si3 0.138611 0.909941 0.241114
Si Si4 0.621674 0.250000 0.250000
Si Si5 0.750000 0.500000 0.384127
Si Si6 0.017643 0.373347 0.610636
O O1 0.822561 0.699291 0.094578
O O2 0.782283 0.563654 0.206936
O O3 0.841131 0.595472 0.796860
O O4 0.700336 0.634239 0.894640
O O5 0.950726 0.908143 0.372668
O O6 0.901690 0.027211 0.595304
O O7 0.970173 0.925688 0.871388
O O8 0.070948 0.862974 0.135167
O O9 0.186515 0.957620 0.041704
O O10 0.566206 0.300440 0.414602
#
# Coordination Sequence:
#
# PCOD9412939 Si02
#       6
#     8   8   8   4   4   8
#     4  11  24  43  75 101 149 190 246 296 371 438
#     4  11  22  45  70 106 140 182 233 305 362 426
#     4  12  23  41  71 110 135 185 239 311 352 429
#     4  10  26  52  64 102 146 210 230 298 372 448
#     4  12  22  44  72 112 146 172 254 306 370 414
#     4  11  27  43  71 100 147 188 240 288 367 436
#
# _framework density 22.866457
#
# number of rings (size 3 to 8) (size 9 to 14) (size 15 to 20)
#    0.000    0.800    4.000    3.600    2.800    3.200 
#    3.600    0.000    0.000    0.000    0.000    0.000 
#    0.000    0.000    0.000    0.000    0.000    0.000 
#
# Total GULP energy -223570.235951 kJ/mol
# GULP energy per Si atom -5589.255899 kJ/mol
# Density = 2.281441 g / cm^3
# Si number density = 22.866457 Si / 1000 Ang^3
#
#
#
# Elastic Constant Matrix: (Units=GPa)
#
#
# Indices 1 2 3 4 5 6 
#
# 1 191.4198 76.0669 41.8849 0.0000 0.0000 0.0000
# 2 76.0669 100.0002 19.6379 0.0000 0.0000 0.0000
# 3 41.8849 19.6379 84.9337 0.0000 0.0000 0.0000
# 4 0.0000 0.0000 0.0000 20.6937 0.0000 0.0000
# 5 0.0000 0.0000 0.0000 0.0000 30.0080 0.0000
# 6 0.0000 0.0000 0.0000 0.0000 0.0000 36.7762
#
#
#
# Elastic Compliance Matrix: (Units=1/GPa)
#
#
# Indices 1 2 3 4 5 6 
#
# 1 0.008026 -0.005581 -0.002667 0.000000 0.000000 0.000000
# 2 -0.005581 0.014357 -0.000567 0.000000 0.000000 0.000000
# 3 -0.002667 -0.000567 0.013220 0.000000 0.000000 0.000000
# 4 0.000000 0.000000 0.000000 0.048324 0.000000 0.000000
# 5 0.000000 0.000000 0.000000 0.000000 0.033324 0.000000
# 6 0.000000 0.000000 0.000000 0.000000 0.000000 0.027192
#
#
# Mechanical properties :
#
#
# Convention : Reuss Voigt Hill
#
# Bulk Modulus (GPa) = 55.64363 72.39254 64.01809
# Shear Modulus (GPa) = 29.75056 33.41318 31.58187
#
# Velocity S-wave (km/s) = 3.61093 3.82675 3.72041
# Velocity P-wave (km/s) = 6.46313 7.15912 6.82001
#
# Compressibility (1/GPa) = 0.01797151
#
# Stress axis : x y z
#
# Youngs Moduli (GPa) = 124.60203 69.65427 75.64038
#
# Poissons Ratio (x) = 0.38874 0.20176
# Poissons Ratio (y) = 0.69540 0.04290
# Poissons Ratio (z) = 0.33236 0.03951
#
# Static dielectric constant tensor:
#      x y z
#    x 1.953400 0.000000 0.000000 
#    y 0.000000 1.908460 0.000000 
#    z 0.000000 0.000000 1.919990 
# 
# From -- ./inp_files/3270.got.cif
#   From: 2010.05.17/outbox.cif.g08.bks.cpg/sg52_2_cif.got.tgz:3270.got - 2010.06.03 12:15:38.
