data_PCOD9412688
_publ_section_title
;
Structure prediction by ZEFSAII (Michael W. Deem and Ramdas Pophale) SiO2 
 PCOD9412688
Probable space group: P N N A
;
_chemical_formula_sum "Si O2"
_cell_formula_units_Z 32
_cell_length_a 11.322903
_cell_length_b 7.427730
_cell_length_c 16.575865
_cell_angle_alpha 90.000000
_cell_angle_beta 90.000000
_cell_angle_gamma 90.000000
_cell_volume 1394.087703
_symmetry_space_group_name_H-M "P N N A"
_symmetry_group_IT_number 52
_symmetry_cell_setting 'orthorhombic'
loop_
_space_group_symop_operation_xyz
x,y,z
1/2-x,-y,z
x,1/2-y,1/2-z
1/2-x,1/2+y,1/2-z
-x,-y,-z
1/2+x,y,-z
-x,1/2+y,1/2+z
1/2+x,1/2-y,1/2+z
loop_
_atom_site_type_symbol
_atom_site_label
_atom_site_fract_x
_atom_site_fract_y
_atom_site_fract_z
Si Si1 0.118697 0.957274 0.221819
Si Si2 0.459022 0.203643 0.988442
Si Si3 0.131487 0.884127 0.825852
Si Si4 0.882578 0.506337 0.903627
O O1 0.118122 0.750000 0.250000
O O2 0.113454 0.054038 0.309483
O O3 0.250000 0.000000 0.185169
O O4 0.996191 0.013542 0.179132
O O5 0.363352 0.201727 0.915716
O O6 0.556304 0.334955 0.951329
O O7 0.428212 0.308306 0.070889
O O8 0.500000 0.000000 0.000000
O O9 0.131083 0.750000 0.750000
O O10 0.250000 0.000000 0.816746
O O11 0.750000 0.500000 0.930619
#
# Coordination Sequence:
#
# PCOD9412688 Si02
#       4
#     8   8   8   8
#     4  11  23  44  71 100 135 182 233 292 348 412
#     4  11  25  45  70 102 140 184 234 288 353 422
#     4  12  26  45  69 102 142 183 232 283 355 426
#     4  10  24  44  70 100 138 181 237 296 345 410
#
# _framework density 22.954080999999999
#
# number of rings (size 3 to 8) (size 9 to 14) (size 15 to 20)
#    0.000    1.000    2.500    3.000    7.000    1.000 
#    0.000    0.000    0.000    0.000    0.000    0.000 
#    0.000    0.000    0.000    0.000    0.000    0.000 
#
# Total GULP energy -178650.098677 kJ/mol
# GULP energy per Si atom -5582.815584 kJ/mol
# Density = 2.290184 g / cm^3
# Si number density = 22.954081 Si / 1000 Ang^3
#
#
#
# Elastic Constant Matrix: (Units=GPa)
#
#
# Indices 1 2 3 4 5 6 
#
# 1 157.2073 56.5782 21.1214 0.0000 0.0000 0.0000
# 2 56.5782 122.4461 24.3279 0.0000 0.0000 0.0000
# 3 21.1214 24.3279 86.0789 0.0000 0.0000 0.0000
# 4 0.0000 0.0000 0.0000 49.1673 0.0000 0.0000
# 5 0.0000 0.0000 0.0000 0.0000 -4.3361 0.0000
# 6 0.0000 0.0000 0.0000 0.0000 0.0000 36.1938
#
#
#
# Elastic Compliance Matrix: (Units=1/GPa)
#
#
# Indices 1 2 3 4 5 6 
#
# 1 0.007700 -0.003372 -0.000936 0.000000 0.000000 0.000000
# 2 -0.003372 0.010129 -0.002035 0.000000 0.000000 0.000000
# 3 -0.000936 -0.002035 0.012422 0.000000 0.000000 0.000000
# 4 0.000000 0.000000 0.000000 0.020339 0.000000 0.000000
# 5 0.000000 0.000000 0.000000 0.000000 -0.230619 0.000000
# 6 0.000000 0.000000 0.000000 0.000000 0.000000 0.027629
#
#
# Mechanical properties :
#
#
# Convention : Reuss Voigt Hill
#
# Bulk Modulus (GPa) = 56.93369 63.30969 60.12169
# Shear Modulus (GPa) = -37.35329 33.78531 -1.78399
#
# Velocity S-wave (km/s) = -4.03836 3.84065 -0.88254
# Velocity P-wave (km/s) = 1.76427 6.87811 5.02101
#
# Compressibility (1/GPa) = 0.01756429
#
# Stress axis : x y z
#
# Youngs Moduli (GPa) = 129.86290 98.72294 80.50058
#
# Poissons Ratio (x) = 0.33290 0.07538
# Poissons Ratio (y) = 0.43790 0.16385
# Poissons Ratio (z) = 0.12161 0.20094
#
# Static dielectric constant tensor:
#      x y z
#    x 1.845800 0.000000 0.000000 
#    y 0.000000 1.844470 0.000000 
#    z 0.000000 0.000000 1.943650 
# 
# From -- ./inp_files/25580.got.cif
#   From: 2010.05.17/outbox.cif.g08.bks.cpg/sg52_13_cif.got.tgz:25580.got - 2010.06.03 12:15:38.
