data_PCOD9412055
_publ_section_title
;
Structure prediction by ZEFSAII (Michael W. Deem and Ramdas Pophale) SiO2 
 PCOD9412055
Probable space group: P N N A
;
_chemical_formula_sum "Si O2"
_cell_formula_units_Z 36
_cell_length_a 8.756574
_cell_length_b 7.358096
_cell_length_c 22.270040
_cell_angle_alpha 90.000000
_cell_angle_beta 90.000000
_cell_angle_gamma 90.000000
_cell_volume 1434.896806
_symmetry_space_group_name_H-M "P N N A"
_symmetry_group_IT_number 52
_symmetry_cell_setting 'orthorhombic'
loop_
_space_group_symop_operation_xyz
x,y,z
1/2-x,-y,z
x,1/2-y,1/2-z
1/2-x,1/2+y,1/2-z
-x,-y,-z
1/2+x,y,-z
-x,1/2+y,1/2+z
1/2+x,1/2-y,1/2+z
loop_
_atom_site_type_symbol
_atom_site_label
_atom_site_fract_x
_atom_site_fract_y
_atom_site_fract_z
Si Si1 0.486454 0.207692 0.480997
Si Si2 0.347871 0.183514 0.136268
Si Si3 0.404009 0.470268 0.696897
Si Si4 0.210973 0.719609 0.911820
Si Si5 0.663073 0.250000 0.750000
O O1 0.364497 0.220118 0.427061
O O2 0.426579 0.283291 0.543634
O O3 0.642728 0.277681 0.452085
O O4 0.500000 0.000000 0.500000
O O5 0.261436 0.280707 0.190692
O O6 0.250000 0.000000 0.126884
O O7 0.517406 0.133875 0.160349
O O8 0.250000 0.500000 0.734119
O O9 0.342289 0.319091 0.649302
O O10 0.545612 0.410786 0.736817
O O11 0.250000 0.500000 0.903036
#
# Coordination Sequence:
#
# PCOD9412055 Si02
#       5
#     8   8   8   8   4
#     4  10  22  43  69 105 149 197 243 307 384 452
#     4  10  23  46  70 108 146 197 259 313 386 462
#     4  11  23  46  72 106 142 193 258 314 383 453
#     4  10  23  42  66 109 146 195 240 310 382 451
#     4  10  26  46  70 106 146 200 246 326 384 456
#
# _framework density 25.088911
#
# number of rings (size 3 to 8) (size 9 to 14) (size 15 to 20)
#    0.000    1.778    2.222    0.000    6.222    3.556 
#   24.000    0.000    0.000    0.000    0.000    0.000 
#    0.000    0.000    0.000    0.000    0.000    0.000 
#
# Total GULP energy -200853.206102 kJ/mol
# GULP energy per Si atom -5579.255725 kJ/mol
# Density = 2.503181 g / cm^3
# Si number density = 25.088911 Si / 1000 Ang^3
#
#
#
# Elastic Constant Matrix: (Units=GPa)
#
#
# Indices 1 2 3 4 5 6 
#
# 1 130.9104 30.7306 35.9882 0.0000 0.0000 0.0000
# 2 30.7306 67.0514 42.3646 0.0000 0.0000 0.0000
# 3 35.9882 42.3646 109.3198 0.0000 0.0000 0.0000
# 4 0.0000 0.0000 0.0000 44.5516 0.0000 0.0000
# 5 0.0000 0.0000 0.0000 0.0000 21.8807 0.0000
# 6 0.0000 0.0000 0.0000 0.0000 0.0000 23.6115
#
#
#
# Elastic Compliance Matrix: (Units=1/GPa)
#
#
# Indices 1 2 3 4 5 6 
#
# 1 0.008811 -0.002921 -0.001769 0.000000 0.000000 0.000000
# 2 -0.002921 0.020718 -0.007067 0.000000 0.000000 0.000000
# 3 -0.001769 -0.007067 0.012468 0.000000 0.000000 0.000000
# 4 0.000000 0.000000 0.000000 0.022446 0.000000 0.000000
# 5 0.000000 0.000000 0.000000 0.000000 0.045702 0.000000
# 6 0.000000 0.000000 0.000000 0.000000 0.000000 0.042352
#
#
# Mechanical properties :
#
#
# Convention : Reuss Voigt Hill
#
# Bulk Modulus (GPa) = 54.10124 58.38315 56.24219
# Shear Modulus (GPa) = 27.44665 31.22198 29.33431
#
# Velocity S-wave (km/s) = 3.31112 3.53151 3.42309
# Velocity P-wave (km/s) = 6.01902 6.32058 6.17164
#
# Compressibility (1/GPa) = 0.01848387
#
# Stress axis : x y z
#
# Youngs Moduli (GPa) = 113.49943 48.26783 80.20212
#
# Poissons Ratio (x) = 0.14097 0.14185
# Poissons Ratio (y) = 0.33148 0.56681
# Poissons Ratio (z) = 0.20074 0.34112
#
# Static dielectric constant tensor:
#      x y z
#    x 2.067570 0.000000 0.000000 
#    y 0.000000 1.945740 0.000000 
#    z 0.000000 0.000000 2.039740 
# 
# From -- ./inp_files/35554.got.cif
#   From: 2010.05.17/outbox.cif.g08.bks.cpg/sg52_18_cif.got.tgz:35554.got - 2010.06.03 12:15:38.
