data_PCOD9412956
_publ_section_title
;
Structure prediction by ZEFSAII (Michael W. Deem and Ramdas Pophale) SiO2 
 PCOD9412956
Probable space group: P N N A
;
_chemical_formula_sum "Si O2"
_cell_formula_units_Z 24
_cell_length_a 10.064316
_cell_length_b 11.805164
_cell_length_c 8.345264
_cell_angle_alpha 90.000000
_cell_angle_beta 90.000000
_cell_angle_gamma 90.000000
_cell_volume 991.508334
_symmetry_space_group_name_H-M "P N N A"
_symmetry_group_IT_number 52
_symmetry_cell_setting 'orthorhombic'
loop_
_space_group_symop_operation_xyz
x,y,z
1/2-x,-y,z
x,1/2-y,1/2-z
1/2-x,1/2+y,1/2-z
-x,-y,-z
1/2+x,y,-z
-x,1/2+y,1/2+z
1/2+x,1/2-y,1/2+z
loop_
_atom_site_type_symbol
_atom_site_label
_atom_site_fract_x
_atom_site_fract_y
_atom_site_fract_z
Si Si1 0.152829 0.599308 0.363351
Si Si2 0.612105 0.466048 0.194544
Si Si3 0.300256 0.331124 0.002577
O O1 0.250000 0.500000 0.407732
O O2 0.209903 0.637813 0.188941
O O3 0.153694 0.701860 0.490487
O O4 0.005711 0.559013 0.313843
O O5 0.750000 0.500000 0.277303
O O6 0.599745 0.576385 0.077406
O O7 0.662184 0.357750 0.089330
#
# Coordination Sequence:
#
# PCOD9412956 Si02
#       3
#     8   8   8
#     4  11  17  31  63  85 112 168 216 246 322 388
#     4   8  18  35  57  83 121 166 203 262 320 365
#     4   8  19  30  54  89 117 154 213 256 308 380
#
# _framework density 24.205544
#
# number of rings (size 3 to 8) (size 9 to 14) (size 15 to 20)
#    2.000    0.667    3.333    1.000    0.000    0.000 
#    0.000    0.000    7.333   20.000    0.000    0.000 
#    0.000    0.000    0.000    0.000    0.000    0.000 
#
# Total GULP energy -133728.579516 kJ/mol
# GULP energy per Si atom -5572.024146 kJ/mol
# Density = 2.415045 g / cm^3
# Si number density = 24.205544 Si / 1000 Ang^3
#
#
#
# Elastic Constant Matrix: (Units=GPa)
#
#
# Indices 1 2 3 4 5 6 
#
# 1 180.9238 102.2222 51.5548 0.0000 0.0000 0.0000
# 2 102.2222 220.6261 67.5003 0.0000 0.0000 0.0000
# 3 51.5548 67.5003 95.5806 0.0000 0.0000 0.0000
# 4 0.0000 0.0000 0.0000 25.2156 0.0000 0.0000
# 5 0.0000 0.0000 0.0000 0.0000 -196.9400 0.0000
# 6 0.0000 0.0000 0.0000 0.0000 0.0000 2.3783
#
#
#
# Elastic Compliance Matrix: (Units=1/GPa)
#
#
# Indices 1 2 3 4 5 6 
#
# 1 0.007808 -0.002971 -0.002113 0.000000 0.000000 0.000000
# 2 -0.002971 0.006912 -0.003279 0.000000 0.000000 0.000000
# 3 -0.002113 -0.003279 0.013918 0.000000 0.000000 0.000000
# 4 0.000000 0.000000 0.000000 0.039658 0.000000 0.000000
# 5 0.000000 0.000000 0.000000 0.000000 -0.005078 0.000000
# 6 0.000000 0.000000 0.000000 0.000000 0.000000 0.420465
#
#
# Mechanical properties :
#
#
# Convention : Reuss Voigt Hill
#
# Bulk Modulus (GPa) = 83.95268 104.40945 94.18106
# Shear Modulus (GPa) = 9.91315 -15.47900 -2.78293
#
# Velocity S-wave (km/s) = 2.02591 -2.53154 -1.07341
# Velocity P-wave (km/s) = 6.34279 5.88925 6.12022
#
# Compressibility (1/GPa) = 0.01191147
#
# Stress axis : x y z
#
# Youngs Moduli (GPa) = 128.07254 144.66807 71.84960
#
# Poissons Ratio (x) = 0.42983 0.15184
# Poissons Ratio (y) = 0.38052 0.23560
# Poissons Ratio (z) = 0.27066 0.47437
#
# Static dielectric constant tensor:
#      x y z
#    x 1.941790 0.000000 0.000000 
#    y 0.000000 2.009930 0.000000 
#    z 0.000000 0.000000 1.951570 
# 
# From -- ./inp_files/8004.got.cif
#   From: 2010.05.17/outbox.cif.g08.bks.cpg/sg52_5_cif.got.tgz:8004.got - 2010.06.03 12:15:38.
