data_PCOD9412989
_publ_section_title
;
Structure prediction by ZEFSAII (Michael W. Deem and Ramdas Pophale) SiO2 
 PCOD9412989
Probable space group: P N N A
;
_chemical_formula_sum "Si O2"
_cell_formula_units_Z 56
_cell_length_a 22.779026
_cell_length_b 19.908972
_cell_length_c 5.545779
_cell_angle_alpha 90.000000
_cell_angle_beta 90.000000
_cell_angle_gamma 90.000000
_cell_volume 2515.049546
_symmetry_space_group_name_H-M "P N N A"
_symmetry_group_IT_number 52
_symmetry_cell_setting 'orthorhombic'
loop_
_space_group_symop_operation_xyz
x,y,z
1/2-x,-y,z
x,1/2-y,1/2-z
1/2-x,1/2+y,1/2-z
-x,-y,-z
1/2+x,y,-z
-x,1/2+y,1/2+z
1/2+x,1/2-y,1/2+z
loop_
_atom_site_type_symbol
_atom_site_label
_atom_site_fract_x
_atom_site_fract_y
_atom_site_fract_z
Si Si1 0.828081 0.324312 0.735446
Si Si2 0.274240 0.575473 0.213036
Si Si3 0.841395 0.934880 0.222914
Si Si4 0.627076 0.581713 0.379309
Si Si5 0.058821 0.816425 0.584806
Si Si6 0.458724 0.894966 0.560130
Si Si7 0.952584 0.494545 0.710035
O O1 0.803055 0.250000 0.750000
O O2 0.781376 0.376538 0.832687
O O3 0.836305 0.354267 0.466307
O O4 0.890199 0.318799 0.879974
O O5 0.250000 0.500000 0.223262
O O6 0.307524 0.584111 0.474287
O O7 0.311796 0.586812 0.972266
O O8 0.907430 0.904047 0.243542
O O9 0.845453 0.017057 0.248734
O O10 0.573384 0.618278 0.248540
O O11 0.604278 0.544015 0.618072
O O12 0.063530 0.750000 0.750000
O O13 0.992509 0.825391 0.483981
O O14 0.436064 0.934387 0.323699
O O15 0.513642 0.942649 0.622998
O O16 0.000000 0.500000 0.500000
#
# Coordination Sequence:
#
# PCOD9412989 Si02
#       7
#     8   8   8   8   8   8   8
#     4  12  27  47  71 104 147 197 243 313 378 449
#     4  12  27  46  74 104 144 192 256 315 369 431
#     4  12  26  44  72 108 143 191 245 314 374 439
#     4  12  22  40  70 104 142 176 239 302 376 431
#     4  12  25  41  69 106 146 193 242 300 376 456
#     4  11  23  38  64 104 145 184 233 294 371 445
#     4  11  19  34  63  99 143 181 217 287 364 436
#
# _framework density 22.265964
#
# number of rings (size 3 to 8) (size 9 to 14) (size 15 to 20)
#    0.000    0.286    7.143    3.000    2.000    0.000 
#    0.000    0.714    0.000    3.429    0.000    0.000 
#    0.000    0.000    0.000    0.000    0.000    0.000 
#
# Total GULP energy -312290.539669 kJ/mol
# GULP energy per Si atom -5576.616780 kJ/mol
# Density = 2.221529 g / cm^3
# Si number density = 22.265964 Si / 1000 Ang^3
#
#
#
# Elastic Constant Matrix: (Units=GPa)
#
#
# Indices 1 2 3 4 5 6 
#
# 1 82.0497 30.6729 36.0856 0.0000 0.0000 0.0000
# 2 30.6729 101.4628 23.5919 0.0000 0.0000 0.0000
# 3 36.0856 23.5919 97.2302 0.0000 0.0000 0.0000
# 4 0.0000 0.0000 0.0000 22.8718 0.0000 0.0000
# 5 0.0000 0.0000 0.0000 0.0000 33.0758 0.0000
# 6 0.0000 0.0000 0.0000 0.0000 0.0000 29.9053
#
#
#
# Elastic Compliance Matrix: (Units=1/GPa)
#
#
# Indices 1 2 3 4 5 6 
#
# 1 0.015713 -0.003597 -0.004959 0.000000 0.000000 0.000000
# 2 -0.003597 0.011269 -0.001399 0.000000 0.000000 0.000000
# 3 -0.004959 -0.001399 0.012465 0.000000 0.000000 0.000000
# 4 0.000000 0.000000 0.000000 0.043722 0.000000 0.000000
# 5 0.000000 0.000000 0.000000 0.000000 0.030234 0.000000
# 6 0.000000 0.000000 0.000000 0.000000 0.000000 0.033439
#
#
# Mechanical properties :
#
#
# Convention : Reuss Voigt Hill
#
# Bulk Modulus (GPa) = 51.18716 51.27150 51.22933
# Shear Modulus (GPa) = 28.85766 29.86340 29.36053
#
# Velocity S-wave (km/s) = 3.60397 3.66623 3.63523
# Velocity P-wave (km/s) = 6.35271 6.40301 6.37791
#
# Compressibility (1/GPa) = 0.01953615
#
# Stress axis : x y z
#
# Youngs Moduli (GPa) = 63.63964 88.74193 80.22576
#
# Poissons Ratio (x) = 0.31923 0.39784
# Poissons Ratio (y) = 0.22893 0.11225
# Poissons Ratio (z) = 0.31559 0.12416
#
# Static dielectric constant tensor:
#      x y z
#    x 1.962760 0.000000 0.000000 
#    y 0.000000 1.840000 0.000000 
#    z 0.000000 0.000000 1.981860 
# 
# From -- ./inp_files/5229.got.cif
#   From: 2010.05.17/outbox.cif.g08.bks.cpg/sg52_3_cif.got.tgz:5229.got - 2010.06.03 12:15:38.
