data_PCOD9412092
_publ_section_title
;
Structure prediction by ZEFSAII (Michael W. Deem and Ramdas Pophale) SiO2 
 PCOD9412092
Probable space group: P N N A
;
_chemical_formula_sum "Si O2"
_cell_formula_units_Z 60
_cell_length_a 18.000842
_cell_length_b 16.048989
_cell_length_c 8.850388
_cell_angle_alpha 90.000000
_cell_angle_beta 90.000000
_cell_angle_gamma 90.000000
_cell_volume 2556.835631
_symmetry_space_group_name_H-M "P N N A"
_symmetry_group_IT_number 52
_symmetry_cell_setting 'orthorhombic'
loop_
_space_group_symop_operation_xyz
x,y,z
1/2-x,-y,z
x,1/2-y,1/2-z
1/2-x,1/2+y,1/2-z
-x,-y,-z
1/2+x,y,-z
-x,1/2+y,1/2+z
1/2+x,1/2-y,1/2+z
loop_
_atom_site_type_symbol
_atom_site_label
_atom_site_fract_x
_atom_site_fract_y
_atom_site_fract_z
Si Si1 0.791430 0.670888 0.963648
Si Si2 0.050209 0.032594 0.860415
Si Si3 0.905220 0.750000 0.750000
Si Si4 0.799182 0.582057 0.263548
Si Si5 0.456969 0.147092 0.735397
Si Si6 0.828414 0.147648 0.747034
Si Si7 0.680820 0.809989 0.070555
Si Si8 0.034439 0.916930 0.418851
O O1 0.821878 0.612349 0.095230
O O2 0.719649 0.723102 0.023223
O O3 0.854761 0.728753 0.893785
O O4 0.754030 0.630632 0.815810
O O5 0.132123 0.069985 0.877264
O O6 0.009589 0.092957 0.739390
O O7 0.063486 0.947766 0.767820
O O8 0.000000 0.000000 0.000000
O O9 0.961488 0.825225 0.787943
O O10 0.750000 0.500000 0.247444
O O11 0.743553 0.650136 0.326723
O O12 0.396364 0.191707 0.841332
O O13 0.464201 0.151104 0.553030
O O14 0.845610 0.250000 0.750000
O O15 0.882171 0.090455 0.646764
O O16 0.831414 0.131787 0.924860
O O17 0.000000 0.000000 0.500000
#
# Coordination Sequence:
#
# PCOD9412092 Si02
#       8
#     8   8   4   8   8   8   8   8
#     4  11  25  49  73 109 149 192 257 322 379 466
#     4  11  25  46  67 103 148 190 246 306 372 457
#     4  12  26  46  74 112 146 186 252 318 386 446
#     4  12  26  44  74 104 150 196 253 305 384 459
#     4  11  25  42  74 101 146 188 245 301 382 456
#     4  10  22  43  75 102 147 188 259 312 387 455
#     4  11  23  46  73 110 142 202 250 319 381 464
#     4  10  23  43  68 107 144 195 247 310 381 458
#
# _framework density 23.466507
#
# number of rings (size 3 to 8) (size 9 to 14) (size 15 to 20)
#    0.000    1.067    3.333    2.800    9.333    0.000 
#    0.000    0.667    0.000    0.000    0.000    0.000 
#    0.000    0.000    0.000    0.000    0.000    0.000 
#
# Total GULP energy -334355.430560 kJ/mol
# GULP energy per Si atom -5572.590509 kJ/mol
# Density = 2.341310 g / cm^3
# Si number density = 23.466507 Si / 1000 Ang^3
#
#
#
# Elastic Constant Matrix: (Units=GPa)
#
#
# Indices 1 2 3 4 5 6 
#
# 1 140.5877 7.4112 64.5495 0.0000 0.0000 0.0000
# 2 7.4112 21.0367 7.8478 0.0000 0.0000 0.0000
# 3 64.5495 7.8478 153.2886 0.0000 0.0000 0.0000
# 4 0.0000 0.0000 0.0000 26.5092 0.0000 0.0000
# 5 0.0000 0.0000 0.0000 0.0000 36.8702 0.0000
# 6 0.0000 0.0000 0.0000 0.0000 0.0000 -155.6723
#
#
#
# Elastic Compliance Matrix: (Units=1/GPa)
#
#
# Indices 1 2 3 4 5 6 
#
# 1 0.008882 -0.001768 -0.003650 0.000000 0.000000 0.000000
# 2 -0.001768 0.048813 -0.001755 0.000000 0.000000 0.000000
# 3 -0.003650 -0.001755 0.008150 0.000000 0.000000 0.000000
# 4 0.000000 0.000000 0.000000 0.037723 0.000000 0.000000
# 5 0.000000 0.000000 0.000000 0.000000 0.027122 0.000000
# 6 0.000000 0.000000 0.000000 0.000000 0.000000 -0.006424
#
#
# Mechanical properties :
#
#
# Convention : Reuss Voigt Hill
#
# Bulk Modulus (GPa) = 19.41686 52.72554 36.07120
# Shear Modulus (GPa) = 32.09700 -2.78494 14.65603
#
# Velocity S-wave (km/s) = 3.70236 -1.09057 2.50181
# Velocity P-wave (km/s) = 5.15450 4.57508 4.87341
#
# Compressibility (1/GPa) = 0.05150163
#
# Stress axis : x y z
#
# Youngs Moduli (GPa) = 112.58883 20.48622 122.69437
#
# Poissons Ratio (x) = 0.03621 0.44779
# Poissons Ratio (y) = 0.19901 0.21530
# Poissons Ratio (z) = 0.41091 0.03595
#
# Static dielectric constant tensor:
#      x y z
#    x 1.876300 0.000000 0.000000 
#    y 0.000000 1.996830 0.000000 
#    z 0.000000 0.000000 2.027900 
# 
# From -- ./inp_files/12461.got.cif
#   From: 2010.05.17/outbox.cif.g08.bks.cpg/sg52_7_cif.got.tgz:12461.got - 2010.06.03 12:15:38.
