data_PCOD9412880
_publ_section_title
;
Structure prediction by ZEFSAII (Michael W. Deem and Ramdas Pophale) SiO2 
 PCOD9412880
Probable space group: P N N A
;
_chemical_formula_sum "Si O2"
_cell_formula_units_Z 24
_cell_length_a 23.359445
_cell_length_b 5.302438
_cell_length_c 8.176647
_cell_angle_alpha 90.000000
_cell_angle_beta 90.000000
_cell_angle_gamma 90.000000
_cell_volume 1012.775923
_symmetry_space_group_name_H-M "P N N A"
_symmetry_group_IT_number 52
_symmetry_cell_setting 'orthorhombic'
loop_
_space_group_symop_operation_xyz
x,y,z
1/2-x,-y,z
x,1/2-y,1/2-z
1/2-x,1/2+y,1/2-z
-x,-y,-z
1/2+x,y,-z
-x,1/2+y,1/2+z
1/2+x,1/2-y,1/2+z
loop_
_atom_site_type_symbol
_atom_site_label
_atom_site_fract_x
_atom_site_fract_y
_atom_site_fract_z
Si Si1 0.949495 0.842850 0.576895
Si Si2 0.682504 0.750000 0.250000
Si Si3 0.750000 0.000000 0.977791
Si Si4 0.157041 0.250000 0.250000
Si Si5 0.893481 0.750000 0.250000
O O1 0.975113 0.750000 0.750000
O O2 0.887517 0.929270 0.650326
O O3 0.929214 0.689932 0.415831
O O4 0.000000 0.000000 0.500000
O O5 0.723205 0.790489 0.095022
O O6 0.644564 0.499746 0.226118
O O7 0.801792 0.898344 0.869772
#
# Coordination Sequence:
#
# PCOD9412880 Si02
#       5
#     8   4   4   4   4
#     4  10  25  52  77 115 163 222 287 346 423 501
#     4  12  27  49  82 120 167 220 279 336 446 510
#     4  12  26  44  84 118 180 210 286 356 434 528
#     4  10  26  47  73 127 161 228 280 360 434 508
#     4  12  27  54  81 125 164 220 283 356 418 522
#
# _framework density 23.697246
#
# number of rings (size 3 to 8) (size 9 to 14) (size 15 to 20)
#    1.000    0.000    3.333    1.000    7.000    1.333 
#    6.000    0.000    0.000    0.000    0.000    0.000 
#    0.000    0.000    0.000    0.000    0.000    0.000 
#
# Total GULP energy -133787.087732 kJ/mol
# GULP energy per Si atom -5574.461989 kJ/mol
# Density = 2.364331 g / cm^3
# Si number density = 23.697246 Si / 1000 Ang^3
#
#
#
# Elastic Constant Matrix: (Units=GPa)
#
#
# Indices 1 2 3 4 5 6 
#
# 1 191.5471 72.9569 109.0511 0.0000 0.0000 0.0000
# 2 72.9569 105.1206 61.0516 0.0000 0.0000 0.0000
# 3 109.0511 61.0516 245.4909 0.0000 0.0000 0.0000
# 4 0.0000 0.0000 0.0000 34.9046 0.0000 0.0000
# 5 0.0000 0.0000 0.0000 0.0000 -19.3426 0.0000
# 6 0.0000 0.0000 0.0000 0.0000 0.0000 41.4186
#
#
#
# Elastic Compliance Matrix: (Units=1/GPa)
#
#
# Indices 1 2 3 4 5 6 
#
# 1 0.008351 -0.004256 -0.002651 0.000000 0.000000 0.000000
# 2 -0.004256 0.013288 -0.001414 0.000000 0.000000 0.000000
# 3 -0.002651 -0.001414 0.005603 0.000000 0.000000 0.000000
# 4 0.000000 0.000000 0.000000 0.028650 0.000000 0.000000
# 5 0.000000 0.000000 0.000000 0.000000 -0.051699 0.000000
# 6 0.000000 0.000000 0.000000 0.000000 0.000000 0.024144
#
#
# Mechanical properties :
#
#
# Convention : Reuss Voigt Hill
#
# Bulk Modulus (GPa) = 94.34643 114.25310 104.29976
# Shear Modulus (GPa) = 103.06781 31.33606 67.20194
#
# Velocity S-wave (km/s) = 6.60212 3.64036 5.33105
# Velocity P-wave (km/s) = 9.90035 8.12330 9.05552
#
# Compressibility (1/GPa) = 0.01059924
#
# Stress axis : x y z
#
# Youngs Moduli (GPa) = 119.74410 75.25599 178.48111
#
# Poissons Ratio (x) = 0.32030 0.47320
# Poissons Ratio (y) = 0.50965 0.25236
# Poissons Ratio (z) = 0.31747 0.10641
#
# Static dielectric constant tensor:
#      x y z
#    x 1.912650 0.000000 0.000000 
#    y 0.000000 1.975000 0.000000 
#    z 0.000000 0.000000 1.942620 
# 
# From -- ./inp_files/13822.got.cif
#   From: 2010.05.17/outbox.cif.g08.bks.cpg/sg52_7_cif.got.tgz:13822.got - 2010.06.03 12:15:38.
