data_PCOD9412004
_publ_section_title
;
Structure prediction by ZEFSAII (Michael W. Deem and Ramdas Pophale) SiO2 
 PCOD9412004
Probable space group: P N N A
;
_chemical_formula_sum "Si O2"
_cell_formula_units_Z 28
_cell_length_a 15.200054
_cell_length_b 7.550156
_cell_length_c 10.190520
_cell_angle_alpha 90.000000
_cell_angle_beta 90.000000
_cell_angle_gamma 90.000000
_cell_volume 1169.492394
_symmetry_space_group_name_H-M "P N N A"
_symmetry_group_IT_number 52
_symmetry_cell_setting 'orthorhombic'
loop_
_space_group_symop_operation_xyz
x,y,z
1/2-x,-y,z
x,1/2-y,1/2-z
1/2-x,1/2+y,1/2-z
-x,-y,-z
1/2+x,y,-z
-x,1/2+y,1/2+z
1/2+x,1/2-y,1/2+z
loop_
_atom_site_type_symbol
_atom_site_label
_atom_site_fract_x
_atom_site_fract_y
_atom_site_fract_z
Si Si1 0.156168 0.563138 0.455135
Si Si2 0.078333 0.635724 0.876899
Si Si3 0.111589 0.185307 0.474528
Si Si4 0.250000 0.000000 0.302907
O O1 0.250000 0.500000 0.515675
O O2 0.117504 0.745577 0.505186
O O3 0.097740 0.393357 0.492135
O O4 0.175546 0.563667 0.299711
O O5 0.101129 0.750000 0.750000
O O6 0.973246 0.623208 0.892145
O O7 0.114632 0.437995 0.896932
O O8 0.200347 0.143977 0.392592
#
# Coordination Sequence:
#
# PCOD9412004 Si02
#       4
#     8   8   8   4
#     4  10  23  41  67  99 130 180 240 291 346 423
#     4  11  25  43  64 102 145 183 225 294 364 424
#     4  11  23  42  70 100 139 181 234 293 355 418
#     4  10  22  42  72 102 128 180 246 294 338 432
#
# _framework density 23.94201
#
# number of rings (size 3 to 8) (size 9 to 14) (size 15 to 20)
#    0.857    0.571    0.000    5.143    4.000    1.143 
#    7.714    5.714    0.000    0.000    0.000    0.000 
#    0.000    0.000    0.000    0.000    0.000    0.000 
#
# Total GULP energy -156377.238543 kJ/mol
# GULP energy per Si atom -5584.901377 kJ/mol
# Density = 2.388752 g / cm^3
# Si number density = 23.942010 Si / 1000 Ang^3
#
#
#
# Elastic Constant Matrix: (Units=GPa)
#
#
# Indices 1 2 3 4 5 6 
#
# 1 78.5635 17.8652 14.8583 0.0000 0.0000 0.0000
# 2 17.8652 125.2472 11.1391 0.0000 0.0000 0.0000
# 3 14.8583 11.1391 63.1887 0.0000 0.0000 0.0000
# 4 0.0000 0.0000 0.0000 31.6383 0.0000 0.0000
# 5 0.0000 0.0000 0.0000 0.0000 21.9087 0.0000
# 6 0.0000 0.0000 0.0000 0.0000 0.0000 46.2432
#
#
#
# Elastic Compliance Matrix: (Units=1/GPa)
#
#
# Indices 1 2 3 4 5 6 
#
# 1 0.013664 -0.001690 -0.002915 0.000000 0.000000 0.000000
# 2 -0.001690 0.008320 -0.001069 0.000000 0.000000 0.000000
# 3 -0.002915 -0.001069 0.016700 0.000000 0.000000 0.000000
# 4 0.000000 0.000000 0.000000 0.031607 0.000000 0.000000
# 5 0.000000 0.000000 0.000000 0.000000 0.045644 0.000000
# 6 0.000000 0.000000 0.000000 0.000000 0.000000 0.021625
#
#
# Mechanical properties :
#
#
# Convention : Reuss Voigt Hill
#
# Bulk Modulus (GPa) = 36.58249 39.41383 37.99816
# Shear Modulus (GPa) = 31.64146 34.83384 33.23765
#
# Velocity S-wave (km/s) = 3.63931 3.81849 3.72997
# Velocity P-wave (km/s) = 5.74214 5.99492 5.86989
#
# Compressibility (1/GPa) = 0.02733548
#
# Stress axis : x y z
#
# Youngs Moduli (GPa) = 73.18430 120.18728 59.88167
#
# Poissons Ratio (x) = 0.20309 0.17456
# Poissons Ratio (y) = 0.12367 0.06404
# Poissons Ratio (z) = 0.21334 0.12853
#
# Static dielectric constant tensor:
#      x y z
#    x 1.934740 0.000000 0.000000 
#    y 0.000000 1.996580 0.000000 
#    z 0.000000 0.000000 1.933510 
# 
# From -- ./inp_files/11347.got.cif
#   From: 2010.05.17/outbox.cif.g08.bks.cpg/sg52_6_cif.got.tgz:11347.got - 2010.06.03 12:15:38.
