data_PCOD9412291
_publ_section_title
;
Structure prediction by ZEFSAII (Michael W. Deem and Ramdas Pophale) SiO2 
 PCOD9412291
Probable space group: P N N A
;
_chemical_formula_sum "Si O2"
_cell_formula_units_Z 40
_cell_length_a 9.209160
_cell_length_b 19.266269
_cell_length_c 11.050996
_cell_angle_alpha 90.000000
_cell_angle_beta 90.000000
_cell_angle_gamma 90.000000
_cell_volume 1960.735716
_symmetry_space_group_name_H-M "P N N A"
_symmetry_group_IT_number 52
_symmetry_cell_setting 'orthorhombic'
loop_
_space_group_symop_operation_xyz
x,y,z
1/2-x,-y,z
x,1/2-y,1/2-z
1/2-x,1/2+y,1/2-z
-x,-y,-z
1/2+x,y,-z
-x,1/2+y,1/2+z
1/2+x,1/2-y,1/2+z
loop_
_atom_site_type_symbol
_atom_site_label
_atom_site_fract_x
_atom_site_fract_y
_atom_site_fract_z
Si Si1 0.201256 0.294096 0.639454
Si Si2 0.582270 0.724747 0.967219
Si Si3 0.394430 0.954275 0.162227
Si Si4 0.360464 0.679607 0.169996
Si Si5 0.875004 0.945015 0.113055
O O1 0.261690 0.250000 0.750000
O O2 0.312555 0.281620 0.530150
O O3 0.181834 0.374193 0.668305
O O4 0.042787 0.262884 0.608936
O O5 0.699501 0.680052 0.891577
O O6 0.486850 0.684628 0.068308
O O7 0.383767 0.887548 0.246717
O O8 0.930462 0.929441 0.975972
O O9 0.250000 0.000000 0.162816
O O10 0.512351 0.012745 0.193261
O O11 0.367090 0.750000 0.250000
O O12 0.750000 0.000000 0.094383
#
# Coordination Sequence:
#
# PCOD9412291 Si02
#       5
#     8   8   8   8   8
#     4  11  24  39  67  90 127 165 211 260 316 377
#     4  10  24  40  64  97 125 166 221 254 310 387
#     4  10  23  41  65  92 125 165 206 269 329 368
#     4  11  23  42  69  92 134 170 216 263 319 377
#     4  10  24  38  62  97 126 155 213 267 322 383
#
# _framework density 20.400507000000001
#
# number of rings (size 3 to 8) (size 9 to 14) (size 15 to 20)
#    0.000    1.600    0.000    3.600   19.600    0.000 
#    0.000    1.000    0.000    0.000    0.000    0.000 
#    0.000    0.000    0.000    0.000    0.000    0.000 
#
# Total GULP energy -223346.430754 kJ/mol
# GULP energy per Si atom -5583.660769 kJ/mol
# Density = 2.035407 g / cm^3
# Si number density = 20.400507 Si / 1000 Ang^3
#
#
#
# Elastic Constant Matrix: (Units=GPa)
#
#
# Indices 1 2 3 4 5 6 
#
# 1 101.8113 17.1531 27.9061 0.0000 0.0000 0.0000
# 2 17.1531 140.1497 50.6273 0.0000 0.0000 0.0000
# 3 27.9061 50.6273 67.7207 0.0000 0.0000 0.0000
# 4 0.0000 0.0000 0.0000 40.5712 0.0000 0.0000
# 5 0.0000 0.0000 0.0000 0.0000 -165.0994 0.0000
# 6 0.0000 0.0000 0.0000 0.0000 0.0000 18.6058
#
#
#
# Elastic Compliance Matrix: (Units=1/GPa)
#
#
# Indices 1 2 3 4 5 6 
#
# 1 0.011089 0.000402 -0.004870 0.000000 0.000000 0.000000
# 2 0.000402 0.009790 -0.007484 0.000000 0.000000 0.000000
# 3 -0.004870 -0.007484 0.022369 0.000000 0.000000 0.000000
# 4 0.000000 0.000000 0.000000 0.024648 0.000000 0.000000
# 5 0.000000 0.000000 0.000000 0.000000 -0.006057 0.000000
# 6 0.000000 0.000000 0.000000 0.000000 0.000000 0.053747
#
#
# Mechanical properties :
#
#
# Convention : Reuss Voigt Hill
#
# Bulk Modulus (GPa) = 51.69931 55.67275 53.68603
# Shear Modulus (GPa) = 34.26118 -6.91813 13.67152
#
# Velocity S-wave (km/s) = 4.10253 -1.84351 2.59155
# Velocity P-wave (km/s) = 6.91651 4.77680 5.94373
#
# Compressibility (1/GPa) = 0.01934262
#
# Stress axis : x y z
#
# Youngs Moduli (GPa) = 90.17740 102.14888 44.70546
#
# Poissons Ratio (x) = -0.04107 0.21772
# Poissons Ratio (y) = -0.03626 0.33459
# Poissons Ratio (z) = 0.43918 0.76451
#
# Static dielectric constant tensor:
#      x y z
#    x 1.629470 0.000000 0.000000 
#    y 0.000000 1.662700 0.000000 
#    z 0.000000 0.000000 1.771880 
# 
# From -- ./inp_files/16633.got.cif
#   From: 2010.05.17/outbox.cif.g08.bks.cpg/sg52_9_cif.got.tgz:16633.got - 2010.06.03 12:15:38.
