data_PCOD9412617
_publ_section_title
;
Structure prediction by ZEFSAII (Michael W. Deem and Ramdas Pophale) SiO2 
 PCOD9412617
Probable space group: P N N A
;
_chemical_formula_sum "Si O2"
_cell_formula_units_Z 40
_cell_length_a 12.000793
_cell_length_b 16.358035
_cell_length_c 8.684720
_cell_angle_alpha 90.000000
_cell_angle_beta 90.000000
_cell_angle_gamma 90.000000
_cell_volume 1704.892102
_symmetry_space_group_name_H-M "P N N A"
_symmetry_group_IT_number 52
_symmetry_cell_setting 'orthorhombic'
loop_
_space_group_symop_operation_xyz
x,y,z
1/2-x,-y,z
x,1/2-y,1/2-z
1/2-x,1/2+y,1/2-z
-x,-y,-z
1/2+x,y,-z
-x,1/2+y,1/2+z
1/2+x,1/2-y,1/2+z
loop_
_atom_site_type_symbol
_atom_site_label
_atom_site_fract_x
_atom_site_fract_y
_atom_site_fract_z
Si Si1 0.364484 0.852043 0.563757
Si Si2 0.750000 0.500000 0.487412
Si Si3 0.150308 0.397721 0.275136
Si Si4 0.492408 0.302058 0.515093
Si Si5 0.193423 0.750000 0.750000
Si Si6 0.969177 0.958924 0.202063
O O1 0.316558 0.873133 0.395895
O O2 0.456674 0.780409 0.555228
O O3 0.270619 0.821233 0.681342
O O4 0.424211 0.930188 0.634314
O O5 0.755710 0.576858 0.603626
O O6 0.862502 0.503183 0.387879
O O7 0.080342 0.326765 0.353284
O O8 0.065451 0.474914 0.276464
O O9 0.380133 0.283344 0.608393
O O10 0.495884 0.377564 0.394710
#
# Coordination Sequence:
#
# PCOD9412617 Si02
#       6
#     8   4   8   8   4   8
#     4  12  25  45  72 110 143 191 260 298 364 452
#     4  10  24  42  68 104 142 190 232 280 378 436
#     4  11  25  45  70 105 151 185 242 310 363 441
#     4  11  23  47  72 104 147 193 246 305 364 436
#     4  12  26  44  80 100 148 198 246 314 370 422
#     4  11  25  43  75 105 150 195 238 304 373 436
#
# _framework density 23.461895999999999
#
# number of rings (size 3 to 8) (size 9 to 14) (size 15 to 20)
#    0.000    0.800    4.000    3.000    5.600    2.400 
#    0.000    4.000    0.000    0.000    0.000    0.000 
#    0.000    0.000    0.000    0.000    0.000    0.000 
#
# Total GULP energy -223980.331859 kJ/mol
# GULP energy per Si atom -5599.508296 kJ/mol
# Density = 2.340850 g / cm^3
# Si number density = 23.461896 Si / 1000 Ang^3
#
#
#
# Elastic Constant Matrix: (Units=GPa)
#
#
# Indices 1 2 3 4 5 6 
#
# 1 101.8631 31.2086 15.3689 0.0000 0.0000 0.0000
# 2 31.2086 71.4005 34.5403 0.0000 0.0000 0.0000
# 3 15.3689 34.5403 57.7667 0.0000 0.0000 0.0000
# 4 0.0000 0.0000 0.0000 36.5799 0.0000 0.0000
# 5 0.0000 0.0000 0.0000 0.0000 23.3902 0.0000
# 6 0.0000 0.0000 0.0000 0.0000 0.0000 17.3363
#
#
#
# Elastic Compliance Matrix: (Units=1/GPa)
#
#
# Indices 1 2 3 4 5 6 
#
# 1 0.011335 -0.004918 -0.000075 0.000000 0.000000 0.000000
# 2 -0.004918 0.021839 -0.011750 0.000000 0.000000 0.000000
# 3 -0.000075 -0.011750 0.024356 0.000000 0.000000 0.000000
# 4 0.000000 0.000000 0.000000 0.027337 0.000000 0.000000
# 5 0.000000 0.000000 0.000000 0.000000 0.042753 0.000000
# 6 0.000000 0.000000 0.000000 0.000000 0.000000 0.057683
#
#
# Mechanical properties :
#
#
# Convention : Reuss Voigt Hill
#
# Bulk Modulus (GPa) = 41.58885 43.69621 42.64253
# Shear Modulus (GPa) = 22.04536 25.45543 23.75039
#
# Velocity S-wave (km/s) = 3.06865 3.29746 3.18511
# Velocity P-wave (km/s) = 5.50637 5.75868 5.63394
#
# Compressibility (1/GPa) = 0.02404491
#
# Stress axis : x y z
#
# Youngs Moduli (GPa) = 88.22022 45.78905 41.05681
#
# Poissons Ratio (x) = 0.22520 0.00308
# Poissons Ratio (y) = 0.43389 0.48241
# Poissons Ratio (z) = 0.00661 0.53801
#
# Static dielectric constant tensor:
#      x y z
#    x 1.911080 0.000000 0.000000 
#    y 0.000000 1.922330 0.000000 
#    z 0.000000 0.000000 1.843520 
# 
# From -- ./inp_files/8573.got.cif
#   From: 2010.05.17/outbox.cif.g08.bks.cpg/sg52_5_cif.got.tgz:8573.got - 2010.06.03 12:15:38.
