data_PCOD9412381
_publ_section_title
;
Structure prediction by ZEFSAII (Michael W. Deem and Ramdas Pophale) SiO2 
 PCOD9412381
Probable space group: P N N A
;
_chemical_formula_sum "Si O2"
_cell_formula_units_Z 48
_cell_length_a 9.030232
_cell_length_b 13.511956
_cell_length_c 18.282234
_cell_angle_alpha 90.000000
_cell_angle_beta 90.000000
_cell_angle_gamma 90.000000
_cell_volume 2230.726845
_symmetry_space_group_name_H-M "P N N A"
_symmetry_group_IT_number 52
_symmetry_cell_setting 'orthorhombic'
loop_
_space_group_symop_operation_xyz
x,y,z
1/2-x,-y,z
x,1/2-y,1/2-z
1/2-x,1/2+y,1/2-z
-x,-y,-z
1/2+x,y,-z
-x,1/2+y,1/2+z
1/2+x,1/2-y,1/2+z
loop_
_atom_site_type_symbol
_atom_site_label
_atom_site_fract_x
_atom_site_fract_y
_atom_site_fract_z
Si Si1 0.432253 0.287459 0.050600
Si Si2 0.750000 0.500000 0.494650
Si Si3 0.913365 0.028296 0.227285
Si Si4 0.987532 0.750000 0.750000
Si Si5 0.592933 0.307900 0.911387
Si Si6 0.016710 0.588670 0.401925
Si Si7 0.923286 0.513964 0.106625
O O1 0.257735 0.304258 0.057188
O O2 0.486065 0.205838 0.109095
O O3 0.512293 0.390166 0.068295
O O4 0.485709 0.253193 0.969667
O O5 0.628184 0.444131 0.446758
O O6 0.840915 0.427758 0.547271
O O7 0.926532 0.146323 0.237797
O O8 0.750000 0.000000 0.201291
O O9 0.931833 0.976816 0.305668
O O10 0.024104 0.981186 0.168641
O O11 0.906259 0.733122 0.828164
O O12 0.522570 0.417634 0.908912
O O13 0.750000 0.500000 0.087071
#
# Coordination Sequence:
#
# PCOD9412381 Si02
#       7
#     8   4   8   4   8   8   8
#     4  12  25  41  70 105 133 181 229 285 348 410
#     4  10  24  42  60  96 140 168 226 288 342 410
#     4  10  23  43  67  96 134 180 223 286 341 416
#     4  10  26  46  70  98 138 184 230 278 350 404
#     4  11  25  45  70 101 140 183 230 286 342 412
#     4  11  24  41  66  97 133 177 226 284 345 415
#     4  10  23  45  67  99 138 184 231 287 338 407
#
# _framework density 21.51765
#
# number of rings (size 3 to 8) (size 9 to 14) (size 15 to 20)
#    0.000    1.333    0.833    3.000    7.000    7.333 
#    3.000    0.000    0.000    1.000    0.000    0.000 
#    0.000    0.000    0.000    0.000    0.000    0.000 
#
# Total GULP energy -268177.066244 kJ/mol
# GULP energy per Si atom -5587.022213 kJ/mol
# Density = 2.146867 g / cm^3
# Si number density = 21.517650 Si / 1000 Ang^3
#
#
#
# Elastic Constant Matrix: (Units=GPa)
#
#
# Indices 1 2 3 4 5 6 
#
# 1 122.0158 24.8316 48.4632 0.0000 0.0000 0.0000
# 2 24.8316 79.8049 37.0097 0.0000 0.0000 0.0000
# 3 48.4632 37.0097 118.5843 0.0000 0.0000 0.0000
# 4 0.0000 0.0000 0.0000 24.9413 0.0000 0.0000
# 5 0.0000 0.0000 0.0000 0.0000 21.7000 0.0000
# 6 0.0000 0.0000 0.0000 0.0000 0.0000 19.0665
#
#
#
# Elastic Compliance Matrix: (Units=1/GPa)
#
#
# Indices 1 2 3 4 5 6 
#
# 1 0.009918 -0.001410 -0.003613 0.000000 0.000000 0.000000
# 2 -0.001410 0.014852 -0.004059 0.000000 0.000000 0.000000
# 3 -0.003613 -0.004059 0.011176 0.000000 0.000000 0.000000
# 4 0.000000 0.000000 0.000000 0.040094 0.000000 0.000000
# 5 0.000000 0.000000 0.000000 0.000000 0.046083 0.000000
# 6 0.000000 0.000000 0.000000 0.000000 0.000000 0.052448
#
#
# Mechanical properties :
#
#
# Convention : Reuss Voigt Hill
#
# Bulk Modulus (GPa) = 56.23920 60.11267 58.17593
# Shear Modulus (GPa) = 25.16838 27.14825 26.15832
#
# Velocity S-wave (km/s) = 3.42374 3.55586 3.49043
# Velocity P-wave (km/s) = 6.46702 6.69746 6.58325
#
# Compressibility (1/GPa) = 0.01778119
#
# Stress axis : x y z
#
# Youngs Moduli (GPa) = 100.82939 67.33256 89.47654
#
# Poissons Ratio (x) = 0.09497 0.32328
# Poissons Ratio (y) = 0.14221 0.36316
# Poissons Ratio (z) = 0.36430 0.27329
#
# Static dielectric constant tensor:
#      x y z
#    x 1.756350 0.000000 0.000000 
#    y 0.000000 1.855530 0.000000 
#    z 0.000000 0.000000 1.846490 
# 
# From -- ./inp_files/31272.got.cif
#   From: 2010.05.17/outbox.cif.g08.bks.cpg/sg52_16_cif.got.tgz:31272.got - 2010.06.03 12:15:38.
