data_PCOD9412859
_publ_section_title
;
Structure prediction by ZEFSAII (Michael W. Deem and Ramdas Pophale) SiO2 
 PCOD9412859
Probable space group: P N N A
;
_chemical_formula_sum "Si O2"
_cell_formula_units_Z 32
_cell_length_a 9.873139
_cell_length_b 15.171656
_cell_length_c 9.011902
_cell_angle_alpha 90.000000
_cell_angle_beta 90.000000
_cell_angle_gamma 90.000000
_cell_volume 1349.909640
_symmetry_space_group_name_H-M "P N N A"
_symmetry_group_IT_number 52
_symmetry_cell_setting 'orthorhombic'
loop_
_space_group_symop_operation_xyz
x,y,z
1/2-x,-y,z
x,1/2-y,1/2-z
1/2-x,1/2+y,1/2-z
-x,-y,-z
1/2+x,y,-z
-x,1/2+y,1/2+z
1/2+x,1/2-y,1/2+z
loop_
_atom_site_type_symbol
_atom_site_label
_atom_site_fract_x
_atom_site_fract_y
_atom_site_fract_z
Si Si1 0.381116 0.771447 0.919137
Si Si2 0.652436 0.418967 0.011948
Si Si3 0.377258 0.383913 0.528840
Si Si4 0.962603 0.007988 0.754884
O O1 0.420219 0.750000 0.750000
O O2 0.308470 0.682328 0.975019
O O3 0.510636 0.806053 0.010696
O O4 0.268313 0.847421 0.926996
O O5 0.750000 0.500000 0.053249
O O6 0.527611 0.431842 0.125613
O O7 0.616554 0.436614 0.841565
O O8 0.428296 0.454729 0.648551
O O9 0.380181 0.433399 0.370701
#
# Coordination Sequence:
#
# PCOD9412859 Si02
#       4
#     8   8   8   8
#     4  12  27  47  74 112 148 189 247 309 363 427
#     4  11  25  45  72 103 148 191 236 302 368 437
#     4  11  27  48  76 105 146 192 245 303 359 441
#     4  10  25  47  72 106 143 195 242 291 374 437
#
# _framework density 23.705290999999999
#
# number of rings (size 3 to 8) (size 9 to 14) (size 15 to 20)
#    0.000    1.000    2.500    1.500   14.000    2.000 
#    0.000    0.000    0.000    0.000    0.000    0.000 
#    0.000    0.000    0.000    0.000    0.000    0.000 
#
# Total GULP energy -179067.253287 kJ/mol
# GULP energy per Si atom -5595.851665 kJ/mol
# Density = 2.365134 g / cm^3
# Si number density = 23.705291 Si / 1000 Ang^3
#
#
#
# Elastic Constant Matrix: (Units=GPa)
#
#
# Indices 1 2 3 4 5 6 
#
# 1 45.3199 1.3286 -2.2556 0.0000 0.0000 0.0000
# 2 1.3286 110.9870 17.7869 0.0000 0.0000 0.0000
# 3 -2.2556 17.7869 106.4007 0.0000 0.0000 0.0000
# 4 0.0000 0.0000 0.0000 4.7716 0.0000 0.0000
# 5 0.0000 0.0000 0.0000 0.0000 23.3195 0.0000
# 6 0.0000 0.0000 0.0000 0.0000 0.0000 38.2153
#
#
#
# Elastic Compliance Matrix: (Units=1/GPa)
#
#
# Indices 1 2 3 4 5 6 
#
# 1 0.022102 -0.000349 0.000527 0.000000 0.000000 0.000000
# 2 -0.000349 0.009264 -0.001556 0.000000 0.000000 0.000000
# 3 0.000527 -0.001556 0.009670 0.000000 0.000000 0.000000
# 4 0.000000 0.000000 0.000000 0.209571 0.000000 0.000000
# 5 0.000000 0.000000 0.000000 0.000000 0.042882 0.000000
# 6 0.000000 0.000000 0.000000 0.000000 0.000000 0.026168
#
#
# Mechanical properties :
#
#
# Convention : Reuss Voigt Hill
#
# Bulk Modulus (GPa) = 26.12405 32.93638 29.53021
# Shear Modulus (GPa) = 14.91770 29.65115 22.28442
#
# Velocity S-wave (km/s) = 2.51130 3.54054 3.06937
# Velocity P-wave (km/s) = 4.41057 5.53517 5.00456
#
# Compressibility (1/GPa) = 0.03827891
#
# Stress axis : x y z
#
# Youngs Moduli (GPa) = 45.24514 107.94937 103.41561
#
# Poissons Ratio (x) = 0.03768 -0.05449
# Poissons Ratio (y) = 0.01579 0.16091
# Poissons Ratio (z) = -0.02384 0.16797
#
# Static dielectric constant tensor:
#      x y z
#    x 1.946230 0.000000 0.000000 
#    y 0.000000 1.917560 0.000000 
#    z 0.000000 0.000000 1.855380 
# 
# From -- ./inp_files/8203.got.cif
#   From: 2010.05.17/outbox.cif.g08.bks.cpg/sg52_5_cif.got.tgz:8203.got - 2010.06.03 12:15:38.
