data_PCOD9412564
_publ_section_title
;
Structure prediction by ZEFSAII (Michael W. Deem and Ramdas Pophale) SiO2 
 PCOD9412564
Probable space group: P N N A
;
_chemical_formula_sum "Si O2"
_cell_formula_units_Z 32
_cell_length_a 9.290438
_cell_length_b 20.504285
_cell_length_c 7.289515
_cell_angle_alpha 90.000000
_cell_angle_beta 90.000000
_cell_angle_gamma 90.000000
_cell_volume 1388.607329
_symmetry_space_group_name_H-M "P N N A"
_symmetry_group_IT_number 52
_symmetry_cell_setting 'orthorhombic'
loop_
_space_group_symop_operation_xyz
x,y,z
1/2-x,-y,z
x,1/2-y,1/2-z
1/2-x,1/2+y,1/2-z
-x,-y,-z
1/2+x,y,-z
-x,1/2+y,1/2+z
1/2+x,1/2-y,1/2+z
loop_
_atom_site_type_symbol
_atom_site_label
_atom_site_fract_x
_atom_site_fract_y
_atom_site_fract_z
Si Si1 0.867158 0.750000 0.250000
Si Si2 0.386584 0.045491 0.105217
Si Si3 0.895151 0.347250 0.900123
Si Si4 0.114886 0.834832 0.833054
Si Si5 0.350221 0.750000 0.250000
O O1 0.750654 0.788734 0.128110
O O2 0.968432 0.697003 0.155285
O O3 0.366904 0.104427 0.963163
O O4 0.250000 0.000000 0.135040
O O5 0.415902 0.084198 0.294786
O O6 0.500000 0.000000 0.000000
O O7 0.530364 0.293346 0.637189
O O8 0.755761 0.306188 0.830539
O O9 0.114799 0.854520 0.618885
#
# Coordination Sequence:
#
# PCOD9412564 Si02
#       5
#     4   8   8   8   4
#     4  10  24  40  68 108 134 166 230 278 356 412
#     4  12  28  46  66  98 140 188 238 268 322 424
#     4  11  25  42  69 101 136 183 216 290 346 398
#     4  11  25  42  69 101 136 183 216 290 346 398
#     4  10  24  40  68 108 134 166 230 278 356 412
#
# _framework density 23.044671999999998
#
# number of rings (size 3 to 8) (size 9 to 14) (size 15 to 20)
#    0.000    1.000    0.000    4.500   21.000    2.000 
#    0.000    0.000    0.000    0.000    0.000    0.000 
#    0.000    0.000    0.000    0.000    0.000    0.000 
#
# Total GULP energy -179036.068808 kJ/mol
# GULP energy per Si atom -5594.877150 kJ/mol
# Density = 2.299222 g / cm^3
# Si number density = 23.044672 Si / 1000 Ang^3
#
#
#
# Elastic Constant Matrix: (Units=GPa)
#
#
# Indices 1 2 3 4 5 6 
#
# 1 171.0935 51.0833 28.5186 0.0000 0.0000 0.0000
# 2 51.0833 151.9170 39.3064 0.0000 0.0000 0.0000
# 3 28.5186 39.3064 108.3021 0.0000 0.0000 0.0000
# 4 0.0000 0.0000 0.0000 62.4994 0.0000 0.0000
# 5 0.0000 0.0000 0.0000 0.0000 38.4480 0.0000
# 6 0.0000 0.0000 0.0000 0.0000 0.0000 -19.1424
#
#
#
# Elastic Compliance Matrix: (Units=1/GPa)
#
#
# Indices 1 2 3 4 5 6 
#
# 1 0.006599 -0.001953 -0.001029 0.000000 0.000000 0.000000
# 2 -0.001953 0.007843 -0.002332 0.000000 0.000000 0.000000
# 3 -0.001029 -0.002332 0.010351 0.000000 0.000000 0.000000
# 4 0.000000 0.000000 0.000000 0.016000 0.000000 0.000000
# 5 0.000000 0.000000 0.000000 0.000000 0.026009 0.000000
# 6 0.000000 0.000000 0.000000 0.000000 0.000000 -0.052240
#
#
# Mechanical properties :
#
#
# Convention : Reuss Voigt Hill
#
# Bulk Modulus (GPa) = 70.59751 74.34770 72.47260
# Shear Modulus (GPa) = 167.15930 37.18795 102.17363
#
# Velocity S-wave (km/s) = 8.52611 4.02149 6.66584
# Velocity P-wave (km/s) = 11.29724 7.34136 9.52689
#
# Compressibility (1/GPa) = 0.01416481
#
# Stress axis : x y z
#
# Youngs Moduli (GPa) = 151.53040 127.50879 96.61100
#
# Poissons Ratio (x) = 0.24900 0.09941
# Poissons Ratio (y) = 0.29591 0.22531
# Poissons Ratio (z) = 0.15593 0.29736
#
# Static dielectric constant tensor:
#      x y z
#    x 1.856720 0.000000 0.000000 
#    y 0.000000 1.773000 0.000000 
#    z 0.000000 0.000000 2.079150 
# 
# From -- ./inp_files/35676.got.cif
#   From: 2010.05.17/outbox.cif.g08.bks.cpg/sg52_18_cif.got.tgz:35676.got - 2010.06.03 12:15:38.
