data_PCOD9412790
_publ_section_title
;
Structure prediction by ZEFSAII (Michael W. Deem and Ramdas Pophale) SiO2 
 PCOD9412790
Probable space group: P N N A
;
_chemical_formula_sum "Si O2"
_cell_formula_units_Z 64
_cell_length_a 8.660531
_cell_length_b 23.698313
_cell_length_c 14.298799
_cell_angle_alpha 90.000000
_cell_angle_beta 90.000000
_cell_angle_gamma 90.000000
_cell_volume 2934.685140
_symmetry_space_group_name_H-M "P N N A"
_symmetry_group_IT_number 52
_symmetry_cell_setting 'orthorhombic'
loop_
_space_group_symop_operation_xyz
x,y,z
1/2-x,-y,z
x,1/2-y,1/2-z
1/2-x,1/2+y,1/2-z
-x,-y,-z
1/2+x,y,-z
-x,1/2+y,1/2+z
1/2+x,1/2-y,1/2+z
loop_
_atom_site_type_symbol
_atom_site_label
_atom_site_fract_x
_atom_site_fract_y
_atom_site_fract_z
Si Si1 0.044519 0.857264 0.419405
Si Si2 0.404948 0.637868 0.119843
Si Si3 0.435067 0.063723 0.753221
Si Si4 0.425531 0.143911 0.124138
Si Si5 0.135047 0.246034 0.858593
Si Si6 0.847036 0.695215 0.708940
Si Si7 0.416354 0.564873 0.764426
Si Si8 0.095226 0.839518 0.913182
O O1 0.008051 0.864016 0.528396
O O2 0.924623 0.807591 0.389230
O O3 0.005696 0.910955 0.354125
O O4 0.227770 0.847274 0.404736
O O5 0.436210 0.581044 0.177866
O O6 0.455550 0.681704 0.201546
O O7 0.263714 0.067667 0.709946
O O8 0.422565 0.107895 0.840086
O O9 0.456962 0.997567 0.771818
O O10 0.484772 0.207632 0.127317
O O11 0.272401 0.145380 0.187033
O O12 0.548043 0.105778 0.177207
O O13 0.400661 0.132940 0.015432
O O14 0.178032 0.250000 0.750000
O O15 0.267300 0.206483 0.904932
O O16 0.764628 0.750000 0.750000
O O17 0.944657 0.697912 0.614189
#
# Coordination Sequence:
#
# PCOD9412790 Si02
#       8
#     8   8   8   8   8   8   8   8
#     4  12  25  42  68 107 137 191 236 295 360 439
#     4  11  25  44  68 102 146 180 243 290 361 430
#     4  10  24  48  71  98 136 188 242 310 354 424
#     4  12  23  42  67 102 141 185 234 290 358 425
#     4  12  23  42  68  99 143 187 229 288 352 422
#     4  11  24  42  62 100 146 184 228 289 347 428
#     4  11  23  46  73  96 138 185 246 302 360 421
#     4  11  25  41  68 104 139 188 240 284 358 426
#
# _framework density 21.808132000000001
#
# number of rings (size 3 to 8) (size 9 to 14) (size 15 to 20)
#    0.000    0.750    3.750    3.000    5.250    3.500 
#    0.000    0.000    0.000    0.000    0.000    0.000 
#    0.000    0.000    0.000    0.000    0.000    0.000 
#
# Total GULP energy -356663.988531 kJ/mol
# GULP energy per Si atom -5572.874821 kJ/mol
# Density = 2.175850 g / cm^3
# Si number density = 21.808132 Si / 1000 Ang^3
#
#
#
# Elastic Constant Matrix: (Units=GPa)
#
#
# Indices 1 2 3 4 5 6 
#
# 1 69.6650 15.7767 31.3199 0.0000 0.0000 0.0000
# 2 15.7767 87.4675 30.6993 0.0000 0.0000 0.0000
# 3 31.3199 30.6993 148.4770 0.0000 0.0000 0.0000
# 4 0.0000 0.0000 0.0000 8.3653 0.0000 0.0000
# 5 0.0000 0.0000 0.0000 0.0000 30.0777 0.0000
# 6 0.0000 0.0000 0.0000 0.0000 0.0000 24.4406
#
#
#
# Elastic Compliance Matrix: (Units=1/GPa)
#
#
# Indices 1 2 3 4 5 6 
#
# 1 0.016131 -0.001850 -0.003020 0.000000 0.000000 0.000000
# 2 -0.001850 0.012539 -0.002203 0.000000 0.000000 0.000000
# 3 -0.003020 -0.002203 0.007828 0.000000 0.000000 0.000000
# 4 0.000000 0.000000 0.000000 0.119542 0.000000 0.000000
# 5 0.000000 0.000000 0.000000 0.000000 0.033247 0.000000
# 6 0.000000 0.000000 0.000000 0.000000 0.000000 0.040916
#
#
# Mechanical properties :
#
#
# Convention : Reuss Voigt Hill
#
# Bulk Modulus (GPa) = 44.73591 51.24457 47.99024
# Shear Modulus (GPa) = 19.85714 27.76429 23.81072
#
# Velocity S-wave (km/s) = 3.02079 3.57195 3.30787
# Velocity P-wave (km/s) = 5.72056 6.36873 6.05332
#
# Compressibility (1/GPa) = 0.02235341
#
# Stress axis : x y z
#
# Youngs Moduli (GPa) = 61.99191 79.74818 127.75379
#
# Poissons Ratio (x) = 0.14750 0.38586
# Poissons Ratio (y) = 0.11466 0.28138
# Poissons Ratio (z) = 0.18723 0.17565
#
# Static dielectric constant tensor:
#      x y z
#    x 1.873050 0.000000 0.000000 
#    y 0.000000 1.846310 0.000000 
#    z 0.000000 0.000000 1.789770 
# 
# From -- ./inp_files/25119.got.cif
#   From: 2010.05.17/outbox.cif.g08.bks.cpg/sg52_13_cif.got.tgz:25119.got - 2010.06.03 12:15:38.
