data_PCOD9412258
_publ_section_title
;
Structure prediction by ZEFSAII (Michael W. Deem and Ramdas Pophale) SiO2 
 PCOD9412258
Probable space group: P N N A
;
_chemical_formula_sum "Si O2"
_cell_formula_units_Z 48
_cell_length_a 9.850481
_cell_length_b 8.895682
_cell_length_c 27.157427
_cell_angle_alpha 90.000000
_cell_angle_beta 90.000000
_cell_angle_gamma 90.000000
_cell_volume 2379.716972
_symmetry_space_group_name_H-M "P N N A"
_symmetry_group_IT_number 52
_symmetry_cell_setting 'orthorhombic'
loop_
_space_group_symop_operation_xyz
x,y,z
1/2-x,-y,z
x,1/2-y,1/2-z
1/2-x,1/2+y,1/2-z
-x,-y,-z
1/2+x,y,-z
-x,1/2+y,1/2+z
1/2+x,1/2-y,1/2+z
loop_
_atom_site_type_symbol
_atom_site_label
_atom_site_fract_x
_atom_site_fract_y
_atom_site_fract_z
Si Si1 0.889646 0.588530 0.322171
Si Si2 0.099304 0.064337 0.709122
Si Si3 0.371353 0.106933 0.996242
Si Si4 0.098902 0.547882 0.130376
Si Si5 0.904405 0.437340 0.043315
Si Si6 0.130633 0.887203 0.112128
O O1 0.750000 0.500000 0.329778
O O2 0.878025 0.768965 0.314577
O O3 0.937906 0.550352 0.266671
O O4 0.988878 0.547482 0.367393
O O5 0.973888 0.992010 0.679881
O O6 0.250000 0.000000 0.703683
O O7 0.349347 0.147251 0.053993
O O8 0.250000 0.000000 0.978433
O O9 0.393736 0.257140 0.964659
O O10 0.500000 0.000000 0.000000
O O11 0.250000 0.500000 0.116475
O O12 0.125855 0.724993 0.136582
O O13 0.986844 0.497490 0.090423
O O14 0.750000 0.500000 0.042014
O O15 0.000000 0.500000 0.000000
O O16 0.250000 0.000000 0.126348
#
# Coordination Sequence:
#
# PCOD9412258 Si02
#       6
#     8   8   8   8   8   8
#     4   9  19  38  65  90 125 164 200 255 315 370
#     4   9  19  39  62  94 126 157 208 256 305 376
#     4  11  25  42  62  90 125 164 211 261 311 372
#     4  11  24  40  63  91 125 166 210 258 311 373
#     4  12  24  42  67  91 123 168 212 262 317 372
#     4  10  23  40  59  88 126 161 210 256 310 375
#
# _framework density 20.170465
#
# number of rings (size 3 to 8) (size 9 to 14) (size 15 to 20)
#    0.000    1.667    1.667    2.000    4.667    2.667 
#    3.000    0.000    0.000    0.000    0.000    0.000 
#    0.000    0.000    0.000    0.000    0.000    0.000 
#
# Total GULP energy -267221.928072 kJ/mol
# GULP energy per Si atom -5567.123501 kJ/mol
# Density = 2.012456 g / cm^3
# Si number density = 20.170465 Si / 1000 Ang^3
#
#
#
# Elastic Constant Matrix: (Units=GPa)
#
#
# Indices 1 2 3 4 5 6 
#
# 1 118.5634 46.6066 14.0296 0.0000 0.0000 0.0000
# 2 46.6066 85.6347 8.0465 0.0000 0.0000 0.0000
# 3 14.0296 8.0465 37.7198 0.0000 0.0000 0.0000
# 4 0.0000 0.0000 0.0000 7.6752 0.0000 0.0000
# 5 0.0000 0.0000 0.0000 0.0000 61.1938 0.0000
# 6 0.0000 0.0000 0.0000 0.0000 0.0000 29.4123
#
#
#
# Elastic Compliance Matrix: (Units=1/GPa)
#
#
# Indices 1 2 3 4 5 6 
#
# 1 0.011028 -0.005731 -0.002879 0.000000 0.000000 0.000000
# 2 -0.005731 0.014895 -0.001046 0.000000 0.000000 0.000000
# 3 -0.002879 -0.001046 0.027805 0.000000 0.000000 0.000000
# 4 0.000000 0.000000 0.000000 0.130290 0.000000 0.000000
# 5 0.000000 0.000000 0.000000 0.000000 0.016342 0.000000
# 6 0.000000 0.000000 0.000000 0.000000 0.000000 0.033999
#
#
# Mechanical properties :
#
#
# Convention : Reuss Voigt Hill
#
# Bulk Modulus (GPa) = 29.05645 42.14260 35.59952
# Shear Modulus (GPa) = 18.85771 31.20527 25.03149
#
# Velocity S-wave (km/s) = 3.06096 3.93756 3.52660
# Velocity P-wave (km/s) = 5.18935 6.45066 5.85408
#
# Compressibility (1/GPa) = 0.03441577
#
# Stress axis : x y z
#
# Youngs Moduli (GPa) = 90.67833 67.13622 35.96444
#
# Poissons Ratio (x) = 0.38479 0.10355
# Poissons Ratio (y) = 0.51972 0.03761
# Poissons Ratio (z) = 0.26108 0.07020
#
# Static dielectric constant tensor:
#      x y z
#    x 2.097260 0.000000 0.000000 
#    y 0.000000 1.635940 0.000000 
#    z 0.000000 0.000000 1.768130 
# 
# From -- ./inp_files/44375.got.cif
#   From: 2010.05.17/outbox.cif.g08.bks.cpg/sg52_23_cif.got.tgz:44375.got - 2010.06.03 12:15:38.
