data_PCOD9412531
_publ_section_title
;
Structure prediction by ZEFSAII (Michael W. Deem and Ramdas Pophale) SiO2 
 PCOD9412531
Probable space group: P N N A
;
_chemical_formula_sum "Si O2"
_cell_formula_units_Z 32
_cell_length_a 8.524664
_cell_length_b 7.074412
_cell_length_c 23.543484
_cell_angle_alpha 90.000000
_cell_angle_beta 90.000000
_cell_angle_gamma 90.000000
_cell_volume 1419.836543
_symmetry_space_group_name_H-M "P N N A"
_symmetry_group_IT_number 52
_symmetry_cell_setting 'orthorhombic'
loop_
_space_group_symop_operation_xyz
x,y,z
1/2-x,-y,z
x,1/2-y,1/2-z
1/2-x,1/2+y,1/2-z
-x,-y,-z
1/2+x,y,-z
-x,1/2+y,1/2+z
1/2+x,1/2-y,1/2+z
loop_
_atom_site_type_symbol
_atom_site_label
_atom_site_fract_x
_atom_site_fract_y
_atom_site_fract_z
Si Si1 0.606478 0.366051 0.539939
Si Si2 0.250000 0.000000 0.803076
Si Si3 0.250000 0.500000 0.977459
Si Si4 0.919335 0.310100 0.126764
Si Si5 0.939418 0.965532 0.731684
O O1 0.750000 0.500000 0.546577
O O2 0.500000 0.500000 0.500000
O O3 0.662607 0.164731 0.512878
O O4 0.543566 0.338029 0.603454
O O5 0.209807 0.813308 0.840170
O O6 0.088230 0.045777 0.768198
O O7 0.139061 0.606545 0.932691
O O8 0.000413 0.465466 0.166588
O O9 0.950646 0.750000 0.750000
O O10 0.750000 0.000000 0.737027
#
# Coordination Sequence:
#
# PCOD9412531 Si02
#       5
#     8   4   4   8   8
#     4  12  26  46  70 104 150 196 244 307 372 450
#     4  10  23  50  68 100 148 192 245 304 390 448
#     4  12  25  44  72 108 150 192 251 308 370 460
#     4  11  24  42  72 105 141 196 244 302 381 445
#     4  10  24  42  70 104 141 183 244 305 367 454
#
# _framework density 22.537806
#
# number of rings (size 3 to 8) (size 9 to 14) (size 15 to 20)
#    0.000    1.000    2.500    3.000    1.750    9.000 
#    0.000    0.000    0.000    0.000    0.000    0.000 
#    0.000    0.000    0.000    0.000    0.000    0.000 
#
# Total GULP energy -178135.507475 kJ/mol
# GULP energy per Si atom -5566.734609 kJ/mol
# Density = 2.248651 g / cm^3
# Si number density = 22.537806 Si / 1000 Ang^3
#
#
#
# Elastic Constant Matrix: (Units=GPa)
#
#
# Indices 1 2 3 4 5 6 
#
# 1 190.3459 60.2098 73.4244 0.0000 0.0000 0.0000
# 2 60.2098 112.5687 36.1589 0.0000 0.0000 0.0000
# 3 73.4244 36.1589 108.4394 0.0000 0.0000 0.0000
# 4 0.0000 0.0000 0.0000 -51.3948 0.0000 0.0000
# 5 0.0000 0.0000 0.0000 0.0000 32.6142 0.0000
# 6 0.0000 0.0000 0.0000 0.0000 0.0000 38.7092
#
#
#
# Elastic Compliance Matrix: (Units=1/GPa)
#
#
# Indices 1 2 3 4 5 6 
#
# 1 0.007817 -0.002778 -0.004366 0.000000 0.000000 0.000000
# 2 -0.002778 0.010937 -0.001766 0.000000 0.000000 0.000000
# 3 -0.004366 -0.001766 0.012767 0.000000 0.000000 0.000000
# 4 0.000000 0.000000 0.000000 -0.019457 0.000000 0.000000
# 5 0.000000 0.000000 0.000000 0.000000 0.030662 0.000000
# 6 0.000000 0.000000 0.000000 0.000000 0.000000 0.025834
#
#
# Mechanical properties :
#
#
# Convention : Reuss Voigt Hill
#
# Bulk Modulus (GPa) = 72.99366 83.43780 78.21573
# Shear Modulus (GPa) = 54.97817 20.08977 37.53397
#
# Velocity S-wave (km/s) = 4.94436 2.98884 4.08533
# Velocity P-wave (km/s) = 8.06555 7.00089 7.55201
#
# Compressibility (1/GPa) = 0.01369982
#
# Stress axis : x y z
#
# Youngs Moduli (GPa) = 127.93125 91.43543 78.32793
#
# Poissons Ratio (x) = 0.25405 0.34200
# Poissons Ratio (y) = 0.35545 0.13829
# Poissons Ratio (z) = 0.55858 0.16143
#
# Static dielectric constant tensor:
#      x y z
#    x 1.610080 0.000000 0.000000 
#    y 0.000000 1.832710 0.000000 
#    z 0.000000 0.000000 2.588290 
# 
# From -- ./inp_files/35511.got.cif
#   From: 2010.05.17/outbox.cif.g08.bks.cpg/sg52_18_cif.got.tgz:35511.got - 2010.06.03 12:15:38.
