data_PCOD9412817
_publ_section_title
;
Structure prediction by ZEFSAII (Michael W. Deem and Ramdas Pophale) SiO2 
 PCOD9412817
Probable space group: P N N A
;
_chemical_formula_sum "Si O2"
_cell_formula_units_Z 60
_cell_length_a 27.623260
_cell_length_b 16.821027
_cell_length_c 6.078492
_cell_angle_alpha 90.000000
_cell_angle_beta 90.000000
_cell_angle_gamma 90.000000
_cell_volume 2824.381047
_symmetry_space_group_name_H-M "P N N A"
_symmetry_group_IT_number 52
_symmetry_cell_setting 'orthorhombic'
loop_
_space_group_symop_operation_xyz
x,y,z
1/2-x,-y,z
x,1/2-y,1/2-z
1/2-x,1/2+y,1/2-z
-x,-y,-z
1/2+x,y,-z
-x,1/2+y,1/2+z
1/2+x,1/2-y,1/2+z
loop_
_atom_site_type_symbol
_atom_site_label
_atom_site_fract_x
_atom_site_fract_y
_atom_site_fract_z
Si Si1 0.045604 0.281164 0.501587
Si Si2 0.560176 0.815200 0.088233
Si Si3 0.603931 0.431919 0.440905
Si Si4 0.309204 0.825960 0.116536
Si Si5 0.881174 0.411963 0.729207
Si Si6 0.284824 0.337008 0.137785
Si Si7 0.450365 0.465168 0.893106
Si Si8 0.741392 0.750000 0.250000
O O1 0.058497 0.250000 0.250000
O O2 0.061578 0.372401 0.491229
O O3 0.987866 0.275273 0.508909
O O4 0.063549 0.250000 0.750000
O O5 0.581635 0.750000 0.250000
O O6 0.542409 0.896878 0.208521
O O7 0.600133 0.839281 0.915086
O O8 0.651709 0.379698 0.493099
O O9 0.611869 0.508629 0.589083
O O10 0.584541 0.465888 0.207786
O O11 0.330868 0.750000 0.250000
O O12 0.269268 0.863295 0.284449
O O13 0.275751 0.790177 0.927351
O O14 0.826169 0.397349 0.795491
O O15 0.918214 0.421086 0.927357
O O16 0.293353 0.250000 0.250000
O O17 0.287281 0.317681 0.879345
O O18 0.500000 0.500000 0.000000
#
# Coordination Sequence:
#
# PCOD9412817 Si02
#       8
#     8   8   8   8   8   8   8   4
#     4  11  26  43  72 103 135 180 237 299 354 427
#     4  10  25  42  65  97 127 175 231 290 340 427
#     4  11  25  42  64  98 137 181 233 282 361 441
#     4   9  20  41  67  93 131 171 224 286 348 419
#     4  11  25  42  64  96 133 184 225 291 357 430
#     4   9  21  40  65  93 130 169 225 289 344 422
#     4  11  25  42  66  94 141 184 227 292 366 428
#     4   8  18  38  66  98 126 168 218 288 352 404
#
# _framework density 21.243593000000001
#
# number of rings (size 3 to 8) (size 9 to 14) (size 15 to 20)
#    0.000    2.133    0.000    2.000   12.133    9.067 
#    1.200    0.000    0.000    0.000    0.000    0.000 
#    0.000    0.000    0.000    0.000    0.000    0.000 
#
# Total GULP energy -334212.483571 kJ/mol
# GULP energy per Si atom -5570.208060 kJ/mol
# Density = 2.119524 g / cm^3
# Si number density = 21.243593 Si / 1000 Ang^3
#
#
#
# Elastic Constant Matrix: (Units=GPa)
#
#
# Indices 1 2 3 4 5 6 
#
# 1 103.3377 26.2438 47.1089 0.0000 0.0000 0.0000
# 2 26.2438 69.1638 44.9985 0.0000 0.0000 0.0000
# 3 47.1089 44.9985 116.8960 0.0000 0.0000 0.0000
# 4 0.0000 0.0000 0.0000 29.8562 0.0000 0.0000
# 5 0.0000 0.0000 0.0000 0.0000 22.7918 0.0000
# 6 0.0000 0.0000 0.0000 0.0000 0.0000 46.3791
#
#
#
# Elastic Compliance Matrix: (Units=1/GPa)
#
#
# Indices 1 2 3 4 5 6 
#
# 1 0.012036 -0.001883 -0.004126 0.000000 0.000000 0.000000
# 2 -0.001883 0.019584 -0.006780 0.000000 0.000000 0.000000
# 3 -0.004126 -0.006780 0.012827 0.000000 0.000000 0.000000
# 4 0.000000 0.000000 0.000000 0.033494 0.000000 0.000000
# 5 0.000000 0.000000 0.000000 0.000000 0.043875 0.000000
# 6 0.000000 0.000000 0.000000 0.000000 0.000000 0.021561
#
#
# Mechanical properties :
#
#
# Convention : Reuss Voigt Hill
#
# Bulk Modulus (GPa) = 52.99366 58.45553 55.72460
# Shear Modulus (GPa) = 28.53155 31.20854 29.87004
#
# Velocity S-wave (km/s) = 3.66876 3.83702 3.75383
# Velocity P-wave (km/s) = 6.55334 6.87072 6.71391
#
# Compressibility (1/GPa) = 0.01887018
#
# Stress axis : x y z
#
# Youngs Moduli (GPa) = 83.08440 51.06229 77.95947
#
# Poissons Ratio (x) = 0.09614 0.32164
# Poissons Ratio (y) = 0.15643 0.52856
# Poissons Ratio (z) = 0.34278 0.34620
#
# Static dielectric constant tensor:
#      x y z
#    x 1.777690 0.000000 0.000000 
#    y 0.000000 1.749710 0.000000 
#    z 0.000000 0.000000 1.738310 
# 
# From -- ./inp_files/5969.got.cif
#   From: 2010.05.17/outbox.cif.g08.bks.cpg/sg52_3_cif.got.tgz:5969.got - 2010.06.03 12:15:38.
