data_PCOD9412620
_publ_section_title
;
Structure prediction by ZEFSAII (Michael W. Deem and Ramdas Pophale) SiO2 
 PCOD9412620
Probable space group: P N N A
;
_chemical_formula_sum "Si O2"
_cell_formula_units_Z 40
_cell_length_a 8.726636
_cell_length_b 14.995699
_cell_length_c 12.717380
_cell_angle_alpha 90.000000
_cell_angle_beta 90.000000
_cell_angle_gamma 90.000000
_cell_volume 1664.221867
_symmetry_space_group_name_H-M "P N N A"
_symmetry_group_IT_number 52
_symmetry_cell_setting 'orthorhombic'
loop_
_space_group_symop_operation_xyz
x,y,z
1/2-x,-y,z
x,1/2-y,1/2-z
1/2-x,1/2+y,1/2-z
-x,-y,-z
1/2+x,y,-z
-x,1/2+y,1/2+z
1/2+x,1/2-y,1/2+z
loop_
_atom_site_type_symbol
_atom_site_label
_atom_site_fract_x
_atom_site_fract_y
_atom_site_fract_z
Si Si1 0.843437 0.419511 0.549783
Si Si2 0.613862 0.326225 0.711966
Si Si3 0.566736 0.492523 0.276077
Si Si4 0.107915 0.758735 0.559420
Si Si5 0.433898 0.683755 0.851126
O O1 0.750000 0.500000 0.502719
O O2 0.722758 0.376584 0.629392
O O3 0.875917 0.346734 0.462546
O O4 0.986299 0.453691 0.618160
O O5 0.736109 0.250000 0.750000
O O6 0.513348 0.412095 0.749560
O O7 0.515916 0.245571 0.652852
O O8 0.750000 0.500000 0.279317
O O9 0.535320 0.415818 0.189704
O O10 0.263379 0.802833 0.598952
O O11 0.044346 0.795506 0.449723
O O12 0.434367 0.750000 0.750000
#
# Coordination Sequence:
#
# PCOD9412620 Si02
#       5
#     8   8   8   8   8
#     4  10  24  42  69 104 139 189 245 314 373 445
#     4  11  25  45  71 103 145 197 258 314 378 453
#     4  11  24  45  73 106 149 193 247 312 385 450
#     4  12  24  45  73 111 151 199 253 314 389 457
#     4  12  26  46  75 112 157 202 252 319 386 458
#
# _framework density 24.035257000000001
#
# number of rings (size 3 to 8) (size 9 to 14) (size 15 to 20)
#    0.000    0.800    4.000    3.000    2.800    5.600 
#    0.000    4.000    0.000    0.000    0.000    0.000 
#    0.000    0.000    0.000    0.000    0.000    0.000 
#
# Total GULP energy -223326.567128 kJ/mol
# GULP energy per Si atom -5583.164178 kJ/mol
# Density = 2.398055 g / cm^3
# Si number density = 24.035257 Si / 1000 Ang^3
#
#
#
# Elastic Constant Matrix: (Units=GPa)
#
#
# Indices 1 2 3 4 5 6 
#
# 1 79.3302 4.4406 19.5757 0.0000 0.0000 0.0000
# 2 4.4406 153.2092 25.2038 0.0000 0.0000 0.0000
# 3 19.5757 25.2038 84.3159 0.0000 0.0000 0.0000
# 4 0.0000 0.0000 0.0000 45.9269 0.0000 0.0000
# 5 0.0000 0.0000 0.0000 0.0000 32.7334 0.0000
# 6 0.0000 0.0000 0.0000 0.0000 0.0000 59.2638
#
#
#
# Elastic Compliance Matrix: (Units=1/GPa)
#
#
# Indices 1 2 3 4 5 6 
#
# 1 0.013374 0.000130 -0.003144 0.000000 0.000000 0.000000
# 2 0.000130 0.006866 -0.002082 0.000000 0.000000 0.000000
# 3 -0.003144 -0.002082 0.013213 0.000000 0.000000 0.000000
# 4 0.000000 0.000000 0.000000 0.021774 0.000000 0.000000
# 5 0.000000 0.000000 0.000000 0.000000 0.030550 0.000000
# 6 0.000000 0.000000 0.000000 0.000000 0.000000 0.016874
#
#
# Mechanical properties :
#
#
# Convention : Reuss Voigt Hill
#
# Bulk Modulus (GPa) = 42.99395 46.14395 44.56895
# Shear Modulus (GPa) = 41.46071 45.42716 43.44394
#
# Velocity S-wave (km/s) = 4.15781 4.35215 4.25609
# Velocity P-wave (km/s) = 6.40129 6.67047 6.53727
#
# Compressibility (1/GPa) = 0.02325909
#
# Stress axis : x y z
#
# Youngs Moduli (GPa) = 74.77167 145.64863 75.68575
#
# Poissons Ratio (x) = -0.01887 0.23794
# Poissons Ratio (y) = -0.00969 0.15761
# Poissons Ratio (z) = 0.23507 0.30330
#
# Static dielectric constant tensor:
#      x y z
#    x 1.965250 0.000000 0.000000 
#    y 0.000000 1.721620 0.000000 
#    z 0.000000 0.000000 2.048860 
# 
# From -- ./inp_files/16676.got.cif
#   From: 2010.05.17/outbox.cif.g08.bks.cpg/sg52_9_cif.got.tgz:16676.got - 2010.06.03 12:15:38.
