data_PCOD9412012
_publ_section_title
;
Structure prediction by ZEFSAII (Michael W. Deem and Ramdas Pophale) SiO2 
 PCOD9412012
Probable space group: P N N A
;
_chemical_formula_sum "Si O2"
_cell_formula_units_Z 40
_cell_length_a 26.257551
_cell_length_b 13.160607
_cell_length_c 4.858004
_cell_angle_alpha 90.000000
_cell_angle_beta 90.000000
_cell_angle_gamma 90.000000
_cell_volume 1678.757656
_symmetry_space_group_name_H-M "P N N A"
_symmetry_group_IT_number 52
_symmetry_cell_setting 'orthorhombic'
loop_
_space_group_symop_operation_xyz
x,y,z
1/2-x,-y,z
x,1/2-y,1/2-z
1/2-x,1/2+y,1/2-z
-x,-y,-z
1/2+x,y,-z
-x,1/2+y,1/2+z
1/2+x,1/2-y,1/2+z
loop_
_atom_site_type_symbol
_atom_site_label
_atom_site_fract_x
_atom_site_fract_y
_atom_site_fract_z
Si Si1 0.040193 0.850785 0.421527
Si Si2 0.158314 0.650285 0.081771
Si Si3 0.807886 0.029132 0.090159
Si Si4 0.453342 0.924382 0.196509
Si Si5 0.112771 0.133092 0.697514
O O1 0.026821 0.750000 0.250000
O O2 0.099355 0.839617 0.506202
O O3 0.002964 0.869365 0.678252
O O4 0.039457 0.955301 0.244826
O O5 0.173908 0.750000 0.250000
O O6 0.165183 0.562976 0.309668
O O7 0.189396 0.619998 0.812910
O O8 0.750000 0.000000 0.035556
O O9 0.840386 0.938445 0.223897
O O10 0.407477 0.885784 0.391978
O O11 0.434705 0.898913 0.892451
O O12 0.124590 0.250000 0.750000
#
# Coordination Sequence:
#
# PCOD9412012 Si02
#       5
#     8   8   8   8   8
#     4  10  22  42  73 105 139 184 228 283 346 418
#     4  11  24  45  72 106 141 179 229 292 355 414
#     4  12  25  47  71 104 138 182 241 297 349 411
#     4  11  24  44  68 102 141 182 233 283 340 427
#     4  12  25  45  67  97 142 188 233 283 349 415
#
# _framework density 23.827143
#
# number of rings (size 3 to 8) (size 9 to 14) (size 15 to 20)
#    0.000    0.800    4.000    2.400    0.000    6.400 
#    0.000    7.000    0.000    0.000    0.000    0.000 
#    0.000    0.000    0.000    0.000    0.000    0.000 
#
# Total GULP energy -224442.780630 kJ/mol
# GULP energy per Si atom -5611.069516 kJ/mol
# Density = 2.377291 g / cm^3
# Si number density = 23.827143 Si / 1000 Ang^3
#
#
#
# Elastic Constant Matrix: (Units=GPa)
#
#
# Indices 1 2 3 4 5 6 
#
# 1 103.8460 29.8408 5.2344 0.0000 0.0000 0.0000
# 2 29.8408 138.4626 10.7976 0.0000 0.0000 0.0000
# 3 5.2344 10.7976 66.9460 0.0000 0.0000 0.0000
# 4 0.0000 0.0000 0.0000 33.8580 0.0000 0.0000
# 5 0.0000 0.0000 0.0000 0.0000 11.2885 0.0000
# 6 0.0000 0.0000 0.0000 0.0000 0.0000 14.9478
#
#
#
# Elastic Compliance Matrix: (Units=1/GPa)
#
#
# Indices 1 2 3 4 5 6 
#
# 1 0.010279 -0.002180 -0.000452 0.000000 0.000000 0.000000
# 2 -0.002180 0.007777 -0.001084 0.000000 0.000000 0.000000
# 3 -0.000452 -0.001084 0.015148 0.000000 0.000000 0.000000
# 4 0.000000 0.000000 0.000000 0.029535 0.000000 0.000000
# 5 0.000000 0.000000 0.000000 0.000000 0.088586 0.000000
# 6 0.000000 0.000000 0.000000 0.000000 0.000000 0.066899
#
#
# Mechanical properties :
#
#
# Convention : Reuss Voigt Hill
#
# Bulk Modulus (GPa) = 38.80303 44.55557 41.67930
# Shear Modulus (GPa) = 21.34515 29.57765 25.46140
#
# Velocity S-wave (km/s) = 2.99629 3.52709 3.27247
# Velocity P-wave (km/s) = 5.31892 5.94367 5.63996
#
# Compressibility (1/GPa) = 0.02577118
#
# Stress axis : x y z
#
# Youngs Moduli (GPa) = 97.28695 128.59243 66.01719
#
# Poissons Ratio (x) = 0.28033 0.02984
# Poissons Ratio (y) = 0.21209 0.07155
# Poissons Ratio (z) = 0.04398 0.13937
#
# Static dielectric constant tensor:
#      x y z
#    x 1.867560 0.000000 0.000000 
#    y 0.000000 1.934730 0.000000 
#    z 0.000000 0.000000 1.878650 
# 
# From -- ./inp_files/5008.got.cif
#   From: 2010.05.17/outbox.cif.g08.bks.cpg/sg52_3_cif.got.tgz:5008.got - 2010.06.03 12:15:38.
