data_PCOD9412069
_publ_section_title
;
Structure prediction by ZEFSAII (Michael W. Deem and Ramdas Pophale) SiO2 
 PCOD9412069
Probable space group: P N N A
;
_chemical_formula_sum "Si O2"
_cell_formula_units_Z 32
_cell_length_a 14.610649
_cell_length_b 16.835112
_cell_length_c 5.716917
_cell_angle_alpha 90.000000
_cell_angle_beta 90.000000
_cell_angle_gamma 90.000000
_cell_volume 1406.201007
_symmetry_space_group_name_H-M "P N N A"
_symmetry_group_IT_number 52
_symmetry_cell_setting 'orthorhombic'
loop_
_space_group_symop_operation_xyz
x,y,z
1/2-x,-y,z
x,1/2-y,1/2-z
1/2-x,1/2+y,1/2-z
-x,-y,-z
1/2+x,y,-z
-x,1/2+y,1/2+z
1/2+x,1/2-y,1/2+z
loop_
_atom_site_type_symbol
_atom_site_label
_atom_site_fract_x
_atom_site_fract_y
_atom_site_fract_z
Si Si1 0.398672 0.083865 0.173407
Si Si2 0.140082 0.275370 0.503124
Si Si3 0.102493 0.053724 0.813251
Si Si4 0.250000 0.000000 0.473522
Si Si5 0.035351 0.750000 0.250000
O O1 0.498943 0.062132 0.276022
O O2 0.314284 0.056257 0.324163
O O3 0.404109 0.177940 0.160967
O O4 0.392180 0.031264 0.940594
O O5 0.176143 0.250000 0.250000
O O6 0.121467 0.370369 0.519105
O O7 0.039705 0.233682 0.543913
O O8 0.188738 0.250000 0.750000
O O9 0.181150 0.053091 0.623615
#
# Coordination Sequence:
#
# PCOD9412069 Si02
#       5
#     8   8   8   4   4
#     4  10  22  43  71  94 142 183 239 291 359 427
#     4   9  20  39  68 104 134 177 235 286 351 423
#     4  10  23  42  67 101 135 192 233 295 358 428
#     4  12  24  40  66 104 140 180 238 296 356 426
#     4   8  20  40  68 102 124 186 226 294 350 428
#
# _framework density 22.756347000000002
#
# number of rings (size 3 to 8) (size 9 to 14) (size 15 to 20)
#    0.750    1.500    0.000    1.500    3.500    6.000 
#    0.000    5.000    0.000    0.000    0.000    0.000 
#    0.000    0.000    0.000    0.000    0.000    0.000 
#
# Total GULP energy -178462.325696 kJ/mol
# GULP energy per Si atom -5576.947678 kJ/mol
# Density = 2.270455 g / cm^3
# Si number density = 22.756347 Si / 1000 Ang^3
#
#
#
# Elastic Constant Matrix: (Units=GPa)
#
#
# Indices 1 2 3 4 5 6 
#
# 1 113.9243 -5.8193 37.2844 0.0000 0.0000 0.0000
# 2 -5.8193 83.9399 17.5556 0.0000 0.0000 0.0000
# 3 37.2844 17.5556 75.7691 0.0000 0.0000 0.0000
# 4 0.0000 0.0000 0.0000 20.4915 0.0000 0.0000
# 5 0.0000 0.0000 0.0000 0.0000 38.6566 0.0000
# 6 0.0000 0.0000 0.0000 0.0000 0.0000 -57.2487
#
#
#
# Elastic Compliance Matrix: (Units=1/GPa)
#
#
# Indices 1 2 3 4 5 6 
#
# 1 0.010757 0.001947 -0.005745 0.000000 0.000000 0.000000
# 2 0.001947 0.012872 -0.003941 0.000000 0.000000 0.000000
# 3 -0.005745 -0.003941 0.016938 0.000000 0.000000 0.000000
# 4 0.000000 0.000000 0.000000 0.048801 0.000000 0.000000
# 5 0.000000 0.000000 0.000000 0.000000 0.025869 0.000000
# 6 0.000000 0.000000 0.000000 0.000000 0.000000 -0.017468
#
#
# Mechanical properties :
#
#
# Convention : Reuss Voigt Hill
#
# Bulk Modulus (GPa) = 39.85429 41.29718 40.57573
# Shear Modulus (GPa) = 41.11522 15.35404 28.23463
#
# Velocity S-wave (km/s) = 4.25521 2.60034 3.52623
# Velocity P-wave (km/s) = 6.45708 5.21562 5.86927
#
# Compressibility (1/GPa) = 0.02509140
#
# Stress axis : x y z
#
# Youngs Moduli (GPa) = 92.96028 77.68519 59.03935
#
# Poissons Ratio (x) = -0.15127 0.33916
# Poissons Ratio (y) = -0.18101 0.23266
# Poissons Ratio (z) = 0.53402 0.30614
#
# Static dielectric constant tensor:
#      x y z
#    x 1.815320 0.000000 0.000000 
#    y 0.000000 1.867680 0.000000 
#    z 0.000000 0.000000 1.909650 
# 
# From -- ./inp_files/2022.got.cif
#   From: 2010.05.17/outbox.cif.g08.bks.cpg/sg52_2_cif.got.tgz:2022.got - 2010.06.03 12:15:38.
