data_PCOD9412438
_publ_section_title
;
Structure prediction by ZEFSAII (Michael W. Deem and Ramdas Pophale) SiO2 
 PCOD9412438
Probable space group: P N N A
;
_chemical_formula_sum "Si O2"
_cell_formula_units_Z 48
_cell_length_a 9.818855
_cell_length_b 27.175578
_cell_length_c 9.850325
_cell_angle_alpha 90.000000
_cell_angle_beta 90.000000
_cell_angle_gamma 90.000000
_cell_volume 2628.392361
_symmetry_space_group_name_H-M "P N N A"
_symmetry_group_IT_number 52
_symmetry_cell_setting 'orthorhombic'
loop_
_space_group_symop_operation_xyz
x,y,z
1/2-x,-y,z
x,1/2-y,1/2-z
1/2-x,1/2+y,1/2-z
-x,-y,-z
1/2+x,y,-z
-x,1/2+y,1/2+z
1/2+x,1/2-y,1/2+z
loop_
_atom_site_type_symbol
_atom_site_label
_atom_site_fract_x
_atom_site_fract_y
_atom_site_fract_z
Si Si1 0.624467 0.962521 0.005611
Si Si2 0.700139 0.793288 0.361221
Si Si3 0.532743 0.897326 0.762345
Si Si4 0.973617 0.208211 0.639351
Si Si5 0.869880 0.033699 0.526622
Si Si6 0.211273 0.595629 0.763698
O O1 0.609342 0.921933 0.888062
O O2 0.750000 0.000000 0.993729
O O3 0.631072 0.931311 0.143810
O O4 0.500000 0.000000 0.000000
O O5 0.672712 0.750000 0.250000
O O6 0.612570 0.787710 0.499820
O O7 0.672488 0.847851 0.298436
O O8 0.863255 0.791671 0.392229
O O9 0.558732 0.841298 0.722778
O O10 0.581686 0.926526 0.631923
O O11 0.370217 0.904128 0.778026
O O12 0.945717 0.250000 0.750000
O O13 0.812309 0.061551 0.394939
O O14 0.750000 0.000000 0.584078
O O15 0.000000 0.000000 0.500000
#
# Coordination Sequence:
#
# PCOD9412438 Si02
#       6
#     8   8   8   8   8   8
#     4  12  24  43  62  90 130 174 212 255 309 368
#     4  10  23  44  69  95 126 163 205 263 320 374
#     4  11  23  42  63  93 125 164 211 258 310 374
#     4  10  23  44  68  95 127 160 208 262 318 379
#     4  12  22  37  64  90 122 164 204 255 311 363
#     4  11  23  43  62  92 130 162 206 263 312 367
#
# _framework density 18.262114
#
# number of rings (size 3 to 8) (size 9 to 14) (size 15 to 20)
#    0.000    1.000    5.000    2.000    2.333    0.667 
#    3.000    0.000    0.000    0.000    0.000    0.000 
#    0.000    0.000    0.000    0.000    0.000    0.000 
#
# Total GULP energy -267931.054793 kJ/mol
# GULP energy per Si atom -5581.896975 kJ/mol
# Density = 1.822055 g / cm^3
# Si number density = 18.262114 Si / 1000 Ang^3
#
#
#
# Elastic Constant Matrix: (Units=GPa)
#
#
# Indices 1 2 3 4 5 6 
#
# 1 80.3883 51.8943 25.8206 0.0000 0.0000 0.0000
# 2 51.8943 167.8150 64.1879 0.0000 0.0000 0.0000
# 3 25.8206 64.1879 114.1722 0.0000 0.0000 0.0000
# 4 0.0000 0.0000 0.0000 37.4148 0.0000 0.0000
# 5 0.0000 0.0000 0.0000 0.0000 28.8837 0.0000
# 6 0.0000 0.0000 0.0000 0.0000 0.0000 25.4835
#
#
#
# Elastic Compliance Matrix: (Units=1/GPa)
#
#
# Indices 1 2 3 4 5 6 
#
# 1 0.015639 -0.004438 -0.001042 0.000000 0.000000 0.000000
# 2 -0.004438 0.008851 -0.003972 0.000000 0.000000 0.000000
# 3 -0.001042 -0.003972 0.011228 0.000000 0.000000 0.000000
# 4 0.000000 0.000000 0.000000 0.026727 0.000000 0.000000
# 5 0.000000 0.000000 0.000000 0.000000 0.034622 0.000000
# 6 0.000000 0.000000 0.000000 0.000000 0.000000 0.039241
#
#
# Mechanical properties :
#
#
# Convention : Reuss Voigt Hill
#
# Bulk Modulus (GPa) = 59.47618 71.79790 65.63704
# Shear Modulus (GPa) = 31.09159 33.05458 32.07308
#
# Velocity S-wave (km/s) = 4.13064 4.25903 4.19533
# Velocity P-wave (km/s) = 7.44233 7.97411 7.71280
#
# Compressibility (1/GPa) = 0.01681345
#
# Stress axis : x y z
#
# Youngs Moduli (GPa) = 63.94286 112.98759 89.06664
#
# Poissons Ratio (x) = 0.50139 0.09281
# Poissons Ratio (y) = 0.28375 0.35379
# Poissons Ratio (z) = 0.06663 0.44881
#
# Static dielectric constant tensor:
#      x y z
#    x 1.613190 0.000000 0.000000 
#    y 0.000000 1.578480 0.000000 
#    z 0.000000 0.000000 1.624470 
# 
# From -- ./inp_files/7695.got.cif
#   From: 2010.05.17/outbox.cif.g08.bks.cpg/sg52_4_cif.got.tgz:7695.got - 2010.06.03 12:15:38.
