data_PCOD9412747
_publ_section_title
;
Structure prediction by ZEFSAII (Michael W. Deem and Ramdas Pophale) SiO2 
 PCOD9412747
Probable space group: P N N A
;
_chemical_formula_sum "Si O2"
_cell_formula_units_Z 36
_cell_length_a 24.034364
_cell_length_b 11.570087
_cell_length_c 5.613046
_cell_angle_alpha 90.000000
_cell_angle_beta 90.000000
_cell_angle_gamma 90.000000
_cell_volume 1560.874049
_symmetry_space_group_name_H-M "P N N A"
_symmetry_group_IT_number 52
_symmetry_cell_setting 'orthorhombic'
loop_
_space_group_symop_operation_xyz
x,y,z
1/2-x,-y,z
x,1/2-y,1/2-z
1/2-x,1/2+y,1/2-z
-x,-y,-z
1/2+x,y,-z
-x,1/2+y,1/2+z
1/2+x,1/2-y,1/2+z
loop_
_atom_site_type_symbol
_atom_site_label
_atom_site_fract_x
_atom_site_fract_y
_atom_site_fract_z
Si Si1 0.437717 0.541842 0.028548
Si Si2 0.255437 0.874898 0.359018
Si Si3 0.888405 0.750000 0.250000
Si Si4 0.643874 0.068545 0.890514
Si Si5 0.155490 0.884146 0.723640
O O1 0.419223 0.559040 0.301689
O O2 0.500000 0.500000 0.000000
O O3 0.427076 0.662726 0.896978
O O4 0.393054 0.448686 0.924116
O O5 0.240321 0.750000 0.250000
O O6 0.322381 0.883593 0.340536
O O7 0.215279 0.889781 0.586255
O O8 0.250000 0.000000 0.225578
O O9 0.850406 0.666503 0.410577
O O10 0.657501 0.948746 0.023023
O O11 0.142356 0.750000 0.750000
#
# Coordination Sequence:
#
# PCOD9412747 Si02
#       5
#     8   8   4   8   8
#     4  11  25  47  76 105 143 194 247 306 367 443
#     4  12  25  46  71 105 147 197 246 311 374 452
#     4  10  24  46  74 108 140 196 246 302 374 436
#     4  11  25  49  71 104 152 189 252 300 371 457
#     4  11  27  46  68 108 146 193 241 310 382 432
#
# _framework density 23.064001000000001
#
# number of rings (size 3 to 8) (size 9 to 14) (size 15 to 20)
#    0.000    0.889    2.222    3.333    3.111    9.778 
#    2.000    0.000    0.000    0.000    0.000    0.000 
#    0.000    0.000    0.000    0.000    0.000    0.000 
#
# Total GULP energy -200692.796435 kJ/mol
# GULP energy per Si atom -5574.799901 kJ/mol
# Density = 2.301151 g / cm^3
# Si number density = 23.064001 Si / 1000 Ang^3
#
#
#
# Elastic Constant Matrix: (Units=GPa)
#
#
# Indices 1 2 3 4 5 6 
#
# 1 117.1277 39.1741 46.7990 0.0000 0.0000 0.0000
# 2 39.1741 231.7538 50.1988 0.0000 0.0000 0.0000
# 3 46.7990 50.1988 83.6806 0.0000 0.0000 0.0000
# 4 0.0000 0.0000 0.0000 49.6157 0.0000 0.0000
# 5 0.0000 0.0000 0.0000 0.0000 23.7938 0.0000
# 6 0.0000 0.0000 0.0000 0.0000 0.0000 32.4533
#
#
#
# Elastic Compliance Matrix: (Units=1/GPa)
#
#
# Indices 1 2 3 4 5 6 
#
# 1 0.011069 -0.000609 -0.005825 0.000000 0.000000 0.000000
# 2 -0.000609 0.004993 -0.002654 0.000000 0.000000 0.000000
# 3 -0.005825 -0.002654 0.016800 0.000000 0.000000 0.000000
# 4 0.000000 0.000000 0.000000 0.020155 0.000000 0.000000
# 5 0.000000 0.000000 0.000000 0.000000 0.042028 0.000000
# 6 0.000000 0.000000 0.000000 0.000000 0.000000 0.030813
#
#
# Mechanical properties :
#
#
# Convention : Reuss Voigt Hill
#
# Bulk Modulus (GPa) = 68.09777 78.32288 73.21032
# Shear Modulus (GPa) = 33.57285 40.93191 37.25238
#
# Velocity S-wave (km/s) = 3.81942 4.21730 4.02328
# Velocity P-wave (km/s) = 7.00288 7.59913 7.30709
#
# Compressibility (1/GPa) = 0.01468477
#
# Stress axis : x y z
#
# Youngs Moduli (GPa) = 90.34390 200.28570 59.52353
#
# Poissons Ratio (x) = 0.12204 0.34671
# Poissons Ratio (y) = 0.05505 0.15800
# Poissons Ratio (z) = 0.52623 0.53163
#
# Static dielectric constant tensor:
#      x y z
#    x 2.040330 0.000000 0.000000 
#    y 0.000000 1.929930 0.000000 
#    z 0.000000 0.000000 1.952450 
# 
# From -- ./inp_files/4869.got.cif
#   From: 2010.05.17/outbox.cif.g08.bks.cpg/sg52_3_cif.got.tgz:4869.got - 2010.06.03 12:15:38.
