data_PCOD9412943
_publ_section_title
;
Structure prediction by ZEFSAII (Michael W. Deem and Ramdas Pophale) SiO2 
 PCOD9412943
Probable space group: P N N A
;
_chemical_formula_sum "Si O2"
_cell_formula_units_Z 28
_cell_length_a 25.275693
_cell_length_b 7.630472
_cell_length_c 5.768255
_cell_angle_alpha 90.000000
_cell_angle_beta 90.000000
_cell_angle_gamma 90.000000
_cell_volume 1112.497198
_symmetry_space_group_name_H-M "P N N A"
_symmetry_group_IT_number 52
_symmetry_cell_setting 'orthorhombic'
loop_
_space_group_symop_operation_xyz
x,y,z
1/2-x,-y,z
x,1/2-y,1/2-z
1/2-x,1/2+y,1/2-z
-x,-y,-z
1/2+x,y,-z
-x,1/2+y,1/2+z
1/2+x,1/2-y,1/2+z
loop_
_atom_site_type_symbol
_atom_site_label
_atom_site_fract_x
_atom_site_fract_y
_atom_site_fract_z
Si Si1 0.648276 0.473395 0.063835
Si Si2 0.250000 0.000000 0.883020
Si Si3 0.000000 0.000000 0.000000
Si Si4 0.932507 0.250000 0.250000
Si Si5 0.797066 0.250000 0.750000
Si Si6 0.082624 0.250000 0.250000
O O1 0.698839 0.461522 0.228293
O O2 0.603124 0.584637 0.190351
O O3 0.668078 0.592995 0.850173
O O4 0.620499 0.302487 0.963379
O O5 0.237370 0.834361 0.046214
O O6 0.952797 0.914854 0.830382
O O7 0.032226 0.815475 0.963040
#
# Coordination Sequence:
#
# PCOD9412943 Si02
#       6
#     8   4   4   4   4   4
#     4  12  27  51  80 121 163 213 272 336 405 499
#     4  12  28  52  78 116 168 214 274 338 398 502
#     4  10  26  52  80 116 160 212 272 344 404 486
#     4  11  24  52  77 112 158 209 268 335 406 476
#     4  12  26  51  75 112 164 219 268 327 406 482
#     4  11  28  49  86 118 162 218 274 336 422 472
#
# _framework density 25.168602
#
# number of rings (size 3 to 8) (size 9 to 14) (size 15 to 20)
#    0.000    0.571    2.857    2.571    0.000   14.857 
#    5.143    0.000    0.000    0.000    0.000    0.000 
#    0.000    0.000    0.000    0.000    0.000    0.000 
#
# Total GULP energy -155985.213628 kJ/mol
# GULP energy per Si atom -5570.900487 kJ/mol
# Density = 2.511132 g / cm^3
# Si number density = 25.168602 Si / 1000 Ang^3
#
#
#
# Elastic Constant Matrix: (Units=GPa)
#
#
# Indices 1 2 3 4 5 6 
#
# 1 93.2107 14.8776 35.2298 0.0000 0.0000 0.0000
# 2 14.8776 95.2128 27.6538 0.0000 0.0000 0.0000
# 3 35.2298 27.6538 86.3448 0.0000 0.0000 0.0000
# 4 0.0000 0.0000 0.0000 73.9106 0.0000 0.0000
# 5 0.0000 0.0000 0.0000 0.0000 195.6869 0.0000
# 6 0.0000 0.0000 0.0000 0.0000 0.0000 -362.6726
#
#
#
# Elastic Compliance Matrix: (Units=1/GPa)
#
#
# Indices 1 2 3 4 5 6 
#
# 1 0.012709 -0.000529 -0.005016 0.000000 0.000000 0.000000
# 2 -0.000529 0.011602 -0.003500 0.000000 0.000000 0.000000
# 3 -0.005016 -0.003500 0.014749 0.000000 0.000000 0.000000
# 4 0.000000 0.000000 0.000000 0.013530 0.000000 0.000000
# 5 0.000000 0.000000 0.000000 0.000000 0.005110 0.000000
# 6 0.000000 0.000000 0.000000 0.000000 0.000000 -0.002757
#
#
# Mechanical properties :
#
#
# Convention : Reuss Voigt Hill
#
# Bulk Modulus (GPa) = 47.68730 47.81006 47.74868
# Shear Modulus (GPa) = 62.48295 -5.48121 28.50087
#
# Velocity S-wave (km/s) = 4.98795 -1.47734 3.36876
# Velocity P-wave (km/s) = 7.22227 4.01586 5.84330
#
# Compressibility (1/GPa) = 0.02096994
#
# Stress axis : x y z
#
# Youngs Moduli (GPa) = 78.68691 86.19221 67.80145
#
# Poissons Ratio (x) = 0.04559 0.34008
# Poissons Ratio (y) = 0.04162 0.23730
# Poissons Ratio (z) = 0.39468 0.30167
#
# Static dielectric constant tensor:
#      x y z
#    x 2.030920 0.000000 0.000000 
#    y 0.000000 1.943770 0.000000 
#    z 0.000000 0.000000 2.020080 
# 
# From -- ./inp_files/5535.got.cif
#   From: 2010.05.17/outbox.cif.g08.bks.cpg/sg52_3_cif.got.tgz:5535.got - 2010.06.03 12:15:38.
