data_PCOD9412705
_publ_section_title
;
Structure prediction by ZEFSAII (Michael W. Deem and Ramdas Pophale) SiO2 
 PCOD9412705
Probable space group: P N N A
;
_chemical_formula_sum "Si O2"
_cell_formula_units_Z 32
_cell_length_a 14.300980
_cell_length_b 9.376949
_cell_length_c 9.797291
_cell_angle_alpha 90.000000
_cell_angle_beta 90.000000
_cell_angle_gamma 90.000000
_cell_volume 1313.812413
_symmetry_space_group_name_H-M "P N N A"
_symmetry_group_IT_number 52
_symmetry_cell_setting 'orthorhombic'
loop_
_space_group_symop_operation_xyz
x,y,z
1/2-x,-y,z
x,1/2-y,1/2-z
1/2-x,1/2+y,1/2-z
-x,-y,-z
1/2+x,y,-z
-x,1/2+y,1/2+z
1/2+x,1/2-y,1/2+z
loop_
_atom_site_type_symbol
_atom_site_label
_atom_site_fract_x
_atom_site_fract_y
_atom_site_fract_z
Si Si1 0.821275 0.298239 0.389017
Si Si2 0.185490 0.250610 0.396024
Si Si3 0.093230 0.953714 0.424017
Si Si4 0.510705 0.053217 0.848100
O O1 0.770978 0.250000 0.250000
O O2 0.738469 0.342588 0.490961
O O3 0.905279 0.391641 0.323235
O O4 0.868472 0.181598 0.492262
O O5 0.237780 0.250000 0.250000
O O6 0.164391 0.087435 0.435063
O O7 0.085634 0.321213 0.366618
O O8 0.057432 0.950052 0.265457
O O9 0.000000 0.000000 0.500000
O O10 0.500000 0.000000 0.000000
#
# Coordination Sequence:
#
# PCOD9412705 Si02
#       4
#     8   8   8   8
#     4  12  24  44  70 100 133 179 230 282 340 411
#     4  10  24  45  67  98 134 176 229 280 346 415
#     4  11  21  45  72  91 131 181 225 280 348 400
#     4  11  25  43  67 100 138 178 225 281 344 420
#
# _framework density 24.356598000000002
#
# number of rings (size 3 to 8) (size 9 to 14) (size 15 to 20)
#    0.000    1.000    5.000    1.500    3.500    3.000 
#    4.500    0.000    0.000    0.000    0.000    0.000 
#    0.000    0.000    0.000    0.000    0.000    0.000 
#
# Total GULP energy -178418.002960 kJ/mol
# GULP energy per Si atom -5575.562593 kJ/mol
# Density = 2.430116 g / cm^3
# Si number density = 24.356598 Si / 1000 Ang^3
#
#
#
# Elastic Constant Matrix: (Units=GPa)
#
#
# Indices 1 2 3 4 5 6 
#
# 1 98.9250 9.7599 33.7234 0.0000 0.0000 0.0000
# 2 9.7599 49.0640 29.8777 0.0000 0.0000 0.0000
# 3 33.7234 29.8777 182.0130 0.0000 0.0000 0.0000
# 4 0.0000 0.0000 0.0000 38.7041 0.0000 0.0000
# 5 0.0000 0.0000 0.0000 0.0000 37.7188 0.0000
# 6 0.0000 0.0000 0.0000 0.0000 0.0000 -7.2401
#
#
#
# Elastic Compliance Matrix: (Units=1/GPa)
#
#
# Indices 1 2 3 4 5 6 
#
# 1 0.010837 -0.001037 -0.001838 0.000000 0.000000 0.000000
# 2 -0.001037 0.022744 -0.003541 0.000000 0.000000 0.000000
# 3 -0.001838 -0.003541 0.006416 0.000000 0.000000 0.000000
# 4 0.000000 0.000000 0.000000 0.025837 0.000000 0.000000
# 5 0.000000 0.000000 0.000000 0.000000 0.026512 0.000000
# 6 0.000000 0.000000 0.000000 0.000000 0.000000 -0.138120
#
#
# Mechanical properties :
#
#
# Convention : Reuss Voigt Hill
#
# Bulk Modulus (GPa) = 36.81087 52.96936 44.89011
# Shear Modulus (GPa) = -209.33006 30.94595 -89.19205
#
# Velocity S-wave (km/s) = -9.28065 3.56833 -6.05795
# Velocity P-wave (km/s) = 9.98471 6.22671 5.51917
#
# Compressibility (1/GPa) = 0.02716589
#
# Stress axis : x y z
#
# Youngs Moduli (GPa) = 92.27260 43.96703 155.86148
#
# Poissons Ratio (x) = 0.04558 0.28644
# Poissons Ratio (y) = 0.09566 0.55197
# Poissons Ratio (z) = 0.16958 0.15571
#
# Static dielectric constant tensor:
#      x y z
#    x 2.082890 0.000000 0.000000 
#    y 0.000000 2.345420 0.000000 
#    z 0.000000 0.000000 1.715160 
# 
# From -- ./inp_files/9513.got.cif
#   From: 2010.05.17/outbox.cif.g08.bks.cpg/sg52_5_cif.got.tgz:9513.got - 2010.06.03 12:15:38.
