data_PCOD9412363
_publ_section_title
;
Structure prediction by ZEFSAII (Michael W. Deem and Ramdas Pophale) SiO2 
 PCOD9412363
Probable space group: P N N A
;
_chemical_formula_sum "Si O2"
_cell_formula_units_Z 32
_cell_length_a 11.617907
_cell_length_b 7.799432
_cell_length_c 16.140917
_cell_angle_alpha 90.000000
_cell_angle_beta 90.000000
_cell_angle_gamma 90.000000
_cell_volume 1462.578133
_symmetry_space_group_name_H-M "P N N A"
_symmetry_group_IT_number 52
_symmetry_cell_setting 'orthorhombic'
loop_
_space_group_symop_operation_xyz
x,y,z
1/2-x,-y,z
x,1/2-y,1/2-z
1/2-x,1/2+y,1/2-z
-x,-y,-z
1/2+x,y,-z
-x,1/2+y,1/2+z
1/2+x,1/2-y,1/2+z
loop_
_atom_site_type_symbol
_atom_site_label
_atom_site_fract_x
_atom_site_fract_y
_atom_site_fract_z
Si Si1 0.625413 0.027728 0.956870
Si Si2 0.875662 0.039009 0.404251
Si Si3 0.912510 0.175785 0.587574
Si Si4 0.404539 0.667895 0.164350
O O1 0.630021 0.209099 0.911236
O O2 0.750000 0.000000 0.001598
O O3 0.619794 0.868361 0.892133
O O4 0.500000 0.000000 0.000000
O O5 0.870732 0.127696 0.494755
O O6 0.956114 0.153631 0.345751
O O7 0.750000 0.000000 0.373276
O O8 0.950417 0.864414 0.414737
O O9 0.869046 0.028313 0.648535
O O10 0.370266 0.750000 0.250000
#
# Coordination Sequence:
#
# PCOD9412363 Si02
#       4
#     8   8   8   8
#     4  12  25  41  69 105 125 174 232 276 326 397
#     4   9  18  38  66  91 125 172 217 267 329 383
#     4   9  21  37  65  90 127 166 216 274 323 382
#     4  10  23  43  60  93 138 168 216 272 337 395
#
# _framework density 21.879173000000002
#
# number of rings (size 3 to 8) (size 9 to 14) (size 15 to 20)
#    1.500    0.500    2.500    0.000    7.000    1.000 
#    4.500    3.750    0.000    0.000    0.000    0.000 
#    0.000    0.000    0.000    0.000    0.000    0.000 
#
# Total GULP energy -178141.029674 kJ/mol
# GULP energy per Si atom -5566.907177 kJ/mol
# Density = 2.182938 g / cm^3
# Si number density = 21.879173 Si / 1000 Ang^3
#
#
#
# Elastic Constant Matrix: (Units=GPa)
#
#
# Indices 1 2 3 4 5 6 
#
# 1 164.9401 -8.4430 -7.1534 0.0000 0.0000 0.0000
# 2 -8.4430 92.8445 -7.5728 0.0000 0.0000 0.0000
# 3 -7.1534 -7.5728 38.7026 0.0000 0.0000 0.0000
# 4 0.0000 0.0000 0.0000 22.1109 0.0000 0.0000
# 5 0.0000 0.0000 0.0000 0.0000 2.8910 0.0000
# 6 0.0000 0.0000 0.0000 0.0000 0.0000 24.2357
#
#
#
# Elastic Compliance Matrix: (Units=1/GPa)
#
#
# Indices 1 2 3 4 5 6 
#
# 1 0.006152 0.000663 0.001267 0.000000 0.000000 0.000000
# 2 0.000663 0.011017 0.002278 0.000000 0.000000 0.000000
# 3 0.001267 0.002278 0.026518 0.000000 0.000000 0.000000
# 4 0.000000 0.000000 0.000000 0.045227 0.000000 0.000000
# 5 0.000000 0.000000 0.000000 0.000000 0.345902 0.000000
# 6 0.000000 0.000000 0.000000 0.000000 0.000000 0.041261
#
#
# Mechanical properties :
#
#
# Convention : Reuss Voigt Hill
#
# Bulk Modulus (GPa) = 19.19332 27.79430 23.49381
# Shear Modulus (GPa) = 10.30868 31.15795 20.73332
#
# Velocity S-wave (km/s) = 2.17299 3.77781 3.08170
# Velocity P-wave (km/s) = 3.88424 5.63562 4.83981
#
# Compressibility (1/GPa) = 0.05210145
#
# Stress axis : x y z
#
# Youngs Moduli (GPa) = 162.55752 90.77061 37.71031
#
# Poissons Ratio (x) = -0.06016 -0.04777
# Poissons Ratio (y) = -0.10773 -0.08591
# Poissons Ratio (z) = -0.20591 -0.20679
#
# Static dielectric constant tensor:
#      x y z
#    x 1.964780 0.000000 0.000000 
#    y 0.000000 1.850390 0.000000 
#    z 0.000000 0.000000 1.828960 
# 
# From -- ./inp_files/25490.got.cif
#   From: 2010.05.17/outbox.cif.g08.bks.cpg/sg52_13_cif.got.tgz:25490.got - 2010.06.03 12:15:38.
