data_PCOD9412257
_publ_section_title
;
Structure prediction by ZEFSAII (Michael W. Deem and Ramdas Pophale) SiO2 
 PCOD9412257
Probable space group: P N N A
;
_chemical_formula_sum "Si O2"
_cell_formula_units_Z 48
_cell_length_a 21.216221
_cell_length_b 8.817786
_cell_length_c 14.031941
_cell_angle_alpha 90.000000
_cell_angle_beta 90.000000
_cell_angle_gamma 90.000000
_cell_volume 2625.096876
_symmetry_space_group_name_H-M "P N N A"
_symmetry_group_IT_number 52
_symmetry_cell_setting 'orthorhombic'
loop_
_space_group_symop_operation_xyz
x,y,z
1/2-x,-y,z
x,1/2-y,1/2-z
1/2-x,1/2+y,1/2-z
-x,-y,-z
1/2+x,y,-z
-x,1/2+y,1/2+z
1/2+x,1/2-y,1/2+z
loop_
_atom_site_type_symbol
_atom_site_label
_atom_site_fract_x
_atom_site_fract_y
_atom_site_fract_z
Si Si1 0.750000 0.000000 0.610154
Si Si2 0.701647 0.250000 0.750000
Si Si3 0.026770 0.882722 0.576747
Si Si4 0.022956 0.580955 0.229213
Si Si5 0.548011 0.080592 0.928957
Si Si6 0.175628 0.002178 0.096657
Si Si7 0.870969 0.337511 0.926797
O O1 0.739129 0.146242 0.676189
O O2 0.814323 0.043337 0.557335
O O3 0.669752 0.117624 0.813117
O O4 0.976288 0.749310 0.586983
O O5 0.089421 0.821607 0.524788
O O6 0.027406 0.974520 0.675337
O O7 0.000000 0.000000 0.500000
O O8 0.998707 0.750000 0.250000
O O9 0.043025 0.506747 0.328432
O O10 0.082535 0.603000 0.157119
O O11 0.619416 0.069820 0.967952
O O12 0.500000 0.000000 0.000000
O O13 0.250000 0.000000 0.070606
O O14 0.155372 0.826468 0.105604
#
# Coordination Sequence:
#
# PCOD9412257 Si02
#       7
#     4   4   8   8   8   8   8
#     4  12  22  36  56  84 122 172 196 244 300 378
#     4  12  24  32  54  86 126 162 210 224 308 390
#     4  10  23  40  58  85 120 163 210 255 301 355
#     4  11  22  38  62  87 122 161 203 254 311 361
#     4  12  23  39  60  87 122 163 205 252 307 368
#     4  12  24  37  56  88 128 165 202 247 306 376
#     4  11  23  42  56  87 132 164 200 256 302 368
#
# _framework density 18.285039999999999
#
# number of rings (size 3 to 8) (size 9 to 14) (size 15 to 20)
#    0.000    0.667    5.833    2.500    8.167    0.000 
#    0.000    0.000    0.000    0.000    2.167    0.000 
#    0.000    0.000    0.000    0.000    0.000    0.000 
#
# Total GULP energy -267441.174425 kJ/mol
# GULP energy per Si atom -5571.691134 kJ/mol
# Density = 1.824342 g / cm^3
# Si number density = 18.285040 Si / 1000 Ang^3
#
#
#
# Elastic Constant Matrix: (Units=GPa)
#
#
# Indices 1 2 3 4 5 6 
#
# 1 124.7284 47.2156 44.4346 0.0000 0.0000 0.0000
# 2 47.2156 135.9161 30.9389 0.0000 0.0000 0.0000
# 3 44.4346 30.9389 59.0197 0.0000 0.0000 0.0000
# 4 0.0000 0.0000 0.0000 29.3021 0.0000 0.0000
# 5 0.0000 0.0000 0.0000 0.0000 7.2558 0.0000
# 6 0.0000 0.0000 0.0000 0.0000 0.0000 32.9229
#
#
#
# Elastic Compliance Matrix: (Units=1/GPa)
#
#
# Indices 1 2 3 4 5 6 
#
# 1 0.011562 -0.002311 -0.007493 0.000000 0.000000 0.000000
# 2 -0.002311 0.008816 -0.002882 0.000000 0.000000 0.000000
# 3 -0.007493 -0.002882 0.024096 0.000000 0.000000 0.000000
# 4 0.000000 0.000000 0.000000 0.034127 0.000000 0.000000
# 5 0.000000 0.000000 0.000000 0.000000 0.137821 0.000000
# 6 0.000000 0.000000 0.000000 0.000000 0.000000 0.030374
#
#
# Mechanical properties :
#
#
# Convention : Reuss Voigt Hill
#
# Bulk Modulus (GPa) = 52.35072 62.76028 57.55550
# Shear Modulus (GPa) = 17.95111 27.03450 22.49280
#
# Velocity S-wave (km/s) = 3.13667 3.84930 3.51111
# Velocity P-wave (km/s) = 6.46612 7.35894 6.92693
#
# Compressibility (1/GPa) = 0.01910193
#
# Stress axis : x y z
#
# Youngs Moduli (GPa) = 86.49360 113.42761 41.50128
#
# Poissons Ratio (x) = 0.26209 0.31098
# Poissons Ratio (y) = 0.19986 0.11960
# Poissons Ratio (z) = 0.64811 0.32689
#
# Static dielectric constant tensor:
#      x y z
#    x 1.769000 0.000000 0.000000 
#    y 0.000000 1.633030 0.000000 
#    z 0.000000 0.000000 1.650990 
# 
# From -- ./inp_files/28102.got.cif
#   From: 2010.05.17/outbox.cif.g08.bks.cpg/sg52_15_cif.got.tgz:28102.got - 2010.06.03 12:15:38.
