data_PCOD9412329
_publ_section_title
;
Structure prediction by ZEFSAII (Michael W. Deem and Ramdas Pophale) SiO2 
 PCOD9412329
Probable space group: P N N A
;
_chemical_formula_sum "Si O2"
_cell_formula_units_Z 40
_cell_length_a 10.416007
_cell_length_b 22.922411
_cell_length_c 7.806331
_cell_angle_alpha 90.000000
_cell_angle_beta 90.000000
_cell_angle_gamma 90.000000
_cell_volume 1863.839538
_symmetry_space_group_name_H-M "P N N A"
_symmetry_group_IT_number 52
_symmetry_cell_setting 'orthorhombic'
loop_
_space_group_symop_operation_xyz
x,y,z
1/2-x,-y,z
x,1/2-y,1/2-z
1/2-x,1/2+y,1/2-z
-x,-y,-z
1/2+x,y,-z
-x,1/2+y,1/2+z
1/2+x,1/2-y,1/2+z
loop_
_atom_site_type_symbol
_atom_site_label
_atom_site_fract_x
_atom_site_fract_y
_atom_site_fract_z
Si Si1 0.701978 0.187643 0.842389
Si Si2 0.548968 0.471198 0.175379
Si Si3 0.913959 0.192796 0.134666
Si Si4 0.213033 0.566511 0.300341
Si Si5 0.805350 0.424463 0.299049
O O1 0.700578 0.250000 0.750000
O O2 0.560125 0.182705 0.923230
O O3 0.724313 0.127285 0.735629
O O4 0.816926 0.193550 0.976978
O O5 0.437925 0.432141 0.256681
O O6 0.686256 0.438648 0.174819
O O7 0.583843 0.527254 0.289432
O O8 0.500000 0.500000 0.000000
O O9 0.905958 0.250000 0.250000
O O10 0.867318 0.137057 0.241996
O O11 0.250000 0.500000 0.245360
O O12 0.241054 0.571288 0.504079
#
# Coordination Sequence:
#
# PCOD9412329 Si02
#       5
#     8   8   8   8   8
#     4  10  24  43  67 101 130 176 228 277 337 399
#     4  11  24  40  61 101 138 168 220 281 352 392
#     4  10  23  44  66  94 133 176 226 278 330 404
#     4  11  22  39  72  91 132 178 225 275 330 413
#     4  10  23  42  64  95 130 177 231 272 331 424
#
# _framework density 21.461074
#
# number of rings (size 3 to 8) (size 9 to 14) (size 15 to 20)
#    0.000    1.600    2.000    1.800   14.000    2.400 
#    7.200    0.000    0.000    0.000    0.000    0.000 
#    0.000    0.000    0.000    0.000    0.000    0.000 
#
# Total GULP energy -223042.853773 kJ/mol
# GULP energy per Si atom -5576.071344 kJ/mol
# Density = 2.141223 g / cm^3
# Si number density = 21.461074 Si / 1000 Ang^3
#
#
#
# Elastic Constant Matrix: (Units=GPa)
#
#
# Indices 1 2 3 4 5 6 
#
# 1 163.9518 59.1951 34.4584 0.0000 0.0000 0.0000
# 2 59.1951 165.0272 9.8992 0.0000 0.0000 0.0000
# 3 34.4584 9.8992 39.4411 0.0000 0.0000 0.0000
# 4 0.0000 0.0000 0.0000 18.7352 0.0000 0.0000
# 5 0.0000 0.0000 0.0000 0.0000 12.8664 0.0000
# 6 0.0000 0.0000 0.0000 0.0000 0.0000 31.9685
#
#
#
# Elastic Compliance Matrix: (Units=1/GPa)
#
#
# Indices 1 2 3 4 5 6 
#
# 1 0.008465 -0.002633 -0.006735 0.000000 0.000000 0.000000
# 2 -0.002633 0.006971 0.000550 0.000000 0.000000 0.000000
# 3 -0.006735 0.000550 0.031100 0.000000 0.000000 0.000000
# 4 0.000000 0.000000 0.000000 0.053376 0.000000 0.000000
# 5 0.000000 0.000000 0.000000 0.000000 0.077722 0.000000
# 6 0.000000 0.000000 0.000000 0.000000 0.000000 0.031281
#
#
# Mechanical properties :
#
#
# Convention : Reuss Voigt Hill
#
# Bulk Modulus (GPa) = 34.59972 63.94730 49.27351
# Shear Modulus (GPa) = 21.16995 30.37183 25.77089
#
# Velocity S-wave (km/s) = 3.14416 3.76600 3.46904
# Velocity P-wave (km/s) = 5.41647 6.98369 6.24940
#
# Compressibility (1/GPa) = 0.02890197
#
# Stress axis : x y z
#
# Youngs Moduli (GPa) = 118.12787 143.45397 32.15383
#
# Poissons Ratio (x) = 0.37765 0.21656
# Poissons Ratio (y) = 0.31097 -0.01770
# Poissons Ratio (z) = 0.79562 -0.07895
#
# Static dielectric constant tensor:
#      x y z
#    x 1.802700 0.000000 0.000000 
#    y 0.000000 1.833760 0.000000 
#    z 0.000000 0.000000 1.802490 
# 
# From -- ./inp_files/7436.got.cif
#   From: 2010.05.17/outbox.cif.g08.bks.cpg/sg52_4_cif.got.tgz:7436.got - 2010.06.03 12:15:38.
