data_PCOD9412158
_publ_section_title
;
Structure prediction by ZEFSAII (Michael W. Deem and Ramdas Pophale) SiO2 
 PCOD9412158
Probable space group: P N N A
;
_chemical_formula_sum "Si O2"
_cell_formula_units_Z 52
_cell_length_a 18.786396
_cell_length_b 21.634307
_cell_length_c 5.667312
_cell_angle_alpha 90.000000
_cell_angle_beta 90.000000
_cell_angle_gamma 90.000000
_cell_volume 2303.369348
_symmetry_space_group_name_H-M "P N N A"
_symmetry_group_IT_number 52
_symmetry_cell_setting 'orthorhombic'
loop_
_space_group_symop_operation_xyz
x,y,z
1/2-x,-y,z
x,1/2-y,1/2-z
1/2-x,1/2+y,1/2-z
-x,-y,-z
1/2+x,y,-z
-x,1/2+y,1/2+z
1/2+x,1/2-y,1/2+z
loop_
_atom_site_type_symbol
_atom_site_label
_atom_site_fract_x
_atom_site_fract_y
_atom_site_fract_z
Si Si1 0.118274 0.141020 0.272232
Si Si2 0.436204 0.439264 0.266662
Si Si3 0.325803 0.528937 0.516994
Si Si4 0.481943 0.750000 0.250000
Si Si5 0.241485 0.286532 0.995307
Si Si6 0.423220 0.539936 0.890879
Si Si7 0.898644 0.191540 0.582358
O O1 0.161531 0.095394 0.101545
O O2 0.072091 0.196348 0.156517
O O3 0.174425 0.169714 0.456328
O O4 0.068935 0.093936 0.418622
O O5 0.382790 0.477940 0.426474
O O6 0.520259 0.445641 0.316163
O O7 0.415413 0.368931 0.233958
O O8 0.433100 0.474070 0.013585
O O9 0.250000 0.500000 0.470379
O O10 0.344058 0.539015 0.789580
O O11 0.535919 0.788797 0.414762
O O12 0.229464 0.250000 0.750000
O O13 0.243337 0.250000 0.250000
O O14 0.320456 0.316289 0.966209
O O15 0.892050 0.250000 0.750000
#
# Coordination Sequence:
#
# PCOD9412158 Si02
#       7
#     8   8   8   4   8   8   8
#     4  11  25  43  71 102 143 183 248 299 370 430
#     4  10  22  45  65  99 137 175 234 295 359 432
#     4  11  25  43  69 102 135 186 239 294 365 436
#     4  12  24  44  68 108 136 188 238 302 362 442
#     4  11  25  46  68 105 149 197 242 303 376 446
#     4  10  23  42  70  96 130 182 231 300 358 432
#     4  11  25  43  71 102 142 187 241 295 367 446
#
# _framework density 22.575624000000001
#
# number of rings (size 3 to 8) (size 9 to 14) (size 15 to 20)
#    0.000    1.231    3.077    1.385    4.308    5.538 
#    0.000    0.000    0.000    0.000    0.000    0.000 
#    0.000    0.000    0.000    0.000    0.000    0.000 
#
# Total GULP energy -290088.730555 kJ/mol
# GULP energy per Si atom -5578.629434 kJ/mol
# Density = 2.252424 g / cm^3
# Si number density = 22.575624 Si / 1000 Ang^3
#
#
#
# Elastic Constant Matrix: (Units=GPa)
#
#
# Indices 1 2 3 4 5 6 
#
# 1 101.4459 31.1006 6.8175 0.0000 0.0000 0.0000
# 2 31.1006 130.4244 18.5323 0.0000 0.0000 0.0000
# 3 6.8175 18.5323 44.4583 0.0000 0.0000 0.0000
# 4 0.0000 0.0000 0.0000 23.7397 0.0000 0.0000
# 5 0.0000 0.0000 0.0000 0.0000 30.1824 0.0000
# 6 0.0000 0.0000 0.0000 0.0000 0.0000 32.7770
#
#
#
# Elastic Compliance Matrix: (Units=1/GPa)
#
#
# Indices 1 2 3 4 5 6 
#
# 1 0.010651 -0.002453 -0.000611 0.000000 0.000000 0.000000
# 2 -0.002453 0.008715 -0.003257 0.000000 0.000000 0.000000
# 3 -0.000611 -0.003257 0.023944 0.000000 0.000000 0.000000
# 4 0.000000 0.000000 0.000000 0.042124 0.000000 0.000000
# 5 0.000000 0.000000 0.000000 0.000000 0.033132 0.000000
# 6 0.000000 0.000000 0.000000 0.000000 0.000000 0.030509
#
#
# Mechanical properties :
#
#
# Convention : Reuss Voigt Hill
#
# Bulk Modulus (GPa) = 32.60618 43.24771 37.92695
# Shear Modulus (GPa) = 29.08029 31.99838 30.53934
#
# Velocity S-wave (km/s) = 3.59294 3.76890 3.68197
# Velocity P-wave (km/s) = 5.62910 6.17559 5.90867
#
# Compressibility (1/GPa) = 0.03066903
#
# Stress axis : x y z
#
# Youngs Moduli (GPa) = 93.89227 114.74553 41.76381
#
# Poissons Ratio (x) = 0.28146 0.02551
# Poissons Ratio (y) = 0.23031 0.13601
# Poissons Ratio (z) = 0.05734 0.37369
#
# Static dielectric constant tensor:
#      x y z
#    x 1.953960 0.000000 0.000000 
#    y 0.000000 1.817540 0.000000 
#    z 0.000000 0.000000 1.828300 
# 
# From -- ./inp_files/4431.got.cif
#   From: 2010.05.17/outbox.cif.g08.bks.cpg/sg52_3_cif.got.tgz:4431.got - 2010.06.03 12:15:38.
