data_PCOD9412532
_publ_section_title
;
Structure prediction by ZEFSAII (Michael W. Deem and Ramdas Pophale) SiO2 
 PCOD9412532
Probable space group: P N N A
;
_chemical_formula_sum "Si O2"
_cell_formula_units_Z 32
_cell_length_a 26.533180
_cell_length_b 5.171507
_cell_length_c 8.430150
_cell_angle_alpha 90.000000
_cell_angle_beta 90.000000
_cell_angle_gamma 90.000000
_cell_volume 1156.755898
_symmetry_space_group_name_H-M "P N N A"
_symmetry_group_IT_number 52
_symmetry_cell_setting 'orthorhombic'
loop_
_space_group_symop_operation_xyz
x,y,z
1/2-x,-y,z
x,1/2-y,1/2-z
1/2-x,1/2+y,1/2-z
-x,-y,-z
1/2+x,y,-z
-x,1/2+y,1/2+z
1/2+x,1/2-y,1/2+z
loop_
_atom_site_type_symbol
_atom_site_label
_atom_site_fract_x
_atom_site_fract_y
_atom_site_fract_z
Si Si1 0.358312 0.373421 0.964969
Si Si2 0.250000 0.000000 0.639527
Si Si3 0.912931 0.750000 0.250000
Si Si4 0.047233 0.347669 0.070888
Si Si5 0.192009 0.495969 0.358212
O O1 0.381404 0.503100 0.807855
O O2 0.442138 0.829434 0.913009
O O3 0.500000 0.500000 0.000000
O O4 0.402268 0.474331 0.082520
O O5 0.251514 0.250000 0.750000
O O6 0.198404 0.997369 0.539547
O O7 0.037717 0.250000 0.250000
O O8 0.154276 0.925778 0.002471
O O9 0.250000 0.500000 0.412647
O O10 0.181949 0.250000 0.250000
O O11 0.187153 0.750000 0.250000
#
# Coordination Sequence:
#
# PCOD9412532 Si02
#       5
#     8   4   4   8   8
#     4  10  24  50  76 126 186 251 317 389 488 576
#     4  12  26  46  80 124 184 254 314 384 478 586
#     4   8  22  52  78 130 188 250 318 390 482 584
#     4  10  23  50  89 139 192 252 323 408 494 582
#     4  10  24  46  76 122 184 245 323 393 475 578
#
# _framework density 27.663571999999998
#
# number of rings (size 3 to 8) (size 9 to 14) (size 15 to 20)
#    1.500    0.500    1.250    0.000    7.000    3.000 
#    6.750    0.000    0.000    1.500    0.000   17.500 
#    0.000    0.000    0.000    0.000    0.000    0.000 
#
# Total GULP energy -178779.306813 kJ/mol
# GULP energy per Si atom -5586.853338 kJ/mol
# Density = 2.760061 g / cm^3
# Si number density = 27.663572 Si / 1000 Ang^3
#
#
#
# Elastic Constant Matrix: (Units=GPa)
#
#
# Indices 1 2 3 4 5 6 
#
# 1 211.6413 62.7190 98.0497 0.0000 0.0000 0.0000
# 2 62.7190 176.2161 106.6039 0.0000 0.0000 0.0000
# 3 98.0497 106.6039 281.6446 0.0000 0.0000 0.0000
# 4 0.0000 0.0000 0.0000 62.1560 0.0000 0.0000
# 5 0.0000 0.0000 0.0000 0.0000 56.1299 0.0000
# 6 0.0000 0.0000 0.0000 0.0000 0.0000 54.2391
#
#
#
# Elastic Compliance Matrix: (Units=1/GPa)
#
#
# Indices 1 2 3 4 5 6 
#
# 1 0.005791 -0.001091 -0.001603 0.000000 0.000000 0.000000
# 2 -0.001091 0.007566 -0.002484 0.000000 0.000000 0.000000
# 3 -0.001603 -0.002484 0.005049 0.000000 0.000000 0.000000
# 4 0.000000 0.000000 0.000000 0.016089 0.000000 0.000000
# 5 0.000000 0.000000 0.000000 0.000000 0.017816 0.000000
# 6 0.000000 0.000000 0.000000 0.000000 0.000000 0.018437
#
#
# Mechanical properties :
#
#
# Convention : Reuss Voigt Hill
#
# Bulk Modulus (GPa) = 124.23315 133.80526 129.01920
# Shear Modulus (GPa) = 59.67563 61.31363 60.49463
#
# Velocity S-wave (km/s) = 4.64960 4.71298 4.68139
# Velocity P-wave (km/s) = 8.59250 8.83685 8.71553
#
# Compressibility (1/GPa) = 0.00804938
#
# Stress axis : x y z
#
# Youngs Moduli (GPa) = 172.68092 132.17207 198.06985
#
# Poissons Ratio (x) = 0.14426 0.31749
# Poissons Ratio (y) = 0.18847 0.49196
# Poissons Ratio (z) = 0.27680 0.32828
#
# Static dielectric constant tensor:
#      x y z
#    x 2.168020 0.000000 0.000000 
#    y 0.000000 2.263310 0.000000 
#    z 0.000000 0.000000 2.459260 
# 
# From -- ./inp_files/22000.got.cif
#   From: 2010.05.17/outbox.cif.g08.bks.cpg/sg52_11_cif.got.tgz:22000.got - 2010.06.03 12:15:38.
