data_PCOD9412488
_publ_section_title
;
Structure prediction by ZEFSAII (Michael W. Deem and Ramdas Pophale) SiO2 
 PCOD9412488
Probable space group: P N N A
;
_chemical_formula_sum "Si O2"
_cell_formula_units_Z 40
_cell_length_a 11.046775
_cell_length_b 5.284359
_cell_length_c 29.821460
_cell_angle_alpha 90.000000
_cell_angle_beta 90.000000
_cell_angle_gamma 90.000000
_cell_volume 1740.831452
_symmetry_space_group_name_H-M "P N N A"
_symmetry_group_IT_number 52
_symmetry_cell_setting 'orthorhombic'
loop_
_space_group_symop_operation_xyz
x,y,z
1/2-x,-y,z
x,1/2-y,1/2-z
1/2-x,1/2+y,1/2-z
-x,-y,-z
1/2+x,y,-z
-x,1/2+y,1/2+z
1/2+x,1/2-y,1/2+z
loop_
_atom_site_type_symbol
_atom_site_label
_atom_site_fract_x
_atom_site_fract_y
_atom_site_fract_z
Si Si1 0.869658 0.610514 0.919049
Si Si2 0.545335 0.615234 0.546231
Si Si3 0.369763 0.843113 0.801274
Si Si4 0.382778 0.581957 0.891166
Si Si5 0.621023 0.497544 0.719004
O O1 0.750000 0.500000 0.894577
O O2 0.888551 0.389364 0.957097
O O3 0.999931 0.596082 0.895128
O O4 0.868350 0.897740 0.934323
O O5 0.500000 0.500000 0.500000
O O6 0.432972 0.679766 0.579684
O O7 0.364025 0.750000 0.750000
O O8 0.371944 0.630813 0.838564
O O9 0.496251 0.990241 0.807351
O O10 0.250000 0.000000 0.809980
O O11 0.250000 0.500000 0.907730
O O12 0.750000 0.500000 0.693713
O O13 0.622711 0.750000 0.750000
O O14 0.616784 0.250000 0.750000
#
# Coordination Sequence:
#
# PCOD9412488 Si02
#       5
#     8   8   8   8   8
#     4  10  23  46  69 104 138 182 226 285 348 418
#     4  10  23  45  74 104 139 181 228 287 354 425
#     4  11  23  42  66 100 137 188 236 290 346 417
#     4  10  26  43  68 102 143 185 235 289 354 419
#     4   9  19  39  63  92 126 166 223 285 345 406
#
# _framework density 22.977528
#
# number of rings (size 3 to 8) (size 9 to 14) (size 15 to 20)
#    1.200    0.800    0.000    2.400    2.800    2.400 
#    7.200    4.000    0.000    0.000    0.000    0.000 
#    0.000    0.000    0.000    0.000    0.000    0.000 
#
# Total GULP energy -222807.126818 kJ/mol
# GULP energy per Si atom -5570.178170 kJ/mol
# Density = 2.292523 g / cm^3
# Si number density = 22.977528 Si / 1000 Ang^3
#
#
#
# Elastic Constant Matrix: (Units=GPa)
#
#
# Indices 1 2 3 4 5 6 
#
# 1 235.6845 54.3760 14.8029 0.0000 0.0000 0.0000
# 2 54.3760 131.1303 29.8223 0.0000 0.0000 0.0000
# 3 14.8029 29.8223 70.1273 0.0000 0.0000 0.0000
# 4 0.0000 0.0000 0.0000 65.4618 0.0000 0.0000
# 5 0.0000 0.0000 0.0000 0.0000 23.8464 0.0000
# 6 0.0000 0.0000 0.0000 0.0000 0.0000 50.7053
#
#
#
# Elastic Compliance Matrix: (Units=1/GPa)
#
#
# Indices 1 2 3 4 5 6 
#
# 1 0.004694 -0.001905 -0.000181 0.000000 0.000000 0.000000
# 2 -0.001905 0.009216 -0.003517 0.000000 0.000000 0.000000
# 3 -0.000181 -0.003517 0.015794 0.000000 0.000000 0.000000
# 4 0.000000 0.000000 0.000000 0.015276 0.000000 0.000000
# 5 0.000000 0.000000 0.000000 0.000000 0.041935 0.000000
# 6 0.000000 0.000000 0.000000 0.000000 0.000000 0.019722
#
#
# Mechanical properties :
#
#
# Convention : Reuss Voigt Hill
#
# Bulk Modulus (GPa) = 54.06103 70.54937 62.30520
# Shear Modulus (GPa) = 40.31998 50.53208 45.42603
#
# Velocity S-wave (km/s) = 4.19353 4.69465 4.45114
# Velocity P-wave (km/s) = 6.85758 7.75607 7.32062
#
# Compressibility (1/GPa) = 0.01849761
#
# Stress axis : x y z
#
# Youngs Moduli (GPa) = 213.04254 108.50750 63.31712
#
# Poissons Ratio (x) = 0.20675 0.01143
# Poissons Ratio (y) = 0.40592 0.22268
# Poissons Ratio (z) = 0.03846 0.38162
#
# Static dielectric constant tensor:
#      x y z
#    x 1.934680 0.000000 0.000000 
#    y 0.000000 2.106590 0.000000 
#    z 0.000000 0.000000 1.776460 
# 
# From -- ./inp_files/44711.got.cif
#   From: 2010.05.17/outbox.cif.g08.bks.cpg/sg52_23_cif.got.tgz:44711.got - 2010.06.03 12:15:38.
