data_PCOD9412459
_publ_section_title
;
Structure prediction by ZEFSAII (Michael W. Deem and Ramdas Pophale) SiO2 
 PCOD9412459
Probable space group: P N N A
;
_chemical_formula_sum "Si O2"
_cell_formula_units_Z 32
_cell_length_a 18.603294
_cell_length_b 10.298441
_cell_length_c 6.997131
_cell_angle_alpha 90.000000
_cell_angle_beta 90.000000
_cell_angle_gamma 90.000000
_cell_volume 1340.544823
_symmetry_space_group_name_H-M "P N N A"
_symmetry_group_IT_number 52
_symmetry_cell_setting 'orthorhombic'
loop_
_space_group_symop_operation_xyz
x,y,z
1/2-x,-y,z
x,1/2-y,1/2-z
1/2-x,1/2+y,1/2-z
-x,-y,-z
1/2+x,y,-z
-x,1/2+y,1/2+z
1/2+x,1/2-y,1/2+z
loop_
_atom_site_type_symbol
_atom_site_label
_atom_site_fract_x
_atom_site_fract_y
_atom_site_fract_z
Si Si1 0.210108 0.250000 0.750000
Si Si2 0.351507 0.100729 0.737118
Si Si3 0.027878 0.750000 0.250000
Si Si4 0.096079 0.133282 0.484812
Si Si5 0.579096 0.002919 0.905518
O O1 0.267478 0.133744 0.731463
O O2 0.158803 0.226244 0.567377
O O3 0.383948 0.250000 0.750000
O O4 0.385139 0.009726 0.573174
O O5 0.366522 0.011776 0.921629
O O6 0.975014 0.807817 0.414165
O O7 0.079851 0.863879 0.191464
O O8 0.088146 0.108997 0.259024
O O9 0.500000 0.000000 0.000000
#
# Coordination Sequence:
#
# PCOD9412459 Si02
#       5
#     4   8   4   8   8
#     4   9  24  46  74  90 146 189 248 298 364 431
#     4  10  23  44  72  97 144 189 235 304 354 433
#     4  11  24  42  72 102 142 183 232 300 362 441
#     4  11  23  46  68 103 141 188 239 302 357 440
#     4  12  25  41  73 108 143 187 236 297 378 435
#
# _framework density 23.870892000000001
#
# number of rings (size 3 to 8) (size 9 to 14) (size 15 to 20)
#    0.750    0.500    2.500    3.000    3.500    0.000 
#    0.000    7.500    0.000    0.000    0.000    0.000 
#    0.000    0.000    0.000    0.000    0.000    0.000 
#
# Total GULP energy -178605.246045 kJ/mol
# GULP energy per Si atom -5581.413939 kJ/mol
# Density = 2.381656 g / cm^3
# Si number density = 23.870892 Si / 1000 Ang^3
#
#
#
# Elastic Constant Matrix: (Units=GPa)
#
#
# Indices 1 2 3 4 5 6 
#
# 1 61.8103 -3.0042 37.6587 0.0000 0.0000 0.0000
# 2 -3.0042 175.8573 36.2695 0.0000 0.0000 0.0000
# 3 37.6587 36.2695 177.1024 0.0000 0.0000 0.0000
# 4 0.0000 0.0000 0.0000 29.6246 0.0000 0.0000
# 5 0.0000 0.0000 0.0000 0.0000 23.1600 0.0000
# 6 0.0000 0.0000 0.0000 0.0000 0.0000 42.8991
#
#
#
# Elastic Compliance Matrix: (Units=1/GPa)
#
#
# Indices 1 2 3 4 5 6 
#
# 1 0.018825 0.001198 -0.004248 0.000000 0.000000 0.000000
# 2 0.001198 0.006013 -0.001486 0.000000 0.000000 0.000000
# 3 -0.004248 -0.001486 0.006854 0.000000 0.000000 0.000000
# 4 0.000000 0.000000 0.000000 0.033756 0.000000 0.000000
# 5 0.000000 0.000000 0.000000 0.000000 0.043178 0.000000
# 6 0.000000 0.000000 0.000000 0.000000 0.000000 0.023310
#
#
# Mechanical properties :
#
#
# Convention : Reuss Voigt Hill
#
# Bulk Modulus (GPa) = 44.21006 61.84646 53.02826
# Shear Modulus (GPa) = 33.65875 42.05981 37.85928
#
# Velocity S-wave (km/s) = 3.75911 4.20214 3.98678
# Velocity P-wave (km/s) = 6.11571 7.03626 6.59207
#
# Compressibility (1/GPa) = 0.02261928
#
# Stress axis : x y z
#
# Youngs Moduli (GPa) = 53.12072 166.29499 145.89703
#
# Poissons Ratio (x) = -0.19918 0.61980
# Poissons Ratio (y) = -0.06363 0.21683
# Poissons Ratio (z) = 0.22567 0.24715
#
# Static dielectric constant tensor:
#      x y z
#    x 1.863740 0.000000 0.000000 
#    y 0.000000 1.927010 0.000000 
#    z 0.000000 0.000000 1.968890 
# 
# From -- ./inp_files/4819.got.cif
#   From: 2010.05.17/outbox.cif.g08.bks.cpg/sg52_3_cif.got.tgz:4819.got - 2010.06.03 12:15:38.
