data_PCOD9412896
_publ_section_title
;
Structure prediction by ZEFSAII (Michael W. Deem and Ramdas Pophale) SiO2 
 PCOD9412896
Probable space group: P N N A
;
_chemical_formula_sum "Si O2"
_cell_formula_units_Z 36
_cell_length_a 15.855066
_cell_length_b 18.390090
_cell_length_c 5.009738
_cell_angle_alpha 90.000000
_cell_angle_beta 90.000000
_cell_angle_gamma 90.000000
_cell_volume 1460.719821
_symmetry_space_group_name_H-M "P N N A"
_symmetry_group_IT_number 52
_symmetry_cell_setting 'orthorhombic'
loop_
_space_group_symop_operation_xyz
x,y,z
1/2-x,-y,z
x,1/2-y,1/2-z
1/2-x,1/2+y,1/2-z
-x,-y,-z
1/2+x,y,-z
-x,1/2+y,1/2+z
1/2+x,1/2-y,1/2+z
loop_
_atom_site_type_symbol
_atom_site_label
_atom_site_fract_x
_atom_site_fract_y
_atom_site_fract_z
Si Si1 0.043536 0.418902 0.964825
Si Si2 0.799513 0.430823 0.554825
Si Si3 0.958391 0.365518 0.460855
Si Si4 0.734865 0.129016 0.446326
Si Si5 0.834499 0.250000 0.750000
O O1 0.994434 0.363760 0.166036
O O2 0.142740 0.403166 0.016083
O O3 0.029090 0.387239 0.670125
O O4 0.000000 0.500000 0.000000
O O5 0.750000 0.500000 0.468828
O O6 0.894821 0.433763 0.466410
O O7 0.795413 0.422019 0.871519
O O8 0.753155 0.371664 0.367942
O O9 0.898693 0.301507 0.577916
O O10 0.770970 0.204341 0.562696
#
# Coordination Sequence:
#
# PCOD9412896 Si02
#       5
#     8   8   8   8   4
#     4  12  24  43  68 104 133 168 219 285 351 387
#     4  11  21  40  65  95 127 176 224 271 330 391
#     4  11  24  41  67  93 134 176 218 278 326 409
#     4  11  24  40  65  93 134 173 218 281 323 402
#     4  10  26  46  64  96 132 186 236 256 334 408
#
# _framework density 24.645382000000001
#
# number of rings (size 3 to 8) (size 9 to 14) (size 15 to 20)
#    0.000    0.889    0.000    8.000    0.000    9.778 
#    0.000    0.000    0.000    0.000    0.000    0.000 
#    0.000    0.000    0.000    0.000    0.000    0.000 
#
# Total GULP energy -200779.861091 kJ/mol
# GULP energy per Si atom -5577.218364 kJ/mol
# Density = 2.458929 g / cm^3
# Si number density = 24.645382 Si / 1000 Ang^3
#
#
#
# Elastic Constant Matrix: (Units=GPa)
#
#
# Indices 1 2 3 4 5 6 
#
# 1 94.6897 6.6403 13.8946 0.0000 0.0000 0.0000
# 2 6.6403 103.9592 21.0847 0.0000 0.0000 0.0000
# 3 13.8946 21.0847 84.0196 0.0000 0.0000 0.0000
# 4 0.0000 0.0000 0.0000 14.2155 0.0000 0.0000
# 5 0.0000 0.0000 0.0000 0.0000 88.0021 0.0000
# 6 0.0000 0.0000 0.0000 0.0000 0.0000 36.5846
#
#
#
# Elastic Compliance Matrix: (Units=1/GPa)
#
#
# Indices 1 2 3 4 5 6 
#
# 1 0.010835 -0.000346 -0.001705 0.000000 0.000000 0.000000
# 2 -0.000346 0.010146 -0.002489 0.000000 0.000000 0.000000
# 3 -0.001705 -0.002489 0.012809 0.000000 0.000000 0.000000
# 4 0.000000 0.000000 0.000000 0.070346 0.000000 0.000000
# 5 0.000000 0.000000 0.000000 0.000000 0.011363 0.000000
# 6 0.000000 0.000000 0.000000 0.000000 0.000000 0.027334
#
#
# Mechanical properties :
#
#
# Convention : Reuss Voigt Hill
#
# Bulk Modulus (GPa) = 40.47013 40.65641 40.56327
# Shear Modulus (GPa) = 31.22074 43.83036 37.52555
#
# Velocity S-wave (km/s) = 3.56307 4.22173 3.90631
# Velocity P-wave (km/s) = 5.77788 6.34794 6.06961
#
# Compressibility (1/GPa) = 0.02470958
#
# Stress axis : x y z
#
# Youngs Moduli (GPa) = 92.29114 98.56042 78.07300
#
# Poissons Ratio (x) = 0.03413 0.13311
# Poissons Ratio (y) = 0.03196 0.19431
# Poissons Ratio (z) = 0.15735 0.24530
#
# Static dielectric constant tensor:
#      x y z
#    x 1.927180 0.000000 0.000000 
#    y 0.000000 1.737250 0.000000 
#    z 0.000000 0.000000 1.935010 
# 
# From -- ./inp_files/2146.got.cif
#   From: 2010.05.17/outbox.cif.g08.bks.cpg/sg52_2_cif.got.tgz:2146.got - 2010.06.03 12:15:38.
