data_PCOD9412698
_publ_section_title
;
Structure prediction by ZEFSAII (Michael W. Deem and Ramdas Pophale) SiO2 
 PCOD9412698
Probable space group: P N N A
;
_chemical_formula_sum "Si O2"
_cell_formula_units_Z 28
_cell_length_a 7.266380
_cell_length_b 14.139098
_cell_length_c 12.356123
_cell_angle_alpha 90.000000
_cell_angle_beta 90.000000
_cell_angle_gamma 90.000000
_cell_volume 1269.468805
_symmetry_space_group_name_H-M "P N N A"
_symmetry_group_IT_number 52
_symmetry_cell_setting 'orthorhombic'
loop_
_space_group_symop_operation_xyz
x,y,z
1/2-x,-y,z
x,1/2-y,1/2-z
1/2-x,1/2+y,1/2-z
-x,-y,-z
1/2+x,y,-z
-x,1/2+y,1/2+z
1/2+x,1/2-y,1/2+z
loop_
_atom_site_type_symbol
_atom_site_label
_atom_site_fract_x
_atom_site_fract_y
_atom_site_fract_z
Si Si1 0.260220 0.297802 0.854788
Si Si2 0.750000 0.500000 0.238301
Si Si3 0.084107 0.574585 0.388044
Si Si4 0.109126 0.301383 0.437531
O O1 0.164950 0.250000 0.750000
O O2 0.291877 0.407757 0.833024
O O3 0.451033 0.242146 0.866177
O O4 0.159853 0.271731 0.966494
O O5 0.576441 0.465307 0.310929
O O6 0.250000 0.500000 0.389107
O O7 0.211316 0.668361 0.370573
O O8 0.981748 0.608931 0.497933
#
# Coordination Sequence:
#
# PCOD9412698 Si02
#       4
#     8   4   8   8
#     4  11  23  48  69 104 145 183 236 296 350 423
#     4  12  26  44  72 104 146 186 238 294 354 432
#     4  11  23  41  70 106 135 182 241 296 353 415
#     4  10  24  44  73  99 145 187 234 297 359 420
#
# _framework density 22.056470999999998
#
# number of rings (size 3 to 8) (size 9 to 14) (size 15 to 20)
#    0.000    1.143    2.857    2.571    6.000    1.143 
#   25.714    0.000    0.000    0.000    0.000    0.000 
#    0.000    0.000    0.000    0.000    0.000    0.000 
#
# Total GULP energy -156126.016803 kJ/mol
# GULP energy per Si atom -5575.929172 kJ/mol
# Density = 2.200627 g / cm^3
# Si number density = 22.056471 Si / 1000 Ang^3
#
#
#
# Elastic Constant Matrix: (Units=GPa)
#
#
# Indices 1 2 3 4 5 6 
#
# 1 130.4378 19.3207 28.5881 0.0000 0.0000 0.0000
# 2 19.3207 110.9439 45.1808 0.0000 0.0000 0.0000
# 3 28.5881 45.1808 83.9935 0.0000 0.0000 0.0000
# 4 0.0000 0.0000 0.0000 14.2947 0.0000 0.0000
# 5 0.0000 0.0000 0.0000 0.0000 21.0723 0.0000
# 6 0.0000 0.0000 0.0000 0.0000 0.0000 27.1004
#
#
#
# Elastic Compliance Matrix: (Units=1/GPa)
#
#
# Indices 1 2 3 4 5 6 
#
# 1 0.008297 -0.000378 -0.002621 0.000000 0.000000 0.000000
# 2 -0.000378 0.011559 -0.006089 0.000000 0.000000 0.000000
# 3 -0.002621 -0.006089 0.016073 0.000000 0.000000 0.000000
# 4 0.000000 0.000000 0.000000 0.069956 0.000000 0.000000
# 5 0.000000 0.000000 0.000000 0.000000 0.047456 0.000000
# 6 0.000000 0.000000 0.000000 0.000000 0.000000 0.036900
#
#
# Mechanical properties :
#
#
# Convention : Reuss Voigt Hill
#
# Bulk Modulus (GPa) = 56.32581 56.83935 56.58258
# Shear Modulus (GPa) = 23.32814 27.97920 25.65367
#
# Velocity S-wave (km/s) = 3.25569 3.56550 3.41411
# Velocity P-wave (km/s) = 6.30279 6.54036 6.42267
#
# Compressibility (1/GPa) = 0.01775385
#
# Stress axis : x y z
#
# Youngs Moduli (GPa) = 120.52810 86.51195 62.21559
#
# Poissons Ratio (x) = 0.03266 0.16306
# Poissons Ratio (y) = 0.04551 0.37884
# Poissons Ratio (z) = 0.31588 0.52679
#
# Static dielectric constant tensor:
#      x y z
#    x 1.815660 0.000000 0.000000 
#    y 0.000000 1.929680 0.000000 
#    z 0.000000 0.000000 1.805140 
# 
# From -- ./inp_files/16306.got.cif
#   From: 2010.05.17/outbox.cif.g08.bks.cpg/sg52_9_cif.got.tgz:16306.got - 2010.06.03 12:15:38.
