data_PCOD9412543
_publ_section_title
;
Structure prediction by ZEFSAII (Michael W. Deem and Ramdas Pophale) SiO2 
 PCOD9412543
Probable space group: P N N A
;
_chemical_formula_sum "Si O2"
_cell_formula_units_Z 44
_cell_length_a 8.512918
_cell_length_b 12.842418
_cell_length_c 21.264416
_cell_angle_alpha 90.000000
_cell_angle_beta 90.000000
_cell_angle_gamma 90.000000
_cell_volume 2324.763141
_symmetry_space_group_name_H-M "P N N A"
_symmetry_group_IT_number 52
_symmetry_cell_setting 'orthorhombic'
loop_
_space_group_symop_operation_xyz
x,y,z
1/2-x,-y,z
x,1/2-y,1/2-z
1/2-x,1/2+y,1/2-z
-x,-y,-z
1/2+x,y,-z
-x,1/2+y,1/2+z
1/2+x,1/2-y,1/2+z
loop_
_atom_site_type_symbol
_atom_site_label
_atom_site_fract_x
_atom_site_fract_y
_atom_site_fract_z
Si Si1 0.528517 0.891707 0.415233
Si Si2 0.566422 0.775407 0.821471
Si Si3 0.250000 0.500000 0.006566
Si Si4 0.926872 0.045366 0.675791
Si Si5 0.941084 0.791566 0.821312
Si Si6 0.066191 0.482881 0.687535
O O1 0.376903 0.938184 0.451820
O O2 0.495859 0.785682 0.377203
O O3 0.667834 0.911191 0.463909
O O4 0.549562 0.973365 0.359124
O O5 0.510023 0.750000 0.750000
O O6 0.558062 0.661123 0.852055
O O7 0.752006 0.798361 0.819257
O O8 0.471982 0.874089 0.848243
O O9 0.970280 0.037263 0.748493
O O10 0.750000 0.000000 0.670516
O O11 0.987307 0.750000 0.750000
O O12 0.003929 0.906447 0.835970
O O13 0.250000 0.500000 0.698116
#
# Coordination Sequence:
#
# PCOD9412543 Si02
#       6
#     8   8   4   8   8   8
#     4  11  21  38  60  86 117 156 205 253 300 358
#     4   9  18  32  52  77 113 162 196 226 287 376
#     4  10  24  38  56  90 122 162 210 246 296 352
#     4  11  18  36  57  81 117 158 198 243 296 365
#     4  11  19  35  60  83 114 159 200 246 310 366
#     4  11  23  32  47  86 129 158 192 236 312 372
#
# _framework density 18.926659999999998
#
# number of rings (size 3 to 8) (size 9 to 14) (size 15 to 20)
#    0.000    1.455    4.545    2.727    1.273    3.636 
#    0.000    0.000    0.000    0.000    0.000   31.818 
#    0.000    0.000    0.000    0.000    0.000    0.000 
#
# Total GULP energy -244964.943131 kJ/mol
# GULP energy per Si atom -5567.385071 kJ/mol
# Density = 1.888358 g / cm^3
# Si number density = 18.926660 Si / 1000 Ang^3
#
#
#
# Elastic Constant Matrix: (Units=GPa)
#
#
# Indices 1 2 3 4 5 6 
#
# 1 47.8466 39.2547 6.2755 0.0000 0.0000 0.0000
# 2 39.2547 187.2468 25.6979 0.0000 0.0000 0.0000
# 3 6.2755 25.6979 42.2724 0.0000 0.0000 0.0000
# 4 0.0000 0.0000 0.0000 25.2967 0.0000 0.0000
# 5 0.0000 0.0000 0.0000 0.0000 -11.6814 0.0000
# 6 0.0000 0.0000 0.0000 0.0000 0.0000 6.5500
#
#
#
# Elastic Compliance Matrix: (Units=1/GPa)
#
#
# Indices 1 2 3 4 5 6 
#
# 1 0.025255 -0.005215 -0.000579 0.000000 0.000000 0.000000
# 2 -0.005215 0.006904 -0.003423 0.000000 0.000000 0.000000
# 3 -0.000579 -0.003423 0.025823 0.000000 0.000000 0.000000
# 4 0.000000 0.000000 0.000000 0.039531 0.000000 0.000000
# 5 0.000000 0.000000 0.000000 0.000000 -0.085606 0.000000
# 6 0.000000 0.000000 0.000000 0.000000 0.000000 0.152672
#
#
# Mechanical properties :
#
#
# Convention : Reuss Voigt Hill
#
# Bulk Modulus (GPa) = 25.28577 46.64689 35.96633
# Shear Modulus (GPa) = 25.48503 17.77556 21.63029
#
# Velocity S-wave (km/s) = 3.67347 3.06793 3.38427
# Velocity P-wave (km/s) = 5.60191 6.10321 5.85793
#
# Compressibility (1/GPa) = 0.03954793
#
# Stress axis : x y z
#
# Youngs Moduli (GPa) = 39.59679 144.85342 38.72573
#
# Poissons Ratio (x) = 0.75540 0.02242
# Poissons Ratio (y) = 0.20650 0.13254
# Poissons Ratio (z) = 0.02292 0.49577
#
# Static dielectric constant tensor:
#      x y z
#    x 1.675770 0.000000 0.000000 
#    y 0.000000 1.766790 0.000000 
#    z 0.000000 0.000000 1.689520 
# 
# From -- ./inp_files/39375.got.cif
#   From: 2010.05.17/outbox.cif.g08.bks.cpg/sg52_20_cif.got.tgz:39375.got - 2010.06.03 12:15:38.
