data_PCOD9412171
_publ_section_title
;
Structure prediction by ZEFSAII (Michael W. Deem and Ramdas Pophale) SiO2 
 PCOD9412171
Probable space group: P N N A
;
_chemical_formula_sum "Si O2"
_cell_formula_units_Z 40
_cell_length_a 17.109918
_cell_length_b 8.317660
_cell_length_c 12.869141
_cell_angle_alpha 90.000000
_cell_angle_beta 90.000000
_cell_angle_gamma 90.000000
_cell_volume 1831.465117
_symmetry_space_group_name_H-M "P N N A"
_symmetry_group_IT_number 52
_symmetry_cell_setting 'orthorhombic'
loop_
_space_group_symop_operation_xyz
x,y,z
1/2-x,-y,z
x,1/2-y,1/2-z
1/2-x,1/2+y,1/2-z
-x,-y,-z
1/2+x,y,-z
-x,1/2+y,1/2+z
1/2+x,1/2-y,1/2+z
loop_
_atom_site_type_symbol
_atom_site_label
_atom_site_fract_x
_atom_site_fract_y
_atom_site_fract_z
Si Si1 0.274253 0.177149 0.490493
Si Si2 0.626271 0.313474 0.864308
Si Si3 0.683598 0.893556 0.175544
Si Si4 0.060054 0.116290 0.942431
Si Si5 0.424662 0.326302 0.140401
O O1 0.218749 0.180018 0.389145
O O2 0.268848 0.307849 0.581002
O O3 0.361821 0.208862 0.449760
O O4 0.250000 0.000000 0.531904
O O5 0.613693 0.250000 0.750000
O O6 0.580004 0.481465 0.862193
O O7 0.601154 0.207252 0.962411
O O8 0.654012 0.750000 0.250000
O O9 0.750000 0.000000 0.230558
O O10 0.615805 0.008667 0.130615
O O11 0.008540 0.248472 0.881981
O O12 0.000000 0.000000 0.000000
O O13 0.398229 0.250000 0.250000
#
# Coordination Sequence:
#
# PCOD9412171 Si02
#       5
#     8   8   8   8   8
#     4  10  22  45  72 104 142 179 236 305 356 430
#     4  11  24  44  73 105 140 186 237 292 367 433
#     4  12  26  47  75 103 143 193 254 303 368 440
#     4  12  25  45  68 102 145 188 232 302 360 437
#     4  11  24  43  69 105 143 186 234 289 366 438
#
# _framework density 21.840437000000001
#
# number of rings (size 3 to 8) (size 9 to 14) (size 15 to 20)
#    0.000    0.800    4.000    3.000    0.000    3.200 
#    7.200    0.000    0.000    0.000    0.000    0.000 
#    0.000    0.000    0.000    0.000    0.000    0.000 
#
# Total GULP energy -223147.615122 kJ/mol
# GULP energy per Si atom -5578.690378 kJ/mol
# Density = 2.179073 g / cm^3
# Si number density = 21.840437 Si / 1000 Ang^3
#
#
#
# Elastic Constant Matrix: (Units=GPa)
#
#
# Indices 1 2 3 4 5 6 
#
# 1 106.3489 62.8098 40.7852 0.0000 0.0000 0.0000
# 2 62.8098 124.2304 64.5095 0.0000 0.0000 0.0000
# 3 40.7852 64.5095 115.2711 0.0000 0.0000 0.0000
# 4 0.0000 0.0000 0.0000 17.3848 0.0000 0.0000
# 5 0.0000 0.0000 0.0000 0.0000 11.5494 0.0000
# 6 0.0000 0.0000 0.0000 0.0000 0.0000 34.4452
#
#
#
# Elastic Compliance Matrix: (Units=1/GPa)
#
#
# Indices 1 2 3 4 5 6 
#
# 1 0.013554 -0.006150 -0.001354 0.000000 0.000000 0.000000
# 2 -0.006150 0.014137 -0.005736 0.000000 0.000000 0.000000
# 3 -0.001354 -0.005736 0.012364 0.000000 0.000000 0.000000
# 4 0.000000 0.000000 0.000000 0.057522 0.000000 0.000000
# 5 0.000000 0.000000 0.000000 0.000000 0.086584 0.000000
# 6 0.000000 0.000000 0.000000 0.000000 0.000000 0.029032
#
#
# Mechanical properties :
#
#
# Convention : Reuss Voigt Hill
#
# Bulk Modulus (GPa) = 73.65695 75.78437 74.72066
# Shear Modulus (GPa) = 20.47513 24.52560 22.50037
#
# Velocity S-wave (km/s) = 3.06516 3.35467 3.21318
# Velocity P-wave (km/s) = 6.80626 7.05546 6.93198
#
# Compressibility (1/GPa) = 0.01357645
#
# Stress axis : x y z
#
# Youngs Moduli (GPa) = 73.77654 70.73502 80.87828
#
# Poissons Ratio (x) = 0.43501 0.10953
# Poissons Ratio (y) = 0.45371 0.46390
# Poissons Ratio (z) = 0.09991 0.40572
#
# Static dielectric constant tensor:
#      x y z
#    x 2.266680 0.000000 0.000000 
#    y 0.000000 1.817630 0.000000 
#    z 0.000000 0.000000 1.741040 
# 
# From -- ./inp_files/20280.got.cif
#   From: 2010.05.17/outbox.cif.g08.bks.cpg/sg52_11_cif.got.tgz:20280.got - 2010.06.03 12:15:38.
