data_PCOD9412427
_publ_section_title
;
Structure prediction by ZEFSAII (Michael W. Deem and Ramdas Pophale) SiO2 
 PCOD9412427
Probable space group: P N N A
;
_chemical_formula_sum "Si O2"
_cell_formula_units_Z 40
_cell_length_a 12.369852
_cell_length_b 11.276751
_cell_length_c 13.295039
_cell_angle_alpha 90.000000
_cell_angle_beta 90.000000
_cell_angle_gamma 90.000000
_cell_volume 1854.548136
_symmetry_space_group_name_H-M "P N N A"
_symmetry_group_IT_number 52
_symmetry_cell_setting 'orthorhombic'
loop_
_space_group_symop_operation_xyz
x,y,z
1/2-x,-y,z
x,1/2-y,1/2-z
1/2-x,1/2+y,1/2-z
-x,-y,-z
1/2+x,y,-z
-x,1/2+y,1/2+z
1/2+x,1/2-y,1/2+z
loop_
_atom_site_type_symbol
_atom_site_label
_atom_site_fract_x
_atom_site_fract_y
_atom_site_fract_z
Si Si1 0.327749 0.112415 0.493480
Si Si2 0.364904 0.495685 0.312940
Si Si3 0.141032 0.290843 0.462739
Si Si4 0.024501 0.741483 0.360763
Si Si5 0.481693 0.145156 0.678825
O O1 0.250395 0.227290 0.496697
O O2 0.413491 0.143363 0.404947
O O3 0.396485 0.101008 0.596270
O O4 0.250000 0.000000 0.480211
O O5 0.250000 0.500000 0.256455
O O6 0.349702 0.583613 0.407660
O O7 0.388924 0.362970 0.346018
O O8 0.465044 0.546998 0.250034
O O9 0.061835 0.297470 0.557330
O O10 0.080897 0.205385 0.382191
O O11 0.974569 0.750000 0.250000
O O12 0.435721 0.250000 0.750000
#
# Coordination Sequence:
#
# PCOD9412427 Si02
#       5
#     8   8   8   8   8
#     4  11  25  43  67  97 139 180 215 277 340 393
#     4  11  22  42  74  99 128 175 226 280 334 393
#     4  10  23  44  66  93 138 174 218 278 335 394
#     4  11  26  40  67 101 130 176 234 275 326 403
#     4   9  23  43  66  99 136 172 220 275 332 403
#
# _framework density 21.568597
#
# number of rings (size 3 to 8) (size 9 to 14) (size 15 to 20)
#    0.000    1.600    2.000    0.600    8.400    2.400 
#    0.000    0.000    0.000    0.000    0.000    0.000 
#    0.000    0.000    0.000    0.000    0.000    0.000 
#
# Total GULP energy -223633.097748 kJ/mol
# GULP energy per Si atom -5590.827444 kJ/mol
# Density = 2.151951 g / cm^3
# Si number density = 21.568597 Si / 1000 Ang^3
#
#
#
# Elastic Constant Matrix: (Units=GPa)
#
#
# Indices 1 2 3 4 5 6 
#
# 1 44.0175 8.9636 38.5359 0.0000 0.0000 0.0000
# 2 8.9636 85.3165 43.1148 0.0000 0.0000 0.0000
# 3 38.5359 43.1148 131.0327 0.0000 0.0000 0.0000
# 4 0.0000 0.0000 0.0000 -25.3594 0.0000 0.0000
# 5 0.0000 0.0000 0.0000 0.0000 24.0685 0.0000
# 6 0.0000 0.0000 0.0000 0.0000 0.0000 30.7292
#
#
#
# Elastic Compliance Matrix: (Units=1/GPa)
#
#
# Indices 1 2 3 4 5 6 
#
# 1 0.030779 0.001608 -0.009581 0.000000 0.000000 0.000000
# 2 0.001608 0.014143 -0.005126 0.000000 0.000000 0.000000
# 3 -0.009581 -0.005126 0.012136 0.000000 0.000000 0.000000
# 4 0.000000 0.000000 0.000000 -0.039433 0.000000 0.000000
# 5 0.000000 0.000000 0.000000 0.000000 0.041548 0.000000
# 6 0.000000 0.000000 0.000000 0.000000 0.000000 0.032542
#
#
# Mechanical properties :
#
#
# Convention : Reuss Voigt Hill
#
# Bulk Modulus (GPa) = 32.40561 49.06616 40.73588
# Shear Modulus (GPa) = 39.00171 17.20449 28.10310
#
# Velocity S-wave (km/s) = 4.25698 2.82736 3.61357
# Velocity P-wave (km/s) = 6.26255 5.78419 6.02812
#
# Compressibility (1/GPa) = 0.03085886
#
# Stress axis : x y z
#
# Youngs Moduli (GPa) = 32.49020 70.70761 82.39849
#
# Poissons Ratio (x) = -0.11370 0.78945
# Poissons Ratio (y) = -0.05224 0.42241
# Poissons Ratio (z) = 0.31128 0.36248
#
# Static dielectric constant tensor:
#      x y z
#    x 1.763660 0.000000 0.000000 
#    y 0.000000 1.792570 0.000000 
#    z 0.000000 0.000000 1.789080 
# 
# From -- ./inp_files/25802.got.cif
#   From: 2010.05.17/outbox.cif.g08.bks.cpg/sg52_13_cif.got.tgz:25802.got - 2010.06.03 12:15:38.
