data_PCOD9412897
_publ_section_title
;
Structure prediction by ZEFSAII (Michael W. Deem and Ramdas Pophale) SiO2 
 PCOD9412897
Probable space group: P N N A
;
_chemical_formula_sum "Si O2"
_cell_formula_units_Z 48
_cell_length_a 10.247635
_cell_length_b 15.820422
_cell_length_c 12.322173
_cell_angle_alpha 90.000000
_cell_angle_beta 90.000000
_cell_angle_gamma 90.000000
_cell_volume 1997.694225
_symmetry_space_group_name_H-M "P N N A"
_symmetry_group_IT_number 52
_symmetry_cell_setting 'orthorhombic'
loop_
_space_group_symop_operation_xyz
x,y,z
1/2-x,-y,z
x,1/2-y,1/2-z
1/2-x,1/2+y,1/2-z
-x,-y,-z
1/2+x,y,-z
-x,1/2+y,1/2+z
1/2+x,1/2-y,1/2+z
loop_
_atom_site_type_symbol
_atom_site_label
_atom_site_fract_x
_atom_site_fract_y
_atom_site_fract_z
Si Si1 0.359624 0.230753 0.976676
Si Si2 0.597279 0.426121 0.244450
Si Si3 0.101497 0.355133 0.447088
Si Si4 0.358566 0.367963 0.129297
Si Si5 0.846570 0.750000 0.750000
Si Si6 0.250000 0.000000 0.543514
Si Si7 0.246929 0.750000 0.750000
Si Si8 0.250000 0.000000 0.935883
O O1 0.210450 0.210034 0.005956
O O2 0.429571 0.296749 0.056399
O O3 0.452850 0.149379 0.988922
O O4 0.341798 0.265212 0.855571
O O5 0.446234 0.408081 0.222860
O O6 0.647810 0.459096 0.127611
O O7 0.668644 0.335813 0.267904
O O8 0.635709 0.491468 0.339803
O O9 0.082865 0.316797 0.327649
O O10 0.175856 0.439153 0.478710
O O11 0.244454 0.314568 0.183644
O O12 0.310804 0.432622 0.038601
#
# Coordination Sequence:
#
# PCOD9412897 Si02
#       8
#     8   8   8   8   4   4   4   4
#     4  11  24  43  75 103 142 198 249 303 370 453
#     4  11  24  44  70 108 144 194 251 304 381 445
#     4  11  25  48  69 106 146 187 249 305 377 451
#     4  11  24  44  73  99 149 195 247 309 376 453
#     4  10  26  46  66 106 133 194 249 290 381 458
#     4  11  24  45  64 108 146 185 252 309 382 426
#     4  12  20  44  74 108 141 198 259 304 363 480
#     4  11  26  45  72 110 142 191 244 317 376 428
#
# _framework density 24.027701
#
# number of rings (size 3 to 8) (size 9 to 14) (size 15 to 20)
#    0.000    1.000    3.333    2.500    7.000    1.333 
#    3.000    0.000    0.000    0.000    0.000    0.000 
#    0.000    0.000    0.000    0.000    0.000    0.000 
#
# Total GULP energy -267259.244711 kJ/mol
# GULP energy per Si atom -5567.900931 kJ/mol
# Density = 2.397301 g / cm^3
# Si number density = 24.027701 Si / 1000 Ang^3
#
#
#
# Elastic Constant Matrix: (Units=GPa)
#
#
# Indices 1 2 3 4 5 6 
#
# 1 42.8063 -4.5855 -4.3669 0.0000 0.0000 0.0000
# 2 -4.5855 64.2320 14.1951 0.0000 0.0000 0.0000
# 3 -4.3669 14.1951 74.2732 0.0000 0.0000 0.0000
# 4 0.0000 0.0000 0.0000 53.7667 0.0000 0.0000
# 5 0.0000 0.0000 0.0000 0.0000 -11.0327 0.0000
# 6 0.0000 0.0000 0.0000 0.0000 0.0000 32.1649
#
#
#
# Elastic Compliance Matrix: (Units=1/GPa)
#
#
# Indices 1 2 3 4 5 6 
#
# 1 0.023629 0.001441 0.001114 0.000000 0.000000 0.000000
# 2 0.001441 0.016343 -0.003039 0.000000 0.000000 0.000000
# 3 0.001114 -0.003039 0.014110 0.000000 0.000000 0.000000
# 4 0.000000 0.000000 0.000000 0.018599 0.000000 0.000000
# 5 0.000000 0.000000 0.000000 0.000000 -0.090640 0.000000
# 6 0.000000 0.000000 0.000000 0.000000 0.000000 0.031090
#
#
# Mechanical properties :
#
#
# Convention : Reuss Voigt Hill
#
# Bulk Modulus (GPa) = 18.82751 21.31077 20.06914
# Shear Modulus (GPa) = 157.21350 26.71769 91.96560
#
# Velocity S-wave (km/s) = 8.09766 3.33821 6.19338
# Velocity P-wave (km/s) = 9.76126 4.87306 7.71457
#
# Compressibility (1/GPa) = 0.05311377
#
# Stress axis : x y z
#
# Youngs Moduli (GPa) = 42.32083 61.18840 70.87134
#
# Poissons Ratio (x) = -0.08815 -0.07895
# Poissons Ratio (y) = -0.06097 0.21536
# Poissons Ratio (z) = -0.04714 0.18594
#
# Static dielectric constant tensor:
#      x y z
#    x 1.955730 0.000000 0.000000 
#    y 0.000000 2.083360 0.000000 
#    z 0.000000 0.000000 2.013000 
# 
# From -- ./inp_files/18256.got.cif
#   From: 2010.05.17/outbox.cif.g08.bks.cpg/sg52_10_cif.got.tgz:18256.got - 2010.06.03 12:15:38.
