data_PCOD9412451
_publ_section_title
;
Structure prediction by ZEFSAII (Michael W. Deem and Ramdas Pophale) SiO2 
 PCOD9412451
Probable space group: P N N A
;
_chemical_formula_sum "Si O2"
_cell_formula_units_Z 28
_cell_length_a 8.799602
_cell_length_b 5.029360
_cell_length_c 30.258487
_cell_angle_alpha 90.000000
_cell_angle_beta 90.000000
_cell_angle_gamma 90.000000
_cell_volume 1339.130685
_symmetry_space_group_name_H-M "P N N A"
_symmetry_group_IT_number 52
_symmetry_cell_setting 'orthorhombic'
loop_
_space_group_symop_operation_xyz
x,y,z
1/2-x,-y,z
x,1/2-y,1/2-z
1/2-x,1/2+y,1/2-z
-x,-y,-z
1/2+x,y,-z
-x,1/2+y,1/2+z
1/2+x,1/2-y,1/2+z
loop_
_atom_site_type_symbol
_atom_site_label
_atom_site_fract_x
_atom_site_fract_y
_atom_site_fract_z
Si Si1 0.750000 0.000000 0.995495
Si Si2 0.029119 0.822730 0.936608
Si Si3 0.911811 0.653304 0.121655
Si Si4 0.141653 0.749111 0.198167
O O1 0.664747 0.792056 0.027786
O O2 0.879960 0.883247 0.964677
O O3 0.000265 0.567024 0.906925
O O4 0.079020 0.074060 0.906386
O O5 0.750000 0.500000 0.127908
O O6 0.995647 0.721714 0.167205
O O7 0.250000 0.500000 0.190359
O O8 0.099049 0.750000 0.250000
O O9 0.250000 0.000000 0.188546
#
# Coordination Sequence:
#
# PCOD9412451 Si02
#       4
#     4   8   8   8
#     4  10  24  44  62  94 130 178 220 270 326 374
#     4  11  25  41  65  93 133 172 220 271 320 386
#     4  12  24  43  65 100 132 170 215 272 326 392
#     4  10  23  44  70  99 129 167 217 271 327 400
#
# _framework density 20.909085999999999
#
# number of rings (size 3 to 8) (size 9 to 14) (size 15 to 20)
#    0.000    1.143    2.857    1.714    6.000    6.857 
#    0.000    7.143    0.000    0.000    0.000    0.000 
#    0.000    0.000    0.000    0.000    0.000    0.000 
#
# Total GULP energy -156479.233797 kJ/mol
# GULP energy per Si atom -5588.544064 kJ/mol
# Density = 2.086150 g / cm^3
# Si number density = 20.909086 Si / 1000 Ang^3
#
#
#
# Elastic Constant Matrix: (Units=GPa)
#
#
# Indices 1 2 3 4 5 6 
#
# 1 106.2856 20.3800 69.6431 0.0000 0.0000 0.0000
# 2 20.3800 141.2840 44.1448 0.0000 0.0000 0.0000
# 3 69.6431 44.1448 116.7720 0.0000 0.0000 0.0000
# 4 0.0000 0.0000 0.0000 112.9894 0.0000 0.0000
# 5 0.0000 0.0000 0.0000 0.0000 20.5615 0.0000
# 6 0.0000 0.0000 0.0000 0.0000 0.0000 72.6790
#
#
#
# Elastic Compliance Matrix: (Units=1/GPa)
#
#
# Indices 1 2 3 4 5 6 
#
# 1 0.015512 0.000741 -0.009531 0.000000 0.000000 0.000000
# 2 0.000741 0.008061 -0.003489 0.000000 0.000000 0.000000
# 3 -0.009531 -0.003489 0.015567 0.000000 0.000000 0.000000
# 4 0.000000 0.000000 0.000000 0.008850 0.000000 0.000000
# 5 0.000000 0.000000 0.000000 0.000000 0.048635 0.000000
# 6 0.000000 0.000000 0.000000 0.000000 0.000000 0.013759
#
#
# Mechanical properties :
#
#
# Convention : Reuss Voigt Hill
#
# Bulk Modulus (GPa) = 68.58426 70.29750 69.44088
# Shear Modulus (GPa) = 35.76411 56.59087 46.17749
#
# Velocity S-wave (km/s) = 4.14025 5.20807 4.70455
# Velocity P-wave (km/s) = 7.46512 8.35816 7.92423
#
# Compressibility (1/GPa) = 0.01458060
#
# Stress axis : x y z
#
# Youngs Moduli (GPa) = 64.46626 124.04893 64.23731
#
# Poissons Ratio (x) = -0.09186 0.61227
# Poissons Ratio (y) = -0.04774 0.22414
# Poissons Ratio (z) = 0.61445 0.43283
#
# Static dielectric constant tensor:
#      x y z
#    x 1.759980 0.000000 0.000000 
#    y 0.000000 1.768260 0.000000 
#    z 0.000000 0.000000 1.644060 
# 
# From -- ./inp_files/41964.got.cif
#   From: 2010.05.17/outbox.cif.g08.bks.cpg/sg52_21_cif.got.tgz:41964.got - 2010.06.03 12:15:38.
