data_PCOD9412155
_publ_section_title
;
Structure prediction by ZEFSAII (Michael W. Deem and Ramdas Pophale) SiO2 
 PCOD9412155
Probable space group: P N N A
;
_chemical_formula_sum "Si O2"
_cell_formula_units_Z 40
_cell_length_a 9.259266
_cell_length_b 16.695157
_cell_length_c 11.476375
_cell_angle_alpha 90.000000
_cell_angle_beta 90.000000
_cell_angle_gamma 90.000000
_cell_volume 1774.074277
_symmetry_space_group_name_H-M "P N N A"
_symmetry_group_IT_number 52
_symmetry_cell_setting 'orthorhombic'
loop_
_space_group_symop_operation_xyz
x,y,z
1/2-x,-y,z
x,1/2-y,1/2-z
1/2-x,1/2+y,1/2-z
-x,-y,-z
1/2+x,y,-z
-x,1/2+y,1/2+z
1/2+x,1/2-y,1/2+z
loop_
_atom_site_type_symbol
_atom_site_label
_atom_site_fract_x
_atom_site_fract_y
_atom_site_fract_z
Si Si1 0.250000 0.500000 0.654530
Si Si2 0.521023 0.252061 0.386493
Si Si3 0.080548 0.086383 0.010358
Si Si4 0.250000 0.500000 0.057443
Si Si5 0.982253 0.924131 0.731189
Si Si6 0.823736 0.163651 0.433642
O O1 0.224289 0.426336 0.566781
O O2 0.389735 0.484492 0.731116
O O3 0.489608 0.250000 0.250000
O O4 0.509569 0.339533 0.444672
O O5 0.681466 0.214267 0.403439
O O6 0.407437 0.200292 0.457754
O O7 0.096879 0.099733 0.148144
O O8 0.000000 0.000000 0.000000
O O9 0.121963 0.468862 0.141415
O O10 0.215705 0.574615 0.975302
O O11 0.063409 0.849166 0.671918
#
# Coordination Sequence:
#
# PCOD9412155 Si02
#       6
#     4   8   8   4   8   8
#     4  10  22  44  78 108 142 198 240 300 376 466
#     4  12  30  49  76 110 157 197 259 320 385 460
#     4  10  25  45  75 113 146 198 251 310 383 456
#     4  12  26  48  74 116 152 196 258 310 394 456
#     4  11  24  45  78 104 153 190 252 306 377 456
#     4  12  28  49  74 112 146 204 250 317 388 459
#
# _framework density 22.546970999999999
#
# number of rings (size 3 to 8) (size 9 to 14) (size 15 to 20)
#    0.000    0.800    2.000    3.000   16.800    1.600 
#    0.000    0.000    0.000    0.000    0.000    0.000 
#    0.000    0.000    0.000    0.000    0.000    0.000 
#
# Total GULP energy -223709.731089 kJ/mol
# GULP energy per Si atom -5592.743277 kJ/mol
# Density = 2.249565 g / cm^3
# Si number density = 22.546971 Si / 1000 Ang^3
#
#
#
# Elastic Constant Matrix: (Units=GPa)
#
#
# Indices 1 2 3 4 5 6 
#
# 1 49.9001 17.3918 20.8242 0.0000 0.0000 0.0000
# 2 17.3918 130.8110 38.4920 0.0000 0.0000 0.0000
# 3 20.8242 38.4920 150.3040 0.0000 0.0000 0.0000
# 4 0.0000 0.0000 0.0000 32.2878 0.0000 0.0000
# 5 0.0000 0.0000 0.0000 0.0000 -14.3513 0.0000
# 6 0.0000 0.0000 0.0000 0.0000 0.0000 35.4584
#
#
#
# Elastic Compliance Matrix: (Units=1/GPa)
#
#
# Indices 1 2 3 4 5 6 
#
# 1 0.021828 -0.002176 -0.002467 0.000000 0.000000 0.000000
# 2 -0.002176 0.008485 -0.001871 0.000000 0.000000 0.000000
# 3 -0.002467 -0.001871 0.007474 0.000000 0.000000 0.000000
# 4 0.000000 0.000000 0.000000 0.030971 0.000000 0.000000
# 5 0.000000 0.000000 0.000000 0.000000 -0.069680 0.000000
# 6 0.000000 0.000000 0.000000 0.000000 0.000000 0.028202
#
#
# Mechanical properties :
#
#
# Convention : Reuss Voigt Hill
#
# Bulk Modulus (GPa) = 40.39114 53.82568 47.10841
# Shear Modulus (GPa) = 102.96142 27.63280 65.29711
#
# Velocity S-wave (km/s) = 6.76494 3.50461 5.38733
# Velocity P-wave (km/s) = 8.88664 6.34830 7.72247
#
# Compressibility (1/GPa) = 0.02475791
#
# Stress axis : x y z
#
# Youngs Moduli (GPa) = 45.81268 117.86047 133.79354
#
# Poissons Ratio (x) = 0.25649 0.33005
# Poissons Ratio (y) = 0.09970 0.25037
# Poissons Ratio (z) = 0.11301 0.22056
#
# Static dielectric constant tensor:
#      x y z
#    x 1.871740 0.000000 0.000000 
#    y 0.000000 -12.187500 0.000000 
#    z 0.000000 0.000000 1.857330 
# 
# From -- ./inp_files/16724.got.cif
#   From: 2010.05.17/outbox.cif.g08.bks.cpg/sg52_9_cif.got.tgz:16724.got - 2010.06.03 12:15:38.
