data_PCOD9412292
_publ_section_title
;
Structure prediction by ZEFSAII (Michael W. Deem and Ramdas Pophale) SiO2 
 PCOD9412292
Probable space group: P N N A
;
_chemical_formula_sum "Si O2"
_cell_formula_units_Z 48
_cell_length_a 8.180686
_cell_length_b 24.511251
_cell_length_c 9.950110
_cell_angle_alpha 90.000000
_cell_angle_beta 90.000000
_cell_angle_gamma 90.000000
_cell_volume 1995.184594
_symmetry_space_group_name_H-M "P N N A"
_symmetry_group_IT_number 52
_symmetry_cell_setting 'orthorhombic'
loop_
_space_group_symop_operation_xyz
x,y,z
1/2-x,-y,z
x,1/2-y,1/2-z
1/2-x,1/2+y,1/2-z
-x,-y,-z
1/2+x,y,-z
-x,1/2+y,1/2+z
1/2+x,1/2-y,1/2+z
loop_
_atom_site_type_symbol
_atom_site_label
_atom_site_fract_x
_atom_site_fract_y
_atom_site_fract_z
Si Si1 0.463295 0.725957 0.872304
Si Si2 0.528408 0.889433 0.978479
Si Si3 0.197458 0.937921 0.457785
Si Si4 0.122292 0.396577 0.808547
Si Si5 0.678058 0.438377 0.683428
Si Si6 0.115093 0.727213 0.609159
O O1 0.568079 0.750000 0.750000
O O2 0.405759 0.666239 0.841328
O O3 0.311336 0.767873 0.884804
O O4 0.566217 0.726992 0.004024
O O5 0.400476 0.899416 0.852963
O O6 0.696472 0.901086 0.900689
O O7 0.486453 0.931725 0.097928
O O8 0.549633 0.830440 0.052105
O O9 0.218432 0.912356 0.605153
O O10 0.022818 0.929965 0.384853
O O11 0.318936 0.917858 0.337372
O O12 0.250000 0.000000 0.476497
O O13 0.750000 0.500000 0.682330
O O14 0.051094 0.750000 0.750000
#
# Coordination Sequence:
#
# PCOD9412292 Si02
#       6
#     8   8   8   8   8   8
#     4  11  23  43  62  93 132 163 221 267 325 389
#     4  11  23  41  65  93 132 169 218 271 328 392
#     4  10  23  42  65  98 134 170 221 274 329 394
#     4  11  23  41  66  95 129 175 215 272 330 392
#     4  10  23  41  65  96 132 172 219 271 330 394
#     4  11  25  41  65  93 126 170 214 269 326 391
#
# _framework density 24.057925999999998
#
# number of rings (size 3 to 8) (size 9 to 14) (size 15 to 20)
#    0.000    1.333    1.667    3.000    4.667    2.667 
#    0.000    0.000    0.000    0.000    0.000    0.000 
#    0.000    0.000    0.000    0.000    0.000    0.000 
#
# Total GULP energy -267827.412926 kJ/mol
# GULP energy per Si atom -5579.737769 kJ/mol
# Density = 2.400317 g / cm^3
# Si number density = 24.057926 Si / 1000 Ang^3
#
#
#
# Elastic Constant Matrix: (Units=GPa)
#
#
# Indices 1 2 3 4 5 6 
#
# 1 37.3581 1.8836 24.1507 0.0000 0.0000 0.0000
# 2 1.8836 72.8810 17.8814 0.0000 0.0000 0.0000
# 3 24.1507 17.8814 174.9794 0.0000 0.0000 0.0000
# 4 0.0000 0.0000 0.0000 29.3386 0.0000 0.0000
# 5 0.0000 0.0000 0.0000 0.0000 26.9095 0.0000
# 6 0.0000 0.0000 0.0000 0.0000 0.0000 27.5170
#
#
#
# Elastic Compliance Matrix: (Units=1/GPa)
#
#
# Indices 1 2 3 4 5 6 
#
# 1 0.029394 0.000242 -0.004082 0.000000 0.000000 0.000000
# 2 0.000242 0.014076 -0.001472 0.000000 0.000000 0.000000
# 3 -0.004082 -0.001472 0.006429 0.000000 0.000000 0.000000
# 4 0.000000 0.000000 0.000000 0.034085 0.000000 0.000000
# 5 0.000000 0.000000 0.000000 0.000000 0.037162 0.000000
# 6 0.000000 0.000000 0.000000 0.000000 0.000000 0.036341
#
#
# Mechanical properties :
#
#
# Convention : Reuss Voigt Hill
#
# Bulk Modulus (GPa) = 25.46118 41.45000 33.45559
# Shear Modulus (GPa) = 27.59353 32.83988 30.21671
#
# Velocity S-wave (km/s) = 3.39036 3.69864 3.54785
# Velocity P-wave (km/s) = 5.09238 5.95874 5.54251
#
# Compressibility (1/GPa) = 0.03927547
#
# Stress axis : x y z
#
# Youngs Moduli (GPa) = 34.02000 71.04365 155.55176
#
# Poissons Ratio (x) = -0.01717 0.63492
# Poissons Ratio (y) = -0.00822 0.22894
# Poissons Ratio (z) = 0.13886 0.10456
#
# Static dielectric constant tensor:
#      x y z
#    x 2.014880 0.000000 0.000000 
#    y 0.000000 1.882590 0.000000 
#    z 0.000000 0.000000 2.057420 
# 
# From -- ./inp_files/8863.got.cif
#   From: 2010.05.17/outbox.cif.g08.bks.cpg/sg52_5_cif.got.tgz:8863.got - 2010.06.03 12:15:38.
