data_PCOD9412119
_publ_section_title
;
Structure prediction by ZEFSAII (Michael W. Deem and Ramdas Pophale) SiO2 
 PCOD9412119
Probable space group: P N N A
;
_chemical_formula_sum "Si O2"
_cell_formula_units_Z 56
_cell_length_a 8.442852
_cell_length_b 19.450160
_cell_length_c 15.605790
_cell_angle_alpha 90.000000
_cell_angle_beta 90.000000
_cell_angle_gamma 90.000000
_cell_volume 2562.702031
_symmetry_space_group_name_H-M "P N N A"
_symmetry_group_IT_number 52
_symmetry_cell_setting 'orthorhombic'
loop_
_space_group_symop_operation_xyz
x,y,z
1/2-x,-y,z
x,1/2-y,1/2-z
1/2-x,1/2+y,1/2-z
-x,-y,-z
1/2+x,y,-z
-x,1/2+y,1/2+z
1/2+x,1/2-y,1/2+z
loop_
_atom_site_type_symbol
_atom_site_label
_atom_site_fract_x
_atom_site_fract_y
_atom_site_fract_z
Si Si1 0.555888 0.643248 0.933294
Si Si2 0.250000 0.000000 0.848800
Si Si3 0.049573 0.600309 0.767167
Si Si4 0.156453 0.714702 0.512787
Si Si5 0.796286 0.793400 0.332318
Si Si6 0.500000 0.000000 0.000000
Si Si7 0.863470 0.936334 0.574932
Si Si8 0.617204 0.127200 0.901077
O O1 0.433413 0.653634 0.856864
O O2 0.732769 0.622593 0.907924
O O3 0.574064 0.716215 0.980254
O O4 0.474963 0.589216 0.998221
O O5 0.181636 0.939943 0.788086
O O6 0.105744 0.018421 0.912643
O O7 0.135441 0.664694 0.812507
O O8 0.970698 0.554241 0.841204
O O9 0.915086 0.623563 0.699784
O O10 0.269878 0.741851 0.588354
O O11 0.239645 0.673321 0.435990
O O12 0.036638 0.662755 0.557157
O O13 0.839659 0.750000 0.250000
O O14 0.614347 0.052220 0.943053
O O15 0.750000 0.000000 0.554260
#
# Coordination Sequence:
#
# PCOD9412119 Si02
#       8
#     8   4   8   8   8   4   8   8
#     4  12  25  46  71 100 139 183 243 298 354 440
#     4  10  24  46  70 100 142 188 226 292 348 424
#     4  11  25  45  68 103 145 180 230 300 359 410
#     4  12  22  43  70  97 134 181 232 278 357 419
#     4  12  25  42  70 101 137 179 231 297 358 424
#     4  10  22  44  68 100 136 182 236 270 342 426
#     4  12  26  47  70 102 139 192 240 297 359 430
#     4  11  23  42  70  98 136 186 222 282 345 422
#
# _framework density 21.851935999999998
#
# number of rings (size 3 to 8) (size 9 to 14) (size 15 to 20)
#    0.000    0.571    5.714    2.143    2.000    1.143 
#   11.571    0.000    0.000    0.000    0.000    0.000 
#    0.000    0.000    0.000    0.000    0.000    0.000 
#
# Total GULP energy -312013.490174 kJ/mol
# GULP energy per Si atom -5571.669467 kJ/mol
# Density = 2.180220 g / cm^3
# Si number density = 21.851936 Si / 1000 Ang^3
#
#
#
# Elastic Constant Matrix: (Units=GPa)
#
#
# Indices 1 2 3 4 5 6 
#
# 1 52.0816 24.8806 39.7792 0.0000 0.0000 0.0000
# 2 24.8806 61.3971 37.6854 0.0000 0.0000 0.0000
# 3 39.7792 37.6854 53.5409 0.0000 0.0000 0.0000
# 4 0.0000 0.0000 0.0000 26.4647 0.0000 0.0000
# 5 0.0000 0.0000 0.0000 0.0000 26.7002 0.0000
# 6 0.0000 0.0000 0.0000 0.0000 0.0000 43.2362
#
#
#
# Elastic Compliance Matrix: (Units=1/GPa)
#
#
# Indices 1 2 3 4 5 6 
#
# 1 0.044948 0.004020 -0.036224 0.000000 0.000000 0.000000
# 2 0.004020 0.029036 -0.023424 0.000000 0.000000 0.000000
# 3 -0.036224 -0.023424 0.062077 0.000000 0.000000 0.000000
# 4 0.000000 0.000000 0.000000 0.037786 0.000000 0.000000
# 5 0.000000 0.000000 0.000000 0.000000 0.037453 0.000000
# 6 0.000000 0.000000 0.000000 0.000000 0.000000 0.023129
#
#
# Mechanical properties :
#
#
# Convention : Reuss Voigt Hill
#
# Bulk Modulus (GPa) = 40.31431 41.30111 40.80771
# Shear Modulus (GPa) = 14.12616 23.59185 18.85900
#
# Velocity S-wave (km/s) = 2.54529 3.28933 2.94093
# Velocity P-wave (km/s) = 5.20835 5.77648 5.49976
#
# Compressibility (1/GPa) = 0.02480509
#
# Stress axis : x y z
#
# Youngs Moduli (GPa) = 22.24805 34.44020 16.10890
#
# Poissons Ratio (x) = -0.13843 0.58353
# Poissons Ratio (y) = -0.08943 0.37733
# Poissons Ratio (z) = 0.80591 0.80671
#
# Static dielectric constant tensor:
#      x y z
#    x 1.844090 0.000000 0.000000 
#    y 0.000000 1.836140 0.000000 
#    z 0.000000 0.000000 1.766580 
# 
# From -- ./inp_files/24992.got.cif
#   From: 2010.05.17/outbox.cif.g08.bks.cpg/sg52_13_cif.got.tgz:24992.got - 2010.06.03 12:15:38.
