data_PCOD9412248
_publ_section_title
;
Structure prediction by ZEFSAII (Michael W. Deem and Ramdas Pophale) SiO2 
 PCOD9412248
Probable space group: P N N A
;
_chemical_formula_sum "Si O2"
_cell_formula_units_Z 32
_cell_length_a 5.261865
_cell_length_b 12.477340
_cell_length_c 19.727134
_cell_angle_alpha 90.000000
_cell_angle_beta 90.000000
_cell_angle_gamma 90.000000
_cell_volume 1295.166807
_symmetry_space_group_name_H-M "P N N A"
_symmetry_group_IT_number 52
_symmetry_cell_setting 'orthorhombic'
loop_
_space_group_symop_operation_xyz
x,y,z
1/2-x,-y,z
x,1/2-y,1/2-z
1/2-x,1/2+y,1/2-z
-x,-y,-z
1/2+x,y,-z
-x,1/2+y,1/2+z
1/2+x,1/2-y,1/2+z
loop_
_atom_site_type_symbol
_atom_site_label
_atom_site_fract_x
_atom_site_fract_y
_atom_site_fract_z
Si Si1 0.934968 0.745660 0.141699
Si Si2 0.005441 0.547377 0.075494
Si Si3 0.498625 0.427784 0.262106
Si Si4 0.166087 0.881898 0.954277
O O1 0.035988 0.674104 0.079341
O O2 0.685749 0.796485 0.106795
O O3 0.935152 0.656276 0.201042
O O4 0.062680 0.849244 0.174302
O O5 0.750000 0.500000 0.106770
O O6 0.250000 0.500000 0.110367
O O7 0.000000 0.500000 0.000000
O O8 0.250000 0.500000 0.252463
O O9 0.750000 0.500000 0.271761
O O10 0.250000 0.000000 0.927565
O O11 0.392168 0.871241 0.010586
#
# Coordination Sequence:
#
# PCOD9412248 Si02
#       4
#     8   8   8   8
#     4  11  25  44  76  99 141 192 230 293 367 408
#     4  10  23  39  62  99 137 173 221 283 341 420
#     4  11  27  48  70 104 138 183 247 296 341 424
#     4  10  24  42  65 101 141 182 232 283 346 431
#
# _framework density 24.707245
#
# number of rings (size 3 to 8) (size 9 to 14) (size 15 to 20)
#    0.000    1.500    0.000    2.250    7.000   13.000 
#    0.000    0.000    0.000    0.000    0.000    0.000 
#    0.000    0.000    0.000    0.000    0.000    0.000 
#
# Total GULP energy -178361.467802 kJ/mol
# GULP energy per Si atom -5573.795869 kJ/mol
# Density = 2.465101 g / cm^3
# Si number density = 24.707245 Si / 1000 Ang^3
#
#
#
# Elastic Constant Matrix: (Units=GPa)
#
#
# Indices 1 2 3 4 5 6 
#
# 1 169.2862 57.8731 20.5569 0.0000 0.0000 0.0000
# 2 57.8731 182.6539 67.9010 0.0000 0.0000 0.0000
# 3 20.5569 67.9010 111.9998 0.0000 0.0000 0.0000
# 4 0.0000 0.0000 0.0000 180.7042 0.0000 0.0000
# 5 0.0000 0.0000 0.0000 0.0000 33.7712 0.0000
# 6 0.0000 0.0000 0.0000 0.0000 0.0000 31.8866
#
#
#
# Elastic Compliance Matrix: (Units=1/GPa)
#
#
# Indices 1 2 3 4 5 6 
#
# 1 0.006625 -0.002126 0.000073 0.000000 0.000000 0.000000
# 2 -0.002126 0.007750 -0.004308 0.000000 0.000000 0.000000
# 3 0.000073 -0.004308 0.011527 0.000000 0.000000 0.000000
# 4 0.000000 0.000000 0.000000 0.005534 0.000000 0.000000
# 5 0.000000 0.000000 0.000000 0.000000 0.029611 0.000000
# 6 0.000000 0.000000 0.000000 0.000000 0.000000 0.031361
#
#
# Mechanical properties :
#
#
# Convention : Reuss Voigt Hill
#
# Bulk Modulus (GPa) = 75.87627 84.06687 79.97157
# Shear Modulus (GPa) = 45.65173 70.44634 58.04903
#
# Velocity S-wave (km/s) = 4.30316 5.34550 4.85240
# Velocity P-wave (km/s) = 7.44757 8.49695 7.98951
#
# Compressibility (1/GPa) = 0.01317935
#
# Stress axis : x y z
#
# Youngs Moduli (GPa) = 150.93882 129.02953 86.75179
#
# Poissons Ratio (x) = 0.27436 -0.00634
# Poissons Ratio (y) = 0.32095 0.37376
# Poissons Ratio (z) = -0.01103 0.55590
#
# Static dielectric constant tensor:
#      x y z
#    x 1.954340 0.000000 0.000000 
#    y 0.000000 2.010970 0.000000 
#    z 0.000000 0.000000 3.253820 
# 
# From -- ./inp_files/34817.got.cif
#   From: 2010.05.17/outbox.cif.g08.bks.cpg/sg52_18_cif.got.tgz:34817.got - 2010.06.03 12:15:38.
