data_PCOD9412988
_publ_section_title
;
Structure prediction by ZEFSAII (Michael W. Deem and Ramdas Pophale) SiO2 
 PCOD9412988
Probable space group: P N N A
;
_chemical_formula_sum "Si O2"
_cell_formula_units_Z 64
_cell_length_a 11.301591
_cell_length_b 15.205472
_cell_length_c 18.777545
_cell_angle_alpha 90.000000
_cell_angle_beta 90.000000
_cell_angle_gamma 90.000000
_cell_volume 3226.846477
_symmetry_space_group_name_H-M "P N N A"
_symmetry_group_IT_number 52
_symmetry_cell_setting 'orthorhombic'
loop_
_space_group_symop_operation_xyz
x,y,z
1/2-x,-y,z
x,1/2-y,1/2-z
1/2-x,1/2+y,1/2-z
-x,-y,-z
1/2+x,y,-z
-x,1/2+y,1/2+z
1/2+x,1/2-y,1/2+z
loop_
_atom_site_type_symbol
_atom_site_label
_atom_site_fract_x
_atom_site_fract_y
_atom_site_fract_z
Si Si1 0.626430 0.954553 0.022465
Si Si2 0.234505 0.857901 0.109465
Si Si3 0.117467 0.700308 0.035411
Si Si4 0.004408 0.571425 0.135128
Si Si5 0.301677 0.598146 0.965227
Si Si6 0.506486 0.298776 0.576571
Si Si7 0.197195 0.853780 0.267132
Si Si8 0.586679 0.119387 0.623836
O O1 0.592872 0.874184 0.075875
O O2 0.750000 0.000000 0.048882
O O3 0.668426 0.916451 0.947153
O O4 0.500000 0.000000 0.000000
O O5 0.179024 0.760749 0.094465
O O6 0.370207 0.847576 0.087852
O O7 0.220014 0.891945 0.188817
O O8 0.084447 0.607576 0.069580
O O9 0.204873 0.675135 0.971454
O O10 0.010607 0.755263 0.001833
O O11 0.071463 0.614207 0.201850
O O12 0.009497 0.466669 0.139791
O O13 0.879401 0.605408 0.106225
O O14 0.250000 0.500000 0.963763
O O15 0.368567 0.607491 0.041958
O O16 0.518166 0.212620 0.626805
O O17 0.199995 0.750000 0.250000
O O18 0.302359 0.879576 0.321738
#
# Coordination Sequence:
#
# PCOD9412988 Si02
#       8
#     8   8   8   8   8   8   8   8
#     4  11  24  43  67  99 133 169 231 286 346 398
#     4  11  22  39  65  97 131 168 216 286 338 388
#     4  11  19  34  60  97 131 165 214 264 333 394
#     4  12  22  35  57  91 131 171 213 262 328 404
#     4  12  20  33  55  89 132 172 205 263 323 394
#     4  11  21  37  63  97 131 165 218 278 339 398
#     4  12  22  38  60  93 130 170 220 272 333 410
#     4  12  21  36  57  95 131 165 215 266 335 398
#
# _framework density 19.833604999999999
#
# number of rings (size 3 to 8) (size 9 to 14) (size 15 to 20)
#    0.000    0.500    8.750    1.500    0.000    1.000 
#    0.000    0.000    0.000    0.750   13.000    0.000 
#    0.000    0.000    0.000    0.000    0.000    0.000 
#
# Total GULP energy -356456.718035 kJ/mol
# GULP energy per Si atom -5569.636219 kJ/mol
# Density = 1.978846 g / cm^3
# Si number density = 19.833605 Si / 1000 Ang^3
#
#
#
# Elastic Constant Matrix: (Units=GPa)
#
#
# Indices 1 2 3 4 5 6 
#
# 1 83.5534 39.6824 50.3709 0.0000 0.0000 0.0000
# 2 39.6824 92.8878 16.1392 0.0000 0.0000 0.0000
# 3 50.3709 16.1392 94.2534 0.0000 0.0000 0.0000
# 4 0.0000 0.0000 0.0000 21.5043 0.0000 0.0000
# 5 0.0000 0.0000 0.0000 0.0000 21.7727 0.0000
# 6 0.0000 0.0000 0.0000 0.0000 0.0000 34.4052
#
#
#
# Elastic Compliance Matrix: (Units=1/GPa)
#
#
# Indices 1 2 3 4 5 6 
#
# 1 0.021771 -0.007503 -0.010350 0.000000 0.000000 0.000000
# 2 -0.007503 0.013681 0.001667 0.000000 0.000000 0.000000
# 3 -0.010350 0.001667 0.015856 0.000000 0.000000 0.000000
# 4 0.000000 0.000000 0.000000 0.046502 0.000000 0.000000
# 5 0.000000 0.000000 0.000000 0.000000 0.045929 0.000000
# 6 0.000000 0.000000 0.000000 0.000000 0.000000 0.029065
#
#
# Mechanical properties :
#
#
# Convention : Reuss Voigt Hill
#
# Bulk Modulus (GPa) = 52.80900 53.67552 53.24226
# Shear Modulus (GPa) = 23.64184 26.50325 25.07255
#
# Velocity S-wave (km/s) = 3.45629 3.65948 3.55934
# Velocity P-wave (km/s) = 6.52777 6.70652 6.61775
#
# Compressibility (1/GPa) = 0.01893617
#
# Stress axis : x y z
#
# Youngs Moduli (GPa) = 45.93172 73.09290 63.06866
#
# Poissons Ratio (x) = 0.54838 0.65279
# Poissons Ratio (y) = 0.34461 -0.10513
# Poissons Ratio (z) = 0.47541 -0.12184
#
# Static dielectric constant tensor:
#      x y z
#    x 1.807910 0.000000 0.000000 
#    y 0.000000 1.792860 0.000000 
#    z 0.000000 0.000000 1.672290 
# 
# From -- ./inp_files/32413.got.cif
#   From: 2010.05.17/outbox.cif.g08.bks.cpg/sg52_17_cif.got.tgz:32413.got - 2010.06.03 12:15:38.
