data_PCOD9412324
_publ_section_title
;
Structure prediction by ZEFSAII (Michael W. Deem and Ramdas Pophale) SiO2 
 PCOD9412324
Probable space group: P N N A
;
_chemical_formula_sum "Si O2"
_cell_formula_units_Z 40
_cell_length_a 4.807452
_cell_length_b 11.898074
_cell_length_c 29.201984
_cell_angle_alpha 90.000000
_cell_angle_beta 90.000000
_cell_angle_gamma 90.000000
_cell_volume 1670.336537
_symmetry_space_group_name_H-M "P N N A"
_symmetry_group_IT_number 52
_symmetry_cell_setting 'orthorhombic'
loop_
_space_group_symop_operation_xyz
x,y,z
1/2-x,-y,z
x,1/2-y,1/2-z
1/2-x,1/2+y,1/2-z
-x,-y,-z
1/2+x,y,-z
-x,1/2+y,1/2+z
1/2+x,1/2-y,1/2+z
loop_
_atom_site_type_symbol
_atom_site_label
_atom_site_fract_x
_atom_site_fract_y
_atom_site_fract_z
Si Si1 0.445331 0.344152 0.469408
Si Si2 0.750000 0.500000 0.221567
Si Si3 0.250000 0.000000 0.896720
Si Si4 0.441608 0.803582 0.608291
Si Si5 0.183875 0.750000 0.750000
Si Si6 0.940309 0.696759 0.652491
Si Si7 0.250000 0.000000 0.343954
O O1 0.130587 0.356859 0.485171
O O2 0.555900 0.429854 0.431461
O O3 0.501292 0.226731 0.444115
O O4 0.668340 0.375197 0.243138
O O5 0.488416 0.537823 0.191291
O O6 0.058101 0.921571 0.865119
O O7 0.122961 0.783810 0.621577
O O8 0.574028 0.918493 0.623860
O O9 0.620432 0.716569 0.640089
O O10 0.004779 0.720925 0.704944
#
# Coordination Sequence:
#
# PCOD9412324 Si02
#       7
#     8   4   4   8   4   8   4
#     4  11  23  40  67 100 137 178 228 293 360 441
#     4  12  27  40  78  95 148 174 248 275 370 393
#     4  10  23  42  64 102 141 185 226 288 374 425
#     4  11  23  43  66  94 132 179 230 276 357 423
#     4  12  24  48  66 114 136 190 238 310 330 436
#     4  11  24  40  66  95 138 181 228 285 346 418
#     4  12  22  48  66  95 125 199 216 289 346 438
#
# _framework density 23.947268999999999
#
# number of rings (size 3 to 8) (size 9 to 14) (size 15 to 20)
#    0.000    0.800    4.000    3.600    0.000    9.600 
#    0.000    1.000    0.000    0.000    0.000    0.000 
#    0.000    0.000    0.000    0.000    0.000    0.000 
#
# Total GULP energy -223427.167614 kJ/mol
# GULP energy per Si atom -5585.679190 kJ/mol
# Density = 2.389276 g / cm^3
# Si number density = 23.947269 Si / 1000 Ang^3
#
#
#
# Elastic Constant Matrix: (Units=GPa)
#
#
# Indices 1 2 3 4 5 6 
#
# 1 71.1127 -3.9420 0.2940 0.0000 0.0000 0.0000
# 2 -3.9420 118.9035 28.0332 0.0000 0.0000 0.0000
# 3 0.2940 28.0332 105.1218 0.0000 0.0000 0.0000
# 4 0.0000 0.0000 0.0000 44.7514 0.0000 0.0000
# 5 0.0000 0.0000 0.0000 0.0000 14.9984 0.0000
# 6 0.0000 0.0000 0.0000 0.0000 0.0000 26.2462
#
#
#
# Elastic Compliance Matrix: (Units=1/GPa)
#
#
# Indices 1 2 3 4 5 6 
#
# 1 0.014091 0.000508 -0.000175 0.000000 0.000000 0.000000
# 2 0.000508 0.008993 -0.002400 0.000000 0.000000 0.000000
# 3 -0.000175 -0.002400 0.010153 0.000000 0.000000 0.000000
# 4 0.000000 0.000000 0.000000 0.022346 0.000000 0.000000
# 5 0.000000 0.000000 0.000000 0.000000 0.066674 0.000000
# 6 0.000000 0.000000 0.000000 0.000000 0.000000 0.038101
#
#
# Mechanical properties :
#
#
# Convention : Reuss Voigt Hill
#
# Bulk Modulus (GPa) = 34.35862 38.21203 36.28532
# Shear Modulus (GPa) = 28.70411 35.24939 31.97675
#
# Velocity S-wave (km/s) = 3.46589 3.84077 3.65814
# Velocity P-wave (km/s) = 5.51319 5.97161 5.74697
#
# Compressibility (1/GPa) = 0.02910478
#
# Stress axis : x y z
#
# Youngs Moduli (GPa) = 70.96680 111.20050 98.49143
#
# Poissons Ratio (x) = -0.05654 0.01723
# Poissons Ratio (y) = -0.03608 0.23634
# Poissons Ratio (z) = 0.01242 0.26683
#
# Static dielectric constant tensor:
#      x y z
#    x 1.849810 0.000000 0.000000 
#    y 0.000000 2.177070 0.000000 
#    z 0.000000 0.000000 1.881520 
# 
# From -- ./inp_files/41548.got.cif
#   From: 2010.05.17/outbox.cif.g08.bks.cpg/sg52_21_cif.got.tgz:41548.got - 2010.06.03 12:15:38.
