data_PCOD9412686
_publ_section_title
;
Structure prediction by ZEFSAII (Michael W. Deem and Ramdas Pophale) SiO2 
 PCOD9412686
Probable space group: P N N A
;
_chemical_formula_sum "Si O2"
_cell_formula_units_Z 28
_cell_length_a 8.596565
_cell_length_b 26.607352
_cell_length_c 4.414676
_cell_angle_alpha 90.000000
_cell_angle_beta 90.000000
_cell_angle_gamma 90.000000
_cell_volume 1009.776925
_symmetry_space_group_name_H-M "P N N A"
_symmetry_group_IT_number 52
_symmetry_cell_setting 'orthorhombic'
loop_
_space_group_symop_operation_xyz
x,y,z
1/2-x,-y,z
x,1/2-y,1/2-z
1/2-x,1/2+y,1/2-z
-x,-y,-z
1/2+x,y,-z
-x,1/2+y,1/2+z
1/2+x,1/2-y,1/2+z
loop_
_atom_site_type_symbol
_atom_site_label
_atom_site_fract_x
_atom_site_fract_y
_atom_site_fract_z
Si Si1 0.171819 0.750000 0.250000
Si Si2 0.896024 0.608751 0.821877
Si Si3 0.616022 0.035544 0.179041
Si Si4 0.170120 0.676206 0.767920
O O1 0.242930 0.709831 0.496037
O O2 0.088854 0.786151 0.488297
O O3 0.961900 0.567912 0.057768
O O4 0.789174 0.644539 0.027728
O O5 0.815323 0.575841 0.561899
O O6 0.033212 0.639873 0.664346
O O7 0.750000 0.000000 0.307413
O O8 0.500000 0.000000 0.000000
#
# Coordination Sequence:
#
# PCOD9412686 Si02
#       4
#     4   8   8   8
#     4  10  24  44  68  96 132 174 226 276 342 410
#     4  12  24  43  67  97 134 176 226 278 342 406
#     4  12  24  41  65  96 134 176 224 278 336 404
#     4  11  24  43  68  97 132 176 223 282 339 408
#
# _framework density 27.728897
#
# number of rings (size 3 to 8) (size 9 to 14) (size 15 to 20)
#    0.000    0.571    0.000    8.571    0.000    4.571 
#    0.000    0.000    0.000    0.000    0.000    0.000 
#    0.000    0.000    0.000    0.000    0.000    0.000 
#
# Total GULP energy -156655.322131 kJ/mol
# GULP energy per Si atom -5594.832933 kJ/mol
# Density = 2.766578 g / cm^3
# Si number density = 27.728897 Si / 1000 Ang^3
#
#
#
# Elastic Constant Matrix: (Units=GPa)
#
#
# Indices 1 2 3 4 5 6 
#
# 1 69.4913 58.7526 9.3474 0.0000 0.0000 0.0000
# 2 58.7526 154.3654 79.9826 0.0000 0.0000 0.0000
# 3 9.3474 79.9826 158.7577 0.0000 0.0000 0.0000
# 4 0.0000 0.0000 0.0000 55.8109 0.0000 0.0000
# 5 0.0000 0.0000 0.0000 0.0000 9.3788 0.0000
# 6 0.0000 0.0000 0.0000 0.0000 0.0000 31.9731
#
#
#
# Elastic Compliance Matrix: (Units=1/GPa)
#
#
# Indices 1 2 3 4 5 6 
#
# 1 0.023075 -0.010932 0.004149 0.000000 0.000000 0.000000
# 2 -0.010932 0.013946 -0.006382 0.000000 0.000000 0.000000
# 3 0.004149 -0.006382 0.009270 0.000000 0.000000 0.000000
# 4 0.000000 0.000000 0.000000 0.017918 0.000000 0.000000
# 5 0.000000 0.000000 0.000000 0.000000 0.106623 0.000000
# 6 0.000000 0.000000 0.000000 0.000000 0.000000 0.031276
#
#
# Mechanical properties :
#
#
# Convention : Reuss Voigt Hill
#
# Bulk Modulus (GPa) = 50.10016 75.41997 62.76006
# Shear Modulus (GPa) = 21.26817 35.06803 28.16810
#
# Velocity S-wave (km/s) = 2.77249 3.56008 3.19068
# Velocity P-wave (km/s) = 5.32503 6.64508 6.02134
#
# Compressibility (1/GPa) = 0.01996002
#
# Stress axis : x y z
#
# Youngs Moduli (GPa) = 43.33659 71.70485 107.87402
#
# Poissons Ratio (x) = 0.78391 -0.44759
# Poissons Ratio (y) = 0.47377 0.68849
# Poissons Ratio (z) = -0.17981 0.45765
#
# Static dielectric constant tensor:
#      x y z
#    x 2.061420 0.000000 0.000000 
#    y 0.000000 2.227020 0.000000 
#    z 0.000000 0.000000 2.118690 
# 
# From -- ./inp_files/349.got.cif
#   From: 2010.05.17/outbox.cif.g08.bks.cpg/sg52_1_cif.got.tgz:349.got - 2010.06.03 12:15:38.
