data_PCOD9412795
_publ_section_title
;
Structure prediction by ZEFSAII (Michael W. Deem and Ramdas Pophale) SiO2 
 PCOD9412795
Probable space group: P N N A
;
_chemical_formula_sum "Si O2"
_cell_formula_units_Z 40
_cell_length_a 20.477113
_cell_length_b 4.994377
_cell_length_c 16.407807
_cell_angle_alpha 90.000000
_cell_angle_beta 90.000000
_cell_angle_gamma 90.000000
_cell_volume 1678.033349
_symmetry_space_group_name_H-M "P N N A"
_symmetry_group_IT_number 52
_symmetry_cell_setting 'orthorhombic'
loop_
_space_group_symop_operation_xyz
x,y,z
1/2-x,-y,z
x,1/2-y,1/2-z
1/2-x,1/2+y,1/2-z
-x,-y,-z
1/2+x,y,-z
-x,1/2+y,1/2+z
1/2+x,1/2-y,1/2+z
loop_
_atom_site_type_symbol
_atom_site_label
_atom_site_fract_x
_atom_site_fract_y
_atom_site_fract_z
Si Si1 0.156556 0.164499 0.513769
Si Si2 0.444936 0.750000 0.750000
Si Si3 0.487147 0.711660 0.926740
Si Si4 0.870142 0.136817 0.917136
Si Si5 0.847714 0.250000 0.250000
Si Si6 0.799089 0.250000 0.750000
Si Si7 0.250000 0.500000 0.622599
O O1 0.160414 0.348240 0.433549
O O2 0.212529 0.278796 0.570110
O O3 0.089822 0.255594 0.559390
O O4 0.152160 0.858705 0.484330
O O5 0.487752 0.671803 0.828938
O O6 0.396229 0.499782 0.747314
O O7 0.551512 0.896965 0.931393
O O8 0.500000 0.500000 0.000000
O O9 0.845475 0.233036 0.829665
O O10 0.799469 0.323475 0.323506
O O11 0.750000 0.500000 0.754454
#
# Coordination Sequence:
#
# PCOD9412795 Si02
#       7
#     8   4   8   8   4   4   4
#     4  11  26  43  75 106 143 190 247 302 376 450
#     4  12  26  48  72 110 145 203 240 316 374 448
#     4  10  24  48  75 107 148 191 255 310 379 449
#     4  11  26  47  73 104 141 193 244 316 372 446
#     4  12  29  46  70 108 154 191 246 290 376 455
#     4  12  27  48  70 104 145 190 250 310 376 449
#     4  12  28  46  74 108 158 196 246 300 378 464
#
# _framework density 23.837430999999999
#
# number of rings (size 3 to 8) (size 9 to 14) (size 15 to 20)
#    0.000    0.800    2.000    3.000    9.800    4.800 
#    0.000    2.000    0.000    0.000    0.000    0.000 
#    0.000    0.000    0.000    0.000    0.000    0.000 
#
# Total GULP energy -223193.237437 kJ/mol
# GULP energy per Si atom -5579.830936 kJ/mol
# Density = 2.378318 g / cm^3
# Si number density = 23.837431 Si / 1000 Ang^3
#
#
#
# Elastic Constant Matrix: (Units=GPa)
#
#
# Indices 1 2 3 4 5 6 
#
# 1 87.1196 16.9197 12.1163 0.0000 0.0000 0.0000
# 2 16.9197 96.8431 -5.0409 0.0000 0.0000 0.0000
# 3 12.1163 -5.0409 103.4060 0.0000 0.0000 0.0000
# 4 0.0000 0.0000 0.0000 24.3645 0.0000 0.0000
# 5 0.0000 0.0000 0.0000 0.0000 252.5503 0.0000
# 6 0.0000 0.0000 0.0000 0.0000 0.0000 29.6098
#
#
#
# Elastic Compliance Matrix: (Units=1/GPa)
#
#
# Indices 1 2 3 4 5 6 
#
# 1 0.012117 -0.002197 -0.001527 0.000000 0.000000 0.000000
# 2 -0.002197 0.010750 0.000781 0.000000 0.000000 0.000000
# 3 -0.001527 0.000781 0.009888 0.000000 0.000000 0.000000
# 4 0.000000 0.000000 0.000000 0.041043 0.000000 0.000000
# 5 0.000000 0.000000 0.000000 0.000000 0.003960 0.000000
# 6 0.000000 0.000000 0.000000 0.000000 0.000000 0.033773
#
#
# Mechanical properties :
#
#
# Convention : Reuss Voigt Hill
#
# Bulk Modulus (GPa) = 37.21420 37.26209 37.23815
# Shear Modulus (GPa) = 39.56570 78.86318 59.21444
#
# Velocity S-wave (km/s) = 4.07850 5.75809 4.98948
# Velocity P-wave (km/s) = 6.15016 7.73777 6.98919
#
# Compressibility (1/GPa) = 0.02687146
#
# Stress axis : x y z
#
# Youngs Moduli (GPa) = 82.52576 93.01963 101.13658
#
# Poissons Ratio (x) = 0.20432 0.15443
# Poissons Ratio (y) = 0.18127 -0.07903
# Poissons Ratio (z) = 0.12601 -0.07269
#
# Static dielectric constant tensor:
#      x y z
#    x 1.921630 0.000000 0.000000 
#    y 0.000000 1.917730 0.000000 
#    z 0.000000 0.000000 1.972170 
# 
# From -- ./inp_files/33980.got.cif
#   From: 2010.05.17/outbox.cif.g08.bks.cpg/sg52_17_cif.got.tgz:33980.got - 2010.06.03 12:15:38.
