data_PCOD9412748
_publ_section_title
;
Structure prediction by ZEFSAII (Michael W. Deem and Ramdas Pophale) SiO2 
 PCOD9412748
Probable space group: P N N A
;
_chemical_formula_sum "Si O2"
_cell_formula_units_Z 24
_cell_length_a 7.723611
_cell_length_b 7.303244
_cell_length_c 17.839923
_cell_angle_alpha 90.000000
_cell_angle_beta 90.000000
_cell_angle_gamma 90.000000
_cell_volume 1006.303953
_symmetry_space_group_name_H-M "P N N A"
_symmetry_group_IT_number 52
_symmetry_cell_setting 'orthorhombic'
loop_
_space_group_symop_operation_xyz
x,y,z
1/2-x,-y,z
x,1/2-y,1/2-z
1/2-x,1/2+y,1/2-z
-x,-y,-z
1/2+x,y,-z
-x,1/2+y,1/2+z
1/2+x,1/2-y,1/2+z
loop_
_atom_site_type_symbol
_atom_site_label
_atom_site_fract_x
_atom_site_fract_y
_atom_site_fract_z
Si Si1 0.462184 0.250000 0.750000
Si Si2 0.327739 0.298098 0.901704
Si Si3 0.750000 0.500000 0.824196
Si Si4 0.719409 0.292887 0.564248
O O1 0.338749 0.207172 0.820231
O O2 0.595974 0.411682 0.774645
O O3 0.250000 0.500000 0.893692
O O4 0.528701 0.286142 0.924221
O O5 0.242706 0.212684 0.975131
O O6 0.823947 0.342180 0.880404
O O7 0.750000 0.500000 0.589105
#
# Coordination Sequence:
#
# PCOD9412748 Si02
#       4
#     4   8   4   8
#     4  10  26  44  74 104 156 200 250 324 400 444
#     4  11  24  46  72 113 149 201 253 332 380 463
#     4  10  24  46  74 108 142 204 262 316 374 476
#     4  11  24  45  79 107 144 204 266 309 387 471
#
# _framework density 23.849653
#
# number of rings (size 3 to 8) (size 9 to 14) (size 15 to 20)
#    0.000    1.333    1.667    2.000   14.000    1.333 
#    0.000    6.667    0.000    0.000    0.000    0.000 
#    0.000    0.000    0.000    0.000    0.000    0.000 
#
# Total GULP energy -133915.294157 kJ/mol
# GULP energy per Si atom -5579.803923 kJ/mol
# Density = 2.379537 g / cm^3
# Si number density = 23.849653 Si / 1000 Ang^3
#
#
#
# Elastic Constant Matrix: (Units=GPa)
#
#
# Indices 1 2 3 4 5 6 
#
# 1 67.2658 41.8733 36.7464 0.0000 0.0000 0.0000
# 2 41.8733 190.3114 93.8138 0.0000 0.0000 0.0000
# 3 36.7464 93.8138 187.1440 0.0000 0.0000 0.0000
# 4 0.0000 0.0000 0.0000 45.4519 0.0000 0.0000
# 5 0.0000 0.0000 0.0000 0.0000 58.6530 0.0000
# 6 0.0000 0.0000 0.0000 0.0000 0.0000 -115.3217
#
#
#
# Elastic Compliance Matrix: (Units=1/GPa)
#
#
# Indices 1 2 3 4 5 6 
#
# 1 0.017790 -0.002912 -0.002033 0.000000 0.000000 0.000000
# 2 -0.002912 0.007456 -0.003166 0.000000 0.000000 0.000000
# 3 -0.002033 -0.003166 0.007330 0.000000 0.000000 0.000000
# 4 0.000000 0.000000 0.000000 0.022001 0.000000 0.000000
# 5 0.000000 0.000000 0.000000 0.000000 0.017049 0.000000
# 6 0.000000 0.000000 0.000000 0.000000 0.000000 -0.008671
#
#
# Mechanical properties :
#
#
# Convention : Reuss Voigt Hill
#
# Bulk Modulus (GPa) = 61.14978 87.73203 74.44090
# Shear Modulus (GPa) = 59.08218 15.90914 37.49566
#
# Velocity S-wave (km/s) = 4.98262 2.58555 3.96936
# Velocity P-wave (km/s) = 7.66795 6.76600 7.23105
#
# Compressibility (1/GPa) = 0.01635329
#
# Stress axis : x y z
#
# Youngs Moduli (GPa) = 56.21182 134.12389 136.43067
#
# Poissons Ratio (x) = 0.39055 0.27742
# Poissons Ratio (y) = 0.16368 0.43191
# Poissons Ratio (z) = 0.11430 0.42461
#
# Static dielectric constant tensor:
#      x y z
#    x 1.963660 0.000000 0.000000 
#    y 0.000000 1.866730 0.000000 
#    z 0.000000 0.000000 2.092290 
# 
# From -- ./inp_files/30588.got.cif
#   From: 2010.05.17/outbox.cif.g08.bks.cpg/sg52_16_cif.got.tgz:30588.got - 2010.06.03 12:15:38.
