data_PCOD9412161
_publ_section_title
;
Structure prediction by ZEFSAII (Michael W. Deem and Ramdas Pophale) SiO2 
 PCOD9412161
Probable space group: P N N A
;
_chemical_formula_sum "Si O2"
_cell_formula_units_Z 48
_cell_length_a 12.956429
_cell_length_b 25.685895
_cell_length_c 6.608951
_cell_angle_alpha 90.000000
_cell_angle_beta 90.000000
_cell_angle_gamma 90.000000
_cell_volume 2199.442204
_symmetry_space_group_name_H-M "P N N A"
_symmetry_group_IT_number 52
_symmetry_cell_setting 'orthorhombic'
loop_
_space_group_symop_operation_xyz
x,y,z
1/2-x,-y,z
x,1/2-y,1/2-z
1/2-x,1/2+y,1/2-z
-x,-y,-z
1/2+x,y,-z
-x,1/2+y,1/2+z
1/2+x,1/2-y,1/2+z
loop_
_atom_site_type_symbol
_atom_site_label
_atom_site_fract_x
_atom_site_fract_y
_atom_site_fract_z
Si Si1 0.750000 0.500000 0.109693
Si Si2 0.811987 0.807207 0.503445
Si Si3 0.392662 0.074126 0.394964
Si Si4 0.117139 0.406095 0.736009
Si Si5 0.876947 0.166749 0.275624
Si Si6 0.048974 0.250000 0.250000
Si Si7 0.241384 0.132165 0.104373
O O1 0.651643 0.520976 0.985190
O O2 0.796804 0.549397 0.226540
O O3 0.859818 0.856337 0.381853
O O4 0.703760 0.796873 0.397608
O O5 0.787538 0.824677 0.732201
O O6 0.888185 0.759723 0.541302
O O7 0.503410 0.073794 0.287613
O O8 0.396014 0.117554 0.574899
O O9 0.304626 0.090800 0.236138
O O10 0.139083 0.388276 0.507320
O O11 0.978297 0.199141 0.232272
O O12 0.818494 0.150339 0.072127
#
# Coordination Sequence:
#
# PCOD9412161 Si02
#       7
#     4   8   8   8   8   4   8
#     4  12  22  46  66  98 142 174 218 286 348 396
#     4  10  23  45  64  97 138 170 221 284 332 399
#     4  11  23  44  68  96 136 179 219 277 338 400
#     4  11  23  44  68  96 136 179 219 277 338 400
#     4  10  23  45  64  97 138 170 221 284 332 399
#     4  12  24  40  74  96 126 182 224 266 356 398
#     4  10  22  45  67  92 138 171 220 281 326 400
#
# _framework density 21.823715
#
# number of rings (size 3 to 8) (size 9 to 14) (size 15 to 20)
#    0.000    1.333    6.667    0.500    4.667    0.667 
#    0.000    8.333    0.000    0.000    0.000    0.000 
#    0.000    0.000    0.000    0.000    0.000    0.000 
#
# Total GULP energy -268149.015648 kJ/mol
# GULP energy per Si atom -5586.437826 kJ/mol
# Density = 2.177404 g / cm^3
# Si number density = 21.823715 Si / 1000 Ang^3
#
#
#
# Elastic Constant Matrix: (Units=GPa)
#
#
# Indices 1 2 3 4 5 6 
#
# 1 75.5248 20.6086 3.9672 0.0000 0.0000 0.0000
# 2 20.6086 74.4278 29.2581 0.0000 0.0000 0.0000
# 3 3.9672 29.2581 99.7426 0.0000 0.0000 0.0000
# 4 0.0000 0.0000 0.0000 17.3641 0.0000 0.0000
# 5 0.0000 0.0000 0.0000 0.0000 10.8131 0.0000
# 6 0.0000 0.0000 0.0000 0.0000 0.0000 46.6742
#
#
#
# Elastic Compliance Matrix: (Units=1/GPa)
#
#
# Indices 1 2 3 4 5 6 
#
# 1 0.014363 -0.004241 0.000673 0.000000 0.000000 0.000000
# 2 -0.004241 0.016440 -0.004654 0.000000 0.000000 0.000000
# 3 0.000673 -0.004654 0.011364 0.000000 0.000000 0.000000
# 4 0.000000 0.000000 0.000000 0.057590 0.000000 0.000000
# 5 0.000000 0.000000 0.000000 0.000000 0.092481 0.000000
# 6 0.000000 0.000000 0.000000 0.000000 0.000000 0.021425
#
#
# Mechanical properties :
#
#
# Convention : Reuss Voigt Hill
#
# Bulk Modulus (GPa) = 38.87711 39.70701 39.29206
# Shear Modulus (GPa) = 20.94849 28.02769 24.48809
#
# Velocity S-wave (km/s) = 3.10158 3.58757 3.35339
# Velocity P-wave (km/s) = 5.53888 5.94935 5.74778
#
# Compressibility (1/GPa) = 0.02572207
#
# Stress axis : x y z
#
# Youngs Moduli (GPa) = 69.62473 60.82847 87.99620
#
# Poissons Ratio (x) = 0.25800 -0.05921
# Poissons Ratio (y) = 0.29531 0.40950
# Poissons Ratio (z) = -0.04685 0.28307
#
# Static dielectric constant tensor:
#      x y z
#    x 1.859540 0.000000 0.000000 
#    y 0.000000 1.842830 0.000000 
#    z 0.000000 0.000000 1.787350 
# 
# From -- ./inp_files/2498.got.cif
#   From: 2010.05.17/outbox.cif.g08.bks.cpg/sg52_2_cif.got.tgz:2498.got - 2010.06.03 12:15:38.
