data_PCOD9412715
_publ_section_title
;
Structure prediction by ZEFSAII (Michael W. Deem and Ramdas Pophale) SiO2 
 PCOD9412715
Probable space group: P N N A
;
_chemical_formula_sum "Si O2"
_cell_formula_units_Z 36
_cell_length_a 22.707836
_cell_length_b 5.317231
_cell_length_c 11.989244
_cell_angle_alpha 90.000000
_cell_angle_beta 90.000000
_cell_angle_gamma 90.000000
_cell_volume 1447.615005
_symmetry_space_group_name_H-M "P N N A"
_symmetry_group_IT_number 52
_symmetry_cell_setting 'orthorhombic'
loop_
_space_group_symop_operation_xyz
x,y,z
1/2-x,-y,z
x,1/2-y,1/2-z
1/2-x,1/2+y,1/2-z
-x,-y,-z
1/2+x,y,-z
-x,1/2+y,1/2+z
1/2+x,1/2-y,1/2+z
loop_
_atom_site_type_symbol
_atom_site_label
_atom_site_fract_x
_atom_site_fract_y
_atom_site_fract_z
Si Si1 0.250000 0.500000 0.314909
Si Si2 0.878687 0.423768 0.617122
Si Si3 0.715646 0.250000 0.250000
Si Si4 0.949311 0.750000 0.750000
Si Si5 0.944127 0.281927 0.088522
Si Si6 0.614972 0.282511 0.408843
O O1 0.272920 0.750000 0.250000
O O2 0.191481 0.622176 0.373973
O O3 0.907206 0.510049 0.733021
O O4 0.923116 0.255683 0.540533
O O5 0.877922 0.674572 0.539113
O O6 0.750000 0.500000 0.278510
O O7 0.674396 0.190262 0.354268
O O8 0.992318 0.765043 0.858047
O O9 0.932009 0.569948 0.115100
O O10 0.903655 0.056331 0.138811
#
# Coordination Sequence:
#
# PCOD9412715 Si02
#       6
#     4   8   4   4   8   8
#     4  12  28  50  74 102 148 198 252 300 354 446
#     4  10  27  46  75 109 144 202 244 302 376 431
#     4  12  24  39  68 102 137 194 250 304 364 436
#     4  12  22  51  72 118 145 194 248 312 372 454
#     4  10  24  45  72 103 147 188 240 309 373 442
#     4  10  24  46  65 105 142 190 239 301 374 434
#
# _framework density 24.868490000000001
#
# number of rings (size 3 to 8) (size 9 to 14) (size 15 to 20)
#    1.333    0.000    1.111    3.333    4.667    0.889 
#    8.000    0.000    0.000    0.000    0.000    0.000 
#    0.000    0.000    0.000    0.000    0.000    0.000 
#
# Total GULP energy -200482.060247 kJ/mol
# GULP energy per Si atom -5568.946118 kJ/mol
# Density = 2.481189 g / cm^3
# Si number density = 24.868490 Si / 1000 Ang^3
#
#
#
# Elastic Constant Matrix: (Units=GPa)
#
#
# Indices 1 2 3 4 5 6 
#
# 1 137.7849 -5.4421 23.3444 0.0000 0.0000 0.0000
# 2 -5.4421 91.8719 -9.0144 0.0000 0.0000 0.0000
# 3 23.3444 -9.0144 91.1894 0.0000 0.0000 0.0000
# 4 0.0000 0.0000 0.0000 18.7478 0.0000 0.0000
# 5 0.0000 0.0000 0.0000 0.0000 18.7843 0.0000
# 6 0.0000 0.0000 0.0000 0.0000 0.0000 15.6972
#
#
#
# Elastic Compliance Matrix: (Units=1/GPa)
#
#
# Indices 1 2 3 4 5 6 
#
# 1 0.007593 0.000262 -0.001918 0.000000 0.000000 0.000000
# 2 0.000262 0.011000 0.001020 0.000000 0.000000 0.000000
# 3 -0.001918 0.001020 0.011558 0.000000 0.000000 0.000000
# 4 0.000000 0.000000 0.000000 0.053340 0.000000 0.000000
# 5 0.000000 0.000000 0.000000 0.000000 0.053236 0.000000
# 6 0.000000 0.000000 0.000000 0.000000 0.000000 0.063706
#
#
# Mechanical properties :
#
#
# Convention : Reuss Voigt Hill
#
# Bulk Modulus (GPa) = 34.62655 37.62469 36.12562
# Shear Modulus (GPa) = 23.65960 31.44308 27.55134
#
# Velocity S-wave (km/s) = 3.08781 3.55966 3.33210
# Velocity P-wave (km/s) = 5.16399 5.66191 5.41867
#
# Compressibility (1/GPa) = 0.02887957
#
# Stress axis : x y z
#
# Youngs Moduli (GPa) = 131.70075 90.90625 86.51980
#
# Poissons Ratio (x) = -0.02378 0.16594
# Poissons Ratio (y) = -0.03445 -0.08829
# Poissons Ratio (z) = 0.25259 -0.09277
#
# Static dielectric constant tensor:
#      x y z
#    x 1.937810 0.000000 0.000000 
#    y 0.000000 2.187950 0.000000 
#    z 0.000000 0.000000 2.180840 
# 
# From -- ./inp_files/28535.got.cif
#   From: 2010.05.17/outbox.cif.g08.bks.cpg/sg52_15_cif.got.tgz:28535.got - 2010.06.03 12:15:38.
