data_PCOD9412095
_publ_section_title
;
Structure prediction by ZEFSAII (Michael W. Deem and Ramdas Pophale) SiO2 
 PCOD9412095
Probable space group: P N N A
;
_chemical_formula_sum "Si O2"
_cell_formula_units_Z 40
_cell_length_a 9.498709
_cell_length_b 8.262165
_cell_length_c 19.038354
_cell_angle_alpha 90.000000
_cell_angle_beta 90.000000
_cell_angle_gamma 90.000000
_cell_volume 1494.128138
_symmetry_space_group_name_H-M "P N N A"
_symmetry_group_IT_number 52
_symmetry_cell_setting 'orthorhombic'
loop_
_space_group_symop_operation_xyz
x,y,z
1/2-x,-y,z
x,1/2-y,1/2-z
1/2-x,1/2+y,1/2-z
-x,-y,-z
1/2+x,y,-z
-x,1/2+y,1/2+z
1/2+x,1/2-y,1/2+z
loop_
_atom_site_type_symbol
_atom_site_label
_atom_site_fract_x
_atom_site_fract_y
_atom_site_fract_z
Si Si1 0.750000 0.000000 0.792078
Si Si2 0.878809 0.340152 0.466922
Si Si3 0.750000 0.000000 0.251884
Si Si4 0.966958 0.469965 0.827204
Si Si5 0.830638 0.743712 0.588644
Si Si6 0.134685 0.180496 0.880460
O O1 0.629249 0.935445 0.740497
O O2 0.821713 0.869048 0.842663
O O3 0.801889 0.316704 0.541468
O O4 0.770188 0.242328 0.418168
O O5 0.036206 0.280481 0.462512
O O6 0.108390 0.483290 0.572999
O O7 0.613414 0.954820 0.298005
O O8 0.687193 0.127942 0.196267
O O9 0.875537 0.584704 0.877771
O O10 0.012932 0.308430 0.867720
#
# Coordination Sequence:
#
# PCOD9412095 Si02
#       6
#     4   8   4   8   8   8
#     4  12  28  47  76 117 160 198 254 330 418 488
#     4  10  25  49  77 107 153 209 267 326 391 472
#     4  10  22  43  76 113 160 206 250 318 412 490
#     4  12  27  47  77 117 160 203 263 332 398 483
#     4  12  28  50  76 111 153 208 265 326 398 470
#     4  10  23  44  77 111 148 205 263 321 398 476
#
# _framework density 26.771467000000001
#
# number of rings (size 3 to 8) (size 9 to 14) (size 15 to 20)
#    0.000    1.200    0.000    6.000    0.000   22.400 
#    0.000    2.000    0.000    0.000    0.000    0.000 
#    0.000    0.000    0.000    0.000    0.000    0.000 
#
# Total GULP energy -223721.464346 kJ/mol
# GULP energy per Si atom -5593.036609 kJ/mol
# Density = 2.671053 g / cm^3
# Si number density = 26.771467 Si / 1000 Ang^3
#
#
#
# Elastic Constant Matrix: (Units=GPa)
#
#
# Indices 1 2 3 4 5 6 
#
# 1 208.2761 86.2867 98.2432 0.0000 0.0000 0.0000
# 2 86.2867 140.0054 94.2415 0.0000 0.0000 0.0000
# 3 98.2432 94.2415 190.1248 0.0000 0.0000 0.0000
# 4 0.0000 0.0000 0.0000 15.5410 0.0000 0.0000
# 5 0.0000 0.0000 0.0000 0.0000 48.6854 0.0000
# 6 0.0000 0.0000 0.0000 0.0000 0.0000 45.8987
#
#
#
# Elastic Compliance Matrix: (Units=1/GPa)
#
#
# Indices 1 2 3 4 5 6 
#
# 1 0.007024 -0.002830 -0.002227 0.000000 0.000000 0.000000
# 2 -0.002830 0.011859 -0.004416 0.000000 0.000000 0.000000
# 3 -0.002227 -0.004416 0.008599 0.000000 0.000000 0.000000
# 4 0.000000 0.000000 0.000000 0.064346 0.000000 0.000000
# 5 0.000000 0.000000 0.000000 0.000000 0.020540 0.000000
# 6 0.000000 0.000000 0.000000 0.000000 0.000000 0.021787
#
#
# Mechanical properties :
#
#
# Convention : Reuss Voigt Hill
#
# Bulk Modulus (GPa) = 117.13824 121.77213 119.45518
# Shear Modulus (GPa) = 32.06206 39.33402 35.69804
#
# Velocity S-wave (km/s) = 3.46442 3.83724 3.65559
# Velocity P-wave (km/s) = 7.73646 8.07571 7.90790
#
# Compressibility (1/GPa) = 0.00853692
#
# Stress axis : x y z
#
# Youngs Moduli (GPa) = 142.36529 84.32111 116.28877
#
# Poissons Ratio (x) = 0.23865 0.25894
# Poissons Ratio (y) = 0.40292 0.51354
# Poissons Ratio (z) = 0.31701 0.37237
#
# Static dielectric constant tensor:
#      x y z
#    x 2.141740 0.000000 0.000000 
#    y 0.000000 2.154720 0.000000 
#    z 0.000000 0.000000 2.054020 
# 
# From -- ./inp_files/30904.got.cif
#   From: 2010.05.17/outbox.cif.g08.bks.cpg/sg52_16_cif.got.tgz:30904.got - 2010.06.03 12:15:38.
