data_PCOD9412081
_publ_section_title
;
Structure prediction by ZEFSAII (Michael W. Deem and Ramdas Pophale) SiO2 
 PCOD9412081
Probable space group: P N N A
;
_chemical_formula_sum "Si O2"
_cell_formula_units_Z 36
_cell_length_a 15.880303
_cell_length_b 5.041614
_cell_length_c 18.446172
_cell_angle_alpha 90.000000
_cell_angle_beta 90.000000
_cell_angle_gamma 90.000000
_cell_volume 1476.844025
_symmetry_space_group_name_H-M "P N N A"
_symmetry_group_IT_number 52
_symmetry_cell_setting 'orthorhombic'
loop_
_space_group_symop_operation_xyz
x,y,z
1/2-x,-y,z
x,1/2-y,1/2-z
1/2-x,1/2+y,1/2-z
-x,-y,-z
1/2+x,y,-z
-x,1/2+y,1/2+z
1/2+x,1/2-y,1/2+z
loop_
_atom_site_type_symbol
_atom_site_label
_atom_site_fract_x
_atom_site_fract_y
_atom_site_fract_z
Si Si1 0.428647 0.721190 0.484151
Si Si2 0.655585 0.063793 0.847181
Si Si3 0.951025 0.044625 0.656612
Si Si4 0.092660 0.250000 0.750000
Si Si5 0.693757 0.260009 0.387221
O O1 0.500000 0.500000 0.500000
O O2 0.354609 0.593778 0.434229
O O3 0.538243 0.052004 0.572494
O O4 0.380189 0.804887 0.556156
O O5 0.621554 0.343445 0.819109
O O6 0.750000 0.000000 0.826009
O O7 0.587551 0.835017 0.833528
O O8 0.033625 0.043399 0.706003
O O9 0.150701 0.363395 0.686701
O O10 0.750000 0.500000 0.415734
O O11 0.750000 0.000000 0.374177
#
# Coordination Sequence:
#
# PCOD9412081 Si02
#       5
#     8   8   8   4   8
#     4  10  25  45  76 116 149 197 270 324 400 462
#     4  10  22  43  72 110 148 190 255 330 392 452
#     4  10  26  43  78 107 150 210 255 324 385 482
#     4  12  28  54  74 108 166 210 272 306 414 500
#     4  12  30  48  79 114 158 207 263 336 407 476
#
# _framework density 24.376304999999999
#
# number of rings (size 3 to 8) (size 9 to 14) (size 15 to 20)
#    1.333    0.000    0.000    3.333    9.333    4.444 
#    0.000    2.222    0.000    0.000    0.000    0.000 
#    0.000    0.000    0.000    0.000    0.000    0.000 
#
# Total GULP energy -201132.590499 kJ/mol
# GULP energy per Si atom -5587.016403 kJ/mol
# Density = 2.432082 g / cm^3
# Si number density = 24.376305 Si / 1000 Ang^3
#
#
#
# Elastic Constant Matrix: (Units=GPa)
#
#
# Indices 1 2 3 4 5 6 
#
# 1 126.8989 25.9507 35.2343 0.0000 0.0000 0.0000
# 2 25.9507 85.3936 -7.8841 0.0000 0.0000 0.0000
# 3 35.2343 -7.8841 147.4718 0.0000 0.0000 0.0000
# 4 0.0000 0.0000 0.0000 24.6716 0.0000 0.0000
# 5 0.0000 0.0000 0.0000 0.0000 11.0285 0.0000
# 6 0.0000 0.0000 0.0000 0.0000 0.0000 45.2762
#
#
#
# Elastic Compliance Matrix: (Units=1/GPa)
#
#
# Indices 1 2 3 4 5 6 
#
# 1 0.009144 -0.002995 -0.002345 0.000000 0.000000 0.000000
# 2 -0.002995 0.012750 0.001397 0.000000 0.000000 0.000000
# 3 -0.002345 0.001397 0.007416 0.000000 0.000000 0.000000
# 4 0.000000 0.000000 0.000000 0.040532 0.000000 0.000000
# 5 0.000000 0.000000 0.000000 0.000000 0.090674 0.000000
# 6 0.000000 0.000000 0.000000 0.000000 0.000000 0.022087
#
#
# Mechanical properties :
#
#
# Convention : Reuss Voigt Hill
#
# Bulk Modulus (GPa) = 46.67693 51.81845 49.24769
# Shear Modulus (GPa) = 25.29989 36.62616 30.96302
#
# Velocity S-wave (km/s) = 3.22512 3.88045 3.56787
# Velocity P-wave (km/s) = 5.74966 6.43281 6.10081
#
# Compressibility (1/GPa) = 0.02142386
#
# Stress axis : x y z
#
# Youngs Moduli (GPa) = 109.36293 78.43303 134.84576
#
# Poissons Ratio (x) = 0.23493 0.31619
# Poissons Ratio (y) = 0.32757 -0.18841
# Poissons Ratio (z) = 0.25643 -0.10959
#
# Static dielectric constant tensor:
#      x y z
#    x 1.886040 0.000000 0.000000 
#    y 0.000000 1.954490 0.000000 
#    z 0.000000 0.000000 2.127680 
# 
# From -- ./inp_files/37069.got.cif
#   From: 2010.05.17/outbox.cif.g08.bks.cpg/sg52_19_cif.got.tgz:37069.got - 2010.06.03 12:15:38.
