data_PCOD9412786
_publ_section_title
;
Structure prediction by ZEFSAII (Michael W. Deem and Ramdas Pophale) SiO2 
 PCOD9412786
Probable space group: P N N A
;
_chemical_formula_sum "Si O2"
_cell_formula_units_Z 48
_cell_length_a 21.688604
_cell_length_b 17.268245
_cell_length_c 5.534722
_cell_angle_alpha 90.000000
_cell_angle_beta 90.000000
_cell_angle_gamma 90.000000
_cell_volume 2072.886928
_symmetry_space_group_name_H-M "P N N A"
_symmetry_group_IT_number 52
_symmetry_cell_setting 'orthorhombic'
loop_
_space_group_symop_operation_xyz
x,y,z
1/2-x,-y,z
x,1/2-y,1/2-z
1/2-x,1/2+y,1/2-z
-x,-y,-z
1/2+x,y,-z
-x,1/2+y,1/2+z
1/2+x,1/2-y,1/2+z
loop_
_atom_site_type_symbol
_atom_site_label
_atom_site_fract_x
_atom_site_fract_y
_atom_site_fract_z
Si Si1 0.250000 0.000000 0.464199
Si Si2 0.208318 0.750000 0.750000
Si Si3 0.566609 0.367133 0.082796
Si Si4 0.308659 0.624101 0.678239
Si Si5 0.001074 0.750000 0.750000
Si Si6 0.630563 0.483125 0.711363
Si Si7 0.451394 0.119028 0.083183
Si Si8 0.865962 0.250000 0.750000
O O1 0.281043 0.937407 0.635135
O O2 0.310173 0.029696 0.318355
O O3 0.254196 0.683649 0.657005
O O4 0.169506 0.761265 0.504368
O O5 0.539958 0.291657 0.951227
O O6 0.586620 0.437429 0.901575
O O7 0.629802 0.342497 0.206299
O O8 0.515712 0.394455 0.277587
O O9 0.333181 0.581616 0.440804
O O10 0.037052 0.675608 0.643853
O O11 0.412566 0.459705 0.444930
O O12 0.409138 0.174688 0.243691
#
# Coordination Sequence:
#
# PCOD9412786 Si02
#       8
#     4   4   8   8   4   8   8   4
#     4  10  24  48  70 106 146 202 246 318 388 458
#     4  12  31  47  78 113 152 207 264 310 402 458
#     4  11  26  46  72 110 143 202 249 322 391 461
#     4  11  27  47  75 109 149 197 255 324 379 476
#     4  12  25  45  74 106 157 191 254 314 392 464
#     4  11  26  46  76 103 154 194 259 322 384 469
#     4  12  26  48  74 110 149 200 255 320 393 463
#     4  12  28  50  78 113 155 206 258 324 382 478
#
# _framework density 23.156110999999999
#
# number of rings (size 3 to 8) (size 9 to 14) (size 15 to 20)
#    0.000    0.667    1.667    3.500   14.000    5.333 
#    0.000    0.000    0.000    0.000    0.000    0.000 
#    0.000    0.000    0.000    0.000    0.000    0.000 
#
# Total GULP energy -268215.135923 kJ/mol
# GULP energy per Si atom -5587.815332 kJ/mol
# Density = 2.310341 g / cm^3
# Si number density = 23.156111 Si / 1000 Ang^3
#
#
#
# Elastic Constant Matrix: (Units=GPa)
#
#
# Indices 1 2 3 4 5 6 
#
# 1 135.3005 51.1459 61.6744 0.0000 0.0000 0.0000
# 2 51.1459 67.7975 22.5966 0.0000 0.0000 0.0000
# 3 61.6744 22.5966 101.5636 0.0000 0.0000 0.0000
# 4 0.0000 0.0000 0.0000 29.9766 0.0000 0.0000
# 5 0.0000 0.0000 0.0000 0.0000 41.7330 0.0000
# 6 0.0000 0.0000 0.0000 0.0000 0.0000 47.2878
#
#
#
# Elastic Compliance Matrix: (Units=1/GPa)
#
#
# Indices 1 2 3 4 5 6 
#
# 1 0.013239 -0.007893 -0.006283 0.000000 0.000000 0.000000
# 2 -0.007893 0.020637 0.000202 0.000000 0.000000 0.000000
# 3 -0.006283 0.000202 0.013617 0.000000 0.000000 0.000000
# 4 0.000000 0.000000 0.000000 0.033359 0.000000 0.000000
# 5 0.000000 0.000000 0.000000 0.000000 0.023962 0.000000
# 6 0.000000 0.000000 0.000000 0.000000 0.000000 0.021147
#
#
# Mechanical properties :
#
#
# Convention : Reuss Voigt Hill
#
# Bulk Modulus (GPa) = 51.16863 63.94395 57.55629
# Shear Modulus (GPa) = 31.16738 35.08248 33.12493
#
# Velocity S-wave (km/s) = 3.67272 3.89658 3.78630
# Velocity P-wave (km/s) = 6.33486 6.92233 6.63510
#
# Compressibility (1/GPa) = 0.01954322
#
# Stress axis : x y z
#
# Youngs Moduli (GPa) = 75.53618 48.45645 73.43986
#
# Poissons Ratio (x) = 0.38247 0.46143
# Poissons Ratio (y) = 0.59621 -0.01480
# Poissons Ratio (z) = 0.47460 -0.00977
#
# Static dielectric constant tensor:
#      x y z
#    x 1.899140 0.000000 0.000000 
#    y 0.000000 1.965640 0.000000 
#    z 0.000000 0.000000 1.948320 
# 
# From -- ./inp_files/3500.got.cif
#   From: 2010.05.17/outbox.cif.g08.bks.cpg/sg52_2_cif.got.tgz:3500.got - 2010.06.03 12:15:38.
