data_PCOD9412280
_publ_section_title
;
Structure prediction by ZEFSAII (Michael W. Deem and Ramdas Pophale) SiO2 
 PCOD9412280
Probable space group: P N N A
;
_chemical_formula_sum "Si O2"
_cell_formula_units_Z 40
_cell_length_a 9.497543
_cell_length_b 11.168218
_cell_length_c 18.352872
_cell_angle_alpha 90.000000
_cell_angle_beta 90.000000
_cell_angle_gamma 90.000000
_cell_volume 1946.700708
_symmetry_space_group_name_H-M "P N N A"
_symmetry_group_IT_number 52
_symmetry_cell_setting 'orthorhombic'
loop_
_space_group_symop_operation_xyz
x,y,z
1/2-x,-y,z
x,1/2-y,1/2-z
1/2-x,1/2+y,1/2-z
-x,-y,-z
1/2+x,y,-z
-x,1/2+y,1/2+z
1/2+x,1/2-y,1/2+z
loop_
_atom_site_type_symbol
_atom_site_label
_atom_site_fract_x
_atom_site_fract_y
_atom_site_fract_z
Si Si1 0.444476 0.246325 0.164094
Si Si2 0.230101 0.141372 0.689541
Si Si3 0.391220 0.076461 0.045419
Si Si4 0.727711 0.121171 0.576317
Si Si5 0.909136 0.186624 0.451375
O O1 0.427903 0.250000 0.250000
O O2 0.576369 0.336222 0.151990
O O3 0.467686 0.123240 0.119700
O O4 0.297789 0.281167 0.127663
O O5 0.238406 0.250000 0.750000
O O6 0.344911 0.169065 0.627991
O O7 0.250000 0.000000 0.712445
O O8 0.250000 0.000000 0.059707
O O9 0.368407 0.188083 0.989850
O O10 0.500000 0.000000 0.000000
O O11 0.832989 0.099825 0.508394
O O12 0.574684 0.162213 0.552177
O O13 0.750000 0.000000 0.621161
#
# Coordination Sequence:
#
# PCOD9412280 Si02
#       5
#     8   8   8   8   8
#     4  10  23  41  60  90 130 170 215 275 339 402
#     4  11  24  43  65  93 130 174 220 275 341 413
#     4  11  22  39  63  92 126 172 223 276 334 403
#     4  11  21  37  62  88 117 158 204 265 331 400
#     4  11  22  38  61  91 123 160 217 273 330 406
#
# _framework density 20.547585999999999
#
# number of rings (size 3 to 8) (size 9 to 14) (size 15 to 20)
#    0.000    1.200    0.000    8.400    0.000    5.600 
#    0.000    0.000    0.000    0.000    0.000    0.000 
#    0.000    0.000    0.000    0.000    0.000    0.000 
#
# Total GULP energy -222695.977667 kJ/mol
# GULP energy per Si atom -5567.399442 kJ/mol
# Density = 2.050082 g / cm^3
# Si number density = 20.547586 Si / 1000 Ang^3
#
#
#
# Elastic Constant Matrix: (Units=GPa)
#
#
# Indices 1 2 3 4 5 6 
#
# 1 153.5887 25.3047 44.4119 0.0000 0.0000 0.0000
# 2 25.3047 116.6583 35.1377 0.0000 0.0000 0.0000
# 3 44.4119 35.1377 123.8935 0.0000 0.0000 0.0000
# 4 0.0000 0.0000 0.0000 41.6417 0.0000 0.0000
# 5 0.0000 0.0000 0.0000 0.0000 215.6123 0.0000
# 6 0.0000 0.0000 0.0000 0.0000 0.0000 41.9665
#
#
#
# Elastic Compliance Matrix: (Units=1/GPa)
#
#
# Indices 1 2 3 4 5 6 
#
# 1 0.007345 -0.000875 -0.002385 0.000000 0.000000 0.000000
# 2 -0.000875 0.009477 -0.002374 0.000000 0.000000 0.000000
# 3 -0.002385 -0.002374 0.009600 0.000000 0.000000 0.000000
# 4 0.000000 0.000000 0.000000 0.024014 0.000000 0.000000
# 5 0.000000 0.000000 0.000000 0.000000 0.004638 0.000000
# 6 0.000000 0.000000 0.000000 0.000000 0.000000 0.023829
#
#
# Mechanical properties :
#
#
# Convention : Reuss Voigt Hill
#
# Bulk Modulus (GPa) = 65.99039 67.09433 66.54236
# Shear Modulus (GPa) = 52.50960 79.12984 65.81972
#
# Velocity S-wave (km/s) = 5.06069 6.21242 5.66589
# Velocity P-wave (km/s) = 8.14451 9.17512 8.67514
#
# Compressibility (1/GPa) = 0.01515372
#
# Stress axis : x y z
#
# Youngs Moduli (GPa) = 136.15463 105.51960 104.17076
#
# Poissons Ratio (x) = 0.09232 0.24841
# Poissons Ratio (y) = 0.11912 0.24732
# Poissons Ratio (z) = 0.32469 0.25052
#
# Static dielectric constant tensor:
#      x y z
#    x 1.745990 0.000000 0.000000 
#    y 0.000000 -4.288860 0.000000 
#    z 0.000000 0.000000 1.774900 
# 
# From -- ./inp_files/30901.got.cif
#   From: 2010.05.17/outbox.cif.g08.bks.cpg/sg52_16_cif.got.tgz:30901.got - 2010.06.03 12:15:38.
