data_PCOD9412995
_publ_section_title
;
Structure prediction by ZEFSAII (Michael W. Deem and Ramdas Pophale) SiO2 
 PCOD9412995
Probable space group: P N N A
;
_chemical_formula_sum "Si O2"
_cell_formula_units_Z 56
_cell_length_a 12.654378
_cell_length_b 14.475145
_cell_length_c 13.653714
_cell_angle_alpha 90.000000
_cell_angle_beta 90.000000
_cell_angle_gamma 90.000000
_cell_volume 2501.004813
_symmetry_space_group_name_H-M "P N N A"
_symmetry_group_IT_number 52
_symmetry_cell_setting 'orthorhombic'
loop_
_space_group_symop_operation_xyz
x,y,z
1/2-x,-y,z
x,1/2-y,1/2-z
1/2-x,1/2+y,1/2-z
-x,-y,-z
1/2+x,y,-z
-x,1/2+y,1/2+z
1/2+x,1/2-y,1/2+z
loop_
_atom_site_type_symbol
_atom_site_label
_atom_site_fract_x
_atom_site_fract_y
_atom_site_fract_z
Si Si1 0.393831 0.883503 0.865512
Si Si2 0.210488 0.393860 0.438391
Si Si3 0.288308 0.605242 0.847617
Si Si4 0.563974 0.662345 0.187605
Si Si5 0.091503 0.715940 0.433684
Si Si6 0.973321 0.084841 0.115060
Si Si7 0.019170 0.390579 0.991780
O O1 0.338531 0.886232 0.760710
O O2 0.494670 0.817384 0.865991
O O3 0.439185 0.980606 0.908668
O O4 0.312485 0.858022 0.951258
O O5 0.250000 0.500000 0.441581
O O6 0.298572 0.325114 0.396085
O O7 0.098350 0.397548 0.384238
O O8 0.250000 0.500000 0.863083
O O9 0.182947 0.666900 0.853490
O O10 0.376469 0.626453 0.928512
O O11 0.533928 0.750000 0.250000
O O12 0.568863 0.588042 0.273897
O O13 0.480421 0.642430 0.103880
O O14 0.071529 0.659690 0.537350
O O15 0.073525 0.825292 0.447078
O O16 0.000000 0.500000 0.000000
#
# Coordination Sequence:
#
# PCOD9412995 Si02
#       7
#     8   8   8   8   8   8   8
#     4  11  21  37  69 109 145 172 240 308 368 441
#     4  11  19  35  65 106 149 179 219 289 387 439
#     4  12  25  45  75 102 138 197 250 304 370 440
#     4  12  26  47  73 100 137 191 251 299 366 439
#     4  11  23  38  65 102 146 187 231 302 368 437
#     4  11  20  39  67 105 140 181 233 301 359 450
#     4  12  27  48  65  99 146 191 248 303 358 437
#
# _framework density 22.390998
#
# number of rings (size 3 to 8) (size 9 to 14) (size 15 to 20)
#    0.000    0.571    7.143    2.143    2.000    1.143 
#    0.000    2.143    0.000    0.000    0.000    0.000 
#    0.000    0.000    0.000    0.000    0.000    0.000 
#
# Total GULP energy -312952.228232 kJ/mol
# GULP energy per Si atom -5588.432647 kJ/mol
# Density = 2.234004 g / cm^3
# Si number density = 22.390998 Si / 1000 Ang^3
#
#
#
# Elastic Constant Matrix: (Units=GPa)
#
#
# Indices 1 2 3 4 5 6 
#
# 1 142.1599 34.3350 43.5540 0.0000 0.0000 0.0000
# 2 34.3350 114.0887 7.6110 0.0000 0.0000 0.0000
# 3 43.5540 7.6110 99.4692 0.0000 0.0000 0.0000
# 4 0.0000 0.0000 0.0000 24.2350 0.0000 0.0000
# 5 0.0000 0.0000 0.0000 0.0000 30.7266 0.0000
# 6 0.0000 0.0000 0.0000 0.0000 0.0000 33.2531
#
#
#
# Elastic Compliance Matrix: (Units=1/GPa)
#
#
# Indices 1 2 3 4 5 6 
#
# 1 0.008724 -0.002383 -0.003638 0.000000 0.000000 0.000000
# 2 -0.002383 0.009461 0.000319 0.000000 0.000000 0.000000
# 3 -0.003638 0.000319 0.011622 0.000000 0.000000 0.000000
# 4 0.000000 0.000000 0.000000 0.041263 0.000000 0.000000
# 5 0.000000 0.000000 0.000000 0.000000 0.032545 0.000000
# 6 0.000000 0.000000 0.000000 0.000000 0.000000 0.030072
#
#
# Mechanical properties :
#
#
# Convention : Reuss Voigt Hill
#
# Bulk Modulus (GPa) = 54.33401 58.52419 56.42910
# Shear Modulus (GPa) = 33.06345 35.65748 34.36046
#
# Velocity S-wave (km/s) = 3.84688 3.99493 3.92160
# Velocity P-wave (km/s) = 6.63701 6.89010 6.76474
#
# Compressibility (1/GPa) = 0.01840468
#
# Stress axis : x y z
#
# Youngs Moduli (GPa) = 114.62140 105.69779 86.04551
#
# Poissons Ratio (x) = 0.25187 0.31301
# Poissons Ratio (y) = 0.27313 -0.02749
# Poissons Ratio (z) = 0.41696 -0.03377
#
# Static dielectric constant tensor:
#      x y z
#    x 1.822980 0.000000 0.000000 
#    y 0.000000 2.024940 0.000000 
#    z 0.000000 0.000000 1.932550 
# 
# From -- ./inp_files/26156.got.cif
#   From: 2010.05.17/outbox.cif.g08.bks.cpg/sg52_14_cif.got.tgz:26156.got - 2010.06.03 12:15:38.
