data_PCOD9412277
_publ_section_title
;
Structure prediction by ZEFSAII (Michael W. Deem and Ramdas Pophale) SiO2 
 PCOD9412277
Probable space group: P N N A
;
_chemical_formula_sum "Si O2"
_cell_formula_units_Z 60
_cell_length_a 17.900543
_cell_length_b 17.718252
_cell_length_c 7.971974
_cell_angle_alpha 90.000000
_cell_angle_beta 90.000000
_cell_angle_gamma 90.000000
_cell_volume 2528.441751
_symmetry_space_group_name_H-M "P N N A"
_symmetry_group_IT_number 52
_symmetry_cell_setting 'orthorhombic'
loop_
_space_group_symop_operation_xyz
x,y,z
1/2-x,-y,z
x,1/2-y,1/2-z
1/2-x,1/2+y,1/2-z
-x,-y,-z
1/2+x,y,-z
-x,1/2+y,1/2+z
1/2+x,1/2-y,1/2+z
loop_
_atom_site_type_symbol
_atom_site_label
_atom_site_fract_x
_atom_site_fract_y
_atom_site_fract_z
Si Si1 0.727955 0.834346 0.419319
Si Si2 0.555483 0.828036 0.337806
Si Si3 0.429996 0.904135 0.847558
Si Si4 0.851407 0.750000 0.250000
Si Si5 0.259305 0.088601 0.941750
Si Si6 0.942314 0.568053 0.987018
Si Si7 0.296663 0.923172 0.274714
Si Si8 0.421779 0.069875 0.986424
O O1 0.639089 0.817388 0.413562
O O2 0.792385 0.772057 0.397200
O O3 0.740774 0.877071 0.242202
O O4 0.750882 0.877682 0.585734
O O5 0.534601 0.750000 0.250000
O O6 0.492095 0.856932 0.463909
O O7 0.556455 0.892984 0.193086
O O8 0.400010 0.818193 0.831320
O O9 0.402792 0.932828 0.666305
O O10 0.415730 0.978778 0.965900
O O11 0.519186 0.903462 0.875857
O O12 0.340378 0.102018 0.020937
O O13 0.250000 0.000000 0.910905
O O14 0.203076 0.112697 0.089002
O O15 0.879444 0.563062 0.845726
O O16 0.000000 0.500000 0.000000
O O17 0.250000 0.000000 0.256495
#
# Coordination Sequence:
#
# PCOD9412277 Si02
#       8
#     8   8   8   4   8   8   8   8
#     4  11  23  46  69  97 143 188 233 296 363 424
#     4  11  25  44  73 100 141 185 233 296 361 432
#     4  11  25  43  70 104 144 190 237 296 361 438
#     4  12  24  44  72 100 140 194 250 292 370 440
#     4  10  23  40  70 103 135 183 237 292 355 428
#     4  12  25  44  69 105 140 187 236 300 365 432
#     4  11  25  42  70 106 139 184 238 299 357 429
#     4  10  24  45  68 103 140 190 236 289 362 428
#
# _framework density 23.730031
#
# number of rings (size 3 to 8) (size 9 to 14) (size 15 to 20)
#    0.000    1.067    3.333    2.000    9.333    1.067 
#    0.000    0.667    0.000    0.000    0.000    0.000 
#    0.000    0.000    0.000    0.000    0.000    0.000 
#
# Total GULP energy -334848.941115 kJ/mol
# GULP energy per Si atom -5580.815685 kJ/mol
# Density = 2.367602 g / cm^3
# Si number density = 23.730031 Si / 1000 Ang^3
#
#
#
# Elastic Constant Matrix: (Units=GPa)
#
#
# Indices 1 2 3 4 5 6 
#
# 1 126.2083 28.2040 -0.2612 0.0000 0.0000 0.0000
# 2 28.2040 118.9077 28.1599 0.0000 0.0000 0.0000
# 3 -0.2612 28.1599 67.2312 0.0000 0.0000 0.0000
# 4 0.0000 0.0000 0.0000 35.0358 0.0000 0.0000
# 5 0.0000 0.0000 0.0000 0.0000 26.9007 0.0000
# 6 0.0000 0.0000 0.0000 0.0000 0.0000 38.2634
#
#
#
# Elastic Compliance Matrix: (Units=1/GPa)
#
#
# Indices 1 2 3 4 5 6 
#
# 1 0.008423 -0.002226 0.000965 0.000000 0.000000 0.000000
# 2 -0.002226 0.009924 -0.004166 0.000000 0.000000 0.000000
# 3 0.000965 -0.004166 0.016623 0.000000 0.000000 0.000000
# 4 0.000000 0.000000 0.000000 0.028542 0.000000 0.000000
# 5 0.000000 0.000000 0.000000 0.000000 0.037174 0.000000
# 6 0.000000 0.000000 0.000000 0.000000 0.000000 0.026135
#
#
# Mechanical properties :
#
#
# Convention : Reuss Voigt Hill
#
# Bulk Modulus (GPa) = 41.46533 47.17253 44.31893
# Shear Modulus (GPa) = 34.31405 37.12294 35.71850
#
# Velocity S-wave (km/s) = 3.80678 3.95952 3.88390
# Velocity P-wave (km/s) = 6.06909 6.38950 6.23135
#
# Compressibility (1/GPa) = 0.02411654
#
# Stress axis : x y z
#
# Youngs Moduli (GPa) = 118.72311 100.76105 60.15927
#
# Poissons Ratio (x) = 0.22434 -0.05807
# Poissons Ratio (y) = 0.26433 0.25060
# Poissons Ratio (z) = -0.11460 0.41972
#
# Static dielectric constant tensor:
#      x y z
#    x 1.979740 0.000000 0.000000 
#    y 0.000000 2.039840 0.000000 
#    z 0.000000 0.000000 1.925270 
# 
# From -- ./inp_files/12434.got.cif
#   From: 2010.05.17/outbox.cif.g08.bks.cpg/sg52_7_cif.got.tgz:12434.got - 2010.06.03 12:15:38.
