data_PCOD9412037
_publ_section_title
;
Structure prediction by ZEFSAII (Michael W. Deem and Ramdas Pophale) SiO2 
 PCOD9412037
Probable space group: P N N A
;
_chemical_formula_sum "Si O2"
_cell_formula_units_Z 44
_cell_length_a 13.083949
_cell_length_b 15.608531
_cell_length_c 9.999932
_cell_angle_alpha 90.000000
_cell_angle_beta 90.000000
_cell_angle_gamma 90.000000
_cell_volume 2042.198349
_symmetry_space_group_name_H-M "P N N A"
_symmetry_group_IT_number 52
_symmetry_cell_setting 'orthorhombic'
loop_
_space_group_symop_operation_xyz
x,y,z
1/2-x,-y,z
x,1/2-y,1/2-z
1/2-x,1/2+y,1/2-z
-x,-y,-z
1/2+x,y,-z
-x,1/2+y,1/2+z
1/2+x,1/2-y,1/2+z
loop_
_atom_site_type_symbol
_atom_site_label
_atom_site_fract_x
_atom_site_fract_y
_atom_site_fract_z
Si Si1 0.596336 0.313488 0.495388
Si Si2 0.922933 0.211905 0.383594
Si Si3 0.225557 0.360069 0.986041
Si Si4 0.250000 0.000000 0.732445
Si Si5 0.897734 0.909070 0.732237
Si Si6 0.952515 0.975323 0.143535
O O1 0.482293 0.284393 0.535269
O O2 0.663931 0.229389 0.472237
O O3 0.635287 0.366283 0.626533
O O4 0.584987 0.378220 0.373099
O O5 0.870584 0.250000 0.250000
O O6 0.844208 0.163085 0.475884
O O7 0.013000 0.151722 0.327529
O O8 0.190444 0.404255 0.123299
O O9 0.209066 0.425902 0.865282
O O10 0.151331 0.973554 0.819398
O O11 0.956267 0.998392 0.757014
O O12 0.000000 0.000000 0.000000
#
# Coordination Sequence:
#
# PCOD9412037 Si02
#       6
#     8   8   8   4   8   8
#     4   9  21  39  69  96 129 173 228 282 324 394
#     4   9  18  36  63  92 123 172 213 271 335 396
#     4  11  22  38  67  99 133 175 222 271 335 417
#     4  12  26  40  70  96 130 188 224 270 352 416
#     4   9  19  43  65  92 136 174 215 278 344 388
#     4  10  22  43  67  96 130 174 227 283 335 398
#
# _framework density 21.545411000000001
#
# number of rings (size 3 to 8) (size 9 to 14) (size 15 to 20)
#    0.000    2.182    1.818    1.636    2.545    0.727 
#    0.000    7.273    0.000    0.000    0.000    0.000 
#    0.000    0.000    0.000    0.000    0.000    0.000 
#
# Total GULP energy -245469.614028 kJ/mol
# GULP energy per Si atom -5578.854864 kJ/mol
# Density = 2.149637 g / cm^3
# Si number density = 21.545411 Si / 1000 Ang^3
#
#
#
# Elastic Constant Matrix: (Units=GPa)
#
#
# Indices 1 2 3 4 5 6 
#
# 1 45.2136 4.7499 46.8489 0.0000 0.0000 0.0000
# 2 4.7499 84.4970 42.2814 0.0000 0.0000 0.0000
# 3 46.8489 42.2814 97.4097 0.0000 0.0000 0.0000
# 4 0.0000 0.0000 0.0000 39.1958 0.0000 0.0000
# 5 0.0000 0.0000 0.0000 0.0000 28.0004 0.0000
# 6 0.0000 0.0000 0.0000 0.0000 0.0000 29.2793
#
#
#
# Elastic Compliance Matrix: (Units=1/GPa)
#
#
# Indices 1 2 3 4 5 6 
#
# 1 0.052605 0.012395 -0.030680 0.000000 0.000000 0.000000
# 2 0.012395 0.018039 -0.013791 0.000000 0.000000 0.000000
# 3 -0.030680 -0.013791 0.031008 0.000000 0.000000 0.000000
# 4 0.000000 0.000000 0.000000 0.025513 0.000000 0.000000
# 5 0.000000 0.000000 0.000000 0.000000 0.035714 0.000000
# 6 0.000000 0.000000 0.000000 0.000000 0.000000 0.034154
#
#
# Mechanical properties :
#
#
# Convention : Reuss Voigt Hill
#
# Bulk Modulus (GPa) = 26.66776 46.09785 36.38281
# Shear Modulus (GPa) = 18.26917 28.17777 23.22347
#
# Velocity S-wave (km/s) = 2.91510 3.62032 3.28668
# Velocity P-wave (km/s) = 4.87183 6.23841 5.59698
#
# Compressibility (1/GPa) = 0.03749846
#
# Stress axis : x y z
#
# Youngs Moduli (GPa) = 19.00956 55.43557 32.25000
#
# Poissons Ratio (x) = -0.68712 0.98944
# Poissons Ratio (y) = -0.23562 0.44477
# Poissons Ratio (z) = 0.58322 0.76453
#
# Static dielectric constant tensor:
#      x y z
#    x 1.805700 0.000000 0.000000 
#    y 0.000000 1.869480 0.000000 
#    z 0.000000 0.000000 1.810170 
# 
# From -- ./inp_files/10334.got.cif
#   From: 2010.05.17/outbox.cif.g08.bks.cpg/sg52_6_cif.got.tgz:10334.got - 2010.06.03 12:15:38.
