data_PCOD9412986
_publ_section_title
;
Structure prediction by ZEFSAII (Michael W. Deem and Ramdas Pophale) SiO2 
 PCOD9412986
Probable space group: P N N A
;
_chemical_formula_sum "Si O2"
_cell_formula_units_Z 36
_cell_length_a 15.987931
_cell_length_b 14.863872
_cell_length_c 8.354793
_cell_angle_alpha 90.000000
_cell_angle_beta 90.000000
_cell_angle_gamma 90.000000
_cell_volume 1985.454396
_symmetry_space_group_name_H-M "P N N A"
_symmetry_group_IT_number 52
_symmetry_cell_setting 'orthorhombic'
loop_
_space_group_symop_operation_xyz
x,y,z
1/2-x,-y,z
x,1/2-y,1/2-z
1/2-x,1/2+y,1/2-z
-x,-y,-z
1/2+x,y,-z
-x,1/2+y,1/2+z
1/2+x,1/2-y,1/2+z
loop_
_atom_site_type_symbol
_atom_site_label
_atom_site_fract_x
_atom_site_fract_y
_atom_site_fract_z
Si Si1 0.404288 0.509318 0.956507
Si Si2 0.750000 0.500000 0.809468
Si Si3 0.274355 0.180147 0.121143
Si Si4 0.326377 0.695262 0.892009
Si Si5 0.809649 0.414281 0.310697
O O1 0.384268 0.614397 0.941763
O O2 0.384180 0.455891 0.792719
O O3 0.500000 0.500000 0.000000
O O4 0.332005 0.480406 0.082586
O O5 0.761080 0.591309 0.708402
O O6 0.312982 0.250000 0.250000
O O7 0.203272 0.239385 0.032591
O O8 0.328443 0.140474 0.972664
O O9 0.368657 0.750000 0.750000
O O10 0.244827 0.649359 0.807496
O O11 0.750000 0.500000 0.350287
#
# Coordination Sequence:
#
# PCOD9412986 Si02
#       5
#     8   4   8   8   8
#     4  11  21  39  63  90 126 168 209 262 322 389
#     4  12  22  38  62  92 120 162 216 264 320 376
#     4  11  19  33  65  90 119 162 211 266 320 374
#     4   9  18  35  63  86 119 166 208 253 319 380
#     4   9  17  35  60  88 116 163 209 253 317 381
#
# _framework density 18.131869999999999
#
# number of rings (size 3 to 8) (size 9 to 14) (size 15 to 20)
#    0.000    1.778    6.667    0.000    0.000    0.000 
#    0.000    4.444   24.444    0.000    0.000    0.000 
#    0.000    0.000    0.000    0.000    0.000    0.000 
#
# Total GULP energy -200463.080891 kJ/mol
# GULP energy per Si atom -5568.418914 kJ/mol
# Density = 1.809060 g / cm^3
# Si number density = 18.131870 Si / 1000 Ang^3
#
#
#
# Elastic Constant Matrix: (Units=GPa)
#
#
# Indices 1 2 3 4 5 6 
#
# 1 86.6072 25.8926 54.2860 0.0000 0.0000 0.0000
# 2 25.8926 133.6393 68.4076 0.0000 0.0000 0.0000
# 3 54.2860 68.4076 123.6902 0.0000 0.0000 0.0000
# 4 0.0000 0.0000 0.0000 67.8209 0.0000 0.0000
# 5 0.0000 0.0000 0.0000 0.0000 10.1889 0.0000
# 6 0.0000 0.0000 0.0000 0.0000 0.0000 12.5047
#
#
#
# Elastic Compliance Matrix: (Units=1/GPa)
#
#
# Indices 1 2 3 4 5 6 
#
# 1 0.015973 0.000689 -0.007391 0.000000 0.000000 0.000000
# 2 0.000689 0.010467 -0.006091 0.000000 0.000000 0.000000
# 3 -0.007391 -0.006091 0.014698 0.000000 0.000000 0.000000
# 4 0.000000 0.000000 0.000000 0.014745 0.000000 0.000000
# 5 0.000000 0.000000 0.000000 0.000000 0.098146 0.000000
# 6 0.000000 0.000000 0.000000 0.000000 0.000000 0.079970
#
#
# Mechanical properties :
#
#
# Convention : Reuss Voigt Hill
#
# Bulk Modulus (GPa) = 64.30732 71.23434 67.77083
# Shear Modulus (GPa) = 18.88426 31.12626 25.00526
#
# Velocity S-wave (km/s) = 3.23072 4.14775 3.71762
# Velocity P-wave (km/s) = 7.03280 7.89371 7.47565
#
# Compressibility (1/GPa) = 0.01555033
#
# Stress axis : x y z
#
# Youngs Moduli (GPa) = 62.60372 95.53422 68.03840
#
# Poissons Ratio (x) = -0.06579 0.50290
# Poissons Ratio (y) = -0.04311 0.41445
# Poissons Ratio (z) = 0.46273 0.58193
#
# Static dielectric constant tensor:
#      x y z
#    x 1.260600 0.000000 0.000000 
#    y 0.000000 1.668930 0.000000 
#    z 0.000000 0.000000 1.705330 
# 
# From -- ./inp_files/9925.got.cif
#   From: 2010.05.17/outbox.cif.g08.bks.cpg/sg52_5_cif.got.tgz:9925.got - 2010.06.03 12:15:38.
