data_PCOD9412249
_publ_section_title
;
Structure prediction by ZEFSAII (Michael W. Deem and Ramdas Pophale) SiO2 
 PCOD9412249
Probable space group: P N N A
;
_chemical_formula_sum "Si O2"
_cell_formula_units_Z 48
_cell_length_a 13.868787
_cell_length_b 24.980339
_cell_length_c 7.160224
_cell_angle_alpha 90.000000
_cell_angle_beta 90.000000
_cell_angle_gamma 90.000000
_cell_volume 2480.638130
_symmetry_space_group_name_H-M "P N N A"
_symmetry_group_IT_number 52
_symmetry_cell_setting 'orthorhombic'
loop_
_space_group_symop_operation_xyz
x,y,z
1/2-x,-y,z
x,1/2-y,1/2-z
1/2-x,1/2+y,1/2-z
-x,-y,-z
1/2+x,y,-z
-x,1/2+y,1/2+z
1/2+x,1/2-y,1/2+z
loop_
_atom_site_type_symbol
_atom_site_label
_atom_site_fract_x
_atom_site_fract_y
_atom_site_fract_z
Si Si1 0.324562 0.699222 0.116954
Si Si2 0.217132 0.627495 0.419138
Si Si3 0.823283 0.306862 0.211138
Si Si4 0.895122 0.947865 0.899239
Si Si5 0.455358 0.059367 0.219660
Si Si6 0.499653 0.377886 0.910022
O O1 0.346411 0.750000 0.250000
O O2 0.258356 0.661417 0.246921
O O3 0.419987 0.667559 0.054774
O O4 0.261363 0.708777 0.932508
O O5 0.215263 0.664442 0.602283
O O6 0.291870 0.578405 0.436489
O O7 0.111627 0.604835 0.373444
O O8 0.874249 0.250000 0.250000
O O9 0.898763 0.348582 0.125172
O O10 0.959765 0.908836 0.770447
O O11 0.894657 0.004457 0.792477
O O12 0.950733 0.952400 0.095136
O O13 0.486170 0.080436 0.421550
#
# Coordination Sequence:
#
# PCOD9412249 Si02
#       6
#     8   8   8   8   8   8
#     4  11  23  42  61  90 123 164 207 255 311 368
#     4  11  22  40  63  89 126 163 205 256 310 370
#     4  12  23  40  64  91 123 164 210 254 312 373
#     4  10  23  39  64  89 126 163 206 255 307 377
#     4  11  21  41  64  91 123 164 205 254 317 366
#     4  11  23  40  63  92 124 160 209 260 307 370
#
# _framework density 19.349858999999999
#
# number of rings (size 3 to 8) (size 9 to 14) (size 15 to 20)
#    0.000    1.000    5.000    2.500    0.000    0.000 
#    0.000    0.833    0.000    0.000    0.000    0.000 
#    0.000    0.000    0.000    0.000    0.000    0.000 
#
# Total GULP energy -267981.215237 kJ/mol
# GULP energy per Si atom -5582.941984 kJ/mol
# Density = 1.930582 g / cm^3
# Si number density = 19.349859 Si / 1000 Ang^3
#
#
#
# Elastic Constant Matrix: (Units=GPa)
#
#
# Indices 1 2 3 4 5 6 
#
# 1 46.5567 4.8023 19.5046 0.0000 0.0000 0.0000
# 2 4.8023 74.7637 6.3445 0.0000 0.0000 0.0000
# 3 19.5046 6.3445 64.5204 0.0000 0.0000 0.0000
# 4 0.0000 0.0000 0.0000 43.2083 0.0000 0.0000
# 5 0.0000 0.0000 0.0000 0.0000 11.7739 0.0000
# 6 0.0000 0.0000 0.0000 0.0000 0.0000 27.3540
#
#
#
# Elastic Compliance Matrix: (Units=1/GPa)
#
#
# Indices 1 2 3 4 5 6 
#
# 1 0.024662 -0.000959 -0.007361 0.000000 0.000000 0.000000
# 2 -0.000959 0.013525 -0.001040 0.000000 0.000000 0.000000
# 3 -0.007361 -0.001040 0.017826 0.000000 0.000000 0.000000
# 4 0.000000 0.000000 0.000000 0.023144 0.000000 0.000000
# 5 0.000000 0.000000 0.000000 0.000000 0.084934 0.000000
# 6 0.000000 0.000000 0.000000 0.000000 0.000000 0.036558
#
#
# Mechanical properties :
#
#
# Convention : Reuss Voigt Hill
#
# Bulk Modulus (GPa) = 26.81467 27.46039 27.13753
# Shear Modulus (GPa) = 21.57026 26.81321 24.19173
#
# Velocity S-wave (km/s) = 3.34241 3.72655 3.53969
# Velocity P-wave (km/s) = 5.36503 5.72176 5.54626
#
# Compressibility (1/GPa) = 0.03729301
#
# Stress axis : x y z
#
# Youngs Moduli (GPa) = 40.54826 73.93522 56.09637
#
# Poissons Ratio (x) = 0.07094 0.41292
# Poissons Ratio (y) = 0.03890 0.05834
# Poissons Ratio (z) = 0.29848 0.07689
#
# Static dielectric constant tensor:
#      x y z
#    x 1.648450 0.000000 0.000000 
#    y 0.000000 1.699940 0.000000 
#    z 0.000000 0.000000 1.651520 
# 
# From -- ./inp_files/2452.got.cif
#   From: 2010.05.17/outbox.cif.g08.bks.cpg/sg52_2_cif.got.tgz:2452.got - 2010.06.03 12:15:38.
