data_PCOD9412624
_publ_section_title
;
Structure prediction by ZEFSAII (Michael W. Deem and Ramdas Pophale) SiO2 
 PCOD9412624
Probable space group: P N N A
;
_chemical_formula_sum "Si O2"
_cell_formula_units_Z 48
_cell_length_a 15.296148
_cell_length_b 16.682867
_cell_length_c 8.576708
_cell_angle_alpha 90.000000
_cell_angle_beta 90.000000
_cell_angle_gamma 90.000000
_cell_volume 2188.635247
_symmetry_space_group_name_H-M "P N N A"
_symmetry_group_IT_number 52
_symmetry_cell_setting 'orthorhombic'
loop_
_space_group_symop_operation_xyz
x,y,z
1/2-x,-y,z
x,1/2-y,1/2-z
1/2-x,1/2+y,1/2-z
-x,-y,-z
1/2+x,y,-z
-x,1/2+y,1/2+z
1/2+x,1/2-y,1/2+z
loop_
_atom_site_type_symbol
_atom_site_label
_atom_site_fract_x
_atom_site_fract_y
_atom_site_fract_z
Si Si1 0.224976 0.346751 0.725091
Si Si2 0.588444 0.504928 0.801256
Si Si3 0.051288 0.133322 0.639946
Si Si4 0.910113 0.250000 0.750000
Si Si5 0.379345 0.839068 0.303068
Si Si6 0.794444 0.123099 0.886784
Si Si7 0.250000 0.500000 0.952521
O O1 0.246136 0.250000 0.750000
O O2 0.119442 0.352949 0.721863
O O3 0.259804 0.378081 0.560383
O O4 0.251452 0.417216 0.850255
O O5 0.499466 0.549334 0.849681
O O6 0.564490 0.415222 0.748265
O O7 0.642649 0.551140 0.666959
O O8 0.661914 0.501946 0.940203
O O9 0.106210 0.157261 0.487854
O O10 0.970607 0.192114 0.652933
O O11 0.851668 0.202056 0.869097
O O12 0.400654 0.750000 0.250000
O O13 0.283837 0.862867 0.237452
#
# Coordination Sequence:
#
# PCOD9412624 Si02
#       7
#     8   8   8   4   8   8   4
#     4  12  27  46  72 109 145 193 238 309 358 433
#     4  11  24  47  74 103 141 197 235 294 360 442
#     4  11  24  46  71 102 145 185 241 292 375 410
#     4  10  24  42  70 102 142 184 228 310 344 428
#     4  12  23  42  75 100 136 191 240 290 353 438
#     4  11  24  44  72 102 143 182 244 286 361 425
#     4  12  26  46  76 104 148 196 246 292 368 430
#
# _framework density 21.931474999999999
#
# number of rings (size 3 to 8) (size 9 to 14) (size 15 to 20)
#    0.000    0.667    5.000    1.500    7.000    0.000 
#    3.000    0.833    0.000    0.000    0.000    0.000 
#    0.000    0.000    0.000    0.000    0.000    0.000 
#
# Total GULP energy -267715.961099 kJ/mol
# GULP energy per Si atom -5577.415856 kJ/mol
# Density = 2.188156 g / cm^3
# Si number density = 21.931475 Si / 1000 Ang^3
#
#
#
# Elastic Constant Matrix: (Units=GPa)
#
#
# Indices 1 2 3 4 5 6 
#
# 1 43.8851 18.9416 45.9741 0.0000 0.0000 0.0000
# 2 18.9416 173.6746 34.2829 0.0000 0.0000 0.0000
# 3 45.9741 34.2829 100.5452 0.0000 0.0000 0.0000
# 4 0.0000 0.0000 0.0000 19.9167 0.0000 0.0000
# 5 0.0000 0.0000 0.0000 0.0000 -12.6652 0.0000
# 6 0.0000 0.0000 0.0000 0.0000 0.0000 613.3980
#
#
#
# Elastic Compliance Matrix: (Units=1/GPa)
#
#
# Indices 1 2 3 4 5 6 
#
# 1 0.043864 -0.000884 -0.019755 0.000000 0.000000 0.000000
# 2 -0.000884 0.006191 -0.001707 0.000000 0.000000 0.000000
# 3 -0.019755 -0.001707 0.019561 0.000000 0.000000 0.000000
# 4 0.000000 0.000000 0.000000 0.050209 0.000000 0.000000
# 5 0.000000 0.000000 0.000000 0.000000 -0.078957 0.000000
# 6 0.000000 0.000000 0.000000 0.000000 0.000000 0.001630
#
#
# Mechanical properties :
#
#
# Convention : Reuss Voigt Hill
#
# Bulk Modulus (GPa) = 40.12267 57.38915 48.75591
# Shear Modulus (GPa) = 52.35648 138.72366 95.54007
#
# Velocity S-wave (km/s) = 4.89128 7.96182 6.60739
# Velocity P-wave (km/s) = 7.08758 10.52355 8.97159
#
# Compressibility (1/GPa) = 0.02492357
#
# Stress axis : x y z
#
# Youngs Moduli (GPa) = 22.79768 161.51869 51.12280
#
# Poissons Ratio (x) = 0.14284 1.00994
# Poissons Ratio (y) = 0.02016 0.08725
# Poissons Ratio (z) = 0.45037 0.27566
#
# Static dielectric constant tensor:
#      x y z
#    x 1.792990 0.000000 0.000000 
#    y 0.000000 1.874860 0.000000 
#    z 0.000000 0.000000 1.828860 
# 
# From -- ./inp_files/10550.got.cif
#   From: 2010.05.17/outbox.cif.g08.bks.cpg/sg52_6_cif.got.tgz:10550.got - 2010.06.03 12:15:38.
