data_PCOD9412528
_publ_section_title
;
Structure prediction by ZEFSAII (Michael W. Deem and Ramdas Pophale) SiO2 
 PCOD9412528
Probable space group: P N N A
;
_chemical_formula_sum "Si O2"
_cell_formula_units_Z 40
_cell_length_a 13.693990
_cell_length_b 8.223614
_cell_length_c 14.768052
_cell_angle_alpha 90.000000
_cell_angle_beta 90.000000
_cell_angle_gamma 90.000000
_cell_volume 1663.090706
_symmetry_space_group_name_H-M "P N N A"
_symmetry_group_IT_number 52
_symmetry_cell_setting 'orthorhombic'
loop_
_space_group_symop_operation_xyz
x,y,z
1/2-x,-y,z
x,1/2-y,1/2-z
1/2-x,1/2+y,1/2-z
-x,-y,-z
1/2+x,y,-z
-x,1/2+y,1/2+z
1/2+x,1/2-y,1/2+z
loop_
_atom_site_type_symbol
_atom_site_label
_atom_site_fract_x
_atom_site_fract_y
_atom_site_fract_z
Si Si1 0.069434 0.995388 0.382252
Si Si2 0.900156 0.307763 0.067196
Si Si3 0.203645 0.180626 0.849412
Si Si4 0.086939 0.170371 0.024946
Si Si5 0.165081 0.750000 0.250000
Si Si6 0.750000 0.000000 0.880612
O O1 0.089310 0.876357 0.466156
O O2 0.117074 0.162642 0.420815
O O3 0.105304 0.897390 0.295893
O O4 0.957783 0.057278 0.373013
O O5 0.793141 0.277381 0.102469
O O6 0.975813 0.155843 0.060534
O O7 0.182698 0.250000 0.750000
O O8 0.250000 0.000000 0.841048
O O9 0.112866 0.191236 0.919242
O O10 0.156025 0.028889 0.058975
O O11 0.231509 0.842595 0.178738
#
# Coordination Sequence:
#
# PCOD9412528 Si02
#       6
#     8   8   8   8   4   4
#     4   9  22  46  72 100 140 197 233 308 359 445
#     4   9  23  49  72  99 142 202 235 295 376 432
#     4  12  28  46  74 113 147 195 252 311 362 444
#     4  10  23  49  71 100 146 195 238 294 377 432
#     4  12  24  40  68 110 142 180 252 302 366 422
#     4  12  24  40  66 108 140 188 230 296 364 434
#
# _framework density 24.051604000000001
#
# number of rings (size 3 to 8) (size 9 to 14) (size 15 to 20)
#    1.200    0.400    1.000    2.400    2.800    4.000 
#    5.400    0.000    0.000    0.000    0.000    0.000 
#    0.000    0.000    0.000    0.000    0.000    0.000 
#
# Total GULP energy -223343.209844 kJ/mol
# GULP energy per Si atom -5583.580246 kJ/mol
# Density = 2.399686 g / cm^3
# Si number density = 24.051604 Si / 1000 Ang^3
#
#
#
# Elastic Constant Matrix: (Units=GPa)
#
#
# Indices 1 2 3 4 5 6 
#
# 1 75.4764 21.6089 37.5768 0.0000 0.0000 0.0000
# 2 21.6089 84.5921 24.3251 0.0000 0.0000 0.0000
# 3 37.5768 24.3251 86.4198 0.0000 0.0000 0.0000
# 4 0.0000 0.0000 0.0000 51.0739 0.0000 0.0000
# 5 0.0000 0.0000 0.0000 0.0000 24.8403 0.0000
# 6 0.0000 0.0000 0.0000 0.0000 0.0000 43.8636
#
#
#
# Elastic Compliance Matrix: (Units=1/GPa)
#
#
# Indices 1 2 3 4 5 6 
#
# 1 0.017370 -0.002465 -0.006859 0.000000 0.000000 0.000000
# 2 -0.002465 0.013212 -0.002647 0.000000 0.000000 0.000000
# 3 -0.006859 -0.002647 0.015299 0.000000 0.000000 0.000000
# 4 0.000000 0.000000 0.000000 0.019579 0.000000 0.000000
# 5 0.000000 0.000000 0.000000 0.000000 0.040257 0.000000
# 6 0.000000 0.000000 0.000000 0.000000 0.000000 0.022798
#
#
# Mechanical properties :
#
#
# Convention : Reuss Voigt Hill
#
# Bulk Modulus (GPa) = 45.58056 45.94554 45.76305
# Shear Modulus (GPa) = 31.29500 34.82074 33.05787
#
# Velocity S-wave (km/s) = 3.61107 3.80906 3.71139
# Velocity P-wave (km/s) = 6.03148 6.20400 6.11835
#
# Compressibility (1/GPa) = 0.02193918
#
# Stress axis : x y z
#
# Youngs Moduli (GPa) = 57.57195 75.68724 65.36424
#
# Poissons Ratio (x) = 0.18655 0.44832
# Poissons Ratio (y) = 0.14190 0.17303
# Poissons Ratio (z) = 0.39488 0.20036
#
# Static dielectric constant tensor:
#      x y z
#    x 2.022740 0.000000 0.000000 
#    y 0.000000 1.884100 0.000000 
#    z 0.000000 0.000000 1.975120 
# 
# From -- ./inp_files/26979.got.cif
#   From: 2010.05.17/outbox.cif.g08.bks.cpg/sg52_14_cif.got.tgz:26979.got - 2010.06.03 12:15:38.
