data_PCOD9412599
_publ_section_title
;
Structure prediction by ZEFSAII (Michael W. Deem and Ramdas Pophale) SiO2 
 PCOD9412599
Probable space group: P N N A
;
_chemical_formula_sum "Si O2"
_cell_formula_units_Z 48
_cell_length_a 23.028663
_cell_length_b 8.682102
_cell_length_c 10.696765
_cell_angle_alpha 90.000000
_cell_angle_beta 90.000000
_cell_angle_gamma 90.000000
_cell_volume 2138.681255
_symmetry_space_group_name_H-M "P N N A"
_symmetry_group_IT_number 52
_symmetry_cell_setting 'orthorhombic'
loop_
_space_group_symop_operation_xyz
x,y,z
1/2-x,-y,z
x,1/2-y,1/2-z
1/2-x,1/2+y,1/2-z
-x,-y,-z
1/2+x,y,-z
-x,1/2+y,1/2+z
1/2+x,1/2-y,1/2+z
loop_
_atom_site_type_symbol
_atom_site_label
_atom_site_fract_x
_atom_site_fract_y
_atom_site_fract_z
Si Si1 0.811792 0.427958 0.729170
Si Si2 0.408578 0.755352 0.942268
Si Si3 0.997895 0.646798 0.640735
Si Si4 0.371230 0.441912 0.008131
Si Si5 0.883529 0.089488 0.020363
Si Si6 0.525675 0.625795 0.827823
O O1 0.750000 0.500000 0.699075
O O2 0.800482 0.250000 0.750000
O O3 0.837115 0.477313 0.863322
O O4 0.854920 0.448842 0.612750
O O5 0.439820 0.784618 0.078260
O O6 0.368257 0.603390 0.934321
O O7 0.379352 0.921055 0.908718
O O8 0.465738 0.703453 0.867160
O O9 0.026087 0.750000 0.750000
O O10 0.047015 0.613025 0.537700
O O11 0.983169 0.502886 0.725718
O O12 0.359458 0.267459 0.954256
O O13 0.438456 0.429126 0.053187
O O14 0.563083 0.750000 0.750000
#
# Coordination Sequence:
#
# PCOD9412599 Si02
#       6
#     8   8   8   8   8   8
#     4  10  24  42  65  91 121 155 206 267 315 359
#     4  12  23  36  59  85 131 171 196 242 298 373
#     4  12  22  35  56  86 121 166 204 235 298 365
#     4  11  22  38  57  87 123 161 199 246 301 369
#     4  11  23  39  57  87 120 159 204 250 302 363
#     4  12  21  35  54  84 125 164 206 235 286 371
#
# _framework density 22.443736999999999
#
# number of rings (size 3 to 8) (size 9 to 14) (size 15 to 20)
#    0.000    0.667    5.000    5.500    2.333    0.000 
#    0.000    0.000    0.000    0.000    4.333    0.000 
#    0.000    0.000    0.000    0.000    0.000    0.000 
#
# Total GULP energy -267230.151888 kJ/mol
# GULP energy per Si atom -5567.294831 kJ/mol
# Density = 2.239265 g / cm^3
# Si number density = 22.443737 Si / 1000 Ang^3
#
#
#
# Elastic Constant Matrix: (Units=GPa)
#
#
# Indices 1 2 3 4 5 6 
#
# 1 63.3172 24.2463 18.7917 0.0000 0.0000 0.0000
# 2 24.2463 165.0912 24.7783 0.0000 0.0000 0.0000
# 3 18.7917 24.7783 52.8237 0.0000 0.0000 0.0000
# 4 0.0000 0.0000 0.0000 33.4374 0.0000 0.0000
# 5 0.0000 0.0000 0.0000 0.0000 15.2273 0.0000
# 6 0.0000 0.0000 0.0000 0.0000 0.0000 24.1316
#
#
#
# Elastic Compliance Matrix: (Units=1/GPa)
#
#
# Indices 1 2 3 4 5 6 
#
# 1 0.018155 -0.001826 -0.005602 0.000000 0.000000 0.000000
# 2 -0.001826 0.006700 -0.002493 0.000000 0.000000 0.000000
# 3 -0.005602 -0.002493 0.022093 0.000000 0.000000 0.000000
# 4 0.000000 0.000000 0.000000 0.029907 0.000000 0.000000
# 5 0.000000 0.000000 0.000000 0.000000 0.065671 0.000000
# 6 0.000000 0.000000 0.000000 0.000000 0.000000 0.041440
#
#
# Mechanical properties :
#
#
# Convention : Reuss Voigt Hill
#
# Bulk Modulus (GPa) = 36.89198 46.31828 41.60513
# Shear Modulus (GPa) = 23.49147 28.78698 26.13922
#
# Velocity S-wave (km/s) = 3.23876 3.58527 3.41641
# Velocity P-wave (km/s) = 5.51899 6.14989 5.84296
#
# Compressibility (1/GPa) = 0.02710616
#
# Stress axis : x y z
#
# Youngs Moduli (GPa) = 55.08054 149.26341 45.26246
#
# Poissons Ratio (x) = 0.27249 0.25357
# Poissons Ratio (y) = 0.10055 0.11285
# Poissons Ratio (z) = 0.30858 0.37214
#
# Static dielectric constant tensor:
#      x y z
#    x 1.812670 0.000000 0.000000 
#    y 0.000000 1.994190 0.000000 
#    z 0.000000 0.000000 1.944010 
# 
# From -- ./inp_files/22275.got.cif
#   From: 2010.05.17/outbox.cif.g08.bks.cpg/sg52_12_cif.got.tgz:22275.got - 2010.06.03 12:15:38.
