data_PCOD9412540
_publ_section_title
;
Structure prediction by ZEFSAII (Michael W. Deem and Ramdas Pophale) SiO2 
 PCOD9412540
Probable space group: P N N A
;
_chemical_formula_sum "Si O2"
_cell_formula_units_Z 36
_cell_length_a 9.336314
_cell_length_b 23.469064
_cell_length_c 7.669767
_cell_angle_alpha 90.000000
_cell_angle_beta 90.000000
_cell_angle_gamma 90.000000
_cell_volume 1680.557551
_symmetry_space_group_name_H-M "P N N A"
_symmetry_group_IT_number 52
_symmetry_cell_setting 'orthorhombic'
loop_
_space_group_symop_operation_xyz
x,y,z
1/2-x,-y,z
x,1/2-y,1/2-z
1/2-x,1/2+y,1/2-z
-x,-y,-z
1/2+x,y,-z
-x,1/2+y,1/2+z
1/2+x,1/2-y,1/2+z
loop_
_atom_site_type_symbol
_atom_site_label
_atom_site_fract_x
_atom_site_fract_y
_atom_site_fract_z
Si Si1 0.987181 0.446856 0.362001
Si Si2 0.996431 0.426441 0.949196
Si Si3 0.739661 0.130160 0.993245
Si Si4 0.994230 0.317277 0.726364
Si Si5 0.750000 0.500000 0.985979
O O1 0.979116 0.443000 0.151332
O O2 0.844535 0.414026 0.415444
O O3 0.000000 0.500000 0.500000
O O4 0.124499 0.407441 0.393051
O O5 0.148946 0.456036 0.906571
O O6 0.857774 0.460008 0.872846
O O7 0.994187 0.361168 0.891075
O O8 0.848613 0.167174 0.877477
O O9 0.638729 0.166470 0.121584
O O10 0.995095 0.250000 0.750000
#
# Coordination Sequence:
#
# PCOD9412540 Si02
#       5
#     8   8   8   8   4
#     4  11  24  39  69 103 153 190 233 304 379 461
#     4  11  24  41  67 102 143 191 246 297 392 449
#     4  10  25  43  64 106 139 187 256 300 372 446
#     4  11  26  50  73 101 147 202 258 321 372 454
#     4  10  24  36  66 102 146 174 238 312 364 464
#
# _framework density 21.421462999999999
#
# number of rings (size 3 to 8) (size 9 to 14) (size 15 to 20)
#    0.000    1.333    0.000    3.333   18.667    5.333 
#    0.000    4.444    0.000    0.000    0.000    0.000 
#    0.000    0.000    0.000    0.000    0.000    0.000 
#
# Total GULP energy -200583.505501 kJ/mol
# GULP energy per Si atom -5571.764042 kJ/mol
# Density = 2.137271 g / cm^3
# Si number density = 21.421463 Si / 1000 Ang^3
#
#
#
# Elastic Constant Matrix: (Units=GPa)
#
#
# Indices 1 2 3 4 5 6 
#
# 1 126.7025 21.2043 13.4814 0.0000 0.0000 0.0000
# 2 21.2043 146.7739 40.9815 0.0000 0.0000 0.0000
# 3 13.4814 40.9815 94.5999 0.0000 0.0000 0.0000
# 4 0.0000 0.0000 0.0000 32.3182 0.0000 0.0000
# 5 0.0000 0.0000 0.0000 0.0000 9.8379 0.0000
# 6 0.0000 0.0000 0.0000 0.0000 0.0000 10.2597
#
#
#
# Elastic Compliance Matrix: (Units=1/GPa)
#
#
# Indices 1 2 3 4 5 6 
#
# 1 0.008133 -0.000969 -0.000739 0.000000 0.000000 0.000000
# 2 -0.000969 0.007866 -0.003270 0.000000 0.000000 0.000000
# 3 -0.000739 -0.003270 0.012093 0.000000 0.000000 0.000000
# 4 0.000000 0.000000 0.000000 0.030942 0.000000 0.000000
# 5 0.000000 0.000000 0.000000 0.000000 0.101648 0.000000
# 6 0.000000 0.000000 0.000000 0.000000 0.000000 0.097468
#
#
# Mechanical properties :
#
#
# Convention : Reuss Voigt Hill
#
# Bulk Modulus (GPa) = 55.13685 57.71230 56.42458
# Shear Modulus (GPa) = 18.23810 29.97711 24.10761
#
# Velocity S-wave (km/s) = 2.92103 3.74491 3.35833
# Velocity P-wave (km/s) = 6.09684 6.76010 6.43702
#
# Compressibility (1/GPa) = 0.01813669
#
# Stress axis : x y z
#
# Youngs Moduli (GPa) = 122.95172 127.12862 82.69491
#
# Poissons Ratio (x) = 0.12313 0.06115
# Poissons Ratio (y) = 0.11908 0.27038
# Poissons Ratio (z) = 0.09092 0.41566
#
# Static dielectric constant tensor:
#      x y z
#    x 2.806070 0.000000 0.000000 
#    y 0.000000 1.777950 0.000000 
#    z 0.000000 0.000000 2.350710 
# 
# From -- ./inp_files/7321.got.cif
#   From: 2010.05.17/outbox.cif.g08.bks.cpg/sg52_4_cif.got.tgz:7321.got - 2010.06.03 12:15:38.
