data_PCOD9412146
_publ_section_title
;
Structure prediction by ZEFSAII (Michael W. Deem and Ramdas Pophale) SiO2 
 PCOD9412146
Probable space group: P N N A
;
_chemical_formula_sum "Si O2"
_cell_formula_units_Z 40
_cell_length_a 9.607438
_cell_length_b 9.065075
_cell_length_c 18.397626
_cell_angle_alpha 90.000000
_cell_angle_beta 90.000000
_cell_angle_gamma 90.000000
_cell_volume 1602.288730
_symmetry_space_group_name_H-M "P N N A"
_symmetry_group_IT_number 52
_symmetry_cell_setting 'orthorhombic'
loop_
_space_group_symop_operation_xyz
x,y,z
1/2-x,-y,z
x,1/2-y,1/2-z
1/2-x,1/2+y,1/2-z
-x,-y,-z
1/2+x,y,-z
-x,1/2+y,1/2+z
1/2+x,1/2-y,1/2+z
loop_
_atom_site_type_symbol
_atom_site_label
_atom_site_fract_x
_atom_site_fract_y
_atom_site_fract_z
Si Si1 0.546700 0.560941 0.279004
Si Si2 0.696009 0.698665 0.144410
Si Si3 0.796333 0.831009 0.868828
Si Si4 0.503020 0.675317 0.017428
Si Si5 0.500110 0.242137 0.143793
O O1 0.597845 0.607744 0.199617
O O2 0.662348 0.636115 0.330215
O O3 0.401052 0.632404 0.303405
O O4 0.528178 0.393729 0.302463
O O5 0.642017 0.334379 0.152497
O O6 0.645876 0.687620 0.062535
O O7 0.664236 0.731639 0.844995
O O8 0.750000 0.000000 0.892904
O O9 0.884417 0.741063 0.929160
O O10 0.501184 0.772009 0.944247
O O11 0.500000 0.500000 0.000000
#
# Coordination Sequence:
#
# PCOD9412146 Si02
#       5
#     8   8   8   8   8
#     4   9  21  45  69 104 146 196 239 317 386 463
#     4  10  22  44  72  98 151 191 248 314 386 455
#     4   9  21  42  75 105 144 193 255 314 382 462
#     4  11  25  46  71 104 152 205 243 316 397 475
#     4  11  22  41  75 107 141 189 262 303 381 467
#
# _framework density 24.964289999999998
#
# number of rings (size 3 to 8) (size 9 to 14) (size 15 to 20)
#    0.000    2.000    0.000    1.800    0.000   12.000 
#   18.000    8.000   44.000    0.000    0.000    0.000 
#    0.000    0.000    0.000    0.000    0.000    0.000 
#
# Total GULP energy -223140.405824 kJ/mol
# GULP energy per Si atom -5578.510146 kJ/mol
# Density = 2.490747 g / cm^3
# Si number density = 24.964290 Si / 1000 Ang^3
#
#
#
# Elastic Constant Matrix: (Units=GPa)
#
#
# Indices 1 2 3 4 5 6 
#
# 1 208.9633 25.0564 46.8456 0.0000 0.0000 0.0000
# 2 25.0564 86.1003 24.1652 0.0000 0.0000 0.0000
# 3 46.8456 24.1652 119.5021 0.0000 0.0000 0.0000
# 4 0.0000 0.0000 0.0000 19.4566 0.0000 0.0000
# 5 0.0000 0.0000 0.0000 0.0000 23.1937 0.0000
# 6 0.0000 0.0000 0.0000 0.0000 0.0000 26.7556
#
#
#
# Elastic Compliance Matrix: (Units=1/GPa)
#
#
# Indices 1 2 3 4 5 6 
#
# 1 0.005330 -0.001023 -0.001883 0.000000 0.000000 0.000000
# 2 -0.001023 0.012509 -0.002129 0.000000 0.000000 0.000000
# 3 -0.001883 -0.002129 0.009537 0.000000 0.000000 0.000000
# 4 0.000000 0.000000 0.000000 0.051396 0.000000 0.000000
# 5 0.000000 0.000000 0.000000 0.000000 0.043115 0.000000
# 6 0.000000 0.000000 0.000000 0.000000 0.000000 0.037375
#
#
# Mechanical properties :
#
#
# Convention : Reuss Voigt Hill
#
# Bulk Modulus (GPa) = 57.77685 67.41112 62.59398
# Shear Modulus (GPa) = 28.55500 35.11442 31.83471
#
# Velocity S-wave (km/s) = 3.38573 3.75452 3.57488
# Velocity P-wave (km/s) = 6.20309 6.77177 6.49365
#
# Compressibility (1/GPa) = 0.01730797
#
# Stress axis : x y z
#
# Youngs Moduli (GPa) = 187.60933 79.93960 104.86010
#
# Poissons Ratio (x) = 0.08176 0.19742
# Poissons Ratio (y) = 0.19188 0.22321
# Poissons Ratio (z) = 0.35320 0.17017
#
# Static dielectric constant tensor:
#      x y z
#    x 2.350420 0.000000 0.000000 
#    y 0.000000 2.064320 0.000000 
#    z 0.000000 0.000000 1.970080 
# 
# From -- ./inp_files/36638.got.cif
#   From: 2010.05.17/outbox.cif.g08.bks.cpg/sg52_19_cif.got.tgz:36638.got - 2010.06.03 12:15:38.
