data_PCOD9412916
_publ_section_title
;
Structure prediction by ZEFSAII (Michael W. Deem and Ramdas Pophale) SiO2 
 PCOD9412916
Probable space group: P N N A
;
_chemical_formula_sum "Si O2"
_cell_formula_units_Z 36
_cell_length_a 8.184566
_cell_length_b 18.644964
_cell_length_c 8.712508
_cell_angle_alpha 90.000000
_cell_angle_beta 90.000000
_cell_angle_gamma 90.000000
_cell_volume 1329.536897
_symmetry_space_group_name_H-M "P N N A"
_symmetry_group_IT_number 52
_symmetry_cell_setting 'orthorhombic'
loop_
_space_group_symop_operation_xyz
x,y,z
1/2-x,-y,z
x,1/2-y,1/2-z
1/2-x,1/2+y,1/2-z
-x,-y,-z
1/2+x,y,-z
-x,1/2+y,1/2+z
1/2+x,1/2-y,1/2+z
loop_
_atom_site_type_symbol
_atom_site_label
_atom_site_fract_x
_atom_site_fract_y
_atom_site_fract_z
Si Si1 0.750000 0.000000 0.497075
Si Si2 0.365951 0.866860 0.009198
Si Si3 0.702326 0.859803 0.688300
Si Si4 0.844309 0.095037 0.242131
Si Si5 0.134312 0.295212 0.929799
O O1 0.758840 0.933830 0.611760
O O2 0.624575 0.966528 0.369530
O O3 0.215563 0.860844 0.130222
O O4 0.508274 0.889313 0.126498
O O5 0.309293 0.919568 0.873218
O O6 0.384490 0.789956 0.925435
O O7 0.526004 0.835478 0.628774
O O8 0.830114 0.806424 0.609478
O O9 0.783743 0.164951 0.340867
#
# Coordination Sequence:
#
# PCOD9412916 Si02
#       5
#     4   8   8   8   8
#     4  10  26  48  68 102 140 186 236 274 352 406
#     4  12  25  44  71 105 135 180 234 286 348 406
#     4  11  24  43  73  98 138 184 226 287 337 415
#     4  11  26  45  71 101 145 183 225 290 340 417
#     4  11  24  44  67 101 138 178 227 285 353 405
#
# _framework density 27.077096999999998
#
# number of rings (size 3 to 8) (size 9 to 14) (size 15 to 20)
#    0.000    0.889    0.000    6.667    0.000   15.111 
#    0.000    2.222    0.000    0.000    0.000    0.000 
#    0.000    0.000    0.000    0.000    0.000    0.000 
#
# Total GULP energy -201228.235065 kJ/mol
# GULP energy per Si atom -5589.673196 kJ/mol
# Density = 2.701547 g / cm^3
# Si number density = 27.077097 Si / 1000 Ang^3
#
#
#
# Elastic Constant Matrix: (Units=GPa)
#
#
# Indices 1 2 3 4 5 6 
#
# 1 101.9155 15.5556 38.3523 0.0000 0.0000 0.0000
# 2 15.5556 127.8980 39.6921 0.0000 0.0000 0.0000
# 3 38.3523 39.6921 173.0793 0.0000 0.0000 0.0000
# 4 0.0000 0.0000 0.0000 10.1634 0.0000 0.0000
# 5 0.0000 0.0000 0.0000 0.0000 61.2220 0.0000
# 6 0.0000 0.0000 0.0000 0.0000 0.0000 12.8183
#
#
#
# Elastic Compliance Matrix: (Units=1/GPa)
#
#
# Indices 1 2 3 4 5 6 
#
# 1 0.010749 -0.000612 -0.002242 0.000000 0.000000 0.000000
# 2 -0.000612 0.008453 -0.001803 0.000000 0.000000 0.000000
# 3 -0.002242 -0.001803 0.006688 0.000000 0.000000 0.000000
# 4 0.000000 0.000000 0.000000 0.098392 0.000000 0.000000
# 5 0.000000 0.000000 0.000000 0.000000 0.016334 0.000000
# 6 0.000000 0.000000 0.000000 0.000000 0.000000 0.078014
#
#
# Mechanical properties :
#
#
# Convention : Reuss Voigt Hill
#
# Bulk Modulus (GPa) = 60.32397 65.56587 62.94492
# Shear Modulus (GPa) = 21.41627 37.46026 29.43826
#
# Velocity S-wave (km/s) = 2.81541 3.72353 3.30085
# Velocity P-wave (km/s) = 5.73548 6.53860 6.15016
#
# Compressibility (1/GPa) = 0.01657716
#
# Stress axis : x y z
#
# Youngs Moduli (GPa) = 93.03242 118.30618 149.52477
#
# Poissons Ratio (x) = 0.07237 0.33517
# Poissons Ratio (y) = 0.05691 0.26958
# Poissons Ratio (z) = 0.20854 0.21329
#
# Static dielectric constant tensor:
#      x y z
#    x 2.239050 0.000000 0.000000 
#    y 0.000000 2.012000 0.000000 
#    z 0.000000 0.000000 2.081740 
# 
# From -- ./inp_files/7269.got.cif
#   From: 2010.05.17/outbox.cif.g08.bks.cpg/sg52_4_cif.got.tgz:7269.got - 2010.06.03 12:15:38.
