data_PCOD9412237
_publ_section_title
;
Structure prediction by ZEFSAII (Michael W. Deem and Ramdas Pophale) SiO2 
 PCOD9412237
Probable space group: P N N A
;
_chemical_formula_sum "Si O2"
_cell_formula_units_Z 64
_cell_length_a 17.135389
_cell_length_b 12.847388
_cell_length_c 12.436222
_cell_angle_alpha 90.000000
_cell_angle_beta 90.000000
_cell_angle_gamma 90.000000
_cell_volume 2737.771980
_symmetry_space_group_name_H-M "P N N A"
_symmetry_group_IT_number 52
_symmetry_cell_setting 'orthorhombic'
loop_
_space_group_symop_operation_xyz
x,y,z
1/2-x,-y,z
x,1/2-y,1/2-z
1/2-x,1/2+y,1/2-z
-x,-y,-z
1/2+x,y,-z
-x,1/2+y,1/2+z
1/2+x,1/2-y,1/2+z
loop_
_atom_site_type_symbol
_atom_site_label
_atom_site_fract_x
_atom_site_fract_y
_atom_site_fract_z
Si Si1 0.592306 0.919154 0.225062
Si Si2 0.426307 0.563712 0.308078
Si Si3 0.746210 0.839477 0.311202
Si Si4 0.805708 0.599977 0.864360
Si Si5 0.841967 0.024425 0.012531
Si Si6 0.538814 0.649896 0.825588
Si Si7 0.821271 0.233207 0.538280
Si Si8 0.387601 0.556626 0.910393
O O1 0.508792 0.876159 0.188261
O O2 0.674038 0.859735 0.232346
O O3 0.580401 0.954755 0.349223
O O4 0.613823 0.995448 0.125578
O O5 0.363698 0.617577 0.232588
O O6 0.386561 0.540591 0.421654
O O7 0.444696 0.451978 0.248569
O O8 0.793120 0.750000 0.250000
O O9 0.708485 0.808431 0.424025
O O10 0.810511 0.924353 0.338591
O O11 0.750000 0.500000 0.841615
O O12 0.752146 0.700255 0.887571
O O13 0.856766 0.566651 0.969261
O O14 0.843652 0.146181 0.975890
O O15 0.750000 0.000000 0.021751
O O16 0.537214 0.750000 0.750000
O O17 0.606728 0.670059 0.911923
O O18 0.457119 0.636028 0.887090
#
# Coordination Sequence:
#
# PCOD9412237 Si02
#       8
#     8   8   8   8   8   8   8   8
#     4  11  24  42  67  96 132 177 221 278 339 407
#     4  11  25  42  67  96 134 175 222 276 336 397
#     4  11  21  40  64  95 130 169 220 275 339 398
#     4  11  22  43  69 102 135 172 228 284 336 399
#     4  12  25  46  68  94 136 189 227 272 335 412
#     4  11  22  40  65  95 134 171 221 278 336 404
#     4  11  24  41  69  98 134 179 225 283 337 405
#     4  10  23  38  66  99 129 170 221 282 334 397
#
# _framework density 23.376673
#
# number of rings (size 3 to 8) (size 9 to 14) (size 15 to 20)
#    0.000    1.000    3.750    3.750    1.750    1.000 
#    2.250    1.250    0.000    0.000    0.000    0.000 
#    0.000    0.000    0.000    0.000    0.000    0.000 
#
# Total GULP energy -357374.914501 kJ/mol
# GULP energy per Si atom -5583.983039 kJ/mol
# Density = 2.332347 g / cm^3
# Si number density = 23.376673 Si / 1000 Ang^3
#
#
#
# Elastic Constant Matrix: (Units=GPa)
#
#
# Indices 1 2 3 4 5 6 
#
# 1 138.7073 -1.7287 48.0345 0.0000 0.0000 0.0000
# 2 -1.7287 29.5530 -5.2317 0.0000 0.0000 0.0000
# 3 48.0345 -5.2317 84.6652 0.0000 0.0000 0.0000
# 4 0.0000 0.0000 0.0000 25.3354 0.0000 0.0000
# 5 0.0000 0.0000 0.0000 0.0000 21.8764 0.0000
# 6 0.0000 0.0000 0.0000 0.0000 0.0000 17.0842
#
#
#
# Elastic Compliance Matrix: (Units=1/GPa)
#
#
# Indices 1 2 3 4 5 6 
#
# 1 0.008976 -0.000381 -0.005116 0.000000 0.000000 0.000000
# 2 -0.000381 0.034228 0.002331 0.000000 0.000000 0.000000
# 3 -0.005116 0.002331 0.014858 0.000000 0.000000 0.000000
# 4 0.000000 0.000000 0.000000 0.039470 0.000000 0.000000
# 5 0.000000 0.000000 0.000000 0.000000 0.045711 0.000000
# 6 0.000000 0.000000 0.000000 0.000000 0.000000 0.058534
#
#
# Mechanical properties :
#
#
# Convention : Reuss Voigt Hill
#
# Bulk Modulus (GPa) = 19.33096 37.23043 28.28069
# Shear Modulus (GPa) = 22.18739 26.98262 24.58500
#
# Velocity S-wave (km/s) = 3.08413 3.40112 3.24649
# Velocity P-wave (km/s) = 4.57928 5.60217 5.11635
#
# Compressibility (1/GPa) = 0.05173049
#
# Stress axis : x y z
#
# Youngs Moduli (GPa) = 111.40253 29.21592 67.30392
#
# Poissons Ratio (x) = 0.01112 0.34435
# Poissons Ratio (y) = 0.04241 -0.15689
# Poissons Ratio (z) = 0.56997 -0.06810
#
# Static dielectric constant tensor:
#      x y z
#    x 1.886850 0.000000 0.000000 
#    y 0.000000 2.034070 0.000000 
#    z 0.000000 0.000000 1.852010 
# 
# From -- ./inp_files/20873.got.cif
#   From: 2010.05.17/outbox.cif.g08.bks.cpg/sg52_11_cif.got.tgz:20873.got - 2010.06.03 12:15:38.
