data_PCOD9412371
_publ_section_title
;
Structure prediction by ZEFSAII (Michael W. Deem and Ramdas Pophale) SiO2 
 PCOD9412371
Probable space group: P N N A
;
_chemical_formula_sum "Si O2"
_cell_formula_units_Z 48
_cell_length_a 8.876993
_cell_length_b 16.349405
_cell_length_c 13.509739
_cell_angle_alpha 90.000000
_cell_angle_beta 90.000000
_cell_angle_gamma 90.000000
_cell_volume 1960.716431
_symmetry_space_group_name_H-M "P N N A"
_symmetry_group_IT_number 52
_symmetry_cell_setting 'orthorhombic'
loop_
_space_group_symop_operation_xyz
x,y,z
1/2-x,-y,z
x,1/2-y,1/2-z
1/2-x,1/2+y,1/2-z
-x,-y,-z
1/2+x,y,-z
-x,1/2+y,1/2+z
1/2+x,1/2-y,1/2+z
loop_
_atom_site_type_symbol
_atom_site_label
_atom_site_fract_x
_atom_site_fract_y
_atom_site_fract_z
Si Si1 0.840958 0.250000 0.250000
Si Si2 0.913930 0.365686 0.029062
Si Si3 0.670295 0.750000 0.750000
Si Si4 0.021524 0.884526 0.912254
Si Si5 0.250000 0.500000 0.465869
Si Si6 0.154655 0.256258 0.064441
Si Si7 0.250000 0.000000 0.656132
Si Si8 0.079181 0.363448 0.824006
O O1 0.917959 0.175965 0.179699
O O2 0.719693 0.301419 0.183577
O O3 0.788125 0.303233 0.989585
O O4 0.019118 0.383829 0.934135
O O5 0.840717 0.440733 0.083610
O O6 0.033335 0.322886 0.100770
O O7 0.769530 0.779666 0.839658
O O8 0.562470 0.675913 0.774691
O O9 0.945038 0.814524 0.984688
O O10 0.157306 0.933850 0.965649
O O11 0.881911 0.950432 0.904697
O O12 0.362377 0.947325 0.721077
#
# Coordination Sequence:
#
# PCOD9412371 Si02
#       8
#     4   8   4   8   4   8   4   8
#     4  11  25  48  74 104 152 194 258 296 386 446
#     4  11  23  39  70 108 140 187 242 290 352 438
#     4   9  23  46  64  98 146 180 246 290 356 438
#     4  11  24  48  78 111 146 202 250 320 376 451
#     4  10  26  49  80 115 152 190 264 324 382 439
#     4  11  22  42  72 102 135 193 243 291 352 437
#     4  12  22  41  68 109 146 180 234 294 366 429
#     4  10  23  43  65 103 141 196 227 302 356 434
#
# _framework density 24.480848000000002
#
# number of rings (size 3 to 8) (size 9 to 14) (size 15 to 20)
#    0.000    1.333    1.667    3.000    2.333    0.667 
#   12.000    0.000    0.000    0.000    0.000    0.000 
#    0.000    0.000    0.000    0.000    0.000    0.000 
#
# Total GULP energy -267443.273369 kJ/mol
# GULP energy per Si atom -5571.734862 kJ/mol
# Density = 2.442513 g / cm^3
# Si number density = 24.480848 Si / 1000 Ang^3
#
#
#
# Elastic Constant Matrix: (Units=GPa)
#
#
# Indices 1 2 3 4 5 6 
#
# 1 165.3497 64.8992 31.4794 0.0000 0.0000 0.0000
# 2 64.8992 134.2098 31.7664 0.0000 0.0000 0.0000
# 3 31.4794 31.7664 54.8025 0.0000 0.0000 0.0000
# 4 0.0000 0.0000 0.0000 31.0306 0.0000 0.0000
# 5 0.0000 0.0000 0.0000 0.0000 24.2384 0.0000
# 6 0.0000 0.0000 0.0000 0.0000 0.0000 53.0163
#
#
#
# Elastic Compliance Matrix: (Units=1/GPa)
#
#
# Indices 1 2 3 4 5 6 
#
# 1 0.007784 -0.003136 -0.002653 0.000000 0.000000 0.000000
# 2 -0.003136 0.009899 -0.003937 0.000000 0.000000 0.000000
# 3 -0.002653 -0.003937 0.022053 0.000000 0.000000 0.000000
# 4 0.000000 0.000000 0.000000 0.032226 0.000000 0.000000
# 5 0.000000 0.000000 0.000000 0.000000 0.041257 0.000000
# 6 0.000000 0.000000 0.000000 0.000000 0.000000 0.018862
#
#
# Mechanical properties :
#
#
# Convention : Reuss Voigt Hill
#
# Bulk Modulus (GPa) = 49.29925 67.85022 58.57473
# Shear Modulus (GPa) = 31.58651 36.73818 34.16235
#
# Velocity S-wave (km/s) = 3.59591 3.87808 3.73965
# Velocity P-wave (km/s) = 6.11738 6.91581 6.52881
#
# Compressibility (1/GPa) = 0.02028429
#
# Stress axis : x y z
#
# Youngs Moduli (GPa) = 128.47218 101.01757 45.34434
#
# Poissons Ratio (x) = 0.31678 0.12032
# Poissons Ratio (y) = 0.40288 0.17851
# Poissons Ratio (z) = 0.34088 0.39769
#
# Static dielectric constant tensor:
#      x y z
#    x 1.959290 0.000000 0.000000 
#    y 0.000000 2.061230 0.000000 
#    z 0.000000 0.000000 2.133250 
# 
# From -- ./inp_files/31304.got.cif
#   From: 2010.05.17/outbox.cif.g08.bks.cpg/sg52_16_cif.got.tgz:31304.got - 2010.06.03 12:15:38.
