data_PCOD9412204
_publ_section_title
;
Structure prediction by ZEFSAII (Michael W. Deem and Ramdas Pophale) SiO2 
 PCOD9412204
Probable space group: P N N A
;
_chemical_formula_sum "Si O2"
_cell_formula_units_Z 32
_cell_length_a 9.198028
_cell_length_b 7.709451
_cell_length_c 16.380730
_cell_angle_alpha 90.000000
_cell_angle_beta 90.000000
_cell_angle_gamma 90.000000
_cell_volume 1161.586168
_symmetry_space_group_name_H-M "P N N A"
_symmetry_group_IT_number 52
_symmetry_cell_setting 'orthorhombic'
loop_
_space_group_symop_operation_xyz
x,y,z
1/2-x,-y,z
x,1/2-y,1/2-z
1/2-x,1/2+y,1/2-z
-x,-y,-z
1/2+x,y,-z
-x,1/2+y,1/2+z
1/2+x,1/2-y,1/2+z
loop_
_atom_site_type_symbol
_atom_site_label
_atom_site_fract_x
_atom_site_fract_y
_atom_site_fract_z
Si Si1 0.405544 0.759200 0.384217
Si Si2 0.073859 0.547862 0.255107
Si Si3 0.783964 0.194113 0.025892
Si Si4 0.207112 0.323737 0.817668
O O1 0.394639 0.579350 0.331014
O O2 0.556230 0.736607 0.437485
O O3 0.274040 0.792153 0.447068
O O4 0.406246 0.925234 0.323858
O O5 0.137096 0.750000 0.250000
O O6 0.904993 0.598419 0.248672
O O7 0.676962 0.211204 0.104086
O O8 0.750000 0.000000 0.999253
O O9 0.250000 0.500000 0.862737
O O10 0.319923 0.250000 0.750000
#
# Coordination Sequence:
#
# PCOD9412204 Si02
#       4
#     8   8   8   8
#     4  11  25  48  77 113 158 202 261 324 395 459
#     4  10  22  46  78 108 146 213 269 316 375 475
#     4  12  25  44  73 114 156 200 253 332 390 461
#     4  11  20  37  68 107 138 188 254 317 367 440
#
# _framework density 27.548538000000001
#
# number of rings (size 3 to 8) (size 9 to 14) (size 15 to 20)
#    0.000    1.000    2.500    6.000    0.000    1.000 
#    4.500    0.000   22.000    0.000    0.000    1.750 
#    0.000    0.000    0.000    0.000    0.000    0.000 
#
# Total GULP energy -178151.348366 kJ/mol
# GULP energy per Si atom -5567.229636 kJ/mol
# Density = 2.748584 g / cm^3
# Si number density = 27.548538 Si / 1000 Ang^3
#
#
#
# Elastic Constant Matrix: (Units=GPa)
#
#
# Indices 1 2 3 4 5 6 
#
# 1 109.9426 32.0075 54.8724 0.0000 0.0000 0.0000
# 2 32.0075 163.4159 95.6961 0.0000 0.0000 0.0000
# 3 54.8724 95.6961 240.3349 0.0000 0.0000 0.0000
# 4 0.0000 0.0000 0.0000 81.2071 0.0000 0.0000
# 5 0.0000 0.0000 0.0000 0.0000 -44.1836 0.0000
# 6 0.0000 0.0000 0.0000 0.0000 0.0000 34.3953
#
#
#
# Elastic Compliance Matrix: (Units=1/GPa)
#
#
# Indices 1 2 3 4 5 6 
#
# 1 0.010353 -0.000839 -0.002030 0.000000 0.000000 0.000000
# 2 -0.000839 0.008048 -0.003013 0.000000 0.000000 0.000000
# 3 -0.002030 -0.003013 0.005824 0.000000 0.000000 0.000000
# 4 0.000000 0.000000 0.000000 0.012314 0.000000 0.000000
# 5 0.000000 0.000000 0.000000 0.000000 -0.022633 0.000000
# 6 0.000000 0.000000 0.000000 0.000000 0.000000 0.029074
#
#
# Mechanical properties :
#
#
# Convention : Reuss Voigt Hill
#
# Bulk Modulus (GPa) = 80.24779 97.64949 88.94864
# Shear Modulus (GPa) = 84.89317 36.35825 60.62571
#
# Velocity S-wave (km/s) = 5.55723 3.63683 4.69624
# Velocity P-wave (km/s) = 8.38867 7.29100 7.85902
#
# Compressibility (1/GPa) = 0.01246140
#
# Stress axis : x y z
#
# Youngs Moduli (GPa) = 96.59083 124.25239 171.70490
#
# Poissons Ratio (x) = 0.10428 0.34849
# Poissons Ratio (y) = 0.08107 0.51734
# Poissons Ratio (z) = 0.19604 0.37437
#
# Static dielectric constant tensor:
#      x y z
#    x 1.169790 0.000000 0.000000 
#    y 0.000000 2.072330 0.000000 
#    z 0.000000 0.000000 2.045300 
# 
# From -- ./inp_files/25495.got.cif
#   From: 2010.05.17/outbox.cif.g08.bks.cpg/sg52_13_cif.got.tgz:25495.got - 2010.06.03 12:15:38.
