data_PCOD9412230
_publ_section_title
;
Structure prediction by ZEFSAII (Michael W. Deem and Ramdas Pophale) SiO2 
 PCOD9412230
Probable space group: P N N A
;
_chemical_formula_sum "Si O2"
_cell_formula_units_Z 40
_cell_length_a 13.211848
_cell_length_b 14.618548
_cell_length_c 8.457964
_cell_angle_alpha 90.000000
_cell_angle_beta 90.000000
_cell_angle_gamma 90.000000
_cell_volume 1633.554540
_symmetry_space_group_name_H-M "P N N A"
_symmetry_group_IT_number 52
_symmetry_cell_setting 'orthorhombic'
loop_
_space_group_symop_operation_xyz
x,y,z
1/2-x,-y,z
x,1/2-y,1/2-z
1/2-x,1/2+y,1/2-z
-x,-y,-z
1/2+x,y,-z
-x,1/2+y,1/2+z
1/2+x,1/2-y,1/2+z
loop_
_atom_site_type_symbol
_atom_site_label
_atom_site_fract_x
_atom_site_fract_y
_atom_site_fract_z
Si Si1 0.750000 0.500000 0.217399
Si Si2 0.231164 0.672825 0.007251
Si Si3 0.097692 0.750000 0.750000
Si Si4 0.920933 0.565196 0.414827
Si Si5 0.604039 0.135430 0.764671
Si Si6 0.055107 0.555247 0.142851
O O1 0.738405 0.409433 0.112749
O O2 0.842552 0.496928 0.335462
O O3 0.175459 0.749448 0.898630
O O4 0.321438 0.682810 0.135991
O O5 0.136124 0.629110 0.095913
O O6 0.012868 0.831230 0.739021
O O7 0.879132 0.635302 0.545049
O O8 0.000000 0.500000 0.500000
O O9 0.978300 0.604442 0.262458
O O10 0.613362 0.028334 0.725608
O O11 0.000000 0.500000 0.000000
#
# Coordination Sequence:
#
# PCOD9412230 Si02
#       6
#     4   8   4   8   8   8
#     4  12  22  40  76 112 134 192 266 312 374 464
#     4  12  24  45  79 102 150 207 257 315 403 461
#     4  12  28  48  68 108 156 200 256 322 392 490
#     4  10  23  37  67 108 147 175 247 326 373 445
#     4  11  24  45  69 105 148 201 251 316 394 477
#     4  11  18  43  73 104 136 192 248 316 381 459
#
# _framework density 24.48648
#
# number of rings (size 3 to 8) (size 9 to 14) (size 15 to 20)
#    0.000    0.800    6.000    1.200    5.600    1.600 
#    3.600    0.000    0.000    0.000    0.000    0.000 
#    0.000    0.000    0.000    0.000    0.000    0.000 
#
# Total GULP energy -223063.212464 kJ/mol
# GULP energy per Si atom -5576.580312 kJ/mol
# Density = 2.443075 g / cm^3
# Si number density = 24.486480 Si / 1000 Ang^3
#
#
#
# Elastic Constant Matrix: (Units=GPa)
#
#
# Indices 1 2 3 4 5 6 
#
# 1 150.8671 23.6323 103.2738 0.0000 0.0000 0.0000
# 2 23.6323 61.1526 40.1002 0.0000 0.0000 0.0000
# 3 103.2738 40.1002 185.5728 0.0000 0.0000 0.0000
# 4 0.0000 0.0000 0.0000 38.2164 0.0000 0.0000
# 5 0.0000 0.0000 0.0000 0.0000 45.7372 0.0000
# 6 0.0000 0.0000 0.0000 0.0000 0.0000 21.3475
#
#
#
# Elastic Compliance Matrix: (Units=1/GPa)
#
#
# Indices 1 2 3 4 5 6 
#
# 1 0.010711 -0.000269 -0.005903 0.000000 0.000000 0.000000
# 2 -0.000269 0.019059 -0.003969 0.000000 0.000000 0.000000
# 3 -0.005903 -0.003969 0.009531 0.000000 0.000000 0.000000
# 4 0.000000 0.000000 0.000000 0.026167 0.000000 0.000000
# 5 0.000000 0.000000 0.000000 0.000000 0.021864 0.000000
# 6 0.000000 0.000000 0.000000 0.000000 0.000000 0.046844
#
#
# Mechanical properties :
#
#
# Convention : Reuss Voigt Hill
#
# Bulk Modulus (GPa) = 52.57434 81.28946 66.93190
# Shear Modulus (GPa) = 31.09506 36.43263 33.76384
#
# Velocity S-wave (km/s) = 3.56741 3.86147 3.71735
# Velocity P-wave (km/s) = 6.20371 7.29048 6.76894
#
# Compressibility (1/GPa) = 0.01902069
#
# Stress axis : x y z
#
# Youngs Moduli (GPa) = 93.36084 52.46885 104.91647
#
# Poissons Ratio (x) = 0.01409 0.61931
# Poissons Ratio (y) = 0.02507 0.41641
# Poissons Ratio (z) = 0.55110 0.20825
#
# Static dielectric constant tensor:
#      x y z
#    x 2.035170 0.000000 0.000000 
#    y 0.000000 1.999120 0.000000 
#    z 0.000000 0.000000 2.937890 
# 
# From -- ./inp_files/8575.got.cif
#   From: 2010.05.17/outbox.cif.g08.bks.cpg/sg52_5_cif.got.tgz:8575.got - 2010.06.03 12:15:38.
