data_PCOD9412760
_publ_section_title
;
Structure prediction by ZEFSAII (Michael W. Deem and Ramdas Pophale) SiO2 
 PCOD9412760
Probable space group: P N N A
;
_chemical_formula_sum "Si O2"
_cell_formula_units_Z 24
_cell_length_a 9.080148
_cell_length_b 5.508495
_cell_length_c 21.114527
_cell_angle_alpha 90.000000
_cell_angle_beta 90.000000
_cell_angle_gamma 90.000000
_cell_volume 1056.105353
_symmetry_space_group_name_H-M "P N N A"
_symmetry_group_IT_number 52
_symmetry_cell_setting 'orthorhombic'
loop_
_space_group_symop_operation_xyz
x,y,z
1/2-x,-y,z
x,1/2-y,1/2-z
1/2-x,1/2+y,1/2-z
-x,-y,-z
1/2+x,y,-z
-x,1/2+y,1/2+z
1/2+x,1/2-y,1/2+z
loop_
_atom_site_type_symbol
_atom_site_label
_atom_site_fract_x
_atom_site_fract_y
_atom_site_fract_z
Si Si1 0.006755 0.205361 0.445867
Si Si2 0.750000 0.500000 0.480811
Si Si3 0.657327 0.250000 0.250000
Si Si4 0.578622 0.056288 0.694764
O O1 0.126798 0.387563 0.474293
O O2 0.063355 0.144188 0.376674
O O3 0.841926 0.310104 0.439818
O O4 0.000000 0.000000 0.500000
O O5 0.750000 0.500000 0.262546
O O6 0.538118 0.334176 0.197397
O O7 0.538736 0.250000 0.750000
O O8 0.750000 0.000000 0.706414
#
# Coordination Sequence:
#
# PCOD9412760 Si02
#       4
#     8   4   4   8
#     4  11  25  47  74 113 152 207 265 328 405 479
#     4  10  24  46  78 108 154 200 264 332 394 484
#     4  12  28  52  76 118 160 208 266 338 408 484
#     4  12  27  48  80 112 160 211 271 333 416 497
#
# _framework density 22.725007000000002
#
# number of rings (size 3 to 8) (size 9 to 14) (size 15 to 20)
#    0.000    0.667    3.333    3.000    2.333   10.667 
#    3.000    0.000    0.000    0.000    0.000    0.000 
#    0.000    0.000    0.000    0.000    0.000    0.000 
#
# Total GULP energy -133949.996299 kJ/mol
# GULP energy per Si atom -5581.249846 kJ/mol
# Density = 2.267328 g / cm^3
# Si number density = 22.725007 Si / 1000 Ang^3
#
#
#
# Elastic Constant Matrix: (Units=GPa)
#
#
# Indices 1 2 3 4 5 6 
#
# 1 183.9205 74.2556 18.3326 0.0000 0.0000 0.0000
# 2 74.2556 105.0642 37.5933 0.0000 0.0000 0.0000
# 3 18.3326 37.5933 94.1146 0.0000 0.0000 0.0000
# 4 0.0000 0.0000 0.0000 21.3715 0.0000 0.0000
# 5 0.0000 0.0000 0.0000 0.0000 11.3194 0.0000
# 6 0.0000 0.0000 0.0000 0.0000 0.0000 61.2189
#
#
#
# Elastic Compliance Matrix: (Units=1/GPa)
#
#
# Indices 1 2 3 4 5 6 
#
# 1 0.007657 -0.005692 0.000782 0.000000 0.000000 0.000000
# 2 -0.005692 0.015336 -0.005017 0.000000 0.000000 0.000000
# 3 0.000782 -0.005017 0.012477 0.000000 0.000000 0.000000
# 4 0.000000 0.000000 0.000000 0.046791 0.000000 0.000000
# 5 0.000000 0.000000 0.000000 0.000000 0.088344 0.000000
# 6 0.000000 0.000000 0.000000 0.000000 0.000000 0.016335
#
#
# Mechanical properties :
#
#
# Convention : Reuss Voigt Hill
#
# Bulk Modulus (GPa) = 64.03490 71.49584 67.76537
# Shear Modulus (GPa) = 23.58502 35.64313 29.61407
#
# Velocity S-wave (km/s) = 3.22505 3.96467 3.61383
# Velocity P-wave (km/s) = 6.48901 7.24484 6.87732
#
# Compressibility (1/GPa) = 0.01561648
#
# Stress axis : x y z
#
# Youngs Moduli (GPa) = 130.59812 65.20720 80.14700
#
# Poissons Ratio (x) = 0.37113 -0.06267
# Poissons Ratio (y) = 0.74330 0.40210
# Poissons Ratio (z) = -0.10212 0.32715
#
# Static dielectric constant tensor:
#      x y z
#    x 1.633590 0.000000 0.000000 
#    y 0.000000 2.100270 0.000000 
#    z 0.000000 0.000000 1.521700 
# 
# From -- ./inp_files/39031.got.cif
#   From: 2010.05.17/outbox.cif.g08.bks.cpg/sg52_20_cif.got.tgz:39031.got - 2010.06.03 12:15:38.
