data_PCOD9412700
_publ_section_title
;
Structure prediction by ZEFSAII (Michael W. Deem and Ramdas Pophale) SiO2 
 PCOD9412700
Probable space group: P N N A
;
_chemical_formula_sum "Si O2"
_cell_formula_units_Z 16
_cell_length_a 9.189002
_cell_length_b 5.081696
_cell_length_c 13.290441
_cell_angle_alpha 90.000000
_cell_angle_beta 90.000000
_cell_angle_gamma 90.000000
_cell_volume 620.606641
_symmetry_space_group_name_H-M "P N N A"
_symmetry_group_IT_number 52
_symmetry_cell_setting 'orthorhombic'
loop_
_space_group_symop_operation_xyz
x,y,z
1/2-x,-y,z
x,1/2-y,1/2-z
1/2-x,1/2+y,1/2-z
-x,-y,-z
1/2+x,y,-z
-x,1/2+y,1/2+z
1/2+x,1/2-y,1/2+z
loop_
_atom_site_type_symbol
_atom_site_label
_atom_site_fract_x
_atom_site_fract_y
_atom_site_fract_z
Si Si1 0.501859 0.633215 0.637084
Si Si2 0.645265 0.250000 0.750000
Si Si3 0.750000 0.500000 0.500048
O O1 0.485966 0.750000 0.750000
O O2 0.538107 0.323212 0.659319
O O3 0.645189 0.685032 0.568738
O O4 0.358997 0.659594 0.571737
O O5 0.750000 0.500000 0.762030
#
# Coordination Sequence:
#
# PCOD9412700 Si02
#       3
#     8   4   4
#     4  11  23  47  73 110 150 202 253 323 382 461
#     4  12  22  44  78 104 152 212 242 322 390 438
#     4  10  24  44  76 110 150 202 262 308 396 466
#
# _framework density 25.781227999999999
#
# number of rings (size 3 to 8) (size 9 to 14) (size 15 to 20)
#    0.000    1.000    5.000    0.000    3.500    0.000 
#    0.000   27.500    0.000    0.000    0.000    0.000 
#    0.000    0.000    0.000    0.000    0.000    0.000 
#
# Total GULP energy -89150.911780 kJ/mol
# GULP energy per Si atom -5571.931986 kJ/mol
# Density = 2.572255 g / cm^3
# Si number density = 25.781228 Si / 1000 Ang^3
#
#
#
# Elastic Constant Matrix: (Units=GPa)
#
#
# Indices 1 2 3 4 5 6 
#
# 1 194.1154 28.5302 128.2232 0.0000 0.0000 0.0000
# 2 28.5302 74.7820 45.7464 0.0000 0.0000 0.0000
# 3 128.2232 45.7464 250.1102 0.0000 0.0000 0.0000
# 4 0.0000 0.0000 0.0000 51.2869 0.0000 0.0000
# 5 0.0000 0.0000 0.0000 0.0000 51.6512 0.0000
# 6 0.0000 0.0000 0.0000 0.0000 0.0000 20.4542
#
#
#
# Elastic Compliance Matrix: (Units=1/GPa)
#
#
# Indices 1 2 3 4 5 6 
#
# 1 0.007813 -0.000597 -0.003896 0.000000 0.000000 0.000000
# 2 -0.000597 0.015103 -0.002456 0.000000 0.000000 0.000000
# 3 -0.003896 -0.002456 0.006445 0.000000 0.000000 0.000000
# 4 0.000000 0.000000 0.000000 0.019498 0.000000 0.000000
# 5 0.000000 0.000000 0.000000 0.000000 0.019361 0.000000
# 6 0.000000 0.000000 0.000000 0.000000 0.000000 0.048890
#
#
# Mechanical properties :
#
#
# Convention : Reuss Voigt Hill
#
# Bulk Modulus (GPa) = 64.67798 102.66747 83.67272
# Shear Modulus (GPa) = 36.72093 45.77898 41.24995
#
# Velocity S-wave (km/s) = 3.77812 4.21844 4.00434
# Velocity P-wave (km/s) = 6.64635 7.97722 7.34200
#
# Compressibility (1/GPa) = 0.01546121
#
# Stress axis : x y z
#
# Youngs Moduli (GPa) = 127.99151 66.21395 155.16064
#
# Poissons Ratio (x) = 0.03955 0.60454
# Poissons Ratio (y) = 0.07645 0.38109
# Poissons Ratio (z) = 0.49868 0.16263
#
# Static dielectric constant tensor:
#      x y z
#    x 2.099590 0.000000 0.000000 
#    y 0.000000 2.241640 0.000000 
#    z 0.000000 0.000000 2.150980 
# 
# From -- ./inp_files/23808.got.cif
#   From: 2010.05.17/outbox.cif.g08.bks.cpg/sg52_12_cif.got.tgz:23808.got - 2010.06.03 12:15:38.
