data_PCOD9412904
_publ_section_title
;
Structure prediction by ZEFSAII (Michael W. Deem and Ramdas Pophale) SiO2 
 PCOD9412904
Probable space group: P N N A
;
_chemical_formula_sum "Si O2"
_cell_formula_units_Z 56
_cell_length_a 27.621168
_cell_length_b 13.402466
_cell_length_c 6.282861
_cell_angle_alpha 90.000000
_cell_angle_beta 90.000000
_cell_angle_gamma 90.000000
_cell_volume 2325.863403
_symmetry_space_group_name_H-M "P N N A"
_symmetry_group_IT_number 52
_symmetry_cell_setting 'orthorhombic'
loop_
_space_group_symop_operation_xyz
x,y,z
1/2-x,-y,z
x,1/2-y,1/2-z
1/2-x,1/2+y,1/2-z
-x,-y,-z
1/2+x,y,-z
-x,1/2+y,1/2+z
1/2+x,1/2-y,1/2+z
loop_
_atom_site_type_symbol
_atom_site_label
_atom_site_fract_x
_atom_site_fract_y
_atom_site_fract_z
Si Si1 0.978167 0.212131 0.501485
Si Si2 0.917821 0.460794 0.117033
Si Si3 0.696067 0.151708 0.118551
Si Si4 0.608994 0.011864 0.960555
Si Si5 0.831341 0.405325 0.890504
Si Si6 0.744761 0.750000 0.750000
Si Si7 0.750000 0.500000 0.102069
Si Si8 0.582039 0.340183 0.871707
O O1 0.962953 0.250000 0.250000
O O2 0.960289 0.096997 0.500355
O O3 0.036021 0.212222 0.476359
O O4 0.965986 0.250000 0.750000
O O5 0.924835 0.463561 0.365704
O O6 0.870533 0.393338 0.073430
O O7 0.903726 0.573095 0.040519
O O8 0.680025 0.250000 0.250000
O O9 0.737966 0.093002 0.247125
O O10 0.652171 0.077319 0.065085
O O11 0.721633 0.187551 0.904563
O O12 0.575452 0.083937 0.823214
O O13 0.637093 0.931557 0.815473
O O14 0.792709 0.319251 0.874599
O O15 0.796989 0.496722 0.953640
O O16 0.610816 0.250000 0.750000
#
# Coordination Sequence:
#
# PCOD9412904 Si02
#       8
#     8   8   8   8   8   4   4   8
#     4  11  28  51  80 116 156 200 256 315 388 473
#     4  11  26  46  76 108 150 196 250 316 383 456
#     4  12  26  42  68 101 136 188 246 306 368 439
#     4  11  26  43  72 103 147 186 244 312 380 452
#     4  11  25  44  67 103 140 196 242 307 368 452
#     4  12  26  42  68  96 142 190 250 294 374 438
#     4  12  22  50  64  98 148 186 244 306 372 438
#     4  10  26  46  75 108 145 192 244 306 385 459
#
# _framework density 24.077079000000001
#
# number of rings (size 3 to 8) (size 9 to 14) (size 15 to 20)
#    0.000    0.857    2.857    2.143   12.000    0.571 
#    0.000    0.000    0.000    0.000    0.000    0.000 
#    0.000    0.000    0.000    0.000    0.000    0.000 
#
# Total GULP energy -311842.301830 kJ/mol
# GULP energy per Si atom -5568.612533 kJ/mol
# Density = 2.402228 g / cm^3
# Si number density = 24.077079 Si / 1000 Ang^3
#
#
#
# Elastic Constant Matrix: (Units=GPa)
#
#
# Indices 1 2 3 4 5 6 
#
# 1 24.3088 8.4101 -2.3098 0.0000 0.0000 0.0000
# 2 8.4101 63.5997 30.7884 0.0000 0.0000 0.0000
# 3 -2.3098 30.7884 119.7453 0.0000 0.0000 0.0000
# 4 0.0000 0.0000 0.0000 42.2909 0.0000 0.0000
# 5 0.0000 0.0000 0.0000 0.0000 23.7243 0.0000
# 6 0.0000 0.0000 0.0000 0.0000 0.0000 46.7904
#
#
#
# Elastic Compliance Matrix: (Units=1/GPa)
#
#
# Indices 1 2 3 4 5 6 
#
# 1 0.043844 -0.007090 0.002669 0.000000 0.000000 0.000000
# 2 -0.007090 0.019105 -0.005049 0.000000 0.000000 0.000000
# 3 0.002669 -0.005049 0.009701 0.000000 0.000000 0.000000
# 4 0.000000 0.000000 0.000000 0.023646 0.000000 0.000000
# 5 0.000000 0.000000 0.000000 0.000000 0.042151 0.000000
# 6 0.000000 0.000000 0.000000 0.000000 0.000000 0.021372
#
#
# Mechanical properties :
#
#
# Convention : Reuss Voigt Hill
#
# Bulk Modulus (GPa) = 18.61868 31.27015 24.94442
# Shear Modulus (GPa) = 25.42448 33.94545 29.68497
#
# Velocity S-wave (km/s) = 3.25308 3.75889 3.51510
# Velocity P-wave (km/s) = 4.67545 5.64400 5.18240
#
# Compressibility (1/GPa) = 0.05370949
#
# Stress axis : x y z
#
# Youngs Moduli (GPa) = 22.80833 52.34228 103.08531
#
# Poissons Ratio (x) = 0.37108 -0.27509
# Poissons Ratio (y) = 0.16170 0.52047
# Poissons Ratio (z) = -0.06086 0.26427
#
# Static dielectric constant tensor:
#      x y z
#    x 1.984310 0.000000 0.000000 
#    y 0.000000 1.978840 0.000000 
#    z 0.000000 0.000000 1.982600 
# 
# From -- ./inp_files/6458.got.cif
#   From: 2010.05.17/outbox.cif.g08.bks.cpg/sg52_4_cif.got.tgz:6458.got - 2010.06.03 12:15:38.
