data_PCOD9412239
_publ_section_title
;
Structure prediction by ZEFSAII (Michael W. Deem and Ramdas Pophale) SiO2 
 PCOD9412239
Probable space group: P N N A
;
_chemical_formula_sum "Si O2"
_cell_formula_units_Z 64
_cell_length_a 16.040610
_cell_length_b 11.592721
_cell_length_c 16.659902
_cell_angle_alpha 90.000000
_cell_angle_beta 90.000000
_cell_angle_gamma 90.000000
_cell_volume 3097.980688
_symmetry_space_group_name_H-M "P N N A"
_symmetry_group_IT_number 52
_symmetry_cell_setting 'orthorhombic'
loop_
_space_group_symop_operation_xyz
x,y,z
1/2-x,-y,z
x,1/2-y,1/2-z
1/2-x,1/2+y,1/2-z
-x,-y,-z
1/2+x,y,-z
-x,1/2+y,1/2+z
1/2+x,1/2-y,1/2+z
loop_
_atom_site_type_symbol
_atom_site_label
_atom_site_fract_x
_atom_site_fract_y
_atom_site_fract_z
Si Si1 0.445448 0.957453 0.074125
Si Si2 0.847303 0.469238 0.865262
Si Si3 0.351011 0.712605 0.530000
Si Si4 0.474574 0.613737 0.046886
Si Si5 0.672195 0.587355 0.685883
Si Si6 0.091349 0.700371 0.600855
Si Si7 0.740369 0.140888 0.189987
Si Si8 0.315730 0.245240 0.450665
O O1 0.510763 0.875537 0.119663
O O2 0.407026 0.046050 0.135267
O O3 0.369437 0.888740 0.033321
O O4 0.500000 0.000000 0.000000
O O5 0.750000 0.500000 0.872283
O O6 0.905752 0.576445 0.886675
O O7 0.857090 0.413889 0.777496
O O8 0.863608 0.370759 0.930525
O O9 0.430422 0.796164 0.515582
O O10 0.325744 0.657347 0.615774
O O11 0.269062 0.778263 0.498750
O O12 0.552476 0.672545 0.091858
O O13 0.500000 0.500000 0.000000
O O14 0.750000 0.500000 0.682842
O O15 0.702033 0.697768 0.635512
O O16 0.167556 0.676303 0.659028
O O17 0.130506 0.677622 0.511924
O O18 0.718703 0.250000 0.250000
O O19 0.750000 0.000000 0.211199
#
# Coordination Sequence:
#
# PCOD9412239 Si02
#       8
#     8   8   8   8   8   8   8   8
#     4  11  20  37  62  91 124 164 215 264 334 404
#     4  11  23  39  58  91 131 168 211 269 340 403
#     4  10  23  39  66  95 122 175 229 280 338 413
#     4  11  22  41  65  95 135 179 232 282 343 421
#     4  11  23  36  59  90 126 166 207 272 335 405
#     4  10  23  38  69  95 126 174 225 281 339 413
#     4  11  26  48  72 104 141 181 240 301 358 422
#     4  11  19  39  61  92 124 164 224 273 327 415
#
# _framework density 20.658618000000001
#
# number of rings (size 3 to 8) (size 9 to 14) (size 15 to 20)
#    0.000    1.250    5.000    1.125    1.750    2.000 
#    0.000    3.125    0.000    0.000    0.000    0.000 
#    0.000    0.000    0.000    0.000    0.000    0.000 
#
# Total GULP energy -356361.613226 kJ/mol
# GULP energy per Si atom -5568.150207 kJ/mol
# Density = 2.061160 g / cm^3
# Si number density = 20.658618 Si / 1000 Ang^3
#
#
#
# Elastic Constant Matrix: (Units=GPa)
#
#
# Indices 1 2 3 4 5 6 
#
# 1 66.1627 8.8335 16.8693 0.0000 0.0000 0.0000
# 2 8.8335 73.2053 16.1056 0.0000 0.0000 0.0000
# 3 16.8693 16.1056 64.4674 0.0000 0.0000 0.0000
# 4 0.0000 0.0000 0.0000 25.4033 0.0000 0.0000
# 5 0.0000 0.0000 0.0000 0.0000 21.1775 0.0000
# 6 0.0000 0.0000 0.0000 0.0000 0.0000 37.9598
#
#
#
# Elastic Compliance Matrix: (Units=1/GPa)
#
#
# Indices 1 2 3 4 5 6 
#
# 1 0.016276 -0.001087 -0.003987 0.000000 0.000000 0.000000
# 2 -0.001087 0.014527 -0.003345 0.000000 0.000000 0.000000
# 3 -0.003987 -0.003345 0.017391 0.000000 0.000000 0.000000
# 4 0.000000 0.000000 0.000000 0.039365 0.000000 0.000000
# 5 0.000000 0.000000 0.000000 0.000000 0.047220 0.000000
# 6 0.000000 0.000000 0.000000 0.000000 0.000000 0.026344
#
#
# Mechanical properties :
#
#
# Convention : Reuss Voigt Hill
#
# Bulk Modulus (GPa) = 31.89203 31.93914 31.91558
# Shear Modulus (GPa) = 26.53747 27.70991 27.12369
#
# Velocity S-wave (km/s) = 3.58798 3.66638 3.62739
# Velocity P-wave (km/s) = 5.71279 5.78076 5.74687
#
# Compressibility (1/GPa) = 0.03135580
#
# Stress axis : x y z
#
# Youngs Moduli (GPa) = 61.44012 68.83616 57.50180
#
# Poissons Ratio (x) = 0.07481 0.22929
# Poissons Ratio (y) = 0.06677 0.19234
# Poissons Ratio (z) = 0.24499 0.23025
#
# Static dielectric constant tensor:
#      x y z
#    x 1.835120 0.000000 0.000000 
#    y 0.000000 1.823780 0.000000 
#    z 0.000000 0.000000 1.750020 
# 
# From -- ./inp_files/33289.got.cif
#   From: 2010.05.17/outbox.cif.g08.bks.cpg/sg52_17_cif.got.tgz:33289.got - 2010.06.03 12:15:38.
