data_PCOD9412750
_publ_section_title
;
Structure prediction by ZEFSAII (Michael W. Deem and Ramdas Pophale) SiO2 
 PCOD9412750
Probable space group: P N N A
;
_chemical_formula_sum "Si O2"
_cell_formula_units_Z 48
_cell_length_a 8.747543
_cell_length_b 12.006095
_cell_length_c 23.325214
_cell_angle_alpha 90.000000
_cell_angle_beta 90.000000
_cell_angle_gamma 90.000000
_cell_volume 2449.703363
_symmetry_space_group_name_H-M "P N N A"
_symmetry_group_IT_number 52
_symmetry_cell_setting 'orthorhombic'
loop_
_space_group_symop_operation_xyz
x,y,z
1/2-x,-y,z
x,1/2-y,1/2-z
1/2-x,1/2+y,1/2-z
-x,-y,-z
1/2+x,y,-z
-x,1/2+y,1/2+z
1/2+x,1/2-y,1/2+z
loop_
_atom_site_type_symbol
_atom_site_label
_atom_site_fract_x
_atom_site_fract_y
_atom_site_fract_z
Si Si1 0.032639 0.758860 0.628350
Si Si2 0.922411 0.092622 0.959879
Si Si3 0.710053 0.228250 0.036855
Si Si4 0.750000 0.000000 0.213008
Si Si5 0.115970 0.072517 0.461358
Si Si6 0.091310 0.468970 0.341994
Si Si7 0.316292 0.250000 0.750000
O O1 0.182738 0.721488 0.592277
O O2 0.085427 0.779843 0.693235
O O3 0.965663 0.856174 0.588383
O O4 0.913813 0.658072 0.635567
O O5 0.037159 0.195318 0.952347
O O6 0.899552 0.044516 0.897862
O O7 0.776603 0.139241 0.992222
O O8 0.000000 0.000000 0.000000
O O9 0.703152 0.345982 0.005729
O O10 0.579995 0.987613 0.183919
O O11 0.764054 0.871940 0.239151
O O12 0.250000 0.000000 0.433986
O O13 0.000000 0.000000 0.500000
O O14 0.250000 0.500000 0.308759
#
# Coordination Sequence:
#
# PCOD9412750 Si02
#       7
#     8   8   8   4   8   8   4
#     4  11  23  43  64  96 135 181 232 292 357 428
#     4  12  20  31  55  92 126 163 198 254 345 416
#     4  12  22  36  57  90 132 166 218 276 342 423
#     4  10  24  48  70 102 132 186 242 300 356 414
#     4  12  23  40  61  93 133 177 226 292 359 431
#     4  11  22  40  66  97 138 174 222 288 355 432
#     4  10  24  46  74  96 140 192 244 294 358 430
#
# _framework density 19.594208999999999
#
# number of rings (size 3 to 8) (size 9 to 14) (size 15 to 20)
#    0.000    0.667    5.000    4.500    0.000    1.333 
#    0.000   10.000    0.000    0.000    0.000    0.000 
#    0.000    0.000    0.000    0.000    0.000    0.000 
#
# Total GULP energy -267298.060252 kJ/mol
# GULP energy per Si atom -5568.709589 kJ/mol
# Density = 1.954961 g / cm^3
# Si number density = 19.594209 Si / 1000 Ang^3
#
#
#
# Elastic Constant Matrix: (Units=GPa)
#
#
# Indices 1 2 3 4 5 6 
#
# 1 113.9064 43.9012 35.0243 0.0000 0.0000 0.0000
# 2 43.9012 114.1003 38.1755 0.0000 0.0000 0.0000
# 3 35.0243 38.1755 82.5525 0.0000 0.0000 0.0000
# 4 0.0000 0.0000 0.0000 32.7963 0.0000 0.0000
# 5 0.0000 0.0000 0.0000 0.0000 14.5534 0.0000
# 6 0.0000 0.0000 0.0000 0.0000 0.0000 51.3350
#
#
#
# Elastic Compliance Matrix: (Units=1/GPa)
#
#
# Indices 1 2 3 4 5 6 
#
# 1 0.010978 -0.003154 -0.003199 0.000000 0.000000 0.000000
# 2 -0.003154 0.011274 -0.003876 0.000000 0.000000 0.000000
# 3 -0.003199 -0.003876 0.015263 0.000000 0.000000 0.000000
# 4 0.000000 0.000000 0.000000 0.030491 0.000000 0.000000
# 5 0.000000 0.000000 0.000000 0.000000 0.068713 0.000000
# 6 0.000000 0.000000 0.000000 0.000000 0.000000 0.019480
#
#
# Mechanical properties :
#
#
# Convention : Reuss Voigt Hill
#
# Bulk Modulus (GPa) = 58.62204 60.52903 59.57553
# Shear Modulus (GPa) = 27.42082 32.63415 30.02748
#
# Velocity S-wave (km/s) = 3.74496 4.08548 3.91892
# Velocity P-wave (km/s) = 6.97729 7.29474 7.13778
#
# Compressibility (1/GPa) = 0.01705843
#
# Stress axis : x y z
#
# Youngs Moduli (GPa) = 91.08849 88.69717 65.51710
#
# Poissons Ratio (x) = 0.27971 0.20962
# Poissons Ratio (y) = 0.28725 0.25393
# Poissons Ratio (z) = 0.29143 0.34377
#
# Static dielectric constant tensor:
#      x y z
#    x 1.763030 0.000000 0.000000 
#    y 0.000000 1.921210 0.000000 
#    z 0.000000 0.000000 1.670920 
# 
# From -- ./inp_files/39487.got.cif
#   From: 2010.05.17/outbox.cif.g08.bks.cpg/sg52_20_cif.got.tgz:39487.got - 2010.06.03 12:15:38.
