data_PCOD9412425
_publ_section_title
;
Structure prediction by ZEFSAII (Michael W. Deem and Ramdas Pophale) SiO2 
 PCOD9412425
Probable space group: P N N A
;
_chemical_formula_sum "Si O2"
_cell_formula_units_Z 64
_cell_length_a 13.294122
_cell_length_b 25.308304
_cell_length_c 9.582476
_cell_angle_alpha 90.000000
_cell_angle_beta 90.000000
_cell_angle_gamma 90.000000
_cell_volume 3224.040158
_symmetry_space_group_name_H-M "P N N A"
_symmetry_group_IT_number 52
_symmetry_cell_setting 'orthorhombic'
loop_
_space_group_symop_operation_xyz
x,y,z
1/2-x,-y,z
x,1/2-y,1/2-z
1/2-x,1/2+y,1/2-z
-x,-y,-z
1/2+x,y,-z
-x,1/2+y,1/2+z
1/2+x,1/2-y,1/2+z
loop_
_atom_site_type_symbol
_atom_site_label
_atom_site_fract_x
_atom_site_fract_y
_atom_site_fract_z
Si Si1 0.531025 0.693902 0.327370
Si Si2 0.876848 0.610223 0.759500
Si Si3 0.723842 0.692893 0.177971
Si Si4 0.743834 0.437130 0.509680
Si Si5 0.919204 0.144223 0.894843
Si Si6 0.827749 0.144025 0.601862
Si Si7 0.002007 0.437003 0.994664
Si Si8 0.377209 0.892899 0.761062
O O1 0.523172 0.750000 0.250000
O O2 0.429138 0.663063 0.296894
O O3 0.627690 0.667185 0.254541
O O4 0.559307 0.689177 0.490054
O O5 0.837932 0.578877 0.626215
O O6 0.780054 0.620900 0.855243
O O7 0.958042 0.581813 0.855855
O O8 0.735054 0.750000 0.250000
O O9 0.823847 0.660216 0.207323
O O10 0.693192 0.688020 0.015929
O O11 0.750000 0.500000 0.518823
O O12 0.842212 0.401159 0.547665
O O13 0.703314 0.422381 0.357034
O O14 0.874993 0.164219 0.747330
O O15 0.026152 0.118877 0.856572
O O16 0.901894 0.097211 0.545427
O O17 0.081938 0.422786 0.873831
O O18 0.000000 0.500000 0.000000
#
# Coordination Sequence:
#
# PCOD9412425 Si02
#       8
#     8   8   8   8   8   8   8   8
#     4  11  23  43  72  98 131 182 224 285 350 406
#     4  11  23  43  67  97 141 173 229 284 328 418
#     4  11  23  43  70  98 133 183 235 285 346 411
#     4  11  25  41  68 101 137 187 225 277 346 407
#     4  10  23  44  65  97 145 166 232 287 331 414
#     4  10  23  44  65  97 143 175 225 288 339 408
#     4  11  25  41  68 102 137 183 227 282 345 409
#     4  11  23  44  66  97 139 185 227 289 336 410
#
# _framework density 19.850868999999999
#
# number of rings (size 3 to 8) (size 9 to 14) (size 15 to 20)
#    0.000    1.250    5.000    0.000    5.250    3.500 
#    0.000    2.500    0.000    0.000    0.000    0.000 
#    0.000    0.000    0.000    0.000    0.000    0.000 
#
# Total GULP energy -356916.127297 kJ/mol
# GULP energy per Si atom -5576.814489 kJ/mol
# Density = 1.980569 g / cm^3
# Si number density = 19.850869 Si / 1000 Ang^3
#
#
#
# Elastic Constant Matrix: (Units=GPa)
#
#
# Indices 1 2 3 4 5 6 
#
# 1 109.9042 57.7187 39.0344 0.0000 0.0000 0.0000
# 2 57.7187 135.4955 90.6974 0.0000 0.0000 0.0000
# 3 39.0344 90.6974 112.6712 0.0000 0.0000 0.0000
# 4 0.0000 0.0000 0.0000 10.2407 0.0000 0.0000
# 5 0.0000 0.0000 0.0000 0.0000 35.0814 0.0000
# 6 0.0000 0.0000 0.0000 0.0000 0.0000 17.8635
#
#
#
# Elastic Compliance Matrix: (Units=1/GPa)
#
#
# Indices 1 2 3 4 5 6 
#
# 1 0.011721 -0.004933 -0.000090 0.000000 0.000000 0.000000
# 2 -0.004933 0.018079 -0.012844 0.000000 0.000000 0.000000
# 3 -0.000090 -0.012844 0.019246 0.000000 0.000000 0.000000
# 4 0.000000 0.000000 0.000000 0.097649 0.000000 0.000000
# 5 0.000000 0.000000 0.000000 0.000000 0.028505 0.000000
# 6 0.000000 0.000000 0.000000 0.000000 0.000000 0.055980
#
#
# Mechanical properties :
#
#
# Convention : Reuss Voigt Hill
#
# Bulk Modulus (GPa) = 75.11933 81.44131 78.28032
# Shear Modulus (GPa) = 18.42615 24.01181 21.21898
#
# Velocity S-wave (km/s) = 3.04999 3.48172 3.27298
# Velocity P-wave (km/s) = 7.09417 7.56827 7.33505
#
# Compressibility (1/GPa) = 0.01331215
#
# Stress axis : x y z
#
# Youngs Moduli (GPa) = 85.31399 55.31155 51.95875
#
# Poissons Ratio (x) = 0.27284 0.00468
# Poissons Ratio (y) = 0.42084 0.66738
# Poissons Ratio (z) = 0.00768 0.71045
#
# Static dielectric constant tensor:
#      x y z
#    x 1.719720 0.000000 0.000000 
#    y 0.000000 1.735450 0.000000 
#    z 0.000000 0.000000 1.732980 
# 
# From -- ./inp_files/11022.got.cif
#   From: 2010.05.17/outbox.cif.g08.bks.cpg/sg52_6_cif.got.tgz:11022.got - 2010.06.03 12:15:38.
