data_PCOD9412366
_publ_section_title
;
Structure prediction by ZEFSAII (Michael W. Deem and Ramdas Pophale) SiO2 
 PCOD9412366
Probable space group: P N N A
;
_chemical_formula_sum "Si O2"
_cell_formula_units_Z 40
_cell_length_a 16.312699
_cell_length_b 9.170051
_cell_length_c 12.991181
_cell_angle_alpha 90.000000
_cell_angle_beta 90.000000
_cell_angle_gamma 90.000000
_cell_volume 1943.328444
_symmetry_space_group_name_H-M "P N N A"
_symmetry_group_IT_number 52
_symmetry_cell_setting 'orthorhombic'
loop_
_space_group_symop_operation_xyz
x,y,z
1/2-x,-y,z
x,1/2-y,1/2-z
1/2-x,1/2+y,1/2-z
-x,-y,-z
1/2+x,y,-z
-x,1/2+y,1/2+z
1/2+x,1/2-y,1/2+z
loop_
_atom_site_type_symbol
_atom_site_label
_atom_site_fract_x
_atom_site_fract_y
_atom_site_fract_z
Si Si1 0.323223 0.383593 0.442197
Si Si2 0.953965 0.900027 0.583213
Si Si3 0.084499 0.838011 0.853255
Si Si4 0.026998 0.584725 0.288460
Si Si5 0.287847 0.847408 0.344925
O O1 0.250000 0.500000 0.438039
O O2 0.348749 0.349449 0.558372
O O3 0.402997 0.425702 0.375372
O O4 0.288479 0.238722 0.390502
O O5 0.858504 0.862208 0.568841
O O6 0.007943 0.756050 0.601891
O O7 0.948942 0.990841 0.688892
O O8 0.000000 0.000000 0.500000
O O9 0.109255 0.750000 0.750000
O O10 0.053164 0.000614 0.828585
O O11 0.015003 0.750000 0.250000
O O12 0.320345 0.750000 0.250000
O O13 0.250000 0.000000 0.308723
#
# Coordination Sequence:
#
# PCOD9412366 Si02
#       5
#     8   8   8   8   8
#     4  12  24  40  63  92 125 162 207 262 317 373
#     4  11  22  39  61  89 124 164 205 252 309 374
#     4  10  23  43  62  85 122 164 208 254 307 375
#     4  11  22  38  64  93 121 158 206 258 312 379
#     4  12  23  38  62  95 129 162 203 258 319 373
#
# _framework density 20.583241999999998
#
# number of rings (size 3 to 8) (size 9 to 14) (size 15 to 20)
#    0.000    0.800    0.000   10.800    0.000    1.600 
#    0.000    6.000    0.000    0.000    0.000    0.000 
#    0.000    0.000    0.000    0.000    0.000    0.000 
#
# Total GULP energy -223707.540148 kJ/mol
# GULP energy per Si atom -5592.688504 kJ/mol
# Density = 2.053639 g / cm^3
# Si number density = 20.583242 Si / 1000 Ang^3
#
#
#
# Elastic Constant Matrix: (Units=GPa)
#
#
# Indices 1 2 3 4 5 6 
#
# 1 52.2962 32.9173 46.7728 0.0000 0.0000 0.0000
# 2 32.9173 137.1022 28.7688 0.0000 0.0000 0.0000
# 3 46.7728 28.7688 107.4750 0.0000 0.0000 0.0000
# 4 0.0000 0.0000 0.0000 17.1871 0.0000 0.0000
# 5 0.0000 0.0000 0.0000 0.0000 39.0372 0.0000
# 6 0.0000 0.0000 0.0000 0.0000 0.0000 20.6879
#
#
#
# Elastic Compliance Matrix: (Units=1/GPa)
#
#
# Indices 1 2 3 4 5 6 
#
# 1 0.034812 -0.005487 -0.013681 0.000000 0.000000 0.000000
# 2 -0.005487 0.008593 0.000088 0.000000 0.000000 0.000000
# 3 -0.013681 0.000088 0.015235 0.000000 0.000000 0.000000
# 4 0.000000 0.000000 0.000000 0.058183 0.000000 0.000000
# 5 0.000000 0.000000 0.000000 0.000000 0.025617 0.000000
# 6 0.000000 0.000000 0.000000 0.000000 0.000000 0.048337
#
#
# Mechanical properties :
#
#
# Convention : Reuss Voigt Hill
#
# Bulk Modulus (GPa) = 48.83146 57.08789 52.95967
# Shear Modulus (GPa) = 21.20761 27.94342 24.57552
#
# Velocity S-wave (km/s) = 3.21336 3.68853 3.45912
# Velocity P-wave (km/s) = 6.12723 6.77759 6.46060
#
# Compressibility (1/GPa) = 0.02047860
#
# Stress axis : x y z
#
# Youngs Moduli (GPa) = 28.72572 116.37596 65.63839
#
# Poissons Ratio (x) = 0.63859 0.89801
# Poissons Ratio (y) = 0.15763 -0.00577
# Poissons Ratio (z) = 0.39300 -0.01023
#
# Static dielectric constant tensor:
#      x y z
#    x 1.769810 0.000000 0.000000 
#    y 0.000000 1.775210 0.000000 
#    z 0.000000 0.000000 1.725110 
# 
# From -- ./inp_files/20331.got.cif
#   From: 2010.05.17/outbox.cif.g08.bks.cpg/sg52_11_cif.got.tgz:20331.got - 2010.06.03 12:15:38.
