data_PCOD9412970
_publ_section_title
;
Structure prediction by ZEFSAII (Michael W. Deem and Ramdas Pophale) SiO2 
 PCOD9412970
Probable space group: P N N A
;
_chemical_formula_sum "Si O2"
_cell_formula_units_Z 48
_cell_length_a 8.736464
_cell_length_b 20.023426
_cell_length_c 13.581090
_cell_angle_alpha 90.000000
_cell_angle_beta 90.000000
_cell_angle_gamma 90.000000
_cell_volume 2375.793589
_symmetry_space_group_name_H-M "P N N A"
_symmetry_group_IT_number 52
_symmetry_cell_setting 'orthorhombic'
loop_
_space_group_symop_operation_xyz
x,y,z
1/2-x,-y,z
x,1/2-y,1/2-z
1/2-x,1/2+y,1/2-z
-x,-y,-z
1/2+x,y,-z
-x,1/2+y,1/2+z
1/2+x,1/2-y,1/2+z
loop_
_atom_site_type_symbol
_atom_site_label
_atom_site_fract_x
_atom_site_fract_y
_atom_site_fract_z
Si Si1 0.884650 0.952781 0.439088
Si Si2 0.953426 0.252307 0.457308
Si Si3 0.354537 0.059508 0.291145
Si Si4 0.781109 0.664511 0.913525
Si Si5 0.547236 0.941157 0.924524
Si Si6 0.785300 0.849445 0.046811
O O1 0.815458 0.892750 0.504275
O O2 0.988734 0.929263 0.349567
O O3 0.750000 0.000000 0.402996
O O4 0.000000 0.000000 0.500000
O O5 0.852027 0.212666 0.540486
O O6 0.831306 0.298614 0.401253
O O7 0.056746 0.200499 0.398945
O O8 0.084690 0.301942 0.498830
O O9 0.266968 0.128319 0.312995
O O10 0.387333 0.038690 0.180278
O O11 0.250000 0.000000 0.335134
O O12 0.675438 0.892702 0.974178
O O13 0.390674 0.902198 0.898721
O O14 0.500000 0.000000 0.000000
#
# Coordination Sequence:
#
# PCOD9412970 Si02
#       6
#     8   8   8   8   8   8
#     4  12  20  35  57  91 133 166 201 255 316 381
#     4   9  19  35  66  88 120 177 202 247 321 381
#     4  12  24  37  62  98 127 167 215 264 321 384
#     4  11  18  35  62  90 127 170 205 240 323 391
#     4  11  23  43  70  90 124 164 219 275 326 368
#     4   9  20  41  65  89 120 163 213 267 318 364
#
# _framework density 20.203775
#
# number of rings (size 3 to 8) (size 9 to 14) (size 15 to 20)
#    0.000    1.333    5.000    1.500    0.000    1.333 
#    0.000    7.500    3.667    0.000    0.000    0.000 
#    0.000    0.000    0.000    0.000    0.000    0.000 
#
# Total GULP energy -267228.944481 kJ/mol
# GULP energy per Si atom -5567.269677 kJ/mol
# Density = 2.015779 g / cm^3
# Si number density = 20.203775 Si / 1000 Ang^3
#
#
#
# Elastic Constant Matrix: (Units=GPa)
#
#
# Indices 1 2 3 4 5 6 
#
# 1 140.8070 49.1168 19.5121 0.0000 0.0000 0.0000
# 2 49.1168 89.4032 20.4844 0.0000 0.0000 0.0000
# 3 19.5121 20.4844 60.6827 0.0000 0.0000 0.0000
# 4 0.0000 0.0000 0.0000 4.6834 0.0000 0.0000
# 5 0.0000 0.0000 0.0000 0.0000 21.0391 0.0000
# 6 0.0000 0.0000 0.0000 0.0000 0.0000 77.5859
#
#
#
# Elastic Compliance Matrix: (Units=1/GPa)
#
#
# Indices 1 2 3 4 5 6 
#
# 1 0.008881 -0.004579 -0.001310 0.000000 0.000000 0.000000
# 2 -0.004579 0.014484 -0.003417 0.000000 0.000000 0.000000
# 3 -0.001310 -0.003417 0.018054 0.000000 0.000000 0.000000
# 4 0.000000 0.000000 0.000000 0.213519 0.000000 0.000000
# 5 0.000000 0.000000 0.000000 0.000000 0.047531 0.000000
# 6 0.000000 0.000000 0.000000 0.000000 0.000000 0.012889
#
#
# Mechanical properties :
#
#
# Convention : Reuss Voigt Hill
#
# Bulk Modulus (GPa) = 43.84627 52.12440 47.98533
# Shear Modulus (GPa) = 14.63830 34.11366 24.37598
#
# Velocity S-wave (km/s) = 2.69463 4.11357 3.47725
# Velocity P-wave (km/s) = 5.60629 6.95825 6.31854
#
# Compressibility (1/GPa) = 0.02280696
#
# Stress axis : x y z
#
# Youngs Moduli (GPa) = 112.60495 69.04321 55.39008
#
# Poissons Ratio (x) = 0.31613 0.07255
# Poissons Ratio (y) = 0.51559 0.18926
# Poissons Ratio (z) = 0.14750 0.23592
#
# Static dielectric constant tensor:
#      x y z
#    x 1.767370 0.000000 0.000000 
#    y 0.000000 1.819590 0.000000 
#    z 0.000000 0.000000 1.683890 
# 
# From -- ./inp_files/24850.got.cif
#   From: 2010.05.17/outbox.cif.g08.bks.cpg/sg52_13_cif.got.tgz:24850.got - 2010.06.03 12:15:38.
