data_PCOD9412761
_publ_section_title
;
Structure prediction by ZEFSAII (Michael W. Deem and Ramdas Pophale) SiO2 
 PCOD9412761
Probable space group: P N N A
;
_chemical_formula_sum "Si O2"
_cell_formula_units_Z 32
_cell_length_a 9.182359
_cell_length_b 5.446960
_cell_length_c 26.696234
_cell_angle_alpha 90.000000
_cell_angle_beta 90.000000
_cell_angle_gamma 90.000000
_cell_volume 1335.237296
_symmetry_space_group_name_H-M "P N N A"
_symmetry_group_IT_number 52
_symmetry_cell_setting 'orthorhombic'
loop_
_space_group_symop_operation_xyz
x,y,z
1/2-x,-y,z
x,1/2-y,1/2-z
1/2-x,1/2+y,1/2-z
-x,-y,-z
1/2+x,y,-z
-x,1/2+y,1/2+z
1/2+x,1/2-y,1/2+z
loop_
_atom_site_type_symbol
_atom_site_label
_atom_site_fract_x
_atom_site_fract_y
_atom_site_fract_z
Si Si1 0.250000 0.000000 0.999081
Si Si2 0.923174 0.021123 0.652163
Si Si3 0.509559 0.197510 0.455662
Si Si4 0.345973 0.250000 0.250000
Si Si5 0.331948 0.246425 0.810323
O O1 0.332763 0.812586 0.963398
O O2 0.123017 0.884495 0.032892
O O3 0.987186 0.101345 0.599632
O O4 0.940503 0.199574 0.700397
O O5 0.750000 0.000000 0.645886
O O6 0.006081 0.773237 0.667639
O O7 0.500000 0.000000 0.500000
O O8 0.250000 0.500000 0.255936
O O9 0.250000 0.500000 0.825211
O O10 0.341694 0.250000 0.750000
O O11 0.250000 0.000000 0.826173
#
# Coordination Sequence:
#
# PCOD9412761 Si02
#       5
#     4   8   8   4   8
#     4  10  24  46  80 112 150 200 258 330 396 478
#     4  11  26  46  80 114 153 209 267 335 399 483
#     4  11  24  50  76 113 154 201 264 328 402 476
#     4  10  26  46  74 116 162 202 268 332 404 476
#     4  10  25  49  72 107 158 206 262 324 396 481
#
# _framework density 23.965776000000002
#
# number of rings (size 3 to 8) (size 9 to 14) (size 15 to 20)
#    0.000    1.500    0.000    2.250   14.000    2.000 
#   18.000    0.000    0.000    0.000    0.000    0.000 
#    0.000    0.000    0.000    0.000    0.000    0.000 
#
# Total GULP energy -179249.565189 kJ/mol
# GULP energy per Si atom -5601.548912 kJ/mol
# Density = 2.391123 g / cm^3
# Si number density = 23.965776 Si / 1000 Ang^3
#
#
#
# Elastic Constant Matrix: (Units=GPa)
#
#
# Indices 1 2 3 4 5 6 
#
# 1 124.6682 60.2851 29.4344 0.0000 0.0000 0.0000
# 2 60.2851 138.2035 53.4365 0.0000 0.0000 0.0000
# 3 29.4344 53.4365 179.7413 0.0000 0.0000 0.0000
# 4 0.0000 0.0000 0.0000 21.4349 0.0000 0.0000
# 5 0.0000 0.0000 0.0000 0.0000 22.3029 0.0000
# 6 0.0000 0.0000 0.0000 0.0000 0.0000 52.0409
#
#
#
# Elastic Compliance Matrix: (Units=1/GPa)
#
#
# Indices 1 2 3 4 5 6 
#
# 1 0.010190 -0.004293 -0.000392 0.000000 0.000000 0.000000
# 2 -0.004293 0.009984 -0.002265 0.000000 0.000000 0.000000
# 3 -0.000392 -0.002265 0.006301 0.000000 0.000000 0.000000
# 4 0.000000 0.000000 0.000000 0.046653 0.000000 0.000000
# 5 0.000000 0.000000 0.000000 0.000000 0.044837 0.000000
# 6 0.000000 0.000000 0.000000 0.000000 0.000000 0.019216
#
#
# Mechanical properties :
#
#
# Convention : Reuss Voigt Hill
#
# Bulk Modulus (GPa) = 79.52982 80.99166 80.26074
# Shear Modulus (GPa) = 32.20111 39.11954 35.66032
#
# Velocity S-wave (km/s) = 3.66953 4.04457 3.86160
# Velocity P-wave (km/s) = 7.15617 7.46187 7.31061
#
# Compressibility (1/GPa) = 0.01257390
#
# Stress axis : x y z
#
# Youngs Moduli (GPa) = 98.13569 100.15732 158.69859
#
# Poissons Ratio (x) = 0.43000 0.06226
# Poissons Ratio (y) = 0.42132 0.35949
# Poissons Ratio (z) = 0.03850 0.22688
#
# Static dielectric constant tensor:
#      x y z
#    x 1.985610 0.000000 0.000000 
#    y 0.000000 1.922640 0.000000 
#    z 0.000000 0.000000 2.627220 
# 
# From -- ./inp_files/44068.got.cif
#   From: 2010.05.17/outbox.cif.g08.bks.cpg/sg52_23_cif.got.tgz:44068.got - 2010.06.03 12:15:38.
