data_PCOD9412805
_publ_section_title
;
Structure prediction by ZEFSAII (Michael W. Deem and Ramdas Pophale) SiO2 
 PCOD9412805
Probable space group: P N N A
;
_chemical_formula_sum "Si O2"
_cell_formula_units_Z 60
_cell_length_a 9.533883
_cell_length_b 11.552733
_cell_length_c 25.286597
_cell_angle_alpha 90.000000
_cell_angle_beta 90.000000
_cell_angle_gamma 90.000000
_cell_volume 2785.126602
_symmetry_space_group_name_H-M "P N N A"
_symmetry_group_IT_number 52
_symmetry_cell_setting 'orthorhombic'
loop_
_space_group_symop_operation_xyz
x,y,z
1/2-x,-y,z
x,1/2-y,1/2-z
1/2-x,1/2+y,1/2-z
-x,-y,-z
1/2+x,y,-z
-x,1/2+y,1/2+z
1/2+x,1/2-y,1/2+z
loop_
_atom_site_type_symbol
_atom_site_label
_atom_site_fract_x
_atom_site_fract_y
_atom_site_fract_z
Si Si1 0.746376 0.135702 0.586565
Si Si2 0.428129 0.616302 0.481662
Si Si3 0.752293 0.138461 0.356221
Si Si4 0.028332 0.717325 0.347210
Si Si5 0.096581 0.466682 0.364360
Si Si6 0.043168 0.279677 0.172223
Si Si7 0.700245 0.765142 0.473733
Si Si8 0.272294 0.250000 0.250000
O O1 0.606924 0.178423 0.616336
O O2 0.756425 0.157040 0.523947
O O3 0.873322 0.210027 0.612333
O O4 0.750000 0.000000 0.597322
O O5 0.500000 0.500000 0.500000
O O6 0.378581 0.586668 0.422554
O O7 0.543984 0.717185 0.480768
O O8 0.302814 0.655264 0.519287
O O9 0.611805 0.207420 0.339452
O O10 0.777876 0.176090 0.417335
O O11 0.886723 0.176577 0.322145
O O12 0.750000 0.000000 0.353595
O O13 0.007721 0.585078 0.366879
O O14 0.121197 0.703592 0.294194
O O15 0.250000 0.500000 0.343941
O O16 0.039322 0.360206 0.330213
O O17 0.159095 0.321317 0.214740
#
# Coordination Sequence:
#
# PCOD9412805 Si02
#       8
#     8   8   8   8   8   8   8   4
#     4  11  21  40  65  99 135 189 240 274 319 408
#     4  12  23  34  61  96 138 184 227 274 337 402
#     4  12  26  46  66 103 148 185 223 283 346 417
#     4  11  25  44  73 102 137 176 233 293 349 405
#     4  12  20  44  69 101 137 173 232 293 338 400
#     4  11  24  46  71 100 138 175 229 287 346 409
#     4  12  22  40  61  96 141 187 233 271 332 408
#     4  10  24  50  76 100 122 174 240 274 354 424
#
# _framework density 21.543005000000001
#
# number of rings (size 3 to 8) (size 9 to 14) (size 15 to 20)
#    0.000    0.533    5.333    4.800    0.000    1.067 
#   14.400    4.000    0.000    0.000    0.000    0.000 
#    0.000    0.000    0.000    0.000    0.000    0.000 
#
# Total GULP energy -335114.747334 kJ/mol
# GULP energy per Si atom -5585.245789 kJ/mol
# Density = 2.149397 g / cm^3
# Si number density = 21.543005 Si / 1000 Ang^3
#
#
#
# Elastic Constant Matrix: (Units=GPa)
#
#
# Indices 1 2 3 4 5 6 
#
# 1 133.3687 35.7967 17.6640 0.0000 0.0000 0.0000
# 2 35.7967 143.8092 15.7654 0.0000 0.0000 0.0000
# 3 17.6640 15.7654 79.4371 0.0000 0.0000 0.0000
# 4 0.0000 0.0000 0.0000 10.1889 0.0000 0.0000
# 5 0.0000 0.0000 0.0000 0.0000 23.9362 0.0000
# 6 0.0000 0.0000 0.0000 0.0000 0.0000 31.4491
#
#
#
# Elastic Compliance Matrix: (Units=1/GPa)
#
#
# Indices 1 2 3 4 5 6 
#
# 1 0.008195 -0.001881 -0.001449 0.000000 0.000000 0.000000
# 2 -0.001881 0.007540 -0.001078 0.000000 0.000000 0.000000
# 3 -0.001449 -0.001078 0.013125 0.000000 0.000000 0.000000
# 4 0.000000 0.000000 0.000000 0.098146 0.000000 0.000000
# 5 0.000000 0.000000 0.000000 0.000000 0.041778 0.000000
# 6 0.000000 0.000000 0.000000 0.000000 0.000000 0.031797
#
#
# Mechanical properties :
#
#
# Convention : Reuss Voigt Hill
#
# Bulk Modulus (GPa) = 49.89164 55.00745 52.44955
# Shear Modulus (GPa) = 23.13983 32.27410 27.70696
#
# Velocity S-wave (km/s) = 3.28094 3.87476 3.59015
# Velocity P-wave (km/s) = 6.12879 6.75334 6.44863
#
# Compressibility (1/GPa) = 0.02004344
#
# Stress axis : x y z
#
# Youngs Moduli (GPa) = 122.02889 132.62480 76.19200
#
# Poissons Ratio (x) = 0.24947 0.11040
# Poissons Ratio (y) = 0.22953 0.08215
# Poissons Ratio (z) = 0.17681 0.14299
#
# Static dielectric constant tensor:
#      x y z
#    x 1.782470 0.000000 0.000000 
#    y 0.000000 1.813600 0.000000 
#    z 0.000000 0.000000 1.887270 
# 
# From -- ./inp_files/42354.got.cif
#   From: 2010.05.17/outbox.cif.g08.bks.cpg/sg52_22_cif.got.tgz:42354.got - 2010.06.03 12:15:38.
