data_PCOD9412542
_publ_section_title
;
Structure prediction by ZEFSAII (Michael W. Deem and Ramdas Pophale) SiO2 
 PCOD9412542
Probable space group: P N N A
;
_chemical_formula_sum "Si O2"
_cell_formula_units_Z 48
_cell_length_a 28.358442
_cell_length_b 8.516964
_cell_length_c 8.569941
_cell_angle_alpha 90.000000
_cell_angle_beta 90.000000
_cell_angle_gamma 90.000000
_cell_volume 2069.879250
_symmetry_space_group_name_H-M "P N N A"
_symmetry_group_IT_number 52
_symmetry_cell_setting 'orthorhombic'
loop_
_space_group_symop_operation_xyz
x,y,z
1/2-x,-y,z
x,1/2-y,1/2-z
1/2-x,1/2+y,1/2-z
-x,-y,-z
1/2+x,y,-z
-x,1/2+y,1/2+z
1/2+x,1/2-y,1/2+z
loop_
_atom_site_type_symbol
_atom_site_label
_atom_site_fract_x
_atom_site_fract_y
_atom_site_fract_z
Si Si1 0.501528 0.750000 0.750000
Si Si2 0.928685 0.674374 0.503375
Si Si3 0.346609 0.359210 0.967691
Si Si4 0.250000 0.000000 0.468343
Si Si5 0.424111 0.495096 0.172658
Si Si6 0.250000 0.000000 0.002346
Si Si7 0.348350 0.495308 0.642875
Si Si8 0.741226 0.250000 0.750000
O O1 0.468780 0.657242 0.627395
O O2 0.535425 0.634144 0.846331
O O3 0.929109 0.555974 0.650107
O O4 0.931076 0.850133 0.568909
O O5 0.879292 0.634264 0.424001
O O6 0.363832 0.459103 0.819005
O O7 0.355564 0.175093 0.939368
O O8 0.290540 0.397728 0.954773
O O9 0.374450 0.417279 0.120289
O O10 0.218872 0.121712 0.363420
O O11 0.234232 0.864266 0.124812
O O12 0.205849 0.039568 0.893894
#
# Coordination Sequence:
#
# PCOD9412542 Si02
#       8
#     4   8   8   4   8   4   8   4
#     4  12  24  51  74 104 140 182 228 301 360 428
#     4  11  26  44  72 106 137 178 231 288 356 424
#     4  11  25  44  66  98 139 189 235 290 351 424
#     4  11  23  42  64 100 138 188 234 284 348 416
#     4  11  26  44  73 104 138 179 232 287 355 431
#     4  11  23  42  64 100 138 194 228 300 348 424
#     4  11  25  44  66  98 142 187 236 290 353 422
#     4  10  24  37  66  98 136 182 242 293 346 418
#
# _framework density 23.18976
#
# number of rings (size 3 to 8) (size 9 to 14) (size 15 to 20)
#    0.000    1.000    1.667    3.500    7.000    0.667 
#    0.000    3.333    0.000    0.000    0.000    0.000 
#    0.000    0.000    0.000    0.000    0.000    0.000 
#
# Total GULP energy -267713.098082 kJ/mol
# GULP energy per Si atom -5577.356210 kJ/mol
# Density = 2.313698 g / cm^3
# Si number density = 23.189760 Si / 1000 Ang^3
#
#
#
# Elastic Constant Matrix: (Units=GPa)
#
#
# Indices 1 2 3 4 5 6 
#
# 1 136.0239 27.9017 38.0178 0.0000 0.0000 0.0000
# 2 27.9017 69.7217 28.7299 0.0000 0.0000 0.0000
# 3 38.0178 28.7299 83.8508 0.0000 0.0000 0.0000
# 4 0.0000 0.0000 0.0000 24.4207 0.0000 0.0000
# 5 0.0000 0.0000 0.0000 0.0000 -95.0035 0.0000
# 6 0.0000 0.0000 0.0000 0.0000 0.0000 37.1475
#
#
#
# Elastic Compliance Matrix: (Units=1/GPa)
#
#
# Indices 1 2 3 4 5 6 
#
# 1 0.008689 -0.002159 -0.003200 0.000000 0.000000 0.000000
# 2 -0.002159 0.017237 -0.004927 0.000000 0.000000 0.000000
# 3 -0.003200 -0.004927 0.015065 0.000000 0.000000 0.000000
# 4 0.000000 0.000000 0.000000 0.040949 0.000000 0.000000
# 5 0.000000 0.000000 0.000000 0.000000 -0.010526 0.000000
# 6 0.000000 0.000000 0.000000 0.000000 0.000000 0.026920
#
#
# Mechanical properties :
#
#
# Convention : Reuss Voigt Hill
#
# Bulk Modulus (GPa) = 48.97319 53.21057 51.09188
# Shear Modulus (GPa) = 39.77379 6.30943 23.04161
#
# Velocity S-wave (km/s) = 4.14592 1.65127 3.15558
# Velocity P-wave (km/s) = 6.63947 5.16053 5.94616
#
# Compressibility (1/GPa) = 0.02041934
#
# Stress axis : x y z
#
# Youngs Moduli (GPa) = 115.09115 58.01512 66.37913
#
# Poissons Ratio (x) = 0.12523 0.21241
# Poissons Ratio (y) = 0.24843 0.32706
# Poissons Ratio (z) = 0.36828 0.28585
#
# Static dielectric constant tensor:
#      x y z
#    x 1.844870 0.000000 0.000000 
#    y 0.000000 1.851570 0.000000 
#    z 0.000000 0.000000 1.930300 
# 
# From -- ./inp_files/15616.got.cif
#   From: 2010.05.17/outbox.cif.g08.bks.cpg/sg52_8_cif.got.tgz:15616.got - 2010.06.03 12:15:38.
