data_PCOD9412807
_publ_section_title
;
Structure prediction by ZEFSAII (Michael W. Deem and Ramdas Pophale) SiO2 
 PCOD9412807
Probable space group: P N N A
;
_chemical_formula_sum "Si O2"
_cell_formula_units_Z 40
_cell_length_a 25.734680
_cell_length_b 11.388892
_cell_length_c 5.652245
_cell_angle_alpha 90.000000
_cell_angle_beta 90.000000
_cell_angle_gamma 90.000000
_cell_volume 1656.613611
_symmetry_space_group_name_H-M "P N N A"
_symmetry_group_IT_number 52
_symmetry_cell_setting 'orthorhombic'
loop_
_space_group_symop_operation_xyz
x,y,z
1/2-x,-y,z
x,1/2-y,1/2-z
1/2-x,1/2+y,1/2-z
-x,-y,-z
1/2+x,y,-z
-x,1/2+y,1/2+z
1/2+x,1/2-y,1/2+z
loop_
_atom_site_type_symbol
_atom_site_label
_atom_site_fract_x
_atom_site_fract_y
_atom_site_fract_z
Si Si1 0.250000 0.500000 0.892061
Si Si2 0.782656 0.250000 0.250000
Si Si3 0.595246 0.250000 0.750000
Si Si4 0.002954 0.308522 0.525367
Si Si5 0.545129 0.518499 0.194982
Si Si6 0.844938 0.250000 0.750000
Si Si7 0.360207 0.995020 0.358935
O O1 0.246770 0.623392 0.748128
O O2 0.301177 0.509615 0.053668
O O3 0.813953 0.244045 0.498859
O O4 0.552238 0.228492 0.545726
O O5 0.626839 0.370886 0.731785
O O6 0.975780 0.250000 0.750000
O O7 0.034336 0.422567 0.608442
O O8 0.965738 0.358348 0.323502
O O9 0.500000 0.500000 0.000000
O O10 0.601103 0.506204 0.081634
O O11 0.870113 0.119439 0.770815
#
# Coordination Sequence:
#
# PCOD9412807 Si02
#       7
#     4   4   4   8   8   4   8
#     4  10  26  48  80 112 162 204 272 324 406 468
#     4  10  24  50  79 115 154 210 268 328 392 478
#     4  12  24  45  79 116 148 193 277 322 388 458
#     4  11  22  43  72 111 150 190 259 334 393 471
#     4  11  23  45  70 105 154 202 251 319 405 468
#     4  10  26  51  76 113 166 211 259 316 420 476
#     4  11  25  49  77 115 154 214 259 335 395 486
#
# _framework density 24.145644000000001
#
# number of rings (size 3 to 8) (size 9 to 14) (size 15 to 20)
#    0.000    1.200    4.000    0.000    0.000   12.800 
#    5.400    7.000    0.000    0.000    0.000    0.000 
#    0.000    0.000    0.000    0.000    0.000    0.000 
#
# Total GULP energy -223181.515902 kJ/mol
# GULP energy per Si atom -5579.537898 kJ/mol
# Density = 2.409069 g / cm^3
# Si number density = 24.145644 Si / 1000 Ang^3
#
#
#
# Elastic Constant Matrix: (Units=GPa)
#
#
# Indices 1 2 3 4 5 6 
#
# 1 136.0802 36.1591 32.5314 0.0000 0.0000 0.0000
# 2 36.1591 233.8079 27.3908 0.0000 0.0000 0.0000
# 3 32.5314 27.3908 83.2637 0.0000 0.0000 0.0000
# 4 0.0000 0.0000 0.0000 56.3815 0.0000 0.0000
# 5 0.0000 0.0000 0.0000 0.0000 27.2058 0.0000
# 6 0.0000 0.0000 0.0000 0.0000 0.0000 46.8041
#
#
#
# Elastic Compliance Matrix: (Units=1/GPa)
#
#
# Indices 1 2 3 4 5 6 
#
# 1 0.008300 -0.000940 -0.002934 0.000000 0.000000 0.000000
# 2 -0.000940 0.004555 -0.001131 0.000000 0.000000 0.000000
# 3 -0.002934 -0.001131 0.013528 0.000000 0.000000 0.000000
# 4 0.000000 0.000000 0.000000 0.017736 0.000000 0.000000
# 5 0.000000 0.000000 0.000000 0.000000 0.036757 0.000000
# 6 0.000000 0.000000 0.000000 0.000000 0.000000 0.021366
#
#
# Mechanical properties :
#
#
# Convention : Reuss Voigt Hill
#
# Bulk Modulus (GPa) = 61.07373 71.70161 66.38767
# Shear Modulus (GPa) = 42.47776 49.88299 46.18038
#
# Velocity S-wave (km/s) = 4.19887 4.55017 4.37805
# Velocity P-wave (km/s) = 6.98972 7.57399 7.28771
#
# Compressibility (1/GPa) = 0.01637365
#
# Stress axis : x y z
#
# Youngs Moduli (GPa) = 120.48710 219.54417 73.91925
#
# Poissons Ratio (x) = 0.20635 0.21684
# Poissons Ratio (y) = 0.11325 0.08362
# Poissons Ratio (z) = 0.35345 0.24834
#
# Static dielectric constant tensor:
#      x y z
#    x 1.975690 0.000000 0.000000 
#    y 0.000000 2.384920 0.000000 
#    z 0.000000 0.000000 2.078950 
# 
# From -- ./inp_files/5675.got.cif
#   From: 2010.05.17/outbox.cif.g08.bks.cpg/sg52_3_cif.got.tgz:5675.got - 2010.06.03 12:15:38.
