data_PCOD9412352
_publ_section_title
;
Structure prediction by ZEFSAII (Michael W. Deem and Ramdas Pophale) SiO2 
 PCOD9412352
Probable space group: P N N A
;
_chemical_formula_sum "Si O2"
_cell_formula_units_Z 36
_cell_length_a 21.417845
_cell_length_b 6.449501
_cell_length_c 12.323233
_cell_angle_alpha 90.000000
_cell_angle_beta 90.000000
_cell_angle_gamma 90.000000
_cell_volume 1702.262554
_symmetry_space_group_name_H-M "P N N A"
_symmetry_group_IT_number 52
_symmetry_cell_setting 'orthorhombic'
loop_
_space_group_symop_operation_xyz
x,y,z
1/2-x,-y,z
x,1/2-y,1/2-z
1/2-x,1/2+y,1/2-z
-x,-y,-z
1/2+x,y,-z
-x,1/2+y,1/2+z
1/2+x,1/2-y,1/2+z
loop_
_atom_site_type_symbol
_atom_site_label
_atom_site_fract_x
_atom_site_fract_y
_atom_site_fract_z
Si Si1 0.804119 0.659577 0.632370
Si Si2 0.047794 0.208070 0.877244
Si Si3 0.091205 0.893172 0.050855
Si Si4 0.851261 0.507977 0.030488
Si Si5 0.750000 0.500000 0.208092
O O1 0.750000 0.500000 0.601462
O O2 0.790347 0.750000 0.750000
O O3 0.871670 0.547485 0.629810
O O4 0.811400 0.837026 0.543326
O O5 0.057599 0.250000 0.750000
O O6 0.081460 0.394142 0.940986
O O7 0.974743 0.179815 0.901993
O O8 0.079432 0.006988 0.934746
O O9 0.136262 0.701623 0.032116
O O10 0.812910 0.477543 0.139280
O O11 0.743336 0.250000 0.250000
#
# Coordination Sequence:
#
# PCOD9412352 Si02
#       5
#     8   8   8   8   4
#     4  11  27  43  69 101 136 183 233 293 368 436
#     4  10  23  42  69 101 138 180 234 293 363 428
#     4  10  24  45  67 102 138 181 235 296 355 439
#     4  11  25  45  70  98 141 183 237 299 354 441
#     4  12  30  46  78 108 146 196 246 304 372 438
#
# _framework density 21.148322
#
# number of rings (size 3 to 8) (size 9 to 14) (size 15 to 20)
#    0.000    1.333    0.000    2.667   18.667    0.000 
#    0.000    0.000    0.000    0.000    0.000    0.000 
#    0.000    0.000    0.000    0.000    0.000    0.000 
#
# Total GULP energy -200805.224374 kJ/mol
# GULP energy per Si atom -5577.922899 kJ/mol
# Density = 2.110019 g / cm^3
# Si number density = 21.148322 Si / 1000 Ang^3
#
#
#
# Elastic Constant Matrix: (Units=GPa)
#
#
# Indices 1 2 3 4 5 6 
#
# 1 81.0082 24.9178 -10.0218 0.0000 0.0000 0.0000
# 2 24.9178 103.6099 26.0124 0.0000 0.0000 0.0000
# 3 -10.0218 26.0124 57.0862 0.0000 0.0000 0.0000
# 4 0.0000 0.0000 0.0000 14.6753 0.0000 0.0000
# 5 0.0000 0.0000 0.0000 0.0000 18.3630 0.0000
# 6 0.0000 0.0000 0.0000 0.0000 0.0000 41.9763
#
#
#
# Elastic Compliance Matrix: (Units=1/GPa)
#
#
# Indices 1 2 3 4 5 6 
#
# 1 0.014332 -0.004605 0.004615 0.000000 0.000000 0.000000
# 2 -0.004605 0.012378 -0.006449 0.000000 0.000000 0.000000
# 3 0.004615 -0.006449 0.021266 0.000000 0.000000 0.000000
# 4 0.000000 0.000000 0.000000 0.068142 0.000000 0.000000
# 5 0.000000 0.000000 0.000000 0.000000 0.054457 0.000000
# 6 0.000000 0.000000 0.000000 0.000000 0.000000 0.023823
#
#
# Mechanical properties :
#
#
# Convention : Reuss Voigt Hill
#
# Bulk Modulus (GPa) = 28.49255 35.94680 32.21968
# Shear Modulus (GPa) = 22.83350 28.38929 25.61139
#
# Velocity S-wave (km/s) = 3.28942 3.66784 3.48377
# Velocity P-wave (km/s) = 5.28479 5.91369 5.60806
#
# Compressibility (1/GPa) = 0.03509689
#
# Stress axis : x y z
#
# Youngs Moduli (GPa) = 69.77448 80.78721 47.02335
#
# Poissons Ratio (x) = 0.37205 -0.21699
# Poissons Ratio (y) = 0.32133 0.30325
# Poissons Ratio (z) = -0.32198 0.52099
#
# Static dielectric constant tensor:
#      x y z
#    x 1.741580 0.000000 0.000000 
#    y 0.000000 1.814120 0.000000 
#    z 0.000000 0.000000 1.733910 
# 
# From -- ./inp_files/22069.got.cif
#   From: 2010.05.17/outbox.cif.g08.bks.cpg/sg52_12_cif.got.tgz:22069.got - 2010.06.03 12:15:38.
