data_PCOD9412955
_publ_section_title
;
Structure prediction by ZEFSAII (Michael W. Deem and Ramdas Pophale) SiO2 
 PCOD9412955
Probable space group: P N N A
;
_chemical_formula_sum "Si O2"
_cell_formula_units_Z 48
_cell_length_a 20.561390
_cell_length_b 14.836161
_cell_length_c 9.405807
_cell_angle_alpha 90.000000
_cell_angle_beta 90.000000
_cell_angle_gamma 90.000000
_cell_volume 2869.261106
_symmetry_space_group_name_H-M "P N N A"
_symmetry_group_IT_number 52
_symmetry_cell_setting 'orthorhombic'
loop_
_space_group_symop_operation_xyz
x,y,z
1/2-x,-y,z
x,1/2-y,1/2-z
1/2-x,1/2+y,1/2-z
-x,-y,-z
1/2+x,y,-z
-x,1/2+y,1/2+z
1/2+x,1/2-y,1/2+z
loop_
_atom_site_type_symbol
_atom_site_label
_atom_site_fract_x
_atom_site_fract_y
_atom_site_fract_z
Si Si1 0.237530 0.238975 0.416018
Si Si2 0.060992 0.946464 0.561279
Si Si3 0.896561 0.348406 0.325482
Si Si4 0.189729 0.436921 0.934722
Si Si5 0.106399 0.735528 0.084083
Si Si6 0.746253 0.151951 0.173337
O O1 0.225507 0.250000 0.250000
O O2 0.197428 0.155130 0.477151
O O3 0.315377 0.222616 0.437020
O O4 0.224467 0.326922 0.513136
O O5 0.060942 0.914262 0.727201
O O6 0.072379 0.854248 0.473721
O O7 0.123645 0.010132 0.543676
O O8 0.000000 0.000000 0.500000
O O9 0.897650 0.250000 0.250000
O O10 0.913271 0.321763 0.487325
O O11 0.821188 0.379873 0.321621
O O12 0.250000 0.500000 0.977224
O O13 0.201444 0.409987 0.770025
O O14 0.094295 0.750000 0.250000
O O15 0.746386 0.250000 0.250000
#
# Coordination Sequence:
#
# PCOD9412955 Si02
#       6
#     8   8   8   8   8   8
#     4   9  17  31  52  79 106 134 169 214 266 315
#     4  11  21  33  50  78 103 135 176 220 261 303
#     4   8  14  29  51  72  96 130 173 204 245 314
#     4  11  17  31  52  74 101 129 173 222 262 296
#     4   9  17  33  55  75 100 138 176 206 256 327
#     4   8  14  27  50  74  95 131 170 204 251 310
#
# _framework density 16.729044999999999
#
# number of rings (size 3 to 8) (size 9 to 14) (size 15 to 20)
#    0.000    2.667    3.333    2.000    0.000    0.000 
#    0.000    8.333    0.000    0.000    0.000    0.000 
#    0.000    0.000    0.000    0.000    0.000    0.000 
#
# Total GULP energy -267234.533844 kJ/mol
# GULP energy per Si atom -5567.386122 kJ/mol
# Density = 1.669097 g / cm^3
# Si number density = 16.729045 Si / 1000 Ang^3
#
#
#
# Elastic Constant Matrix: (Units=GPa)
#
#
# Indices 1 2 3 4 5 6 
#
# 1 80.0235 44.4411 39.1008 0.0000 0.0000 0.0000
# 2 44.4411 73.5674 40.9619 0.0000 0.0000 0.0000
# 3 39.1008 40.9619 135.3514 0.0000 0.0000 0.0000
# 4 0.0000 0.0000 0.0000 21.4724 0.0000 0.0000
# 5 0.0000 0.0000 0.0000 0.0000 9.9730 0.0000
# 6 0.0000 0.0000 0.0000 0.0000 0.0000 21.0531
#
#
#
# Elastic Compliance Matrix: (Units=1/GPa)
#
#
# Indices 1 2 3 4 5 6 
#
# 1 0.019476 -0.010382 -0.002484 0.000000 0.000000 0.000000
# 2 -0.010382 0.021882 -0.003623 0.000000 0.000000 0.000000
# 3 -0.002484 -0.003623 0.009202 0.000000 0.000000 0.000000
# 4 0.000000 0.000000 0.000000 0.046571 0.000000 0.000000
# 5 0.000000 0.000000 0.000000 0.000000 0.100271 0.000000
# 6 0.000000 0.000000 0.000000 0.000000 0.000000 0.047499
#
#
# Mechanical properties :
#
#
# Convention : Reuss Voigt Hill
#
# Bulk Modulus (GPa) = 56.87795 59.77221 58.32508
# Shear Modulus (GPa) = 17.62177 21.46226 19.54201
#
# Velocity S-wave (km/s) = 3.24908 3.58569 3.42153
# Velocity P-wave (km/s) = 6.93892 7.27668 7.10981
#
# Compressibility (1/GPa) = 0.01758151
#
# Stress axis : x y z
#
# Youngs Moduli (GPa) = 51.34590 45.70016 108.66828
#
# Poissons Ratio (x) = 0.47445 0.26997
# Poissons Ratio (y) = 0.53306 0.39371
# Poissons Ratio (z) = 0.12756 0.16557
#
# Static dielectric constant tensor:
#      x y z
#    x 1.538640 0.000000 0.000000 
#    y 0.000000 1.580460 0.000000 
#    z 0.000000 0.000000 1.617880 
# 
# From -- ./inp_files/13306.got.cif
#   From: 2010.05.17/outbox.cif.g08.bks.cpg/sg52_7_cif.got.tgz:13306.got - 2010.06.03 12:15:38.
