data_PCOD9412716
_publ_section_title
;
Structure prediction by ZEFSAII (Michael W. Deem and Ramdas Pophale) SiO2 
 PCOD9412716
Probable space group: P N N A
;
_chemical_formula_sum "Si O2"
_cell_formula_units_Z 32
_cell_length_a 16.361249
_cell_length_b 12.452407
_cell_length_c 6.454038
_cell_angle_alpha 90.000000
_cell_angle_beta 90.000000
_cell_angle_gamma 90.000000
_cell_volume 1314.925898
_symmetry_space_group_name_H-M "P N N A"
_symmetry_group_IT_number 52
_symmetry_cell_setting 'orthorhombic'
loop_
_space_group_symop_operation_xyz
x,y,z
1/2-x,-y,z
x,1/2-y,1/2-z
1/2-x,1/2+y,1/2-z
-x,-y,-z
1/2+x,y,-z
-x,1/2+y,1/2+z
1/2+x,1/2-y,1/2+z
loop_
_atom_site_type_symbol
_atom_site_label
_atom_site_fract_x
_atom_site_fract_y
_atom_site_fract_z
Si Si1 0.077429 0.404457 0.883245
Si Si2 0.231820 0.115730 0.914611
Si Si3 0.635273 0.250000 0.750000
Si Si4 0.559513 0.750000 0.750000
Si Si5 0.606512 0.651708 0.146157
O O1 0.162190 0.389759 0.760873
O O2 0.068478 0.534109 0.885500
O O3 0.006170 0.348569 0.744372
O O4 0.088988 0.338969 0.100474
O O5 0.314520 0.140450 0.789665
O O6 0.250000 0.000000 0.012430
O O7 0.193409 0.188990 0.088904
O O8 0.619263 0.796766 0.577236
O O9 0.556326 0.750000 0.250000
#
# Coordination Sequence:
#
# PCOD9412716 Si02
#       5
#     8   8   4   4   8
#     4  11  25  48  75 106 141 199 243 295 365 436
#     4  10  24  45  72 106 145 187 245 304 355 424
#     4  12  22  43  80 103 142 190 256 292 369 420
#     4  12  26  49  74 107 148 198 234 300 367 432
#     4  11  27  45  71 109 151 183 246 303 361 429
#
# _framework density 24.335971000000001
#
# number of rings (size 3 to 8) (size 9 to 14) (size 15 to 20)
#    0.000    1.000    2.500    2.250    1.750   14.000 
#    0.000    0.000    0.000    0.000    0.000    0.000 
#    0.000    0.000    0.000    0.000    0.000    0.000 
#
# Total GULP energy -178430.028829 kJ/mol
# GULP energy per Si atom -5575.938401 kJ/mol
# Density = 2.428058 g / cm^3
# Si number density = 24.335971 Si / 1000 Ang^3
#
#
#
# Elastic Constant Matrix: (Units=GPa)
#
#
# Indices 1 2 3 4 5 6 
#
# 1 107.7677 65.4270 40.2403 0.0000 0.0000 0.0000
# 2 65.4270 244.8024 112.3640 0.0000 0.0000 0.0000
# 3 40.2403 112.3640 94.6407 0.0000 0.0000 0.0000
# 4 0.0000 0.0000 0.0000 42.7587 0.0000 0.0000
# 5 0.0000 0.0000 0.0000 0.0000 173.9933 0.0000
# 6 0.0000 0.0000 0.0000 0.0000 0.0000 41.1577
#
#
#
# Elastic Compliance Matrix: (Units=1/GPa)
#
#
# Indices 1 2 3 4 5 6 
#
# 1 0.011382 -0.001803 -0.002698 0.000000 0.000000 0.000000
# 2 -0.001803 0.009263 -0.010231 0.000000 0.000000 0.000000
# 3 -0.002698 -0.010231 0.023860 0.000000 0.000000 0.000000
# 4 0.000000 0.000000 0.000000 0.023387 0.000000 0.000000
# 5 0.000000 0.000000 0.000000 0.000000 0.005747 0.000000
# 6 0.000000 0.000000 0.000000 0.000000 0.000000 0.024297
#
#
# Mechanical properties :
#
#
# Convention : Reuss Voigt Hill
#
# Bulk Modulus (GPa) = 66.48965 98.14151 82.31558
# Shear Modulus (GPa) = 37.76062 66.86058 52.31060
#
# Velocity S-wave (km/s) = 3.94336 5.24725 4.64132
# Velocity P-wave (km/s) = 6.93645 8.78219 7.91331
#
# Compressibility (1/GPa) = 0.01503993
#
# Stress axis : x y z
#
# Youngs Moduli (GPa) = 87.86112 107.95949 41.91129
#
# Poissons Ratio (x) = 0.19470 0.11308
# Poissons Ratio (y) = 0.15845 0.42878
# Poissons Ratio (z) = 0.23706 1.10448
#
# Static dielectric constant tensor:
#      x y z
#    x 1.960100 0.000000 0.000000 
#    y 0.000000 2.049430 0.000000 
#    z 0.000000 0.000000 2.617420 
# 
# From -- ./inp_files/3941.got.cif
#   From: 2010.05.17/outbox.cif.g08.bks.cpg/sg52_2_cif.got.tgz:3941.got - 2010.06.03 12:15:38.
