data_PCOD9412944
_publ_section_title
;
Structure prediction by ZEFSAII (Michael W. Deem and Ramdas Pophale) SiO2 
 PCOD9412944
Probable space group: P N N A
;
_chemical_formula_sum "Si O2"
_cell_formula_units_Z 20
_cell_length_a 5.513395
_cell_length_b 5.355092
_cell_length_c 28.984522
_cell_angle_alpha 90.000000
_cell_angle_beta 90.000000
_cell_angle_gamma 90.000000
_cell_volume 855.760402
_symmetry_space_group_name_H-M "P N N A"
_symmetry_group_IT_number 52
_symmetry_cell_setting 'orthorhombic'
loop_
_space_group_symop_operation_xyz
x,y,z
1/2-x,-y,z
x,1/2-y,1/2-z
1/2-x,1/2+y,1/2-z
-x,-y,-z
1/2+x,y,-z
-x,1/2+y,1/2+z
1/2+x,1/2-y,1/2+z
loop_
_atom_site_type_symbol
_atom_site_label
_atom_site_fract_x
_atom_site_fract_y
_atom_site_fract_z
Si Si1 0.250000 0.000000 0.826496
Si Si2 0.410226 0.250000 0.250000
Si Si3 0.870265 0.752413 0.620512
Si Si4 0.750000 0.000000 0.529291
O O1 0.419775 0.843197 0.791787
O O2 0.138640 0.793609 0.861597
O O3 0.250000 0.500000 0.240454
O O4 0.750000 0.500000 0.637407
O O5 0.750000 0.000000 0.640087
O O6 0.808514 0.780044 0.566246
O O7 0.500000 0.000000 0.500000
#
# Coordination Sequence:
#
# PCOD9412944 Si02
#       4
#     4   4   8   4
#     4  12  28  52  81 110 166 210 279 334 432 478
#     4  12  30  52  76 118 154 214 278 346 408 510
#     4  10  27  47  78 117 156 209 266 332 408 493
#     4  10  26  52  81 122 168 210 277 338 420 498
#
# _framework density 23.371027999999999
#
# number of rings (size 3 to 8) (size 9 to 14) (size 15 to 20)
#    1.200    0.000    0.000    2.400    5.600   19.200 
#    0.000    0.000    0.000    0.000    0.000    0.000 
#    0.000    0.000    0.000    0.000    0.000    0.000 
#
# Total GULP energy -111359.421606 kJ/mol
# GULP energy per Si atom -5567.971080 kJ/mol
# Density = 2.331783 g / cm^3
# Si number density = 23.371028 Si / 1000 Ang^3
#
#
#
# Elastic Constant Matrix: (Units=GPa)
#
#
# Indices 1 2 3 4 5 6 
#
# 1 147.9517 78.1478 92.5547 0.0000 0.0000 0.0000
# 2 78.1478 209.8681 56.0373 0.0000 0.0000 0.0000
# 3 92.5547 56.0373 146.5612 0.0000 0.0000 0.0000
# 4 0.0000 0.0000 0.0000 29.3510 0.0000 0.0000
# 5 0.0000 0.0000 0.0000 0.0000 28.2527 0.0000
# 6 0.0000 0.0000 0.0000 0.0000 0.0000 56.9602
#
#
#
# Elastic Compliance Matrix: (Units=1/GPa)
#
#
# Indices 1 2 3 4 5 6 
#
# 1 0.012531 -0.002844 -0.006826 0.000000 0.000000 0.000000
# 2 -0.002844 0.005952 -0.000480 0.000000 0.000000 0.000000
# 3 -0.006826 -0.000480 0.011318 0.000000 0.000000 0.000000
# 4 0.000000 0.000000 0.000000 0.034070 0.000000 0.000000
# 5 0.000000 0.000000 0.000000 0.000000 0.035395 0.000000
# 6 0.000000 0.000000 0.000000 0.000000 0.000000 0.017556
#
#
# Mechanical properties :
#
#
# Convention : Reuss Voigt Hill
#
# Bulk Modulus (GPa) = 105.25301 106.42897 105.84099
# Shear Modulus (GPa) = 35.64070 41.42219 38.53144
#
# Velocity S-wave (km/s) = 3.90935 4.21452 4.06480
# Velocity P-wave (km/s) = 8.09388 8.32590 8.21071
#
# Compressibility (1/GPa) = 0.00950092
#
# Stress axis : x y z
#
# Youngs Moduli (GPa) = 79.79984 168.01391 88.35817
#
# Poissons Ratio (x) = 0.47775 0.60317
# Poissons Ratio (y) = 0.22691 0.04241
# Poissons Ratio (z) = 0.54475 0.08064
#
# Static dielectric constant tensor:
#      x y z
#    x 2.193540 0.000000 0.000000 
#    y 0.000000 1.869030 0.000000 
#    z 0.000000 0.000000 1.966880 
# 
# From -- ./inp_files/41310.got.cif
#   From: 2010.05.17/outbox.cif.g08.bks.cpg/sg52_21_cif.got.tgz:41310.got - 2010.06.03 12:15:38.
