data_PCOD9412652
_publ_section_title
;
Structure prediction by ZEFSAII (Michael W. Deem and Ramdas Pophale) SiO2 
 PCOD9412652
Probable space group: P N N A
;
_chemical_formula_sum "Si O2"
_cell_formula_units_Z 48
_cell_length_a 30.024910
_cell_length_b 9.088038
_cell_length_c 8.640185
_cell_angle_alpha 90.000000
_cell_angle_beta 90.000000
_cell_angle_gamma 90.000000
_cell_volume 2357.625879
_symmetry_space_group_name_H-M "P N N A"
_symmetry_group_IT_number 52
_symmetry_cell_setting 'orthorhombic'
loop_
_space_group_symop_operation_xyz
x,y,z
1/2-x,-y,z
x,1/2-y,1/2-z
1/2-x,1/2+y,1/2-z
-x,-y,-z
1/2+x,y,-z
-x,1/2+y,1/2+z
1/2+x,1/2-y,1/2+z
loop_
_atom_site_type_symbol
_atom_site_label
_atom_site_fract_x
_atom_site_fract_y
_atom_site_fract_z
Si Si1 0.322803 0.922086 0.222985
Si Si2 0.696674 0.504431 0.061716
Si Si3 0.144720 0.750000 0.750000
Si Si4 0.077613 0.507542 0.240910
Si Si5 0.715048 0.250000 0.250000
Si Si6 0.750000 0.000000 0.025870
Si Si7 0.993599 0.750000 0.750000
Si Si8 0.428906 0.247061 0.997229
O O1 0.309872 0.750000 0.250000
O O2 0.313766 0.010276 0.381593
O O3 0.375806 0.934640 0.206222
O O4 0.293162 0.993115 0.086403
O O5 0.750000 0.500000 0.071055
O O6 0.674355 0.627707 0.166198
O O7 0.684467 0.348879 0.138899
O O8 0.111346 0.697562 0.614886
O O9 0.038528 0.389805 0.238401
O O10 0.081628 0.595374 0.077692
O O11 0.066597 0.630051 0.367461
O O12 0.743168 0.357202 0.364397
O O13 0.026426 0.750856 0.603098
#
# Coordination Sequence:
#
# PCOD9412652 Si02
#       8
#     8   8   4   8   4   4   4   8
#     4  12  25  46  73 105 142 190 241 292 353 418
#     4  12  25  43  67  98 137 188 238 288 350 407
#     4  11  25  44  68 100 142 182 234 298 347 411
#     4  11  23  44  69 104 140 175 231 287 347 429
#     4  12  27  44  67  98 138 188 244 297 342 407
#     4  12  28  48  70 100 144 194 242 290 352 410
#     4  11  22  44  75  96 138 178 224 285 355 418
#     4  10  24  43  68 104 135 178 227 285 356 424
#
# _framework density 20.359463000000002
#
# number of rings (size 3 to 8) (size 9 to 14) (size 15 to 20)
#    0.000    0.667    5.833    1.500    2.333    0.000 
#    3.000    0.000    0.000    0.000    0.000    0.000 
#    0.000    0.000    0.000    0.000    0.000    0.000 
#
# Total GULP energy -268157.696741 kJ/mol
# GULP energy per Si atom -5586.618682 kJ/mol
# Density = 2.031312 g / cm^3
# Si number density = 20.359463 Si / 1000 Ang^3
#
#
#
# Elastic Constant Matrix: (Units=GPa)
#
#
# Indices 1 2 3 4 5 6 
#
# 1 139.5081 40.2811 57.8070 0.0000 0.0000 0.0000
# 2 40.2811 106.6747 53.9367 0.0000 0.0000 0.0000
# 3 57.8070 53.9367 146.6683 0.0000 0.0000 0.0000
# 4 0.0000 0.0000 0.0000 29.8195 0.0000 0.0000
# 5 0.0000 0.0000 0.0000 0.0000 15.1678 0.0000
# 6 0.0000 0.0000 0.0000 0.0000 0.0000 31.1626
#
#
#
# Elastic Compliance Matrix: (Units=1/GPa)
#
#
# Indices 1 2 3 4 5 6 
#
# 1 0.008884 -0.001946 -0.002786 0.000000 0.000000 0.000000
# 2 -0.001946 0.011942 -0.003624 0.000000 0.000000 0.000000
# 3 -0.002786 -0.003624 0.009249 0.000000 0.000000 0.000000
# 4 0.000000 0.000000 0.000000 0.033535 0.000000 0.000000
# 5 0.000000 0.000000 0.000000 0.000000 0.065929 0.000000
# 6 0.000000 0.000000 0.000000 0.000000 0.000000 0.032090
#
#
# Mechanical properties :
#
#
# Convention : Reuss Voigt Hill
#
# Bulk Modulus (GPa) = 74.83919 77.43340 76.13629
# Shear Modulus (GPa) = 27.35285 31.28507 29.31896
#
# Velocity S-wave (km/s) = 3.66935 3.92425 3.79894
# Velocity P-wave (km/s) = 7.40209 7.65824 7.53125
#
# Compressibility (1/GPa) = 0.01336198
#
# Stress axis : x y z
#
# Youngs Moduli (GPa) = 112.55730 83.73946 108.11939
#
# Poissons Ratio (x) = 0.16297 0.30121
# Poissons Ratio (y) = 0.21906 0.39188
# Poissons Ratio (z) = 0.31358 0.30351
#
# Static dielectric constant tensor:
#      x y z
#    x 1.715980 0.000000 0.000000 
#    y 0.000000 1.772650 0.000000 
#    z 0.000000 0.000000 1.729900 
# 
# From -- ./inp_files/15625.got.cif
#   From: 2010.05.17/outbox.cif.g08.bks.cpg/sg52_8_cif.got.tgz:15625.got - 2010.06.03 12:15:38.
