data_PCOD9412017
_publ_section_title
;
Structure prediction by ZEFSAII (Michael W. Deem and Ramdas Pophale) SiO2 
 PCOD9412017
Probable space group: P N N A
;
_chemical_formula_sum "Si O2"
_cell_formula_units_Z 28
_cell_length_a 9.529547
_cell_length_b 7.326648
_cell_length_c 16.998051
_cell_angle_alpha 90.000000
_cell_angle_beta 90.000000
_cell_angle_gamma 90.000000
_cell_volume 1186.797741
_symmetry_space_group_name_H-M "P N N A"
_symmetry_group_IT_number 52
_symmetry_cell_setting 'orthorhombic'
loop_
_space_group_symop_operation_xyz
x,y,z
1/2-x,-y,z
x,1/2-y,1/2-z
1/2-x,1/2+y,1/2-z
-x,-y,-z
1/2+x,y,-z
-x,1/2+y,1/2+z
1/2+x,1/2-y,1/2+z
loop_
_atom_site_type_symbol
_atom_site_label
_atom_site_fract_x
_atom_site_fract_y
_atom_site_fract_z
Si Si1 0.750000 0.500000 0.759662
Si Si2 0.088418 0.692049 0.354964
Si Si3 0.761741 0.712904 0.338524
Si Si4 0.630348 0.866670 0.493112
O O1 0.878951 0.490694 0.695447
O O2 0.801636 0.337607 0.817014
O O3 0.113594 0.695223 0.448215
O O4 0.928439 0.756963 0.342879
O O5 0.750000 0.500000 0.355046
O O6 0.712862 0.750000 0.250000
O O7 0.671845 0.812068 0.405098
O O8 0.750000 0.000000 0.523370
O O9 0.500000 0.000000 0.500000
#
# Coordination Sequence:
#
# PCOD9412017 Si02
#       4
#     4   8   8   8
#     4  10  22  42  76 104 154 194 252 320 382 464
#     4  11  24  47  72 114 150 201 258 317 396 468
#     4  12  28  50  77 110 157 205 269 324 393 480
#     4  12  26  48  79 111 157 208 260 330 401 471
#
# _framework density 23.5929
#
# number of rings (size 3 to 8) (size 9 to 14) (size 15 to 20)
#    0.000    0.571    7.143    0.857    2.000    3.429 
#    5.143    0.000    0.000    0.000    0.000    0.000 
#    0.000    0.000    0.000    0.000    0.000    0.000 
#
# Total GULP energy -156116.595487 kJ/mol
# GULP energy per Si atom -5575.592696 kJ/mol
# Density = 2.353920 g / cm^3
# Si number density = 23.592900 Si / 1000 Ang^3
#
#
#
# Elastic Constant Matrix: (Units=GPa)
#
#
# Indices 1 2 3 4 5 6 
#
# 1 132.5809 43.3895 68.3071 0.0000 0.0000 0.0000
# 2 43.3895 89.0691 38.1597 0.0000 0.0000 0.0000
# 3 68.3071 38.1597 230.6593 0.0000 0.0000 0.0000
# 4 0.0000 0.0000 0.0000 43.4615 0.0000 0.0000
# 5 0.0000 0.0000 0.0000 0.0000 12.8367 0.0000
# 6 0.0000 0.0000 0.0000 0.0000 0.0000 25.1379
#
#
#
# Elastic Compliance Matrix: (Units=1/GPa)
#
#
# Indices 1 2 3 4 5 6 
#
# 1 0.010009 -0.003881 -0.002322 0.000000 0.000000 0.000000
# 2 -0.003881 0.013589 -0.001099 0.000000 0.000000 0.000000
# 3 -0.002322 -0.001099 0.005205 0.000000 0.000000 0.000000
# 4 0.000000 0.000000 0.000000 0.023009 0.000000 0.000000
# 5 0.000000 0.000000 0.000000 0.000000 0.077902 0.000000
# 6 0.000000 0.000000 0.000000 0.000000 0.000000 0.039781
#
#
# Mechanical properties :
#
#
# Convention : Reuss Voigt Hill
#
# Bulk Modulus (GPa) = 70.42804 83.55798 76.99301
# Shear Modulus (GPa) = 26.47885 36.45075 31.46480
#
# Velocity S-wave (km/s) = 3.35374 3.93490 3.65589
# Velocity P-wave (km/s) = 6.70171 7.49253 7.10813
#
# Compressibility (1/GPa) = 0.01419889
#
# Stress axis : x y z
#
# Youngs Moduli (GPa) = 99.90997 73.59117 192.13034
#
# Poissons Ratio (x) = 0.28561 0.44612
# Poissons Ratio (y) = 0.38775 0.21110
# Poissons Ratio (z) = 0.23199 0.08086
#
# Static dielectric constant tensor:
#      x y z
#    x 1.871340 0.000000 0.000000 
#    y 0.000000 2.001420 0.000000 
#    z 0.000000 0.000000 2.011880 
# 
# From -- ./inp_files/30650.got.cif
#   From: 2010.05.17/outbox.cif.g08.bks.cpg/sg52_16_cif.got.tgz:30650.got - 2010.06.03 12:15:38.
