data_PCOD9412755
_publ_section_title
;
Structure prediction by ZEFSAII (Michael W. Deem and Ramdas Pophale) SiO2 
 PCOD9412755
Probable space group: P N N A
;
_chemical_formula_sum "Si O2"
_cell_formula_units_Z 36
_cell_length_a 21.920985
_cell_length_b 13.327475
_cell_length_c 5.476117
_cell_angle_alpha 90.000000
_cell_angle_beta 90.000000
_cell_angle_gamma 90.000000
_cell_volume 1599.855136
_symmetry_space_group_name_H-M "P N N A"
_symmetry_group_IT_number 52
_symmetry_cell_setting 'orthorhombic'
loop_
_space_group_symop_operation_xyz
x,y,z
1/2-x,-y,z
x,1/2-y,1/2-z
1/2-x,1/2+y,1/2-z
-x,-y,-z
1/2+x,y,-z
-x,1/2+y,1/2+z
1/2+x,1/2-y,1/2+z
loop_
_atom_site_type_symbol
_atom_site_label
_atom_site_fract_x
_atom_site_fract_y
_atom_site_fract_z
Si Si1 0.240041 0.750000 0.750000
Si Si2 0.416630 0.002062 0.145703
Si Si3 0.519754 0.635396 0.243001
Si Si4 0.141020 0.194740 0.989706
Si Si5 0.858076 0.154301 0.572236
O O1 0.286294 0.696181 0.563403
O O2 0.195976 0.828090 0.616078
O O3 0.359200 0.052650 0.276031
O O4 0.464885 0.941213 0.313124
O O5 0.389309 0.913735 0.983236
O O6 0.452121 0.088162 0.993434
O O7 0.496798 0.750000 0.250000
O O8 0.577072 0.644693 0.063962
O O9 0.133146 0.250000 0.250000
O O10 0.114744 0.250000 0.750000
O O11 0.858031 0.250000 0.750000
#
# Coordination Sequence:
#
# PCOD9412755 Si02
#       5
#     4   8   8   8   8
#     4  10  24  46  76 104 154 200 244 318 372 448
#     4  11  25  44  75 106 145 205 246 309 387 448
#     4  11  23  45  68 107 148 195 248 313 378 456
#     4  10  25  50  75 109 152 197 255 313 370 452
#     4  12  22  45  71 106 152 191 256 305 379 454
#
# _framework density 22.502039
#
# number of rings (size 3 to 8) (size 9 to 14) (size 15 to 20)
#    0.667    0.444    3.333    2.000    3.111    0.000 
#    8.000   16.667    0.000    0.000    0.000    0.000 
#    0.000    0.000    0.000    0.000    0.000    0.000 
#
# Total GULP energy -200916.735681 kJ/mol
# GULP energy per Si atom -5581.020436 kJ/mol
# Density = 2.245082 g / cm^3
# Si number density = 22.502039 Si / 1000 Ang^3
#
#
#
# Elastic Constant Matrix: (Units=GPa)
#
#
# Indices 1 2 3 4 5 6 
#
# 1 103.7759 48.1952 31.7444 0.0000 0.0000 0.0000
# 2 48.1952 151.6435 57.7245 0.0000 0.0000 0.0000
# 3 31.7444 57.7245 95.2071 0.0000 0.0000 0.0000
# 4 0.0000 0.0000 0.0000 47.2011 0.0000 0.0000
# 5 0.0000 0.0000 0.0000 0.0000 26.2194 0.0000
# 6 0.0000 0.0000 0.0000 0.0000 0.0000 -8.2102
#
#
#
# Elastic Compliance Matrix: (Units=1/GPa)
#
#
# Indices 1 2 3 4 5 6 
#
# 1 0.011627 -0.002886 -0.002127 0.000000 0.000000 0.000000
# 2 -0.002886 0.009289 -0.004670 0.000000 0.000000 0.000000
# 3 -0.002127 -0.004670 0.014044 0.000000 0.000000 0.000000
# 4 0.000000 0.000000 0.000000 0.021186 0.000000 0.000000
# 5 0.000000 0.000000 0.000000 0.000000 0.038140 0.000000
# 6 0.000000 0.000000 0.000000 0.000000 0.000000 -0.121799
#
#
# Mechanical properties :
#
#
# Convention : Reuss Voigt Hill
#
# Bulk Modulus (GPa) = 64.12385 69.55053 66.83719
# Shear Modulus (GPa) = -1695.06716 27.23956 -833.91380
#
# Velocity S-wave (km/s) = -27.47599 3.48305 -19.27172
# Velocity P-wave (km/s) = 31.27323 6.86667 21.57387
#
# Compressibility (1/GPa) = 0.01559482
#
# Stress axis : x y z
#
# Youngs Moduli (GPa) = 86.00727 107.65247 71.20429
#
# Poissons Ratio (x) = 0.31063 0.15147
# Poissons Ratio (y) = 0.24818 0.33252
# Poissons Ratio (z) = 0.18295 0.50273
#
# Static dielectric constant tensor:
#      x y z
#    x 1.824620 0.000000 0.000000 
#    y 0.000000 1.838520 0.000000 
#    z 0.000000 0.000000 1.959350 
# 
# From -- ./inp_files/4888.got.cif
#   From: 2010.05.17/outbox.cif.g08.bks.cpg/sg52_3_cif.got.tgz:4888.got - 2010.06.03 12:15:38.
