data_PCOD9412867
_publ_section_title
;
Structure prediction by ZEFSAII (Michael W. Deem and Ramdas Pophale) SiO2 
 PCOD9412867
Probable space group: P N N A
;
_chemical_formula_sum "Si O2"
_cell_formula_units_Z 24
_cell_length_a 8.883913
_cell_length_b 5.466099
_cell_length_c 22.264341
_cell_angle_alpha 90.000000
_cell_angle_beta 90.000000
_cell_angle_gamma 90.000000
_cell_volume 1081.164146
_symmetry_space_group_name_H-M "P N N A"
_symmetry_group_IT_number 52
_symmetry_cell_setting 'orthorhombic'
loop_
_space_group_symop_operation_xyz
x,y,z
1/2-x,-y,z
x,1/2-y,1/2-z
1/2-x,1/2+y,1/2-z
-x,-y,-z
1/2+x,y,-z
-x,1/2+y,1/2+z
1/2+x,1/2-y,1/2+z
loop_
_atom_site_type_symbol
_atom_site_label
_atom_site_fract_x
_atom_site_fract_y
_atom_site_fract_z
Si Si1 0.151745 0.251709 0.681012
Si Si2 0.114599 0.677321 0.530271
Si Si3 0.909264 0.061941 0.594196
O O1 0.250000 0.500000 0.675442
O O2 0.096275 0.250000 0.750000
O O3 0.012908 0.239312 0.634426
O O4 0.250000 0.000000 0.673234
O O5 0.250000 0.500000 0.549707
O O6 0.145064 0.835280 0.470430
O O7 0.000000 0.500000 0.500000
O O8 0.025635 0.842100 0.578015
O O9 0.750000 0.000000 0.625436
#
# Coordination Sequence:
#
# PCOD9412867 Si02
#       3
#     8   8   8
#     4  10  25  48  74 103 136 186 244 296 358 425
#     4  11  24  41  64 101 149 187 227 282 357 428
#     4  11  25  42  68 106 139 184 238 291 350 423
#
# _framework density 22.198295000000002
#
# number of rings (size 3 to 8) (size 9 to 14) (size 15 to 20)
#    0.000    1.333    3.333    0.000    9.333    0.000 
#    0.000    6.667    0.000    0.000    0.000    0.000 
#    0.000    0.000    0.000    0.000    0.000    0.000 
#
# Total GULP energy -133766.759847 kJ/mol
# GULP energy per Si atom -5573.614994 kJ/mol
# Density = 2.214777 g / cm^3
# Si number density = 22.198295 Si / 1000 Ang^3
#
#
#
# Elastic Constant Matrix: (Units=GPa)
#
#
# Indices 1 2 3 4 5 6 
#
# 1 143.1259 70.1310 79.6912 0.0000 0.0000 0.0000
# 2 70.1310 142.1309 43.9703 0.0000 0.0000 0.0000
# 3 79.6912 43.9703 118.3075 0.0000 0.0000 0.0000
# 4 0.0000 0.0000 0.0000 28.5861 0.0000 0.0000
# 5 0.0000 0.0000 0.0000 0.0000 -19.4789 0.0000
# 6 0.0000 0.0000 0.0000 0.0000 0.0000 57.8969
#
#
#
# Elastic Compliance Matrix: (Units=1/GPa)
#
#
# Indices 1 2 3 4 5 6 
#
# 1 0.013089 -0.004216 -0.007250 0.000000 0.000000 0.000000
# 2 -0.004216 0.009308 -0.000620 0.000000 0.000000 0.000000
# 3 -0.007250 -0.000620 0.013566 0.000000 0.000000 0.000000
# 4 0.000000 0.000000 0.000000 0.034982 0.000000 0.000000
# 5 0.000000 0.000000 0.000000 0.000000 -0.051338 0.000000
# 6 0.000000 0.000000 0.000000 0.000000 0.000000 0.017272
#
#
# Mechanical properties :
#
#
# Convention : Reuss Voigt Hill
#
# Bulk Modulus (GPa) = 84.79893 87.90546 86.35219
# Shear Modulus (GPa) = 76.94517 27.38561 52.16539
#
# Velocity S-wave (km/s) = 5.89389 3.51619 4.85291
# Velocity P-wave (km/s) = 9.19787 7.49472 8.38963
#
# Compressibility (1/GPa) = 0.01179260
#
# Stress axis : x y z
#
# Youngs Moduli (GPa) = 76.39838 107.43942 73.71131
#
# Poissons Ratio (x) = 0.45293 0.53441
# Poissons Ratio (y) = 0.32207 0.04567
# Poissons Ratio (z) = 0.55389 0.06657
#
# Static dielectric constant tensor:
#      x y z
#    x 1.758370 0.000000 0.000000 
#    y 0.000000 1.795780 0.000000 
#    z 0.000000 0.000000 2.011950 
# 
# From -- ./inp_files/39010.got.cif
#   From: 2010.05.17/outbox.cif.g08.bks.cpg/sg52_20_cif.got.tgz:39010.got - 2010.06.03 12:15:38.
