data_PCOD9412367
_publ_section_title
;
Structure prediction by ZEFSAII (Michael W. Deem and Ramdas Pophale) SiO2 
 PCOD9412367
Probable space group: P N N A
;
_chemical_formula_sum "Si O2"
_cell_formula_units_Z 28
_cell_length_a 7.463108
_cell_length_b 10.446645
_cell_length_c 16.575783
_cell_angle_alpha 90.000000
_cell_angle_beta 90.000000
_cell_angle_gamma 90.000000
_cell_volume 1292.321637
_symmetry_space_group_name_H-M "P N N A"
_symmetry_group_IT_number 52
_symmetry_cell_setting 'orthorhombic'
loop_
_space_group_symop_operation_xyz
x,y,z
1/2-x,-y,z
x,1/2-y,1/2-z
1/2-x,1/2+y,1/2-z
-x,-y,-z
1/2+x,y,-z
-x,1/2+y,1/2+z
1/2+x,1/2-y,1/2+z
loop_
_atom_site_type_symbol
_atom_site_label
_atom_site_fract_x
_atom_site_fract_y
_atom_site_fract_z
Si Si1 0.715812 0.141862 0.418096
Si Si2 0.250000 0.000000 0.176229
Si Si3 0.533188 0.125316 0.697476
Si Si4 0.815337 0.235143 0.582750
O O1 0.787763 0.237894 0.486404
O O2 0.511520 0.177361 0.401026
O O3 0.836030 0.136365 0.338278
O O4 0.750000 0.000000 0.453606
O O5 0.084405 0.015063 0.239476
O O6 0.284972 0.124951 0.121788
O O7 0.570083 0.250000 0.750000
O O8 0.667196 0.141253 0.622039
#
# Coordination Sequence:
#
# PCOD9412367 Si02
#       4
#     8   4   8   8
#     4  12  24  40  71  97 130 175 237 282 335 412
#     4  10  24  46  68  96 150 178 220 294 356 416
#     4  10  23  43  63  97 133 175 223 278 345 409
#     4  11  24  43  69  99 133 180 225 284 348 406
#
# _framework density 21.666432
#
# number of rings (size 3 to 8) (size 9 to 14) (size 15 to 20)
#    0.000    1.143    2.857    2.571    2.000    6.857 
#    0.000    0.000    0.000    0.000    0.000    0.000 
#    0.000    0.000    0.000    0.000    0.000    0.000 
#
# Total GULP energy -156346.267194 kJ/mol
# GULP energy per Si atom -5583.795257 kJ/mol
# Density = 2.161712 g / cm^3
# Si number density = 21.666432 Si / 1000 Ang^3
#
#
#
# Elastic Constant Matrix: (Units=GPa)
#
#
# Indices 1 2 3 4 5 6 
#
# 1 114.1430 0.4623 -5.7614 0.0000 0.0000 0.0000
# 2 0.4623 79.4958 17.3126 0.0000 0.0000 0.0000
# 3 -5.7614 17.3126 69.8911 0.0000 0.0000 0.0000
# 4 0.0000 0.0000 0.0000 -31.5415 0.0000 0.0000
# 5 0.0000 0.0000 0.0000 0.0000 -36.0717 0.0000
# 6 0.0000 0.0000 0.0000 0.0000 0.0000 26.3424
#
#
#
# Elastic Compliance Matrix: (Units=1/GPa)
#
#
# Indices 1 2 3 4 5 6 
#
# 1 0.008801 -0.000221 0.000780 0.000000 0.000000 0.000000
# 2 -0.000221 0.013302 -0.003313 0.000000 0.000000 0.000000
# 3 0.000780 -0.003313 0.015193 0.000000 0.000000 0.000000
# 4 0.000000 0.000000 0.000000 -0.031704 0.000000 0.000000
# 5 0.000000 0.000000 0.000000 0.000000 -0.027723 0.000000
# 6 0.000000 0.000000 0.000000 0.000000 0.000000 0.037962
#
#
# Mechanical properties :
#
#
# Convention : Reuss Voigt Hill
#
# Bulk Modulus (GPa) = 31.45823 31.95076 31.70450
# Shear Modulus (GPa) = 156.56602 8.51360 82.53981
#
# Velocity S-wave (km/s) = 8.50993 1.98442 6.17887
# Velocity P-wave (km/s) = 10.54084 4.47540 8.09749
#
# Compressibility (1/GPa) = 0.03178818
#
# Stress axis : x y z
#
# Youngs Moduli (GPa) = 113.62060 75.17589 65.81975
#
# Poissons Ratio (x) = 0.01662 -0.05136
# Poissons Ratio (y) = 0.02512 0.21808
# Poissons Ratio (z) = -0.08866 0.24908
#
# Static dielectric constant tensor:
#      x y z
#    x 1.808910 0.000000 0.000000 
#    y 0.000000 1.889280 0.000000 
#    z 0.000000 0.000000 1.794260 
# 
# From -- ./inp_files/23978.got.cif
#   From: 2010.05.17/outbox.cif.g08.bks.cpg/sg52_12_cif.got.tgz:23978.got - 2010.06.03 12:15:38.
