data_PCOD9412393
_publ_section_title
;
Structure prediction by ZEFSAII (Michael W. Deem and Ramdas Pophale) SiO2 
 PCOD9412393
Probable space group: P N N A
;
_chemical_formula_sum "Si O2"
_cell_formula_units_Z 56
_cell_length_a 31.886124
_cell_length_b 5.571940
_cell_length_c 13.532017
_cell_angle_alpha 90.000000
_cell_angle_beta 90.000000
_cell_angle_gamma 90.000000
_cell_volume 2404.200574
_symmetry_space_group_name_H-M "P N N A"
_symmetry_group_IT_number 52
_symmetry_cell_setting 'orthorhombic'
loop_
_space_group_symop_operation_xyz
x,y,z
1/2-x,-y,z
x,1/2-y,1/2-z
1/2-x,1/2+y,1/2-z
-x,-y,-z
1/2+x,y,-z
-x,1/2+y,1/2+z
1/2+x,1/2-y,1/2+z
loop_
_atom_site_type_symbol
_atom_site_label
_atom_site_fract_x
_atom_site_fract_y
_atom_site_fract_z
Si Si1 0.651245 0.736967 0.628593
Si Si2 0.947255 0.245874 0.869754
Si Si3 0.790807 0.596207 0.487545
Si Si4 0.509661 0.246691 0.629709
Si Si5 0.210304 0.120548 0.340018
Si Si6 0.587663 0.754505 0.130216
Si Si7 0.867934 0.755981 0.369124
O O1 0.657351 0.750000 0.750000
O O2 0.602182 0.728545 0.608402
O O3 0.677539 0.549778 0.562245
O O4 0.673978 0.983548 0.603136
O O5 0.950789 0.250000 0.750000
O O6 0.966966 0.501433 0.901692
O O7 0.969626 0.998770 0.902159
O O8 0.750000 0.500000 0.430197
O O9 0.766673 0.746863 0.571603
O O10 0.821670 0.725612 0.412539
O O11 0.511121 0.250000 0.750000
O O12 0.460913 0.239543 0.601231
O O13 0.187819 0.250000 0.250000
O O14 0.250000 0.000000 0.286009
O O15 0.588963 0.750000 0.250000
O O16 0.611576 0.510091 0.099269
O O17 0.606788 0.013046 0.100765
O O18 0.867220 0.750000 0.250000
#
# Coordination Sequence:
#
# PCOD9412393 Si02
#       7
#     8   8   8   8   8   8   8
#     4  11  23  39  60  93 132 180 219 269 323 392
#     4   9  19  30  53  89 131 167 213 259 318 386
#     4  12  26  43  65  94 129 174 223 279 343 407
#     4   9  16  31  56  92 125 165 212 265 319 391
#     4  12  23  39  64  92 128 169 228 283 331 400
#     4   9  18  37  67  95 126 164 219 276 335 397
#     4  10  23  43  68  99 128 168 221 281 341 406
#
# _framework density 23.292566000000001
#
# number of rings (size 3 to 8) (size 9 to 14) (size 15 to 20)
#    0.000    1.714    2.857    1.714    4.000    4.000 
#    0.000    2.857    0.000    5.143    0.000    0.000 
#    0.000    0.000    0.000    0.000    0.000    0.000 
#
# Total GULP energy -312253.602537 kJ/mol
# GULP energy per Si atom -5575.957188 kJ/mol
# Density = 2.323955 g / cm^3
# Si number density = 23.292566 Si / 1000 Ang^3
#
#
#
# Elastic Constant Matrix: (Units=GPa)
#
#
# Indices 1 2 3 4 5 6 
#
# 1 200.3630 94.8921 25.9494 0.0000 0.0000 0.0000
# 2 94.8921 173.0440 33.8988 0.0000 0.0000 0.0000
# 3 25.9494 33.8988 78.2729 0.0000 0.0000 0.0000
# 4 0.0000 0.0000 0.0000 13.4443 0.0000 0.0000
# 5 0.0000 0.0000 0.0000 0.0000 -5.3229 0.0000
# 6 0.0000 0.0000 0.0000 0.0000 0.0000 37.4041
#
#
#
# Elastic Compliance Matrix: (Units=1/GPa)
#
#
# Indices 1 2 3 4 5 6 
#
# 1 0.006776 -0.003580 -0.000696 0.000000 0.000000 0.000000
# 2 -0.003580 0.008205 -0.002367 0.000000 0.000000 0.000000
# 3 -0.000696 -0.002367 0.014032 0.000000 0.000000 0.000000
# 4 0.000000 0.000000 0.000000 0.074381 0.000000 0.000000
# 5 0.000000 0.000000 0.000000 0.000000 -0.187867 0.000000
# 6 0.000000 0.000000 0.000000 0.000000 0.000000 0.026735
#
#
# Mechanical properties :
#
#
# Convention : Reuss Voigt Hill
#
# Bulk Modulus (GPa) = 63.58085 84.57341 74.07713
# Shear Modulus (GPa) = -127.52252 28.90107 -49.31073
#
# Velocity S-wave (km/s) = -7.40723 3.52630 -4.60610
# Velocity P-wave (km/s) = 6.76758 7.27789 1.89309
#
# Compressibility (1/GPa) = 0.01572801
#
# Stress axis : x y z
#
# Youngs Moduli (GPa) = 147.57073 121.86963 71.26694
#
# Poissons Ratio (x) = 0.43624 0.04962
# Poissons Ratio (y) = 0.52824 0.16869
# Poissons Ratio (z) = 0.10275 0.28846
#
# Static dielectric constant tensor:
#      x y z
#    x 1.801990 0.000000 0.000000 
#    y 0.000000 2.411580 0.000000 
#    z 0.000000 0.000000 1.901920 
# 
# From -- ./inp_files/29683.got.cif
#   From: 2010.05.17/outbox.cif.g08.bks.cpg/sg52_15_cif.got.tgz:29683.got - 2010.06.03 12:15:38.
