data_PCOD9412816
_publ_section_title
;
Structure prediction by ZEFSAII (Michael W. Deem and Ramdas Pophale) SiO2 
 PCOD9412816
Probable space group: P N N A
;
_chemical_formula_sum "Si O2"
_cell_formula_units_Z 40
_cell_length_a 17.029905
_cell_length_b 20.136178
_cell_length_c 5.107081
_cell_angle_alpha 90.000000
_cell_angle_beta 90.000000
_cell_angle_gamma 90.000000
_cell_volume 1751.305909
_symmetry_space_group_name_H-M "P N N A"
_symmetry_group_IT_number 52
_symmetry_cell_setting 'orthorhombic'
loop_
_space_group_symop_operation_xyz
x,y,z
1/2-x,-y,z
x,1/2-y,1/2-z
1/2-x,1/2+y,1/2-z
-x,-y,-z
1/2+x,y,-z
-x,1/2+y,1/2+z
1/2+x,1/2-y,1/2+z
loop_
_atom_site_type_symbol
_atom_site_label
_atom_site_fract_x
_atom_site_fract_y
_atom_site_fract_z
Si Si1 0.549031 0.292859 0.508280
Si Si2 0.725427 0.318992 0.693950
Si Si3 0.767375 0.900570 0.294509
Si Si4 0.627156 0.992349 0.437115
Si Si5 0.480290 0.938349 0.180595
O O1 0.517236 0.250000 0.750000
O O2 0.642657 0.300882 0.555531
O O3 0.519182 0.368310 0.534427
O O4 0.534539 0.250000 0.250000
O O5 0.769940 0.250000 0.750000
O O6 0.761848 0.367983 0.476082
O O7 0.709022 0.348625 0.981018
O O8 0.699806 0.942385 0.442284
O O9 0.838923 0.951582 0.236559
O O10 0.552757 0.945261 0.382721
O O11 0.599164 0.040367 0.670961
O O12 0.500000 0.000000 0.000000
#
# Coordination Sequence:
#
# PCOD9412816 Si02
#       5
#     8   8   8   8   8
#     4  11  24  42  68 101 138 181 233 285 342 414
#     4  11  22  40  67  96 135 177 226 279 341 416
#     4  11  23  42  67 102 132 174 229 293 342 408
#     4  10  25  40  68  99 136 175 233 290 355 404
#     4  11  24  43  71  99 137 185 231 292 346 424
#
# _framework density 22.840098000000001
#
# number of rings (size 3 to 8) (size 9 to 14) (size 15 to 20)
#    0.000    1.200    2.000    4.200    8.400    1.600 
#    0.000    3.000    0.000    0.000    0.000    0.000 
#    0.000    0.000    0.000    0.000    0.000    0.000 
#
# Total GULP energy -223000.771034 kJ/mol
# GULP energy per Si atom -5575.019276 kJ/mol
# Density = 2.278811 g / cm^3
# Si number density = 22.840098 Si / 1000 Ang^3
#
#
#
# Elastic Constant Matrix: (Units=GPa)
#
#
# Indices 1 2 3 4 5 6 
#
# 1 39.0645 24.0407 15.5147 0.0000 0.0000 0.0000
# 2 24.0407 173.6521 61.2630 0.0000 0.0000 0.0000
# 3 15.5147 61.2630 129.2536 0.0000 0.0000 0.0000
# 4 0.0000 0.0000 0.0000 32.6903 0.0000 0.0000
# 5 0.0000 0.0000 0.0000 0.0000 -48.8569 0.0000
# 6 0.0000 0.0000 0.0000 0.0000 0.0000 21.6888
#
#
#
# Elastic Compliance Matrix: (Units=1/GPa)
#
#
# Indices 1 2 3 4 5 6 
#
# 1 0.028347 -0.003271 -0.001852 0.000000 0.000000 0.000000
# 2 -0.003271 0.007292 -0.003064 0.000000 0.000000 0.000000
# 3 -0.001852 -0.003064 0.009411 0.000000 0.000000 0.000000
# 4 0.000000 0.000000 0.000000 0.030590 0.000000 0.000000
# 5 0.000000 0.000000 0.000000 0.000000 -0.020468 0.000000
# 6 0.000000 0.000000 0.000000 0.000000 0.000000 0.046107
#
#
# Mechanical properties :
#
#
# Convention : Reuss Voigt Hill
#
# Bulk Modulus (GPa) = 34.87134 60.40081 47.63607
# Shear Modulus (GPa) = 39.30419 17.18120 28.24269
#
# Velocity S-wave (km/s) = 4.15280 2.74567 3.52026
# Velocity P-wave (km/s) = 6.18830 6.04600 6.11757
#
# Compressibility (1/GPa) = 0.02867684
#
# Stress axis : x y z
#
# Youngs Moduli (GPa) = 35.27672 137.12983 106.25626
#
# Poissons Ratio (x) = 0.44855 0.19681
# Poissons Ratio (y) = 0.11539 0.32554
# Poissons Ratio (z) = 0.06534 0.42013
#
# Static dielectric constant tensor:
#      x y z
#    x 1.986870 0.000000 0.000000 
#    y 0.000000 1.929060 0.000000 
#    z 0.000000 0.000000 1.973570 
# 
# From -- ./inp_files/3219.got.cif
#   From: 2010.05.17/outbox.cif.g08.bks.cpg/sg52_2_cif.got.tgz:3219.got - 2010.06.03 12:15:38.
