data_PCOD9412781
_publ_section_title
;
Structure prediction by ZEFSAII (Michael W. Deem and Ramdas Pophale) SiO2 
 PCOD9412781
Probable space group: P N N A
;
_chemical_formula_sum "Si O2"
_cell_formula_units_Z 40
_cell_length_a 11.601178
_cell_length_b 22.838311
_cell_length_c 7.224840
_cell_angle_alpha 90.000000
_cell_angle_beta 90.000000
_cell_angle_gamma 90.000000
_cell_volume 1914.230831
_symmetry_space_group_name_H-M "P N N A"
_symmetry_group_IT_number 52
_symmetry_cell_setting 'orthorhombic'
loop_
_space_group_symop_operation_xyz
x,y,z
1/2-x,-y,z
x,1/2-y,1/2-z
1/2-x,1/2+y,1/2-z
-x,-y,-z
1/2+x,y,-z
-x,1/2+y,1/2+z
1/2+x,1/2-y,1/2+z
loop_
_atom_site_type_symbol
_atom_site_label
_atom_site_fract_x
_atom_site_fract_y
_atom_site_fract_z
Si Si1 0.549214 0.943009 0.396665
Si Si2 0.672941 0.250000 0.250000
Si Si3 0.094001 0.087207 0.036576
Si Si4 0.256673 0.799339 0.126279
Si Si5 0.522088 0.653644 0.792161
Si Si6 0.750000 0.500000 0.304638
O O1 0.474342 0.934618 0.213249
O O2 0.541181 0.886797 0.529246
O O3 0.677780 0.956748 0.326709
O O4 0.500000 0.000000 0.500000
O O5 0.749600 0.272650 0.420085
O O6 0.585695 0.301959 0.187222
O O7 0.174474 0.140544 0.103122
O O8 0.166911 0.037190 0.936024
O O9 0.008917 0.112229 0.880846
O O10 0.319326 0.750000 0.250000
O O11 0.137529 0.813114 0.230023
#
# Coordination Sequence:
#
# PCOD9412781 Si02
#       6
#     8   4   8   8   8   4
#     4  12  27  44  71 102 143 184 239 295 353 430
#     4  10  24  48  68 108 142 182 236 286 358 422
#     4  11  26  46  67 103 144 184 236 297 354 424
#     4  11  24  43  76 101 139 187 231 290 354 424
#     4  11  24  47  69 105 142 186 237 292 356 425
#     4  12  26  46  74 104 138 196 234 294 370 426
#
# _framework density 20.89612
#
# number of rings (size 3 to 8) (size 9 to 14) (size 15 to 20)
#    0.000    0.800    3.000    3.000    5.600    4.800 
#    7.200    0.000    0.000    0.000    0.000    0.000 
#    0.000    0.000    0.000    0.000    0.000    0.000 
#
# Total GULP energy -223822.327654 kJ/mol
# GULP energy per Si atom -5595.558191 kJ/mol
# Density = 2.084856 g / cm^3
# Si number density = 20.896120 Si / 1000 Ang^3
#
#
#
# Elastic Constant Matrix: (Units=GPa)
#
#
# Indices 1 2 3 4 5 6 
#
# 1 59.0118 30.9294 50.5494 0.0000 0.0000 0.0000
# 2 30.9294 116.4019 67.1317 0.0000 0.0000 0.0000
# 3 50.5494 67.1317 118.3779 0.0000 0.0000 0.0000
# 4 0.0000 0.0000 0.0000 59.9071 0.0000 0.0000
# 5 0.0000 0.0000 0.0000 0.0000 21.6462 0.0000
# 6 0.0000 0.0000 0.0000 0.0000 0.0000 19.3898
#
#
#
# Elastic Compliance Matrix: (Units=1/GPa)
#
#
# Indices 1 2 3 4 5 6 
#
# 1 0.026766 -0.000773 -0.010991 0.000000 0.000000 0.000000
# 2 -0.000773 0.012789 -0.006922 0.000000 0.000000 0.000000
# 3 -0.010991 -0.006922 0.017066 0.000000 0.000000 0.000000
# 4 0.000000 0.000000 0.000000 0.016693 0.000000 0.000000
# 5 0.000000 0.000000 0.000000 0.000000 0.046197 0.000000
# 6 0.000000 0.000000 0.000000 0.000000 0.000000 0.051574
#
#
# Mechanical properties :
#
#
# Convention : Reuss Voigt Hill
#
# Bulk Modulus (GPa) = 51.95329 65.66806 58.81067
# Shear Modulus (GPa) = 23.26954 29.86737 26.56845
#
# Velocity S-wave (km/s) = 3.34066 3.78474 3.56961
# Velocity P-wave (km/s) = 6.30846 7.11289 6.72272
#
# Compressibility (1/GPa) = 0.01924806
#
# Stress axis : x y z
#
# Youngs Moduli (GPa) = 37.36094 78.19497 58.59473
#
# Poissons Ratio (x) = 0.06047 0.64401
# Poissons Ratio (y) = 0.02889 0.40560
# Poissons Ratio (z) = 0.41063 0.54128
#
# Static dielectric constant tensor:
#      x y z
#    x 2.716460 0.000000 0.000000 
#    y 0.000000 1.768640 0.000000 
#    z 0.000000 0.000000 2.030980 
# 
# From -- ./inp_files/1435.got.cif
#   From: 2010.05.17/outbox.cif.g08.bks.cpg/sg52_1_cif.got.tgz:1435.got - 2010.06.03 12:15:38.
