data_PCOD9412170
_publ_section_title
;
Structure prediction by ZEFSAII (Michael W. Deem and Ramdas Pophale) SiO2 
 PCOD9412170
Probable space group: P N N A
;
_chemical_formula_sum "Si O2"
_cell_formula_units_Z 32
_cell_length_a 9.898846
_cell_length_b 15.237460
_cell_length_c 9.208780
_cell_angle_alpha 90.000000
_cell_angle_beta 90.000000
_cell_angle_gamma 90.000000
_cell_volume 1388.990400
_symmetry_space_group_name_H-M "P N N A"
_symmetry_group_IT_number 52
_symmetry_cell_setting 'orthorhombic'
loop_
_space_group_symop_operation_xyz
x,y,z
1/2-x,-y,z
x,1/2-y,1/2-z
1/2-x,1/2+y,1/2-z
-x,-y,-z
1/2+x,y,-z
-x,1/2+y,1/2+z
1/2+x,1/2-y,1/2+z
loop_
_atom_site_type_symbol
_atom_site_label
_atom_site_fract_x
_atom_site_fract_y
_atom_site_fract_z
Si Si1 0.607963 0.521100 0.165288
Si Si2 0.633410 0.938926 0.011770
Si Si3 0.248216 0.747232 0.412627
Si Si4 0.021278 0.354254 0.941268
O O1 0.750000 0.500000 0.084028
O O2 0.645452 0.568901 0.313481
O O3 0.552448 0.422687 0.187489
O O4 0.503050 0.581045 0.078879
O O5 0.673672 0.844031 0.950601
O O6 0.750000 0.000000 0.949273
O O7 0.500000 0.000000 0.000000
O O8 0.308345 0.750000 0.250000
O O9 0.363335 0.783052 0.522822
O O10 0.123062 0.813153 0.413853
#
# Coordination Sequence:
#
# PCOD9412170 Si02
#       4
#     8   8   8   8
#     4  10  22  45  70  99 137 189 229 284 363 422
#     4  11  25  45  68 101 141 188 231 289 359 427
#     4  12  27  44  71 109 139 186 240 298 356 427
#     4  11  24  45  71 102 141 181 241 295 352 430
#
# _framework density 23.038314
#
# number of rings (size 3 to 8) (size 9 to 14) (size 15 to 20)
#    0.000    1.000    2.500    3.000    7.000    2.000 
#    0.000    0.000    0.000    0.000    0.000    0.000 
#    0.000    0.000    0.000    0.000    0.000    0.000 
#
# Total GULP energy -178437.121375 kJ/mol
# GULP energy per Si atom -5576.160043 kJ/mol
# Density = 2.298588 g / cm^3
# Si number density = 23.038314 Si / 1000 Ang^3
#
#
#
# Elastic Constant Matrix: (Units=GPa)
#
#
# Indices 1 2 3 4 5 6 
#
# 1 104.8124 12.3012 -21.4191 0.0000 0.0000 0.0000
# 2 12.3012 92.6908 17.7118 0.0000 0.0000 0.0000
# 3 -21.4191 17.7118 59.2927 0.0000 0.0000 0.0000
# 4 0.0000 0.0000 0.0000 29.9495 0.0000 0.0000
# 5 0.0000 0.0000 0.0000 0.0000 21.3981 0.0000
# 6 0.0000 0.0000 0.0000 0.0000 0.0000 46.6663
#
#
#
# Elastic Compliance Matrix: (Units=1/GPa)
#
#
# Indices 1 2 3 4 5 6 
#
# 1 0.010744 -0.002299 0.004568 0.000000 0.000000 0.000000
# 2 -0.002299 0.011933 -0.004395 0.000000 0.000000 0.000000
# 3 0.004568 -0.004395 0.019829 0.000000 0.000000 0.000000
# 4 0.000000 0.000000 0.000000 0.033390 0.000000 0.000000
# 5 0.000000 0.000000 0.000000 0.000000 0.046733 0.000000
# 6 0.000000 0.000000 0.000000 0.000000 0.000000 0.021429
#
#
# Mechanical properties :
#
#
# Convention : Reuss Voigt Hill
#
# Bulk Modulus (GPa) = 26.14092 30.44263 28.29178
# Shear Modulus (GPa) = 31.04418 36.14959 33.59688
#
# Velocity S-wave (km/s) = 3.67482 3.96549 3.82292
# Velocity P-wave (km/s) = 5.42006 5.84888 5.63855
#
# Compressibility (1/GPa) = 0.03825420
#
# Stress axis : x y z
#
# Youngs Moduli (GPa) = 93.07409 83.79786 50.43240
#
# Poissons Ratio (x) = 0.19263 -0.23037
# Poissons Ratio (y) = 0.21395 0.22166
# Poissons Ratio (z) = -0.42516 0.36830
#
# Static dielectric constant tensor:
#      x y z
#    x 1.896990 0.000000 0.000000 
#    y 0.000000 1.915210 0.000000 
#    z 0.000000 0.000000 1.976600 
# 
# From -- ./inp_files/8344.got.cif
#   From: 2010.05.17/outbox.cif.g08.bks.cpg/sg52_5_cif.got.tgz:8344.got - 2010.06.03 12:15:38.
