data_PCOD9412223
_publ_section_title
;
Structure prediction by ZEFSAII (Michael W. Deem and Ramdas Pophale) SiO2 
 PCOD9412223
Probable space group: P N N A
;
_chemical_formula_sum "Si O2"
_cell_formula_units_Z 28
_cell_length_a 21.025418
_cell_length_b 7.548782
_cell_length_c 7.647842
_cell_angle_alpha 90.000000
_cell_angle_beta 90.000000
_cell_angle_gamma 90.000000
_cell_volume 1213.837162
_symmetry_space_group_name_H-M "P N N A"
_symmetry_group_IT_number 52
_symmetry_cell_setting 'orthorhombic'
loop_
_space_group_symop_operation_xyz
x,y,z
1/2-x,-y,z
x,1/2-y,1/2-z
1/2-x,1/2+y,1/2-z
-x,-y,-z
1/2+x,y,-z
-x,1/2+y,1/2+z
1/2+x,1/2-y,1/2+z
loop_
_atom_site_type_symbol
_atom_site_label
_atom_site_fract_x
_atom_site_fract_y
_atom_site_fract_z
Si Si1 0.618913 0.442770 0.086360
Si Si2 0.570271 0.071924 0.023775
Si Si3 0.169612 0.704796 0.435226
Si Si4 0.237568 0.250000 0.750000
O O1 0.582651 0.280584 0.993333
O O2 0.585162 0.465402 0.272321
O O3 0.689454 0.376644 0.143066
O O4 0.626633 0.625506 0.986621
O O5 0.500000 0.000000 0.000000
O O6 0.623152 0.961912 0.919078
O O7 0.201770 0.750000 0.250000
O O8 0.217160 0.676737 0.596848
#
# Coordination Sequence:
#
# PCOD9412223 Si02
#       4
#     8   8   8   4
#     4  10  24  47  74  98 145 198 226 303 371 414
#     4  10  23  44  72 101 136 189 242 286 355 430
#     4  12  25  44  72 107 140 187 235 296 361 428
#     4  10  22  50  72 100 146 180 236 298 362 420
#
# _framework density 23.067347000000002
#
# number of rings (size 3 to 8) (size 9 to 14) (size 15 to 20)
#    0.000    1.714    2.857    0.857    8.000    2.286 
#   25.714    0.000    0.000    0.000    0.000    0.000 
#    0.000    0.000    0.000    0.000    0.000    0.000 
#
# Total GULP energy -156606.171052 kJ/mol
# GULP energy per Si atom -5593.077538 kJ/mol
# Density = 2.301484 g / cm^3
# Si number density = 23.067347 Si / 1000 Ang^3
#
#
#
# Elastic Constant Matrix: (Units=GPa)
#
#
# Indices 1 2 3 4 5 6 
#
# 1 128.5794 9.4299 7.9858 0.0000 0.0000 0.0000
# 2 9.4299 101.7937 1.6474 0.0000 0.0000 0.0000
# 3 7.9858 1.6474 53.5672 0.0000 0.0000 0.0000
# 4 0.0000 0.0000 0.0000 12.9412 0.0000 0.0000
# 5 0.0000 0.0000 0.0000 0.0000 8.4682 0.0000
# 6 0.0000 0.0000 0.0000 0.0000 0.0000 25.8862
#
#
#
# Elastic Compliance Matrix: (Units=1/GPa)
#
#
# Indices 1 2 3 4 5 6 
#
# 1 0.007901 -0.000713 -0.001156 0.000000 0.000000 0.000000
# 2 -0.000713 0.009893 -0.000198 0.000000 0.000000 0.000000
# 3 -0.001156 -0.000198 0.018847 0.000000 0.000000 0.000000
# 4 0.000000 0.000000 0.000000 0.077273 0.000000 0.000000
# 5 0.000000 0.000000 0.000000 0.000000 0.118089 0.000000
# 6 0.000000 0.000000 0.000000 0.000000 0.000000 0.038631
#
#
# Mechanical properties :
#
#
# Convention : Reuss Voigt Hill
#
# Bulk Modulus (GPa) = 30.76290 35.78516 33.27403
# Shear Modulus (GPa) = 17.50680 27.11759 22.31219
#
# Velocity S-wave (km/s) = 2.75788 3.43240 3.11346
# Velocity P-wave (km/s) = 4.84833 5.59066 5.23267
#
# Compressibility (1/GPa) = 0.03250669
#
# Stress axis : x y z
#
# Youngs Moduli (GPa) = 126.55980 101.08085 53.06005
#
# Poissons Ratio (x) = 0.07210 0.06134
# Poissons Ratio (y) = 0.09027 0.01050
# Poissons Ratio (z) = 0.14630 0.02001
#
# Static dielectric constant tensor:
#      x y z
#    x 1.828440 0.000000 0.000000 
#    y 0.000000 1.870740 0.000000 
#    z 0.000000 0.000000 1.875420 
# 
# From -- ./inp_files/11330.got.cif
#   From: 2010.05.17/outbox.cif.g08.bks.cpg/sg52_6_cif.got.tgz:11330.got - 2010.06.03 12:15:38.
