data_PCOD9412294
_publ_section_title
;
Structure prediction by ZEFSAII (Michael W. Deem and Ramdas Pophale) SiO2 
 PCOD9412294
Probable space group: P N N A
;
_chemical_formula_sum "Si O2"
_cell_formula_units_Z 32
_cell_length_a 11.477164
_cell_length_b 9.926545
_cell_length_c 11.380462
_cell_angle_alpha 90.000000
_cell_angle_beta 90.000000
_cell_angle_gamma 90.000000
_cell_volume 1296.559931
_symmetry_space_group_name_H-M "P N N A"
_symmetry_group_IT_number 52
_symmetry_cell_setting 'orthorhombic'
loop_
_space_group_symop_operation_xyz
x,y,z
1/2-x,-y,z
x,1/2-y,1/2-z
1/2-x,1/2+y,1/2-z
-x,-y,-z
1/2+x,y,-z
-x,1/2+y,1/2+z
1/2+x,1/2-y,1/2+z
loop_
_atom_site_type_symbol
_atom_site_label
_atom_site_fract_x
_atom_site_fract_y
_atom_site_fract_z
Si Si1 0.824859 0.370407 0.802105
Si Si2 0.977876 0.341333 0.009934
Si Si3 0.963627 0.585575 0.386348
Si Si4 0.673135 0.610533 0.216918
O O1 0.750000 0.500000 0.809485
O O2 0.749788 0.250000 0.750000
O O3 0.864716 0.322951 0.929026
O O4 0.935712 0.393035 0.714136
O O5 0.062509 0.232294 0.947522
O O6 0.935401 0.329466 0.142720
O O7 0.000000 0.500000 0.000000
O O8 0.871869 0.488981 0.320191
O O9 0.000000 0.500000 0.500000
O O10 0.750000 0.500000 0.145773
O O11 0.738404 0.750000 0.250000
#
# Coordination Sequence:
#
# PCOD9412294 Si02
#       4
#     8   8   8   8
#     4  10  23  41  65  97 129 169 224 279 335 406
#     4  11  23  43  71  95 132 181 232 284 349 414
#     4  11  24  45  67  97 137 181 229 280 345 419
#     4  12  27  45  69 104 142 183 232 294 358 422
#
# _framework density 24.680695
#
# number of rings (size 3 to 8) (size 9 to 14) (size 15 to 20)
#    0.000    1.000    5.000    0.750    3.500    4.000 
#    0.000    0.000    0.000    0.000    0.000    0.000 
#    0.000    0.000    0.000    0.000    0.000    0.000 
#
# Total GULP energy -178221.147058 kJ/mol
# GULP energy per Si atom -5569.410846 kJ/mol
# Density = 2.462452 g / cm^3
# Si number density = 24.680695 Si / 1000 Ang^3
#
#
#
# Elastic Constant Matrix: (Units=GPa)
#
#
# Indices 1 2 3 4 5 6 
#
# 1 38.8436 15.9421 23.8878 0.0000 0.0000 0.0000
# 2 15.9421 195.9964 31.4257 0.0000 0.0000 0.0000
# 3 23.8878 31.4257 127.6618 0.0000 0.0000 0.0000
# 4 0.0000 0.0000 0.0000 53.5498 0.0000 0.0000
# 5 0.0000 0.0000 0.0000 0.0000 24.6851 0.0000
# 6 0.0000 0.0000 0.0000 0.0000 0.0000 40.2641
#
#
#
# Elastic Compliance Matrix: (Units=1/GPa)
#
#
# Indices 1 2 3 4 5 6 
#
# 1 0.029554 -0.001580 -0.005141 0.000000 0.000000 0.000000
# 2 -0.001580 0.005396 -0.001033 0.000000 0.000000 0.000000
# 3 -0.005141 -0.001033 0.009049 0.000000 0.000000 0.000000
# 4 0.000000 0.000000 0.000000 0.018674 0.000000 0.000000
# 5 0.000000 0.000000 0.000000 0.000000 0.040510 0.000000
# 6 0.000000 0.000000 0.000000 0.000000 0.000000 0.024836
#
#
# Mechanical properties :
#
#
# Convention : Reuss Voigt Hill
#
# Bulk Modulus (GPa) = 35.09674 56.11254 45.60464
# Shear Modulus (GPa) = 32.67431 43.11622 37.89526
#
# Velocity S-wave (km/s) = 3.64247 4.18420 3.92270
# Velocity P-wave (km/s) = 5.65166 6.79177 6.24778
#
# Compressibility (1/GPa) = 0.02849268
#
# Stress axis : x y z
#
# Youngs Moduli (GPa) = 33.83599 185.31531 110.50376
#
# Poissons Ratio (x) = 0.29272 0.56814
# Poissons Ratio (y) = 0.05345 0.11413
# Poissons Ratio (z) = 0.17396 0.19139
#
# Static dielectric constant tensor:
#      x y z
#    x 2.066230 0.000000 0.000000 
#    y 0.000000 2.064860 0.000000 
#    z 0.000000 0.000000 2.891200 
# 
# From -- ./inp_files/18839.got.cif
#   From: 2010.05.17/outbox.cif.g08.bks.cpg/sg52_10_cif.got.tgz:18839.got - 2010.06.03 12:15:38.
