data_PCOD9412784
_publ_section_title
;
Structure prediction by ZEFSAII (Michael W. Deem and Ramdas Pophale) SiO2 
 PCOD9412784
Probable space group: P N N A
;
_chemical_formula_sum "Si O2"
_cell_formula_units_Z 40
_cell_length_a 19.230203
_cell_length_b 8.592272
_cell_length_c 11.187418
_cell_angle_alpha 90.000000
_cell_angle_beta 90.000000
_cell_angle_gamma 90.000000
_cell_volume 1848.509772
_symmetry_space_group_name_H-M "P N N A"
_symmetry_group_IT_number 52
_symmetry_cell_setting 'orthorhombic'
loop_
_space_group_symop_operation_xyz
x,y,z
1/2-x,-y,z
x,1/2-y,1/2-z
1/2-x,1/2+y,1/2-z
-x,-y,-z
1/2+x,y,-z
-x,1/2+y,1/2+z
1/2+x,1/2-y,1/2+z
loop_
_atom_site_type_symbol
_atom_site_label
_atom_site_fract_x
_atom_site_fract_y
_atom_site_fract_z
Si Si1 0.632436 0.112024 0.311251
Si Si2 0.917755 0.360582 0.362953
Si Si3 0.206888 0.659219 0.453188
Si Si4 0.388399 0.250000 0.250000
Si Si5 0.501574 0.673297 0.948212
Si Si6 0.250000 0.000000 0.522564
O O1 0.676010 0.250000 0.250000
O O2 0.574682 0.189476 0.394867
O O3 0.682574 0.010100 0.392260
O O4 0.591066 0.021369 0.207779
O O5 0.925374 0.250000 0.250000
O O6 0.847271 0.338424 0.437369
O O7 0.977302 0.307057 0.456705
O O8 0.250000 0.500000 0.465329
O O9 0.162009 0.646280 0.331439
O O10 0.244027 0.831542 0.454868
O O11 0.439789 0.328513 0.154676
O O12 0.500000 0.500000 0.000000
#
# Coordination Sequence:
#
# PCOD9412784 Si02
#       6
#     8   8   8   4   8   4
#     4  12  25  42  71 106 140 189 239 294 365 436
#     4  11  22  42  69  99 142 179 230 309 355 408
#     4  11  25  45  72 102 143 196 241 296 368 435
#     4  10  24  48  70 100 156 184 238 316 348 440
#     4  11  22  45  71 102 140 187 238 298 368 422
#     4  12  26  44  72 106 146 186 248 296 360 442
#
# _framework density 21.639053000000001
#
# number of rings (size 3 to 8) (size 9 to 14) (size 15 to 20)
#    0.000    0.800    5.000    2.400    5.600    0.800 
#    3.600    0.000    0.000    0.000    0.000    0.000 
#    0.000    0.000    0.000    0.000    0.000    0.000 
#
# Total GULP energy -223029.327813 kJ/mol
# GULP energy per Si atom -5575.733195 kJ/mol
# Density = 2.158980 g / cm^3
# Si number density = 21.639053 Si / 1000 Ang^3
#
#
#
# Elastic Constant Matrix: (Units=GPa)
#
#
# Indices 1 2 3 4 5 6 
#
# 1 96.6842 58.6857 50.9482 0.0000 0.0000 0.0000
# 2 58.6857 91.6912 37.3678 0.0000 0.0000 0.0000
# 3 50.9482 37.3678 124.2085 0.0000 0.0000 0.0000
# 4 0.0000 0.0000 0.0000 38.1030 0.0000 0.0000
# 5 0.0000 0.0000 0.0000 0.0000 17.2468 0.0000
# 6 0.0000 0.0000 0.0000 0.0000 0.0000 30.1981
#
#
#
# Elastic Compliance Matrix: (Units=1/GPa)
#
#
# Indices 1 2 3 4 5 6 
#
# 1 0.019077 -0.010282 -0.004732 0.000000 0.000000 0.000000
# 2 -0.010282 0.017972 -0.001189 0.000000 0.000000 0.000000
# 3 -0.004732 -0.001189 0.010350 0.000000 0.000000 0.000000
# 4 0.000000 0.000000 0.000000 0.026245 0.000000 0.000000
# 5 0.000000 0.000000 0.000000 0.000000 0.057982 0.000000
# 6 0.000000 0.000000 0.000000 0.000000 0.000000 0.033115
#
#
# Mechanical properties :
#
#
# Convention : Reuss Voigt Hill
#
# Bulk Modulus (GPa) = 66.69944 67.39860 67.04902
# Shear Modulus (GPa) = 24.73494 28.14839 26.44166
#
# Velocity S-wave (km/s) = 3.38460 3.61059 3.49942
# Velocity P-wave (km/s) = 6.79445 6.97110 6.88334
#
# Compressibility (1/GPa) = 0.01499263
#
# Stress axis : x y z
#
# Youngs Moduli (GPa) = 52.41837 55.64362 96.62076
#
# Poissons Ratio (x) = 0.57211 0.45720
# Poissons Ratio (y) = 0.53895 0.11491
# Poissons Ratio (z) = 0.24804 0.06618
#
# Static dielectric constant tensor:
#      x y z
#    x 1.771780 0.000000 0.000000 
#    y 0.000000 1.816830 0.000000 
#    z 0.000000 0.000000 1.807460 
# 
# From -- ./inp_files/21481.got.cif
#   From: 2010.05.17/outbox.cif.g08.bks.cpg/sg52_11_cif.got.tgz:21481.got - 2010.06.03 12:15:38.
