data_PCOD9412998
_publ_section_title
;
Structure prediction by ZEFSAII (Michael W. Deem and Ramdas Pophale) SiO2 
 PCOD9412998
Probable space group: P N N A
;
_chemical_formula_sum "Si O2"
_cell_formula_units_Z 48
_cell_length_a 28.914483
_cell_length_b 10.351602
_cell_length_c 8.816702
_cell_angle_alpha 90.000000
_cell_angle_beta 90.000000
_cell_angle_gamma 90.000000
_cell_volume 2638.937832
_symmetry_space_group_name_H-M "P N N A"
_symmetry_group_IT_number 52
_symmetry_cell_setting 'orthorhombic'
loop_
_space_group_symop_operation_xyz
x,y,z
1/2-x,-y,z
x,1/2-y,1/2-z
1/2-x,1/2+y,1/2-z
-x,-y,-z
1/2+x,y,-z
-x,1/2+y,1/2+z
1/2+x,1/2-y,1/2+z
loop_
_atom_site_type_symbol
_atom_site_label
_atom_site_fract_x
_atom_site_fract_y
_atom_site_fract_z
Si Si1 0.795602 0.258283 0.068185
Si Si2 0.933363 0.156344 0.622071
Si Si3 0.146950 0.520888 0.430739
Si Si4 0.959989 0.080128 0.924799
Si Si5 0.687314 0.261523 0.430915
Si Si6 0.653098 0.503030 0.930686
O O1 0.800694 0.250000 0.250000
O O2 0.741800 0.239236 0.029698
O O3 0.811588 0.397294 0.007504
O O4 0.827375 0.148000 0.993219
O O5 0.907061 0.250000 0.750000
O O6 0.965254 0.079962 0.740604
O O7 0.959547 0.267257 0.530423
O O8 0.897717 0.065063 0.538873
O O9 0.091698 0.529547 0.456553
O O10 0.166181 0.395567 0.514430
O O11 0.156643 0.505633 0.251500
O O12 0.000000 0.000000 0.000000
O O13 0.683484 0.250000 0.250000
O O14 0.662180 0.139311 0.507350
#
# Coordination Sequence:
#
# PCOD9412998 Si02
#       6
#     8   8   8   8   8   8
#     4  11  22  38  59  79 120 161 196 243 297 358
#     4   7  15  31  55  88 111 145 188 237 286 352
#     4  11  21  37  59  88 114 151 202 250 286 356
#     4   8  15  32  58  85 113 144 183 234 303 337
#     4  11  25  38  51  86 122 158 197 244 302 348
#     4  11  19  37  60  83 116 155 198 244 293 344
#
# _framework density 18.189136999999999
#
# number of rings (size 3 to 8) (size 9 to 14) (size 15 to 20)
#    1.000    1.000    1.667    3.000    0.000    6.667 
#    3.000    0.000    0.000    5.000    0.000    0.000 
#    0.000    0.000    0.000    0.000    0.000    0.000 
#
# Total GULP energy -267345.887945 kJ/mol
# GULP energy per Si atom -5569.705999 kJ/mol
# Density = 1.814774 g / cm^3
# Si number density = 18.189137 Si / 1000 Ang^3
#
#
#
# Elastic Constant Matrix: (Units=GPa)
#
#
# Indices 1 2 3 4 5 6 
#
# 1 69.4303 10.4689 26.1751 0.0000 0.0000 0.0000
# 2 10.4689 52.9982 1.9266 0.0000 0.0000 0.0000
# 3 26.1751 1.9266 38.1415 0.0000 0.0000 0.0000
# 4 0.0000 0.0000 0.0000 29.4016 0.0000 0.0000
# 5 0.0000 0.0000 0.0000 0.0000 7.3786 0.0000
# 6 0.0000 0.0000 0.0000 0.0000 0.0000 16.1986
#
#
#
# Elastic Compliance Matrix: (Units=1/GPa)
#
#
# Indices 1 2 3 4 5 6 
#
# 1 0.020046 -0.003466 -0.013582 0.000000 0.000000 0.000000
# 2 -0.003466 0.019503 0.001393 0.000000 0.000000 0.000000
# 3 -0.013582 0.001393 0.035468 0.000000 0.000000 0.000000
# 4 0.000000 0.000000 0.000000 0.034012 0.000000 0.000000
# 5 0.000000 0.000000 0.000000 0.000000 0.135527 0.000000
# 6 0.000000 0.000000 0.000000 0.000000 0.000000 0.061734
#
#
# Mechanical properties :
#
#
# Convention : Reuss Voigt Hill
#
# Bulk Modulus (GPa) = 22.87889 26.41236 24.64562
# Shear Modulus (GPa) = 14.19781 18.72905 16.46343
#
# Velocity S-wave (km/s) = 2.79689 3.21235 3.01179
# Velocity P-wave (km/s) = 4.79956 5.32084 5.06691
#
# Compressibility (1/GPa) = 0.04370841
#
# Stress axis : x y z
#
# Youngs Moduli (GPa) = 49.88577 51.27530 28.19413
#
# Poissons Ratio (x) = 0.17772 0.38292
# Poissons Ratio (y) = 0.17290 -0.03929
# Poissons Ratio (z) = 0.67753 -0.07145
#
# Static dielectric constant tensor:
#      x y z
#    x 1.631040 0.000000 0.000000 
#    y 0.000000 1.640340 0.000000 
#    z 0.000000 0.000000 1.646430 
# 
# From -- ./inp_files/15472.got.cif
#   From: 2010.05.17/outbox.cif.g08.bks.cpg/sg52_8_cif.got.tgz:15472.got - 2010.06.03 12:15:38.
