data_PCOD9412494
_publ_section_title
;
Structure prediction by ZEFSAII (Michael W. Deem and Ramdas Pophale) SiO2 
 PCOD9412494
Probable space group: P N N A
;
_chemical_formula_sum "Si O2"
_cell_formula_units_Z 56
_cell_length_a 25.217445
_cell_length_b 6.885896
_cell_length_c 15.886150
_cell_angle_alpha 90.000000
_cell_angle_beta 90.000000
_cell_angle_gamma 90.000000
_cell_volume 2758.545809
_symmetry_space_group_name_H-M "P N N A"
_symmetry_group_IT_number 52
_symmetry_cell_setting 'orthorhombic'
loop_
_space_group_symop_operation_xyz
x,y,z
1/2-x,-y,z
x,1/2-y,1/2-z
1/2-x,1/2+y,1/2-z
-x,-y,-z
1/2+x,y,-z
-x,1/2+y,1/2+z
1/2+x,1/2-y,1/2+z
loop_
_atom_site_type_symbol
_atom_site_label
_atom_site_fract_x
_atom_site_fract_y
_atom_site_fract_z
Si Si1 0.196149 0.573541 0.797994
Si Si2 0.750000 0.500000 0.593657
Si Si3 0.617637 0.250000 0.250000
Si Si4 0.858289 0.649582 0.660603
Si Si5 0.902129 0.956303 0.525990
Si Si6 0.934374 0.133776 0.927226
Si Si7 0.443505 0.881264 0.911774
Si Si8 0.292252 0.345499 0.984818
O O1 0.250000 0.500000 0.753463
O O2 0.169444 0.750000 0.750000
O O3 0.155721 0.396678 0.800977
O O4 0.216304 0.664264 0.885352
O O5 0.796128 0.603387 0.646984
O O6 0.718557 0.649285 0.533841
O O7 0.584041 0.135203 0.179208
O O8 0.867057 0.750000 0.750000
O O9 0.892548 0.456288 0.638801
O O10 0.879584 0.803983 0.592958
O O11 0.934136 0.133562 0.566750
O O12 0.850524 0.067492 0.491966
O O13 0.933181 0.826625 0.457909
O O14 0.994166 0.074462 0.903516
O O15 0.922442 0.040279 0.020105
O O16 0.250000 0.500000 0.019661
#
# Coordination Sequence:
#
# PCOD9412494 Si02
#       8
#     8   4   4   8   8   8   8   8
#     4  11  25  38  58  93 133 168 207 257 316 378
#     4  12  24  42  66  92 130 170 212 276 322 394
#     4  12  24  40  62  96 132 166 210 272 306 376
#     4  11  26  42  66  99 128 165 220 272 336 397
#     4  11  21  42  67  93 128 169 216 263 325 390
#     4  10  23  46  68  93 128 174 214 275 324 389
#     4  10  24  42  67  97 129 170 223 261 326 387
#     4  11  23  39  64  95 125 173 216 255 322 391
#
# _framework density 20.300550999999999
#
# number of rings (size 3 to 8) (size 9 to 14) (size 15 to 20)
#    0.000    1.143    5.000    0.429    3.000    2.857 
#    0.000    0.714    0.000    0.000    0.000    0.000 
#    0.000    0.000    0.000    0.000    0.000    0.000 
#
# Total GULP energy -312450.177341 kJ/mol
# GULP energy per Si atom -5579.467453 kJ/mol
# Density = 2.025435 g / cm^3
# Si number density = 20.300551 Si / 1000 Ang^3
#
#
#
# Elastic Constant Matrix: (Units=GPa)
#
#
# Indices 1 2 3 4 5 6 
#
# 1 87.0187 5.4499 31.1962 0.0000 0.0000 0.0000
# 2 5.4499 66.0728 9.0906 0.0000 0.0000 0.0000
# 3 31.1962 9.0906 71.8312 0.0000 0.0000 0.0000
# 4 0.0000 0.0000 0.0000 21.9510 0.0000 0.0000
# 5 0.0000 0.0000 0.0000 0.0000 -4.5846 0.0000
# 6 0.0000 0.0000 0.0000 0.0000 0.0000 32.9379
#
#
#
# Elastic Compliance Matrix: (Units=1/GPa)
#
#
# Indices 1 2 3 4 5 6 
#
# 1 0.013617 -0.000315 -0.005874 0.000000 0.000000 0.000000
# 2 -0.000315 0.015410 -0.001813 0.000000 0.000000 0.000000
# 3 -0.005874 -0.001813 0.016702 0.000000 0.000000 0.000000
# 4 0.000000 0.000000 0.000000 0.045556 0.000000 0.000000
# 5 0.000000 0.000000 0.000000 0.000000 -0.218120 0.000000
# 6 0.000000 0.000000 0.000000 0.000000 0.000000 0.030360
#
#
# Mechanical properties :
#
#
# Convention : Reuss Voigt Hill
#
# Bulk Modulus (GPa) = 33.64212 35.15513 34.39862
# Shear Modulus (GPa) = -70.86132 22.00657 -24.42737
#
# Velocity S-wave (km/s) = -5.91455 3.29605 -3.47260
# Velocity P-wave (km/s) = 5.48038 5.64271 0.95017
#
# Compressibility (1/GPa) = 0.02972464
#
# Stress axis : x y z
#
# Youngs Moduli (GPa) = 73.43542 64.89163 59.87246
#
# Poissons Ratio (x) = 0.02044 0.35170
# Poissons Ratio (y) = 0.02313 0.10858
# Poissons Ratio (z) = 0.43137 0.11768
#
# Static dielectric constant tensor:
#      x y z
#    x 1.750370 0.000000 0.000000 
#    y 0.000000 1.324150 0.000000 
#    z 0.000000 0.000000 1.745580 
# 
# From -- ./inp_files/29701.got.cif
#   From: 2010.05.17/outbox.cif.g08.bks.cpg/sg52_15_cif.got.tgz:29701.got - 2010.06.03 12:15:38.
