data_PCOD9412007
_publ_section_title
;
Structure prediction by ZEFSAII (Michael W. Deem and Ramdas Pophale) SiO2 
 PCOD9412007
Probable space group: P N N A
;
_chemical_formula_sum "Si O2"
_cell_formula_units_Z 40
_cell_length_a 17.827420
_cell_length_b 17.016851
_cell_length_c 5.736204
_cell_angle_alpha 90.000000
_cell_angle_beta 90.000000
_cell_angle_gamma 90.000000
_cell_volume 1740.172417
_symmetry_space_group_name_H-M "P N N A"
_symmetry_group_IT_number 52
_symmetry_cell_setting 'orthorhombic'
loop_
_space_group_symop_operation_xyz
x,y,z
1/2-x,-y,z
x,1/2-y,1/2-z
1/2-x,1/2+y,1/2-z
-x,-y,-z
1/2+x,y,-z
-x,1/2+y,1/2+z
1/2+x,1/2-y,1/2+z
loop_
_atom_site_type_symbol
_atom_site_label
_atom_site_fract_x
_atom_site_fract_y
_atom_site_fract_z
Si Si1 0.280832 0.794784 0.995359
Si Si2 0.450563 0.674208 0.426107
Si Si3 0.178663 0.943887 0.000275
Si Si4 0.416886 0.334115 0.207345
Si Si5 0.042582 0.558221 0.827009
O O1 0.278452 0.750000 0.750000
O O2 0.219511 0.861512 0.950713
O O3 0.274589 0.750000 0.250000
O O4 0.364488 0.829608 0.004923
O O5 0.456577 0.750000 0.250000
O O6 0.507950 0.678001 0.641780
O O7 0.475145 0.589529 0.330824
O O8 0.117967 0.970243 0.804568
O O9 0.250000 0.000000 0.045433
O O10 0.126597 0.912716 0.210434
O O11 0.378064 0.250000 0.250000
O O12 0.433529 0.358461 0.945316
O O13 0.000000 0.500000 0.000000
#
# Coordination Sequence:
#
# PCOD9412007 Si02
#       5
#     8   8   8   8   8
#     4  11  27  47  76 109 153 200 254 314 381 456
#     4  10  22  42  72 108 139 191 251 314 371 453
#     4  11  29  45  68 107 154 199 251 318 391 454
#     4  11  23  44  77 101 142 193 257 310 374 460
#     4  11  27  45  75 105 148 198 256 316 379 453
#
# _framework density 22.986228000000001
#
# number of rings (size 3 to 8) (size 9 to 14) (size 15 to 20)
#    0.000    1.200    2.000    1.200   14.000    2.400 
#    0.000    0.000    0.000    0.000    0.000    0.000 
#    0.000    0.000    0.000    0.000    0.000    0.000 
#
# Total GULP energy -222692.203635 kJ/mol
# GULP energy per Si atom -5567.305091 kJ/mol
# Density = 2.293391 g / cm^3
# Si number density = 22.986228 Si / 1000 Ang^3
#
#
#
# Elastic Constant Matrix: (Units=GPa)
#
#
# Indices 1 2 3 4 5 6 
#
# 1 143.7964 45.0196 29.4620 0.0000 0.0000 0.0000
# 2 45.0196 80.0804 32.3518 0.0000 0.0000 0.0000
# 3 29.4620 32.3518 64.7497 0.0000 0.0000 0.0000
# 4 0.0000 0.0000 0.0000 48.5664 0.0000 0.0000
# 5 0.0000 0.0000 0.0000 0.0000 168.7856 0.0000
# 6 0.0000 0.0000 0.0000 0.0000 0.0000 41.0074
#
#
#
# Elastic Compliance Matrix: (Units=1/GPa)
#
#
# Indices 1 2 3 4 5 6 
#
# 1 0.008619 -0.004086 -0.001880 0.000000 0.000000 0.000000
# 2 -0.004086 0.017582 -0.006926 0.000000 0.000000 0.000000
# 3 -0.001880 -0.006926 0.019760 0.000000 0.000000 0.000000
# 4 0.000000 0.000000 0.000000 0.020590 0.000000 0.000000
# 5 0.000000 0.000000 0.000000 0.000000 0.005925 0.000000
# 6 0.000000 0.000000 0.000000 0.000000 0.000000 0.024386
#
#
# Mechanical properties :
#
#
# Convention : Reuss Voigt Hill
#
# Bulk Modulus (GPa) = 49.56003 55.81038 52.68520
# Shear Modulus (GPa) = 38.64846 63.79142 51.21994
#
# Velocity S-wave (km/s) = 4.10491 5.27373 4.72560
# Velocity P-wave (km/s) = 6.63887 7.83681 7.26258
#
# Compressibility (1/GPa) = 0.02017755
#
# Stress axis : x y z
#
# Youngs Moduli (GPa) = 116.02763 56.87535 50.60700
#
# Poissons Ratio (x) = 0.23237 0.09515
# Poissons Ratio (y) = 0.47405 0.35050
# Poissons Ratio (z) = 0.21816 0.39391
#
# Static dielectric constant tensor:
#      x y z
#    x 1.867840 0.000000 0.000000 
#    y 0.000000 1.976920 0.000000 
#    z 0.000000 0.000000 1.812390 
# 
# From -- ./inp_files/3188.got.cif
#   From: 2010.05.17/outbox.cif.g08.bks.cpg/sg52_2_cif.got.tgz:3188.got - 2010.06.03 12:15:38.
