data_PCOD9412067
_publ_section_title
;
Structure prediction by ZEFSAII (Michael W. Deem and Ramdas Pophale) SiO2 
 PCOD9412067
Probable space group: P N N A
;
_chemical_formula_sum "Si O2"
_cell_formula_units_Z 40
_cell_length_a 9.011420
_cell_length_b 18.668624
_cell_length_c 9.534817
_cell_angle_alpha 90.000000
_cell_angle_beta 90.000000
_cell_angle_gamma 90.000000
_cell_volume 1604.050003
_symmetry_space_group_name_H-M "P N N A"
_symmetry_group_IT_number 52
_symmetry_cell_setting 'orthorhombic'
loop_
_space_group_symop_operation_xyz
x,y,z
1/2-x,-y,z
x,1/2-y,1/2-z
1/2-x,1/2+y,1/2-z
-x,-y,-z
1/2+x,y,-z
-x,1/2+y,1/2+z
1/2+x,1/2-y,1/2+z
loop_
_atom_site_type_symbol
_atom_site_label
_atom_site_fract_x
_atom_site_fract_y
_atom_site_fract_z
Si Si1 0.926725 0.942743 0.809896
Si Si2 0.975866 0.434983 0.890746
Si Si3 0.561488 0.284008 0.398196
Si Si4 0.807978 0.116436 0.030368
Si Si5 0.317928 0.852193 0.452878
O O1 0.575981 0.977470 0.745858
O O2 0.087069 0.934249 0.879552
O O3 0.901441 0.885998 0.682564
O O4 0.804497 0.922436 0.924713
O O5 0.852074 0.375437 0.928764
O O6 0.130537 0.395415 0.908641
O O7 0.000000 0.500000 0.000000
O O8 0.519624 0.250000 0.250000
O O9 0.422575 0.329302 0.454044
O O10 0.625794 0.227404 0.513291
O O11 0.700313 0.335979 0.375037
#
# Coordination Sequence:
#
# PCOD9412067 Si02
#       5
#     8   8   8   8   8
#     4  10  23  46  71 103 147 183 247 285 371 429
#     4  10  22  43  71 105 134 185 235 301 346 414
#     4  11  26  42  73 105 144 186 243 297 366 431
#     4  10  25  44  68 107 144 196 224 305 365 437
#     4  11  24  44  75 104 137 187 246 300 351 427
#
# _framework density 24.936879000000001
#
# number of rings (size 3 to 8) (size 9 to 14) (size 15 to 20)
#    0.000    1.600    0.000    3.600   14.000    1.600 
#    0.000    6.000    0.000    0.000    0.000    0.000 
#    0.000    0.000    0.000    0.000    0.000    0.000 
#
# Total GULP energy -223815.302863 kJ/mol
# GULP energy per Si atom -5595.382572 kJ/mol
# Density = 2.488012 g / cm^3
# Si number density = 24.936879 Si / 1000 Ang^3
#
#
#
# Elastic Constant Matrix: (Units=GPa)
#
#
# Indices 1 2 3 4 5 6 
#
# 1 100.4083 21.8771 38.4412 0.0000 0.0000 0.0000
# 2 21.8771 85.5826 36.5991 0.0000 0.0000 0.0000
# 3 38.4412 36.5991 88.0658 0.0000 0.0000 0.0000
# 4 0.0000 0.0000 0.0000 44.4528 0.0000 0.0000
# 5 0.0000 0.0000 0.0000 0.0000 42.8074 0.0000
# 6 0.0000 0.0000 0.0000 0.0000 0.0000 42.2705
#
#
#
# Elastic Compliance Matrix: (Units=1/GPa)
#
#
# Indices 1 2 3 4 5 6 
#
# 1 0.012029 -0.001009 -0.004831 0.000000 0.000000 0.000000
# 2 -0.001009 0.014295 -0.005500 0.000000 0.000000 0.000000
# 3 -0.004831 -0.005500 0.015750 0.000000 0.000000 0.000000
# 4 0.000000 0.000000 0.000000 0.022496 0.000000 0.000000
# 5 0.000000 0.000000 0.000000 0.000000 0.023360 0.000000
# 6 0.000000 0.000000 0.000000 0.000000 0.000000 0.023657
#
#
# Mechanical properties :
#
#
# Convention : Reuss Voigt Hill
#
# Bulk Modulus (GPa) = 51.56659 51.98796 51.77728
# Shear Modulus (GPa) = 35.52850 37.71544 36.62197
#
# Velocity S-wave (km/s) = 3.77866 3.89322 3.83637
# Velocity P-wave (km/s) = 6.30567 6.41114 6.35862
#
# Compressibility (1/GPa) = 0.01939240
#
# Stress axis : x y z
#
# Youngs Moduli (GPa) = 83.13364 69.95604 63.49214
#
# Poissons Ratio (x) = 0.07057 0.30676
# Poissons Ratio (y) = 0.08386 0.34923
# Poissons Ratio (z) = 0.40165 0.38479
#
# Static dielectric constant tensor:
#      x y z
#    x 1.943280 0.000000 0.000000 
#    y 0.000000 2.059010 0.000000 
#    z 0.000000 0.000000 1.983520 
# 
# From -- ./inp_files/7541.got.cif
#   From: 2010.05.17/outbox.cif.g08.bks.cpg/sg52_4_cif.got.tgz:7541.got - 2010.06.03 12:15:38.
