data_PCOD9412252
_publ_section_title
;
Structure prediction by ZEFSAII (Michael W. Deem and Ramdas Pophale) SiO2 
 PCOD9412252
Probable space group: P N N A
;
_chemical_formula_sum "Si O2"
_cell_formula_units_Z 48
_cell_length_a 14.690770
_cell_length_b 27.768864
_cell_length_c 5.395617
_cell_angle_alpha 90.000000
_cell_angle_beta 90.000000
_cell_angle_gamma 90.000000
_cell_volume 2201.120341
_symmetry_space_group_name_H-M "P N N A"
_symmetry_group_IT_number 52
_symmetry_cell_setting 'orthorhombic'
loop_
_space_group_symop_operation_xyz
x,y,z
1/2-x,-y,z
x,1/2-y,1/2-z
1/2-x,1/2+y,1/2-z
-x,-y,-z
1/2+x,y,-z
-x,1/2+y,1/2+z
1/2+x,1/2-y,1/2+z
loop_
_atom_site_type_symbol
_atom_site_label
_atom_site_fract_x
_atom_site_fract_y
_atom_site_fract_z
Si Si1 0.611100 0.450981 0.118367
Si Si2 0.296436 0.407501 0.959997
Si Si3 0.037890 0.956994 0.753306
Si Si4 0.459326 0.870421 0.940334
Si Si5 0.096058 0.719612 0.495678
Si Si6 0.251342 0.850798 0.043798
O O1 0.715961 0.446133 0.058282
O O2 0.586306 0.492395 0.319341
O O3 0.574775 0.397412 0.189212
O O4 0.556975 0.467468 0.878560
O O5 0.392992 0.432742 0.942263
O O6 0.281151 0.377177 0.707956
O O7 0.284978 0.376683 0.208067
O O8 0.015100 0.914565 0.940453
O O9 0.526796 0.825459 0.966430
O O10 0.361317 0.854514 0.055123
O O11 0.078815 0.750000 0.250000
O O12 0.199989 0.700065 0.478346
O O13 0.083045 0.750000 0.750000
#
# Coordination Sequence:
#
# PCOD9412252 Si02
#       6
#     8   8   8   8   8   8
#     4  10  23  39  65 104 140 183 229 274 330 411
#     4  11  22  41  67  99 136 186 217 273 328 400
#     4  11  21  40  66  99 144 183 229 271 331 409
#     4  11  24  44  71  98 138 182 224 283 350 407
#     4  12  28  46  73 102 129 177 232 293 355 414
#     4  11  24  44  70  95 136 172 224 278 344 400
#
# _framework density 21.807075999999999
#
# number of rings (size 3 to 8) (size 9 to 14) (size 15 to 20)
#    0.000    1.000    3.333    3.000    2.333    1.333 
#    0.000    1.667    0.000    0.000    0.000    0.000 
#    0.000    0.000    0.000    0.000    0.000    0.000 
#
# Total GULP energy -267730.895880 kJ/mol
# GULP energy per Si atom -5577.726998 kJ/mol
# Density = 2.175744 g / cm^3
# Si number density = 21.807076 Si / 1000 Ang^3
#
#
#
# Elastic Constant Matrix: (Units=GPa)
#
#
# Indices 1 2 3 4 5 6 
#
# 1 93.1597 27.6550 21.9477 0.0000 0.0000 0.0000
# 2 27.6550 114.0699 52.8167 0.0000 0.0000 0.0000
# 3 21.9477 52.8167 127.5805 0.0000 0.0000 0.0000
# 4 0.0000 0.0000 0.0000 -44.6590 0.0000 0.0000
# 5 0.0000 0.0000 0.0000 0.0000 5.1271 0.0000
# 6 0.0000 0.0000 0.0000 0.0000 0.0000 44.1037
#
#
#
# Elastic Compliance Matrix: (Units=1/GPa)
#
#
# Indices 1 2 3 4 5 6 
#
# 1 0.011676 -0.002351 -0.001035 0.000000 0.000000 0.000000
# 2 -0.002351 0.011319 -0.004281 0.000000 0.000000 0.000000
# 3 -0.001035 -0.004281 0.009789 0.000000 0.000000 0.000000
# 4 0.000000 0.000000 0.000000 -0.022392 0.000000 0.000000
# 5 0.000000 0.000000 0.000000 0.000000 0.195042 0.000000
# 6 0.000000 0.000000 0.000000 0.000000 0.000000 0.022674
#
#
# Mechanical properties :
#
#
# Convention : Reuss Voigt Hill
#
# Bulk Modulus (GPa) = 57.31373 59.96100 58.63737
# Shear Modulus (GPa) = 20.05939 16.40706 18.23322
#
# Velocity S-wave (km/s) = 3.03620 2.74592 2.89470
# Velocity P-wave (km/s) = 6.21535 6.13264 6.17413
#
# Compressibility (1/GPa) = 0.01744783
#
# Stress axis : x y z
#
# Youngs Moduli (GPa) = 85.64440 88.34685 102.15840
#
# Poissons Ratio (x) = 0.20774 0.10575
# Poissons Ratio (y) = 0.20139 0.43738
# Poissons Ratio (z) = 0.08866 0.37825
#
# Static dielectric constant tensor:
#      x y z
#    x 1.791950 0.000000 0.000000 
#    y 0.000000 1.884950 0.000000 
#    z 0.000000 0.000000 2.226530 
# 
# From -- ./inp_files/2460.got.cif
#   From: 2010.05.17/outbox.cif.g08.bks.cpg/sg52_2_cif.got.tgz:2460.got - 2010.06.03 12:15:38.
