data_PCOD9412918
_publ_section_title
;
Structure prediction by ZEFSAII (Michael W. Deem and Ramdas Pophale) SiO2 
 PCOD9412918
Probable space group: P N N A
;
_chemical_formula_sum "Si O2"
_cell_formula_units_Z 52
_cell_length_a 7.941684
_cell_length_b 14.456996
_cell_length_c 19.177179
_cell_angle_alpha 90.000000
_cell_angle_beta 90.000000
_cell_angle_gamma 90.000000
_cell_volume 2201.787416
_symmetry_space_group_name_H-M "P N N A"
_symmetry_group_IT_number 52
_symmetry_cell_setting 'orthorhombic'
loop_
_space_group_symop_operation_xyz
x,y,z
1/2-x,-y,z
x,1/2-y,1/2-z
1/2-x,1/2+y,1/2-z
-x,-y,-z
1/2+x,y,-z
-x,1/2+y,1/2+z
1/2+x,1/2-y,1/2+z
loop_
_atom_site_type_symbol
_atom_site_label
_atom_site_fract_x
_atom_site_fract_y
_atom_site_fract_z
Si Si1 0.250000 0.500000 0.040649
Si Si2 0.098551 0.425209 0.655631
Si Si3 0.279817 0.392397 0.529032
Si Si4 0.295505 0.353609 0.776185
Si Si5 0.389819 0.691686 0.409276
Si Si6 0.570195 0.610512 0.079301
Si Si7 0.125339 0.062985 0.210792
O O1 0.324084 0.419686 0.988932
O O2 0.414066 0.537573 0.081767
O O3 0.250000 0.500000 0.649917
O O4 0.140234 0.365601 0.587922
O O5 0.132830 0.378441 0.729852
O O6 0.927376 0.481000 0.656465
O O7 0.250000 0.500000 0.509444
O O8 0.257703 0.326712 0.463393
O O9 0.458976 0.375092 0.564271
O O10 0.333402 0.250000 0.750000
O O11 0.295006 0.377426 0.857476
O O12 0.456511 0.412424 0.751370
O O13 0.471065 0.792042 0.415447
O O14 0.336479 0.655847 0.332720
O O15 0.250000 0.000000 0.256266
#
# Coordination Sequence:
#
# PCOD9412918 Si02
#       7
#     4   8   8   8   8   8   8
#     4  10  26  48  68  94 126 160 226 278 340 390
#     4   9  19  38  58  87 125 168 212 244 307 393
#     4  11  20  34  56  92 132 171 203 240 302 385
#     4  11  21  42  69  90 125 169 221 272 319 380
#     4  12  22  37  62  92 131 167 211 259 313 382
#     4  11  24  45  69  93 119 168 215 277 330 385
#     4  11  23  38  59  97 133 168 206 259 327 392
#
# _framework density 23.617175
#
# number of rings (size 3 to 8) (size 9 to 14) (size 15 to 20)
#    0.000    1.231    6.154    1.846    6.462    0.000 
#    0.000    0.769    0.000    0.000    0.000    0.000 
#    0.000    0.000    0.000    0.000    0.000    0.000 
#
# Total GULP energy -289782.704642 kJ/mol
# GULP energy per Si atom -5572.744320 kJ/mol
# Density = 2.356342 g / cm^3
# Si number density = 23.617175 Si / 1000 Ang^3
#
#
#
# Elastic Constant Matrix: (Units=GPa)
#
#
# Indices 1 2 3 4 5 6 
#
# 1 55.8088 19.0367 3.6047 0.0000 0.0000 0.0000
# 2 19.0367 96.4724 21.0384 0.0000 0.0000 0.0000
# 3 3.6047 21.0384 84.6697 0.0000 0.0000 0.0000
# 4 0.0000 0.0000 0.0000 14.2376 0.0000 0.0000
# 5 0.0000 0.0000 0.0000 0.0000 -14.2663 0.0000
# 6 0.0000 0.0000 0.0000 0.0000 0.0000 30.7502
#
#
#
# Elastic Compliance Matrix: (Units=1/GPa)
#
#
# Indices 1 2 3 4 5 6 
#
# 1 0.019213 -0.003820 0.000131 0.000000 0.000000 0.000000
# 2 -0.003820 0.011719 -0.002749 0.000000 0.000000 0.000000
# 3 0.000131 -0.002749 0.012488 0.000000 0.000000 0.000000
# 4 0.000000 0.000000 0.000000 0.070237 0.000000 0.000000
# 5 0.000000 0.000000 0.000000 0.000000 -0.070095 0.000000
# 6 0.000000 0.000000 0.000000 0.000000 0.000000 0.032520
#
#
# Mechanical properties :
#
#
# Convention : Reuss Voigt Hill
#
# Bulk Modulus (GPa) = 32.73953 36.03448 34.38700
# Shear Modulus (GPa) = 50.43446 19.02904 34.73175
#
# Velocity S-wave (km/s) = 4.62616 2.84162 3.83902
# Velocity P-wave (km/s) = 6.51366 5.10463 5.85171
#
# Compressibility (1/GPa) = 0.03054411
#
# Stress axis : x y z
#
# Youngs Moduli (GPa) = 52.04858 85.33173 80.07593
#
# Poissons Ratio (x) = 0.32595 -0.01050
# Poissons Ratio (y) = 0.19882 0.22015
# Poissons Ratio (z) = -0.00683 0.23460
#
# Static dielectric constant tensor:
#      x y z
#    x 2.102470 0.000000 0.000000 
#    y 0.000000 1.968250 0.000000 
#    z 0.000000 0.000000 2.029270 
# 
# From -- ./inp_files/35976.got.cif
#   From: 2010.05.17/outbox.cif.g08.bks.cpg/sg52_18_cif.got.tgz:35976.got - 2010.06.03 12:15:38.
