data_PCOD9412968
_publ_section_title
;
Structure prediction by ZEFSAII (Michael W. Deem and Ramdas Pophale) SiO2 
 PCOD9412968
Probable space group: P N N A
;
_chemical_formula_sum "Si O2"
_cell_formula_units_Z 48
_cell_length_a 8.659105
_cell_length_b 17.211609
_cell_length_c 19.900542
_cell_angle_alpha 90.000000
_cell_angle_beta 90.000000
_cell_angle_gamma 90.000000
_cell_volume 2965.919656
_symmetry_space_group_name_H-M "P N N A"
_symmetry_group_IT_number 52
_symmetry_cell_setting 'orthorhombic'
loop_
_space_group_symop_operation_xyz
x,y,z
1/2-x,-y,z
x,1/2-y,1/2-z
1/2-x,1/2+y,1/2-z
-x,-y,-z
1/2+x,y,-z
-x,1/2+y,1/2+z
1/2+x,1/2-y,1/2+z
loop_
_atom_site_type_symbol
_atom_site_label
_atom_site_fract_x
_atom_site_fract_y
_atom_site_fract_z
Si Si1 0.056280 0.637725 0.572799
Si Si2 0.855472 0.065972 0.736705
Si Si3 0.930212 0.480150 0.621601
Si Si4 0.037013 0.785548 0.323485
Si Si5 0.916582 0.674792 0.432155
Si Si6 0.850346 0.699024 0.691766
O O1 0.237560 0.652429 0.569822
O O2 0.024747 0.545555 0.581742
O O3 0.975121 0.676742 0.508473
O O4 0.971509 0.673014 0.637397
O O5 0.949108 0.024269 0.797243
O O6 0.952869 0.122099 0.688516
O O7 0.739648 0.125620 0.775820
O O8 0.750000 0.000000 0.703277
O O9 0.750000 0.500000 0.608969
O O10 0.980514 0.395381 0.597883
O O11 0.990212 0.750000 0.250000
O O12 0.211167 0.753097 0.335360
O O13 0.941924 0.749759 0.384790
O O14 0.926946 0.750000 0.750000
#
# Coordination Sequence:
#
# PCOD9412968 Si02
#       6
#     8   8   8   8   8   8
#     4  12  23  33  50  75 108 141 177 216 267 317
#     4   9  15  30  60  75 102 133 183 212 263 314
#     4  11  18  34  52  72 107 140 175 208 256 324
#     4   9  17  33  54  73 103 141 180 215 256 319
#     4  12  23  34  48  76 107 146 176 215 262 318
#     4   9  17  33  52  74 100 137 171 215 259 312
#
# _framework density 16.18385
#
# number of rings (size 3 to 8) (size 9 to 14) (size 15 to 20)
#    0.000    2.000    6.667    3.000    0.000    0.667 
#    0.000    0.000    0.000    0.000    0.000   10.500 
#    0.000    0.000    0.000    0.000    0.000    0.000 
#
# Total GULP energy -267309.319547 kJ/mol
# GULP energy per Si atom -5568.944157 kJ/mol
# Density = 1.614701 g / cm^3
# Si number density = 16.183850 Si / 1000 Ang^3
#
#
#
# Elastic Constant Matrix: (Units=GPa)
#
#
# Indices 1 2 3 4 5 6 
#
# 1 73.9298 21.0306 25.6745 0.0000 0.0000 0.0000
# 2 21.0306 55.5802 39.4812 0.0000 0.0000 0.0000
# 3 25.6745 39.4812 74.4816 0.0000 0.0000 0.0000
# 4 0.0000 0.0000 0.0000 26.1323 0.0000 0.0000
# 5 0.0000 0.0000 0.0000 0.0000 18.5505 0.0000
# 6 0.0000 0.0000 0.0000 0.0000 0.0000 27.8797
#
#
#
# Elastic Compliance Matrix: (Units=1/GPa)
#
#
# Indices 1 2 3 4 5 6 
#
# 1 0.015750 -0.003373 -0.003641 0.000000 0.000000 0.000000
# 2 -0.003373 0.029581 -0.014517 0.000000 0.000000 0.000000
# 3 -0.003641 -0.014517 0.022377 0.000000 0.000000 0.000000
# 4 0.000000 0.000000 0.000000 0.038267 0.000000 0.000000
# 5 0.000000 0.000000 0.000000 0.000000 0.053907 0.000000
# 6 0.000000 0.000000 0.000000 0.000000 0.000000 0.035868
#
#
# Mechanical properties :
#
#
# Convention : Reuss Voigt Hill
#
# Bulk Modulus (GPa) = 40.57743 41.81824 41.19784
# Shear Modulus (GPa) = 20.24059 22.36619 21.30339
#
# Velocity S-wave (km/s) = 3.54031 3.72157 3.63207
# Velocity P-wave (km/s) = 6.46830 6.66051 6.56511
#
# Compressibility (1/GPa) = 0.02464424
#
# Stress axis : x y z
#
# Youngs Moduli (GPa) = 63.49028 33.80577 44.68929
#
# Poissons Ratio (x) = 0.11403 0.16273
# Poissons Ratio (y) = 0.21416 0.64877
# Poissons Ratio (z) = 0.23119 0.49077
#
# Static dielectric constant tensor:
#      x y z
#    x 1.541500 0.000000 0.000000 
#    y 0.000000 1.571380 0.000000 
#    z 0.000000 0.000000 1.575140 
# 
# From -- ./inp_files/31511.got.cif
#   From: 2010.05.17/outbox.cif.g08.bks.cpg/sg52_16_cif.got.tgz:31511.got - 2010.06.03 12:15:38.
