data_PCOD9412595
_publ_section_title
;
Structure prediction by ZEFSAII (Michael W. Deem and Ramdas Pophale) SiO2 
 PCOD9412595
Probable space group: P N N A
;
_chemical_formula_sum "Si O2"
_cell_formula_units_Z 36
_cell_length_a 8.377461
_cell_length_b 9.790209
_cell_length_c 22.960145
_cell_angle_alpha 90.000000
_cell_angle_beta 90.000000
_cell_angle_gamma 90.000000
_cell_volume 1883.124373
_symmetry_space_group_name_H-M "P N N A"
_symmetry_group_IT_number 52
_symmetry_cell_setting 'orthorhombic'
loop_
_space_group_symop_operation_xyz
x,y,z
1/2-x,-y,z
x,1/2-y,1/2-z
1/2-x,1/2+y,1/2-z
-x,-y,-z
1/2+x,y,-z
-x,1/2+y,1/2+z
1/2+x,1/2-y,1/2+z
loop_
_atom_site_type_symbol
_atom_site_label
_atom_site_fract_x
_atom_site_fract_y
_atom_site_fract_z
Si Si1 0.047202 0.830585 0.671550
Si Si2 0.003583 0.415292 0.912815
Si Si3 0.569189 0.054713 0.795675
Si Si4 0.750000 0.000000 0.497015
Si Si5 0.410403 0.717867 0.683569
O O1 0.228926 0.773562 0.676179
O O2 0.000646 0.907191 0.731743
O O3 0.938490 0.695955 0.668771
O O4 0.022126 0.939205 0.620352
O O5 0.990161 0.303107 0.863264
O O6 0.864366 0.420442 0.959467
O O7 0.157605 0.399277 0.953728
O O8 0.750000 0.000000 0.791358
O O9 0.451230 0.941250 0.822611
O O10 0.458573 0.750000 0.750000
#
# Coordination Sequence:
#
# PCOD9412595 Si02
#       5
#     8   8   8   4   8
#     4  11  23  39  61  90 132 170 208 255 323 399
#     4  11  23  41  68  94 125 167 225 265 319 370
#     4  11  26  37  58  98 134 168 200 261 340 393
#     4  10  24  42  64  96 124 172 226 272 296 380
#     4  12  22  39  65  94 132 167 207 266 334 392
#
# _framework density 19.117166000000001
#
# number of rings (size 3 to 8) (size 9 to 14) (size 15 to 20)
#    0.000    0.889    6.667    0.667    7.778    0.000 
#    0.000    0.000    0.000    8.000    0.000    0.000 
#    0.000    0.000    0.000    0.000    0.000    0.000 
#
# Total GULP energy -200954.559875 kJ/mol
# GULP energy per Si atom -5582.071108 kJ/mol
# Density = 1.907365 g / cm^3
# Si number density = 19.117166 Si / 1000 Ang^3
#
#
#
# Elastic Constant Matrix: (Units=GPa)
#
#
# Indices 1 2 3 4 5 6 
#
# 1 61.1071 32.8999 30.5950 0.0000 0.0000 0.0000
# 2 32.8999 138.8240 55.0697 0.0000 0.0000 0.0000
# 3 30.5950 55.0697 117.8991 0.0000 0.0000 0.0000
# 4 0.0000 0.0000 0.0000 26.6685 0.0000 0.0000
# 5 0.0000 0.0000 0.0000 0.0000 -29.6804 0.0000
# 6 0.0000 0.0000 0.0000 0.0000 0.0000 19.4688
#
#
#
# Elastic Compliance Matrix: (Units=1/GPa)
#
#
# Indices 1 2 3 4 5 6 
#
# 1 0.019958 -0.003284 -0.003645 0.000000 0.000000 0.000000
# 2 -0.003284 0.009382 -0.003530 0.000000 0.000000 0.000000
# 3 -0.003645 -0.003530 0.011077 0.000000 0.000000 0.000000
# 4 0.000000 0.000000 0.000000 0.037497 0.000000 0.000000
# 5 0.000000 0.000000 0.000000 0.000000 -0.033692 0.000000
# 6 0.000000 0.000000 0.000000 0.000000 0.000000 0.051364
#
#
# Mechanical properties :
#
#
# Convention : Reuss Voigt Hill
#
# Bulk Modulus (GPa) = 51.28692 61.66215 56.47453
# Shear Modulus (GPa) = 40.64927 16.57574 28.61251
#
# Velocity S-wave (km/s) = 4.61621 2.94778 3.87291
# Velocity P-wave (km/s) = 7.43629 6.62652 7.04305
#
# Compressibility (1/GPa) = 0.01949815
#
# Stress axis : x y z
#
# Youngs Moduli (GPa) = 50.10579 106.58791 90.28001
#
# Poissons Ratio (x) = 0.35001 0.32909
# Poissons Ratio (y) = 0.16454 0.31870
# Poissons Ratio (z) = 0.18265 0.37626
#
# Static dielectric constant tensor:
#      x y z
#    x 1.757280 0.000000 0.000000 
#    y 0.000000 1.676390 0.000000 
#    z 0.000000 0.000000 1.637460 
# 
# From -- ./inp_files/39252.got.cif
#   From: 2010.05.17/outbox.cif.g08.bks.cpg/sg52_20_cif.got.tgz:39252.got - 2010.06.03 12:15:38.
