data_PCOD9412364
_publ_section_title
;
Structure prediction by ZEFSAII (Michael W. Deem and Ramdas Pophale) SiO2 
 PCOD9412364
Probable space group: P N N A
;
_chemical_formula_sum "Si O2"
_cell_formula_units_Z 40
_cell_length_a 19.433690
_cell_length_b 5.887166
_cell_length_c 17.171657
_cell_angle_alpha 90.000000
_cell_angle_beta 90.000000
_cell_angle_gamma 90.000000
_cell_volume 1964.598271
_symmetry_space_group_name_H-M "P N N A"
_symmetry_group_IT_number 52
_symmetry_cell_setting 'orthorhombic'
loop_
_space_group_symop_operation_xyz
x,y,z
1/2-x,-y,z
x,1/2-y,1/2-z
1/2-x,1/2+y,1/2-z
-x,-y,-z
1/2+x,y,-z
-x,1/2+y,1/2+z
1/2+x,1/2-y,1/2+z
loop_
_atom_site_type_symbol
_atom_site_label
_atom_site_fract_x
_atom_site_fract_y
_atom_site_fract_z
Si Si1 0.079724 0.364401 0.072719
Si Si2 0.670938 0.502463 0.792316
Si Si3 0.675136 0.393947 0.174826
Si Si4 0.424689 0.179559 0.580847
Si Si5 0.325838 0.923697 0.976384
O O1 0.113182 0.507290 0.141255
O O2 0.004802 0.268400 0.094361
O O3 0.074635 0.508451 0.992934
O O4 0.135434 0.175885 0.050625
O O5 0.750000 0.500000 0.822379
O O6 0.662240 0.250000 0.750000
O O7 0.664969 0.750000 0.750000
O O8 0.750000 0.500000 0.191158
O O9 0.655666 0.250000 0.250000
O O10 0.614333 0.566879 0.153482
O O11 0.684016 0.248395 0.095884
O O12 0.376688 0.385869 0.556194
O O13 0.250000 0.000000 0.998738
#
# Coordination Sequence:
#
# PCOD9412364 Si02
#       5
#     8   8   8   8   8
#     4  10  24  41  66  93 129 169 209 281 333 394
#     4  10  24  44  67  99 132 172 227 278 335 406
#     4  11  23  39  60  93 130 174 216 268 324 390
#     4  10  23  43  61  96 129 165 219 266 331 401
#     4  11  22  38  67  95 124 168 222 270 329 404
#
# _framework density 20.360399000000001
#
# number of rings (size 3 to 8) (size 9 to 14) (size 15 to 20)
#    0.000    1.600    2.000    1.200    5.600    1.600 
#    3.600    0.000    0.000    0.000    0.000    0.000 
#    0.000    0.000    0.000    0.000    0.000    0.000 
#
# Total GULP energy -223095.543982 kJ/mol
# GULP energy per Si atom -5577.388600 kJ/mol
# Density = 2.031406 g / cm^3
# Si number density = 20.360399 Si / 1000 Ang^3
#
#
#
# Elastic Constant Matrix: (Units=GPa)
#
#
# Indices 1 2 3 4 5 6 
#
# 1 125.6819 22.5721 37.6421 0.0000 0.0000 0.0000
# 2 22.5721 59.0286 6.0095 0.0000 0.0000 0.0000
# 3 37.6421 6.0095 42.8688 0.0000 0.0000 0.0000
# 4 0.0000 0.0000 0.0000 27.1621 0.0000 0.0000
# 5 0.0000 0.0000 0.0000 0.0000 29.5436 0.0000
# 6 0.0000 0.0000 0.0000 0.0000 0.0000 -0.3843
#
#
#
# Elastic Compliance Matrix: (Units=1/GPa)
#
#
# Indices 1 2 3 4 5 6 
#
# 1 0.011430 -0.003397 -0.009560 0.000000 0.000000 0.000000
# 2 -0.003397 0.018196 0.000432 0.000000 0.000000 0.000000
# 3 -0.009560 0.000432 0.031661 0.000000 0.000000 0.000000
# 4 0.000000 0.000000 0.000000 0.036816 0.000000 0.000000
# 5 0.000000 0.000000 0.000000 0.000000 0.033848 0.000000
# 6 0.000000 0.000000 0.000000 0.000000 0.000000 -2.602070
#
#
# Mechanical properties :
#
#
# Convention : Reuss Voigt Hill
#
# Bulk Modulus (GPa) = 27.59638 40.00297 33.79967
# Shear Modulus (GPa) = -2.05509 22.02132 9.98312
#
# Velocity S-wave (km/s) = -1.00576 3.29230 2.21672
# Velocity P-wave (km/s) = 3.49781 5.84315 4.81545
#
# Compressibility (1/GPa) = 0.03623664
#
# Stress axis : x y z
#
# Youngs Moduli (GPa) = 87.48834 54.95690 31.58458
#
# Poissons Ratio (x) = 0.18672 0.30196
# Poissons Ratio (y) = 0.29724 -0.01366
# Poissons Ratio (z) = 0.83641 -0.02377
#
# Static dielectric constant tensor:
#      x y z
#    x 1.700670 0.000000 0.000000 
#    y 0.000000 1.786350 0.000000 
#    z 0.000000 0.000000 1.701250 
# 
# From -- ./inp_files/33459.got.cif
#   From: 2010.05.17/outbox.cif.g08.bks.cpg/sg52_17_cif.got.tgz:33459.got - 2010.06.03 12:15:38.
