data_PCOD9412060
_publ_section_title
;
Structure prediction by ZEFSAII (Michael W. Deem and Ramdas Pophale) SiO2 
 PCOD9412060
Probable space group: P N N A
;
_chemical_formula_sum "Si O2"
_cell_formula_units_Z 28
_cell_length_a 17.924452
_cell_length_b 7.787728
_cell_length_c 8.355733
_cell_angle_alpha 90.000000
_cell_angle_beta 90.000000
_cell_angle_gamma 90.000000
_cell_volume 1166.383092
_symmetry_space_group_name_H-M "P N N A"
_symmetry_group_IT_number 52
_symmetry_cell_setting 'orthorhombic'
loop_
_space_group_symop_operation_xyz
x,y,z
1/2-x,-y,z
x,1/2-y,1/2-z
1/2-x,1/2+y,1/2-z
-x,-y,-z
1/2+x,y,-z
-x,1/2+y,1/2+z
1/2+x,1/2-y,1/2+z
loop_
_atom_site_type_symbol
_atom_site_label
_atom_site_fract_x
_atom_site_fract_y
_atom_site_fract_z
Si Si1 0.210918 0.182059 0.415983
Si Si2 0.862452 0.155212 0.018943
Si Si3 0.399768 0.524337 0.835511
Si Si4 0.534862 0.750000 0.750000
O O1 0.177050 0.250000 0.250000
O O2 0.277102 0.307397 0.473891
O O3 0.250000 0.000000 0.378512
O O4 0.155468 0.140363 0.559876
O O5 0.911922 0.134948 0.861304
O O6 0.894153 0.335432 0.088563
O O7 0.874019 0.011283 0.152728
O O8 0.479109 0.616972 0.835503
#
# Coordination Sequence:
#
# PCOD9412060 Si02
#       4
#     8   8   8   4
#     4  10  22  43  69  98 135 185 232 286 346 410
#     4  10  22  45  69  97 140 177 228 285 345 412
#     4  10  24  41  66 102 133 174 231 284 339 414
#     4  12  22  42  70 104 134 182 220 282 356 406
#
# _framework density 24.005832999999999
#
# number of rings (size 3 to 8) (size 9 to 14) (size 15 to 20)
#    0.000    1.714    1.429    1.714    0.000    9.143 
#   15.429    0.000    0.000    0.000    0.000    0.000 
#    0.000    0.000    0.000    0.000    0.000    0.000 
#
# Total GULP energy -156769.282490 kJ/mol
# GULP energy per Si atom -5598.902946 kJ/mol
# Density = 2.395119 g / cm^3
# Si number density = 24.005833 Si / 1000 Ang^3
#
#
#
# Elastic Constant Matrix: (Units=GPa)
#
#
# Indices 1 2 3 4 5 6 
#
# 1 139.5910 35.3859 105.0161 0.0000 0.0000 0.0000
# 2 35.3859 116.0352 46.7098 0.0000 0.0000 0.0000
# 3 105.0161 46.7098 176.5481 0.0000 0.0000 0.0000
# 4 0.0000 0.0000 0.0000 53.8529 0.0000 0.0000
# 5 0.0000 0.0000 0.0000 0.0000 39.0775 0.0000
# 6 0.0000 0.0000 0.0000 0.0000 0.0000 18.1699
#
#
#
# Elastic Compliance Matrix: (Units=1/GPa)
#
#
# Indices 1 2 3 4 5 6 
#
# 1 0.013060 -0.000958 -0.007515 0.000000 0.000000 0.000000
# 2 -0.000958 0.009716 -0.002001 0.000000 0.000000 0.000000
# 3 -0.007515 -0.002001 0.010664 0.000000 0.000000 0.000000
# 4 0.000000 0.000000 0.000000 0.018569 0.000000 0.000000
# 5 0.000000 0.000000 0.000000 0.000000 0.025590 0.000000
# 6 0.000000 0.000000 0.000000 0.000000 0.000000 0.055036
#
#
# Mechanical properties :
#
#
# Convention : Reuss Voigt Hill
#
# Bulk Modulus (GPa) = 80.04971 89.59977 84.82474
# Shear Modulus (GPa) = 31.69630 38.55757 35.12694
#
# Velocity S-wave (km/s) = 3.63762 4.01206 3.82942
# Velocity P-wave (km/s) = 7.14572 7.67251 7.41379
#
# Compressibility (1/GPa) = 0.01249224
#
# Stress axis : x y z
#
# Youngs Moduli (GPa) = 76.56698 102.92785 93.77398
#
# Poissons Ratio (x) = 0.09856 0.70475
# Poissons Ratio (y) = 0.07332 0.18763
# Poissons Ratio (z) = 0.57543 0.20594
#
# Static dielectric constant tensor:
#      x y z
#    x 1.854670 0.000000 0.000000 
#    y 0.000000 1.927430 0.000000 
#    z 0.000000 0.000000 1.964920 
# 
# From -- ./inp_files/11343.got.cif
#   From: 2010.05.17/outbox.cif.g08.bks.cpg/sg52_6_cif.got.tgz:11343.got - 2010.06.03 12:15:38.
