data_PCOD9412586
_publ_section_title
;
Structure prediction by ZEFSAII (Michael W. Deem and Ramdas Pophale) SiO2 
 PCOD9412586
Probable space group: P N N A
;
_chemical_formula_sum "Si O2"
_cell_formula_units_Z 64
_cell_length_a 21.739585
_cell_length_b 17.793563
_cell_length_c 7.220528
_cell_angle_alpha 90.000000
_cell_angle_beta 90.000000
_cell_angle_gamma 90.000000
_cell_volume 2793.078399
_symmetry_space_group_name_H-M "P N N A"
_symmetry_group_IT_number 52
_symmetry_cell_setting 'orthorhombic'
loop_
_space_group_symop_operation_xyz
x,y,z
1/2-x,-y,z
x,1/2-y,1/2-z
1/2-x,1/2+y,1/2-z
-x,-y,-z
1/2+x,y,-z
-x,1/2+y,1/2+z
1/2+x,1/2-y,1/2+z
loop_
_atom_site_type_symbol
_atom_site_label
_atom_site_fract_x
_atom_site_fract_y
_atom_site_fract_z
Si Si1 0.070343 0.662012 0.375950
Si Si2 0.293542 0.334408 0.211765
Si Si3 0.238436 0.331084 0.846651
Si Si4 0.805514 0.893040 0.974165
Si Si5 0.120019 0.240631 0.530356
Si Si6 0.915680 0.506719 0.513865
Si Si7 0.482737 0.460975 0.807605
Si Si8 0.485124 0.192021 0.511206
O O1 0.137945 0.667304 0.288663
O O2 0.070929 0.581204 0.465589
O O3 0.053822 0.730847 0.510364
O O4 0.023290 0.666054 0.203494
O O5 0.269435 0.250000 0.250000
O O6 0.248492 0.387331 0.326502
O O7 0.290233 0.351006 0.993927
O O8 0.251354 0.250000 0.750000
O O9 0.224492 0.385876 0.677966
O O10 0.176432 0.318336 0.968738
O O11 0.851876 0.820087 0.960484
O O12 0.847366 0.965706 0.955913
O O13 0.107657 0.250000 0.750000
O O14 0.056165 0.212252 0.447485
O O15 0.936008 0.516320 0.301077
O O16 0.959125 0.544344 0.667894
O O17 0.462814 0.376940 0.864073
O O18 0.500000 0.500000 0.000000
#
# Coordination Sequence:
#
# PCOD9412586 Si02
#       8
#     8   8   8   8   8   8   8   8
#     4  11  25  45  71 100 146 189 240 289 354 447
#     4  12  21  43  72 103 137 187 241 294 357 414
#     4   9  20  37  65 106 130 173 230 301 346 400
#     4  10  24  41  68  99 138 181 237 300 347 417
#     4   9  18  32  64  99 134 160 220 285 346 404
#     4  11  27  46  66 103 146 195 238 292 363 442
#     4  11  26  43  71 102 146 186 235 290 370 435
#     4  11  22  41  70 103 138 186 225 295 357 425
#
# _framework density 22.913784
#
# number of rings (size 3 to 8) (size 9 to 14) (size 15 to 20)
#    0.000    1.750    6.250    0.000    8.750    1.000 
#    2.250    1.250    0.000    0.000    0.000    0.000 
#    0.000    0.000    0.000    0.000    0.000    0.000 
#
# Total GULP energy -357640.994615 kJ/mol
# GULP energy per Si atom -5588.140541 kJ/mol
# Density = 2.286163 g / cm^3
# Si number density = 22.913784 Si / 1000 Ang^3
#
#
#
# Elastic Constant Matrix: (Units=GPa)
#
#
# Indices 1 2 3 4 5 6 
#
# 1 87.0691 22.2286 41.6516 0.0000 0.0000 0.0000
# 2 22.2286 90.0100 33.8097 0.0000 0.0000 0.0000
# 3 41.6516 33.8097 104.8889 0.0000 0.0000 0.0000
# 4 0.0000 0.0000 0.0000 27.5422 0.0000 0.0000
# 5 0.0000 0.0000 0.0000 0.0000 5.7940 0.0000
# 6 0.0000 0.0000 0.0000 0.0000 0.0000 19.8406
#
#
#
# Elastic Compliance Matrix: (Units=1/GPa)
#
#
# Indices 1 2 3 4 5 6 
#
# 1 0.014378 -0.001600 -0.005194 0.000000 0.000000 0.000000
# 2 -0.001600 0.012818 -0.003497 0.000000 0.000000 0.000000
# 3 -0.005194 -0.003497 0.012723 0.000000 0.000000 0.000000
# 4 0.000000 0.000000 0.000000 0.036308 0.000000 0.000000
# 5 0.000000 0.000000 0.000000 0.000000 0.172593 0.000000
# 6 0.000000 0.000000 0.000000 0.000000 0.000000 0.050402
#
#
# Mechanical properties :
#
#
# Convention : Reuss Voigt Hill
#
# Bulk Modulus (GPa) = 51.70789 53.03865 52.37327
# Shear Modulus (GPa) = 15.32567 22.92057 19.12312
#
# Velocity S-wave (km/s) = 2.58900 3.16618 2.89202
# Velocity P-wave (km/s) = 5.61716 6.04678 5.83592
#
# Compressibility (1/GPa) = 0.01933941
#
# Stress axis : x y z
#
# Youngs Moduli (GPa) = 69.54975 78.01324 78.59491
#
# Poissons Ratio (x) = 0.12481 0.40822
# Poissons Ratio (y) = 0.11127 0.27481
# Poissons Ratio (z) = 0.36124 0.27278
#
# Static dielectric constant tensor:
#      x y z
#    x 1.886750 0.000000 0.000000 
#    y 0.000000 1.891530 0.000000 
#    z 0.000000 0.000000 1.911040 
# 
# From -- ./inp_files/5334.got.cif
#   From: 2010.05.17/outbox.cif.g08.bks.cpg/sg52_3_cif.got.tgz:5334.got - 2010.06.03 12:15:38.
