data_PCOD9412615
_publ_section_title
;
Structure prediction by ZEFSAII (Michael W. Deem and Ramdas Pophale) SiO2 
 PCOD9412615
Probable space group: P N N A
;
_chemical_formula_sum "Si O2"
_cell_formula_units_Z 60
_cell_length_a 20.633858
_cell_length_b 11.703301
_cell_length_c 12.366919
_cell_angle_alpha 90.000000
_cell_angle_beta 90.000000
_cell_angle_gamma 90.000000
_cell_volume 2986.416171
_symmetry_space_group_name_H-M "P N N A"
_symmetry_group_IT_number 52
_symmetry_cell_setting 'orthorhombic'
loop_
_space_group_symop_operation_xyz
x,y,z
1/2-x,-y,z
x,1/2-y,1/2-z
1/2-x,1/2+y,1/2-z
-x,-y,-z
1/2+x,y,-z
-x,1/2+y,1/2+z
1/2+x,1/2-y,1/2+z
loop_
_atom_site_type_symbol
_atom_site_label
_atom_site_fract_x
_atom_site_fract_y
_atom_site_fract_z
Si Si1 0.897212 0.727104 0.129197
Si Si2 0.321103 0.507607 0.903854
Si Si3 0.660391 0.572671 0.856829
Si Si4 0.681725 0.441635 0.644814
Si Si5 0.758725 0.750000 0.750000
Si Si6 0.511666 0.950480 0.620947
Si Si7 0.425372 0.976159 0.968508
Si Si8 0.926349 0.387426 0.250682
O O1 0.873188 0.750000 0.250000
O O2 0.846521 0.636983 0.080470
O O3 0.912839 0.846541 0.072602
O O4 0.962912 0.653976 0.137539
O O5 0.250000 0.500000 0.853794
O O6 0.371678 0.437294 0.830310
O O7 0.318891 0.454636 0.022428
O O8 0.666773 0.472540 0.769145
O O9 0.708779 0.665045 0.808277
O O10 0.583835 0.595325 0.863616
O O11 0.750000 0.500000 0.612389
O O12 0.697694 0.308274 0.657065
O O13 0.624411 0.485102 0.568545
O O14 0.500000 0.000000 0.500000
O O15 0.491456 0.050578 0.705017
O O16 0.411656 0.062695 0.869598
O O17 0.500000 0.000000 0.000000
O O18 0.930233 0.250000 0.250000
#
# Coordination Sequence:
#
# PCOD9412615 Si02
#       8
#     8   8   8   8   4   8   8   8
#     4  11  24  45  69  99 142 177 232 285 351 427
#     4  11  24  44  71  99 132 185 235 286 347 416
#     4  11  23  43  67 101 136 175 236 281 343 422
#     4  10  25  44  65 100 139 181 228 285 348 410
#     4  10  24  42  68 102 138 184 232 284 350 418
#     4  11  22  43  69 100 133 176 226 281 350 413
#     4  12  27  46  69 104 144 182 232 289 358 420
#     4  11  26  46  66 104 138 175 233 287 349 424
#
# _framework density 20.090969999999999
#
# number of rings (size 3 to 8) (size 9 to 14) (size 15 to 20)
#    0.000    1.067    5.333    2.000    6.533    4.267 
#    2.400    0.000    0.000    0.000    0.000    0.000 
#    0.000    0.000    0.000    0.000    0.000    0.000 
#
# Total GULP energy -334865.093660 kJ/mol
# GULP energy per Si atom -5581.084894 kJ/mol
# Density = 2.004524 g / cm^3
# Si number density = 20.090970 Si / 1000 Ang^3
#
#
#
# Elastic Constant Matrix: (Units=GPa)
#
#
# Indices 1 2 3 4 5 6 
#
# 1 106.9102 6.4956 25.9774 0.0000 0.0000 0.0000
# 2 6.4956 99.6640 22.7119 0.0000 0.0000 0.0000
# 3 25.9774 22.7119 97.8794 0.0000 0.0000 0.0000
# 4 0.0000 0.0000 0.0000 26.8739 0.0000 0.0000
# 5 0.0000 0.0000 0.0000 0.0000 23.6283 0.0000
# 6 0.0000 0.0000 0.0000 0.0000 0.0000 3.7135
#
#
#
# Elastic Compliance Matrix: (Units=1/GPa)
#
#
# Indices 1 2 3 4 5 6 
#
# 1 0.009999 -0.000050 -0.002642 0.000000 0.000000 0.000000
# 2 -0.000050 0.010594 -0.002445 0.000000 0.000000 0.000000
# 3 -0.002642 -0.002445 0.011485 0.000000 0.000000 0.000000
# 4 0.000000 0.000000 0.000000 0.037211 0.000000 0.000000
# 5 0.000000 0.000000 0.000000 0.000000 0.042322 0.000000
# 6 0.000000 0.000000 0.000000 0.000000 0.000000 0.269287
#
#
# Mechanical properties :
#
#
# Convention : Reuss Voigt Hill
#
# Bulk Modulus (GPa) = 45.86232 46.09150 45.97691
# Shear Modulus (GPa) = 12.54895 27.46106 20.00501
#
# Velocity S-wave (km/s) = 2.50192 3.70109 3.15893
# Velocity P-wave (km/s) = 5.58776 6.42302 6.01990
#
# Compressibility (1/GPa) = 0.02180439
#
# Stress axis : x y z
#
# Youngs Moduli (GPa) = 100.01349 94.39172 87.06823
#
# Poissons Ratio (x) = 0.00468 0.23005
# Poissons Ratio (y) = 0.00496 0.21289
# Poissons Ratio (z) = 0.26425 0.23080
#
# Static dielectric constant tensor:
#      x y z
#    x 1.786930 0.000000 0.000000 
#    y 0.000000 3.425380 0.000000 
#    z 0.000000 0.000000 1.563700 
# 
# From -- ./inp_files/21770.got.cif
#   From: 2010.05.17/outbox.cif.g08.bks.cpg/sg52_11_cif.got.tgz:21770.got - 2010.06.03 12:15:38.
