data_PCOD9412139
_publ_section_title
;
Structure prediction by ZEFSAII (Michael W. Deem and Ramdas Pophale) SiO2 
 PCOD9412139
Probable space group: P N N A
;
_chemical_formula_sum "Si O2"
_cell_formula_units_Z 64
_cell_length_a 9.662305
_cell_length_b 26.290948
_cell_length_c 10.123625
_cell_angle_alpha 90.000000
_cell_angle_beta 90.000000
_cell_angle_gamma 90.000000
_cell_volume 2571.716185
_symmetry_space_group_name_H-M "P N N A"
_symmetry_group_IT_number 52
_symmetry_cell_setting 'orthorhombic'
loop_
_space_group_symop_operation_xyz
x,y,z
1/2-x,-y,z
x,1/2-y,1/2-z
1/2-x,1/2+y,1/2-z
-x,-y,-z
1/2+x,y,-z
-x,1/2+y,1/2+z
1/2+x,1/2-y,1/2+z
loop_
_atom_site_type_symbol
_atom_site_label
_atom_site_fract_x
_atom_site_fract_y
_atom_site_fract_z
Si Si1 0.123235 0.199942 0.343254
Si Si2 0.332435 0.450908 0.287535
Si Si3 0.586806 0.805935 0.773431
Si Si4 0.525242 0.876741 0.154740
Si Si5 0.402479 0.641879 0.909046
Si Si6 0.752537 0.641943 0.522928
Si Si7 0.847138 0.074500 0.492953
Si Si8 0.597599 0.987314 0.241339
O O1 0.099681 0.250000 0.250000
O O2 0.285251 0.186359 0.328015
O O3 0.033932 0.155727 0.274606
O O4 0.096334 0.192988 0.498841
O O5 0.250000 0.500000 0.336392
O O6 0.300293 0.404243 0.382923
O O7 0.286244 0.440229 0.136363
O O8 0.492867 0.466715 0.280665
O O9 0.532148 0.750000 0.750000
O O10 0.466234 0.843916 0.732397
O O11 0.673486 0.810643 0.908937
O O12 0.416491 0.860455 0.039615
O O13 0.529138 0.936866 0.178630
O O14 0.680903 0.863171 0.116438
O O15 0.512062 0.603178 0.972882
O O16 0.257991 0.612367 0.918121
O O17 0.881594 0.028043 0.395042
O O18 0.750000 0.000000 0.187764
#
# Coordination Sequence:
#
# PCOD9412139 Si02
#       8
#     8   8   8   8   8   8   8   8
#     4  10  22  44  70  97 133 175 215 269 336 395
#     4  12  23  44  67  95 132 178 224 267 338 395
#     4  10  23  44  70  99 135 174 217 269 336 396
#     4  11  25  45  66  94 132 175 225 273 326 394
#     4  12  21  41  72 100 135 173 212 273 334 392
#     4  11  25  45  68  93 131 178 221 275 327 391
#     4  12  23  41  68 100 137 169 218 275 335 390
#     4  12  26  41  65 101 132 174 223 275 331 394
#
# _framework density 24.886106999999999
#
# number of rings (size 3 to 8) (size 9 to 14) (size 15 to 20)
#    0.000    0.750    5.000    3.000    3.500    1.000 
#    0.000    0.625    0.000    0.000    0.000    0.000 
#    0.000    0.000    0.000    0.000    0.000    0.000 
#
# Total GULP energy -357996.006318 kJ/mol
# GULP energy per Si atom -5593.687599 kJ/mol
# Density = 2.482946 g / cm^3
# Si number density = 24.886107 Si / 1000 Ang^3
#
#
#
# Elastic Constant Matrix: (Units=GPa)
#
#
# Indices 1 2 3 4 5 6 
#
# 1 125.7261 17.0294 15.2684 0.0000 0.0000 0.0000
# 2 17.0294 69.7080 -11.3764 0.0000 0.0000 0.0000
# 3 15.2684 -11.3764 52.1104 0.0000 0.0000 0.0000
# 4 0.0000 0.0000 0.0000 20.7753 0.0000 0.0000
# 5 0.0000 0.0000 0.0000 0.0000 10.8417 0.0000
# 6 0.0000 0.0000 0.0000 0.0000 0.0000 20.9407
#
#
#
# Elastic Compliance Matrix: (Units=1/GPa)
#
#
# Indices 1 2 3 4 5 6 
#
# 1 0.008689 -0.002632 -0.003121 0.000000 0.000000 0.000000
# 2 -0.002632 0.015673 0.004193 0.000000 0.000000 0.000000
# 3 -0.003121 0.004193 0.021020 0.000000 0.000000 0.000000
# 4 0.000000 0.000000 0.000000 0.048134 0.000000 0.000000
# 5 0.000000 0.000000 0.000000 0.000000 0.092236 0.000000
# 6 0.000000 0.000000 0.000000 0.000000 0.000000 0.047754
#
#
# Mechanical properties :
#
#
# Convention : Reuss Voigt Hill
#
# Bulk Modulus (GPa) = 23.66185 32.15416 27.90800
# Shear Modulus (GPa) = 19.94311 25.61976 22.78143
#
# Velocity S-wave (km/s) = 2.83393 3.21203 3.02889
# Velocity P-wave (km/s) = 4.49854 5.16767 4.84467
#
# Compressibility (1/GPa) = 0.04226212
#
# Stress axis : x y z
#
# Youngs Moduli (GPa) = 115.08443 63.80472 47.57444
#
# Poissons Ratio (x) = 0.16794 0.14846
# Poissons Ratio (y) = 0.30291 -0.19947
# Poissons Ratio (z) = 0.35913 -0.26752
#
# Static dielectric constant tensor:
#      x y z
#    x 1.923020 0.000000 0.000000 
#    y 0.000000 1.995670 0.000000 
#    z 0.000000 0.000000 2.034590 
# 
# From -- ./inp_files/17236.got.cif
#   From: 2010.05.17/outbox.cif.g08.bks.cpg/sg52_9_cif.got.tgz:17236.got - 2010.06.03 12:15:38.
