data_PCOD9412823
_publ_section_title
;
Structure prediction by ZEFSAII (Michael W. Deem and Ramdas Pophale) SiO2 
 PCOD9412823
Probable space group: P N N A
;
_chemical_formula_sum "Si O2"
_cell_formula_units_Z 32
_cell_length_a 9.404301
_cell_length_b 27.590315
_cell_length_c 5.118076
_cell_angle_alpha 90.000000
_cell_angle_beta 90.000000
_cell_angle_gamma 90.000000
_cell_volume 1327.975034
_symmetry_space_group_name_H-M "P N N A"
_symmetry_group_IT_number 52
_symmetry_cell_setting 'orthorhombic'
loop_
_space_group_symop_operation_xyz
x,y,z
1/2-x,-y,z
x,1/2-y,1/2-z
1/2-x,1/2+y,1/2-z
-x,-y,-z
1/2+x,y,-z
-x,1/2+y,1/2+z
1/2+x,1/2-y,1/2+z
loop_
_atom_site_type_symbol
_atom_site_label
_atom_site_fract_x
_atom_site_fract_y
_atom_site_fract_z
Si Si1 0.087242 0.518712 0.753259
Si Si2 0.893772 0.303706 0.708866
Si Si3 0.704867 0.881627 0.433978
Si Si4 0.865646 0.852236 0.925903
O O1 0.250000 0.500000 0.736657
O O2 0.108997 0.575233 0.823537
O O3 0.000000 0.500000 0.500000
O O4 0.000000 0.500000 0.000000
O O5 0.949161 0.250000 0.750000
O O6 0.728902 0.304070 0.625766
O O7 0.977427 0.334455 0.492188
O O8 0.890275 0.336260 0.969624
O O9 0.802531 0.887637 0.698979
O O10 0.814404 0.872255 0.203421
#
# Coordination Sequence:
#
# PCOD9412823 Si02
#       4
#     8   8   8   8
#     4  12  28  51  83 113 156 201 263 329 407 479
#     4  10  26  45  74 105 153 199 260 310 383 463
#     4  10  26  46  73 107 149 194 258 312 394 456
#     4  10  25  43  71 101 148 193 247 311 379 448
#
# _framework density 24.096837000000001
#
# number of rings (size 3 to 8) (size 9 to 14) (size 15 to 20)
#    1.500    0.000    0.000    2.250   10.500    0.000 
#    0.000    0.000    0.000    0.000    0.000    0.000 
#    0.000    0.000    0.000    0.000    0.000    0.000 
#
# Total GULP energy -178364.438122 kJ/mol
# GULP energy per Si atom -5573.888691 kJ/mol
# Density = 2.404199 g / cm^3
# Si number density = 24.096837 Si / 1000 Ang^3
#
#
#
# Elastic Constant Matrix: (Units=GPa)
#
#
# Indices 1 2 3 4 5 6 
#
# 1 118.4412 27.2025 49.4803 0.0000 0.0000 0.0000
# 2 27.2025 122.7823 38.9170 0.0000 0.0000 0.0000
# 3 49.4803 38.9170 226.3678 0.0000 0.0000 0.0000
# 4 0.0000 0.0000 0.0000 38.6534 0.0000 0.0000
# 5 0.0000 0.0000 0.0000 0.0000 8.1891 0.0000
# 6 0.0000 0.0000 0.0000 0.0000 0.0000 5.7681
#
#
#
# Elastic Compliance Matrix: (Units=1/GPa)
#
#
# Indices 1 2 3 4 5 6 
#
# 1 0.009559 -0.001539 -0.001825 0.000000 0.000000 0.000000
# 2 -0.001539 0.008862 -0.001187 0.000000 0.000000 0.000000
# 3 -0.001825 -0.001187 0.005021 0.000000 0.000000 0.000000
# 4 0.000000 0.000000 0.000000 0.025871 0.000000 0.000000
# 5 0.000000 0.000000 0.000000 0.000000 0.122113 0.000000
# 6 0.000000 0.000000 0.000000 0.000000 0.000000 0.173367
#
#
# Mechanical properties :
#
#
# Convention : Reuss Voigt Hill
#
# Bulk Modulus (GPa) = 69.74072 77.64342 73.69207
# Shear Modulus (GPa) = 13.94024 33.98822 23.96423
#
# Velocity S-wave (km/s) = 2.40783 3.75972 3.15699
# Velocity P-wave (km/s) = 6.06093 7.15113 6.62848
#
# Compressibility (1/GPa) = 0.01433882
#
# Stress axis : x y z
#
# Youngs Moduli (GPa) = 104.61474 112.84403 199.18233
#
# Poissons Ratio (x) = 0.17371 0.36346
# Poissons Ratio (y) = 0.16104 0.23643
# Poissons Ratio (z) = 0.19090 0.13395
#
# Static dielectric constant tensor:
#      x y z
#    x 2.087830 0.000000 0.000000 
#    y 0.000000 1.962690 0.000000 
#    z 0.000000 0.000000 1.970870 
# 
# From -- ./inp_files/438.got.cif
#   From: 2010.05.17/outbox.cif.g08.bks.cpg/sg52_1_cif.got.tgz:438.got - 2010.06.03 12:15:38.
