data_PCOD9412014
_publ_section_title
;
Structure prediction by ZEFSAII (Michael W. Deem and Ramdas Pophale) SiO2 
 PCOD9412014
Probable space group: P N N A
;
_chemical_formula_sum "Si O2"
_cell_formula_units_Z 48
_cell_length_a 31.760474
_cell_length_b 7.553065
_cell_length_c 7.950092
_cell_angle_alpha 90.000000
_cell_angle_beta 90.000000
_cell_angle_gamma 90.000000
_cell_volume 1907.139020
_symmetry_space_group_name_H-M "P N N A"
_symmetry_group_IT_number 52
_symmetry_cell_setting 'orthorhombic'
loop_
_space_group_symop_operation_xyz
x,y,z
1/2-x,-y,z
x,1/2-y,1/2-z
1/2-x,1/2+y,1/2-z
-x,-y,-z
1/2+x,y,-z
-x,1/2+y,1/2+z
1/2+x,1/2-y,1/2+z
loop_
_atom_site_type_symbol
_atom_site_label
_atom_site_fract_x
_atom_site_fract_y
_atom_site_fract_z
Si Si1 0.071283 0.250000 0.750000
Si Si2 0.350418 0.250000 0.250000
Si Si3 0.995436 0.042762 0.297969
Si Si4 0.769127 0.692457 0.940809
Si Si5 0.910601 0.958765 0.790822
Si Si6 0.855802 0.805367 0.049198
Si Si7 0.306048 0.368797 0.595840
O O1 0.040087 0.413877 0.723693
O O2 0.107063 0.317155 0.880078
O O3 0.381942 0.405363 0.189602
O O4 0.323495 0.315925 0.409270
O O5 0.988128 0.250000 0.250000
O O6 0.040798 0.994653 0.218901
O O7 0.000000 0.000000 0.500000
O O8 0.750000 0.500000 0.971338
O O9 0.760666 0.750000 0.750000
O O10 0.819943 0.697798 0.952131
O O11 0.742983 0.821231 0.063393
O O12 0.907313 0.750000 0.750000
O O13 0.887001 0.952605 0.968210
O O14 0.823817 0.937504 0.145744
O O15 0.320607 0.250000 0.750000
#
# Coordination Sequence:
#
# PCOD9412014 Si02
#       7
#     4   4   8   8   8   8   8
#     4  12  27  46  74 112 158 204 262 340 407 484
#     4  10  23  44  70 112 148 202 258 316 389 470
#     4  11  26  48  76 113 154 204 266 333 420 494
#     4  12  27  47  78 107 151 206 261 327 401 478
#     4  10  22  42  74 103 147 200 255 319 393 476
#     4  11  27  46  71 109 152 201 265 319 404 483
#     4  11  26  45  74 107 151 201 261 322 393 468
#
# _framework density 25.168590999999999
#
# number of rings (size 3 to 8) (size 9 to 14) (size 15 to 20)
#    0.000    1.000    0.833    4.500    8.167    7.333 
#    0.000    0.000    0.000    0.000    0.000    0.000 
#    0.000    0.000    0.000    0.000    0.000    0.000 
#
# Total GULP energy -267409.592517 kJ/mol
# GULP energy per Si atom -5571.033177 kJ/mol
# Density = 2.511131 g / cm^3
# Si number density = 25.168591 Si / 1000 Ang^3
#
#
#
# Elastic Constant Matrix: (Units=GPa)
#
#
# Indices 1 2 3 4 5 6 
#
# 1 255.7393 76.2199 40.8802 0.0000 0.0000 0.0000
# 2 76.2199 122.7109 16.8764 0.0000 0.0000 0.0000
# 3 40.8802 16.8764 74.6765 0.0000 0.0000 0.0000
# 4 0.0000 0.0000 0.0000 31.0668 0.0000 0.0000
# 5 0.0000 0.0000 0.0000 0.0000 30.9718 0.0000
# 6 0.0000 0.0000 0.0000 0.0000 0.0000 100.6511
#
#
#
# Elastic Compliance Matrix: (Units=1/GPa)
#
#
# Indices 1 2 3 4 5 6 
#
# 1 0.005112 -0.002880 -0.002148 0.000000 0.000000 0.000000
# 2 -0.002880 0.010033 -0.000691 0.000000 0.000000 0.000000
# 3 -0.002148 -0.000691 0.014723 0.000000 0.000000 0.000000
# 4 0.000000 0.000000 0.000000 0.032189 0.000000 0.000000
# 5 0.000000 0.000000 0.000000 0.000000 0.032287 0.000000
# 6 0.000000 0.000000 0.000000 0.000000 0.000000 0.009935
#
#
# Mechanical properties :
#
#
# Convention : Reuss Voigt Hill
#
# Bulk Modulus (GPa) = 54.25584 80.11996 67.18790
# Shear Modulus (GPa) = 41.03094 53.81463 47.42279
#
# Velocity S-wave (km/s) = 4.04201 4.62905 4.34545
# Velocity P-wave (km/s) = 6.58692 7.77645 7.20627
#
# Compressibility (1/GPa) = 0.01843119
#
# Stress axis : x y z
#
# Youngs Moduli (GPa) = 195.62601 99.67132 67.92155
#
# Poissons Ratio (x) = 0.28703 0.14586
# Poissons Ratio (y) = 0.56336 0.04693
# Poissons Ratio (z) = 0.42012 0.06886
#
# Static dielectric constant tensor:
#      x y z
#    x 1.979450 0.000000 0.000000 
#    y 0.000000 2.131680 0.000000 
#    z 0.000000 0.000000 2.584360 
# 
# From -- ./inp_files/15571.got.cif
#   From: 2010.05.17/outbox.cif.g08.bks.cpg/sg52_8_cif.got.tgz:15571.got - 2010.06.03 12:15:38.
