data_PCOD9412958
_publ_section_title
;
Structure prediction by ZEFSAII (Michael W. Deem and Ramdas Pophale) SiO2 
 PCOD9412958
Probable space group: P N N A
;
_chemical_formula_sum "Si O2"
_cell_formula_units_Z 48
_cell_length_a 9.627079
_cell_length_b 18.839323
_cell_length_c 15.078204
_cell_angle_alpha 90.000000
_cell_angle_beta 90.000000
_cell_angle_gamma 90.000000
_cell_volume 2734.698438
_symmetry_space_group_name_H-M "P N N A"
_symmetry_group_IT_number 52
_symmetry_cell_setting 'orthorhombic'
loop_
_space_group_symop_operation_xyz
x,y,z
1/2-x,-y,z
x,1/2-y,1/2-z
1/2-x,1/2+y,1/2-z
-x,-y,-z
1/2+x,y,-z
-x,1/2+y,1/2+z
1/2+x,1/2-y,1/2+z
loop_
_atom_site_type_symbol
_atom_site_label
_atom_site_fract_x
_atom_site_fract_y
_atom_site_fract_z
Si Si1 0.521742 0.313264 0.139715
Si Si2 0.820124 0.169257 0.283796
Si Si3 0.562258 0.845699 0.820327
Si Si4 0.222983 0.313090 0.467969
Si Si5 0.704296 0.419561 0.372478
Si Si6 0.040729 0.786391 0.550010
O O1 0.671680 0.340043 0.168358
O O2 0.519417 0.227234 0.151076
O O3 0.414961 0.339435 0.215052
O O4 0.489669 0.330800 0.038960
O O5 0.828192 0.250000 0.250000
O O6 0.808249 0.118519 0.198472
O O7 0.933711 0.167641 0.362022
O O8 0.696219 0.841586 0.881662
O O9 0.453951 0.908548 0.838224
O O10 0.202686 0.377918 0.534762
O O11 0.321963 0.258283 0.522250
O O12 0.084624 0.270307 0.441473
O O13 0.750000 0.500000 0.382222
#
# Coordination Sequence:
#
# PCOD9412958 Si02
#       6
#     8   8   8   8   8   8
#     4   9  15  31  52  72  99 141 173 227 287 325
#     4  11  17  34  54  75 110 143 189 237 268 332
#     4   9  17  32  51  74 109 144 186 218 279 341
#     4  11  19  34  52  84 109 144 180 233 285 337
#     4  11  21  34  55  82 117 158 188 220 282 354
#     4  11  18  32  56  82 109 133 187 237 289 319
#
# _framework density 17.552209999999999
#
# number of rings (size 3 to 8) (size 9 to 14) (size 15 to 20)
#    0.000    1.667   10.000    0.000    0.000    0.667 
#    6.000    0.000    0.000    4.000    0.000    0.000 
#    0.000    0.000    0.000    0.000    0.000    0.000 
#
# Total GULP energy -267295.806744 kJ/mol
# GULP energy per Si atom -5568.662640 kJ/mol
# Density = 1.751226 g / cm^3
# Si number density = 17.552210 Si / 1000 Ang^3
#
#
#
# Elastic Constant Matrix: (Units=GPa)
#
#
# Indices 1 2 3 4 5 6 
#
# 1 54.3056 13.6492 35.4192 0.0000 0.0000 0.0000
# 2 13.6492 39.7426 22.5212 0.0000 0.0000 0.0000
# 3 35.4192 22.5212 140.5644 0.0000 0.0000 0.0000
# 4 0.0000 0.0000 0.0000 13.0476 0.0000 0.0000
# 5 0.0000 0.0000 0.0000 0.0000 33.2959 0.0000
# 6 0.0000 0.0000 0.0000 0.0000 0.0000 6.4141
#
#
#
# Elastic Compliance Matrix: (Units=1/GPa)
#
#
# Indices 1 2 3 4 5 6 
#
# 1 0.022925 -0.005059 -0.004966 0.000000 0.000000 0.000000
# 2 -0.005059 0.028791 -0.003338 0.000000 0.000000 0.000000
# 3 -0.004966 -0.003338 0.008900 0.000000 0.000000 0.000000
# 4 0.000000 0.000000 0.000000 0.076642 0.000000 0.000000
# 5 0.000000 0.000000 0.000000 0.000000 0.030034 0.000000
# 6 0.000000 0.000000 0.000000 0.000000 0.000000 0.155906
#
#
# Mechanical properties :
#
#
# Convention : Reuss Voigt Hill
#
# Bulk Modulus (GPa) = 29.50751 41.97686 35.74219
# Shear Modulus (GPa) = 13.84193 21.41973 17.63083
#
# Velocity S-wave (km/s) = 2.81128 3.49713 3.17279
# Velocity P-wave (km/s) = 5.23311 6.34617 5.81633
#
# Compressibility (1/GPa) = 0.03388968
#
# Stress axis : x y z
#
# Youngs Moduli (GPa) = 43.62089 34.73297 112.35548
#
# Poissons Ratio (x) = 0.17572 0.55795
# Poissons Ratio (y) = 0.22069 0.37505
# Poissons Ratio (z) = 0.21662 0.11594
#
# Static dielectric constant tensor:
#      x y z
#    x 1.638430 0.000000 0.000000 
#    y 0.000000 1.572420 0.000000 
#    z 0.000000 0.000000 1.686550 
# 
# From -- ./inp_files/26240.got.cif
#   From: 2010.05.17/outbox.cif.g08.bks.cpg/sg52_14_cif.got.tgz:26240.got - 2010.06.03 12:15:38.
