data_PCOD9412942
_publ_section_title
;
Structure prediction by ZEFSAII (Michael W. Deem and Ramdas Pophale) SiO2 
 PCOD9412942
Probable space group: P N N A
;
_chemical_formula_sum "Si O2"
_cell_formula_units_Z 24
_cell_length_a 17.622652
_cell_length_b 10.138031
_cell_length_c 5.635735
_cell_angle_alpha 90.000000
_cell_angle_beta 90.000000
_cell_angle_gamma 90.000000
_cell_volume 1006.874736
_symmetry_space_group_name_H-M "P N N A"
_symmetry_group_IT_number 52
_symmetry_cell_setting 'orthorhombic'
loop_
_space_group_symop_operation_xyz
x,y,z
1/2-x,-y,z
x,1/2-y,1/2-z
1/2-x,1/2+y,1/2-z
-x,-y,-z
1/2+x,y,-z
-x,1/2+y,1/2+z
1/2+x,1/2-y,1/2+z
loop_
_atom_site_type_symbol
_atom_site_label
_atom_site_fract_x
_atom_site_fract_y
_atom_site_fract_z
Si Si1 0.492710 0.250000 0.750000
Si Si2 0.250000 0.500000 0.740639
Si Si3 0.865064 0.872450 0.606557
Si Si4 0.130249 0.627854 0.429636
O O1 0.550142 0.182842 0.560610
O O2 0.438324 0.349338 0.612066
O O3 0.205723 0.605504 0.582235
O O4 0.187604 0.424538 0.898551
O O5 0.828676 0.750000 0.750000
O O6 0.877681 0.994835 0.780874
O O7 0.134101 0.750000 0.250000
#
# Coordination Sequence:
#
# PCOD9412942 Si02
#       4
#     4   4   8   8
#     4  10  26  52  80 110 156 200 262 312 388 456
#     4  12  28  50  78 116 160 206 258 320 388 452
#     4  10  27  50  76 111 152 202 257 317 380 459
#     4  12  27  47  78 112 156 202 259 318 380 459
#
# _framework density 23.836131000000002
#
# number of rings (size 3 to 8) (size 9 to 14) (size 15 to 20)
#    1.000    0.000    0.000    4.000    0.000   22.667 
#    0.000    0.000    0.000    0.000    0.000    0.000 
#    0.000    0.000    0.000    0.000    0.000    0.000 
#
# Total GULP energy -134399.496298 kJ/mol
# GULP energy per Si atom -5599.979012 kJ/mol
# Density = 2.378188 g / cm^3
# Si number density = 23.836131 Si / 1000 Ang^3
#
#
#
# Elastic Constant Matrix: (Units=GPa)
#
#
# Indices 1 2 3 4 5 6 
#
# 1 173.7844 32.1839 52.2842 0.0000 0.0000 0.0000
# 2 32.1839 128.2664 18.2052 0.0000 0.0000 0.0000
# 3 52.2842 18.2052 45.4498 0.0000 0.0000 0.0000
# 4 0.0000 0.0000 0.0000 -0.7476 0.0000 0.0000
# 5 0.0000 0.0000 0.0000 0.0000 -66.7082 0.0000
# 6 0.0000 0.0000 0.0000 0.0000 0.0000 72.2069
#
#
#
# Elastic Compliance Matrix: (Units=1/GPa)
#
#
# Indices 1 2 3 4 5 6 
#
# 1 0.008882 -0.000825 -0.009886 0.000000 0.000000 0.000000
# 2 -0.000825 0.008343 -0.002392 0.000000 0.000000 0.000000
# 3 -0.009886 -0.002392 0.034334 0.000000 0.000000 0.000000
# 4 0.000000 0.000000 0.000000 -1.337593 0.000000 0.000000
# 5 0.000000 0.000000 0.000000 0.000000 -0.014991 0.000000
# 6 0.000000 0.000000 0.000000 0.000000 0.000000 0.013849
#
#
# Mechanical properties :
#
#
# Convention : Reuss Voigt Hill
#
# Bulk Modulus (GPa) = 39.44804 61.42745 50.43775
# Shear Modulus (GPa) = -3.99196 17.27204 6.64004
#
# Velocity S-wave (km/s) = -1.29553 2.69479 1.67085
# Velocity P-wave (km/s) = 3.78784 5.95896 4.99284
#
# Compressibility (1/GPa) = 0.02534980
#
# Stress axis : x y z
#
# Youngs Moduli (GPa) = 112.59358 119.86221 29.12590
#
# Poissons Ratio (x) = 0.09892 0.28795
# Poissons Ratio (y) = 0.09292 0.06968
# Poissons Ratio (z) = 1.11315 0.28676
#
# Static dielectric constant tensor:
#      x y z
#    x 1.903740 0.000000 0.000000 
#    y 0.000000 1.904550 0.000000 
#    z 0.000000 0.000000 1.885820 
# 
# From -- ./inp_files/1678.got.cif
#   From: 2010.05.17/outbox.cif.g08.bks.cpg/sg52_1_cif.got.tgz:1678.got - 2010.06.03 12:15:38.
