data_PCOD9412415
_publ_section_title
;
Structure prediction by ZEFSAII (Michael W. Deem and Ramdas Pophale) SiO2 
 PCOD9412415
Probable space group: P N N A
;
_chemical_formula_sum "Si O2"
_cell_formula_units_Z 40
_cell_length_a 16.807388
_cell_length_b 12.046025
_cell_length_c 9.492247
_cell_angle_alpha 90.000000
_cell_angle_beta 90.000000
_cell_angle_gamma 90.000000
_cell_volume 1921.821363
_symmetry_space_group_name_H-M "P N N A"
_symmetry_group_IT_number 52
_symmetry_cell_setting 'orthorhombic'
loop_
_space_group_symop_operation_xyz
x,y,z
1/2-x,-y,z
x,1/2-y,1/2-z
1/2-x,1/2+y,1/2-z
-x,-y,-z
1/2+x,y,-z
-x,1/2+y,1/2+z
1/2+x,1/2-y,1/2+z
loop_
_atom_site_type_symbol
_atom_site_label
_atom_site_fract_x
_atom_site_fract_y
_atom_site_fract_z
Si Si1 0.697234 0.162385 0.471297
Si Si2 0.250000 0.500000 0.203884
Si Si3 0.841591 0.122154 0.250627
Si Si4 0.565673 0.750000 0.750000
Si Si5 0.809737 0.346613 0.560213
Si Si6 0.957196 0.935249 0.371606
O O1 0.700552 0.076129 0.599093
O O2 0.762224 0.128861 0.349856
O O3 0.729555 0.277007 0.533786
O O4 0.608199 0.156960 0.417203
O O5 0.198153 0.573220 0.308202
O O6 0.871840 0.250000 0.250000
O O7 0.903772 0.032121 0.303032
O O8 0.824631 0.095591 0.087932
O O9 0.620862 0.736621 0.610622
O O10 0.516154 0.863310 0.725807
O O11 0.000000 0.000000 0.500000
#
# Coordination Sequence:
#
# PCOD9412415 Si02
#       6
#     8   4   8   4   8   8
#     4  11  22  44  70  99 130 189 240 274 343 424
#     4  12  20  38  74  94 134 176 240 284 336 392
#     4  10  23  43  74  95 135 184 242 278 337 423
#     4  12  26  44  68 104 150 176 224 298 368 402
#     4  11  25  44  67 103 134 182 232 291 331 427
#     4  12  25  43  71 100 145 183 223 295 362 412
#
# _framework density 20.813589
#
# number of rings (size 3 to 8) (size 9 to 14) (size 15 to 20)
#    0.000    0.800    4.000    3.600    7.000    0.800 
#    0.000    8.000    0.000    0.000    0.000    0.000 
#    0.000    0.000    0.000    0.000    0.000    0.000 
#
# Total GULP energy -223347.048683 kJ/mol
# GULP energy per Si atom -5583.676217 kJ/mol
# Density = 2.076622 g / cm^3
# Si number density = 20.813589 Si / 1000 Ang^3
#
#
#
# Elastic Constant Matrix: (Units=GPa)
#
#
# Indices 1 2 3 4 5 6 
#
# 1 90.4235 33.5450 36.0928 0.0000 0.0000 0.0000
# 2 33.5450 58.3347 17.7143 0.0000 0.0000 0.0000
# 3 36.0928 17.7143 117.7058 0.0000 0.0000 0.0000
# 4 0.0000 0.0000 0.0000 31.2028 0.0000 0.0000
# 5 0.0000 0.0000 0.0000 0.0000 12.5876 0.0000
# 6 0.0000 0.0000 0.0000 0.0000 0.0000 22.9770
#
#
#
# Elastic Compliance Matrix: (Units=1/GPa)
#
#
# Indices 1 2 3 4 5 6 
#
# 1 0.015347 -0.007750 -0.003540 0.000000 0.000000 0.000000
# 2 -0.007750 0.021877 -0.000916 0.000000 0.000000 0.000000
# 3 -0.003540 -0.000916 0.009719 0.000000 0.000000 0.000000
# 4 0.000000 0.000000 0.000000 0.032048 0.000000 0.000000
# 5 0.000000 0.000000 0.000000 0.000000 0.079443 0.000000
# 6 0.000000 0.000000 0.000000 0.000000 0.000000 0.043522
#
#
# Mechanical properties :
#
#
# Convention : Reuss Voigt Hill
#
# Bulk Modulus (GPa) = 44.38193 49.01870 46.70031
# Shear Modulus (GPa) = 21.37854 25.29427 23.33641
#
# Velocity S-wave (km/s) = 3.20838 3.48986 3.35208
# Velocity P-wave (km/s) = 5.92409 6.31200 6.12111
#
# Compressibility (1/GPa) = 0.02253169
#
# Stress axis : x y z
#
# Youngs Moduli (GPa) = 65.15883 45.70926 102.89169
#
# Poissons Ratio (x) = 0.35427 0.36419
# Poissons Ratio (y) = 0.50501 0.09424
# Poissons Ratio (z) = 0.23063 0.04187
#
# Static dielectric constant tensor:
#      x y z
#    x 1.783440 0.000000 0.000000 
#    y 0.000000 1.807850 0.000000 
#    z 0.000000 0.000000 1.747320 
# 
# From -- ./inp_files/11662.got.cif
#   From: 2010.05.17/outbox.cif.g08.bks.cpg/sg52_6_cif.got.tgz:11662.got - 2010.06.03 12:15:38.
