data_PCOD9412605
_publ_section_title
;
Structure prediction by ZEFSAII (Michael W. Deem and Ramdas Pophale) SiO2 
 PCOD9412605
Probable space group: P N N A
;
_chemical_formula_sum "Si O2"
_cell_formula_units_Z 48
_cell_length_a 8.293170
_cell_length_b 14.673670
_cell_length_c 18.444907
_cell_angle_alpha 90.000000
_cell_angle_beta 90.000000
_cell_angle_gamma 90.000000
_cell_volume 2244.583601
_symmetry_space_group_name_H-M "P N N A"
_symmetry_group_IT_number 52
_symmetry_cell_setting 'orthorhombic'
loop_
_space_group_symop_operation_xyz
x,y,z
1/2-x,-y,z
x,1/2-y,1/2-z
1/2-x,1/2+y,1/2-z
-x,-y,-z
1/2+x,y,-z
-x,1/2+y,1/2+z
1/2+x,1/2-y,1/2+z
loop_
_atom_site_type_symbol
_atom_site_label
_atom_site_fract_x
_atom_site_fract_y
_atom_site_fract_z
Si Si1 0.389779 0.310816 0.027391
Si Si2 0.750000 0.500000 0.513830
Si Si3 0.679508 0.099500 0.231462
Si Si4 0.048891 0.750000 0.750000
Si Si5 0.556223 0.339762 0.890973
Si Si6 0.976231 0.619320 0.418189
Si Si7 0.927285 0.536966 0.114184
O O1 0.213641 0.320300 0.061493
O O2 0.470040 0.217440 0.053658
O O3 0.491260 0.397588 0.055999
O O4 0.402593 0.312260 0.940513
O O5 0.675838 0.421057 0.462688
O O6 0.885289 0.453799 0.563310
O O7 0.830223 0.167169 0.233424
O O8 0.562240 0.125425 0.166493
O O9 0.597706 0.091309 0.310443
O O10 0.750000 0.000000 0.215630
O O11 0.945197 0.719643 0.818706
O O12 0.534655 0.446609 0.873743
O O13 0.750000 0.500000 0.092307
#
# Coordination Sequence:
#
# PCOD9412605 Si02
#       7
#     8   4   8   4   8   8   8
#     4  12  27  45  73 109 145 190 243 307 366 441
#     4  10  24  42  66 102 142 186 252 306 364 432
#     4  11  23  43  73 100 138 190 236 291 367 435
#     4  12  26  46  76 104 142 188 242 296 360 446
#     4  12  27  46  74 105 148 190 246 301 367 433
#     4  11  24  44  69 103 141 190 242 302 366 439
#     4  11  23  48  71 107 141 193 239 299 367 434
#
# _framework density 21.384812
#
# number of rings (size 3 to 8) (size 9 to 14) (size 15 to 20)
#    0.000    0.667    4.167    4.000    4.667    2.667 
#    3.000    0.000    0.000    0.000    0.000    0.000 
#    0.000    0.000    0.000    0.000    0.000    0.000 
#
# Total GULP energy -268750.918240 kJ/mol
# GULP energy per Si atom -5598.977463 kJ/mol
# Density = 2.133614 g / cm^3
# Si number density = 21.384812 Si / 1000 Ang^3
#
#
#
# Elastic Constant Matrix: (Units=GPa)
#
#
# Indices 1 2 3 4 5 6 
#
# 1 80.5974 8.3106 32.3404 0.0000 0.0000 0.0000
# 2 8.3106 95.5417 10.9517 0.0000 0.0000 0.0000
# 3 32.3404 10.9517 103.8420 0.0000 0.0000 0.0000
# 4 0.0000 0.0000 0.0000 35.8932 0.0000 0.0000
# 5 0.0000 0.0000 0.0000 0.0000 32.7616 0.0000
# 6 0.0000 0.0000 0.0000 0.0000 0.0000 29.6940
#
#
#
# Elastic Compliance Matrix: (Units=1/GPa)
#
#
# Indices 1 2 3 4 5 6 
#
# 1 0.014231 -0.000739 -0.004354 0.000000 0.000000 0.000000
# 2 -0.000739 0.010633 -0.000891 0.000000 0.000000 0.000000
# 3 -0.004354 -0.000891 0.011080 0.000000 0.000000 0.000000
# 4 0.000000 0.000000 0.000000 0.027860 0.000000 0.000000
# 5 0.000000 0.000000 0.000000 0.000000 0.030524 0.000000
# 6 0.000000 0.000000 0.000000 0.000000 0.000000 0.033677
#
#
# Mechanical properties :
#
#
# Convention : Reuss Voigt Hill
#
# Bulk Modulus (GPa) = 41.70934 42.57629 42.14281
# Shear Modulus (GPa) = 33.79186 34.89499 34.34343
#
# Velocity S-wave (km/s) = 3.97946 4.04389 4.01181
# Velocity P-wave (km/s) = 6.37662 6.46196 6.41943
#
# Compressibility (1/GPa) = 0.02397544
#
# Stress axis : x y z
#
# Youngs Moduli (GPa) = 70.27100 94.04630 90.25243
#
# Poissons Ratio (x) = 0.06948 0.39296
# Poissons Ratio (y) = 0.05191 0.08045
# Poissons Ratio (z) = 0.30596 0.08383
#
# Static dielectric constant tensor:
#      x y z
#    x 1.791930 0.000000 0.000000 
#    y 0.000000 1.742980 0.000000 
#    z 0.000000 0.000000 1.783260 
# 
# From -- ./inp_files/31274.got.cif
#   From: 2010.05.17/outbox.cif.g08.bks.cpg/sg52_16_cif.got.tgz:31274.got - 2010.06.03 12:15:38.
