data_PCOD9412454
_publ_section_title
;
Structure prediction by ZEFSAII (Michael W. Deem and Ramdas Pophale) SiO2 
 PCOD9412454
Probable space group: P N N A
;
_chemical_formula_sum "Si O2"
_cell_formula_units_Z 40
_cell_length_a 10.789144
_cell_length_b 8.110640
_cell_length_c 18.793934
_cell_angle_alpha 90.000000
_cell_angle_beta 90.000000
_cell_angle_gamma 90.000000
_cell_volume 1644.598206
_symmetry_space_group_name_H-M "P N N A"
_symmetry_group_IT_number 52
_symmetry_cell_setting 'orthorhombic'
loop_
_space_group_symop_operation_xyz
x,y,z
1/2-x,-y,z
x,1/2-y,1/2-z
1/2-x,1/2+y,1/2-z
-x,-y,-z
1/2+x,y,-z
-x,1/2+y,1/2+z
1/2+x,1/2-y,1/2+z
loop_
_atom_site_type_symbol
_atom_site_label
_atom_site_fract_x
_atom_site_fract_y
_atom_site_fract_z
Si Si1 0.237034 0.820864 0.118496
Si Si2 0.010886 0.908634 0.208031
Si Si3 0.388175 0.472613 0.834625
Si Si4 0.489598 0.332370 0.596371
Si Si5 0.483759 0.165114 0.455111
O O1 0.151592 0.862008 0.186799
O O2 0.377793 0.771396 0.128315
O O3 0.154519 0.694674 0.074190
O O4 0.250000 0.000000 0.080462
O O5 0.956864 0.750000 0.250000
O O6 0.983121 0.040721 0.269040
O O7 0.964473 0.992407 0.134329
O O8 0.250000 0.500000 0.807342
O O9 0.391028 0.303168 0.879051
O O10 0.431269 0.621378 0.887202
O O11 0.506539 0.311266 0.511653
O O12 0.500000 0.000000 0.500000
#
# Coordination Sequence:
#
# PCOD9412454 Si02
#       5
#     8   8   8   8   8
#     4  10  23  44  71 106 148 191 252 318 385 458
#     4  11  23  45  66 106 145 194 246 313 382 458
#     4  11  25  46  71 108 152 201 252 311 396 470
#     4  10  25  43  74 108 144 198 250 312 387 453
#     4  10  23  44  71 108 148 198 255 317 391 463
#
# _framework density 24.322047999999999
#
# number of rings (size 3 to 8) (size 9 to 14) (size 15 to 20)
#    0.000    1.600    2.000    0.600    5.600   12.000 
#    0.000    1.000    0.000    0.000    0.000    0.000 
#    0.000    0.000    0.000    0.000    0.000    0.000 
#
# Total GULP energy -222875.260131 kJ/mol
# GULP energy per Si atom -5571.881503 kJ/mol
# Density = 2.426669 g / cm^3
# Si number density = 24.322048 Si / 1000 Ang^3
#
#
#
# Elastic Constant Matrix: (Units=GPa)
#
#
# Indices 1 2 3 4 5 6 
#
# 1 87.2198 18.9877 22.2096 0.0000 0.0000 0.0000
# 2 18.9877 116.7560 39.2551 0.0000 0.0000 0.0000
# 3 22.2096 39.2551 164.9885 0.0000 0.0000 0.0000
# 4 0.0000 0.0000 0.0000 54.6741 0.0000 0.0000
# 5 0.0000 0.0000 0.0000 0.0000 16.5958 0.0000
# 6 0.0000 0.0000 0.0000 0.0000 0.0000 35.3102
#
#
#
# Elastic Compliance Matrix: (Units=1/GPa)
#
#
# Indices 1 2 3 4 5 6 
#
# 1 0.012124 -0.001547 -0.001264 0.000000 0.000000 0.000000
# 2 -0.001547 0.009507 -0.002054 0.000000 0.000000 0.000000
# 3 -0.001264 -0.002054 0.006720 0.000000 0.000000 0.000000
# 4 0.000000 0.000000 0.000000 0.018290 0.000000 0.000000
# 5 0.000000 0.000000 0.000000 0.000000 0.060256 0.000000
# 6 0.000000 0.000000 0.000000 0.000000 0.000000 0.028320
#
#
# Mechanical properties :
#
#
# Convention : Reuss Voigt Hill
#
# Bulk Modulus (GPa) = 53.70084 58.87435 56.28759
# Shear Modulus (GPa) = 33.07896 40.55016 36.81456
#
# Velocity S-wave (km/s) = 3.69187 4.08759 3.89476
# Velocity P-wave (km/s) = 6.34825 6.82177 6.58926
#
# Compressibility (1/GPa) = 0.01862168
#
# Stress axis : x y z
#
# Youngs Moduli (GPa) = 82.48185 105.18677 148.81345
#
# Poissons Ratio (x) = 0.16269 0.18811
# Poissons Ratio (y) = 0.12757 0.30562
# Poissons Ratio (z) = 0.10426 0.21603
#
# Static dielectric constant tensor:
#      x y z
#    x 1.886740 0.000000 0.000000 
#    y 0.000000 2.174500 0.000000 
#    z 0.000000 0.000000 2.009270 
# 
# From -- ./inp_files/31943.got.cif
#   From: 2010.05.17/outbox.cif.g08.bks.cpg/sg52_16_cif.got.tgz:31943.got - 2010.06.03 12:15:38.
