data_PCOD9412597
_publ_section_title
;
Structure prediction by ZEFSAII (Michael W. Deem and Ramdas Pophale) SiO2 
 PCOD9412597
Probable space group: P N N A
;
_chemical_formula_sum "Si O2"
_cell_formula_units_Z 48
_cell_length_a 12.118405
_cell_length_b 20.792538
_cell_length_c 8.602756
_cell_angle_alpha 90.000000
_cell_angle_beta 90.000000
_cell_angle_gamma 90.000000
_cell_volume 2167.657045
_symmetry_space_group_name_H-M "P N N A"
_symmetry_group_IT_number 52
_symmetry_cell_setting 'orthorhombic'
loop_
_space_group_symop_operation_xyz
x,y,z
1/2-x,-y,z
x,1/2-y,1/2-z
1/2-x,1/2+y,1/2-z
-x,-y,-z
1/2+x,y,-z
-x,1/2+y,1/2+z
1/2+x,1/2-y,1/2+z
loop_
_atom_site_type_symbol
_atom_site_label
_atom_site_fract_x
_atom_site_fract_y
_atom_site_fract_z
Si Si1 0.908596 0.945989 0.676396
Si Si2 0.334536 0.083461 0.248122
Si Si3 0.276328 0.680937 0.685206
Si Si4 0.417992 0.720788 0.416137
Si Si5 0.479353 0.652201 0.907482
Si Si6 0.581817 0.600203 0.402027
O O1 0.797315 0.911898 0.741529
O O2 0.947662 0.904454 0.528750
O O3 0.007317 0.947501 0.801768
O O4 0.871008 0.019410 0.657345
O O5 0.402990 0.139785 0.329255
O O6 0.376111 0.077310 0.070118
O O7 0.237166 0.750000 0.750000
O O8 0.311836 0.696237 0.509517
O O9 0.385012 0.658118 0.776367
O O10 0.186710 0.625544 0.693159
O O11 0.390142 0.750000 0.250000
O O12 0.473553 0.779876 0.507079
O O13 0.503981 0.662743 0.414473
#
# Coordination Sequence:
#
# PCOD9412597 Si02
#       6
#     8   8   8   8   8   8
#     4  11  26  45  70 100 134 185 231 280 338 407
#     4  11  26  46  69  97 139 179 235 281 336 403
#     4  10  24  42  65 102 136 177 220 283 348 418
#     4  11  22  42  67 100 134 174 225 278 346 410
#     4  11  24  44  70  97 139 172 230 278 350 403
#     4  12  23  44  70  99 139 174 230 275 348 407
#
# _framework density 22.143726000000001
#
# number of rings (size 3 to 8) (size 9 to 14) (size 15 to 20)
#    0.000    1.000    3.333    2.500    2.333    1.333 
#    0.000    0.000    0.000    0.000    0.000    0.000 
#    0.000    0.000    0.000    0.000    0.000    0.000 
#
# Total GULP energy -268498.089415 kJ/mol
# GULP energy per Si atom -5593.710196 kJ/mol
# Density = 2.209333 g / cm^3
# Si number density = 22.143726 Si / 1000 Ang^3
#
#
#
# Elastic Constant Matrix: (Units=GPa)
#
#
# Indices 1 2 3 4 5 6 
#
# 1 74.3301 0.9075 15.3185 0.0000 0.0000 0.0000
# 2 0.9075 30.3470 -8.0053 0.0000 0.0000 0.0000
# 3 15.3185 -8.0053 63.0446 0.0000 0.0000 0.0000
# 4 0.0000 0.0000 0.0000 22.0048 0.0000 0.0000
# 5 0.0000 0.0000 0.0000 0.0000 22.2970 0.0000
# 6 0.0000 0.0000 0.0000 0.0000 0.0000 28.0856
#
#
#
# Elastic Compliance Matrix: (Units=1/GPa)
#
#
# Indices 1 2 3 4 5 6 
#
# 1 0.014219 -0.001383 -0.003630 0.000000 0.000000 0.000000
# 2 -0.001383 0.034229 0.004682 0.000000 0.000000 0.000000
# 3 -0.003630 0.004682 0.017338 0.000000 0.000000 0.000000
# 4 0.000000 0.000000 0.000000 0.045445 0.000000 0.000000
# 5 0.000000 0.000000 0.000000 0.000000 0.044849 0.000000
# 6 0.000000 0.000000 0.000000 0.000000 0.000000 0.035605
#
#
# Mechanical properties :
#
#
# Convention : Reuss Voigt Hill
#
# Bulk Modulus (GPa) = 15.35538 20.46258 17.90898
# Shear Modulus (GPa) = 23.35850 25.11087 24.23469
#
# Velocity S-wave (km/s) = 3.25138 3.37114 3.31180
# Velocity P-wave (km/s) = 4.58746 4.94101 4.76752
#
# Compressibility (1/GPa) = 0.06512375
#
# Stress axis : x y z
#
# Youngs Moduli (GPa) = 70.33054 29.21528 57.67528
#
# Poissons Ratio (x) = 0.04040 0.20939
# Poissons Ratio (y) = 0.09726 -0.27005
# Poissons Ratio (z) = 0.25533 -0.13680
#
# Static dielectric constant tensor:
#      x y z
#    x 1.804920 0.000000 0.000000 
#    y 0.000000 1.737640 0.000000 
#    z 0.000000 0.000000 1.831530 
# 
# From -- ./inp_files/8856.got.cif
#   From: 2010.05.17/outbox.cif.g08.bks.cpg/sg52_5_cif.got.tgz:8856.got - 2010.06.03 12:15:38.
