data_PCOD9412138
_publ_section_title
;
Structure prediction by ZEFSAII (Michael W. Deem and Ramdas Pophale) SiO2 
 PCOD9412138
Probable space group: P N N A
;
_chemical_formula_sum "Si O2"
_cell_formula_units_Z 24
_cell_length_a 22.323423
_cell_length_b 5.441189
_cell_length_c 8.046477
_cell_angle_alpha 90.000000
_cell_angle_beta 90.000000
_cell_angle_gamma 90.000000
_cell_volume 977.373083
_symmetry_space_group_name_H-M "P N N A"
_symmetry_group_IT_number 52
_symmetry_cell_setting 'orthorhombic'
loop_
_space_group_symop_operation_xyz
x,y,z
1/2-x,-y,z
x,1/2-y,1/2-z
1/2-x,1/2+y,1/2-z
-x,-y,-z
1/2+x,y,-z
-x,1/2+y,1/2+z
1/2+x,1/2-y,1/2+z
loop_
_atom_site_type_symbol
_atom_site_label
_atom_site_fract_x
_atom_site_fract_y
_atom_site_fract_z
Si Si1 0.289534 0.750000 0.750000
Si Si2 0.180619 0.079059 0.406814
Si Si3 0.981363 0.998319 0.306532
Si Si4 0.406808 0.250000 0.250000
O O1 0.250000 0.500000 0.733221
O O2 0.325144 0.784078 0.579929
O O3 0.167110 0.250000 0.250000
O O4 0.250000 0.000000 0.391480
O O5 0.136779 0.846745 0.392744
O O6 0.952383 0.250000 0.250000
O O7 0.949002 0.750000 0.250000
O O8 0.000000 0.000000 0.500000
O O9 0.045399 0.964191 0.208734
#
# Coordination Sequence:
#
# PCOD9412138 Si02
#       4
#     4   8   8   4
#     4  10  24  40  61  90 124 176 233 274 332 402
#     4  11  21  40  65  91 137 182 223 280 337 403
#     4  10  22  44  70  95 134 170 222 284 345 406
#     4  10  24  38  67 100 136 176 235 270 354 412
#
# _framework density 24.555620999999999
#
# number of rings (size 3 to 8) (size 9 to 14) (size 15 to 20)
#    1.000    0.667    1.667    3.000    4.667    0.000 
#    3.000    0.000    0.000    0.000    0.000    0.000 
#    0.000    0.000    0.000    0.000    0.000    0.000 
#
# Total GULP energy -134045.750226 kJ/mol
# GULP energy per Si atom -5585.239593 kJ/mol
# Density = 2.449973 g / cm^3
# Si number density = 24.555621 Si / 1000 Ang^3
#
#
#
# Elastic Constant Matrix: (Units=GPa)
#
#
# Indices 1 2 3 4 5 6 
#
# 1 105.9251 12.4639 7.8680 0.0000 0.0000 0.0000
# 2 12.4639 172.3922 75.9371 0.0000 0.0000 0.0000
# 3 7.8680 75.9371 199.9128 0.0000 0.0000 0.0000
# 4 0.0000 0.0000 0.0000 45.6255 0.0000 0.0000
# 5 0.0000 0.0000 0.0000 0.0000 13.6597 0.0000
# 6 0.0000 0.0000 0.0000 0.0000 0.0000 0.8011
#
#
#
# Elastic Compliance Matrix: (Units=1/GPa)
#
#
# Indices 1 2 3 4 5 6 
#
# 1 0.009525 -0.000629 -0.000136 0.000000 0.000000 0.000000
# 2 -0.000629 0.007008 -0.002637 0.000000 0.000000 0.000000
# 3 -0.000136 -0.002637 0.006009 0.000000 0.000000 0.000000
# 4 0.000000 0.000000 0.000000 0.021918 0.000000 0.000000
# 5 0.000000 0.000000 0.000000 0.000000 0.073208 0.000000
# 6 0.000000 0.000000 0.000000 0.000000 0.000000 1.248256
#
#
# Mechanical properties :
#
#
# Convention : Reuss Voigt Hill
#
# Bulk Modulus (GPa) = 63.54074 74.52979 69.03527
# Shear Modulus (GPa) = 3.62852 37.48134 20.55493
#
# Velocity S-wave (km/s) = 1.21691 3.91114 2.89637
# Velocity P-wave (km/s) = 5.28270 7.12834 6.27376
#
# Compressibility (1/GPa) = 0.01573793
#
# Stress axis : x y z
#
# Youngs Moduli (GPa) = 104.99002 142.69740 166.40945
#
# Poissons Ratio (x) = 0.08971 0.02264
# Poissons Ratio (y) = 0.06601 0.43885
# Poissons Ratio (z) = 0.01428 0.37632
#
# Static dielectric constant tensor:
#      x y z
#    x 1.944830 0.000000 0.000000 
#    y 0.000000 2.054310 0.000000 
#    z 0.000000 0.000000 1.937280 
# 
# From -- ./inp_files/13802.got.cif
#   From: 2010.05.17/outbox.cif.g08.bks.cpg/sg52_7_cif.got.tgz:13802.got - 2010.06.03 12:15:38.
