data_PCOD9412148
_publ_section_title
;
Structure prediction by ZEFSAII (Michael W. Deem and Ramdas Pophale) SiO2 
 PCOD9412148
Probable space group: P N N A
;
_chemical_formula_sum "Si O2"
_cell_formula_units_Z 28
_cell_length_a 14.831315
_cell_length_b 10.184688
_cell_length_c 6.920106
_cell_angle_alpha 90.000000
_cell_angle_beta 90.000000
_cell_angle_gamma 90.000000
_cell_volume 1045.298038
_symmetry_space_group_name_H-M "P N N A"
_symmetry_group_IT_number 52
_symmetry_cell_setting 'orthorhombic'
loop_
_space_group_symop_operation_xyz
x,y,z
1/2-x,-y,z
x,1/2-y,1/2-z
1/2-x,1/2+y,1/2-z
-x,-y,-z
1/2+x,y,-z
-x,1/2+y,1/2+z
1/2+x,1/2-y,1/2+z
loop_
_atom_site_type_symbol
_atom_site_label
_atom_site_fract_x
_atom_site_fract_y
_atom_site_fract_z
Si Si1 0.157887 0.885533 0.252414
Si Si2 0.348107 0.099766 0.694990
Si Si3 0.475524 0.750000 0.250000
Si Si4 0.345252 0.615620 0.488217
O O1 0.105233 0.750000 0.250000
O O2 0.174490 0.918343 0.472271
O O3 0.249046 0.863203 0.122434
O O4 0.110367 0.000333 0.140820
O O5 0.308768 0.250000 0.750000
O O6 0.453677 0.132452 0.718747
O O7 0.333594 0.960996 0.809855
O O8 0.410430 0.734807 0.437408
#
# Coordination Sequence:
#
# PCOD9412148 Si02
#       4
#     8   8   4   8
#     4  11  22  42  69 102 146 193 243 306 368 443
#     4  10  23  42  68  99 146 191 241 310 376 430
#     4  10  22  44  74 104 144 190 248 310 374 450
#     4  11  23  42  70 102 143 191 252 302 372 451
#
# _framework density 26.786619000000002
#
# number of rings (size 3 to 8) (size 9 to 14) (size 15 to 20)
#    0.857    0.571    4.286    0.857    0.000    5.714 
#    0.000    4.286    0.000    0.000    0.000    0.000 
#    0.000    0.000    0.000    0.000    0.000    0.000 
#
# Total GULP energy -155990.347083 kJ/mol
# GULP energy per Si atom -5571.083824 kJ/mol
# Density = 2.672565 g / cm^3
# Si number density = 26.786619 Si / 1000 Ang^3
#
#
#
# Elastic Constant Matrix: (Units=GPa)
#
#
# Indices 1 2 3 4 5 6 
#
# 1 95.9572 4.2881 -0.9571 0.0000 0.0000 0.0000
# 2 4.2881 60.0932 22.4234 0.0000 0.0000 0.0000
# 3 -0.9571 22.4234 211.2840 0.0000 0.0000 0.0000
# 4 0.0000 0.0000 0.0000 57.1229 0.0000 0.0000
# 5 0.0000 0.0000 0.0000 0.0000 6.0360 0.0000
# 6 0.0000 0.0000 0.0000 0.0000 0.0000 26.2748
#
#
#
# Elastic Compliance Matrix: (Units=1/GPa)
#
#
# Indices 1 2 3 4 5 6 
#
# 1 0.010458 -0.000795 0.000132 0.000000 0.000000 0.000000
# 2 -0.000795 0.017387 -0.001849 0.000000 0.000000 0.000000
# 3 0.000132 -0.001849 0.004930 0.000000 0.000000 0.000000
# 4 0.000000 0.000000 0.000000 0.017506 0.000000 0.000000
# 5 0.000000 0.000000 0.000000 0.000000 0.165672 0.000000
# 6 0.000000 0.000000 0.000000 0.000000 0.000000 0.038059
#
#
# Mechanical properties :
#
#
# Convention : Reuss Voigt Hill
#
# Bulk Modulus (GPa) = 36.03565 46.53814 41.28690
# Shear Modulus (GPa) = 18.63669 40.65874 29.64771
#
# Velocity S-wave (km/s) = 2.64056 3.90022 3.33049
# Velocity P-wave (km/s) = 4.77272 6.13951 5.49875
#
# Compressibility (1/GPa) = 0.02775030
#
# Stress axis : x y z
#
# Youngs Moduli (GPa) = 95.61901 57.51258 202.84847
#
# Poissons Ratio (x) = 0.04575 -0.02673
# Poissons Ratio (y) = 0.07606 0.37505
# Poissons Ratio (z) = -0.01260 0.10634
#
# Static dielectric constant tensor:
#      x y z
#    x 2.093190 0.000000 0.000000 
#    y 0.000000 1.532900 0.000000 
#    z 0.000000 0.000000 2.148000 
# 
# From -- ./inp_files/13016.got.cif
#   From: 2010.05.17/outbox.cif.g08.bks.cpg/sg52_7_cif.got.tgz:13016.got - 2010.06.03 12:15:38.
