data_PCOD9412849
_publ_section_title
;
Structure prediction by ZEFSAII (Michael W. Deem and Ramdas Pophale) SiO2 
 PCOD9412849
Probable space group: P N N A
;
_chemical_formula_sum "Si O2"
_cell_formula_units_Z 32
_cell_length_a 14.381028
_cell_length_b 15.858514
_cell_length_c 5.103032
_cell_angle_alpha 90.000000
_cell_angle_beta 90.000000
_cell_angle_gamma 90.000000
_cell_volume 1163.806326
_symmetry_space_group_name_H-M "P N N A"
_symmetry_group_IT_number 52
_symmetry_cell_setting 'orthorhombic'
loop_
_space_group_symop_operation_xyz
x,y,z
1/2-x,-y,z
x,1/2-y,1/2-z
1/2-x,1/2+y,1/2-z
-x,-y,-z
1/2+x,y,-z
-x,1/2+y,1/2+z
1/2+x,1/2-y,1/2+z
loop_
_atom_site_type_symbol
_atom_site_label
_atom_site_fract_x
_atom_site_fract_y
_atom_site_fract_z
Si Si1 0.835177 0.460743 0.959537
Si Si2 0.587477 0.678022 0.584003
Si Si3 0.719544 0.162025 0.146105
Si Si4 0.051818 0.074008 0.168625
O O1 0.750000 0.500000 0.795478
O O2 0.890938 0.394657 0.791447
O O3 0.908113 0.539573 0.946399
O O4 0.775449 0.409956 0.179631
O O5 0.539727 0.750000 0.750000
O O6 0.691572 0.701578 0.503068
O O7 0.527987 0.644907 0.339376
O O8 0.676570 0.250000 0.250000
O O9 0.638690 0.114515 0.987365
O O10 0.000000 0.000000 0.000000
#
# Coordination Sequence:
#
# PCOD9412849 Si02
#       4
#     8   8   8   8
#     4  11  24  43  72 104 142 199 247 303 378 445
#     4  11  23  48  71 109 153 192 252 312 383 463
#     4  12  25  46  75 107 152 202 249 317 392 458
#     4  10  25  46  74 110 151 193 257 323 373 462
#
# _framework density 27.495982000000001
#
# number of rings (size 3 to 8) (size 9 to 14) (size 15 to 20)
#    0.000    1.000    5.000    0.750    7.000    1.000 
#    4.500    1.250    0.000    0.000    0.000    0.000 
#    0.000    0.000    0.000    0.000    0.000    0.000 
#
# Total GULP energy -178281.456756 kJ/mol
# GULP energy per Si atom -5571.295524 kJ/mol
# Density = 2.743340 g / cm^3
# Si number density = 27.495982 Si / 1000 Ang^3
#
#
#
# Elastic Constant Matrix: (Units=GPa)
#
#
# Indices 1 2 3 4 5 6 
#
# 1 197.5749 43.1704 43.4866 0.0000 0.0000 0.0000
# 2 43.1704 134.5050 39.3005 0.0000 0.0000 0.0000
# 3 43.4866 39.3005 84.1009 0.0000 0.0000 0.0000
# 4 0.0000 0.0000 0.0000 12.1224 0.0000 0.0000
# 5 0.0000 0.0000 0.0000 0.0000 146.3665 0.0000
# 6 0.0000 0.0000 0.0000 0.0000 0.0000 18.4671
#
#
#
# Elastic Compliance Matrix: (Units=1/GPa)
#
#
# Indices 1 2 3 4 5 6 
#
# 1 0.005862 -0.001153 -0.002492 0.000000 0.000000 0.000000
# 2 -0.001153 0.008837 -0.003533 0.000000 0.000000 0.000000
# 3 -0.002492 -0.003533 0.014830 0.000000 0.000000 0.000000
# 4 0.000000 0.000000 0.000000 0.082492 0.000000 0.000000
# 5 0.000000 0.000000 0.000000 0.000000 0.006832 0.000000
# 6 0.000000 0.000000 0.000000 0.000000 0.000000 0.054150
#
#
# Mechanical properties :
#
#
# Convention : Reuss Voigt Hill
#
# Bulk Modulus (GPa) = 65.91124 74.23284 70.07204
# Shear Modulus (GPa) = 25.98502 54.73942 40.36222
#
# Velocity S-wave (km/s) = 3.07750 4.46670 3.83552
# Velocity P-wave (km/s) = 6.05403 7.32517 6.71972
#
# Compressibility (1/GPa) = 0.01517192
#
# Stress axis : x y z
#
# Youngs Moduli (GPa) = 170.59375 113.15805 67.42990
#
# Poissons Ratio (x) = 0.13050 0.16804
# Poissons Ratio (y) = 0.19674 0.23825
# Poissons Ratio (z) = 0.42514 0.39982
#
# Static dielectric constant tensor:
#      x y z
#    x 2.118960 0.000000 0.000000 
#    y 0.000000 2.314060 0.000000 
#    z 0.000000 0.000000 2.227720 
# 
# From -- ./inp_files/2982.got.cif
#   From: 2010.05.17/outbox.cif.g08.bks.cpg/sg52_2_cif.got.tgz:2982.got - 2010.06.03 12:15:38.
