data_PCOD9412346
_publ_section_title
;
Structure prediction by ZEFSAII (Michael W. Deem and Ramdas Pophale) SiO2 
 PCOD9412346
Probable space group: P N N A
;
_chemical_formula_sum "Si O2"
_cell_formula_units_Z 36
_cell_length_a 13.337088
_cell_length_b 10.363217
_cell_length_c 13.003267
_cell_angle_alpha 90.000000
_cell_angle_beta 90.000000
_cell_angle_gamma 90.000000
_cell_volume 1797.248331
_symmetry_space_group_name_H-M "P N N A"
_symmetry_group_IT_number 52
_symmetry_cell_setting 'orthorhombic'
loop_
_space_group_symop_operation_xyz
x,y,z
1/2-x,-y,z
x,1/2-y,1/2-z
1/2-x,1/2+y,1/2-z
-x,-y,-z
1/2+x,y,-z
-x,1/2+y,1/2+z
1/2+x,1/2-y,1/2+z
loop_
_atom_site_type_symbol
_atom_site_label
_atom_site_fract_x
_atom_site_fract_y
_atom_site_fract_z
Si Si1 0.497080 0.676867 0.575051
Si Si2 0.750000 0.000000 0.317223
Si Si3 0.555368 0.892986 0.428810
Si Si4 0.355380 0.750000 0.750000
Si Si5 0.070208 0.250000 0.250000
Si Si6 0.638477 0.043878 0.904228
O O1 0.563180 0.768461 0.502631
O O2 0.428628 0.755799 0.652740
O O3 0.569436 0.575912 0.630938
O O4 0.418910 0.600092 0.503169
O O5 0.840277 0.052144 0.387685
O O6 0.710429 0.120499 0.250428
O O7 0.495073 0.838156 0.328955
O O8 0.500000 0.000000 0.500000
O O9 0.135447 0.154267 0.181174
O O10 0.750000 0.000000 0.927718
#
# Coordination Sequence:
#
# PCOD9412346 Si02
#       6
#     8   4   8   4   4   8
#     4  10  24  42  66  94 137 168 219 283 336 396
#     4  12  26  40  74 100 134 184 228 282 342 426
#     4  11  23  45  65  98 135 174 223 281 342 399
#     4  12  25  43  68 106 134 176 229 283 344 408
#     4  10  23  45  62  94 138 168 219 289 328 400
#     4  10  23  42  67  93 126 177 217 269 337 409
#
# _framework density 20.030622999999999
#
# number of rings (size 3 to 8) (size 9 to 14) (size 15 to 20)
#    0.000    1.333    2.222    2.000    4.667    2.667 
#    2.000    0.000    0.000    0.000    0.000    0.000 
#    0.000    0.000    0.000    0.000    0.000    0.000 
#
# Total GULP energy -201061.896892 kJ/mol
# GULP energy per Si atom -5585.052691 kJ/mol
# Density = 1.998503 g / cm^3
# Si number density = 20.030623 Si / 1000 Ang^3
#
#
#
# Elastic Constant Matrix: (Units=GPa)
#
#
# Indices 1 2 3 4 5 6 
#
# 1 71.6822 47.6912 14.5837 0.0000 0.0000 0.0000
# 2 47.6912 102.9747 22.4802 0.0000 0.0000 0.0000
# 3 14.5837 22.4802 59.7162 0.0000 0.0000 0.0000
# 4 0.0000 0.0000 0.0000 25.9634 0.0000 0.0000
# 5 0.0000 0.0000 0.0000 0.0000 12.6687 0.0000
# 6 0.0000 0.0000 0.0000 0.0000 0.0000 43.4545
#
#
#
# Elastic Compliance Matrix: (Units=1/GPa)
#
#
# Indices 1 2 3 4 5 6 
#
# 1 0.020293 -0.009061 -0.001545 0.000000 0.000000 0.000000
# 2 -0.009061 0.014627 -0.003293 0.000000 0.000000 0.000000
# 3 -0.001545 -0.003293 0.018363 0.000000 0.000000 0.000000
# 4 0.000000 0.000000 0.000000 0.038516 0.000000 0.000000
# 5 0.000000 0.000000 0.000000 0.000000 0.078935 0.000000
# 6 0.000000 0.000000 0.000000 0.000000 0.000000 0.023013
#
#
# Mechanical properties :
#
#
# Convention : Reuss Voigt Hill
#
# Bulk Modulus (GPa) = 39.24023 44.87591 42.05807
# Shear Modulus (GPa) = 21.73538 26.39185 24.06362
#
# Velocity S-wave (km/s) = 3.29767 3.63378 3.46980
# Velocity P-wave (km/s) = 5.84227 6.32915 6.09058
#
# Compressibility (1/GPa) = 0.02548405
#
# Stress axis : x y z
#
# Youngs Moduli (GPa) = 49.27710 68.36812 54.45761
#
# Poissons Ratio (x) = 0.61951 0.08413
# Poissons Ratio (y) = 0.44652 0.17934
# Poissons Ratio (z) = 0.07613 0.22516
#
# Static dielectric constant tensor:
#      x y z
#    x 1.659770 0.000000 0.000000 
#    y 0.000000 1.784580 0.000000 
#    z 0.000000 0.000000 1.733560 
# 
# From -- ./inp_files/17796.got.cif
#   From: 2010.05.17/outbox.cif.g08.bks.cpg/sg52_9_cif.got.tgz:17796.got - 2010.06.03 12:15:38.
