data_PCOD9412091
_publ_section_title
;
Structure prediction by ZEFSAII (Michael W. Deem and Ramdas Pophale) SiO2 
 PCOD9412091
Probable space group: P N N A
;
_chemical_formula_sum "Si O2"
_cell_formula_units_Z 48
_cell_length_a 15.196602
_cell_length_b 25.529282
_cell_length_c 5.958730
_cell_angle_alpha 90.000000
_cell_angle_beta 90.000000
_cell_angle_gamma 90.000000
_cell_volume 2311.738987
_symmetry_space_group_name_H-M "P N N A"
_symmetry_group_IT_number 52
_symmetry_cell_setting 'orthorhombic'
loop_
_space_group_symop_operation_xyz
x,y,z
1/2-x,-y,z
x,1/2-y,1/2-z
1/2-x,1/2+y,1/2-z
-x,-y,-z
1/2+x,y,-z
-x,1/2+y,1/2+z
1/2+x,1/2-y,1/2+z
loop_
_atom_site_type_symbol
_atom_site_label
_atom_site_fract_x
_atom_site_fract_y
_atom_site_fract_z
Si Si1 0.225589 0.250000 0.750000
Si Si2 0.446199 0.480015 0.792145
Si Si3 0.376164 0.137173 0.136320
Si Si4 0.220281 0.556029 0.039196
Si Si5 0.784747 0.633637 0.309429
Si Si6 0.318631 0.250000 0.250000
Si Si7 0.947594 0.585556 0.493360
O O1 0.183365 0.307831 0.748876
O O2 0.270828 0.249222 0.497498
O O3 0.503475 0.430289 0.718845
O O4 0.439454 0.529036 0.625473
O O5 0.500000 0.500000 0.000000
O O6 0.349057 0.462808 0.852788
O O7 0.330599 0.092161 0.285307
O O8 0.368619 0.194689 0.242009
O O9 0.478058 0.121722 0.118128
O O10 0.314307 0.137713 0.911462
O O11 0.250000 0.500000 0.141182
O O12 0.286340 0.593980 0.902525
O O13 0.852354 0.611158 0.493368
#
# Coordination Sequence:
#
# PCOD9412091 Si02
#       7
#     4   8   8   8   8   4   8
#     4  10  22  45  70  99 136 178 226 291 344 403
#     4  11  23  39  57  91 135 169 213 277 329 401
#     4  11  24  42  65  94 129 174 224 278 342 404
#     4  12  23  38  65  94 129 177 222 271 345 408
#     4  11  24  42  65  94 132 172 227 277 341 411
#     4  10  22  43  74  95 134 180 228 285 344 407
#     4  11  24  39  63  94 131 174 222 273 336 404
#
# _framework density 20.763590000000001
#
# number of rings (size 3 to 8) (size 9 to 14) (size 15 to 20)
#    0.000    1.000    6.667    0.000    2.333    1.333 
#    0.000    0.000    0.000    5.000    0.000    0.000 
#    0.000    0.000    0.000    0.000    0.000    0.000 
#
# Total GULP energy -267224.071759 kJ/mol
# GULP energy per Si atom -5567.168162 kJ/mol
# Density = 2.071633 g / cm^3
# Si number density = 20.763590 Si / 1000 Ang^3
#
#
#
# Elastic Constant Matrix: (Units=GPa)
#
#
# Indices 1 2 3 4 5 6 
#
# 1 52.9992 11.9857 -9.5463 0.0000 0.0000 0.0000
# 2 11.9857 157.6371 9.2038 0.0000 0.0000 0.0000
# 3 -9.5463 9.2038 35.9229 0.0000 0.0000 0.0000
# 4 0.0000 0.0000 0.0000 35.3296 0.0000 0.0000
# 5 0.0000 0.0000 0.0000 0.0000 22.8416 0.0000
# 6 0.0000 0.0000 0.0000 0.0000 0.0000 21.8043
#
#
#
# Elastic Compliance Matrix: (Units=1/GPa)
#
#
# Indices 1 2 3 4 5 6 
#
# 1 0.020358 -0.001892 0.005895 0.000000 0.000000 0.000000
# 2 -0.001892 0.006616 -0.002198 0.000000 0.000000 0.000000
# 3 0.005895 -0.002198 0.029967 0.000000 0.000000 0.000000
# 4 0.000000 0.000000 0.000000 0.028305 0.000000 0.000000
# 5 0.000000 0.000000 0.000000 0.000000 0.043780 0.000000
# 6 0.000000 0.000000 0.000000 0.000000 0.000000 0.045863
#
#
# Mechanical properties :
#
#
# Convention : Reuss Voigt Hill
#
# Bulk Modulus (GPa) = 16.51515 29.98285 23.24900
# Shear Modulus (GPa) = 26.11488 31.65616 28.88552
#
# Velocity S-wave (km/s) = 3.55029 3.90885 3.73387
# Velocity P-wave (km/s) = 4.97767 5.90284 5.45989
#
# Compressibility (1/GPa) = 0.06055046
#
# Stress axis : x y z
#
# Youngs Moduli (GPa) = 49.12104 151.15178 33.36999
#
# Poissons Ratio (x) = 0.28599 -0.19671
# Poissons Ratio (y) = 0.09294 0.07334
# Poissons Ratio (z) = -0.28956 0.33221
#
# Static dielectric constant tensor:
#      x y z
#    x 1.506360 0.000000 0.000000 
#    y 0.000000 1.722480 0.000000 
#    z 0.000000 0.000000 1.836750 
# 
# From -- ./inp_files/3481.got.cif
#   From: 2010.05.17/outbox.cif.g08.bks.cpg/sg52_2_cif.got.tgz:3481.got - 2010.06.03 12:15:38.
