data_PCOD9412283
_publ_section_title
;
Structure prediction by ZEFSAII (Michael W. Deem and Ramdas Pophale) SiO2 
 PCOD9412283
Probable space group: P N N A
;
_chemical_formula_sum "Si O2"
_cell_formula_units_Z 56
_cell_length_a 20.292582
_cell_length_b 9.107446
_cell_length_c 14.783286
_cell_angle_alpha 90.000000
_cell_angle_beta 90.000000
_cell_angle_gamma 90.000000
_cell_volume 2732.152228
_symmetry_space_group_name_H-M "P N N A"
_symmetry_group_IT_number 52
_symmetry_cell_setting 'orthorhombic'
loop_
_space_group_symop_operation_xyz
x,y,z
1/2-x,-y,z
x,1/2-y,1/2-z
1/2-x,1/2+y,1/2-z
-x,-y,-z
1/2+x,y,-z
-x,1/2+y,1/2+z
1/2+x,1/2-y,1/2+z
loop_
_atom_site_type_symbol
_atom_site_label
_atom_site_fract_x
_atom_site_fract_y
_atom_site_fract_z
Si Si1 0.188979 0.208759 0.495165
Si Si2 0.414727 0.810665 0.148243
Si Si3 0.299145 0.101645 0.713147
Si Si4 0.130302 0.370931 0.671757
Si Si5 0.985579 0.328217 0.002495
Si Si6 0.001815 0.563194 0.398008
Si Si7 0.661248 0.632860 0.028079
O O1 0.152301 0.280190 0.408413
O O2 0.159684 0.292792 0.582857
O O3 0.269281 0.209106 0.500304
O O4 0.166231 0.037800 0.498263
O O5 0.411346 0.750000 0.250000
O O6 0.436686 0.982304 0.147463
O O7 0.473370 0.732769 0.088926
O O8 0.269417 0.250000 0.750000
O O9 0.350351 0.142270 0.636790
O O10 0.250000 0.000000 0.655990
O O11 0.320855 0.994388 0.790818
O O12 0.119640 0.250000 0.750000
O O13 0.065156 0.466969 0.653978
O O14 0.007237 0.237754 0.913839
O O15 0.907223 0.300295 0.995767
O O16 0.000000 0.500000 0.000000
O O17 0.000000 0.500000 0.500000
#
# Coordination Sequence:
#
# PCOD9412283 Si02
#       7
#     8   8   8   8   8   8   8
#     4  11  21  44  66  92 137 178 216 273 340 406
#     4  11  25  43  69  96 133 180 228 282 340 401
#     4  12  25  37  58  99 136 167 211 257 332 419
#     4  12  22  40  64  93 134 176 205 269 342 410
#     4  11  22  41  68  97 127 171 222 279 343 402
#     4  10  23  41  62  91 133 165 218 276 336 394
#     4  11  22  38  69  95 125 173 224 270 335 406
#
# _framework density 20.496662000000001
#
# number of rings (size 3 to 8) (size 9 to 14) (size 15 to 20)
#    0.000    0.857    7.143    1.286    6.000    0.000 
#    0.000    0.714    6.286    0.000    0.000    0.000 
#    0.000    0.000    0.000    0.000    0.000    0.000 
#
# Total GULP energy -312013.359859 kJ/mol
# GULP energy per Si atom -5571.667140 kJ/mol
# Density = 2.045001 g / cm^3
# Si number density = 20.496662 Si / 1000 Ang^3
#
#
#
# Elastic Constant Matrix: (Units=GPa)
#
#
# Indices 1 2 3 4 5 6 
#
# 1 121.0364 17.7673 34.9138 0.0000 0.0000 0.0000
# 2 17.7673 91.5768 28.0882 0.0000 0.0000 0.0000
# 3 34.9138 28.0882 100.5427 0.0000 0.0000 0.0000
# 4 0.0000 0.0000 0.0000 16.9817 0.0000 0.0000
# 5 0.0000 0.0000 0.0000 0.0000 21.7075 0.0000
# 6 0.0000 0.0000 0.0000 0.0000 0.0000 33.8028
#
#
#
# Elastic Compliance Matrix: (Units=1/GPa)
#
#
# Indices 1 2 3 4 5 6 
#
# 1 0.009247 -0.000885 -0.002964 0.000000 0.000000 0.000000
# 2 -0.000885 0.012028 -0.003053 0.000000 0.000000 0.000000
# 3 -0.002964 -0.003053 0.011828 0.000000 0.000000 0.000000
# 4 0.000000 0.000000 0.000000 0.058887 0.000000 0.000000
# 5 0.000000 0.000000 0.000000 0.000000 0.046067 0.000000
# 6 0.000000 0.000000 0.000000 0.000000 0.000000 0.029583
#
#
# Mechanical properties :
#
#
# Convention : Reuss Voigt Hill
#
# Bulk Modulus (GPa) = 51.81475 52.74386 52.27931
# Shear Modulus (GPa) = 26.61323 29.99083 28.30203
#
# Velocity S-wave (km/s) = 3.60727 3.82934 3.71996
# Velocity P-wave (km/s) = 6.53332 6.73354 6.63419
#
# Compressibility (1/GPa) = 0.01929952
#
# Stress axis : x y z
#
# Youngs Moduli (GPa) = 108.14554 83.14031 84.54475
#
# Poissons Ratio (x) = 0.07358 0.25057
# Poissons Ratio (y) = 0.09571 0.25810
# Poissons Ratio (z) = 0.32052 0.25382
#
# Static dielectric constant tensor:
#      x y z
#    x 1.773440 0.000000 0.000000 
#    y 0.000000 1.686850 0.000000 
#    z 0.000000 0.000000 1.713850 
# 
# From -- ./inp_files/28777.got.cif
#   From: 2010.05.17/outbox.cif.g08.bks.cpg/sg52_15_cif.got.tgz:28777.got - 2010.06.03 12:15:38.
