data_PCOD9412327
_publ_section_title
;
Structure prediction by ZEFSAII (Michael W. Deem and Ramdas Pophale) SiO2 
 PCOD9412327
Probable space group: P N N A
;
_chemical_formula_sum "Si O2"
_cell_formula_units_Z 24
_cell_length_a 12.676703
_cell_length_b 17.093882
_cell_length_c 5.014280
_cell_angle_alpha 90.000000
_cell_angle_beta 90.000000
_cell_angle_gamma 90.000000
_cell_volume 1086.564717
_symmetry_space_group_name_H-M "P N N A"
_symmetry_group_IT_number 52
_symmetry_cell_setting 'orthorhombic'
loop_
_space_group_symop_operation_xyz
x,y,z
1/2-x,-y,z
x,1/2-y,1/2-z
1/2-x,1/2+y,1/2-z
-x,-y,-z
1/2+x,y,-z
-x,1/2+y,1/2+z
1/2+x,1/2-y,1/2+z
loop_
_atom_site_type_symbol
_atom_site_label
_atom_site_fract_x
_atom_site_fract_y
_atom_site_fract_z
Si Si1 0.837661 0.841876 0.221964
Si Si2 0.156471 0.944148 0.875078
Si Si3 0.424141 0.934397 0.268858
O O1 0.852053 0.750000 0.250000
O O2 0.716872 0.862137 0.134514
O O3 0.871841 0.887535 0.490069
O O4 0.908751 0.877939 0.987711
O O5 0.049573 0.946298 0.707741
O O6 0.250000 0.000000 0.770565
O O7 0.127089 0.984391 0.158928
#
# Coordination Sequence:
#
# PCOD9412327 Si02
#       3
#     8   8   8
#     4  11  24  41  64  97 133 170 214 267 329 387
#     4   9  22  41  67  93 124 169 218 266 318 383
#     4  10  23  42  64  93 128 169 218 268 320 382
#
# _framework density 22.087961
#
# number of rings (size 3 to 8) (size 9 to 14) (size 15 to 20)
#    0.000    2.000    0.000    1.000    0.000   32.000 
#    0.000    0.000    0.000    0.000    0.000    0.000 
#    0.000    0.000    0.000    0.000    0.000    0.000 
#
# Total GULP energy -133933.180526 kJ/mol
# GULP energy per Si atom -5580.549189 kJ/mol
# Density = 2.203769 g / cm^3
# Si number density = 22.087961 Si / 1000 Ang^3
#
#
#
# Elastic Constant Matrix: (Units=GPa)
#
#
# Indices 1 2 3 4 5 6 
#
# 1 159.5236 41.1632 45.7472 0.0000 0.0000 0.0000
# 2 41.1632 95.6590 80.6341 0.0000 0.0000 0.0000
# 3 45.7472 80.6341 170.0696 0.0000 0.0000 0.0000
# 4 0.0000 0.0000 0.0000 25.2198 0.0000 0.0000
# 5 0.0000 0.0000 0.0000 0.0000 25.1723 0.0000
# 6 0.0000 0.0000 0.0000 0.0000 0.0000 15.8537
#
#
#
# Elastic Compliance Matrix: (Units=1/GPa)
#
#
# Indices 1 2 3 4 5 6 
#
# 1 0.007112 -0.002411 -0.000770 0.000000 0.000000 0.000000
# 2 -0.002411 0.018231 -0.007995 0.000000 0.000000 0.000000
# 3 -0.000770 -0.007995 0.009878 0.000000 0.000000 0.000000
# 4 0.000000 0.000000 0.000000 0.039651 0.000000 0.000000
# 5 0.000000 0.000000 0.000000 0.000000 0.039726 0.000000
# 6 0.000000 0.000000 0.000000 0.000000 0.000000 0.063077
#
#
# Mechanical properties :
#
#
# Convention : Reuss Voigt Hill
#
# Bulk Modulus (GPa) = 77.71342 84.48235 81.09789
# Shear Modulus (GPa) = 24.47193 30.42967 27.45080
#
# Velocity S-wave (km/s) = 3.33217 3.71571 3.52915
# Velocity P-wave (km/s) = 7.07563 7.53258 7.30768
#
# Compressibility (1/GPa) = 0.01286779
#
# Stress axis : x y z
#
# Youngs Moduli (GPa) = 140.61484 54.85258 101.23958
#
# Poissons Ratio (x) = 0.13228 0.07792
# Poissons Ratio (y) = 0.33909 0.80940
# Poissons Ratio (z) = 0.10822 0.43854
#
# Static dielectric constant tensor:
#      x y z
#    x 1.867130 0.000000 0.000000 
#    y 0.000000 1.869600 0.000000 
#    z 0.000000 0.000000 1.863960 
# 
# From -- ./inp_files/762.got.cif
#   From: 2010.05.17/outbox.cif.g08.bks.cpg/sg52_1_cif.got.tgz:762.got - 2010.06.03 12:15:38.
