data_PCOD9412075
_publ_section_title
;
Structure prediction by ZEFSAII (Michael W. Deem and Ramdas Pophale) SiO2 
 PCOD9412075
Probable space group: P N N A
;
_chemical_formula_sum "Si O2"
_cell_formula_units_Z 40
_cell_length_a 9.006651
_cell_length_b 24.962009
_cell_length_c 7.468855
_cell_angle_alpha 90.000000
_cell_angle_beta 90.000000
_cell_angle_gamma 90.000000
_cell_volume 1679.178628
_symmetry_space_group_name_H-M "P N N A"
_symmetry_group_IT_number 52
_symmetry_cell_setting 'orthorhombic'
loop_
_space_group_symop_operation_xyz
x,y,z
1/2-x,-y,z
x,1/2-y,1/2-z
1/2-x,1/2+y,1/2-z
-x,-y,-z
1/2+x,y,-z
-x,1/2+y,1/2+z
1/2+x,1/2-y,1/2+z
loop_
_atom_site_type_symbol
_atom_site_label
_atom_site_fract_x
_atom_site_fract_y
_atom_site_fract_z
Si Si1 0.506582 0.595881 0.508399
Si Si2 0.412255 0.736221 0.931939
Si Si3 0.163086 0.835264 0.557825
Si Si4 0.265183 0.666140 0.349751
Si Si5 0.760118 0.441793 0.254485
O O1 0.385797 0.618908 0.371727
O O2 0.615563 0.645491 0.552954
O O3 0.621018 0.554209 0.418932
O O4 0.402412 0.576127 0.671649
O O5 0.503289 0.750000 0.750000
O O6 0.512927 0.698532 0.057317
O O7 0.286445 0.699058 0.840633
O O8 0.335966 0.782431 0.050731
O O9 0.219096 0.832128 0.354961
O O10 0.172551 0.895006 0.631247
O O11 0.750000 0.500000 0.167726
#
# Coordination Sequence:
#
# PCOD9412075 Si02
#       5
#     8   8   8   8   8
#     4  10  22  43  71  99 130 175 225 275 340 415
#     4  12  24  41  65  96 135 180 221 270 335 402
#     4  12  25  41  64  99 134 173 225 274 333 406
#     4  11  22  42  67  99 139 176 220 279 339 408
#     4  11  24  45  70  99 134 176 226 286 342 399
#
# _framework density 23.821169999999999
#
# number of rings (size 3 to 8) (size 9 to 14) (size 15 to 20)
#    0.000    0.800    0.000    9.600    0.000    1.600 
#    0.000   13.000    0.000    0.000    0.000    0.000 
#    0.000    0.000    0.000    0.000    0.000    0.000 
#
# Total GULP energy -223541.437016 kJ/mol
# GULP energy per Si atom -5588.535925 kJ/mol
# Density = 2.376695 g / cm^3
# Si number density = 23.821170 Si / 1000 Ang^3
#
#
#
# Elastic Constant Matrix: (Units=GPa)
#
#
# Indices 1 2 3 4 5 6 
#
# 1 146.1842 40.8019 13.5357 0.0000 0.0000 0.0000
# 2 40.8019 148.1551 32.6723 0.0000 0.0000 0.0000
# 3 13.5357 32.6723 87.3089 0.0000 0.0000 0.0000
# 4 0.0000 0.0000 0.0000 32.5148 0.0000 0.0000
# 5 0.0000 0.0000 0.0000 0.0000 17.9445 0.0000
# 6 0.0000 0.0000 0.0000 0.0000 0.0000 24.9099
#
#
#
# Elastic Compliance Matrix: (Units=1/GPa)
#
#
# Indices 1 2 3 4 5 6 
#
# 1 0.007424 -0.001952 -0.000421 0.000000 0.000000 0.000000
# 2 -0.001952 0.007870 -0.002642 0.000000 0.000000 0.000000
# 3 -0.000421 -0.002642 0.012508 0.000000 0.000000 0.000000
# 4 0.000000 0.000000 0.000000 0.030755 0.000000 0.000000
# 5 0.000000 0.000000 0.000000 0.000000 0.055727 0.000000
# 6 0.000000 0.000000 0.000000 0.000000 0.000000 0.040145
#
#
# Mechanical properties :
#
#
# Convention : Reuss Voigt Hill
#
# Bulk Modulus (GPa) = 56.26794 61.74088 59.00441
# Shear Modulus (GPa) = 29.34561 34.71640 32.03101
#
# Velocity S-wave (km/s) = 3.51367 3.82170 3.67092
# Velocity P-wave (km/s) = 6.33509 6.74156 6.54148
#
# Compressibility (1/GPa) = 0.01777211
#
# Stress axis : x y z
#
# Youngs Moduli (GPa) = 134.69028 127.06513 79.95119
#
# Poissons Ratio (x) = 0.24802 0.03363
# Poissons Ratio (y) = 0.26291 0.21127
# Poissons Ratio (z) = 0.05665 0.33576
#
# Static dielectric constant tensor:
#      x y z
#    x 2.001320 0.000000 0.000000 
#    y 0.000000 2.007430 0.000000 
#    z 0.000000 0.000000 1.968870 
# 
# From -- ./inp_files/7425.got.cif
#   From: 2010.05.17/outbox.cif.g08.bks.cpg/sg52_4_cif.got.tgz:7425.got - 2010.06.03 12:15:38.
