data_PCOD9412732
_publ_section_title
;
Structure prediction by ZEFSAII (Michael W. Deem and Ramdas Pophale) SiO2 
 PCOD9412732
Probable space group: P N N A
;
_chemical_formula_sum "Si O2"
_cell_formula_units_Z 24
_cell_length_a 9.901218
_cell_length_b 19.899590
_cell_length_c 5.205118
_cell_angle_alpha 90.000000
_cell_angle_beta 90.000000
_cell_angle_gamma 90.000000
_cell_volume 1025.565330
_symmetry_space_group_name_H-M "P N N A"
_symmetry_group_IT_number 52
_symmetry_cell_setting 'orthorhombic'
loop_
_space_group_symop_operation_xyz
x,y,z
1/2-x,-y,z
x,1/2-y,1/2-z
1/2-x,1/2+y,1/2-z
-x,-y,-z
1/2+x,y,-z
-x,1/2+y,1/2+z
1/2+x,1/2-y,1/2+z
loop_
_atom_site_type_symbol
_atom_site_label
_atom_site_fract_x
_atom_site_fract_y
_atom_site_fract_z
Si Si1 0.771388 0.890750 0.038585
Si Si2 0.593791 0.435618 0.968964
Si Si3 0.481346 0.325252 0.292214
O O1 0.794248 0.929288 0.305208
O O2 0.871920 0.826851 0.073185
O O3 0.836341 0.932385 0.805460
O O4 0.624200 0.867421 0.960457
O O5 0.505683 0.368572 0.033464
O O6 0.500000 0.500000 0.000000
O O7 0.434078 0.250000 0.250000
#
# Coordination Sequence:
#
# PCOD9412732 Si02
#       3
#     8   8   8
#     4  10  25  44  69 102 133 185 230 286 350 421
#     4  10  24  46  69 101 140 182 233 286 355 421
#     4  10  26  44  73 101 146 181 239 292 354 418
#
# _framework density 23.401726
#
# number of rings (size 3 to 8) (size 9 to 14) (size 15 to 20)
#    2.000    0.000    0.000    1.000    9.333    1.333 
#    0.000    0.000    0.000    0.000    0.000    0.000 
#    0.000    0.000    0.000    0.000    0.000    0.000 
#
# Total GULP energy -134048.278201 kJ/mol
# GULP energy per Si atom -5585.344925 kJ/mol
# Density = 2.334846 g / cm^3
# Si number density = 23.401726 Si / 1000 Ang^3
#
#
#
# Elastic Constant Matrix: (Units=GPa)
#
#
# Indices 1 2 3 4 5 6 
#
# 1 73.6274 -0.3597 -5.5155 0.0000 0.0000 0.0000
# 2 -0.3597 111.9465 -3.7635 0.0000 0.0000 0.0000
# 3 -5.5155 -3.7635 93.1840 0.0000 0.0000 0.0000
# 4 0.0000 0.0000 0.0000 8.9330 0.0000 0.0000
# 5 0.0000 0.0000 0.0000 0.0000 -14.0617 0.0000
# 6 0.0000 0.0000 0.0000 0.0000 0.0000 35.1522
#
#
#
# Elastic Compliance Matrix: (Units=1/GPa)
#
#
# Indices 1 2 3 4 5 6 
#
# 1 0.013643 0.000071 0.000810 0.000000 0.000000 0.000000
# 2 0.000071 0.008945 0.000365 0.000000 0.000000 0.000000
# 3 0.000810 0.000365 0.010794 0.000000 0.000000 0.000000
# 4 0.000000 0.000000 0.000000 0.111944 0.000000 0.000000
# 5 0.000000 0.000000 0.000000 0.000000 -0.071115 0.000000
# 6 0.000000 0.000000 0.000000 0.000000 0.000000 0.028448
#
#
# Mechanical properties :
#
#
# Convention : Reuss Voigt Hill
#
# Bulk Modulus (GPa) = 27.87348 28.83117 28.35233
# Shear Modulus (GPa) = 44.59346 25.23116 34.91231
#
# Velocity S-wave (km/s) = 4.37001 3.28712 3.86666
# Velocity P-wave (km/s) = 6.11550 5.17240 5.66362
#
# Compressibility (1/GPa) = 0.03587640
#
# Stress axis : x y z
#
# Youngs Moduli (GPa) = 73.29792 111.78988 92.64252
#
# Poissons Ratio (x) = -0.00795 -0.07508
# Poissons Ratio (y) = -0.00521 -0.03386
# Poissons Ratio (z) = -0.05940 -0.04086
#
# Static dielectric constant tensor:
#      x y z
#    x 1.903900 0.000000 0.000000 
#    y 0.000000 1.888050 0.000000 
#    z 0.000000 0.000000 1.875800 
# 
# From -- ./inp_files/792.got.cif
#   From: 2010.05.17/outbox.cif.g08.bks.cpg/sg52_1_cif.got.tgz:792.got - 2010.06.03 12:15:38.
