data_PCOD9412262
_publ_section_title
;
Structure prediction by ZEFSAII (Michael W. Deem and Ramdas Pophale) SiO2 
 PCOD9412262
Probable space group: P N N A
;
_chemical_formula_sum "Si O2"
_cell_formula_units_Z 40
_cell_length_a 10.787042
_cell_length_b 20.726803
_cell_length_c 8.708557
_cell_angle_alpha 90.000000
_cell_angle_beta 90.000000
_cell_angle_gamma 90.000000
_cell_volume 1947.066964
_symmetry_space_group_name_H-M "P N N A"
_symmetry_group_IT_number 52
_symmetry_cell_setting 'orthorhombic'
loop_
_space_group_symop_operation_xyz
x,y,z
1/2-x,-y,z
x,1/2-y,1/2-z
1/2-x,1/2+y,1/2-z
-x,-y,-z
1/2+x,y,-z
-x,1/2+y,1/2+z
1/2+x,1/2-y,1/2+z
loop_
_atom_site_type_symbol
_atom_site_label
_atom_site_fract_x
_atom_site_fract_y
_atom_site_fract_z
Si Si1 0.204961 0.565579 0.868014
Si Si2 0.715159 0.179446 0.167954
Si Si3 0.939272 0.604449 0.922742
Si Si4 0.533615 0.823673 0.700354
Si Si5 0.294059 0.677184 0.307437
O O1 0.250000 0.500000 0.787339
O O2 0.203283 0.628309 0.759395
O O3 0.062692 0.560834 0.923916
O O4 0.315348 0.576887 0.993816
O O5 0.723680 0.250000 0.250000
O O6 0.575838 0.151748 0.191819
O O7 0.734413 0.182461 0.987288
O O8 0.901248 0.630820 0.755822
O O9 0.982741 0.664785 0.030120
O O10 0.546854 0.750000 0.750000
O O11 0.669508 0.849990 0.726646
O O12 0.320049 0.750000 0.250000
#
# Coordination Sequence:
#
# PCOD9412262 Si02
#       5
#     8   8   8   8   8
#     4  11  24  44  66  91 130 169 215 266 322 384
#     4  10  23  40  63  95 129 168 211 265 318 382
#     4  11  22  41  64  93 123 171 217 260 323 377
#     4   9  19  35  57  90 131 156 204 262 312 373
#     4  11  21  36  64  96 129 167 208 266 324 382
#
# _framework density 20.543723
#
# number of rings (size 3 to 8) (size 9 to 14) (size 15 to 20)
#    0.000    1.600    2.000    4.200    5.600    0.800 
#    0.000    2.000    0.000    0.000    0.000    0.000 
#    0.000    0.000    0.000    0.000    0.000    0.000 
#
# Total GULP energy -222772.743734 kJ/mol
# GULP energy per Si atom -5569.318593 kJ/mol
# Density = 2.049696 g / cm^3
# Si number density = 20.543723 Si / 1000 Ang^3
#
#
#
# Elastic Constant Matrix: (Units=GPa)
#
#
# Indices 1 2 3 4 5 6 
#
# 1 132.1460 19.6638 19.7964 0.0000 0.0000 0.0000
# 2 19.6638 64.1239 25.0730 0.0000 0.0000 0.0000
# 3 19.7964 25.0730 82.5617 0.0000 0.0000 0.0000
# 4 0.0000 0.0000 0.0000 17.6129 0.0000 0.0000
# 5 0.0000 0.0000 0.0000 0.0000 18.8607 0.0000
# 6 0.0000 0.0000 0.0000 0.0000 0.0000 -6.8329
#
#
#
# Elastic Compliance Matrix: (Units=1/GPa)
#
#
# Indices 1 2 3 4 5 6 
#
# 1 0.008058 -0.001947 -0.001341 0.000000 0.000000 0.000000
# 2 -0.001947 0.018166 -0.005050 0.000000 0.000000 0.000000
# 3 -0.001341 -0.005050 0.013967 0.000000 0.000000 0.000000
# 4 0.000000 0.000000 0.000000 0.056776 0.000000 0.000000
# 5 0.000000 0.000000 0.000000 0.000000 0.053020 0.000000
# 6 0.000000 0.000000 0.000000 0.000000 0.000000 -0.146350
#
#
# Mechanical properties :
#
#
# Convention : Reuss Voigt Hill
#
# Bulk Modulus (GPa) = 42.52392 45.32201 43.92296
# Shear Modulus (GPa) = 177.60508 20.21470 98.90989
#
# Velocity S-wave (km/s) = 9.30806 3.14026 6.94626
# Velocity P-wave (km/s) = 11.67322 5.93780 9.26071
#
# Compressibility (1/GPa) = 0.02351618
#
# Stress axis : x y z
#
# Youngs Moduli (GPa) = 124.10112 55.04660 71.59552
#
# Poissons Ratio (x) = 0.10716 0.09600
# Poissons Ratio (y) = 0.24159 0.36157
# Poissons Ratio (z) = 0.16641 0.27799
#
# Static dielectric constant tensor:
#      x y z
#    x 1.827730 0.000000 0.000000 
#    y 0.000000 1.768660 0.000000 
#    z 0.000000 0.000000 1.778040 
# 
# From -- ./inp_files/8704.got.cif
#   From: 2010.05.17/outbox.cif.g08.bks.cpg/sg52_5_cif.got.tgz:8704.got - 2010.06.03 12:15:38.
