data_PCOD9412627
_publ_section_title
;
Structure prediction by ZEFSAII (Michael W. Deem and Ramdas Pophale) SiO2 
 PCOD9412627
Probable space group: P N N A
;
_chemical_formula_sum "Si O2"
_cell_formula_units_Z 36
_cell_length_a 5.325838
_cell_length_b 11.219018
_cell_length_c 22.730033
_cell_angle_alpha 90.000000
_cell_angle_beta 90.000000
_cell_angle_gamma 90.000000
_cell_volume 1358.134755
_symmetry_space_group_name_H-M "P N N A"
_symmetry_group_IT_number 52
_symmetry_cell_setting 'orthorhombic'
loop_
_space_group_symop_operation_xyz
x,y,z
1/2-x,-y,z
x,1/2-y,1/2-z
1/2-x,1/2+y,1/2-z
-x,-y,-z
1/2+x,y,-z
-x,1/2+y,1/2+z
1/2+x,1/2-y,1/2+z
loop_
_atom_site_type_symbol
_atom_site_label
_atom_site_fract_x
_atom_site_fract_y
_atom_site_fract_z
Si Si1 0.750000 0.000000 0.570750
Si Si2 0.750000 0.500000 0.148859
Si Si3 0.010512 0.734035 0.052706
Si Si4 0.942372 0.114761 0.747990
Si Si5 0.501241 0.319784 0.575458
Si Si6 0.750000 0.500000 0.347994
O O1 0.862330 0.109304 0.533075
O O2 0.503046 0.026863 0.610483
O O3 0.635965 0.401338 0.193620
O O4 0.229141 0.775944 0.095923
O O5 0.744447 0.738152 0.083768
O O6 0.974470 0.817587 0.995640
O O7 0.834852 0.250000 0.750000
O O8 0.750000 0.000000 0.744737
O O9 0.110359 0.091623 0.805613
O O10 0.445238 0.440024 0.608073
#
# Coordination Sequence:
#
# PCOD9412627 Si02
#       6
#     4   4   8   8   8   4
#     4  12  24  42  75 111 153 212 257 316 400 462
#     4  11  26  48  75 112 152 210 261 333 390 480
#     4  10  24  42  70 106 155 201 258 318 371 474
#     4  11  28  52  82 121 159 205 273 342 404 488
#     4  10  24  44  68 104 148 200 253 313 378 456
#     4  11  28  44  78 109 153 212 256 327 404 472
#
# _framework density 26.506943
#
# number of rings (size 3 to 8) (size 9 to 14) (size 15 to 20)
#    0.000    1.333    1.111    1.333    9.333   10.667 
#    0.000    0.000    0.000    0.000    0.000    0.000 
#    0.000    0.000    0.000    0.000    0.000    0.000 
#
# Total GULP energy -200980.893042 kJ/mol
# GULP energy per Si atom -5582.802584 kJ/mol
# Density = 2.644661 g / cm^3
# Si number density = 26.506943 Si / 1000 Ang^3
#
#
#
# Elastic Constant Matrix: (Units=GPa)
#
#
# Indices 1 2 3 4 5 6 
#
# 1 200.8771 34.3777 34.1465 0.0000 0.0000 0.0000
# 2 34.3777 113.0103 43.0900 0.0000 0.0000 0.0000
# 3 34.1465 43.0900 123.8353 0.0000 0.0000 0.0000
# 4 0.0000 0.0000 0.0000 35.9580 0.0000 0.0000
# 5 0.0000 0.0000 0.0000 0.0000 -3.7362 0.0000
# 6 0.0000 0.0000 0.0000 0.0000 0.0000 50.3096
#
#
#
# Elastic Compliance Matrix: (Units=1/GPa)
#
#
# Indices 1 2 3 4 5 6 
#
# 1 0.005368 -0.001232 -0.001051 0.000000 0.000000 0.000000
# 2 -0.001232 0.010485 -0.003309 0.000000 0.000000 0.000000
# 3 -0.001051 -0.003309 0.009516 0.000000 0.000000 0.000000
# 4 0.000000 0.000000 0.000000 0.027810 0.000000 0.000000
# 5 0.000000 0.000000 0.000000 0.000000 -0.267655 0.000000
# 6 0.000000 0.000000 0.000000 0.000000 0.000000 0.019877
#
#
# Mechanical properties :
#
#
# Convention : Reuss Voigt Hill
#
# Bulk Modulus (GPa) = 70.49653 73.43901 71.96777
# Shear Modulus (GPa) = -27.98202 38.24687 5.13243
#
# Velocity S-wave (km/s) = -3.25260 3.80267 1.39300
# Velocity P-wave (km/s) = 3.54223 6.85902 5.45864
#
# Compressibility (1/GPa) = 0.01418510
#
# Stress axis : x y z
#
# Youngs Moduli (GPa) = 186.29846 95.37340 105.08098
#
# Poissons Ratio (x) = 0.11750 0.11049
# Poissons Ratio (y) = 0.22951 0.34768
# Poissons Ratio (z) = 0.19588 0.31556
#
# Static dielectric constant tensor:
#      x y z
#    x 2.143250 0.000000 0.000000 
#    y 0.000000 2.428580 0.000000 
#    z 0.000000 0.000000 2.033100 
# 
# From -- ./inp_files/38603.got.cif
#   From: 2010.05.17/outbox.cif.g08.bks.cpg/sg52_20_cif.got.tgz:38603.got - 2010.06.03 12:15:38.
