data_PCOD9412094
_publ_section_title
;
Structure prediction by ZEFSAII (Michael W. Deem and Ramdas Pophale) SiO2 
 PCOD9412094
Probable space group: P N N A
;
_chemical_formula_sum "Si O2"
_cell_formula_units_Z 28
_cell_length_a 12.469934
_cell_length_b 11.640289
_cell_length_c 8.171968
_cell_angle_alpha 90.000000
_cell_angle_beta 90.000000
_cell_angle_gamma 90.000000
_cell_volume 1186.190865
_symmetry_space_group_name_H-M "P N N A"
_symmetry_group_IT_number 52
_symmetry_cell_setting 'orthorhombic'
loop_
_space_group_symop_operation_xyz
x,y,z
1/2-x,-y,z
x,1/2-y,1/2-z
1/2-x,1/2+y,1/2-z
-x,-y,-z
1/2+x,y,-z
-x,1/2+y,1/2+z
1/2+x,1/2-y,1/2+z
loop_
_atom_site_type_symbol
_atom_site_label
_atom_site_fract_x
_atom_site_fract_y
_atom_site_fract_z
Si Si1 0.385239 0.400174 0.922375
Si Si2 0.937919 0.020394 0.758159
Si Si3 0.787139 0.750000 0.250000
Si Si4 0.462215 0.684872 0.487566
O O1 0.446092 0.502418 0.829036
O O2 0.288128 0.352200 0.816683
O O3 0.363843 0.438894 0.108949
O O4 0.471501 0.296025 0.933646
O O5 0.953718 0.112849 0.900609
O O6 0.918348 0.899403 0.846767
O O7 0.863071 0.716646 0.399295
#
# Coordination Sequence:
#
# PCOD9412094 Si02
#       4
#     8   8   4   8
#     4  11  22  45  69 104 138 182 237 301 346 426
#     4  10  22  43  75  94 144 178 230 304 356 404
#     4  12  24  42  78  94 154 194 232 290 372 412
#     4  11  22  45  69 104 138 182 237 301 346 426
#
# _framework density 23.604972
#
# number of rings (size 3 to 8) (size 9 to 14) (size 15 to 20)
#    0.000    1.143    5.714    0.000    0.000    1.143 
#    0.000    8.571    0.000    0.000    0.000    0.000 
#    0.000    0.000    0.000    0.000    0.000    0.000 
#
# Total GULP energy -156720.828830 kJ/mol
# GULP energy per Si atom -5597.172458 kJ/mol
# Density = 2.355125 g / cm^3
# Si number density = 23.604972 Si / 1000 Ang^3
#
#
#
# Elastic Constant Matrix: (Units=GPa)
#
#
# Indices 1 2 3 4 5 6 
#
# 1 87.5560 22.3975 21.1962 0.0000 0.0000 0.0000
# 2 22.3975 85.8963 29.1145 0.0000 0.0000 0.0000
# 3 21.1962 29.1145 110.9920 0.0000 0.0000 0.0000
# 4 0.0000 0.0000 0.0000 65.0274 0.0000 0.0000
# 5 0.0000 0.0000 0.0000 0.0000 29.1465 0.0000
# 6 0.0000 0.0000 0.0000 0.0000 0.0000 15.5461
#
#
#
# Elastic Compliance Matrix: (Units=1/GPa)
#
#
# Indices 1 2 3 4 5 6 
#
# 1 0.012518 -0.002693 -0.001684 0.000000 0.000000 0.000000
# 2 -0.002693 0.013358 -0.002990 0.000000 0.000000 0.000000
# 3 -0.001684 -0.002990 0.010115 0.000000 0.000000 0.000000
# 4 0.000000 0.000000 0.000000 0.015378 0.000000 0.000000
# 5 0.000000 0.000000 0.000000 0.000000 0.034309 0.000000
# 6 0.000000 0.000000 0.000000 0.000000 0.000000 0.064325
#
#
# Mechanical properties :
#
#
# Convention : Reuss Voigt Hill
#
# Bulk Modulus (GPa) = 47.04283 47.76230 47.40256
# Shear Modulus (GPa) = 29.09981 36.05974 32.57978
#
# Velocity S-wave (km/s) = 3.51491 3.91274 3.71915
# Velocity P-wave (km/s) = 6.03699 6.37892 6.21031
#
# Compressibility (1/GPa) = 0.02125723
#
# Stress axis : x y z
#
# Youngs Moduli (GPa) = 79.88552 74.86428 98.85867
#
# Poissons Ratio (x) = 0.20163 0.16649
# Poissons Ratio (y) = 0.21515 0.29554
# Poissons Ratio (z) = 0.13453 0.22381
#
# Static dielectric constant tensor:
#      x y z
#    x 1.878270 0.000000 0.000000 
#    y 0.000000 1.947480 0.000000 
#    z 0.000000 0.000000 1.927780 
# 
# From -- ./inp_files/8108.got.cif
#   From: 2010.05.17/outbox.cif.g08.bks.cpg/sg52_5_cif.got.tgz:8108.got - 2010.06.03 12:15:38.
