data_PCOD9412634
_publ_section_title
;
Structure prediction by ZEFSAII (Michael W. Deem and Ramdas Pophale) SiO2 
 PCOD9412634
Probable space group: P N N A
;
_chemical_formula_sum "Si O2"
_cell_formula_units_Z 32
_cell_length_a 9.223211
_cell_length_b 5.062745
_cell_length_c 29.625476
_cell_angle_alpha 90.000000
_cell_angle_beta 90.000000
_cell_angle_gamma 90.000000
_cell_volume 1383.354651
_symmetry_space_group_name_H-M "P N N A"
_symmetry_group_IT_number 52
_symmetry_cell_setting 'orthorhombic'
loop_
_space_group_symop_operation_xyz
x,y,z
1/2-x,-y,z
x,1/2-y,1/2-z
1/2-x,1/2+y,1/2-z
-x,-y,-z
1/2+x,y,-z
-x,1/2+y,1/2+z
1/2+x,1/2-y,1/2+z
loop_
_atom_site_type_symbol
_atom_site_label
_atom_site_fract_x
_atom_site_fract_y
_atom_site_fract_z
Si Si1 0.642547 0.250000 0.250000
Si Si2 0.601529 0.903998 0.820893
Si Si3 0.515765 0.479663 0.053274
Si Si4 0.405047 0.058814 0.894794
Si Si5 0.750000 0.000000 0.610540
O O1 0.750000 0.500000 0.244865
O O2 0.526749 0.212569 0.209296
O O3 0.517255 0.108521 0.853697
O O4 0.669080 0.700432 0.856561
O O5 0.750000 0.000000 0.796161
O O6 0.543188 0.188991 0.074093
O O7 0.369893 0.599934 0.075524
O O8 0.625773 0.694268 0.072877
O O9 0.500000 0.500000 0.000000
O O10 0.250000 0.000000 0.872603
#
# Coordination Sequence:
#
# PCOD9412634 Si02
#       5
#     4   8   8   8   4
#     4  12  32  50  80 118 154 194 252 320 386 470
#     4  11  25  48  76 106 152 192 256 303 385 455
#     4  11  24  42  65  99 141 185 248 302 358 436
#     4  11  24  43  68  99 137 191 234 299 377 432
#     4  10  24  42  72 104 142 200 244 304 372 438
#
# _framework density 23.132172000000001
#
# number of rings (size 3 to 8) (size 9 to 14) (size 15 to 20)
#    0.000    1.000    2.500    2.250    8.750    4.000 
#    0.000    0.000    0.000    0.000    0.000    0.000 
#    0.000    0.000    0.000    0.000    0.000    0.000 
#
# Total GULP energy -178432.259262 kJ/mol
# GULP energy per Si atom -5576.008102 kJ/mol
# Density = 2.307952 g / cm^3
# Si number density = 23.132172 Si / 1000 Ang^3
#
#
#
# Elastic Constant Matrix: (Units=GPa)
#
#
# Indices 1 2 3 4 5 6 
#
# 1 176.6114 35.7493 72.6045 0.0000 0.0000 0.0000
# 2 35.7493 105.8917 27.6498 0.0000 0.0000 0.0000
# 3 72.6045 27.6498 108.9399 0.0000 0.0000 0.0000
# 4 0.0000 0.0000 0.0000 26.5080 0.0000 0.0000
# 5 0.0000 0.0000 0.0000 0.0000 27.1176 0.0000
# 6 0.0000 0.0000 0.0000 0.0000 0.0000 34.9021
#
#
#
# Elastic Compliance Matrix: (Units=1/GPa)
#
#
# Indices 1 2 3 4 5 6 
#
# 1 0.007988 -0.001399 -0.004968 0.000000 0.000000 0.000000
# 2 -0.001399 0.010359 -0.001697 0.000000 0.000000 0.000000
# 3 -0.004968 -0.001697 0.012921 0.000000 0.000000 0.000000
# 4 0.000000 0.000000 0.000000 0.037724 0.000000 0.000000
# 5 0.000000 0.000000 0.000000 0.000000 0.036876 0.000000
# 6 0.000000 0.000000 0.000000 0.000000 0.000000 0.028652
#
#
# Mechanical properties :
#
#
# Convention : Reuss Voigt Hill
#
# Bulk Modulus (GPa) = 66.05290 73.71667 69.88478
# Shear Modulus (GPa) = 32.11384 34.73483 33.42433
#
# Velocity S-wave (km/s) = 3.73000 3.87923 3.80535
# Velocity P-wave (km/s) = 6.86783 7.21119 7.04160
#
# Compressibility (1/GPa) = 0.01513938
#
# Stress axis : x y z
#
# Youngs Moduli (GPa) = 125.18856 96.53396 77.39164
#
# Poissons Ratio (x) = 0.13509 0.38452
# Poissons Ratio (y) = 0.17519 0.13130
# Poissons Ratio (z) = 0.62200 0.16377
#
# Static dielectric constant tensor:
#      x y z
#    x 2.164990 0.000000 0.000000 
#    y 0.000000 2.017860 0.000000 
#    z 0.000000 0.000000 1.838550 
# 
# From -- ./inp_files/44055.got.cif
#   From: 2010.05.17/outbox.cif.g08.bks.cpg/sg52_23_cif.got.tgz:44055.got - 2010.06.03 12:15:38.
