data_PCOD9412485
_publ_section_title
;
Structure prediction by ZEFSAII (Michael W. Deem and Ramdas Pophale) SiO2 
 PCOD9412485
Probable space group: P N N A
;
_chemical_formula_sum "Si O2"
_cell_formula_units_Z 40
_cell_length_a 11.753968
_cell_length_b 9.036937
_cell_length_c 17.130108
_cell_angle_alpha 90.000000
_cell_angle_beta 90.000000
_cell_angle_gamma 90.000000
_cell_volume 1819.557816
_symmetry_space_group_name_H-M "P N N A"
_symmetry_group_IT_number 52
_symmetry_cell_setting 'orthorhombic'
loop_
_space_group_symop_operation_xyz
x,y,z
1/2-x,-y,z
x,1/2-y,1/2-z
1/2-x,1/2+y,1/2-z
-x,-y,-z
1/2+x,y,-z
-x,1/2+y,1/2+z
1/2+x,1/2-y,1/2+z
loop_
_atom_site_type_symbol
_atom_site_label
_atom_site_fract_x
_atom_site_fract_y
_atom_site_fract_z
Si Si1 0.938604 0.256902 0.656483
Si Si2 0.217816 0.325808 0.059371
Si Si3 0.696608 0.845862 0.311497
Si Si4 0.494987 0.050276 0.589528
Si Si5 0.839562 0.635440 0.405599
O O1 0.920801 0.250000 0.750000
O O2 0.820395 0.249307 0.607342
O O3 0.026292 0.377818 0.618067
O O4 0.995176 0.098573 0.638126
O O5 0.250000 0.500000 0.042396
O O6 0.101501 0.345535 0.107693
O O7 0.180056 0.231479 0.984091
O O8 0.625049 0.750000 0.250000
O O9 0.621911 0.874476 0.387830
O O10 0.794875 0.734790 0.334867
O O11 0.750000 0.000000 0.285092
O O12 0.500000 0.000000 0.500000
O O13 0.750000 0.500000 0.410731
#
# Coordination Sequence:
#
# PCOD9412485 Si02
#       5
#     8   8   8   8   8
#     4  11  24  43  71 101 149 184 236 310 372 428
#     4  10  23  45  72  97 133 192 244 286 362 448
#     4  12  24  40  66  99 139 177 236 304 366 434
#     4  11  21  44  76  99 132 194 248 291 364 456
#     4  12  25  41  69 101 140 183 237 297 372 436
#
# _framework density 21.983364000000002
#
# number of rings (size 3 to 8) (size 9 to 14) (size 15 to 20)
#    0.000    0.800    4.000    4.200    2.800    1.600 
#    0.000    3.000    0.000    0.000    0.000    0.000 
#    0.000    0.000    0.000    0.000    0.000    0.000 
#
# Total GULP energy -223088.233308 kJ/mol
# GULP energy per Si atom -5577.205833 kJ/mol
# Density = 2.193333 g / cm^3
# Si number density = 21.983364 Si / 1000 Ang^3
#
#
#
# Elastic Constant Matrix: (Units=GPa)
#
#
# Indices 1 2 3 4 5 6 
#
# 1 142.7602 29.2936 39.2597 0.0000 0.0000 0.0000
# 2 29.2936 87.5378 35.1413 0.0000 0.0000 0.0000
# 3 39.2597 35.1413 135.3492 0.0000 0.0000 0.0000
# 4 0.0000 0.0000 0.0000 34.3097 0.0000 0.0000
# 5 0.0000 0.0000 0.0000 0.0000 15.1842 0.0000
# 6 0.0000 0.0000 0.0000 0.0000 0.0000 36.1600
#
#
#
# Elastic Compliance Matrix: (Units=1/GPa)
#
#
# Indices 1 2 3 4 5 6 
#
# 1 0.007891 -0.001922 -0.001790 0.000000 0.000000 0.000000
# 2 -0.001922 0.013221 -0.002875 0.000000 0.000000 0.000000
# 3 -0.001790 -0.002875 0.008654 0.000000 0.000000 0.000000
# 4 0.000000 0.000000 0.000000 0.029146 0.000000 0.000000
# 5 0.000000 0.000000 0.000000 0.000000 0.065858 0.000000
# 6 0.000000 0.000000 0.000000 0.000000 0.000000 0.027655
#
#
# Mechanical properties :
#
#
# Convention : Reuss Voigt Hill
#
# Bulk Modulus (GPa) = 60.27010 63.67072 61.97041
# Shear Modulus (GPa) = 29.21745 34.59430 31.90588
#
# Velocity S-wave (km/s) = 3.64960 3.97124 3.81381
# Velocity P-wave (km/s) = 6.72571 7.07486 6.90249
#
# Compressibility (1/GPa) = 0.01659197
#
# Stress axis : x y z
#
# Youngs Moduli (GPa) = 126.71990 75.63684 115.55406
#
# Poissons Ratio (x) = 0.14539 0.20683
# Poissons Ratio (y) = 0.24359 0.33223
# Poissons Ratio (z) = 0.22682 0.21746
#
# Static dielectric constant tensor:
#      x y z
#    x 1.912190 0.000000 0.000000 
#    y 0.000000 1.823240 0.000000 
#    z 0.000000 0.000000 1.924790 
# 
# From -- ./inp_files/31956.got.cif
#   From: 2010.05.17/outbox.cif.g08.bks.cpg/sg52_16_cif.got.tgz:31956.got - 2010.06.03 12:15:38.
