data_PCOD9412854
_publ_section_title
;
Structure prediction by ZEFSAII (Michael W. Deem and Ramdas Pophale) SiO2 
 PCOD9412854
Probable space group: P N N A
;
_chemical_formula_sum "Si O2"
_cell_formula_units_Z 36
_cell_length_a 21.763346
_cell_length_b 5.151929
_cell_length_c 12.819526
_cell_angle_alpha 90.000000
_cell_angle_beta 90.000000
_cell_angle_gamma 90.000000
_cell_volume 1437.366449
_symmetry_space_group_name_H-M "P N N A"
_symmetry_group_IT_number 52
_symmetry_cell_setting 'orthorhombic'
loop_
_space_group_symop_operation_xyz
x,y,z
1/2-x,-y,z
x,1/2-y,1/2-z
1/2-x,1/2+y,1/2-z
-x,-y,-z
1/2+x,y,-z
-x,1/2+y,1/2+z
1/2+x,1/2-y,1/2+z
loop_
_atom_site_type_symbol
_atom_site_label
_atom_site_fract_x
_atom_site_fract_y
_atom_site_fract_z
Si Si1 0.040739 0.750000 0.250000
Si Si2 0.250000 0.000000 0.815738
Si Si3 0.433647 0.756022 0.902946
Si Si4 0.250000 0.500000 0.316506
Si Si5 0.868769 0.252165 0.088700
Si Si6 0.118721 0.042090 0.105566
O O1 0.084664 0.521461 0.288480
O O2 0.996970 0.686649 0.151550
O O3 0.227579 0.250000 0.750000
O O4 0.303748 0.132088 0.881855
O O5 0.383933 0.537832 0.875243
O O6 0.416857 0.044639 0.864609
O O7 0.424052 0.788727 0.027718
O O8 0.271919 0.250000 0.250000
O O9 0.190111 0.389204 0.377443
O O10 0.876124 0.221575 0.964506
#
# Coordination Sequence:
#
# PCOD9412854 Si02
#       6
#     4   4   8   4   8   8
#     4  12  24  52  74 120 148 210 262 320 386 490
#     4  12  25  42  77 114 150 204 266 327 393 476
#     4  10  26  45  73 108 155 199 251 315 390 466
#     4  12  27  48  77 112 148 194 266 323 387 472
#     4  10  25  47  68 109 152 197 251 318 387 456
#     4  10  26  49  77 110 151 205 255 325 396 459
#
# _framework density 25.045805999999999
#
# number of rings (size 3 to 8) (size 9 to 14) (size 15 to 20)
#    1.333    0.000    1.111    2.667    7.778    0.889 
#    8.000    0.000    0.000    0.000    0.000    0.000 
#    0.000    0.000    0.000    0.000    0.000    0.000 
#
# Total GULP energy -200840.994035 kJ/mol
# GULP energy per Si atom -5578.916501 kJ/mol
# Density = 2.498880 g / cm^3
# Si number density = 25.045806 Si / 1000 Ang^3
#
#
#
# Elastic Constant Matrix: (Units=GPa)
#
#
# Indices 1 2 3 4 5 6 
#
# 1 158.3142 17.6333 61.6221 0.0000 0.0000 0.0000
# 2 17.6333 112.5788 30.7502 0.0000 0.0000 0.0000
# 3 61.6221 30.7502 102.3674 0.0000 0.0000 0.0000
# 4 0.0000 0.0000 0.0000 8.1275 0.0000 0.0000
# 5 0.0000 0.0000 0.0000 0.0000 44.5138 0.0000
# 6 0.0000 0.0000 0.0000 0.0000 0.0000 17.9403
#
#
#
# Elastic Compliance Matrix: (Units=1/GPa)
#
#
# Indices 1 2 3 4 5 6 
#
# 1 0.008250 0.000070 -0.004987 0.000000 0.000000 0.000000
# 2 0.000070 0.009677 -0.002949 0.000000 0.000000 0.000000
# 3 -0.004987 -0.002949 0.013657 0.000000 0.000000 0.000000
# 4 0.000000 0.000000 0.000000 0.123038 0.000000 0.000000
# 5 0.000000 0.000000 0.000000 0.000000 0.022465 0.000000
# 6 0.000000 0.000000 0.000000 0.000000 0.000000 0.055740
#
#
# Mechanical properties :
#
#
# Convention : Reuss Voigt Hill
#
# Bulk Modulus (GPa) = 63.08621 65.91908 64.50265
# Shear Modulus (GPa) = 19.69710 31.66664 25.68187
#
# Velocity S-wave (km/s) = 2.80740 3.55963 3.20565
# Velocity P-wave (km/s) = 5.97927 6.57808 6.28581
#
# Compressibility (1/GPa) = 0.01585132
#
# Stress axis : x y z
#
# Youngs Moduli (GPa) = 121.21215 103.33531 73.22346
#
# Poissons Ratio (x) = -0.00724 0.36519
# Poissons Ratio (y) = -0.00849 0.21594
# Poissons Ratio (z) = 0.60452 0.30475
#
# Static dielectric constant tensor:
#      x y z
#    x 1.986110 0.000000 0.000000 
#    y 0.000000 1.954530 0.000000 
#    z 0.000000 0.000000 2.063060 
# 
# From -- ./inp_files/28523.got.cif
#   From: 2010.05.17/outbox.cif.g08.bks.cpg/sg52_15_cif.got.tgz:28523.got - 2010.06.03 12:15:38.
