data_PCOD9412987
_publ_section_title
;
Structure prediction by ZEFSAII (Michael W. Deem and Ramdas Pophale) SiO2 
 PCOD9412987
Probable space group: P N N A
;
_chemical_formula_sum "Si O2"
_cell_formula_units_Z 64
_cell_length_a 12.182919
_cell_length_b 11.316201
_cell_length_c 25.436114
_cell_angle_alpha 90.000000
_cell_angle_beta 90.000000
_cell_angle_gamma 90.000000
_cell_volume 3506.733582
_symmetry_space_group_name_H-M "P N N A"
_symmetry_group_IT_number 52
_symmetry_cell_setting 'orthorhombic'
loop_
_space_group_symop_operation_xyz
x,y,z
1/2-x,-y,z
x,1/2-y,1/2-z
1/2-x,1/2+y,1/2-z
-x,-y,-z
1/2+x,y,-z
-x,1/2+y,1/2+z
1/2+x,1/2-y,1/2+z
loop_
_atom_site_type_symbol
_atom_site_label
_atom_site_fract_x
_atom_site_fract_y
_atom_site_fract_z
Si Si1 0.122655 0.241406 0.159347
Si Si2 0.134624 0.436157 0.251076
Si Si3 0.497084 0.395144 0.096037
Si Si4 0.761247 0.132205 0.281233
Si Si5 0.735799 0.861744 0.572462
Si Si6 0.778724 0.639976 0.044567
Si Si7 0.503561 0.144216 0.286167
Si Si8 0.587989 0.845701 0.383829
O O1 0.123498 0.339248 0.205525
O O2 0.136363 0.121040 0.191311
O O3 0.214636 0.278012 0.117116
O O4 0.004231 0.252739 0.132103
O O5 0.250000 0.500000 0.242213
O O6 0.033921 0.525261 0.242504
O O7 0.394326 0.356960 0.061371
O O8 0.609899 0.338340 0.076356
O O9 0.460261 0.360131 0.154717
O O10 0.523024 0.535781 0.097916
O O11 0.800943 0.250000 0.250000
O O12 0.633945 0.158087 0.293760
O O13 0.837378 0.120366 0.332893
O O14 0.750000 0.000000 0.255928
O O15 0.793449 0.836784 0.516888
O O16 0.750000 0.000000 0.588318
O O17 0.750000 0.500000 0.048881
O O18 0.673747 0.697602 0.072471
O O19 0.461248 0.250000 0.250000
#
# Coordination Sequence:
#
# PCOD9412987 Si02
#       8
#     8   8   8   8   8   8   8   8
#     4  11  23  36  59  84 112 155 180 234 286 339
#     4  11  24  38  55  83 117 150 192 225 281 346
#     4  11  19  34  55  77 117 154 184 226 289 342
#     4  11  21  34  54  81 114 153 189 235 287 345
#     4  11  21  34  53  82 115 148 191 233 283 343
#     4   9  21  32  52  81 113 151 186 234 289 341
#     4  11  22  36  57  82 114 149 189 232 283 341
#     4  11  19  35  54  78 116 146 188 230 290 338
#
# _framework density 18.250602000000001
#
# number of rings (size 3 to 8) (size 9 to 14) (size 15 to 20)
#    0.000    1.250    5.000    1.500    8.750    1.500 
#    0.000    0.000    0.000    0.000    0.000    4.375 
#    0.000    0.000    0.000    0.000    0.000    0.000 
#
# Total GULP energy -356927.054031 kJ/mol
# GULP energy per Si atom -5576.985219 kJ/mol
# Density = 1.820906 g / cm^3
# Si number density = 18.250602 Si / 1000 Ang^3
#
#
#
# Elastic Constant Matrix: (Units=GPa)
#
#
# Indices 1 2 3 4 5 6 
#
# 1 82.0956 1.7239 19.4789 0.0000 0.0000 0.0000
# 2 1.7239 40.3764 24.5652 0.0000 0.0000 0.0000
# 3 19.4789 24.5652 81.5350 0.0000 0.0000 0.0000
# 4 0.0000 0.0000 0.0000 17.8670 0.0000 0.0000
# 5 0.0000 0.0000 0.0000 0.0000 -48.5970 0.0000
# 6 0.0000 0.0000 0.0000 0.0000 0.0000 10.1679
#
#
#
# Elastic Compliance Matrix: (Units=1/GPa)
#
#
# Indices 1 2 3 4 5 6 
#
# 1 0.013000 0.001634 -0.003598 0.000000 0.000000 0.000000
# 2 0.001634 0.030531 -0.009589 0.000000 0.000000 0.000000
# 3 -0.003598 -0.009589 0.016013 0.000000 0.000000 0.000000
# 4 0.000000 0.000000 0.000000 0.055969 0.000000 0.000000
# 5 0.000000 0.000000 0.000000 0.000000 -0.020577 0.000000
# 6 0.000000 0.000000 0.000000 0.000000 0.000000 0.098349
#
#
# Mechanical properties :
#
#
# Convention : Reuss Voigt Hill
#
# Bulk Modulus (GPa) = 27.44331 32.83809 30.14070
# Shear Modulus (GPa) = 21.87829 6.43687 14.15758
#
# Velocity S-wave (km/s) = 3.46608 1.88005 2.78822
# Velocity P-wave (km/s) = 5.57565 4.76914 5.18809
#
# Compressibility (1/GPa) = 0.03643875
#
# Stress axis : x y z
#
# Youngs Moduli (GPa) = 76.92107 32.75352 62.44831
#
# Poissons Ratio (x) = -0.05352 0.22470
# Poissons Ratio (y) = -0.12569 0.59881
# Poissons Ratio (z) = 0.27677 0.31407
#
# Static dielectric constant tensor:
#      x y z
#    x 1.669830 0.000000 0.000000 
#    y 0.000000 1.658430 0.000000 
#    z 0.000000 0.000000 1.645060 
# 
# From -- ./inp_files/40335.got.cif
#   From: 2010.05.17/outbox.cif.g08.bks.cpg/sg52_21_cif.got.tgz:40335.got - 2010.06.03 12:15:38.
