data_PCOD9412044
_publ_section_title
;
Structure prediction by ZEFSAII (Michael W. Deem and Ramdas Pophale) SiO2 
 PCOD9412044
Probable space group: P N N A
;
_chemical_formula_sum "Si O2"
_cell_formula_units_Z 32
_cell_length_a 15.294068
_cell_length_b 8.186608
_cell_length_c 11.631050
_cell_angle_alpha 90.000000
_cell_angle_beta 90.000000
_cell_angle_gamma 90.000000
_cell_volume 1456.283521
_symmetry_space_group_name_H-M "P N N A"
_symmetry_group_IT_number 52
_symmetry_cell_setting 'orthorhombic'
loop_
_space_group_symop_operation_xyz
x,y,z
1/2-x,-y,z
x,1/2-y,1/2-z
1/2-x,1/2+y,1/2-z
-x,-y,-z
1/2+x,y,-z
-x,1/2+y,1/2+z
1/2+x,1/2-y,1/2+z
loop_
_atom_site_type_symbol
_atom_site_label
_atom_site_fract_x
_atom_site_fract_y
_atom_site_fract_z
Si Si1 0.339952 0.940383 0.261827
Si Si2 0.673869 0.868463 0.143572
Si Si3 0.993909 0.935267 0.130075
Si Si4 0.424832 0.125707 0.459579
O O1 0.335124 0.750000 0.250000
O O2 0.250000 0.000000 0.208530
O O3 0.425286 0.989520 0.194869
O O4 0.354653 0.022874 0.385973
O O5 0.700676 0.750000 0.250000
O O6 0.750000 0.000000 0.107769
O O7 0.595049 0.991000 0.179806
O O8 0.629641 0.742633 0.049070
O O9 0.016587 0.745646 0.119809
O O10 0.000000 0.000000 0.000000
O O11 0.500000 0.000000 0.500000
#
# Coordination Sequence:
#
# PCOD9412044 Si02
#       4
#     8   8   8   8
#     4  12  25  42  66 100 137 178 232 295 358 429
#     4  11  26  46  69 101 142 189 243 302 370 453
#     4  10  22  43  68  95 132 177 228 290 362 441
#     4  11  24  43  71 100 137 188 238 299 372 445
#
# _framework density 21.973742000000001
#
# number of rings (size 3 to 8) (size 9 to 14) (size 15 to 20)
#    0.000    1.000    0.000    7.500    0.000   15.000 
#    0.000    0.000    0.000    0.000    0.000    0.000 
#    0.000    0.000    0.000    0.000    0.000    0.000 
#
# Total GULP energy -178413.490076 kJ/mol
# GULP energy per Si atom -5575.421565 kJ/mol
# Density = 2.192373 g / cm^3
# Si number density = 21.973742 Si / 1000 Ang^3
#
#
#
# Elastic Constant Matrix: (Units=GPa)
#
#
# Indices 1 2 3 4 5 6 
#
# 1 169.5648 71.7030 25.5707 0.0000 0.0000 0.0000
# 2 71.7030 204.5508 42.8385 0.0000 0.0000 0.0000
# 3 25.5707 42.8385 72.7899 0.0000 0.0000 0.0000
# 4 0.0000 0.0000 0.0000 68.9629 0.0000 0.0000
# 5 0.0000 0.0000 0.0000 0.0000 108.6526 0.0000
# 6 0.0000 0.0000 0.0000 0.0000 0.0000 39.2223
#
#
#
# Elastic Compliance Matrix: (Units=1/GPa)
#
#
# Indices 1 2 3 4 5 6 
#
# 1 0.007008 -0.002214 -0.001159 0.000000 0.000000 0.000000
# 2 -0.002214 0.006275 -0.002915 0.000000 0.000000 0.000000
# 3 -0.001159 -0.002915 0.015861 0.000000 0.000000 0.000000
# 4 0.000000 0.000000 0.000000 0.014501 0.000000 0.000000
# 5 0.000000 0.000000 0.000000 0.000000 0.009204 0.000000
# 6 0.000000 0.000000 0.000000 0.000000 0.000000 0.025496
#
#
# Mechanical properties :
#
#
# Convention : Reuss Voigt Hill
#
# Bulk Modulus (GPa) = 60.35725 80.79223 70.57474
# Shear Modulus (GPa) = 51.84319 63.82043 57.83181
#
# Velocity S-wave (km/s) = 4.86256 5.39509 5.13573
# Velocity P-wave (km/s) = 7.68463 8.69809 8.20702
#
# Compressibility (1/GPa) = 0.01656802
#
# Stress axis : x y z
#
# Youngs Moduli (GPa) = 142.68466 159.35154 63.04708
#
# Poissons Ratio (x) = 0.35280 0.07307
# Poissons Ratio (y) = 0.31590 0.18381
# Poissons Ratio (z) = 0.16538 0.46458
#
# Static dielectric constant tensor:
#      x y z
#    x 1.773970 0.000000 0.000000 
#    y 0.000000 1.753870 0.000000 
#    z 0.000000 0.000000 1.929570 
# 
# From -- ./inp_files/18976.got.cif
#   From: 2010.05.17/outbox.cif.g08.bks.cpg/sg52_10_cif.got.tgz:18976.got - 2010.06.03 12:15:38.
