data_PCOD9412519
_publ_section_title
;
Structure prediction by ZEFSAII (Michael W. Deem and Ramdas Pophale) SiO2 
 PCOD9412519
Probable space group: P N N A
;
_chemical_formula_sum "Si O2"
_cell_formula_units_Z 48
_cell_length_a 23.457303
_cell_length_b 10.185585
_cell_length_c 10.114924
_cell_angle_alpha 90.000000
_cell_angle_beta 90.000000
_cell_angle_gamma 90.000000
_cell_volume 2416.721908
_symmetry_space_group_name_H-M "P N N A"
_symmetry_group_IT_number 52
_symmetry_cell_setting 'orthorhombic'
loop_
_space_group_symop_operation_xyz
x,y,z
1/2-x,-y,z
x,1/2-y,1/2-z
1/2-x,1/2+y,1/2-z
-x,-y,-z
1/2+x,y,-z
-x,1/2+y,1/2+z
1/2+x,1/2-y,1/2+z
loop_
_atom_site_type_symbol
_atom_site_label
_atom_site_fract_x
_atom_site_fract_y
_atom_site_fract_z
Si Si1 0.097492 0.750000 0.750000
Si Si2 0.026933 0.559199 0.133223
Si Si3 0.810039 0.750000 0.750000
Si Si4 0.250000 0.000000 0.365138
Si Si5 0.432121 0.750000 0.750000
Si Si6 0.993804 0.895869 0.881070
Si Si7 0.894243 0.767545 0.511867
Si Si8 0.135726 0.925589 0.510517
O O1 0.130823 0.658487 0.855142
O O2 0.054692 0.843721 0.832625
O O3 0.037513 0.458633 0.253593
O O4 0.976394 0.645896 0.192545
O O5 0.086216 0.626805 0.089797
O O6 0.000000 0.500000 0.000000
O O7 0.774874 0.881058 0.720672
O O8 0.849062 0.727057 0.621321
O O9 0.198993 0.936090 0.451779
O O10 0.393468 0.698484 0.630871
O O11 0.955637 0.775135 0.931533
O O12 0.000000 0.000000 0.000000
O O13 0.882713 0.920634 0.480802
#
# Coordination Sequence:
#
# PCOD9412519 Si02
#       8
#     4   8   4   4   4   8   8   8
#     4  12  23  42  65  98 141 179 222 284 344 402
#     4  12  22  39  61  99 138 183 208 277 338 414
#     4  10  23  47  76  94 132 184 238 294 348 412
#     4  10  24  50  72 102 130 180 246 298 348 402
#     4  12  22  35  59 100 143 173 224 260 350 420
#     4  12  23  37  63 106 145 177 223 264 336 426
#     4  11  22  41  66  97 137 186 217 271 346 421
#     4  11  24  44  71  91 138 185 230 285 346 402
#
# _framework density 19.861615
#
# number of rings (size 3 to 8) (size 9 to 14) (size 15 to 20)
#    0.000    0.667    5.000    4.500    0.000    0.667 
#    3.000    3.333    0.000    1.000    0.000    0.000 
#    0.000    0.000    0.000    0.000    0.000    0.000 
#
# Total GULP energy -267881.829693 kJ/mol
# GULP energy per Si atom -5580.871452 kJ/mol
# Density = 1.981641 g / cm^3
# Si number density = 19.861615 Si / 1000 Ang^3
#
#
#
# Elastic Constant Matrix: (Units=GPa)
#
#
# Indices 1 2 3 4 5 6 
#
# 1 122.3878 46.4057 71.2258 0.0000 0.0000 0.0000
# 2 46.4057 104.2915 74.4551 0.0000 0.0000 0.0000
# 3 71.2258 74.4551 180.1147 0.0000 0.0000 0.0000
# 4 0.0000 0.0000 0.0000 58.2168 0.0000 0.0000
# 5 0.0000 0.0000 0.0000 0.0000 17.6163 0.0000
# 6 0.0000 0.0000 0.0000 0.0000 0.0000 30.3934
#
#
#
# Elastic Compliance Matrix: (Units=1/GPa)
#
#
# Indices 1 2 3 4 5 6 
#
# 1 0.011073 -0.002555 -0.003323 0.000000 0.000000 0.000000
# 2 -0.002555 0.014192 -0.004856 0.000000 0.000000 0.000000
# 3 -0.003323 -0.004856 0.008874 0.000000 0.000000 0.000000
# 4 0.000000 0.000000 0.000000 0.017177 0.000000 0.000000
# 5 0.000000 0.000000 0.000000 0.000000 0.056766 0.000000
# 6 0.000000 0.000000 0.000000 0.000000 0.000000 0.032902
#
#
# Mechanical properties :
#
#
# Convention : Reuss Voigt Hill
#
# Bulk Modulus (GPa) = 78.92119 87.88523 83.40321
# Shear Modulus (GPa) = 29.99833 35.55912 32.77873
#
# Velocity S-wave (km/s) = 3.89056 4.23584 4.06686
# Velocity P-wave (km/s) = 7.74621 8.26244 8.00848
#
# Compressibility (1/GPa) = 0.01267087
#
# Stress axis : x y z
#
# Youngs Moduli (GPa) = 90.30776 70.45976 112.69507
#
# Poissons Ratio (x) = 0.18003 0.37445
# Poissons Ratio (y) = 0.23074 0.54730
# Poissons Ratio (z) = 0.30006 0.34218
#
# Static dielectric constant tensor:
#      x y z
#    x 1.710150 0.000000 0.000000 
#    y 0.000000 1.797220 0.000000 
#    z 0.000000 0.000000 1.766100 
# 
# From -- ./inp_files/14363.got.cif
#   From: 2010.05.17/outbox.cif.g08.bks.cpg/sg52_8_cif.got.tgz:14363.got - 2010.06.03 12:15:38.
