data_PCOD9412338
_publ_section_title
;
Structure prediction by ZEFSAII (Michael W. Deem and Ramdas Pophale) SiO2 
 PCOD9412338
Probable space group: P N N A
;
_chemical_formula_sum "Si O2"
_cell_formula_units_Z 40
_cell_length_a 9.554697
_cell_length_b 8.841999
_cell_length_c 20.980494
_cell_angle_alpha 90.000000
_cell_angle_beta 90.000000
_cell_angle_gamma 90.000000
_cell_volume 1772.487130
_symmetry_space_group_name_H-M "P N N A"
_symmetry_group_IT_number 52
_symmetry_cell_setting 'orthorhombic'
loop_
_space_group_symop_operation_xyz
x,y,z
1/2-x,-y,z
x,1/2-y,1/2-z
1/2-x,1/2+y,1/2-z
-x,-y,-z
1/2+x,y,-z
-x,1/2+y,1/2+z
1/2+x,1/2-y,1/2+z
loop_
_atom_site_type_symbol
_atom_site_label
_atom_site_fract_x
_atom_site_fract_y
_atom_site_fract_z
Si Si1 0.909692 0.939920 0.440391
Si Si2 0.396271 0.085096 0.785203
Si Si3 0.627557 0.389576 0.485347
Si Si4 0.371036 0.619591 0.369946
Si Si5 0.405279 0.943941 0.323293
O O1 0.904042 0.757271 0.443570
O O2 0.750000 0.000000 0.442604
O O3 0.000000 0.000000 0.500000
O O4 0.990482 0.003927 0.379185
O O5 0.372905 0.250000 0.750000
O O6 0.468518 0.070474 0.855217
O O7 0.515145 0.009992 0.740643
O O8 0.250000 0.000000 0.784082
O O9 0.750000 0.500000 0.463512
O O10 0.500000 0.500000 0.500000
O O11 0.661039 0.330587 0.557537
O O12 0.250000 0.500000 0.354115
O O13 0.376466 0.765316 0.325747
O O14 0.250000 0.000000 0.332037
#
# Coordination Sequence:
#
# PCOD9412338 Si02
#       5
#     8   8   8   8   8
#     4  12  24  42  68  97 138 179 228 281 334 402
#     4  10  23  45  68 100 135 170 224 281 339 405
#     4  11  25  42  64  97 136 180 225 273 336 401
#     4  10  23  42  66  95 135 175 225 273 336 404
#     4  11  24  42  70  99 132 178 226 277 336 404
#
# _framework density 22.567159
#
# number of rings (size 3 to 8) (size 9 to 14) (size 15 to 20)
#    0.000    1.200    2.000    3.000    5.600    2.400 
#    3.600    0.000    0.000    0.000    0.000    0.000 
#    0.000    0.000    0.000    0.000    0.000    0.000 
#
# Total GULP energy -223288.482479 kJ/mol
# GULP energy per Si atom -5582.212062 kJ/mol
# Density = 2.251580 g / cm^3
# Si number density = 22.567159 Si / 1000 Ang^3
#
#
#
# Elastic Constant Matrix: (Units=GPa)
#
#
# Indices 1 2 3 4 5 6 
#
# 1 183.3699 52.5959 13.7286 0.0000 0.0000 0.0000
# 2 52.5959 114.8991 -4.1253 0.0000 0.0000 0.0000
# 3 13.7286 -4.1253 75.9700 0.0000 0.0000 0.0000
# 4 0.0000 0.0000 0.0000 17.0826 0.0000 0.0000
# 5 0.0000 0.0000 0.0000 0.0000 314.2262 0.0000
# 6 0.0000 0.0000 0.0000 0.0000 0.0000 41.5560
#
#
#
# Elastic Compliance Matrix: (Units=1/GPa)
#
#
# Indices 1 2 3 4 5 6 
#
# 1 0.006407 -0.002980 -0.001320 0.000000 0.000000 0.000000
# 2 -0.002980 0.010107 0.001087 0.000000 0.000000 0.000000
# 3 -0.001320 0.001087 0.013461 0.000000 0.000000 0.000000
# 4 0.000000 0.000000 0.000000 0.058539 0.000000 0.000000
# 5 0.000000 0.000000 0.000000 0.000000 0.003182 0.000000
# 6 0.000000 0.000000 0.000000 0.000000 0.000000 0.024064
#
#
# Mechanical properties :
#
#
# Convention : Reuss Voigt Hill
#
# Bulk Modulus (GPa) = 42.46439 55.40415 48.93427
# Shear Modulus (GPa) = 38.45132 95.37563 66.91347
#
# Velocity S-wave (km/s) = 4.13226 6.50805 5.45116
# Velocity P-wave (km/s) = 6.45176 9.00428 7.83270
#
# Compressibility (1/GPa) = 0.02354914
#
# Stress axis : x y z
#
# Youngs Moduli (GPa) = 156.07716 98.94555 74.29086
#
# Poissons Ratio (x) = 0.29488 0.09804
# Poissons Ratio (y) = 0.46515 -0.08078
# Poissons Ratio (z) = 0.20597 -0.10759
#
# Static dielectric constant tensor:
#      x y z
#    x 1.844370 0.000000 0.000000 
#    y 0.000000 1.943000 0.000000 
#    z 0.000000 0.000000 1.908970 
# 
# From -- ./inp_files/39184.got.cif
#   From: 2010.05.17/outbox.cif.g08.bks.cpg/sg52_20_cif.got.tgz:39184.got - 2010.06.03 12:15:38.
