data_PCOD9412053
_publ_section_title
;
Structure prediction by ZEFSAII (Michael W. Deem and Ramdas Pophale) SiO2 
 PCOD9412053
Probable space group: P N N A
;
_chemical_formula_sum "Si O2"
_cell_formula_units_Z 32
_cell_length_a 13.608513
_cell_length_b 12.339782
_cell_length_c 7.027520
_cell_angle_alpha 90.000000
_cell_angle_beta 90.000000
_cell_angle_gamma 90.000000
_cell_volume 1180.103912
_symmetry_space_group_name_H-M "P N N A"
_symmetry_group_IT_number 52
_symmetry_cell_setting 'orthorhombic'
loop_
_space_group_symop_operation_xyz
x,y,z
1/2-x,-y,z
x,1/2-y,1/2-z
1/2-x,1/2+y,1/2-z
-x,-y,-z
1/2+x,y,-z
-x,1/2+y,1/2+z
1/2+x,1/2-y,1/2+z
loop_
_atom_site_type_symbol
_atom_site_label
_atom_site_fract_x
_atom_site_fract_y
_atom_site_fract_z
Si Si1 0.813709 0.090253 0.458698
Si Si2 0.048289 0.755051 0.982317
Si Si3 0.883829 0.020476 0.045672
Si Si4 0.823720 0.716200 0.529306
O O1 0.855740 0.034651 0.268088
O O2 0.743503 0.193942 0.424758
O O3 0.907060 0.143535 0.557560
O O4 0.750000 0.000000 0.562833
O O5 0.048911 0.750000 0.750000
O O6 0.935969 0.763818 0.036290
O O7 0.119445 0.855612 0.030783
O O8 0.677826 0.085015 0.984004
O O9 0.000000 0.000000 0.000000
O O10 0.814859 0.750000 0.750000
#
# Coordination Sequence:
#
# PCOD9412053 Si02
#       4
#     8   8   8   8
#     4  11  24  38  69 108 146 199 256 312 379 467
#     4   8  18  39  65 100 142 190 249 307 374 447
#     4   9  20  40  70 102 137 197 256 318 387 447
#     4  10  22  43  69 101 148 200 251 322 384 455
#
# _framework density 27.116254999999999
#
# number of rings (size 3 to 8) (size 9 to 14) (size 15 to 20)
#    0.000    2.500    0.000    1.500   10.500    1.000 
#    4.500    0.000    5.500    0.000    0.000    0.000 
#    0.000    0.000    0.000    0.000    0.000    0.000 
#
# Total GULP energy -178809.752810 kJ/mol
# GULP energy per Si atom -5587.804775 kJ/mol
# Density = 2.705454 g / cm^3
# Si number density = 27.116255 Si / 1000 Ang^3
#
#
#
# Elastic Constant Matrix: (Units=GPa)
#
#
# Indices 1 2 3 4 5 6 
#
# 1 125.2285 59.1913 12.2544 0.0000 0.0000 0.0000
# 2 59.1913 211.8029 50.5635 0.0000 0.0000 0.0000
# 3 12.2544 50.5635 133.6465 0.0000 0.0000 0.0000
# 4 0.0000 0.0000 0.0000 22.6977 0.0000 0.0000
# 5 0.0000 0.0000 0.0000 0.0000 6.2292 0.0000
# 6 0.0000 0.0000 0.0000 0.0000 0.0000 57.2062
#
#
#
# Elastic Compliance Matrix: (Units=1/GPa)
#
#
# Indices 1 2 3 4 5 6 
#
# 1 0.009203 -0.002606 0.000142 0.000000 0.000000 0.000000
# 2 -0.002606 0.005928 -0.002004 0.000000 0.000000 0.000000
# 3 0.000142 -0.002004 0.008228 0.000000 0.000000 0.000000
# 4 0.000000 0.000000 0.000000 0.044057 0.000000 0.000000
# 5 0.000000 0.000000 0.000000 0.000000 0.160534 0.000000
# 6 0.000000 0.000000 0.000000 0.000000 0.000000 0.017481
#
#
# Mechanical properties :
#
#
# Convention : Reuss Voigt Hill
#
# Bulk Modulus (GPa) = 69.33191 79.41070 74.37131
# Shear Modulus (GPa) = 19.29210 40.47122 29.88166
#
# Velocity S-wave (km/s) = 2.67021 3.86749 3.32321
# Velocity P-wave (km/s) = 5.92711 7.02084 6.49703
#
# Compressibility (1/GPa) = 0.01442337
#
# Stress axis : x y z
#
# Youngs Moduli (GPa) = 108.65769 168.69113 121.54313
#
# Poissons Ratio (x) = 0.43959 -0.01726
# Poissons Ratio (y) = 0.28315 0.24355
# Poissons Ratio (z) = -0.01543 0.33803
#
# Static dielectric constant tensor:
#      x y z
#    x 2.208720 0.000000 0.000000 
#    y 0.000000 2.168160 0.000000 
#    z 0.000000 0.000000 2.086050 
# 
# From -- ./inp_files/9692.got.cif
#   From: 2010.05.17/outbox.cif.g08.bks.cpg/sg52_5_cif.got.tgz:9692.got - 2010.06.03 12:15:38.
