data_PCOD9412496
_publ_section_title
;
Structure prediction by ZEFSAII (Michael W. Deem and Ramdas Pophale) SiO2 
 PCOD9412496
Probable space group: P N N A
;
_chemical_formula_sum "Si O2"
_cell_formula_units_Z 48
_cell_length_a 8.470269
_cell_length_b 24.036229
_cell_length_c 11.003370
_cell_angle_alpha 90.000000
_cell_angle_beta 90.000000
_cell_angle_gamma 90.000000
_cell_volume 2240.212689
_symmetry_space_group_name_H-M "P N N A"
_symmetry_group_IT_number 52
_symmetry_cell_setting 'orthorhombic'
loop_
_space_group_symop_operation_xyz
x,y,z
1/2-x,-y,z
x,1/2-y,1/2-z
1/2-x,1/2+y,1/2-z
-x,-y,-z
1/2+x,y,-z
-x,1/2+y,1/2+z
1/2+x,1/2-y,1/2+z
loop_
_atom_site_type_symbol
_atom_site_label
_atom_site_fract_x
_atom_site_fract_y
_atom_site_fract_z
Si Si1 0.057181 0.148999 0.524254
Si Si2 0.663503 0.440556 0.609872
Si Si3 0.750000 0.500000 0.200145
Si Si4 0.720230 0.916879 0.626380
Si Si5 0.190766 0.909767 0.871046
Si Si6 0.845226 0.190506 0.313466
Si Si7 0.000000 0.000000 0.500000
O O1 0.137720 0.091001 0.473191
O O2 0.188163 0.179582 0.604503
O O3 0.902823 0.132997 0.600648
O O4 0.992574 0.180405 0.405065
O O5 0.750000 0.500000 0.595497
O O6 0.713116 0.416469 0.739808
O O7 0.474296 0.441860 0.607330
O O8 0.724277 0.402521 0.499122
O O9 0.701906 0.449223 0.286301
O O10 0.883811 0.478075 0.111231
O O11 0.615398 0.970077 0.600549
O O12 0.155656 0.855248 0.793109
O O13 0.846632 0.250000 0.250000
#
# Coordination Sequence:
#
# PCOD9412496 Si02
#       7
#     8   8   4   8   8   8   4
#     4  10  23  46  69  98 136 174 228 298 351 410
#     4  12  27  42  67  99 143 191 231 279 347 427
#     4  12  26  42  62 100 138 180 230 282 352 422
#     4  11  23  41  65 101 137 182 230 284 346 415
#     4  12  27  46  65  98 141 186 228 292 349 426
#     4  11  25  48  75 102 136 178 240 295 356 418
#     4  12  24  34  66  96 132 182 226 278 334 420
#
# _framework density 21.426537
#
# number of rings (size 3 to 8) (size 9 to 14) (size 15 to 20)
#    0.000    0.667    2.500    5.500   10.500    1.333 
#    0.000    1.667    0.000    0.000    0.000    0.000 
#    0.000    0.000    0.000    0.000    0.000    0.000 
#
# Total GULP energy -267868.766849 kJ/mol
# GULP energy per Si atom -5580.599309 kJ/mol
# Density = 2.137777 g / cm^3
# Si number density = 21.426537 Si / 1000 Ang^3
#
#
#
# Elastic Constant Matrix: (Units=GPa)
#
#
# Indices 1 2 3 4 5 6 
#
# 1 105.5057 11.8310 44.4723 0.0000 0.0000 0.0000
# 2 11.8310 70.6946 20.2921 0.0000 0.0000 0.0000
# 3 44.4723 20.2921 150.8302 0.0000 0.0000 0.0000
# 4 0.0000 0.0000 0.0000 37.1174 0.0000 0.0000
# 5 0.0000 0.0000 0.0000 0.0000 38.6444 0.0000
# 6 0.0000 0.0000 0.0000 0.0000 0.0000 20.7670
#
#
#
# Elastic Compliance Matrix: (Units=1/GPa)
#
#
# Indices 1 2 3 4 5 6 
#
# 1 0.010883 -0.000936 -0.003083 0.000000 0.000000 0.000000
# 2 -0.000936 0.014794 -0.001714 0.000000 0.000000 0.000000
# 3 -0.003083 -0.001714 0.007770 0.000000 0.000000 0.000000
# 4 0.000000 0.000000 0.000000 0.026942 0.000000 0.000000
# 5 0.000000 0.000000 0.000000 0.000000 0.025877 0.000000
# 6 0.000000 0.000000 0.000000 0.000000 0.000000 0.048153
#
#
# Mechanical properties :
#
#
# Convention : Reuss Voigt Hill
#
# Bulk Modulus (GPa) = 45.49695 53.35793 49.42744
# Shear Modulus (GPa) = 32.63468 36.00145 34.31806
#
# Velocity S-wave (km/s) = 3.90692 4.10350 4.00642
# Velocity P-wave (km/s) = 6.45229 6.88538 6.67235
#
# Compressibility (1/GPa) = 0.02197949
#
# Stress axis : x y z
#
# Youngs Moduli (GPa) = 91.88985 67.59444 128.70758
#
# Poissons Ratio (x) = 0.06329 0.39677
# Poissons Ratio (y) = 0.08604 0.22064
# Poissons Ratio (z) = 0.28327 0.11587
#
# Static dielectric constant tensor:
#      x y z
#    x 1.628420 0.000000 0.000000 
#    y 0.000000 1.653480 0.000000 
#    z 0.000000 0.000000 1.761510 
# 
# From -- ./inp_files/16980.got.cif
#   From: 2010.05.17/outbox.cif.g08.bks.cpg/sg52_9_cif.got.tgz:16980.got - 2010.06.03 12:15:38.
