data_PCOD9412173
_publ_section_title
;
Structure prediction by ZEFSAII (Michael W. Deem and Ramdas Pophale) SiO2 
 PCOD9412173
Probable space group: P N N A
;
_chemical_formula_sum "Si O2"
_cell_formula_units_Z 40
_cell_length_a 23.707094
_cell_length_b 9.191221
_cell_length_c 7.496507
_cell_angle_alpha 90.000000
_cell_angle_beta 90.000000
_cell_angle_gamma 90.000000
_cell_volume 1633.467437
_symmetry_space_group_name_H-M "P N N A"
_symmetry_group_IT_number 52
_symmetry_cell_setting 'orthorhombic'
loop_
_space_group_symop_operation_xyz
x,y,z
1/2-x,-y,z
x,1/2-y,1/2-z
1/2-x,1/2+y,1/2-z
-x,-y,-z
1/2+x,y,-z
-x,1/2+y,1/2+z
1/2+x,1/2-y,1/2+z
loop_
_atom_site_type_symbol
_atom_site_label
_atom_site_fract_x
_atom_site_fract_y
_atom_site_fract_z
Si Si1 0.965290 0.750000 0.250000
Si Si2 0.518901 0.474271 0.792452
Si Si3 0.623656 0.350552 0.955211
Si Si4 0.339718 0.323704 0.051920
Si Si5 0.927496 0.250000 0.250000
Si Si6 0.767462 0.829470 0.940137
O O1 0.921854 0.815337 0.393094
O O2 0.009238 0.625566 0.304644
O O3 0.580126 0.398527 0.794117
O O4 0.470283 0.377940 0.711164
O O5 0.500000 0.500000 0.000000
O O6 0.660925 0.499627 0.954137
O O7 0.668345 0.217578 0.980087
O O8 0.348304 0.250000 0.250000
O O9 0.283261 0.255610 0.964594
O O10 0.390362 0.283804 0.921425
O O11 0.763025 0.750000 0.750000
O O12 0.750000 0.000000 0.937124
#
# Coordination Sequence:
#
# PCOD9412173 Si02
#       6
#     4   8   8   8   4   8
#     4  10  22  45  72 106 159 194 256 326 380 472
#     4  10  23  45  68 110 154 199 256 313 384 466
#     4  11  24  46  73 104 159 204 257 333 394 468
#     4  11  25  47  77 109 156 201 268 334 394 479
#     4  12  24  47  78 112 155 212 254 322 414 454
#     4  11  25  46  72 109 149 203 262 327 405 473
#
# _framework density 24.487787000000001
#
# number of rings (size 3 to 8) (size 9 to 14) (size 15 to 20)
#    0.000    1.200    4.000    3.000    5.600    0.800 
#    0.000    5.000    0.000    0.000    0.000    0.000 
#    0.000    0.000    0.000    0.000    0.000    0.000 
#
# Total GULP energy -222730.653539 kJ/mol
# GULP energy per Si atom -5568.266338 kJ/mol
# Density = 2.443205 g / cm^3
# Si number density = 24.487787 Si / 1000 Ang^3
#
#
#
# Elastic Constant Matrix: (Units=GPa)
#
#
# Indices 1 2 3 4 5 6 
#
# 1 203.7960 90.2361 25.7233 0.0000 0.0000 0.0000
# 2 90.2361 183.8307 25.1288 0.0000 0.0000 0.0000
# 3 25.7233 25.1288 78.7854 0.0000 0.0000 0.0000
# 4 0.0000 0.0000 0.0000 26.9253 0.0000 0.0000
# 5 0.0000 0.0000 0.0000 0.0000 14.3068 0.0000
# 6 0.0000 0.0000 0.0000 0.0000 0.0000 468.6209
#
#
#
# Elastic Compliance Matrix: (Units=1/GPa)
#
#
# Indices 1 2 3 4 5 6 
#
# 1 0.006364 -0.002969 -0.001131 0.000000 0.000000 0.000000
# 2 -0.002969 0.007073 -0.001286 0.000000 0.000000 0.000000
# 3 -0.001131 -0.001286 0.013472 0.000000 0.000000 0.000000
# 4 0.000000 0.000000 0.000000 0.037140 0.000000 0.000000
# 5 0.000000 0.000000 0.000000 0.000000 0.069897 0.000000
# 6 0.000000 0.000000 0.000000 0.000000 0.000000 0.002134
#
#
# Mechanical properties :
#
#
# Convention : Reuss Voigt Hill
#
# Bulk Modulus (GPa) = 61.97219 83.17650 72.57434
# Shear Modulus (GPa) = 32.84442 123.65886 78.25164
#
# Velocity S-wave (km/s) = 3.66629 7.11392 5.65904
# Velocity P-wave (km/s) = 6.57910 10.07558 8.50888
#
# Compressibility (1/GPa) = 0.01613627
#
# Stress axis : x y z
#
# Youngs Moduli (GPa) = 157.12329 141.37736 74.22656
#
# Poissons Ratio (x) = 0.41982 0.08394
# Poissons Ratio (y) = 0.46658 0.09549
# Poissons Ratio (z) = 0.17768 0.18188
#
# Static dielectric constant tensor:
#      x y z
#    x 2.176750 0.000000 0.000000 
#    y 0.000000 -1.663170 0.000000 
#    z 0.000000 0.000000 2.138100 
# 
# From -- ./inp_files/14044.got.cif
#   From: 2010.05.17/outbox.cif.g08.bks.cpg/sg52_8_cif.got.tgz:14044.got - 2010.06.03 12:15:38.
