data_PCOD9412428
_publ_section_title
;
Structure prediction by ZEFSAII (Michael W. Deem and Ramdas Pophale) SiO2 
 PCOD9412428
Probable space group: P N N A
;
_chemical_formula_sum "Si O2"
_cell_formula_units_Z 40
_cell_length_a 13.195659
_cell_length_b 9.815471
_cell_length_c 13.653806
_cell_angle_alpha 90.000000
_cell_angle_beta 90.000000
_cell_angle_gamma 90.000000
_cell_volume 1768.462912
_symmetry_space_group_name_H-M "P N N A"
_symmetry_group_IT_number 52
_symmetry_cell_setting 'orthorhombic'
loop_
_space_group_symop_operation_xyz
x,y,z
1/2-x,-y,z
x,1/2-y,1/2-z
1/2-x,1/2+y,1/2-z
-x,-y,-z
1/2+x,y,-z
-x,1/2+y,1/2+z
1/2+x,1/2-y,1/2+z
loop_
_atom_site_type_symbol
_atom_site_label
_atom_site_fract_x
_atom_site_fract_y
_atom_site_fract_z
Si Si1 0.352065 0.684950 0.647945
Si Si2 0.246670 0.647018 0.998253
Si Si3 0.664661 0.390287 0.797784
Si Si4 0.999837 0.047585 0.146007
Si Si5 0.546527 0.713720 0.537287
O O1 0.323838 0.750000 0.750000
O O2 0.269005 0.722846 0.568635
O O3 0.392979 0.531422 0.658399
O O4 0.451615 0.760675 0.602703
O O5 0.250000 0.500000 0.945303
O O6 0.326988 0.630071 0.085969
O O7 0.137228 0.681162 0.042982
O O8 0.698331 0.250000 0.750000
O O9 0.484752 0.175302 0.926055
O O10 0.557745 0.423919 0.746608
O O11 0.067585 0.935771 0.085846
O O12 0.750000 0.500000 0.772627
#
# Coordination Sequence:
#
# PCOD9412428 Si02
#       5
#     8   8   8   8   8
#     4  10  23  44  66  94 129 181 221 273 338 394
#     4  11  25  42  64 103 138 176 216 287 340 403
#     4  11  23  38  69 106 136 168 226 283 339 396
#     4   9  21  43  67  98 123 182 223 274 327 403
#     4   9  21  43  68  92 135 178 225 273 339 397
#
# _framework density 22.618514000000001
#
# number of rings (size 3 to 8) (size 9 to 14) (size 15 to 20)
#    1.200    0.800    0.000    2.400    5.600    1.600 
#    7.200    0.000    0.000    0.000    0.000    0.000 
#    0.000    0.000    0.000    0.000    0.000    0.000 
#
# Total GULP energy -223010.536995 kJ/mol
# GULP energy per Si atom -5575.263425 kJ/mol
# Density = 2.256703 g / cm^3
# Si number density = 22.618514 Si / 1000 Ang^3
#
#
#
# Elastic Constant Matrix: (Units=GPa)
#
#
# Indices 1 2 3 4 5 6 
#
# 1 29.0175 4.9406 0.7117 0.0000 0.0000 0.0000
# 2 4.9406 81.8550 -6.4464 0.0000 0.0000 0.0000
# 3 0.7117 -6.4464 69.1598 0.0000 0.0000 0.0000
# 4 0.0000 0.0000 0.0000 15.8234 0.0000 0.0000
# 5 0.0000 0.0000 0.0000 0.0000 85.9192 0.0000
# 6 0.0000 0.0000 0.0000 0.0000 0.0000 24.4915
#
#
#
# Elastic Compliance Matrix: (Units=1/GPa)
#
#
# Indices 1 2 3 4 5 6 
#
# 1 0.034841 -0.002147 -0.000559 0.000000 0.000000 0.000000
# 2 -0.002147 0.012439 0.001182 0.000000 0.000000 0.000000
# 3 -0.000559 0.001182 0.014575 0.000000 0.000000 0.000000
# 4 0.000000 0.000000 0.000000 0.063198 0.000000 0.000000
# 5 0.000000 0.000000 0.000000 0.000000 0.011639 0.000000
# 6 0.000000 0.000000 0.000000 0.000000 0.000000 0.040830
#
#
# Mechanical properties :
#
#
# Convention : Reuss Voigt Hill
#
# Bulk Modulus (GPa) = 17.00459 19.82712 18.41585
# Shear Modulus (GPa) = 24.97835 37.30192 31.14013
#
# Velocity S-wave (km/s) = 3.32675 4.06541 3.71449
# Velocity P-wave (km/s) = 4.72130 5.55173 5.15327
#
# Compressibility (1/GPa) = 0.05880766
#
# Stress axis : x y z
#
# Youngs Moduli (GPa) = 28.70164 80.38995 68.60988
#
# Poissons Ratio (x) = 0.17259 0.03833
# Poissons Ratio (y) = 0.06162 -0.08107
# Poissons Ratio (z) = 0.01603 -0.09499
#
# Static dielectric constant tensor:
#      x y z
#    x 1.857980 0.000000 0.000000 
#    y 0.000000 1.880120 0.000000 
#    z 0.000000 0.000000 1.852110 
# 
# From -- ./inp_files/26899.got.cif
#   From: 2010.05.17/outbox.cif.g08.bks.cpg/sg52_14_cif.got.tgz:26899.got - 2010.06.03 12:15:38.
