data_PCOD9412348
_publ_section_title
;
Structure prediction by ZEFSAII (Michael W. Deem and Ramdas Pophale) SiO2 
 PCOD9412348
Probable space group: P N N A
;
_chemical_formula_sum "Si O2"
_cell_formula_units_Z 60
_cell_length_a 18.200008
_cell_length_b 8.506934
_cell_length_c 19.059779
_cell_angle_alpha 90.000000
_cell_angle_beta 90.000000
_cell_angle_gamma 90.000000
_cell_volume 2950.954430
_symmetry_space_group_name_H-M "P N N A"
_symmetry_group_IT_number 52
_symmetry_cell_setting 'orthorhombic'
loop_
_space_group_symop_operation_xyz
x,y,z
1/2-x,-y,z
x,1/2-y,1/2-z
1/2-x,1/2+y,1/2-z
-x,-y,-z
1/2+x,y,-z
-x,1/2+y,1/2+z
1/2+x,1/2-y,1/2+z
loop_
_atom_site_type_symbol
_atom_site_label
_atom_site_fract_x
_atom_site_fract_y
_atom_site_fract_z
Si Si1 0.088657 0.498439 0.708990
Si Si2 0.794536 0.144094 0.818207
Si Si3 0.285084 0.651618 0.070606
Si Si4 0.250000 0.500000 0.657867
Si Si5 0.783077 0.335287 0.082934
Si Si6 0.545174 0.792519 0.832883
Si Si7 0.447151 0.982785 0.432373
Si Si8 0.066630 0.653499 0.849891
O O1 0.174725 0.464184 0.699193
O O2 0.073718 0.515235 0.792072
O O3 0.077329 0.675944 0.682679
O O4 0.031808 0.389445 0.665686
O O5 0.802909 0.250000 0.750000
O O6 0.740612 0.209687 0.879009
O O7 0.877831 0.114965 0.845302
O O8 0.750000 0.000000 0.789593
O O9 0.250000 0.500000 0.107390
O O10 0.367873 0.595015 0.054863
O O11 0.244954 0.674558 0.996291
O O12 0.235996 0.665812 0.617228
O O13 0.750000 0.500000 0.113420
O O14 0.869921 0.360308 0.092072
O O15 0.546038 0.750000 0.750000
O O16 0.551885 0.645944 0.887233
O O17 0.500000 0.000000 0.500000
O O18 0.487486 0.858985 0.382460
#
# Coordination Sequence:
#
# PCOD9412348 Si02
#       8
#     8   8   8   4   8   8   8   8
#     4  10  23  43  66 100 136 174 220 289 336 415
#     4  11  26  43  68  98 129 179 228 290 349 408
#     4  11  23  44  66  95 134 176 229 282 338 415
#     4  10  24  42  66 102 136 176 240 272 342 430
#     4  10  23  42  67  94 137 181 223 286 341 412
#     4  11  24  44  68 100 137 172 229 283 345 416
#     4  12  25  43  68 101 134 181 228 277 350 423
#     4  10  23  43  64 100 133 175 223 274 352 409
#
# _framework density 20.332405999999999
#
# number of rings (size 3 to 8) (size 9 to 14) (size 15 to 20)
#    0.000    1.333    2.667    2.000    9.333    0.000 
#    2.400    0.667    0.000    0.000    0.000    0.000 
#    0.000    0.000    0.000    0.000    0.000    0.000 
#
# Total GULP energy -334017.063534 kJ/mol
# GULP energy per Si atom -5566.951059 kJ/mol
# Density = 2.028613 g / cm^3
# Si number density = 20.332406 Si / 1000 Ang^3
#
#
#
# Elastic Constant Matrix: (Units=GPa)
#
#
# Indices 1 2 3 4 5 6 
#
# 1 149.8307 27.7707 41.9903 0.0000 0.0000 0.0000
# 2 27.7707 50.4010 5.1895 0.0000 0.0000 0.0000
# 3 41.9903 5.1895 80.4887 0.0000 0.0000 0.0000
# 4 0.0000 0.0000 0.0000 14.0623 0.0000 0.0000
# 5 0.0000 0.0000 0.0000 0.0000 4.1192 0.0000
# 6 0.0000 0.0000 0.0000 0.0000 0.0000 35.9307
#
#
#
# Elastic Compliance Matrix: (Units=1/GPa)
#
#
# Indices 1 2 3 4 5 6 
#
# 1 0.008667 -0.004339 -0.004242 0.000000 0.000000 0.000000
# 2 -0.004339 0.022145 0.000836 0.000000 0.000000 0.000000
# 3 -0.004242 0.000836 0.014583 0.000000 0.000000 0.000000
# 4 0.000000 0.000000 0.000000 0.071112 0.000000 0.000000
# 5 0.000000 0.000000 0.000000 0.000000 0.242768 0.000000
# 6 0.000000 0.000000 0.000000 0.000000 0.000000 0.027831
#
#
# Mechanical properties :
#
#
# Convention : Reuss Voigt Hill
#
# Bulk Modulus (GPa) = 33.43823 47.84683 40.64253
# Shear Modulus (GPa) = 12.11927 24.54041 18.32984
#
# Velocity S-wave (km/s) = 2.44408 3.47790 3.00577
# Velocity P-wave (km/s) = 4.94431 6.30168 5.66380
#
# Compressibility (1/GPa) = 0.02990589
#
# Stress axis : x y z
#
# Youngs Moduli (GPa) = 115.37789 45.15591 68.57224
#
# Poissons Ratio (x) = 0.19592 0.29087
# Poissons Ratio (y) = 0.50060 -0.05730
# Poissons Ratio (z) = 0.48942 -0.03774
#
# Static dielectric constant tensor:
#      x y z
#    x 1.776170 0.000000 0.000000 
#    y 0.000000 1.710210 0.000000 
#    z 0.000000 0.000000 1.744340 
# 
# From -- ./inp_files/33784.got.cif
#   From: 2010.05.17/outbox.cif.g08.bks.cpg/sg52_17_cif.got.tgz:33784.got - 2010.06.03 12:15:38.
