data_PCOD9412930
_publ_section_title
;
Structure prediction by ZEFSAII (Michael W. Deem and Ramdas Pophale) SiO2 
 PCOD9412930
Probable space group: P N N A
;
_chemical_formula_sum "Si O2"
_cell_formula_units_Z 40
_cell_length_a 9.331145
_cell_length_b 18.391268
_cell_length_c 10.998055
_cell_angle_alpha 90.000000
_cell_angle_beta 90.000000
_cell_angle_gamma 90.000000
_cell_volume 1887.393688
_symmetry_space_group_name_H-M "P N N A"
_symmetry_group_IT_number 52
_symmetry_cell_setting 'orthorhombic'
loop_
_space_group_symop_operation_xyz
x,y,z
1/2-x,-y,z
x,1/2-y,1/2-z
1/2-x,1/2+y,1/2-z
-x,-y,-z
1/2+x,y,-z
-x,1/2+y,1/2+z
1/2+x,1/2-y,1/2+z
loop_
_atom_site_type_symbol
_atom_site_label
_atom_site_fract_x
_atom_site_fract_y
_atom_site_fract_z
Si Si1 0.591933 0.369999 0.917095
Si Si2 0.284095 0.082813 0.607146
Si Si3 0.449389 0.430456 0.421987
Si Si4 0.949342 0.250000 0.250000
Si Si5 0.252155 0.136433 0.875643
Si Si6 0.750000 0.000000 0.722808
O O1 0.437811 0.401761 0.948330
O O2 0.551981 0.303535 0.827747
O O3 0.680110 0.432610 0.848092
O O4 0.676142 0.360649 0.043182
O O5 0.285714 0.091497 0.752363
O O6 0.250000 0.000000 0.581365
O O7 0.500000 0.500000 0.500000
O O8 0.328150 0.393237 0.504067
O O9 0.581934 0.375681 0.395882
O O10 0.375601 0.463744 0.303226
O O11 0.839354 0.209654 0.158077
#
# Coordination Sequence:
#
# PCOD9412930 Si02
#       6
#     8   8   8   4   8   4
#     4  11  25  43  70  96 144 182 234 292 353 423
#     4  11  22  41  67 102 136 174 229 293 350 415
#     4  12  22  42  71 105 134 175 233 306 352 410
#     4  10  26  50  64 100 146 192 232 290 354 438
#     4  11  25  41  69  96 141 184 229 284 357 422
#     4  12  24  42  74 110 134 182 242 300 362 398
#
# _framework density 21.193245999999998
#
# number of rings (size 3 to 8) (size 9 to 14) (size 15 to 20)
#    0.000    0.800    3.000    5.400    2.800    3.200 
#    0.000    1.000    0.000    0.000    0.000    0.000 
#    0.000    0.000    0.000    0.000    0.000    0.000 
#
# Total GULP energy -223257.885426 kJ/mol
# GULP energy per Si atom -5581.447136 kJ/mol
# Density = 2.114501 g / cm^3
# Si number density = 21.193246 Si / 1000 Ang^3
#
#
#
# Elastic Constant Matrix: (Units=GPa)
#
#
# Indices 1 2 3 4 5 6 
#
# 1 97.3361 15.8648 1.8457 0.0000 0.0000 0.0000
# 2 15.8648 92.4700 18.5386 0.0000 0.0000 0.0000
# 3 1.8457 18.5386 43.0357 0.0000 0.0000 0.0000
# 4 0.0000 0.0000 0.0000 -7.9637 0.0000 0.0000
# 5 0.0000 0.0000 0.0000 0.0000 47.7227 0.0000
# 6 0.0000 0.0000 0.0000 0.0000 0.0000 42.2458
#
#
#
# Elastic Compliance Matrix: (Units=1/GPa)
#
#
# Indices 1 2 3 4 5 6 
#
# 1 0.010574 -0.001886 0.000359 0.000000 0.000000 0.000000
# 2 -0.001886 0.012173 -0.005163 0.000000 0.000000 0.000000
# 3 0.000359 -0.005163 0.025445 0.000000 0.000000 0.000000
# 4 0.000000 0.000000 0.000000 -0.125570 0.000000 0.000000
# 5 0.000000 0.000000 0.000000 0.000000 0.020954 0.000000
# 6 0.000000 0.000000 0.000000 0.000000 0.000000 0.023671
#
#
# Mechanical properties :
#
#
# Convention : Reuss Voigt Hill
#
# Bulk Modulus (GPa) = 28.72547 33.92666 31.32607
# Shear Modulus (GPa) = -643.63975 29.50716 -307.06629
#
# Velocity S-wave (km/s) = -17.44591 3.73539 -12.05003
# Velocity P-wave (km/s) = 19.80478 5.88619 13.37128
#
# Compressibility (1/GPa) = 0.03481232
#
# Stress axis : x y z
#
# Youngs Moduli (GPa) = 94.56895 82.14907 39.30023
#
# Poissons Ratio (x) = 0.15495 -0.01411
# Poissons Ratio (y) = 0.17837 0.20290
# Poissons Ratio (z) = -0.03395 0.42413
#
# Static dielectric constant tensor:
#      x y z
#    x 1.800780 0.000000 0.000000 
#    y 0.000000 1.883280 0.000000 
#    z 0.000000 0.000000 1.802860 
# 
# From -- ./inp_files/16712.got.cif
#   From: 2010.05.17/outbox.cif.g08.bks.cpg/sg52_9_cif.got.tgz:16712.got - 2010.06.03 12:15:38.
