data_PCOD9412281
_publ_section_title
;
Structure prediction by ZEFSAII (Michael W. Deem and Ramdas Pophale) SiO2 
 PCOD9412281
Probable space group: P N N A
;
_chemical_formula_sum "Si O2"
_cell_formula_units_Z 40
_cell_length_a 7.865555
_cell_length_b 18.545138
_cell_length_c 11.533859
_cell_angle_alpha 90.000000
_cell_angle_beta 90.000000
_cell_angle_gamma 90.000000
_cell_volume 1682.418672
_symmetry_space_group_name_H-M "P N N A"
_symmetry_group_IT_number 52
_symmetry_cell_setting 'orthorhombic'
loop_
_space_group_symop_operation_xyz
x,y,z
1/2-x,-y,z
x,1/2-y,1/2-z
1/2-x,1/2+y,1/2-z
-x,-y,-z
1/2+x,y,-z
-x,1/2+y,1/2+z
1/2+x,1/2-y,1/2+z
loop_
_atom_site_type_symbol
_atom_site_label
_atom_site_fract_x
_atom_site_fract_y
_atom_site_fract_z
Si Si1 0.315816 0.644246 0.710361
Si Si2 0.989233 0.818605 0.660764
Si Si3 0.000383 0.724059 0.104953
Si Si4 0.731945 0.345314 0.655729
Si Si5 0.576762 0.922721 0.029582
O O1 0.470011 0.659475 0.802580
O O2 0.349681 0.717373 0.633849
O O3 0.239373 0.586874 0.616728
O O4 0.162498 0.643445 0.802963
O O5 0.986146 0.750000 0.750000
O O6 0.989341 0.801068 0.526441
O O7 0.829591 0.860991 0.714043
O O8 0.676061 0.768544 0.872585
O O9 0.868557 0.397136 0.597594
O O10 0.560113 0.366970 0.584038
O O11 0.500000 0.000000 0.000000
#
# Coordination Sequence:
#
# PCOD9412281 Si02
#       5
#     8   8   8   8   8
#     4  10  23  41  60  97 143 188 237 302 377 442
#     4  11  22  35  58  90 138 185 225 284 371 457
#     4  11  23  39  61  96 151 179 221 307 378 461
#     4  11  25  38  65 100 135 188 237 296 377 429
#     4  11  23  45  70  98 141 194 255 307 354 438
#
# _framework density 23.775293999999999
#
# number of rings (size 3 to 8) (size 9 to 14) (size 15 to 20)
#    0.000    1.200    2.000    5.400    8.400    0.000 
#    7.200    0.000    0.000    1.200    0.000   14.000 
#    0.000    2.000    0.000    0.000    0.000    0.000 
#
# Total GULP energy -222725.057291 kJ/mol
# GULP energy per Si atom -5568.126432 kJ/mol
# Density = 2.372118 g / cm^3
# Si number density = 23.775294 Si / 1000 Ang^3
#
#
#
# Elastic Constant Matrix: (Units=GPa)
#
#
# Indices 1 2 3 4 5 6 
#
# 1 153.7463 45.1198 57.0469 0.0000 0.0000 0.0000
# 2 45.1198 56.5674 51.1920 0.0000 0.0000 0.0000
# 3 57.0469 51.1920 253.7253 0.0000 0.0000 0.0000
# 4 0.0000 0.0000 0.0000 22.7663 0.0000 0.0000
# 5 0.0000 0.0000 0.0000 0.0000 47.4779 0.0000
# 6 0.0000 0.0000 0.0000 0.0000 0.0000 27.0828
#
#
#
# Elastic Compliance Matrix: (Units=1/GPa)
#
#
# Indices 1 2 3 4 5 6 
#
# 1 0.008584 -0.006240 -0.000671 0.000000 0.000000 0.000000
# 2 -0.006240 0.026162 -0.003876 0.000000 0.000000 0.000000
# 3 -0.000671 -0.003876 0.004874 0.000000 0.000000 0.000000
# 4 0.000000 0.000000 0.000000 0.043925 0.000000 0.000000
# 5 0.000000 0.000000 0.000000 0.000000 0.021062 0.000000
# 6 0.000000 0.000000 0.000000 0.000000 0.000000 0.036924
#
#
# Mechanical properties :
#
#
# Convention : Reuss Voigt Hill
#
# Bulk Modulus (GPa) = 55.40846 85.63959 70.52402
# Shear Modulus (GPa) = 29.56465 40.17743 34.87104
#
# Velocity S-wave (km/s) = 3.53016 4.11528 3.83390
# Velocity P-wave (km/s) = 6.32232 7.66024 7.02321
#
# Compressibility (1/GPa) = 0.01804778
#
# Stress axis : x y z
#
# Youngs Moduli (GPa) = 116.48978 38.22280 205.16521
#
# Poissons Ratio (x) = 0.23850 0.13770
# Poissons Ratio (y) = 0.72688 0.79514
# Poissons Ratio (z) = 0.07818 0.14814
#
# Static dielectric constant tensor:
#      x y z
#    x 2.173790 0.000000 0.000000 
#    y 0.000000 2.084190 0.000000 
#    z 0.000000 0.000000 1.971960 
# 
# From -- ./inp_files/16802.got.cif
#   From: 2010.05.17/outbox.cif.g08.bks.cpg/sg52_9_cif.got.tgz:16802.got - 2010.06.03 12:15:38.
