data_PCOD9412798
_publ_section_title
;
Structure prediction by ZEFSAII (Michael W. Deem and Ramdas Pophale) SiO2 
 PCOD9412798
Probable space group: P N N A
;
_chemical_formula_sum "Si O2"
_cell_formula_units_Z 40
_cell_length_a 13.416288
_cell_length_b 23.145043
_cell_length_c 5.025878
_cell_angle_alpha 90.000000
_cell_angle_beta 90.000000
_cell_angle_gamma 90.000000
_cell_volume 1560.638464
_symmetry_space_group_name_H-M "P N N A"
_symmetry_group_IT_number 52
_symmetry_cell_setting 'orthorhombic'
loop_
_space_group_symop_operation_xyz
x,y,z
1/2-x,-y,z
x,1/2-y,1/2-z
1/2-x,1/2+y,1/2-z
-x,-y,-z
1/2+x,y,-z
-x,1/2+y,1/2+z
1/2+x,1/2-y,1/2+z
loop_
_atom_site_type_symbol
_atom_site_label
_atom_site_fract_x
_atom_site_fract_y
_atom_site_fract_z
Si Si1 0.069484 0.750000 0.250000
Si Si2 0.769286 0.321946 0.644532
Si Si3 0.750000 0.500000 0.887317
Si Si4 0.039878 0.036475 0.242574
Si Si5 0.255215 0.109567 0.671899
Si Si6 0.067293 0.351621 0.569424
O O1 0.156390 0.727941 0.451181
O O2 0.001711 0.692824 0.266579
O O3 0.778070 0.343630 0.945222
O O4 0.653330 0.312669 0.574323
O O5 0.798056 0.375305 0.457229
O O6 0.839669 0.530202 0.737272
O O7 0.976844 0.604069 0.651110
O O8 0.205642 0.950561 0.572697
O O9 0.000000 0.000000 0.500000
O O10 0.000000 0.000000 0.000000
O O11 0.135205 0.111268 0.723543
#
# Coordination Sequence:
#
# PCOD9412798 Si02
#       6
#     4   8   4   8   8   8
#     4  12  28  52  88 108 162 230 274 344 422 492
#     4  10  26  50  73 115 153 212 272 331 408 489
#     4  12  24  52  84 110 174 218 250 366 420 494
#     4  12  29  46  82 124 163 215 275 335 427 509
#     4  10  24  48  78 110 164 204 271 334 414 488
#     4  10  27  52  76 124 167 207 282 353 399 498
#
# _framework density 25.630537
#
# number of rings (size 3 to 8) (size 9 to 14) (size 15 to 20)
#    1.200    0.000    2.000    1.200    8.400    6.400 
#    7.200    0.000    0.000    0.000    0.000    0.000 
#    0.000    0.000    0.000    0.000    0.000    0.000 
#
# Total GULP energy -222672.246244 kJ/mol
# GULP energy per Si atom -5566.806156 kJ/mol
# Density = 2.557220 g / cm^3
# Si number density = 25.630537 Si / 1000 Ang^3
#
#
#
# Elastic Constant Matrix: (Units=GPa)
#
#
# Indices 1 2 3 4 5 6 
#
# 1 112.4996 59.2760 24.0023 0.0000 0.0000 0.0000
# 2 59.2760 155.1733 36.7100 0.0000 0.0000 0.0000
# 3 24.0023 36.7100 115.1601 0.0000 0.0000 0.0000
# 4 0.0000 0.0000 0.0000 28.9624 0.0000 0.0000
# 5 0.0000 0.0000 0.0000 0.0000 -68.8289 0.0000
# 6 0.0000 0.0000 0.0000 0.0000 0.0000 10.5921
#
#
#
# Elastic Compliance Matrix: (Units=1/GPa)
#
#
# Indices 1 2 3 4 5 6 
#
# 1 0.011246 -0.004047 -0.001054 0.000000 0.000000 0.000000
# 2 -0.004047 0.008426 -0.001843 0.000000 0.000000 0.000000
# 3 -0.001054 -0.001843 0.009491 0.000000 0.000000 0.000000
# 4 0.000000 0.000000 0.000000 0.034528 0.000000 0.000000
# 5 0.000000 0.000000 0.000000 0.000000 -0.014529 0.000000
# 6 0.000000 0.000000 0.000000 0.000000 0.000000 0.094410
#
#
# Mechanical properties :
#
#
# Convention : Reuss Voigt Hill
#
# Bulk Modulus (GPa) = 65.46093 69.20106 67.33099
# Shear Modulus (GPa) = 30.75975 11.66809 21.21392
#
# Velocity S-wave (km/s) = 3.46803 2.13595 2.88007
# Velocity P-wave (km/s) = 6.45229 5.75683 6.11446
#
# Compressibility (1/GPa) = 0.01527629
#
# Stress axis : x y z
#
# Youngs Moduli (GPa) = 88.92096 118.67876 105.36721
#
# Poissons Ratio (x) = 0.48024 0.11106
# Poissons Ratio (y) = 0.35983 0.19415
# Poissons Ratio (z) = 0.09372 0.21868
#
# Static dielectric constant tensor:
#      x y z
#    x 2.131780 0.000000 0.000000 
#    y 0.000000 36.223990 0.000000 
#    z 0.000000 0.000000 3.582970 
# 
# From -- ./inp_files/2324.got.cif
#   From: 2010.05.17/outbox.cif.g08.bks.cpg/sg52_2_cif.got.tgz:2324.got - 2010.06.03 12:15:38.
