data_PCOD9412602
_publ_section_title
;
Structure prediction by ZEFSAII (Michael W. Deem and Ramdas Pophale) SiO2 
 PCOD9412602
Probable space group: P N N A
;
_chemical_formula_sum "Si O2"
_cell_formula_units_Z 40
_cell_length_a 12.406893
_cell_length_b 8.831800
_cell_length_c 16.122412
_cell_angle_alpha 90.000000
_cell_angle_beta 90.000000
_cell_angle_gamma 90.000000
_cell_volume 1766.616481
_symmetry_space_group_name_H-M "P N N A"
_symmetry_group_IT_number 52
_symmetry_cell_setting 'orthorhombic'
loop_
_space_group_symop_operation_xyz
x,y,z
1/2-x,-y,z
x,1/2-y,1/2-z
1/2-x,1/2+y,1/2-z
-x,-y,-z
1/2+x,y,-z
-x,1/2+y,1/2+z
1/2+x,1/2-y,1/2+z
loop_
_atom_site_type_symbol
_atom_site_label
_atom_site_fract_x
_atom_site_fract_y
_atom_site_fract_z
Si Si1 0.250000 0.000000 0.357969
Si Si2 0.454189 0.895106 0.114685
Si Si3 0.145058 0.097988 0.933746
Si Si4 0.199300 0.250000 0.250000
Si Si5 0.484910 0.937089 0.409094
Si Si6 0.342857 0.873274 0.676222
O O1 0.224274 0.854549 0.303499
O O2 0.143058 0.053281 0.401055
O O3 0.378272 0.857504 0.193561
O O4 0.518683 0.737554 0.100381
O O5 0.541020 0.030129 0.115389
O O6 0.383482 0.915313 0.031196
O O7 0.168976 0.268681 0.905706
O O8 0.250000 0.000000 0.914601
O O9 0.547234 0.034627 0.340471
O O10 0.500000 0.000000 0.500000
O O11 0.342613 0.750000 0.750000
O O12 0.250000 0.000000 0.685734
#
# Coordination Sequence:
#
# PCOD9412602 Si02
#       6
#     4   8   8   4   8   8
#     4  10  26  42  70 102 142 186 238 296 366 426
#     4  10  24  44  68 103 139 190 237 303 365 435
#     4  11  24  45  70 102 143 192 243 299 369 444
#     4  10  24  42  66 100 142 182 236 308 350 434
#     4  11  24  46  72 105 146 193 245 303 368 446
#     4  12  28  47  75 107 144 193 248 309 377 451
#
# _framework density 22.642153
#
# number of rings (size 3 to 8) (size 9 to 14) (size 15 to 20)
#    0.000    1.200    2.000    1.800    9.800    3.200 
#    3.600    0.000    0.000    0.000    0.000    0.000 
#    0.000    0.000    0.000    0.000    0.000    0.000 
#
# Total GULP energy -223471.165556 kJ/mol
# GULP energy per Si atom -5586.779139 kJ/mol
# Density = 2.259062 g / cm^3
# Si number density = 22.642153 Si / 1000 Ang^3
#
#
#
# Elastic Constant Matrix: (Units=GPa)
#
#
# Indices 1 2 3 4 5 6 
#
# 1 55.7411 24.3029 11.3776 0.0000 0.0000 0.0000
# 2 24.3029 101.0730 10.1245 0.0000 0.0000 0.0000
# 3 11.3776 10.1245 57.4777 0.0000 0.0000 0.0000
# 4 0.0000 0.0000 0.0000 45.4615 0.0000 0.0000
# 5 0.0000 0.0000 0.0000 0.0000 0.8823 0.0000
# 6 0.0000 0.0000 0.0000 0.0000 0.0000 35.7181
#
#
#
# Elastic Compliance Matrix: (Units=1/GPa)
#
#
# Indices 1 2 3 4 5 6 
#
# 1 0.020627 -0.004632 -0.003267 0.000000 0.000000 0.000000
# 2 -0.004632 0.011112 -0.001040 0.000000 0.000000 0.000000
# 3 -0.003267 -0.001040 0.018228 0.000000 0.000000 0.000000
# 4 0.000000 0.000000 0.000000 0.021997 0.000000 0.000000
# 5 0.000000 0.000000 0.000000 0.000000 1.133360 0.000000
# 6 0.000000 0.000000 0.000000 0.000000 0.000000 0.027997
#
#
# Mechanical properties :
#
#
# Convention : Reuss Voigt Hill
#
# Bulk Modulus (GPa) = 31.16523 33.98907 32.57715
# Shear Modulus (GPa) = 3.96229 27.64483 15.80356
#
# Velocity S-wave (km/s) = 1.32430 3.49799 2.64478
# Velocity P-wave (km/s) = 4.01653 5.59988 4.87294
#
# Compressibility (1/GPa) = 0.03208704
#
# Stress axis : x y z
#
# Youngs Moduli (GPa) = 48.48097 89.99358 54.86061
#
# Poissons Ratio (x) = 0.41689 0.17923
# Poissons Ratio (y) = 0.22458 0.05707
# Poissons Ratio (z) = 0.15839 0.09363
#
# Static dielectric constant tensor:
#      x y z
#    x 1.795260 0.000000 0.000000 
#    y 0.000000 1.944670 0.000000 
#    z 0.000000 0.000000 2.053260 
# 
# From -- ./inp_files/31998.got.cif
#   From: 2010.05.17/outbox.cif.g08.bks.cpg/sg52_16_cif.got.tgz:31998.got - 2010.06.03 12:15:38.
