data_PCOD9412160
_publ_section_title
;
Structure prediction by ZEFSAII (Michael W. Deem and Ramdas Pophale) SiO2 
 PCOD9412160
Probable space group: P N N A
;
_chemical_formula_sum "Si O2"
_cell_formula_units_Z 24
_cell_length_a 7.567129
_cell_length_b 9.873798
_cell_length_c 14.833200
_cell_angle_alpha 90.000000
_cell_angle_beta 90.000000
_cell_angle_gamma 90.000000
_cell_volume 1108.281868
_symmetry_space_group_name_H-M "P N N A"
_symmetry_group_IT_number 52
_symmetry_cell_setting 'orthorhombic'
loop_
_space_group_symop_operation_xyz
x,y,z
1/2-x,-y,z
x,1/2-y,1/2-z
1/2-x,1/2+y,1/2-z
-x,-y,-z
1/2+x,y,-z
-x,1/2+y,1/2+z
1/2+x,1/2-y,1/2+z
loop_
_atom_site_type_symbol
_atom_site_label
_atom_site_fract_x
_atom_site_fract_y
_atom_site_fract_z
Si Si1 0.250000 0.000000 0.453983
Si Si2 0.453299 0.964536 0.102689
Si Si3 0.750000 0.500000 0.264399
Si Si4 0.424347 0.156365 0.610461
O O1 0.311332 0.121737 0.520563
O O2 0.086883 0.051182 0.395941
O O3 0.498918 0.805991 0.113686
O O4 0.250000 0.000000 0.120603
O O5 0.587468 0.038312 0.170807
O O6 0.500000 0.000000 0.000000
O O7 0.690128 0.617662 0.196612
#
# Coordination Sequence:
#
# PCOD9412160 Si02
#       4
#     4   8   4   8
#     4   9  20  40  77  96 140 192 229 304 356 439
#     4  12  25  46  73 107 146 193 243 303 378 432
#     4  11  26  46  67 106 148 192 247 300 354 437
#     4  10  22  45  67 109 141 185 249 287 369 436
#
# _framework density 21.655141
#
# number of rings (size 3 to 8) (size 9 to 14) (size 15 to 20)
#    0.000    1.333    1.667    3.000    2.333    0.000 
#   18.000    0.000    0.000    0.000    0.000    0.000 
#    0.000    0.000    0.000    0.000    0.000    0.000 
#
# Total GULP energy -134291.139124 kJ/mol
# GULP energy per Si atom -5595.464130 kJ/mol
# Density = 2.160585 g / cm^3
# Si number density = 21.655141 Si / 1000 Ang^3
#
#
#
# Elastic Constant Matrix: (Units=GPa)
#
#
# Indices 1 2 3 4 5 6 
#
# 1 184.0534 56.0255 81.5074 0.0000 0.0000 0.0000
# 2 56.0255 113.7983 68.2227 0.0000 0.0000 0.0000
# 3 81.5074 68.2227 132.2230 0.0000 0.0000 0.0000
# 4 0.0000 0.0000 0.0000 10.6350 0.0000 0.0000
# 5 0.0000 0.0000 0.0000 0.0000 47.1469 0.0000
# 6 0.0000 0.0000 0.0000 0.0000 0.0000 42.3764
#
#
#
# Elastic Compliance Matrix: (Units=1/GPa)
#
#
# Indices 1 2 3 4 5 6 
#
# 1 0.007615 -0.001353 -0.003996 0.000000 0.000000 0.000000
# 2 -0.001353 0.012964 -0.005854 0.000000 0.000000 0.000000
# 3 -0.003996 -0.005854 0.013047 0.000000 0.000000 0.000000
# 4 0.000000 0.000000 0.000000 0.094029 0.000000 0.000000
# 5 0.000000 0.000000 0.000000 0.000000 0.021210 0.000000
# 6 0.000000 0.000000 0.000000 0.000000 0.000000 0.023598
#
#
# Mechanical properties :
#
#
# Convention : Reuss Voigt Hill
#
# Bulk Modulus (GPa) = 89.14326 93.50955 91.32641
# Shear Modulus (GPa) = 25.17515 34.98628 30.08071
#
# Velocity S-wave (km/s) = 3.41332 4.02383 3.73108
# Velocity P-wave (km/s) = 7.53582 8.05377 7.79910
#
# Compressibility (1/GPa) = 0.01121790
#
# Stress axis : x y z
#
# Youngs Moduli (GPa) = 131.32591 77.13906 76.64749
#
# Poissons Ratio (x) = 0.10441 0.30625
# Poissons Ratio (y) = 0.17775 0.44873
# Poissons Ratio (z) = 0.52473 0.45161
#
# Static dielectric constant tensor:
#      x y z
#    x 1.786140 0.000000 0.000000 
#    y 0.000000 1.769020 0.000000 
#    z 0.000000 0.000000 1.787560 
# 
# From -- ./inp_files/23936.got.cif
#   From: 2010.05.17/outbox.cif.g08.bks.cpg/sg52_12_cif.got.tgz:23936.got - 2010.06.03 12:15:38.
