data_PCOD9412408
_publ_section_title
;
Structure prediction by ZEFSAII (Michael W. Deem and Ramdas Pophale) SiO2 
 PCOD9412408
Probable space group: P N N A
;
_chemical_formula_sum "Si O2"
_cell_formula_units_Z 36
_cell_length_a 8.703651
_cell_length_b 13.037737
_cell_length_c 11.932051
_cell_angle_alpha 90.000000
_cell_angle_beta 90.000000
_cell_angle_gamma 90.000000
_cell_volume 1354.000377
_symmetry_space_group_name_H-M "P N N A"
_symmetry_group_IT_number 52
_symmetry_cell_setting 'orthorhombic'
loop_
_space_group_symop_operation_xyz
x,y,z
1/2-x,-y,z
x,1/2-y,1/2-z
1/2-x,1/2+y,1/2-z
-x,-y,-z
1/2+x,y,-z
-x,1/2+y,1/2+z
1/2+x,1/2-y,1/2+z
loop_
_atom_site_type_symbol
_atom_site_label
_atom_site_fract_x
_atom_site_fract_y
_atom_site_fract_z
Si Si1 0.331201 0.750000 0.750000
Si Si2 0.653423 0.603565 0.076974
Si Si3 0.325608 0.852011 0.364498
Si Si4 0.860046 0.882559 0.881236
Si Si5 0.384739 0.939868 0.875310
O O1 0.225523 0.687254 0.837539
O O2 0.429110 0.835595 0.814340
O O3 0.750000 0.500000 0.081758
O O4 0.475397 0.582507 0.102482
O O5 0.686628 0.643691 0.951125
O O6 0.277653 0.885116 0.239553
O O7 0.399291 0.737742 0.377032
O O8 0.803761 0.901001 0.008201
O O9 0.984694 0.974140 0.880496
O O10 0.250000 0.000000 0.813279
#
# Coordination Sequence:
#
# PCOD9412408 Si02
#       5
#     4   8   8   8   8
#     4  12  22  42  66 102 138 186 234 284 348 436
#     4  12  25  42  70  99 138 179 232 287 358 423
#     4  11  23  45  69 101 137 183 226 297 353 423
#     4  10  23  43  70  96 137 180 231 290 354 415
#     4  11  22  40  70 102 134 183 235 287 349 432
#
# _framework density 26.587879999999998
#
# number of rings (size 3 to 8) (size 9 to 14) (size 15 to 20)
#    0.000    0.889    2.222    6.667    0.000    0.889 
#    0.000    4.444    0.000    0.000    0.000    0.000 
#    0.000    0.000    0.000    0.000    0.000    0.000 
#
# Total GULP energy -201098.323528 kJ/mol
# GULP energy per Si atom -5586.064542 kJ/mol
# Density = 2.652736 g / cm^3
# Si number density = 26.587880 Si / 1000 Ang^3
#
#
#
# Elastic Constant Matrix: (Units=GPa)
#
#
# Indices 1 2 3 4 5 6 
#
# 1 55.7551 12.4976 13.2967 0.0000 0.0000 0.0000
# 2 12.4976 184.1643 30.5029 0.0000 0.0000 0.0000
# 3 13.2967 30.5029 188.1637 0.0000 0.0000 0.0000
# 4 0.0000 0.0000 0.0000 41.1013 0.0000 0.0000
# 5 0.0000 0.0000 0.0000 0.0000 -13.0401 0.0000
# 6 0.0000 0.0000 0.0000 0.0000 0.0000 38.0139
#
#
#
# Elastic Compliance Matrix: (Units=1/GPa)
#
#
# Indices 1 2 3 4 5 6 
#
# 1 0.018444 -0.001064 -0.001131 0.000000 0.000000 0.000000
# 2 -0.001064 0.005641 -0.000839 0.000000 0.000000 0.000000
# 3 -0.001131 -0.000839 0.005530 0.000000 0.000000 0.000000
# 4 0.000000 0.000000 0.000000 0.024330 0.000000 0.000000
# 5 0.000000 0.000000 0.000000 0.000000 -0.076687 0.000000
# 6 0.000000 0.000000 0.000000 0.000000 0.000000 0.026306
#
#
# Mechanical properties :
#
#
# Convention : Reuss Voigt Hill
#
# Bulk Modulus (GPa) = 42.46882 60.07525 51.27204
# Shear Modulus (GPa) = 285.99661 38.00076 161.99869
#
# Velocity S-wave (km/s) = 10.38268 3.78465 7.81420
# Velocity P-wave (km/s) = 12.63887 6.46081 10.03701
#
# Compressibility (1/GPa) = 0.02354668
#
# Stress axis : x y z
#
# Youngs Moduli (GPa) = 54.21867 177.26825 180.81603
#
# Poissons Ratio (x) = 0.18867 0.20447
# Poissons Ratio (y) = 0.05771 0.15175
# Poissons Ratio (z) = 0.06131 0.14878
#
# Static dielectric constant tensor:
#      x y z
#    x 2.050560 0.000000 0.000000 
#    y 0.000000 2.068050 0.000000 
#    z 0.000000 0.000000 2.159530 
# 
# From -- ./inp_files/17791.got.cif
#   From: 2010.05.17/outbox.cif.g08.bks.cpg/sg52_9_cif.got.tgz:17791.got - 2010.06.03 12:15:38.
