data_PCOD9412082
_publ_section_title
;
Structure prediction by ZEFSAII (Michael W. Deem and Ramdas Pophale) SiO2 
 PCOD9412082
Probable space group: P N N A
;
_chemical_formula_sum "Si O2"
_cell_formula_units_Z 40
_cell_length_a 15.938366
_cell_length_b 13.063250
_cell_length_c 8.593130
_cell_angle_alpha 90.000000
_cell_angle_beta 90.000000
_cell_angle_gamma 90.000000
_cell_volume 1789.148612
_symmetry_space_group_name_H-M "P N N A"
_symmetry_group_IT_number 52
_symmetry_cell_setting 'orthorhombic'
loop_
_space_group_symop_operation_xyz
x,y,z
1/2-x,-y,z
x,1/2-y,1/2-z
1/2-x,1/2+y,1/2-z
-x,-y,-z
1/2+x,y,-z
-x,1/2+y,1/2+z
1/2+x,1/2-y,1/2+z
loop_
_atom_site_type_symbol
_atom_site_label
_atom_site_fract_x
_atom_site_fract_y
_atom_site_fract_z
Si Si1 0.136629 0.023622 0.222802
Si Si2 0.960594 0.037483 0.335605
Si Si3 0.683688 0.869867 0.497666
Si Si4 0.274691 0.356897 0.439542
Si Si5 0.830354 0.866746 0.253676
O O1 0.161771 0.956927 0.375614
O O2 0.152709 0.939914 0.088189
O O3 0.042345 0.062515 0.235250
O O4 0.202171 0.113765 0.185618
O O5 0.905934 0.945979 0.262352
O O6 0.893451 0.124801 0.375834
O O7 0.000000 0.000000 0.500000
O O8 0.690938 0.757186 0.569206
O O9 0.770004 0.884105 0.402503
O O10 0.229831 0.374458 0.604582
O O11 0.862260 0.750000 0.250000
#
# Coordination Sequence:
#
# PCOD9412082 Si02
#       5
#     8   8   8   8   8
#     4  10  23  41  68 100 140 174 230 291 351 403
#     4  10  23  39  70 102 133 179 229 289 344 409
#     4  10  22  43  72  95 136 191 233 272 350 432
#     4  10  23  42  68 102 136 181 228 286 349 416
#     4  10  23  43  69  95 135 183 234 279 346 421
#
# _framework density 22.357002999999999
#
# number of rings (size 3 to 8) (size 9 to 14) (size 15 to 20)
#    0.000    2.000    0.000    1.200   16.800    4.000 
#    0.000    0.000   26.400    0.000    0.000    0.000 
#    0.000    0.000    0.000    0.000    0.000    0.000 
#
# Total GULP energy -223529.302663 kJ/mol
# GULP energy per Si atom -5588.232567 kJ/mol
# Density = 2.230612 g / cm^3
# Si number density = 22.357003 Si / 1000 Ang^3
#
#
#
# Elastic Constant Matrix: (Units=GPa)
#
#
# Indices 1 2 3 4 5 6 
#
# 1 125.1393 69.5807 18.4869 0.0000 0.0000 0.0000
# 2 69.5807 145.6885 36.2155 0.0000 0.0000 0.0000
# 3 18.4869 36.2155 73.3049 0.0000 0.0000 0.0000
# 4 0.0000 0.0000 0.0000 35.9989 0.0000 0.0000
# 5 0.0000 0.0000 0.0000 0.0000 35.7213 0.0000
# 6 0.0000 0.0000 0.0000 0.0000 0.0000 14.4493
#
#
#
# Elastic Compliance Matrix: (Units=1/GPa)
#
#
# Indices 1 2 3 4 5 6 
#
# 1 0.010883 -0.005148 -0.000201 0.000000 0.000000 0.000000
# 2 -0.005148 0.010260 -0.003771 0.000000 0.000000 0.000000
# 3 -0.000201 -0.003771 0.015555 0.000000 0.000000 0.000000
# 4 0.000000 0.000000 0.000000 0.027779 0.000000 0.000000
# 5 0.000000 0.000000 0.000000 0.000000 0.027994 0.000000
# 6 0.000000 0.000000 0.000000 0.000000 0.000000 0.069208
#
#
# Mechanical properties :
#
#
# Convention : Reuss Voigt Hill
#
# Bulk Modulus (GPa) = 54.17479 65.85543 60.01511
# Shear Modulus (GPa) = 26.87145 31.89054 29.38100
#
# Velocity S-wave (km/s) = 3.47064 3.78090 3.62909
# Velocity P-wave (km/s) = 6.35175 6.96997 6.66803
#
# Compressibility (1/GPa) = 0.01845877
#
# Stress axis : x y z
#
# Youngs Moduli (GPa) = 91.88560 97.46813 64.28696
#
# Poissons Ratio (x) = 0.50173 0.01295
# Poissons Ratio (y) = 0.47300 0.24240
# Poissons Ratio (z) = 0.01851 0.36751
#
# Static dielectric constant tensor:
#      x y z
#    x 1.806400 0.000000 0.000000 
#    y 0.000000 1.837140 0.000000 
#    z 0.000000 0.000000 1.955140 
# 
# From -- ./inp_files/10041.got.cif
#   From: 2010.05.17/outbox.cif.g08.bks.cpg/sg52_6_cif.got.tgz:10041.got - 2010.06.03 12:15:38.
