data_PCOD9412712
_publ_section_title
;
Structure prediction by ZEFSAII (Michael W. Deem and Ramdas Pophale) SiO2 
 PCOD9412712
Probable space group: P N N A
;
_chemical_formula_sum "Si O2"
_cell_formula_units_Z 60
_cell_length_a 11.179138
_cell_length_b 29.551448
_cell_length_c 8.368891
_cell_angle_alpha 90.000000
_cell_angle_beta 90.000000
_cell_angle_gamma 90.000000
_cell_volume 2764.744448
_symmetry_space_group_name_H-M "P N N A"
_symmetry_group_IT_number 52
_symmetry_cell_setting 'orthorhombic'
loop_
_space_group_symop_operation_xyz
x,y,z
1/2-x,-y,z
x,1/2-y,1/2-z
1/2-x,1/2+y,1/2-z
-x,-y,-z
1/2+x,y,-z
-x,1/2+y,1/2+z
1/2+x,1/2-y,1/2+z
loop_
_atom_site_type_symbol
_atom_site_label
_atom_site_fract_x
_atom_site_fract_y
_atom_site_fract_z
Si Si1 0.449250 0.691395 0.989859
Si Si2 0.365965 0.917318 0.940087
Si Si3 0.678432 0.845584 0.031909
Si Si4 0.204660 0.743651 0.053274
Si Si5 0.428316 0.114614 0.273846
Si Si6 0.750000 0.000000 0.215561
Si Si7 0.959111 0.620573 0.746370
Si Si8 0.925104 0.454329 0.038497
O O1 0.322850 0.718526 0.978434
O O2 0.422826 0.664087 0.153144
O O3 0.573717 0.721006 0.988157
O O4 0.489308 0.652238 0.863379
O O5 0.487815 0.913243 0.844750
O O6 0.317787 0.965843 0.898025
O O7 0.280236 0.876232 0.888661
O O8 0.378956 0.907544 0.125415
O O9 0.704186 0.792907 0.027632
O O10 0.659115 0.859149 0.845642
O O11 0.561780 0.859277 0.131062
O O12 0.213162 0.750000 0.250000
O O13 0.375333 0.076400 0.392229
O O14 0.672397 0.969612 0.334289
O O15 0.996156 0.583055 0.873441
O O16 0.000000 0.500000 0.000000
#
# Coordination Sequence:
#
# PCOD9412712 Si02
#       8
#     8   8   8   8   8   4   8   8
#     4  11  27  48  75 107 149 198 256 305 370 442
#     4  11  24  44  71 100 142 186 242 299 378 440
#     4  11  24  44  68 103 144 187 239 298 379 432
#     4  12  27  46  74 111 150 192 256 308 366 446
#     4  10  24  45  71 101 145 191 236 311 366 443
#     4  12  24  42  74 104 136 188 242 306 370 458
#     4  10  25  45  71 101 142 189 237 308 374 439
#     4  11  23  44  69 103 138 181 244 295 366 448
#
# _framework density 21.701823000000001
#
# number of rings (size 3 to 8) (size 9 to 14) (size 15 to 20)
#    0.000    1.067    4.000    0.800    7.467    2.667 
#    0.000    0.000    0.000    0.000    0.000    0.000 
#    0.000    0.000    0.000    0.000    0.000    0.000 
#
# Total GULP energy -334408.199403 kJ/mol
# GULP energy per Si atom -5573.469990 kJ/mol
# Density = 2.165243 g / cm^3
# Si number density = 21.701823 Si / 1000 Ang^3
#
#
#
# Elastic Constant Matrix: (Units=GPa)
#
#
# Indices 1 2 3 4 5 6 
#
# 1 68.9696 36.7650 19.1250 0.0000 0.0000 0.0000
# 2 36.7650 139.7667 30.1965 0.0000 0.0000 0.0000
# 3 19.1250 30.1965 58.6620 0.0000 0.0000 0.0000
# 4 0.0000 0.0000 0.0000 25.5180 0.0000 0.0000
# 5 0.0000 0.0000 0.0000 0.0000 5.6246 0.0000
# 6 0.0000 0.0000 0.0000 0.0000 0.0000 28.9630
#
#
#
# Elastic Compliance Matrix: (Units=1/GPa)
#
#
# Indices 1 2 3 4 5 6 
#
# 1 0.017575 -0.003809 -0.003769 0.000000 0.000000 0.000000
# 2 -0.003809 0.008875 -0.003327 0.000000 0.000000 0.000000
# 3 -0.003769 -0.003327 0.019988 0.000000 0.000000 0.000000
# 4 0.000000 0.000000 0.000000 0.039188 0.000000 0.000000
# 5 0.000000 0.000000 0.000000 0.000000 0.177792 0.000000
# 6 0.000000 0.000000 0.000000 0.000000 0.000000 0.034527
#
#
# Mechanical properties :
#
#
# Convention : Reuss Voigt Hill
#
# Bulk Modulus (GPa) = 40.60302 48.84124 44.72213
# Shear Modulus (GPa) = 15.24559 24.10855 19.67707
#
# Velocity S-wave (km/s) = 2.65335 3.33663 3.01441
# Velocity P-wave (km/s) = 5.30445 6.11544 5.72432
#
# Compressibility (1/GPa) = 0.02462871
#
# Stress axis : x y z
#
# Youngs Moduli (GPa) = 56.90054 112.67100 50.02947
#
# Poissons Ratio (x) = 0.42912 0.18857
# Poissons Ratio (y) = 0.21671 0.16645
# Poissons Ratio (z) = 0.21447 0.37485
#
# Static dielectric constant tensor:
#      x y z
#    x 1.867880 0.000000 0.000000 
#    y 0.000000 1.782120 0.000000 
#    z 0.000000 0.000000 1.879660 
# 
# From -- ./inp_files/9046.got.cif
#   From: 2010.05.17/outbox.cif.g08.bks.cpg/sg52_5_cif.got.tgz:9046.got - 2010.06.03 12:15:38.
