data_PCOD9412266
_publ_section_title
;
Structure prediction by ZEFSAII (Michael W. Deem and Ramdas Pophale) SiO2 
 PCOD9412266
Probable space group: P N N A
;
_chemical_formula_sum "Si O2"
_cell_formula_units_Z 24
_cell_length_a 8.825405
_cell_length_b 5.255827
_cell_length_c 23.701253
_cell_angle_alpha 90.000000
_cell_angle_beta 90.000000
_cell_angle_gamma 90.000000
_cell_volume 1099.377925
_symmetry_space_group_name_H-M "P N N A"
_symmetry_group_IT_number 52
_symmetry_cell_setting 'orthorhombic'
loop_
_space_group_symop_operation_xyz
x,y,z
1/2-x,-y,z
x,1/2-y,1/2-z
1/2-x,1/2+y,1/2-z
-x,-y,-z
1/2+x,y,-z
-x,1/2+y,1/2+z
1/2+x,1/2-y,1/2+z
loop_
_atom_site_type_symbol
_atom_site_label
_atom_site_fract_x
_atom_site_fract_y
_atom_site_fract_z
Si Si1 0.645557 0.255377 0.018077
Si Si2 0.573183 0.478486 0.593878
Si Si3 0.067235 0.503851 0.716251
O O1 0.750000 0.500000 0.026574
O O2 0.750000 0.000000 0.023636
O O3 0.509224 0.211979 0.061772
O O4 0.575420 0.236604 0.955138
O O5 0.750000 0.500000 0.607647
O O6 0.486672 0.458754 0.652386
O O7 0.250000 0.500000 0.715616
O O8 0.017404 0.250000 0.750000
O O9 0.014330 0.750000 0.750000
#
# Coordination Sequence:
#
# PCOD9412266 Si02
#       3
#     8   8   8
#     4  10  23  42  64  93 131 172 208 253 324 400
#     4  10  23  40  65  96 128 164 213 271 324 378
#     4  10  23  42  63  87 120 168 217 260 317 388
#
# _framework density 21.830525000000002
#
# number of rings (size 3 to 8) (size 9 to 14) (size 15 to 20)
#    0.000    2.000    0.000    1.000    0.000   26.667 
#    0.000    0.000    0.000    0.000    0.000    0.000 
#    0.000    0.000    0.000    0.000    0.000    0.000 
#
# Total GULP energy -134007.396168 kJ/mol
# GULP energy per Si atom -5583.641507 kJ/mol
# Density = 2.178084 g / cm^3
# Si number density = 21.830525 Si / 1000 Ang^3
#
#
#
# Elastic Constant Matrix: (Units=GPa)
#
#
# Indices 1 2 3 4 5 6 
#
# 1 67.5695 64.6435 18.8865 0.0000 0.0000 0.0000
# 2 64.6435 185.9104 59.3297 0.0000 0.0000 0.0000
# 3 18.8865 59.3297 159.3521 0.0000 0.0000 0.0000
# 4 0.0000 0.0000 0.0000 -5.4603 0.0000 0.0000
# 5 0.0000 0.0000 0.0000 0.0000 192.0831 0.0000
# 6 0.0000 0.0000 0.0000 0.0000 0.0000 35.2687
#
#
#
# Elastic Compliance Matrix: (Units=1/GPa)
#
#
# Indices 1 2 3 4 5 6 
#
# 1 0.022187 -0.007803 0.000275 0.000000 0.000000 0.000000
# 2 -0.007803 0.008848 -0.002370 0.000000 0.000000 0.000000
# 3 0.000275 -0.002370 0.007125 0.000000 0.000000 0.000000
# 4 0.000000 0.000000 0.000000 -0.183142 0.000000 0.000000
# 5 0.000000 0.000000 0.000000 0.000000 0.005206 0.000000
# 6 0.000000 0.000000 0.000000 0.000000 0.000000 0.028354
#
#
# Mechanical properties :
#
#
# Convention : Reuss Voigt Hill
#
# Bulk Modulus (GPa) = 54.44576 77.61682 66.03129
# Shear Modulus (GPa) = -58.47606 62.37647 1.95021
#
# Velocity S-wave (km/s) = -5.18117 5.35118 0.94619
# Velocity P-wave (km/s) = 3.28609 8.59137 5.61307
#
# Compressibility (1/GPa) = 0.01836690
#
# Stress axis : x y z
#
# Youngs Moduli (GPa) = 45.07050 113.01651 140.35083
#
# Poissons Ratio (x) = 0.88184 -0.03866
# Poissons Ratio (y) = 0.35167 0.33257
# Poissons Ratio (z) = -0.01241 0.26780
#
# Static dielectric constant tensor:
#      x y z
#    x 1.838000 0.000000 0.000000 
#    y 0.000000 1.887060 0.000000 
#    z 0.000000 0.000000 1.766810 
# 
# From -- ./inp_files/39005.got.cif
#   From: 2010.05.17/outbox.cif.g08.bks.cpg/sg52_20_cif.got.tgz:39005.got - 2010.06.03 12:15:38.
