data_PCOD9412396
_publ_section_title
;
Structure prediction by ZEFSAII (Michael W. Deem and Ramdas Pophale) SiO2 
 PCOD9412396
Probable space group: P N N A
;
_chemical_formula_sum "Si O2"
_cell_formula_units_Z 48
_cell_length_a 14.756630
_cell_length_b 17.950838
_cell_length_c 8.850354
_cell_angle_alpha 90.000000
_cell_angle_beta 90.000000
_cell_angle_gamma 90.000000
_cell_volume 2344.404562
_symmetry_space_group_name_H-M "P N N A"
_symmetry_group_IT_number 52
_symmetry_cell_setting 'orthorhombic'
loop_
_space_group_symop_operation_xyz
x,y,z
1/2-x,-y,z
x,1/2-y,1/2-z
1/2-x,1/2+y,1/2-z
-x,-y,-z
1/2+x,y,-z
-x,1/2+y,1/2+z
1/2+x,1/2-y,1/2+z
loop_
_atom_site_type_symbol
_atom_site_label
_atom_site_fract_x
_atom_site_fract_y
_atom_site_fract_z
Si Si1 0.173833 0.440336 0.717491
Si Si2 0.560240 0.268349 0.573953
Si Si3 0.267750 0.706288 0.894469
Si Si4 0.598445 0.691693 0.888867
Si Si5 0.571590 0.439830 0.567171
Si Si6 0.025293 0.971813 0.335335
O O1 0.250000 0.500000 0.752780
O O2 0.194810 0.367484 0.814010
O O3 0.161607 0.434741 0.535831
O O4 0.074059 0.464298 0.764587
O O5 0.575928 0.250000 0.750000
O O6 0.649357 0.250106 0.473908
O O7 0.480112 0.219580 0.502355
O O8 0.534765 0.355658 0.562906
O O9 0.227849 0.750000 0.750000
O O10 0.191909 0.691203 0.019004
O O11 0.601795 0.750000 0.750000
O O12 0.572820 0.608647 0.835472
O O13 0.500000 0.500000 0.500000
O O14 0.582878 0.468959 0.737842
O O15 0.000000 0.000000 0.500000
#
# Coordination Sequence:
#
# PCOD9412396 Si02
#       6
#     8   8   8   8   8   8
#     4  11  23  43  68 100 145 186 237 297 361 435
#     4  12  24  46  73 102 146 191 243 305 367 440
#     4  12  25  45  71 103 144 192 247 302 366 437
#     4  12  25  44  73 104 145 190 247 301 370 444
#     4  10  23  43  69 100 141 188 236 286 367 436
#     4  11  23  44  69 103 142 187 237 301 372 433
#
# _framework density 20.474284000000001
#
# number of rings (size 3 to 8) (size 9 to 14) (size 15 to 20)
#    0.000    0.667    3.333    5.500    0.000    5.333 
#    3.000    0.833    0.000    0.000    0.000    0.000 
#    0.000    0.000    0.000    0.000    0.000    0.000 
#
# Total GULP energy -268037.264364 kJ/mol
# GULP energy per Si atom -5584.109674 kJ/mol
# Density = 2.042768 g / cm^3
# Si number density = 20.474284 Si / 1000 Ang^3
#
#
#
# Elastic Constant Matrix: (Units=GPa)
#
#
# Indices 1 2 3 4 5 6 
#
# 1 88.8394 31.6615 36.0173 0.0000 0.0000 0.0000
# 2 31.6615 112.6319 41.1369 0.0000 0.0000 0.0000
# 3 36.0173 41.1369 140.8782 0.0000 0.0000 0.0000
# 4 0.0000 0.0000 0.0000 -9.7065 0.0000 0.0000
# 5 0.0000 0.0000 0.0000 0.0000 44.7477 0.0000
# 6 0.0000 0.0000 0.0000 0.0000 0.0000 27.8053
#
#
#
# Elastic Compliance Matrix: (Units=1/GPa)
#
#
# Indices 1 2 3 4 5 6 
#
# 1 0.013300 -0.002795 -0.002584 0.000000 0.000000 0.000000
# 2 -0.002795 0.010526 -0.002359 0.000000 0.000000 0.000000
# 3 -0.002584 -0.002359 0.008448 0.000000 0.000000 0.000000
# 4 0.000000 0.000000 0.000000 -0.103024 0.000000 0.000000
# 5 0.000000 0.000000 0.000000 0.000000 0.022348 0.000000
# 6 0.000000 0.000000 0.000000 0.000000 0.000000 0.035964
#
#
# Mechanical properties :
#
#
# Convention : Reuss Voigt Hill
#
# Bulk Modulus (GPa) = 59.53291 62.22010 60.87650
# Shear Modulus (GPa) = 578.91251 28.13822 303.52536
#
# Velocity S-wave (km/s) = 16.83345 3.71120 12.18889
# Velocity P-wave (km/s) = 20.17325 6.98709 15.09601
#
# Compressibility (1/GPa) = 0.01679743
#
# Stress axis : x y z
#
# Youngs Moduli (GPa) = 75.18783 95.00535 118.37329
#
# Poissons Ratio (x) = 0.26553 0.30590
# Poissons Ratio (y) = 0.21014 0.27924
# Poissons Ratio (z) = 0.19430 0.22412
#
# Static dielectric constant tensor:
#      x y z
#    x 1.682730 0.000000 0.000000 
#    y 0.000000 1.727780 0.000000 
#    z 0.000000 0.000000 1.842210 
# 
# From -- ./inp_files/10499.got.cif
#   From: 2010.05.17/outbox.cif.g08.bks.cpg/sg52_6_cif.got.tgz:10499.got - 2010.06.03 12:15:38.
