data_PCOD9412209
_publ_section_title
;
Structure prediction by ZEFSAII (Michael W. Deem and Ramdas Pophale) SiO2 
 PCOD9412209
Probable space group: P N N A
;
_chemical_formula_sum "Si O2"
_cell_formula_units_Z 36
_cell_length_a 12.179947
_cell_length_b 20.730982
_cell_length_c 5.802766
_cell_angle_alpha 90.000000
_cell_angle_beta 90.000000
_cell_angle_gamma 90.000000
_cell_volume 1465.211541
_symmetry_space_group_name_H-M "P N N A"
_symmetry_group_IT_number 52
_symmetry_cell_setting 'orthorhombic'
loop_
_space_group_symop_operation_xyz
x,y,z
1/2-x,-y,z
x,1/2-y,1/2-z
1/2-x,1/2+y,1/2-z
-x,-y,-z
1/2+x,y,-z
-x,1/2+y,1/2+z
1/2+x,1/2-y,1/2+z
loop_
_atom_site_type_symbol
_atom_site_label
_atom_site_fract_x
_atom_site_fract_y
_atom_site_fract_z
Si Si1 0.213042 0.629157 0.064103
Si Si2 0.814806 0.250000 0.250000
Si Si3 0.585425 0.975491 0.301952
Si Si4 0.970809 0.185132 0.882296
Si Si5 0.386571 0.587014 0.446887
O O1 0.103923 0.642100 0.215139
O O2 0.303408 0.601066 0.240641
O O3 0.238301 0.696985 0.929604
O O4 0.178757 0.570304 0.901686
O O5 0.894548 0.295328 0.402995
O O6 0.506159 0.930969 0.150334
O O7 0.500000 0.000000 0.500000
O O8 0.630905 0.031407 0.134905
O O9 0.993061 0.250000 0.750000
O O10 0.087913 0.154239 0.933270
#
# Coordination Sequence:
#
# PCOD9412209 Si02
#       5
#     8   4   8   8   8
#     4  11  24  48  79 114 152 208 267 333 402 487
#     4  10  22  48  74 110 160 192 260 338 386 488
#     4  11  24  49  75 113 154 205 269 330 396 478
#     4  10  22  47  75 110 151 193 260 329 385 477
#     4  11  25  48  79 112 153 208 260 329 406 473
#
# _framework density 24.569832000000002
#
# number of rings (size 3 to 8) (size 9 to 14) (size 15 to 20)
#    0.000    1.333    4.444    0.000    0.000    2.667 
#   12.000    0.000    4.889    0.000    0.000    0.000 
#    0.000    0.000    0.000    0.000    0.000    0.000 
#
# Total GULP energy -201379.093019 kJ/mol
# GULP energy per Si atom -5593.863695 kJ/mol
# Density = 2.451391 g / cm^3
# Si number density = 24.569832 Si / 1000 Ang^3
#
#
#
# Elastic Constant Matrix: (Units=GPa)
#
#
# Indices 1 2 3 4 5 6 
#
# 1 117.5233 74.1177 70.7672 0.0000 0.0000 0.0000
# 2 74.1177 153.0511 87.6469 0.0000 0.0000 0.0000
# 3 70.7672 87.6469 131.9414 0.0000 0.0000 0.0000
# 4 0.0000 0.0000 0.0000 62.0143 0.0000 0.0000
# 5 0.0000 0.0000 0.0000 0.0000 38.3756 0.0000
# 6 0.0000 0.0000 0.0000 0.0000 0.0000 19.9333
#
#
#
# Elastic Compliance Matrix: (Units=1/GPa)
#
#
# Indices 1 2 3 4 5 6 
#
# 1 0.013924 -0.003980 -0.004824 0.000000 0.000000 0.000000
# 2 -0.003980 0.011683 -0.005626 0.000000 0.000000 0.000000
# 3 -0.004824 -0.005626 0.013904 0.000000 0.000000 0.000000
# 4 0.000000 0.000000 0.000000 0.016125 0.000000 0.000000
# 5 0.000000 0.000000 0.000000 0.000000 0.026058 0.000000
# 6 0.000000 0.000000 0.000000 0.000000 0.000000 0.050167
#
#
# Mechanical properties :
#
#
# Convention : Reuss Voigt Hill
#
# Bulk Modulus (GPa) = 93.89683 96.39771 95.14727
# Shear Modulus (GPa) = 30.43710 35.39692 32.91701
#
# Velocity S-wave (km/s) = 3.52348 3.79973 3.66421
# Velocity P-wave (km/s) = 7.40624 7.65310 7.53068
#
# Compressibility (1/GPa) = 0.01064999
#
# Stress axis : x y z
#
# Youngs Moduli (GPa) = 71.81782 85.59292 71.92228
#
# Poissons Ratio (x) = 0.34069 0.34696
# Poissons Ratio (y) = 0.28586 0.40464
# Poissons Ratio (z) = 0.34646 0.48155
#
# Static dielectric constant tensor:
#      x y z
#    x 1.922960 0.000000 0.000000 
#    y 0.000000 1.960620 0.000000 
#    z 0.000000 0.000000 2.121810 
# 
# From -- ./inp_files/2168.got.cif
#   From: 2010.05.17/outbox.cif.g08.bks.cpg/sg52_2_cif.got.tgz:2168.got - 2010.06.03 12:15:38.
