data_PCOD9412714
_publ_section_title
;
Structure prediction by ZEFSAII (Michael W. Deem and Ramdas Pophale) SiO2 
 PCOD9412714
Probable space group: P N N A
;
_chemical_formula_sum "Si O2"
_cell_formula_units_Z 28
_cell_length_a 5.228031
_cell_length_b 10.064389
_cell_length_c 22.752671
_cell_angle_alpha 90.000000
_cell_angle_beta 90.000000
_cell_angle_gamma 90.000000
_cell_volume 1197.175872
_symmetry_space_group_name_H-M "P N N A"
_symmetry_group_IT_number 52
_symmetry_cell_setting 'orthorhombic'
loop_
_space_group_symop_operation_xyz
x,y,z
1/2-x,-y,z
x,1/2-y,1/2-z
1/2-x,1/2+y,1/2-z
-x,-y,-z
1/2+x,y,-z
-x,1/2+y,1/2+z
1/2+x,1/2-y,1/2+z
loop_
_atom_site_type_symbol
_atom_site_label
_atom_site_fract_x
_atom_site_fract_y
_atom_site_fract_z
Si Si1 0.750000 0.500000 0.078479
Si Si2 0.254002 0.297075 0.534744
Si Si3 0.946415 0.106547 0.248913
Si Si4 0.750000 0.500000 0.841416
Si Si5 0.750000 0.000000 0.136705
O O1 0.741775 0.638219 0.043394
O O2 0.491919 0.489096 0.116632
O O3 0.534978 0.334338 0.511757
O O4 0.191486 0.376087 0.594549
O O5 0.822410 0.250000 0.250000
O O6 0.750000 0.000000 0.275221
O O7 0.966811 0.052155 0.182542
O O8 0.185108 0.114398 0.293191
#
# Coordination Sequence:
#
# PCOD9412714 Si02
#       5
#     4   8   8   4   4
#     4  12  25  45  74 108 138 193 235 302 360 420
#     4  12  26  48  71 101 140 186 248 301 352 417
#     4  10  24  45  71 109 150 187 238 291 360 443
#     4  12  24  43  73 106 151 179 236 284 362 436
#     4  10  25  44  71 104 141 194 229 294 364 420
#
# _framework density 23.388379
#
# number of rings (size 3 to 8) (size 9 to 14) (size 15 to 20)
#    0.857    0.000    1.429    5.143    0.000    5.714 
#    0.000    0.000    0.000    0.000    0.000    0.000 
#    0.000    0.000    0.000    0.000    0.000    0.000 
#
# Total GULP energy -156146.726545 kJ/mol
# GULP energy per Si atom -5576.668805 kJ/mol
# Density = 2.333515 g / cm^3
# Si number density = 23.388379 Si / 1000 Ang^3
#
#
#
# Elastic Constant Matrix: (Units=GPa)
#
#
# Indices 1 2 3 4 5 6 
#
# 1 115.3313 20.2051 36.3798 0.0000 0.0000 0.0000
# 2 20.2051 118.1116 -1.7006 0.0000 0.0000 0.0000
# 3 36.3798 -1.7006 76.1839 0.0000 0.0000 0.0000
# 4 0.0000 0.0000 0.0000 -345.6577 0.0000 0.0000
# 5 0.0000 0.0000 0.0000 0.0000 78.8192 0.0000
# 6 0.0000 0.0000 0.0000 0.0000 0.0000 11.5894
#
#
#
# Elastic Compliance Matrix: (Units=1/GPa)
#
#
# Indices 1 2 3 4 5 6 
#
# 1 0.010614 -0.001889 -0.005110 0.000000 0.000000 0.000000
# 2 -0.001889 0.008806 0.001099 0.000000 0.000000 0.000000
# 3 -0.005110 0.001099 0.015591 0.000000 0.000000 0.000000
# 4 0.000000 0.000000 0.000000 -0.002893 0.000000 0.000000
# 5 0.000000 0.000000 0.000000 0.000000 0.012687 0.000000
# 6 0.000000 0.000000 0.000000 0.000000 0.000000 0.086286
#
#
# Mechanical properties :
#
#
# Convention : Reuss Voigt Hill
#
# Bulk Modulus (GPa) = 43.08802 46.59949 44.84376
# Shear Modulus (GPa) = 33.19419 -34.06698 -0.43639
#
# Velocity S-wave (km/s) = 3.77139 -3.82065 -0.43242
# Velocity P-wave (km/s) = 6.11779 0.71012 4.35498
#
# Compressibility (1/GPa) = 0.02320831
#
# Stress axis : x y z
#
# Youngs Moduli (GPa) = 94.21784 113.56439 64.13935
#
# Poissons Ratio (x) = 0.21455 0.32778
# Poissons Ratio (y) = 0.17800 -0.07047
# Poissons Ratio (z) = 0.48150 -0.12478
#
# Static dielectric constant tensor:
#      x y z
#    x 2.100540 0.000000 0.000000 
#    y 0.000000 1.985620 0.000000 
#    z 0.000000 0.000000 1.879480 
# 
# From -- ./inp_files/34790.got.cif
#   From: 2010.05.17/outbox.cif.g08.bks.cpg/sg52_18_cif.got.tgz:34790.got - 2010.06.03 12:15:38.
