data_PCOD9412836
_publ_section_title
;
Structure prediction by ZEFSAII (Michael W. Deem and Ramdas Pophale) SiO2 
 PCOD9412836
Probable space group: P N N A
;
_chemical_formula_sum "Si O2"
_cell_formula_units_Z 40
_cell_length_a 24.853823
_cell_length_b 5.208401
_cell_length_c 14.154525
_cell_angle_alpha 90.000000
_cell_angle_beta 90.000000
_cell_angle_gamma 90.000000
_cell_volume 1832.284529
_symmetry_space_group_name_H-M "P N N A"
_symmetry_group_IT_number 52
_symmetry_cell_setting 'orthorhombic'
loop_
_space_group_symop_operation_xyz
x,y,z
1/2-x,-y,z
x,1/2-y,1/2-z
1/2-x,1/2+y,1/2-z
-x,-y,-z
1/2+x,y,-z
-x,1/2+y,1/2+z
1/2+x,1/2-y,1/2+z
loop_
_atom_site_type_symbol
_atom_site_label
_atom_site_fract_x
_atom_site_fract_y
_atom_site_fract_z
Si Si1 0.533087 0.753634 0.532176
Si Si2 0.793909 0.176158 0.650280
Si Si3 0.814852 0.505125 0.308266
Si Si4 0.137893 0.493188 0.486181
Si Si5 0.092705 0.084589 0.339464
O O1 0.500000 0.500000 0.500000
O O2 0.592825 0.709148 0.491555
O O3 0.500000 0.000000 0.500000
O O4 0.552095 0.850765 0.636699
O O5 0.768047 0.250000 0.750000
O O6 0.816308 0.401776 0.584659
O O7 0.750000 0.000000 0.598343
O O8 0.848148 0.027202 0.679392
O O9 0.750000 0.500000 0.312519
O O10 0.833105 0.750000 0.250000
O O11 0.835833 0.554220 0.413652
O O12 0.831624 0.250000 0.250000
O O13 0.105087 0.273261 0.429120
O O14 0.074508 0.250000 0.250000
#
# Coordination Sequence:
#
# PCOD9412836 Si02
#       5
#     8   8   8   8   8
#     4  11  24  46  71  99 138 184 240 296 356 426
#     4  11  24  36  61 104 154 194 234 276 341 441
#     4  10  25  45  69  98 136 182 238 291 349 414
#     4  11  25  43  73  98 142 184 237 296 359 423
#     4  11  23  43  70 104 147 187 231 291 363 443
#
# _framework density 21.830672
#
# number of rings (size 3 to 8) (size 9 to 14) (size 15 to 20)
#    0.000    1.200    4.000    0.600    8.400    0.800 
#    0.000    3.000    0.000    0.000    0.000    0.000 
#    0.000    0.000    0.000    0.000    0.000    0.000 
#
# Total GULP energy -222964.989143 kJ/mol
# GULP energy per Si atom -5574.124729 kJ/mol
# Density = 2.178098 g / cm^3
# Si number density = 21.830672 Si / 1000 Ang^3
#
#
#
# Elastic Constant Matrix: (Units=GPa)
#
#
# Indices 1 2 3 4 5 6 
#
# 1 57.7261 40.4732 24.8258 0.0000 0.0000 0.0000
# 2 40.4732 159.2898 69.2087 0.0000 0.0000 0.0000
# 3 24.8258 69.2087 152.9174 0.0000 0.0000 0.0000
# 4 0.0000 0.0000 0.0000 44.1928 0.0000 0.0000
# 5 0.0000 0.0000 0.0000 0.0000 8.9832 0.0000
# 6 0.0000 0.0000 0.0000 0.0000 0.0000 42.2015
#
#
#
# Elastic Compliance Matrix: (Units=1/GPa)
#
#
# Indices 1 2 3 4 5 6 
#
# 1 0.021270 -0.004860 -0.001254 0.000000 0.000000 0.000000
# 2 -0.004860 0.008925 -0.003250 0.000000 0.000000 0.000000
# 3 -0.001254 -0.003250 0.008214 0.000000 0.000000 0.000000
# 4 0.000000 0.000000 0.000000 0.022628 0.000000 0.000000
# 5 0.000000 0.000000 0.000000 0.000000 0.111319 0.000000
# 6 0.000000 0.000000 0.000000 0.000000 0.000000 0.023696
#
#
# Mechanical properties :
#
#
# Convention : Reuss Voigt Hill
#
# Bulk Modulus (GPa) = 50.80979 70.99431 60.90205
# Shear Modulus (GPa) = 22.58984 34.77054 28.68019
#
# Velocity S-wave (km/s) = 3.22028 3.99524 3.62851
# Velocity P-wave (km/s) = 6.09524 7.33987 6.74632
#
# Compressibility (1/GPa) = 0.01968125
#
# Stress axis : x y z
#
# Youngs Moduli (GPa) = 47.01566 112.04701 121.74227
#
# Poissons Ratio (x) = 0.54450 0.15263
# Poissons Ratio (y) = 0.22848 0.39570
# Poissons Ratio (z) = 0.05894 0.36419
#
# Static dielectric constant tensor:
#      x y z
#    x 1.791520 0.000000 0.000000 
#    y 0.000000 1.964860 0.000000 
#    z 0.000000 0.000000 1.773130 
# 
# From -- ./inp_files/22641.got.cif
#   From: 2010.05.17/outbox.cif.g08.bks.cpg/sg52_12_cif.got.tgz:22641.got - 2010.06.03 12:15:38.
