data_PCOD9412440
_publ_section_title
;
Structure prediction by ZEFSAII (Michael W. Deem and Ramdas Pophale) SiO2 
 PCOD9412440
Probable space group: P N N A
;
_chemical_formula_sum "Si O2"
_cell_formula_units_Z 48
_cell_length_a 8.716354
_cell_length_b 8.314134
_cell_length_c 27.179450
_cell_angle_alpha 90.000000
_cell_angle_beta 90.000000
_cell_angle_gamma 90.000000
_cell_volume 1969.665799
_symmetry_space_group_name_H-M "P N N A"
_symmetry_group_IT_number 52
_symmetry_cell_setting 'orthorhombic'
loop_
_space_group_symop_operation_xyz
x,y,z
1/2-x,-y,z
x,1/2-y,1/2-z
1/2-x,1/2+y,1/2-z
-x,-y,-z
1/2+x,y,-z
-x,1/2+y,1/2+z
1/2+x,1/2-y,1/2+z
loop_
_atom_site_type_symbol
_atom_site_label
_atom_site_fract_x
_atom_site_fract_y
_atom_site_fract_z
Si Si1 0.989546 0.928259 0.853357
Si Si2 0.807983 0.752207 0.149749
Si Si3 0.750000 0.500000 0.719643
Si Si4 0.902891 0.719481 0.554515
Si Si5 0.250000 0.500000 0.119974
Si Si6 0.955701 0.387893 0.792079
Si Si7 0.749502 0.816371 0.461130
O O1 0.928780 0.929565 0.909183
O O2 0.130276 0.803561 0.846099
O O3 0.839632 0.892822 0.821470
O O4 0.074473 0.097368 0.842156
O O5 0.824146 0.695188 0.093209
O O6 0.869991 0.633520 0.191718
O O7 0.887785 0.528168 0.759543
O O8 0.822300 0.703323 0.502342
O O9 0.074098 0.773028 0.543426
O O10 0.825903 0.862442 0.586386
O O11 0.130157 0.590831 0.156054
O O12 0.912319 0.250000 0.750000
O O13 0.750000 0.000000 0.478376
#
# Coordination Sequence:
#
# PCOD9412440 Si02
#       7
#     8   8   4   8   4   8   8
#     4  10  23  44  68  98 133 178 223 280 339 413
#     4  10  23  44  68  95 142 172 223 280 346 406
#     4  11  22  42  74 100 130 178 240 271 336 408
#     4  11  24  40  65  97 129 176 222 274 345 399
#     4  11  24  40  66 100 134 168 230 275 334 412
#     4  11  22  41  70  97 129 179 218 280 335 394
#     4  11  23  40  65  97 134 176 223 277 339 409
#
# _framework density 24.369615
#
# number of rings (size 3 to 8) (size 9 to 14) (size 15 to 20)
#    0.000    1.333    2.500    2.500    2.333    0.667 
#    0.000   14.167    0.000    0.000    0.000    0.000 
#    0.000    0.000    0.000    0.000    0.000    0.000 
#
# Total GULP energy -267307.404252 kJ/mol
# GULP energy per Si atom -5568.904255 kJ/mol
# Density = 2.431415 g / cm^3
# Si number density = 24.369615 Si / 1000 Ang^3
#
#
#
# Elastic Constant Matrix: (Units=GPa)
#
#
# Indices 1 2 3 4 5 6 
#
# 1 74.6759 31.4595 48.8578 0.0000 0.0000 0.0000
# 2 31.4595 27.8415 14.5677 0.0000 0.0000 0.0000
# 3 48.8578 14.5677 136.2708 0.0000 0.0000 0.0000
# 4 0.0000 0.0000 0.0000 33.9845 0.0000 0.0000
# 5 0.0000 0.0000 0.0000 0.0000 96.6627 0.0000
# 6 0.0000 0.0000 0.0000 0.0000 0.0000 23.4262
#
#
#
# Elastic Compliance Matrix: (Units=1/GPa)
#
#
# Indices 1 2 3 4 5 6 
#
# 1 0.032289 -0.032231 -0.008131 0.000000 0.000000 0.000000
# 2 -0.032231 0.070218 0.004049 0.000000 0.000000 0.000000
# 3 -0.008131 0.004049 0.009821 0.000000 0.000000 0.000000
# 4 0.000000 0.000000 0.000000 0.029425 0.000000 0.000000
# 5 0.000000 0.000000 0.000000 0.000000 0.010345 0.000000
# 6 0.000000 0.000000 0.000000 0.000000 0.000000 0.042687
#
#
# Mechanical properties :
#
#
# Convention : Reuss Voigt Hill
#
# Bulk Modulus (GPa) = 25.18722 47.61758 36.40240
# Shear Modulus (GPa) = 17.81609 40.40823 29.11216
#
# Velocity S-wave (km/s) = 2.70678 4.07644 3.46006
# Velocity P-wave (km/s) = 4.48629 6.46055 5.56172
#
# Compressibility (1/GPa) = 0.03970267
#
# Stress axis : x y z
#
# Youngs Moduli (GPa) = 30.96996 14.24139 101.82481
#
# Poissons Ratio (x) = 0.45901 0.82797
# Poissons Ratio (y) = 0.99818 -0.41232
# Poissons Ratio (z) = 0.25183 -0.05767
#
# Static dielectric constant tensor:
#      x y z
#    x 1.965530 0.000000 0.000000 
#    y 0.000000 1.881350 0.000000 
#    z 0.000000 0.000000 1.934120 
# 
# From -- ./inp_files/39497.got.cif
#   From: 2010.05.17/outbox.cif.g08.bks.cpg/sg52_20_cif.got.tgz:39497.got - 2010.06.03 12:15:38.
