data_PCOD9412421
_publ_section_title
;
Structure prediction by ZEFSAII (Michael W. Deem and Ramdas Pophale) SiO2 
 PCOD9412421
Probable space group: P N N A
;
_chemical_formula_sum "Si O2"
_cell_formula_units_Z 44
_cell_length_a 10.343687
_cell_length_b 23.762108
_cell_length_c 9.228286
_cell_angle_alpha 90.000000
_cell_angle_beta 90.000000
_cell_angle_gamma 90.000000
_cell_volume 2268.200184
_symmetry_space_group_name_H-M "P N N A"
_symmetry_group_IT_number 52
_symmetry_cell_setting 'orthorhombic'
loop_
_space_group_symop_operation_xyz
x,y,z
1/2-x,-y,z
x,1/2-y,1/2-z
1/2-x,1/2+y,1/2-z
-x,-y,-z
1/2+x,y,-z
-x,1/2+y,1/2+z
1/2+x,1/2-y,1/2+z
loop_
_atom_site_type_symbol
_atom_site_label
_atom_site_fract_x
_atom_site_fract_y
_atom_site_fract_z
Si Si1 0.250000 0.000000 0.080427
Si Si2 0.372992 0.463630 0.962041
Si Si3 0.773984 0.707715 0.383664
Si Si4 0.228252 0.420441 0.689824
Si Si5 0.432875 0.205664 0.120139
Si Si6 0.568984 0.916512 0.742131
O O1 0.359457 0.030813 0.178239
O O2 0.212837 0.048813 0.965056
O O3 0.250000 0.500000 0.006966
O O4 0.162112 0.554006 0.797149
O O5 0.500000 0.500000 0.000000
O O6 0.382204 0.412827 0.076635
O O7 0.768738 0.750000 0.250000
O O8 0.742131 0.644684 0.332344
O O9 0.672163 0.723471 0.504482
O O10 0.921157 0.706178 0.440378
O O11 0.085944 0.424970 0.760203
O O12 0.430087 0.250000 0.250000
O O13 0.406273 0.142003 0.175157
#
# Coordination Sequence:
#
# PCOD9412421 Si02
#       6
#     4   8   8   8   8   8
#     4  12  20  38  64  94 124 164 200 264 314 386
#     4  12  23  41  59  89 126 167 207 251 309 380
#     4  10  23  44  66  93 126 168 213 263 319 371
#     4  11  23  41  62  92 129 165 208 266 311 377
#     4  10  23  44  65  92 127 163 213 265 313 376
#     4  11  23  39  62  92 127 166 209 256 320 378
#
# _framework density 19.398638999999999
#
# number of rings (size 3 to 8) (size 9 to 14) (size 15 to 20)
#    0.000    1.091    5.455    0.545    2.545    0.727 
#    3.273    0.000    0.000    0.000    0.000    0.000 
#    0.000    0.000    0.000    0.000    0.000    0.000 
#
# Total GULP energy -245392.565953 kJ/mol
# GULP energy per Si atom -5577.103772 kJ/mol
# Density = 1.935449 g / cm^3
# Si number density = 19.398639 Si / 1000 Ang^3
#
#
#
# Elastic Constant Matrix: (Units=GPa)
#
#
# Indices 1 2 3 4 5 6 
#
# 1 107.3872 23.1812 45.3032 0.0000 0.0000 0.0000
# 2 23.1812 82.2798 14.3542 0.0000 0.0000 0.0000
# 3 45.3032 14.3542 77.3309 0.0000 0.0000 0.0000
# 4 0.0000 0.0000 0.0000 20.8377 0.0000 0.0000
# 5 0.0000 0.0000 0.0000 0.0000 31.9612 0.0000
# 6 0.0000 0.0000 0.0000 0.0000 0.0000 24.6694
#
#
#
# Elastic Compliance Matrix: (Units=1/GPa)
#
#
# Indices 1 2 3 4 5 6 
#
# 1 0.012803 -0.002376 -0.007060 0.000000 0.000000 0.000000
# 2 -0.002376 0.013001 -0.001022 0.000000 0.000000 0.000000
# 3 -0.007060 -0.001022 0.017257 0.000000 0.000000 0.000000
# 4 0.000000 0.000000 0.000000 0.047990 0.000000 0.000000
# 5 0.000000 0.000000 0.000000 0.000000 0.031288 0.000000
# 6 0.000000 0.000000 0.000000 0.000000 0.000000 0.040536
#
#
# Mechanical properties :
#
#
# Convention : Reuss Voigt Hill
#
# Bulk Modulus (GPa) = 45.15146 48.07500 46.61323
# Shear Modulus (GPa) = 26.15459 27.77093 26.96276
#
# Velocity S-wave (km/s) = 3.67586 3.78774 3.73222
# Velocity P-wave (km/s) = 6.42978 6.63067 6.53100
#
# Compressibility (1/GPa) = 0.02214768
#
# Stress axis : x y z
#
# Youngs Moduli (GPa) = 78.10613 76.91627 57.94807
#
# Poissons Ratio (x) = 0.18272 0.40909
# Poissons Ratio (y) = 0.18554 0.05920
# Poissons Ratio (z) = 0.55140 0.07858
#
# Static dielectric constant tensor:
#      x y z
#    x 1.672310 0.000000 0.000000 
#    y 0.000000 1.757460 0.000000 
#    z 0.000000 0.000000 1.712070 
# 
# From -- ./inp_files/8795.got.cif
#   From: 2010.05.17/outbox.cif.g08.bks.cpg/sg52_5_cif.got.tgz:8795.got - 2010.06.03 12:15:38.
