data_PCOD9412845
_publ_section_title
;
Structure prediction by ZEFSAII (Michael W. Deem and Ramdas Pophale) SiO2 
 PCOD9412845
Probable space group: P N N A
;
_chemical_formula_sum "Si O2"
_cell_formula_units_Z 40
_cell_length_a 10.838647
_cell_length_b 14.281645
_cell_length_c 10.263853
_cell_angle_alpha 90.000000
_cell_angle_beta 90.000000
_cell_angle_gamma 90.000000
_cell_volume 1588.779872
_symmetry_space_group_name_H-M "P N N A"
_symmetry_group_IT_number 52
_symmetry_cell_setting 'orthorhombic'
loop_
_space_group_symop_operation_xyz
x,y,z
1/2-x,-y,z
x,1/2-y,1/2-z
1/2-x,1/2+y,1/2-z
-x,-y,-z
1/2+x,y,-z
-x,1/2+y,1/2+z
1/2+x,1/2-y,1/2+z
loop_
_atom_site_type_symbol
_atom_site_label
_atom_site_fract_x
_atom_site_fract_y
_atom_site_fract_z
Si Si1 0.807091 0.917172 0.398136
Si Si2 0.750000 0.000000 0.843982
Si Si3 0.620015 0.250000 0.250000
Si Si4 0.439316 0.853067 0.228839
Si Si5 0.929161 0.368788 0.000240
Si Si6 0.440523 0.343626 0.443570
O O1 0.798062 0.811397 0.345070
O O2 0.699653 0.919913 0.506616
O O3 0.951342 0.916919 0.434547
O O4 0.750000 0.000000 0.307885
O O5 0.656886 0.063975 0.764733
O O6 0.837296 0.077375 0.918294
O O7 0.543273 0.330202 0.329230
O O8 0.381344 0.750000 0.250000
O O9 0.532947 0.861156 0.348269
O O10 0.498445 0.859840 0.084987
O O11 0.902338 0.265547 0.945512
#
# Coordination Sequence:
#
# PCOD9412845 Si02
#       6
#     8   4   4   8   8   8
#     4  11  25  46  78 105 149 197 258 310 379 462
#     4  12  26  40  82 106 152 196 260 314 382 464
#     4  10  26  46  74 110 156 198 248 318 392 452
#     4  10  25  46  69 107 150 194 250 312 380 456
#     4  10  25  46  74 105 150 196 250 314 379 450
#     4  10  25  47  69 108 153 198 250 315 387 454
#
# _framework density 25.176552000000001
#
# number of rings (size 3 to 8) (size 9 to 14) (size 15 to 20)
#    0.000    1.600    0.000    1.200   18.200    1.600 
#    3.600    0.000    0.000    0.000    0.000    0.000 
#    0.000    0.000    0.000    0.000    0.000    0.000 
#
# Total GULP energy -223193.912922 kJ/mol
# GULP energy per Si atom -5579.847823 kJ/mol
# Density = 2.511925 g / cm^3
# Si number density = 25.176552 Si / 1000 Ang^3
#
#
#
# Elastic Constant Matrix: (Units=GPa)
#
#
# Indices 1 2 3 4 5 6 
#
# 1 153.5910 120.1677 43.9456 0.0000 0.0000 0.0000
# 2 120.1677 183.1993 27.4584 0.0000 0.0000 0.0000
# 3 43.9456 27.4584 98.4434 0.0000 0.0000 0.0000
# 4 0.0000 0.0000 0.0000 17.3005 0.0000 0.0000
# 5 0.0000 0.0000 0.0000 0.0000 22.0411 0.0000
# 6 0.0000 0.0000 0.0000 0.0000 0.0000 72.6055
#
#
#
# Elastic Compliance Matrix: (Units=1/GPa)
#
#
# Indices 1 2 3 4 5 6 
#
# 1 0.014785 -0.009089 -0.004065 0.000000 0.000000 0.000000
# 2 -0.009089 0.011284 0.000910 0.000000 0.000000 0.000000
# 3 -0.004065 0.000910 0.011719 0.000000 0.000000 0.000000
# 4 0.000000 0.000000 0.000000 0.057802 0.000000 0.000000
# 5 0.000000 0.000000 0.000000 0.000000 0.045370 0.000000
# 6 0.000000 0.000000 0.000000 0.000000 0.000000 0.013773
#
#
# Mechanical properties :
#
#
# Convention : Reuss Voigt Hill
#
# Bulk Modulus (GPa) = 75.18756 90.93078 83.05917
# Shear Modulus (GPa) = 27.22531 38.63354 32.92942
#
# Velocity S-wave (km/s) = 3.29200 3.92153 3.62047
# Velocity P-wave (km/s) = 6.66173 7.52995 7.10910
#
# Compressibility (1/GPa) = 0.01330007
#
# Stress axis : x y z
#
# Youngs Moduli (GPa) = 67.63764 88.62312 85.33202
#
# Poissons Ratio (x) = 0.80546 0.34687
# Poissons Ratio (y) = 0.61473 -0.07764
# Poissons Ratio (z) = 0.27494 -0.08064
#
# Static dielectric constant tensor:
#      x y z
#    x 1.990410 0.000000 0.000000 
#    y 0.000000 2.360380 0.000000 
#    z 0.000000 0.000000 2.214550 
# 
# From -- ./inp_files/18057.got.cif
#   From: 2010.05.17/outbox.cif.g08.bks.cpg/sg52_10_cif.got.tgz:18057.got - 2010.06.03 12:15:38.
