data_PCOD9412559
_publ_section_title
;
Structure prediction by ZEFSAII (Michael W. Deem and Ramdas Pophale) SiO2 
 PCOD9412559
Probable space group: P N N A
;
_chemical_formula_sum "Si O2"
_cell_formula_units_Z 60
_cell_length_a 18.532315
_cell_length_b 6.441480
_cell_length_c 25.522770
_cell_angle_alpha 90.000000
_cell_angle_beta 90.000000
_cell_angle_gamma 90.000000
_cell_volume 3046.794360
_symmetry_space_group_name_H-M "P N N A"
_symmetry_group_IT_number 52
_symmetry_cell_setting 'orthorhombic'
loop_
_space_group_symop_operation_xyz
x,y,z
1/2-x,-y,z
x,1/2-y,1/2-z
1/2-x,1/2+y,1/2-z
-x,-y,-z
1/2+x,y,-z
-x,1/2+y,1/2+z
1/2+x,1/2-y,1/2+z
loop_
_atom_site_type_symbol
_atom_site_label
_atom_site_fract_x
_atom_site_fract_y
_atom_site_fract_z
Si Si1 0.829620 0.039099 0.852379
Si Si2 0.820348 0.381863 0.936211
Si Si3 0.250000 0.000000 0.882223
Si Si4 0.338305 0.357841 0.941790
Si Si5 0.968504 0.072001 0.054628
Si Si6 0.076998 0.171097 0.376894
Si Si7 0.469065 0.199477 0.310578
Si Si8 0.615724 0.257705 0.376314
O O1 0.820934 0.156483 0.908709
O O2 0.895441 0.173078 0.826511
O O3 0.750000 0.000000 0.828249
O O4 0.857686 0.807266 0.857173
O O5 0.750000 0.500000 0.914647
O O6 0.892419 0.504638 0.918602
O O7 0.814212 0.390321 0.998626
O O8 0.213514 0.816589 0.916530
O O9 0.317406 0.891135 0.853285
O O10 0.417330 0.267526 0.950954
O O11 0.350625 0.548546 0.901651
O O12 0.026440 0.156420 0.096096
O O13 0.918417 0.888129 0.075918
O O14 0.000000 0.000000 0.000000
O O15 0.044698 0.036981 0.329576
O O16 0.478631 0.250000 0.250000
O O17 0.546170 0.243487 0.338769
#
# Coordination Sequence:
#
# PCOD9412559 Si02
#       8
#     8   8   4   8   8   8   8   8
#     4  11  23  43  63  94 136 173 219 283 333 402
#     4  11  22  34  59  91 133 178 226 257 324 402
#     4  10  24  40  64  92 134 174 218 268 346 404
#     4  11  23  37  59  96 135 181 220 272 324 413
#     4  11  22  35  61  95 130 177 218 265 332 408
#     4  11  22  41  62  91 130 173 218 279 335 397
#     4  11  26  46  71  97 123 172 232 289 351 399
#     4  11  22  43  65  92 134 169 223 282 338 409
#
# _framework density 19.692827999999999
#
# number of rings (size 3 to 8) (size 9 to 14) (size 15 to 20)
#    0.000    1.067    4.000    2.800    2.800    3.733 
#    2.400    0.000    2.933    0.000    0.000    0.000 
#    0.000    0.000    0.000    0.000    0.000    0.000 
#
# Total GULP energy -334104.908375 kJ/mol
# GULP energy per Si atom -5568.415140 kJ/mol
# Density = 1.964801 g / cm^3
# Si number density = 19.692828 Si / 1000 Ang^3
#
#
#
# Elastic Constant Matrix: (Units=GPa)
#
#
# Indices 1 2 3 4 5 6 
#
# 1 124.1707 47.8437 28.8333 0.0000 0.0000 0.0000
# 2 47.8437 96.2055 37.0455 0.0000 0.0000 0.0000
# 3 28.8333 37.0455 74.0099 0.0000 0.0000 0.0000
# 4 0.0000 0.0000 0.0000 12.4350 0.0000 0.0000
# 5 0.0000 0.0000 0.0000 0.0000 4.9257 0.0000
# 6 0.0000 0.0000 0.0000 0.0000 0.0000 57.0074
#
#
#
# Elastic Compliance Matrix: (Units=1/GPa)
#
#
# Indices 1 2 3 4 5 6 
#
# 1 0.010146 -0.004365 -0.001768 0.000000 0.000000 0.000000
# 2 -0.004365 0.014754 -0.005685 0.000000 0.000000 0.000000
# 3 -0.001768 -0.005685 0.017046 0.000000 0.000000 0.000000
# 4 0.000000 0.000000 0.000000 0.080418 0.000000 0.000000
# 5 0.000000 0.000000 0.000000 0.000000 0.203016 0.000000
# 6 0.000000 0.000000 0.000000 0.000000 0.000000 0.017542
#
#
# Mechanical properties :
#
#
# Convention : Reuss Voigt Hill
#
# Bulk Modulus (GPa) = 54.61183 57.98124 56.29654
# Shear Modulus (GPa) = 13.41708 26.91788 20.16748
#
# Velocity S-wave (km/s) = 2.61304 3.70116 3.20363
# Velocity P-wave (km/s) = 6.07421 6.91169 6.50644
#
# Compressibility (1/GPa) = 0.01831105
#
# Stress axis : x y z
#
# Youngs Moduli (GPa) = 98.56376 67.77814 58.66530
#
# Poissons Ratio (x) = 0.29584 0.10371
# Poissons Ratio (y) = 0.43021 0.33349
# Poissons Ratio (z) = 0.17424 0.38529
#
# Static dielectric constant tensor:
#      x y z
#    x 1.760050 0.000000 0.000000 
#    y 0.000000 1.720980 0.000000 
#    z 0.000000 0.000000 1.626430 
# 
# From -- ./inp_files/43229.got.cif
#   From: 2010.05.17/outbox.cif.g08.bks.cpg/sg52_22_cif.got.tgz:43229.got - 2010.06.03 12:15:38.
