data_PCOD9412824
_publ_section_title
;
Structure prediction by ZEFSAII (Michael W. Deem and Ramdas Pophale) SiO2 
 PCOD9412824
Probable space group: P N N A
;
_chemical_formula_sum "Si O2"
_cell_formula_units_Z 32
_cell_length_a 9.412351
_cell_length_b 27.708086
_cell_length_c 5.125037
_cell_angle_alpha 90.000000
_cell_angle_beta 90.000000
_cell_angle_gamma 90.000000
_cell_volume 1336.600583
_symmetry_space_group_name_H-M "P N N A"
_symmetry_group_IT_number 52
_symmetry_cell_setting 'orthorhombic'
loop_
_space_group_symop_operation_xyz
x,y,z
1/2-x,-y,z
x,1/2-y,1/2-z
1/2-x,1/2+y,1/2-z
-x,-y,-z
1/2+x,y,-z
-x,1/2+y,1/2+z
1/2+x,1/2-y,1/2+z
loop_
_atom_site_type_symbol
_atom_site_label
_atom_site_fract_x
_atom_site_fract_y
_atom_site_fract_z
Si Si1 0.093530 0.803476 0.210219
Si Si2 0.588292 0.518241 0.247618
Si Si3 0.506287 0.380735 0.930709
Si Si4 0.167071 0.351031 0.577802
O O1 0.149473 0.750000 0.250000
O O2 0.091175 0.836421 0.469135
O O3 0.928346 0.803330 0.130123
O O4 0.176198 0.833501 0.990298
O O5 0.750000 0.500000 0.262693
O O6 0.500000 0.500000 0.500000
O O7 0.584766 0.575308 0.183678
O O8 0.500000 0.500000 0.000000
O O9 0.614956 0.370768 0.699547
O O10 0.605132 0.386105 0.194200
#
# Coordination Sequence:
#
# PCOD9412824 Si02
#       4
#     8   8   8   8
#     4  10  26  45  74 104 154 201 261 310 386 457
#     4  12  28  51  83 115 156 201 263 327 409 480
#     4  10  26  46  73 107 152 193 259 312 395 456
#     4  10  25  43  71 104 147 195 251 313 378 449
#
# _framework density 23.941336
#
# number of rings (size 3 to 8) (size 9 to 14) (size 15 to 20)
#    1.500    0.000    0.000    2.250   10.500    2.000 
#    0.000    0.000    0.000    0.000    0.000    0.000 
#    0.000    0.000    0.000    0.000    0.000    0.000 
#
# Total GULP energy -178320.118532 kJ/mol
# GULP energy per Si atom -5572.503704 kJ/mol
# Density = 2.388684 g / cm^3
# Si number density = 23.941336 Si / 1000 Ang^3
#
#
#
# Elastic Constant Matrix: (Units=GPa)
#
#
# Indices 1 2 3 4 5 6 
#
# 1 112.8657 29.0181 49.3795 0.0000 0.0000 0.0000
# 2 29.0181 129.2366 46.6496 0.0000 0.0000 0.0000
# 3 49.3795 46.6496 229.5755 0.0000 0.0000 0.0000
# 4 0.0000 0.0000 0.0000 36.6005 0.0000 0.0000
# 5 0.0000 0.0000 0.0000 0.0000 14.6719 0.0000
# 6 0.0000 0.0000 0.0000 0.0000 0.0000 7.7291
#
#
#
# Elastic Compliance Matrix: (Units=1/GPa)
#
#
# Indices 1 2 3 4 5 6 
#
# 1 0.010077 -0.001597 -0.001843 0.000000 0.000000 0.000000
# 2 -0.001597 0.008603 -0.001405 0.000000 0.000000 0.000000
# 3 -0.001843 -0.001405 0.005038 0.000000 0.000000 0.000000
# 4 0.000000 0.000000 0.000000 0.027322 0.000000 0.000000
# 5 0.000000 0.000000 0.000000 0.000000 0.068158 0.000000
# 6 0.000000 0.000000 0.000000 0.000000 0.000000 0.129382
#
#
# Mechanical properties :
#
#
# Convention : Reuss Voigt Hill
#
# Bulk Modulus (GPa) = 71.28450 80.19691 75.74071
# Shear Modulus (GPa) = 19.01535 34.90899 26.96217
#
# Velocity S-wave (km/s) = 2.82130 3.82266 3.35950
# Velocity P-wave (km/s) = 6.36021 7.28379 6.83761
#
# Compressibility (1/GPa) = 0.01402830
#
# Stress axis : x y z
#
# Youngs Moduli (GPa) = 99.23522 116.23251 198.50451
#
# Poissons Ratio (x) = 0.18567 0.36582
# Poissons Ratio (y) = 0.15852 0.27882
# Poissons Ratio (z) = 0.18288 0.16326
#
# Static dielectric constant tensor:
#      x y z
#    x 2.054350 0.000000 0.000000 
#    y 0.000000 2.205060 0.000000 
#    z 0.000000 0.000000 1.959250 
# 
# From -- ./inp_files/437.got.cif
#   From: 2010.05.17/outbox.cif.g08.bks.cpg/sg52_1_cif.got.tgz:437.got - 2010.06.03 12:15:38.
