data_PCOD9412785
_publ_section_title
;
Structure prediction by ZEFSAII (Michael W. Deem and Ramdas Pophale) SiO2 
 PCOD9412785
Probable space group: P N N A
;
_chemical_formula_sum "Si O2"
_cell_formula_units_Z 60
_cell_length_a 28.339737
_cell_length_b 11.520434
_cell_length_c 8.359199
_cell_angle_alpha 90.000000
_cell_angle_beta 90.000000
_cell_angle_gamma 90.000000
_cell_volume 2729.162027
_symmetry_space_group_name_H-M "P N N A"
_symmetry_group_IT_number 52
_symmetry_cell_setting 'orthorhombic'
loop_
_space_group_symop_operation_xyz
x,y,z
1/2-x,-y,z
x,1/2-y,1/2-z
1/2-x,1/2+y,1/2-z
-x,-y,-z
1/2+x,y,-z
-x,1/2+y,1/2+z
1/2+x,1/2-y,1/2+z
loop_
_atom_site_type_symbol
_atom_site_label
_atom_site_fract_x
_atom_site_fract_y
_atom_site_fract_z
Si Si1 0.859363 0.924337 0.917558
Si Si2 0.282564 0.796438 0.924185
Si Si3 0.851608 0.121454 0.411490
Si Si4 0.549894 0.032023 0.074800
Si Si5 0.949051 0.236748 0.077072
Si Si6 0.315755 0.363818 0.546945
Si Si7 0.511315 0.250000 0.250000
Si Si8 0.799008 0.567787 0.881775
O O1 0.832323 0.887768 0.760640
O O2 0.831936 0.862485 0.062680
O O3 0.914355 0.910997 0.947456
O O4 0.844844 0.058807 0.926420
O O5 0.272378 0.750000 0.750000
O O6 0.239790 0.879772 0.968792
O O7 0.283580 0.683160 0.030016
O O8 0.905534 0.170442 0.422921
O O9 0.823853 0.229504 0.485758
O O10 0.833969 0.112321 0.227738
O O11 0.833673 0.009503 0.506028
O O12 0.540924 0.129439 0.214260
O O13 0.568272 0.898385 0.094842
O O14 0.500000 0.000000 0.000000
O O15 0.975070 0.250000 0.250000
O O16 0.979357 0.256594 0.913910
O O17 0.750000 0.500000 0.842102
#
# Coordination Sequence:
#
# PCOD9412785 Si02
#       8
#     8   8   8   8   8   8   4   8
#     4  12  26  41  66  95 135 181 229 296 356 418
#     4  12  24  42  66  93 140 189 228 280 343 426
#     4  11  21  39  68 100 133 180 238 280 335 411
#     4  10  24  48  70 101 138 176 237 297 364 442
#     4  11  22  44  75 108 137 178 243 298 348 441
#     4  11  20  42  64  96 132 184 230 278 334 408
#     4  10  26  46  76 102 142 186 226 302 390 426
#     4  12  25  41  62 102 145 183 236 288 345 427
#
# _framework density 21.984770999999999
#
# number of rings (size 3 to 8) (size 9 to 14) (size 15 to 20)
#    0.000    0.800    5.333    2.400    4.667    1.067 
#    0.000    5.333    0.000    0.000    0.000    0.000 
#    0.000    0.000    0.000    0.000    0.000    0.000 
#
# Total GULP energy -334269.783155 kJ/mol
# GULP energy per Si atom -5571.163053 kJ/mol
# Density = 2.193473 g / cm^3
# Si number density = 21.984771 Si / 1000 Ang^3
#
#
#
# Elastic Constant Matrix: (Units=GPa)
#
#
# Indices 1 2 3 4 5 6 
#
# 1 136.3588 29.5612 48.7033 0.0000 0.0000 0.0000
# 2 29.5612 92.1825 43.2667 0.0000 0.0000 0.0000
# 3 48.7033 43.2667 95.2776 0.0000 0.0000 0.0000
# 4 0.0000 0.0000 0.0000 43.2004 0.0000 0.0000
# 5 0.0000 0.0000 0.0000 0.0000 28.7608 0.0000
# 6 0.0000 0.0000 0.0000 0.0000 0.0000 16.6726
#
#
#
# Elastic Compliance Matrix: (Units=1/GPa)
#
#
# Indices 1 2 3 4 5 6 
#
# 1 0.009034 -0.000927 -0.004197 0.000000 0.000000 0.000000
# 2 -0.000927 0.013882 -0.005830 0.000000 0.000000 0.000000
# 3 -0.004197 -0.005830 0.015288 0.000000 0.000000 0.000000
# 4 0.000000 0.000000 0.000000 0.023148 0.000000 0.000000
# 5 0.000000 0.000000 0.000000 0.000000 0.034770 0.000000
# 6 0.000000 0.000000 0.000000 0.000000 0.000000 0.059979
#
#
# Mechanical properties :
#
#
# Convention : Reuss Voigt Hill
#
# Bulk Modulus (GPa) = 61.36449 62.98682 62.17566
# Shear Modulus (GPa) = 27.25700 31.21260 29.23480
#
# Velocity S-wave (km/s) = 3.52492 3.77203 3.65056
# Velocity P-wave (km/s) = 6.67380 6.90531 6.79054
#
# Compressibility (1/GPa) = 0.01629607
#
# Stress axis : x y z
#
# Youngs Moduli (GPa) = 110.69892 72.03742 65.40955
#
# Poissons Ratio (x) = 0.06679 0.27450
# Poissons Ratio (y) = 0.10263 0.38133
# Poissons Ratio (z) = 0.46457 0.41997
#
# Static dielectric constant tensor:
#      x y z
#    x 1.859500 0.000000 0.000000 
#    y 0.000000 1.826360 0.000000 
#    z 0.000000 0.000000 1.851060 
# 
# From -- ./inp_files/15068.got.cif
#   From: 2010.05.17/outbox.cif.g08.bks.cpg/sg52_8_cif.got.tgz:15068.got - 2010.06.03 12:15:38.
