data_PCOD9412088
_publ_section_title
;
Structure prediction by ZEFSAII (Michael W. Deem and Ramdas Pophale) SiO2 
 PCOD9412088
Probable space group: P N N A
;
_chemical_formula_sum "Si O2"
_cell_formula_units_Z 60
_cell_length_a 15.427273
_cell_length_b 16.215127
_cell_length_c 9.315198
_cell_angle_alpha 90.000000
_cell_angle_beta 90.000000
_cell_angle_gamma 90.000000
_cell_volume 2330.245135
_symmetry_space_group_name_H-M "P N N A"
_symmetry_group_IT_number 52
_symmetry_cell_setting 'orthorhombic'
loop_
_space_group_symop_operation_xyz
x,y,z
1/2-x,-y,z
x,1/2-y,1/2-z
1/2-x,1/2+y,1/2-z
-x,-y,-z
1/2+x,y,-z
-x,1/2+y,1/2+z
1/2+x,1/2-y,1/2+z
loop_
_atom_site_type_symbol
_atom_site_label
_atom_site_fract_x
_atom_site_fract_y
_atom_site_fract_z
Si Si1 0.878376 0.252846 0.026877
Si Si2 0.058692 0.188175 0.064629
Si Si3 0.340795 0.410961 0.804516
Si Si4 0.019587 0.472561 0.663056
Si Si5 0.903851 0.915958 0.668479
Si Si6 0.750000 0.500000 0.944702
Si Si7 0.205171 0.321126 0.628871
Si Si8 0.515286 0.152053 0.400769
O O1 0.954154 0.184228 0.046316
O O2 0.919757 0.307781 0.899780
O O3 0.879000 0.320996 0.154867
O O4 0.782471 0.217026 0.028738
O O5 0.132621 0.140118 0.975851
O O6 0.072052 0.274874 0.978099
O O7 0.076878 0.161909 0.227774
O O8 0.404337 0.468256 0.717454
O O9 0.252453 0.392165 0.720110
O O10 0.317912 0.454966 0.952358
O O11 0.933670 0.504101 0.744787
O O12 0.000000 0.500000 0.500000
O O13 0.034433 0.384606 0.745531
O O14 0.962718 0.913209 0.525030
O O15 0.803520 0.929498 0.635568
O O16 0.185125 0.250000 0.750000
#
# Coordination Sequence:
#
# PCOD9412088 Si02
#       8
#     8   8   8   8   8   4   8   8
#     4   9  21  41  75 102 146 202 257 325 403 489
#     4  10  24  42  75 108 155 197 266 345 405 488
#     4  11  23  44  70 102 149 203 264 328 414 497
#     4  12  25  44  74 108 149 201 266 336 412 498
#     4  12  24  45  73 106 149 207 264 327 409 501
#     4  12  28  42  76 108 150 218 270 328 400 530
#     4  10  23  41  72 107 147 198 261 323 413 491
#     4  10  22  43  74 107 146 202 259 319 414 491
#
# _framework density 25.748365
#
# number of rings (size 3 to 8) (size 9 to 14) (size 15 to 20)
#    0.800    0.533    2.667    2.400    7.467    3.200 
#    0.000    0.000    5.867    0.000    0.000    0.000 
#    0.000    0.000    0.000    0.000    0.000    0.000 
#
# Total GULP energy -334581.288780 kJ/mol
# GULP energy per Si atom -5576.354813 kJ/mol
# Density = 2.568976 g / cm^3
# Si number density = 25.748365 Si / 1000 Ang^3
#
#
#
# Elastic Constant Matrix: (Units=GPa)
#
#
# Indices 1 2 3 4 5 6 
#
# 1 82.0501 3.8341 67.5632 0.0000 0.0000 0.0000
# 2 3.8341 91.3059 34.8590 0.0000 0.0000 0.0000
# 3 67.5632 34.8590 149.1027 0.0000 0.0000 0.0000
# 4 0.0000 0.0000 0.0000 42.6174 0.0000 0.0000
# 5 0.0000 0.0000 0.0000 0.0000 56.4376 0.0000
# 6 0.0000 0.0000 0.0000 0.0000 0.0000 34.1621
#
#
#
# Elastic Compliance Matrix: (Units=1/GPa)
#
#
# Indices 1 2 3 4 5 6 
#
# 1 0.020115 0.002893 -0.009791 0.000000 0.000000 0.000000
# 2 0.002893 0.012442 -0.004220 0.000000 0.000000 0.000000
# 3 -0.009791 -0.004220 0.012130 0.000000 0.000000 0.000000
# 4 0.000000 0.000000 0.000000 0.023465 0.000000 0.000000
# 5 0.000000 0.000000 0.000000 0.000000 0.017719 0.000000
# 6 0.000000 0.000000 0.000000 0.000000 0.000000 0.029272
#
#
# Mechanical properties :
#
#
# Convention : Reuss Voigt Hill
#
# Bulk Modulus (GPa) = 44.54052 59.44125 51.99088
# Shear Modulus (GPa) = 34.51578 41.05689 37.78634
#
# Velocity S-wave (km/s) = 3.66526 3.99751 3.83498
# Velocity P-wave (km/s) = 5.93701 6.66651 6.31231
#
# Compressibility (1/GPa) = 0.02245147
#
# Stress axis : x y z
#
# Youngs Moduli (GPa) = 49.71442 80.37439 82.43991
#
# Poissons Ratio (x) = -0.23256 0.80718
# Poissons Ratio (y) = -0.14384 0.34789
# Poissons Ratio (z) = 0.48676 0.33917
#
# Static dielectric constant tensor:
#      x y z
#    x 2.070460 0.000000 0.000000 
#    y 0.000000 2.221390 0.000000 
#    z 0.000000 0.000000 2.121800 
# 
# From -- ./inp_files/12433.got.cif
#   From: 2010.05.17/outbox.cif.g08.bks.cpg/sg52_7_cif.got.tgz:12433.got - 2010.06.03 12:15:38.
