data_PCOD9412168
_publ_section_title
;
Structure prediction by ZEFSAII (Michael W. Deem and Ramdas Pophale) SiO2 
 PCOD9412168
Probable space group: P N N A
;
_chemical_formula_sum "Si O2"
_cell_formula_units_Z 32
_cell_length_a 5.339989
_cell_length_b 13.179557
_cell_length_c 16.926376
_cell_angle_alpha 90.000000
_cell_angle_beta 90.000000
_cell_angle_gamma 90.000000
_cell_volume 1191.256159
_symmetry_space_group_name_H-M "P N N A"
_symmetry_group_IT_number 52
_symmetry_cell_setting 'orthorhombic'
loop_
_space_group_symop_operation_xyz
x,y,z
1/2-x,-y,z
x,1/2-y,1/2-z
1/2-x,1/2+y,1/2-z
-x,-y,-z
1/2+x,y,-z
-x,1/2+y,1/2+z
1/2+x,1/2-y,1/2+z
loop_
_atom_site_type_symbol
_atom_site_label
_atom_site_fract_x
_atom_site_fract_y
_atom_site_fract_z
Si Si1 0.568265 0.423506 0.928194
Si Si2 0.723438 0.304395 0.542144
Si Si3 0.553753 0.618604 0.705886
Si Si4 0.551185 0.892089 0.267073
O O1 0.750000 0.500000 0.881856
O O2 0.700986 0.319289 0.954519
O O3 0.369059 0.396509 0.859622
O O4 0.500000 0.500000 0.000000
O O5 0.439456 0.334381 0.520549
O O6 0.827158 0.352842 0.622265
O O7 0.498687 0.500342 0.724847
O O8 0.771155 0.652551 0.766415
O O9 0.271777 0.658849 0.716983
#
# Coordination Sequence:
#
# PCOD9412168 Si02
#       4
#     8   8   8   8
#     4  12  25  45  77 109 151 200 248 309 389 462
#     4  12  27  45  71 108 147 189 248 311 373 445
#     4  10  22  45  70 102 142 187 245 308 364 449
#     4  10  23  45  74 101 144 192 245 298 379 446
#
# _framework density 26.862401999999999
#
# number of rings (size 3 to 8) (size 9 to 14) (size 15 to 20)
#    0.000    1.000    5.000    1.500    3.500    3.000 
#    0.000   17.500    0.000    0.000    0.000    0.000 
#    0.000    0.000    0.000    0.000    0.000    0.000 
#
# Total GULP energy -178507.137912 kJ/mol
# GULP energy per Si atom -5578.348060 kJ/mol
# Density = 2.680126 g / cm^3
# Si number density = 26.862402 Si / 1000 Ang^3
#
#
#
# Elastic Constant Matrix: (Units=GPa)
#
#
# Indices 1 2 3 4 5 6 
#
# 1 195.9818 -2.4301 52.0559 0.0000 0.0000 0.0000
# 2 -2.4301 126.9535 40.6709 0.0000 0.0000 0.0000
# 3 52.0559 40.6709 196.4418 0.0000 0.0000 0.0000
# 4 0.0000 0.0000 0.0000 38.5573 0.0000 0.0000
# 5 0.0000 0.0000 0.0000 0.0000 56.7577 0.0000
# 6 0.0000 0.0000 0.0000 0.0000 0.0000 -14.0269
#
#
#
# Elastic Compliance Matrix: (Units=1/GPa)
#
#
# Indices 1 2 3 4 5 6 
#
# 1 0.005534 0.000617 -0.001594 0.000000 0.000000 0.000000
# 2 0.000617 0.008505 -0.001924 0.000000 0.000000 0.000000
# 3 -0.001594 -0.001924 0.005911 0.000000 0.000000 0.000000
# 4 0.000000 0.000000 0.000000 0.025935 0.000000 0.000000
# 5 0.000000 0.000000 0.000000 0.000000 0.017619 0.000000
# 6 0.000000 0.000000 0.000000 0.000000 0.000000 -0.071292
#
#
# Mechanical properties :
#
#
# Convention : Reuss Voigt Hill
#
# Bulk Modulus (GPa) = 70.68807 77.77450 74.23129
# Shear Modulus (GPa) = 1830.33983 44.86298 937.60141
#
# Velocity S-wave (km/s) = 26.13150 4.09112 18.70284
# Velocity P-wave (km/s) = 30.60794 7.16465 22.22811
#
# Compressibility (1/GPa) = 0.01414666
#
# Stress axis : x y z
#
# Youngs Moduli (GPa) = 180.71567 117.57559 169.16555
#
# Poissons Ratio (x) = -0.07249 0.26965
# Poissons Ratio (y) = -0.11143 0.32552
# Poissons Ratio (z) = 0.28806 0.22625
#
# Static dielectric constant tensor:
#      x y z
#    x 2.483300 0.000000 0.000000 
#    y 0.000000 2.215900 0.000000 
#    z 0.000000 0.000000 2.131950 
# 
# From -- ./inp_files/30067.got.cif
#   From: 2010.05.17/outbox.cif.g08.bks.cpg/sg52_16_cif.got.tgz:30067.got - 2010.06.03 12:15:38.
