data_PCOD9412236
_publ_section_title
;
Structure prediction by ZEFSAII (Michael W. Deem and Ramdas Pophale) SiO2 
 PCOD9412236
Probable space group: P N N A
;
_chemical_formula_sum "Si O2"
_cell_formula_units_Z 32
_cell_length_a 5.350205
_cell_length_b 8.991272
_cell_length_c 28.238663
_cell_angle_alpha 90.000000
_cell_angle_beta 90.000000
_cell_angle_gamma 90.000000
_cell_volume 1358.425075
_symmetry_space_group_name_H-M "P N N A"
_symmetry_group_IT_number 52
_symmetry_cell_setting 'orthorhombic'
loop_
_space_group_symop_operation_xyz
x,y,z
1/2-x,-y,z
x,1/2-y,1/2-z
1/2-x,1/2+y,1/2-z
-x,-y,-z
1/2+x,y,-z
-x,1/2+y,1/2+z
1/2+x,1/2-y,1/2+z
loop_
_atom_site_type_symbol
_atom_site_label
_atom_site_fract_x
_atom_site_fract_y
_atom_site_fract_z
Si Si1 0.250000 0.000000 0.316941
Si Si2 0.324202 0.674109 0.018457
Si Si3 0.529698 0.775821 0.377914
Si Si4 0.750000 0.500000 0.666007
Si Si5 0.408493 0.772326 0.798464
O O1 0.450264 0.923972 0.350813
O O2 0.114438 0.859002 0.293352
O O3 0.250000 0.500000 0.010655
O O4 0.476223 0.693240 0.067382
O O5 0.538630 0.737434 0.982586
O O6 0.356768 0.635445 0.364336
O O7 0.785884 0.741821 0.350443
O O8 0.533403 0.566883 0.698347
O O9 0.248756 0.750000 0.750000
#
# Coordination Sequence:
#
# PCOD9412236 Si02
#       5
#     4   8   8   4   8
#     4  10  23  38  66  94 130 166 232 282 345 402
#     4  10  23  41  72 106 139 179 235 296 356 417
#     4  11  23  42  67  97 138 178 224 286 350 414
#     4  10  25  42  64  94 142 182 226 282 351 418
#     4  11  24  42  66  95 133 181 231 286 346 417
#
# _framework density 23.556688000000001
#
# number of rings (size 3 to 8) (size 9 to 14) (size 15 to 20)
#    0.000    1.500    1.250    2.250    7.000   10.000 
#    0.000    1.250    0.000    0.000    0.000    0.000 
#    0.000    0.000    0.000    0.000    0.000    0.000 
#
# Total GULP energy -178136.173555 kJ/mol
# GULP energy per Si atom -5566.755424 kJ/mol
# Density = 2.350307 g / cm^3
# Si number density = 23.556688 Si / 1000 Ang^3
#
#
#
# Elastic Constant Matrix: (Units=GPa)
#
#
# Indices 1 2 3 4 5 6 
#
# 1 130.7353 11.2657 35.6027 0.0000 0.0000 0.0000
# 2 11.2657 75.8820 1.8663 0.0000 0.0000 0.0000
# 3 35.6027 1.8663 109.6852 0.0000 0.0000 0.0000
# 4 0.0000 0.0000 0.0000 21.4832 0.0000 0.0000
# 5 0.0000 0.0000 0.0000 0.0000 17.4866 0.0000
# 6 0.0000 0.0000 0.0000 0.0000 0.0000 36.2451
#
#
#
# Elastic Compliance Matrix: (Units=1/GPa)
#
#
# Indices 1 2 3 4 5 6 
#
# 1 0.008498 -0.001194 -0.002738 0.000000 0.000000 0.000000
# 2 -0.001194 0.013352 0.000160 0.000000 0.000000 0.000000
# 3 -0.002738 0.000160 0.010003 0.000000 0.000000 0.000000
# 4 0.000000 0.000000 0.000000 0.046548 0.000000 0.000000
# 5 0.000000 0.000000 0.000000 0.000000 0.057187 0.000000
# 6 0.000000 0.000000 0.000000 0.000000 0.000000 0.027590
#
#
# Mechanical properties :
#
#
# Convention : Reuss Voigt Hill
#
# Bulk Modulus (GPa) = 41.13726 45.97467 43.55596
# Shear Modulus (GPa) = 27.96059 32.88083 30.42071
#
# Velocity S-wave (km/s) = 3.44895 3.74012 3.59748
# Velocity P-wave (km/s) = 5.77593 6.18145 5.98212
#
# Compressibility (1/GPa) = 0.02430886
#
# Stress axis : x y z
#
# Youngs Moduli (GPa) = 117.68095 74.89677 99.97039
#
# Poissons Ratio (x) = 0.08944 0.27371
# Poissons Ratio (y) = 0.14054 -0.01604
# Poissons Ratio (z) = 0.32220 -0.01202
#
# Static dielectric constant tensor:
#      x y z
#    x 1.403020 0.000000 0.000000 
#    y 0.000000 1.804660 0.000000 
#    z 0.000000 0.000000 2.012050 
# 
# From -- ./inp_files/43500.got.cif
#   From: 2010.05.17/outbox.cif.g08.bks.cpg/sg52_22_cif.got.tgz:43500.got - 2010.06.03 12:15:38.
