data_PCOD9412273
_publ_section_title
;
Structure prediction by ZEFSAII (Michael W. Deem and Ramdas Pophale) SiO2 
 PCOD9412273
Probable space group: P N N A
;
_chemical_formula_sum "Si O2"
_cell_formula_units_Z 40
_cell_length_a 19.249878
_cell_length_b 17.744584
_cell_length_c 5.519951
_cell_angle_alpha 90.000000
_cell_angle_beta 90.000000
_cell_angle_gamma 90.000000
_cell_volume 1885.510808
_symmetry_space_group_name_H-M "P N N A"
_symmetry_group_IT_number 52
_symmetry_cell_setting 'orthorhombic'
loop_
_space_group_symop_operation_xyz
x,y,z
1/2-x,-y,z
x,1/2-y,1/2-z
1/2-x,1/2+y,1/2-z
-x,-y,-z
1/2+x,y,-z
-x,1/2+y,1/2+z
1/2+x,1/2-y,1/2+z
loop_
_atom_site_type_symbol
_atom_site_label
_atom_site_fract_x
_atom_site_fract_y
_atom_site_fract_z
Si Si1 0.077841 0.430176 0.904111
Si Si2 0.769323 0.588492 0.265229
Si Si3 0.710318 0.840886 0.734239
Si Si4 0.009309 0.934961 0.801192
Si Si5 0.550543 0.663536 0.686968
O O1 0.147892 0.406953 0.777782
O O2 0.062339 0.519168 0.869168
O O3 0.012923 0.380893 0.809550
O O4 0.066534 0.419628 0.190396
O O5 0.750000 0.500000 0.264077
O O6 0.744954 0.623678 0.522216
O O7 0.738145 0.628035 0.023125
O O8 0.718309 0.750000 0.750000
O O9 0.628197 0.859174 0.742760
O O10 0.041919 0.859771 0.906435
O O11 0.000000 0.000000 0.000000
O O12 0.542311 0.750000 0.750000
#
# Coordination Sequence:
#
# PCOD9412273 Si02
#       5
#     8   8   8   8   8
#     4  10  23  40  68 100 130 181 229 298 350 408
#     4  12  27  45  74 107 144 189 245 300 358 435
#     4  11  27  48  69 100 148 195 234 292 372 438
#     4   9  20  38  66  93 132 165 226 287 346 401
#     4  10  23  41  67  96 132 182 232 282 348 423
#
# _framework density 21.214409
#
# number of rings (size 3 to 8) (size 9 to 14) (size 15 to 20)
#    0.000    1.600    0.000    2.400   16.800    2.400 
#    0.000    0.000    0.000    0.000    0.000    0.000 
#    0.000    0.000    0.000    0.000    0.000    0.000 
#
# Total GULP energy -222965.656403 kJ/mol
# GULP energy per Si atom -5574.141410 kJ/mol
# Density = 2.116612 g / cm^3
# Si number density = 21.214409 Si / 1000 Ang^3
#
#
#
# Elastic Constant Matrix: (Units=GPa)
#
#
# Indices 1 2 3 4 5 6 
#
# 1 166.7630 66.3972 61.9281 0.0000 0.0000 0.0000
# 2 66.3972 109.9346 64.1292 0.0000 0.0000 0.0000
# 3 61.9281 64.1292 121.6894 0.0000 0.0000 0.0000
# 4 0.0000 0.0000 0.0000 37.0420 0.0000 0.0000
# 5 0.0000 0.0000 0.0000 0.0000 16.8002 0.0000
# 6 0.0000 0.0000 0.0000 0.0000 0.0000 29.0733
#
#
#
# Elastic Compliance Matrix: (Units=1/GPa)
#
#
# Indices 1 2 3 4 5 6 
#
# 1 0.008314 -0.003687 -0.002288 0.000000 0.000000 0.000000
# 2 -0.003687 0.014769 -0.005907 0.000000 0.000000 0.000000
# 3 -0.002288 -0.005907 0.012495 0.000000 0.000000 0.000000
# 4 0.000000 0.000000 0.000000 0.026996 0.000000 0.000000
# 5 0.000000 0.000000 0.000000 0.000000 0.059523 0.000000
# 6 0.000000 0.000000 0.000000 0.000000 0.000000 0.034396
#
#
# Mechanical properties :
#
#
# Convention : Reuss Voigt Hill
#
# Bulk Modulus (GPa) = 84.64296 87.03291 85.83793
# Shear Modulus (GPa) = 27.14522 30.31193 28.72858
#
# Velocity S-wave (km/s) = 3.58098 3.78410 3.68394
# Velocity P-wave (km/s) = 7.55535 7.75931 7.65801
#
# Compressibility (1/GPa) = 0.01181433
#
# Stress axis : x y z
#
# Youngs Moduli (GPa) = 120.27698 67.71123 80.03235
#
# Poissons Ratio (x) = 0.24963 0.18313
# Poissons Ratio (y) = 0.44342 0.47273
# Poissons Ratio (z) = 0.27522 0.39995
#
# Static dielectric constant tensor:
#      x y z
#    x 1.779310 0.000000 0.000000 
#    y 0.000000 1.698060 0.000000 
#    z 0.000000 0.000000 2.858930 
# 
# From -- ./inp_files/3191.got.cif
#   From: 2010.05.17/outbox.cif.g08.bks.cpg/sg52_2_cif.got.tgz:3191.got - 2010.06.03 12:15:38.
