data_PCOD9412330
_publ_section_title
;
Structure prediction by ZEFSAII (Michael W. Deem and Ramdas Pophale) SiO2 
 PCOD9412330
Probable space group: P N N A
;
_chemical_formula_sum "Si O2"
_cell_formula_units_Z 64
_cell_length_a 13.884700
_cell_length_b 9.519303
_cell_length_c 22.328391
_cell_angle_alpha 90.000000
_cell_angle_beta 90.000000
_cell_angle_gamma 90.000000
_cell_volume 2951.202974
_symmetry_space_group_name_H-M "P N N A"
_symmetry_group_IT_number 52
_symmetry_cell_setting 'orthorhombic'
loop_
_space_group_symop_operation_xyz
x,y,z
1/2-x,-y,z
x,1/2-y,1/2-z
1/2-x,1/2+y,1/2-z
-x,-y,-z
1/2+x,y,-z
-x,1/2+y,1/2+z
1/2+x,1/2-y,1/2+z
loop_
_atom_site_type_symbol
_atom_site_label
_atom_site_fract_x
_atom_site_fract_y
_atom_site_fract_z
Si Si1 0.548502 0.151766 0.013438
Si Si2 0.769811 0.847709 0.936343
Si Si3 0.356447 0.041033 0.809570
Si Si4 0.532811 0.963517 0.305507
Si Si5 0.612655 0.656298 0.988016
Si Si6 0.312369 0.192622 0.614165
Si Si7 0.647294 0.429743 0.884937
Si Si8 0.905832 0.741848 0.143391
O O1 0.483139 0.273619 0.983236
O O2 0.548273 0.221653 0.079294
O O3 0.659357 0.133754 0.993613
O O4 0.500000 0.000000 0.000000
O O5 0.667729 0.778908 0.951884
O O6 0.828232 0.730728 0.900410
O O7 0.750000 0.000000 0.909204
O O8 0.341483 0.147498 0.865195
O O9 0.250000 0.000000 0.784317
O O10 0.430352 0.089695 0.758687
O O11 0.398110 0.893855 0.828952
O O12 0.540750 0.131314 0.314949
O O13 0.612095 0.899607 0.349930
O O14 0.428625 0.928974 0.331451
O O15 0.609779 0.522654 0.943147
O O16 0.679750 0.640796 0.046080
O O17 0.202186 0.184052 0.634161
O O18 0.750000 0.500000 0.869712
#
# Coordination Sequence:
#
# PCOD9412330 Si02
#       8
#     8   8   8   8   8   8   8   8
#     4  12  22  35  61  95 133 173 214 261 332 416
#     4  11  23  39  62  89 135 172 208 266 327 408
#     4  10  23  42  64  98 137 176 226 273 342 409
#     4  12  23  41  66  94 130 176 225 285 331 400
#     4  11  22  40  61  95 134 169 219 268 333 414
#     4  11  23  38  65  95 136 175 212 273 343 410
#     4  10  25  43  64  95 130 175 227 281 337 398
#     4  11  23  38  64  98 130 175 221 271 340 408
#
# _framework density 21.686070999999998
#
# number of rings (size 3 to 8) (size 9 to 14) (size 15 to 20)
#    0.000    1.000    3.750    3.375    1.750    4.000 
#    0.000    0.000    0.000    3.000    3.250    0.000 
#    0.000    0.000    0.000    0.000    0.000    0.000 
#
# Total GULP energy -357005.832698 kJ/mol
# GULP energy per Si atom -5578.216136 kJ/mol
# Density = 2.163671 g / cm^3
# Si number density = 21.686071 Si / 1000 Ang^3
#
#
#
# Elastic Constant Matrix: (Units=GPa)
#
#
# Indices 1 2 3 4 5 6 
#
# 1 79.4144 33.5700 11.8866 0.0000 0.0000 0.0000
# 2 33.5700 114.2642 -1.1861 0.0000 0.0000 0.0000
# 3 11.8866 -1.1861 39.2466 0.0000 0.0000 0.0000
# 4 0.0000 0.0000 0.0000 15.0429 0.0000 0.0000
# 5 0.0000 0.0000 0.0000 0.0000 32.4863 0.0000
# 6 0.0000 0.0000 0.0000 0.0000 0.0000 33.9312
#
#
#
# Elastic Compliance Matrix: (Units=1/GPa)
#
#
# Indices 1 2 3 4 5 6 
#
# 1 0.015212 -0.004518 -0.004744 0.000000 0.000000 0.000000
# 2 -0.004518 0.010097 0.001674 0.000000 0.000000 0.000000
# 3 -0.004744 0.001674 0.026967 0.000000 0.000000 0.000000
# 4 0.000000 0.000000 0.000000 0.066477 0.000000 0.000000
# 5 0.000000 0.000000 0.000000 0.000000 0.030782 0.000000
# 6 0.000000 0.000000 0.000000 0.000000 0.000000 0.029471
#
#
# Mechanical properties :
#
#
# Convention : Reuss Voigt Hill
#
# Bulk Modulus (GPa) = 26.95517 35.71845 31.33681
# Shear Modulus (GPa) = 24.20720 28.86906 26.53813
#
# Velocity S-wave (km/s) = 3.34467 3.65256 3.50200
# Velocity P-wave (km/s) = 5.23187 5.85616 5.55280
#
# Compressibility (1/GPa) = 0.03709864
#
# Stress axis : x y z
#
# Youngs Moduli (GPa) = 65.73640 99.04407 37.08194
#
# Poissons Ratio (x) = 0.44753 0.17591
# Poissons Ratio (y) = 0.29703 -0.06206
# Poissons Ratio (z) = 0.31185 -0.16577
#
# Static dielectric constant tensor:
#      x y z
#    x 1.889760 0.000000 0.000000 
#    y 0.000000 1.824320 0.000000 
#    z 0.000000 0.000000 1.916560 
# 
# From -- ./inp_files/40705.got.cif
#   From: 2010.05.17/outbox.cif.g08.bks.cpg/sg52_21_cif.got.tgz:40705.got - 2010.06.03 12:15:38.
