data_PCOD9412637
_publ_section_title
;
Structure prediction by ZEFSAII (Michael W. Deem and Ramdas Pophale) SiO2 
 PCOD9412637
Probable space group: P N N A
;
_chemical_formula_sum "Si O2"
_cell_formula_units_Z 32
_cell_length_a 28.044884
_cell_length_b 5.473828
_cell_length_c 9.021225
_cell_angle_alpha 90.000000
_cell_angle_beta 90.000000
_cell_angle_gamma 90.000000
_cell_volume 1384.874152
_symmetry_space_group_name_H-M "P N N A"
_symmetry_group_IT_number 52
_symmetry_cell_setting 'orthorhombic'
loop_
_space_group_symop_operation_xyz
x,y,z
1/2-x,-y,z
x,1/2-y,1/2-z
1/2-x,1/2+y,1/2-z
-x,-y,-z
1/2+x,y,-z
-x,1/2+y,1/2+z
1/2+x,1/2-y,1/2+z
loop_
_atom_site_type_symbol
_atom_site_label
_atom_site_fract_x
_atom_site_fract_y
_atom_site_fract_z
Si Si1 0.383028 0.419343 0.995580
Si Si2 0.480007 0.254467 0.427097
Si Si3 0.805675 0.037206 0.006072
Si Si4 0.649010 0.250000 0.750000
Si Si5 0.866390 0.750000 0.250000
O O1 0.423325 0.229786 0.037909
O O2 0.382003 0.608636 0.130122
O O3 0.330236 0.302750 0.982297
O O4 0.395326 0.551193 0.842044
O O5 0.487394 0.250000 0.250000
O O6 0.500000 0.500000 0.500000
O O7 0.500000 0.000000 0.500000
O O8 0.750000 0.000000 0.031364
O O9 0.833660 0.880694 0.128549
O O10 0.818736 0.935567 0.843923
#
# Coordination Sequence:
#
# PCOD9412637 Si02
#       5
#     8   8   8   4   4
#     4  11  26  49  75 107 152 197 259 311 395 459
#     4  12  30  51  85 120 161 208 266 331 404 485
#     4  11  25  41  71 103 148 193 251 310 382 457
#     4  10  24  42  74 104 144 194 246 316 376 456
#     4  10  26  42  74 104 148 194 246 316 380 452
#
# _framework density 23.106794000000001
#
# number of rings (size 3 to 8) (size 9 to 14) (size 15 to 20)
#    0.000    1.000    0.000    3.750   19.250    4.000 
#    0.000    0.000    0.000    0.000    0.000    0.000 
#    0.000    0.000    0.000    0.000    0.000    0.000 
#
# Total GULP energy -179148.664655 kJ/mol
# GULP energy per Si atom -5598.395770 kJ/mol
# Density = 2.305420 g / cm^3
# Si number density = 23.106794 Si / 1000 Ang^3
#
#
#
# Elastic Constant Matrix: (Units=GPa)
#
#
# Indices 1 2 3 4 5 6 
#
# 1 107.0974 33.5719 28.7000 0.0000 0.0000 0.0000
# 2 33.5719 121.8903 60.4557 0.0000 0.0000 0.0000
# 3 28.7000 60.4557 175.0052 0.0000 0.0000 0.0000
# 4 0.0000 0.0000 0.0000 47.5737 0.0000 0.0000
# 5 0.0000 0.0000 0.0000 0.0000 10.6876 0.0000
# 6 0.0000 0.0000 0.0000 0.0000 0.0000 22.9092
#
#
#
# Elastic Compliance Matrix: (Units=1/GPa)
#
#
# Indices 1 2 3 4 5 6 
#
# 1 0.010325 -0.002418 -0.000858 0.000000 0.000000 0.000000
# 2 -0.002418 0.010467 -0.003219 0.000000 0.000000 0.000000
# 3 -0.000858 -0.003219 0.006967 0.000000 0.000000 0.000000
# 4 0.000000 0.000000 0.000000 0.021020 0.000000 0.000000
# 5 0.000000 0.000000 0.000000 0.000000 0.093567 0.000000
# 6 0.000000 0.000000 0.000000 0.000000 0.000000 0.043651
#
#
# Mechanical properties :
#
#
# Convention : Reuss Voigt Hill
#
# Bulk Modulus (GPa) = 67.71330 72.16092 69.93711
# Shear Modulus (GPa) = 24.52065 34.98511 29.75288
#
# Velocity S-wave (km/s) = 3.26112 3.89532 3.59224
# Velocity P-wave (km/s) = 6.59909 7.17833 6.89480
#
# Compressibility (1/GPa) = 0.01476815
#
# Stress axis : x y z
#
# Youngs Moduli (GPa) = 96.84974 95.53972 143.53642
#
# Poissons Ratio (x) = 0.23105 0.12313
# Poissons Ratio (y) = 0.23422 0.46207
# Poissons Ratio (z) = 0.08308 0.30756
#
# Static dielectric constant tensor:
#      x y z
#    x 1.865990 0.000000 0.000000 
#    y 0.000000 1.917760 0.000000 
#    z 0.000000 0.000000 1.810990 
# 
# From -- ./inp_files/15211.got.cif
#   From: 2010.05.17/outbox.cif.g08.bks.cpg/sg52_8_cif.got.tgz:15211.got - 2010.06.03 12:15:38.
