data_PCOD9412416
_publ_section_title
;
Structure prediction by ZEFSAII (Michael W. Deem and Ramdas Pophale) SiO2 
 PCOD9412416
Probable space group: P N N A
;
_chemical_formula_sum "Si O2"
_cell_formula_units_Z 40
_cell_length_a 9.854005
_cell_length_b 7.449967
_cell_length_c 23.943304
_cell_angle_alpha 90.000000
_cell_angle_beta 90.000000
_cell_angle_gamma 90.000000
_cell_volume 1757.726122
_symmetry_space_group_name_H-M "P N N A"
_symmetry_group_IT_number 52
_symmetry_cell_setting 'orthorhombic'
loop_
_space_group_symop_operation_xyz
x,y,z
1/2-x,-y,z
x,1/2-y,1/2-z
1/2-x,1/2+y,1/2-z
-x,-y,-z
1/2+x,y,-z
-x,1/2+y,1/2+z
1/2+x,1/2-y,1/2+z
loop_
_atom_site_type_symbol
_atom_site_label
_atom_site_fract_x
_atom_site_fract_y
_atom_site_fract_z
Si Si1 0.994689 0.801564 0.936934
Si Si2 0.103178 0.919119 0.153268
Si Si3 0.288158 0.798636 0.530848
Si Si4 0.480273 0.928832 0.627490
Si Si5 0.403359 0.037360 0.751203
O O1 0.983395 0.615110 0.902229
O O2 0.148431 0.804320 0.959162
O O3 0.961228 0.964144 0.896411
O O4 0.889364 0.790964 0.987434
O O5 0.102373 0.711996 0.134756
O O6 0.250000 0.000000 0.164908
O O7 0.008076 0.944441 0.206999
O O8 0.367043 0.833815 0.588842
O O9 0.250000 0.000000 0.510001
O O10 0.421289 0.967527 0.688460
O O11 0.428283 0.250000 0.750000
O O12 0.250000 0.000000 0.770431
#
# Coordination Sequence:
#
# PCOD9412416 Si02
#       5
#     8   8   8   8   8
#     4  11  25  48  72 107 150 191 251 295 377 432
#     4  12  30  46  70 110 146 195 247 303 370 432
#     4  10  23  43  77 107 141 199 238 303 370 440
#     4  11  24  48  77 104 148 188 245 305 365 445
#     4  12  25  48  80 109 143 191 243 303 369 444
#
# _framework density 22.756674
#
# number of rings (size 3 to 8) (size 9 to 14) (size 15 to 20)
#    0.000    0.800    2.000    6.000    8.400    2.400 
#    0.000    0.000    0.000    0.000    0.000    0.000 
#    0.000    0.000    0.000    0.000    0.000    0.000 
#
# Total GULP energy -224358.222394 kJ/mol
# GULP energy per Si atom -5608.955560 kJ/mol
# Density = 2.270488 g / cm^3
# Si number density = 22.756674 Si / 1000 Ang^3
#
#
#
# Elastic Constant Matrix: (Units=GPa)
#
#
# Indices 1 2 3 4 5 6 
#
# 1 77.7652 19.6508 28.4204 0.0000 0.0000 0.0000
# 2 19.6508 101.7436 22.0240 0.0000 0.0000 0.0000
# 3 28.4204 22.0240 124.5709 0.0000 0.0000 0.0000
# 4 0.0000 0.0000 0.0000 -13.5165 0.0000 0.0000
# 5 0.0000 0.0000 0.0000 0.0000 19.9829 0.0000
# 6 0.0000 0.0000 0.0000 0.0000 0.0000 27.7691
#
#
#
# Elastic Compliance Matrix: (Units=1/GPa)
#
#
# Indices 1 2 3 4 5 6 
#
# 1 0.014473 -0.002163 -0.002919 0.000000 0.000000 0.000000
# 2 -0.002163 0.010543 -0.001370 0.000000 0.000000 0.000000
# 3 -0.002919 -0.001370 0.008936 0.000000 0.000000 0.000000
# 4 0.000000 0.000000 0.000000 -0.073984 0.000000 0.000000
# 5 0.000000 0.000000 0.000000 0.000000 0.050043 0.000000
# 6 0.000000 0.000000 0.000000 0.000000 0.000000 0.036011
#
#
# Mechanical properties :
#
#
# Convention : Reuss Voigt Hill
#
# Bulk Modulus (GPa) = 47.51634 49.36335 48.43985
# Shear Modulus (GPa) = 75.82207 22.44606 49.13407
#
# Velocity S-wave (km/s) = 5.77849 3.14403 4.65166
# Velocity P-wave (km/s) = 8.08992 5.90921 7.08398
#
# Compressibility (1/GPa) = 0.02104539
#
# Stress axis : x y z
#
# Youngs Moduli (GPa) = 69.09494 94.84863 111.90800
#
# Poissons Ratio (x) = 0.20519 0.32671
# Poissons Ratio (y) = 0.14948 0.15336
# Poissons Ratio (z) = 0.20172 0.12999
#
# Static dielectric constant tensor:
#      x y z
#    x 1.812680 0.000000 0.000000 
#    y 0.000000 1.838730 0.000000 
#    z 0.000000 0.000000 1.799860 
# 
# From -- ./inp_files/39233.got.cif
#   From: 2010.05.17/outbox.cif.g08.bks.cpg/sg52_20_cif.got.tgz:39233.got - 2010.06.03 12:15:38.
