data_PCOD9412857
_publ_section_title
;
Structure prediction by ZEFSAII (Michael W. Deem and Ramdas Pophale) SiO2 
 PCOD9412857
Probable space group: P N N A
;
_chemical_formula_sum "Si O2"
_cell_formula_units_Z 56
_cell_length_a 8.832644
_cell_length_b 19.551277
_cell_length_c 14.364595
_cell_angle_alpha 90.000000
_cell_angle_beta 90.000000
_cell_angle_gamma 90.000000
_cell_volume 2480.614290
_symmetry_space_group_name_H-M "P N N A"
_symmetry_group_IT_number 52
_symmetry_cell_setting 'orthorhombic'
loop_
_space_group_symop_operation_xyz
x,y,z
1/2-x,-y,z
x,1/2-y,1/2-z
1/2-x,1/2+y,1/2-z
-x,-y,-z
1/2+x,y,-z
-x,1/2+y,1/2+z
1/2+x,1/2-y,1/2+z
loop_
_atom_site_type_symbol
_atom_site_label
_atom_site_fract_x
_atom_site_fract_y
_atom_site_fract_z
Si Si1 0.130988 0.382953 0.953218
Si Si2 0.880729 0.217549 0.506233
Si Si3 0.750000 0.500000 0.526617
Si Si4 0.990920 0.938829 0.275607
Si Si5 0.034274 0.944694 0.870225
Si Si6 0.250000 0.500000 0.091074
Si Si7 0.997619 0.694931 0.332154
Si Si8 0.854024 0.199674 0.163056
O O1 0.135395 0.409181 0.846958
O O2 0.964771 0.353041 0.969607
O O3 0.222810 0.313631 0.972490
O O4 0.175568 0.442745 0.023964
O O5 0.938827 0.259638 0.418310
O O6 0.897161 0.270571 0.590319
O O7 0.634207 0.456975 0.589835
O O8 0.853589 0.453975 0.458371
O O9 0.049348 0.876407 0.212050
O O10 0.120820 0.969458 0.341900
O O11 0.935446 0.996408 0.205124
O O12 0.063313 0.871986 0.823666
O O13 0.992119 0.750000 0.250000
O O14 0.822339 0.684810 0.363530
O O15 0.853034 0.250000 0.250000
#
# Coordination Sequence:
#
# PCOD9412857 Si02
#       8
#     8   8   4   8   8   4   8   8
#     4  12  25  48  76 110 149 200 253 307 385 451
#     4  12  25  47  75 107 148 197 249 313 378 448
#     4  10  25  47  72 104 144 196 252 311 373 456
#     4  12  26  48  77 107 155 199 250 315 383 447
#     4  11  26  47  74 105 148 197 252 311 380 451
#     4  12  27  47  74 116 154 200 252 319 377 454
#     4  11  22  47  73 109 146 198 247 306 374 454
#     4  11  26  45  73 108 147 193 259 307 378 461
#
# _framework density 22.575054000000002
#
# number of rings (size 3 to 8) (size 9 to 14) (size 15 to 20)
#    0.000    0.571    4.286    2.571    8.000    1.714 
#    2.571    0.714    0.000    0.000    0.000    0.000 
#    0.000    0.000    0.000    0.000    0.000    0.000 
#
# Total GULP energy -313219.542779 kJ/mol
# GULP energy per Si atom -5593.206121 kJ/mol
# Density = 2.252367 g / cm^3
# Si number density = 22.575054 Si / 1000 Ang^3
#
#
#
# Elastic Constant Matrix: (Units=GPa)
#
#
# Indices 1 2 3 4 5 6 
#
# 1 72.7088 34.2599 36.8576 0.0000 0.0000 0.0000
# 2 34.2599 161.3333 69.6406 0.0000 0.0000 0.0000
# 3 36.8576 69.6406 134.1165 0.0000 0.0000 0.0000
# 4 0.0000 0.0000 0.0000 199.0778 0.0000 0.0000
# 5 0.0000 0.0000 0.0000 0.0000 24.3366 0.0000
# 6 0.0000 0.0000 0.0000 0.0000 0.0000 38.0050
#
#
#
# Elastic Compliance Matrix: (Units=1/GPa)
#
#
# Indices 1 2 3 4 5 6 
#
# 1 0.016460 -0.001988 -0.003491 0.000000 0.000000 0.000000
# 2 -0.001988 0.008229 -0.003727 0.000000 0.000000 0.000000
# 3 -0.003491 -0.003727 0.010351 0.000000 0.000000 0.000000
# 4 0.000000 0.000000 0.000000 0.005023 0.000000 0.000000
# 5 0.000000 0.000000 0.000000 0.000000 0.041090 0.000000
# 6 0.000000 0.000000 0.000000 0.000000 0.000000 0.026312
#
#
# Mechanical properties :
#
#
# Convention : Reuss Voigt Hill
#
# Bulk Modulus (GPa) = 60.14011 72.18608 66.16309
# Shear Modulus (GPa) = 38.04579 67.44392 52.74486
#
# Velocity S-wave (km/s) = 4.10970 5.47177 4.83890
# Velocity P-wave (km/s) = 7.01551 8.48327 7.78406
#
# Compressibility (1/GPa) = 0.01662784
#
# Stress axis : x y z
#
# Youngs Moduli (GPa) = 60.75290 121.51825 96.61232
#
# Poissons Ratio (x) = 0.24163 0.33728
# Poissons Ratio (y) = 0.12080 0.36003
# Poissons Ratio (z) = 0.21209 0.45285
#
# Static dielectric constant tensor:
#      x y z
#    x 1.912090 0.000000 0.000000 
#    y 0.000000 1.749600 0.000000 
#    z 0.000000 0.000000 1.864620 
# 
# From -- ./inp_files/24984.got.cif
#   From: 2010.05.17/outbox.cif.g08.bks.cpg/sg52_13_cif.got.tgz:24984.got - 2010.06.03 12:15:38.
