data_PCOD9412545
_publ_section_title
;
Structure prediction by ZEFSAII (Michael W. Deem and Ramdas Pophale) SiO2 
 PCOD9412545
Probable space group: P N N A
;
_chemical_formula_sum "Si O2"
_cell_formula_units_Z 40
_cell_length_a 13.126471
_cell_length_b 26.147803
_cell_length_c 5.054019
_cell_angle_alpha 90.000000
_cell_angle_beta 90.000000
_cell_angle_gamma 90.000000
_cell_volume 1734.682743
_symmetry_space_group_name_H-M "P N N A"
_symmetry_group_IT_number 52
_symmetry_cell_setting 'orthorhombic'
loop_
_space_group_symop_operation_xyz
x,y,z
1/2-x,-y,z
x,1/2-y,1/2-z
1/2-x,1/2+y,1/2-z
-x,-y,-z
1/2+x,y,-z
-x,1/2+y,1/2+z
1/2+x,1/2-y,1/2+z
loop_
_atom_site_type_symbol
_atom_site_label
_atom_site_fract_x
_atom_site_fract_y
_atom_site_fract_z
Si Si1 0.487293 0.086259 0.017079
Si Si2 0.886666 0.549703 0.986284
Si Si3 0.077188 0.828979 0.699865
Si Si4 0.155983 0.564798 0.889661
Si Si5 0.096727 0.250000 0.250000
Si Si6 0.759226 0.750000 0.250000
O O1 0.567171 0.071649 0.782588
O O2 0.458426 0.145786 0.980105
O O3 0.381761 0.059633 0.917299
O O4 0.542340 0.067410 0.274419
O O5 0.879009 0.488313 0.982996
O O6 0.774436 0.569241 0.056038
O O7 0.105432 0.880595 0.539104
O O8 0.180274 0.796601 0.704673
O O9 0.980905 0.793399 0.637305
O O10 0.170559 0.262374 0.496506
#
# Coordination Sequence:
#
# PCOD9412545 Si02
#       6
#     8   8   8   8   4   4
#     4  10  24  38  65  91 134 163 216 254 312 373
#     4  11  22  42  61  98 132 178 202 259 310 376
#     4   9  25  42  66 102 119 169 216 263 318 387
#     4   9  23  40  64  96 133 169 218 252 310 384
#     4  11  26  47  68  90 126 165 210 273 328 370
#     4  11  26  49  68  94 128 161 216 277 320 386
#
# _framework density 23.058972000000001
#
# number of rings (size 3 to 8) (size 9 to 14) (size 15 to 20)
#    1.200    0.800    0.000    1.200    5.600    9.600 
#    0.000    0.000    0.000    0.000    0.000    0.000 
#    0.000    0.000    0.000    0.000    0.000    0.000 
#
# Total GULP energy -222968.569287 kJ/mol
# GULP energy per Si atom -5574.214232 kJ/mol
# Density = 2.300649 g / cm^3
# Si number density = 23.058972 Si / 1000 Ang^3
#
#
#
# Elastic Constant Matrix: (Units=GPa)
#
#
# Indices 1 2 3 4 5 6 
#
# 1 190.4227 68.7073 55.8958 0.0000 0.0000 0.0000
# 2 68.7073 115.6731 2.1426 0.0000 0.0000 0.0000
# 3 55.8958 2.1426 92.8519 0.0000 0.0000 0.0000
# 4 0.0000 0.0000 0.0000 17.1963 0.0000 0.0000
# 5 0.0000 0.0000 0.0000 0.0000 12.1158 0.0000
# 6 0.0000 0.0000 0.0000 0.0000 0.0000 15.4223
#
#
#
# Elastic Compliance Matrix: (Units=1/GPa)
#
#
# Indices 1 2 3 4 5 6 
#
# 1 0.008513 -0.004964 -0.005010 0.000000 0.000000 0.000000
# 2 -0.004964 0.011543 0.002722 0.000000 0.000000 0.000000
# 3 -0.005010 0.002722 0.013723 0.000000 0.000000 0.000000
# 4 0.000000 0.000000 0.000000 0.058152 0.000000 0.000000
# 5 0.000000 0.000000 0.000000 0.000000 0.082537 0.000000
# 6 0.000000 0.000000 0.000000 0.000000 0.000000 0.064841
#
#
# Mechanical properties :
#
#
# Convention : Reuss Voigt Hill
#
# Bulk Modulus (GPa) = 51.88134 72.49325 62.18729
# Shear Modulus (GPa) = 19.21310 27.09368 23.15339
#
# Velocity S-wave (km/s) = 2.88968 3.43151 3.17218
# Velocity P-wave (km/s) = 5.80361 6.87072 6.35959
#
# Compressibility (1/GPa) = 0.01927475
#
# Stress axis : x y z
#
# Youngs Moduli (GPa) = 117.46451 86.63216 72.86940
#
# Poissons Ratio (x) = 0.43003 0.36510
# Poissons Ratio (y) = 0.58308 -0.19834
# Poissons Ratio (z) = 0.58853 -0.23580
#
# Static dielectric constant tensor:
#      x y z
#    x 1.870510 0.000000 0.000000 
#    y 0.000000 1.907770 0.000000 
#    z 0.000000 0.000000 2.025240 
# 
# From -- ./inp_files/1427.got.cif
#   From: 2010.05.17/outbox.cif.g08.bks.cpg/sg52_1_cif.got.tgz:1427.got - 2010.06.03 12:15:38.
