data_PCOD9412872
_publ_section_title
;
Structure prediction by ZEFSAII (Michael W. Deem and Ramdas Pophale) SiO2 
 PCOD9412872
Probable space group: P N N A
;
_chemical_formula_sum "Si O2"
_cell_formula_units_Z 36
_cell_length_a 17.187275
_cell_length_b 15.003927
_cell_length_c 5.947009
_cell_angle_alpha 90.000000
_cell_angle_beta 90.000000
_cell_angle_gamma 90.000000
_cell_volume 1533.594577
_symmetry_space_group_name_H-M "P N N A"
_symmetry_group_IT_number 52
_symmetry_cell_setting 'orthorhombic'
loop_
_space_group_symop_operation_xyz
x,y,z
1/2-x,-y,z
x,1/2-y,1/2-z
1/2-x,1/2+y,1/2-z
-x,-y,-z
1/2+x,y,-z
-x,1/2+y,1/2+z
1/2+x,1/2-y,1/2+z
loop_
_atom_site_type_symbol
_atom_site_label
_atom_site_fract_x
_atom_site_fract_y
_atom_site_fract_z
Si Si1 0.733097 0.212387 0.008050
Si Si2 0.517699 0.250000 0.250000
Si Si3 0.473380 0.901398 0.421715
Si Si4 0.598186 0.646195 0.434627
Si Si5 0.330481 0.532418 0.367978
O O1 0.717106 0.250000 0.750000
O O2 0.700753 0.112253 0.017931
O O3 0.706412 0.250000 0.250000
O O4 0.826711 0.207973 0.032534
O O5 0.555264 0.178806 0.418128
O O6 0.465042 0.317796 0.392604
O O7 0.549827 0.861892 0.295759
O O8 0.398649 0.924521 0.274701
O O9 0.500000 0.000000 0.500000
O O10 0.629947 0.548729 0.500637
O O11 0.250000 0.500000 0.246579
#
# Coordination Sequence:
#
# PCOD9412872 Si02
#       5
#     8   4   8   8   8
#     4  11  25  48  76 116 163 212 271 330 405 486
#     4  12  24  44  80 110 152 198 272 324 402 474
#     4  12  26  47  79 113 156 203 274 335 400 486
#     4  11  24  48  77 110 151 214 265 330 397 479
#     4  10  25  49  75 112 160 210 262 333 412 481
#
# _framework density 23.474264000000002
#
# number of rings (size 3 to 8) (size 9 to 14) (size 15 to 20)
#    0.000    0.889    3.333    2.667    0.000    3.556 
#    4.000    4.444    0.000    0.000    0.000    0.000 
#    0.000    0.000    0.000    0.000    0.000    0.000 
#
# Total GULP energy -200756.771297 kJ/mol
# GULP energy per Si atom -5576.576980 kJ/mol
# Density = 2.342084 g / cm^3
# Si number density = 23.474264 Si / 1000 Ang^3
#
#
#
# Elastic Constant Matrix: (Units=GPa)
#
#
# Indices 1 2 3 4 5 6 
#
# 1 105.6218 22.5790 35.6899 0.0000 0.0000 0.0000
# 2 22.5790 102.7460 54.6563 0.0000 0.0000 0.0000
# 3 35.6899 54.6563 105.0402 0.0000 0.0000 0.0000
# 4 0.0000 0.0000 0.0000 47.5072 0.0000 0.0000
# 5 0.0000 0.0000 0.0000 0.0000 41.6063 0.0000
# 6 0.0000 0.0000 0.0000 0.0000 0.0000 13.6364
#
#
#
# Elastic Compliance Matrix: (Units=1/GPa)
#
#
# Indices 1 2 3 4 5 6 
#
# 1 0.010721 -0.000578 -0.003342 0.000000 0.000000 0.000000
# 2 -0.000578 0.013489 -0.006822 0.000000 0.000000 0.000000
# 3 -0.003342 -0.006822 0.014205 0.000000 0.000000 0.000000
# 4 0.000000 0.000000 0.000000 0.021049 0.000000 0.000000
# 5 0.000000 0.000000 0.000000 0.000000 0.024035 0.000000
# 6 0.000000 0.000000 0.000000 0.000000 0.000000 0.073333
#
#
# Mechanical properties :
#
#
# Convention : Reuss Voigt Hill
#
# Bulk Modulus (GPa) = 59.06516 59.91761 59.49138
# Shear Modulus (GPa) = 27.17976 33.91550 30.54763
#
# Velocity S-wave (km/s) = 3.40642 3.80517 3.61130
# Velocity P-wave (km/s) = 6.37870 6.69970 6.54117
#
# Compressibility (1/GPa) = 0.01693046
#
# Stress axis : x y z
#
# Youngs Moduli (GPa) = 93.27910 74.13442 70.39530
#
# Poissons Ratio (x) = 0.04287 0.23524
# Poissons Ratio (y) = 0.05394 0.48026
# Poissons Ratio (z) = 0.31171 0.50577
#
# Static dielectric constant tensor:
#      x y z
#    x 1.979770 0.000000 0.000000 
#    y 0.000000 1.946930 0.000000 
#    z 0.000000 0.000000 1.970850 
# 
# From -- ./inp_files/4102.got.cif
#   From: 2010.05.17/outbox.cif.g08.bks.cpg/sg52_3_cif.got.tgz:4102.got - 2010.06.03 12:15:38.
