data_PCOD9412453
_publ_section_title
;
Structure prediction by ZEFSAII (Michael W. Deem and Ramdas Pophale) SiO2 
 PCOD9412453
Probable space group: P N N A
;
_chemical_formula_sum "Si O2"
_cell_formula_units_Z 32
_cell_length_a 31.193652
_cell_length_b 5.106964
_cell_length_c 9.623715
_cell_angle_alpha 90.000000
_cell_angle_beta 90.000000
_cell_angle_gamma 90.000000
_cell_volume 1533.104550
_symmetry_space_group_name_H-M "P N N A"
_symmetry_group_IT_number 52
_symmetry_cell_setting 'orthorhombic'
loop_
_space_group_symop_operation_xyz
x,y,z
1/2-x,-y,z
x,1/2-y,1/2-z
1/2-x,1/2+y,1/2-z
-x,-y,-z
1/2+x,y,-z
-x,1/2+y,1/2+z
1/2+x,1/2-y,1/2+z
loop_
_atom_site_type_symbol
_atom_site_label
_atom_site_fract_x
_atom_site_fract_y
_atom_site_fract_z
Si Si1 0.008995 0.750000 0.250000
Si Si2 0.049939 0.750000 0.750000
Si Si3 0.141983 0.142165 0.104995
Si Si4 0.085493 0.848650 0.452068
Si Si5 0.801368 0.502786 0.343045
O O1 0.039732 0.843911 0.375158
O O2 0.979360 0.502068 0.283275
O O3 0.078141 0.799026 0.614302
O O4 0.161233 0.250000 0.250000
O O5 0.111344 0.381870 0.060633
O O6 0.111572 0.890038 0.116902
O O7 0.175843 0.049912 0.989808
O O8 0.750000 0.500000 0.363549
O O9 0.812893 0.250000 0.250000
O O10 0.813040 0.750000 0.250000
#
# Coordination Sequence:
#
# PCOD9412453 Si02
#       5
#     4   4   8   8   8
#     4  12  22  46  62  92 134 172 218 282 338 396
#     4  12  26  40  66  96 124 176 228 274 336 394
#     4  12  24  44  67  99 136 178 216 273 331 396
#     4  12  25  42  66  97 132 172 224 277 332 392
#     4  10  23  44  71 103 136 173 217 272 331 394
#
# _framework density 20.872681
#
# number of rings (size 3 to 8) (size 9 to 14) (size 15 to 20)
#    0.000    0.500    2.500    6.000    5.250    0.000 
#    0.000    6.250    0.000    0.000    0.000    0.000 
#    0.000    0.000    0.000    0.000    0.000    0.000 
#
# Total GULP energy -179009.073049 kJ/mol
# GULP energy per Si atom -5594.033533 kJ/mol
# Density = 2.082517 g / cm^3
# Si number density = 20.872681 Si / 1000 Ang^3
#
#
#
# Elastic Constant Matrix: (Units=GPa)
#
#
# Indices 1 2 3 4 5 6 
#
# 1 55.1996 52.7030 53.4480 0.0000 0.0000 0.0000
# 2 52.7030 184.8760 53.7249 0.0000 0.0000 0.0000
# 3 53.4480 53.7249 171.6844 0.0000 0.0000 0.0000
# 4 0.0000 0.0000 0.0000 32.7604 0.0000 0.0000
# 5 0.0000 0.0000 0.0000 0.0000 16.7000 0.0000
# 6 0.0000 0.0000 0.0000 0.0000 0.0000 -748.1642
#
#
#
# Elastic Compliance Matrix: (Units=1/GPa)
#
#
# Indices 1 2 3 4 5 6 
#
# 1 0.032406 -0.006937 -0.007918 0.000000 0.000000 0.000000
# 2 -0.006937 0.007435 -0.000167 0.000000 0.000000 0.000000
# 3 -0.007918 -0.000167 0.008342 0.000000 0.000000 0.000000
# 4 0.000000 0.000000 0.000000 0.030525 0.000000 0.000000
# 5 0.000000 0.000000 0.000000 0.000000 0.059880 0.000000
# 6 0.000000 0.000000 0.000000 0.000000 0.000000 -0.001337
#
#
# Mechanical properties :
#
#
# Convention : Reuss Voigt Hill
#
# Bulk Modulus (GPa) = 55.12923 81.27909 68.20416
# Shear Modulus (GPa) = 28.84484 -122.94849 -47.05183
#
# Velocity S-wave (km/s) = 3.72148 -7.68322 -4.75302
# Velocity P-wave (km/s) = 6.70339 6.29954 1.62036
#
# Compressibility (1/GPa) = 0.01813920
#
# Stress axis : x y z
#
# Youngs Moduli (GPa) = 30.85865 134.49626 119.87836
#
# Poissons Ratio (x) = 0.93302 0.94915
# Poissons Ratio (y) = 0.21407 0.02002
# Poissons Ratio (z) = 0.24433 0.02246
#
# Static dielectric constant tensor:
#      x y z
#    x 1.743900 0.000000 0.000000 
#    y 0.000000 1.705210 0.000000 
#    z 0.000000 0.000000 1.702530 
# 
# From -- ./inp_files/15204.got.cif
#   From: 2010.05.17/outbox.cif.g08.bks.cpg/sg52_8_cif.got.tgz:15204.got - 2010.06.03 12:15:38.
