data_PCOD9412030
_publ_section_title
;
Structure prediction by ZEFSAII (Michael W. Deem and Ramdas Pophale) SiO2 
 PCOD9412030
Probable space group: P N N A
;
_chemical_formula_sum "Si O2"
_cell_formula_units_Z 64
_cell_length_a 21.903882
_cell_length_b 8.351299
_cell_length_c 16.700040
_cell_angle_alpha 90.000000
_cell_angle_beta 90.000000
_cell_angle_gamma 90.000000
_cell_volume 3054.869310
_symmetry_space_group_name_H-M "P N N A"
_symmetry_group_IT_number 52
_symmetry_cell_setting 'orthorhombic'
loop_
_space_group_symop_operation_xyz
x,y,z
1/2-x,-y,z
x,1/2-y,1/2-z
1/2-x,1/2+y,1/2-z
-x,-y,-z
1/2+x,y,-z
-x,1/2+y,1/2+z
1/2+x,1/2-y,1/2+z
loop_
_atom_site_type_symbol
_atom_site_label
_atom_site_fract_x
_atom_site_fract_y
_atom_site_fract_z
Si Si1 0.554316 0.447969 0.750650
Si Si2 0.693306 0.895038 0.055797
Si Si3 0.894863 0.814544 0.027184
Si Si4 0.010160 0.103593 0.081954
Si Si5 0.055040 0.359357 0.826527
Si Si6 0.311691 0.915144 0.295183
Si Si7 0.777192 0.839818 0.522554
Si Si8 0.896898 0.202223 0.342892
O O1 0.548338 0.250000 0.750000
O O2 0.533661 0.490733 0.660086
O O3 0.508206 0.546822 0.807361
O O4 0.623151 0.494049 0.774984
O O5 0.664413 0.772844 0.118750
O O6 0.750000 0.000000 0.089012
O O7 0.637193 0.010733 0.031202
O O8 0.725538 0.797480 0.983527
O O9 0.938394 0.761186 0.099166
O O10 0.932202 0.790396 0.945771
O O11 0.835193 0.707769 0.028209
O O12 0.952930 0.211487 0.109117
O O13 0.000000 0.000000 0.000000
O O14 0.070960 0.250000 0.750000
O O15 0.098312 0.511143 0.844354
O O16 0.315280 0.750000 0.250000
O O17 0.300709 0.878079 0.388545
O O18 0.250000 0.000000 0.266535
O O19 0.750000 0.000000 0.488202
O O20 0.902538 0.250000 0.250000
#
# Coordination Sequence:
#
# PCOD9412030 Si02
#       8
#     8   8   8   8   8   8   8   8
#     4  11  22  45  67  95 141 191 237 292 357 432
#     4  10  23  45  69 101 136 181 232 292 352 425
#     4  11  23  39  67 102 138 176 238 285 359 424
#     4  12  22  41  69 105 139 187 231 290 360 432
#     4  12  24  41  66 103 141 182 229 296 359 424
#     4  10  23  42  67  96 136 185 238 283 356 416
#     4  10  22  43  65  96 140 181 236 296 346 418
#     4  12  23  45  72  97 142 185 233 287 356 427
#
# _framework density 20.950157999999998
#
# number of rings (size 3 to 8) (size 9 to 14) (size 15 to 20)
#    0.000    1.000    3.750    3.750    0.000    3.500 
#    4.500    5.625    0.000    0.000    0.000    0.000 
#    0.000    0.000    0.000    0.000    0.000    0.000 
#
# Total GULP energy -356835.736735 kJ/mol
# GULP energy per Si atom -5575.558386 kJ/mol
# Density = 2.090247 g / cm^3
# Si number density = 20.950158 Si / 1000 Ang^3
#
#
#
# Elastic Constant Matrix: (Units=GPa)
#
#
# Indices 1 2 3 4 5 6 
#
# 1 132.4898 55.8133 44.0095 0.0000 0.0000 0.0000
# 2 55.8133 70.9979 22.7318 0.0000 0.0000 0.0000
# 3 44.0095 22.7318 68.9638 0.0000 0.0000 0.0000
# 4 0.0000 0.0000 0.0000 30.5664 0.0000 0.0000
# 5 0.0000 0.0000 0.0000 0.0000 32.7468 0.0000
# 6 0.0000 0.0000 0.0000 0.0000 0.0000 35.2766
#
#
#
# Elastic Compliance Matrix: (Units=1/GPa)
#
#
# Indices 1 2 3 4 5 6 
#
# 1 0.012897 -0.008389 -0.005465 0.000000 0.000000 0.000000
# 2 -0.008389 0.021203 -0.001636 0.000000 0.000000 0.000000
# 3 -0.005465 -0.001636 0.018527 0.000000 0.000000 0.000000
# 4 0.000000 0.000000 0.000000 0.032716 0.000000 0.000000
# 5 0.000000 0.000000 0.000000 0.000000 0.030537 0.000000
# 6 0.000000 0.000000 0.000000 0.000000 0.000000 0.028347
#
#
# Mechanical properties :
#
#
# Convention : Reuss Voigt Hill
#
# Bulk Modulus (GPa) = 46.19333 57.50675 51.85004
# Shear Modulus (GPa) = 27.40873 29.71106 28.55990
#
# Velocity S-wave (km/s) = 3.62094 3.76996 3.69620
# Velocity P-wave (km/s) = 6.29116 6.81608 6.55887
#
# Compressibility (1/GPa) = 0.02164815
#
# Stress axis : x y z
#
# Youngs Moduli (GPa) = 77.53673 47.16227 53.97495
#
# Poissons Ratio (x) = 0.39564 0.29498
# Poissons Ratio (y) = 0.65045 0.08828
# Poissons Ratio (z) = 0.42375 0.07714
#
# Static dielectric constant tensor:
#      x y z
#    x 1.830550 0.000000 0.000000 
#    y 0.000000 1.847080 0.000000 
#    z 0.000000 0.000000 1.737380 
# 
# From -- ./inp_files/29253.got.cif
#   From: 2010.05.17/outbox.cif.g08.bks.cpg/sg52_15_cif.got.tgz:29253.got - 2010.06.03 12:15:38.
