data_PCOD9412792
_publ_section_title
;
Structure prediction by ZEFSAII (Michael W. Deem and Ramdas Pophale) SiO2 
 PCOD9412792
Probable space group: P N N A
;
_chemical_formula_sum "Si O2"
_cell_formula_units_Z 40
_cell_length_a 9.691727
_cell_length_b 15.169453
_cell_length_c 10.387937
_cell_angle_alpha 90.000000
_cell_angle_beta 90.000000
_cell_angle_gamma 90.000000
_cell_volume 1527.215771
_symmetry_space_group_name_H-M "P N N A"
_symmetry_group_IT_number 52
_symmetry_cell_setting 'orthorhombic'
loop_
_space_group_symop_operation_xyz
x,y,z
1/2-x,-y,z
x,1/2-y,1/2-z
1/2-x,1/2+y,1/2-z
-x,-y,-z
1/2+x,y,-z
-x,1/2+y,1/2+z
1/2+x,1/2-y,1/2+z
loop_
_atom_site_type_symbol
_atom_site_label
_atom_site_fract_x
_atom_site_fract_y
_atom_site_fract_z
Si Si1 0.585111 0.250000 0.750000
Si Si2 0.653985 0.650585 0.997341
Si Si3 0.609767 0.080614 0.639256
Si Si4 0.750000 0.500000 0.334693
Si Si5 0.013489 0.902894 0.247964
Si Si6 0.392856 0.335733 0.528470
O O1 0.669921 0.164158 0.715067
O O2 0.497146 0.291840 0.632417
O O3 0.784939 0.587446 0.978501
O O4 0.553307 0.654317 0.871831
O O5 0.546253 0.608299 0.099915
O O6 0.706956 0.750295 0.019841
O O7 0.600123 0.992443 0.720236
O O8 0.953409 0.359782 0.610916
O O9 0.666703 0.572643 0.418242
O O10 0.858306 0.939214 0.240393
#
# Coordination Sequence:
#
# PCOD9412792 Si02
#       6
#     4   8   8   4   8   8
#     4  10  24  48  72 112 156 198 262 328 400 476
#     4  11  28  48  80 110 162 205 270 325 406 477
#     4  11  26  48  76 110 158 207 266 328 404 475
#     4  12  28  46  82 108 166 192 272 324 412 468
#     4  12  27  47  76 115 151 211 259 328 398 484
#     4  11  27  49  75 117 152 209 258 335 397 486
#
# _framework density 26.191452999999999
#
# number of rings (size 3 to 8) (size 9 to 14) (size 15 to 20)
#    0.000    0.800    2.000    2.400   14.000    0.000 
#    0.000    0.000    0.000    0.000    0.000    0.000 
#    0.000    0.000    0.000    0.000    0.000    0.000 
#
# Total GULP energy -223462.053022 kJ/mol
# GULP energy per Si atom -5586.551326 kJ/mol
# Density = 2.613184 g / cm^3
# Si number density = 26.191453 Si / 1000 Ang^3
#
#
#
# Elastic Constant Matrix: (Units=GPa)
#
#
# Indices 1 2 3 4 5 6 
#
# 1 68.4005 7.8908 -3.8578 0.0000 0.0000 0.0000
# 2 7.8908 193.7430 39.5036 0.0000 0.0000 0.0000
# 3 -3.8578 39.5036 119.9489 0.0000 0.0000 0.0000
# 4 0.0000 0.0000 0.0000 50.8506 0.0000 0.0000
# 5 0.0000 0.0000 0.0000 0.0000 27.4151 0.0000
# 6 0.0000 0.0000 0.0000 0.0000 0.0000 30.3173
#
#
#
# Elastic Compliance Matrix: (Units=1/GPa)
#
#
# Indices 1 2 3 4 5 6 
#
# 1 0.014747 -0.000748 0.000720 0.000000 0.000000 0.000000
# 2 -0.000748 0.005571 -0.001859 0.000000 0.000000 0.000000
# 3 0.000720 -0.001859 0.008972 0.000000 0.000000 0.000000
# 4 0.000000 0.000000 0.000000 0.019665 0.000000 0.000000
# 5 0.000000 0.000000 0.000000 0.000000 0.036476 0.000000
# 6 0.000000 0.000000 0.000000 0.000000 0.000000 0.032984
#
#
# Mechanical properties :
#
#
# Convention : Reuss Voigt Hill
#
# Bulk Modulus (GPa) = 39.18771 52.12948 45.65859
# Shear Modulus (GPa) = 38.25740 44.28697 41.27218
#
# Velocity S-wave (km/s) = 3.82603 4.11651 3.97393
# Velocity P-wave (km/s) = 5.87474 6.52232 6.20698
#
# Compressibility (1/GPa) = 0.02551821
#
# Stress axis : x y z
#
# Youngs Moduli (GPa) = 67.81201 179.50373 111.45523
#
# Poissons Ratio (x) = 0.13418 -0.08030
# Poissons Ratio (y) = 0.05069 0.20717
# Poissons Ratio (z) = -0.04886 0.33365
#
# Static dielectric constant tensor:
#      x y z
#    x 2.199980 0.000000 0.000000 
#    y 0.000000 2.088600 0.000000 
#    z 0.000000 0.000000 2.226630 
# 
# From -- ./inp_files/18060.got.cif
#   From: 2010.05.17/outbox.cif.g08.bks.cpg/sg52_10_cif.got.tgz:18060.got - 2010.06.03 12:15:38.
