data_PCOD9412501
_publ_section_title
;
Structure prediction by ZEFSAII (Michael W. Deem and Ramdas Pophale) SiO2 
 PCOD9412501
Probable space group: P N N A
;
_chemical_formula_sum "Si O2"
_cell_formula_units_Z 64
_cell_length_a 7.503478
_cell_length_b 25.050205
_cell_length_c 12.975989
_cell_angle_alpha 90.000000
_cell_angle_beta 90.000000
_cell_angle_gamma 90.000000
_cell_volume 2439.014412
_symmetry_space_group_name_H-M "P N N A"
_symmetry_group_IT_number 52
_symmetry_cell_setting 'orthorhombic'
loop_
_space_group_symop_operation_xyz
x,y,z
1/2-x,-y,z
x,1/2-y,1/2-z
1/2-x,1/2+y,1/2-z
-x,-y,-z
1/2+x,y,-z
-x,1/2+y,1/2+z
1/2+x,1/2-y,1/2+z
loop_
_atom_site_type_symbol
_atom_site_label
_atom_site_fract_x
_atom_site_fract_y
_atom_site_fract_z
Si Si1 0.559943 0.803061 0.082492
Si Si2 0.452169 0.012260 0.194271
Si Si3 0.084491 0.201268 0.713696
Si Si4 0.317873 0.130884 0.568147
Si Si5 0.578313 0.877727 0.878105
Si Si6 0.913115 0.531432 0.093227
Si Si7 0.227250 0.771494 0.430058
Si Si8 0.475525 0.608617 0.271191
O O1 0.406309 0.758164 0.108604
O O2 0.583100 0.843127 0.176636
O O3 0.550321 0.847394 0.987109
O O4 0.703326 0.764459 0.031543
O O5 0.506481 0.062508 0.123458
O O6 0.455087 0.037237 0.310899
O O7 0.250000 0.000000 0.164969
O O8 0.532349 0.952127 0.199003
O O9 0.205770 0.250000 0.750000
O O10 0.016549 0.160606 0.797985
O O11 0.926191 0.232924 0.654083
O O12 0.189528 0.165844 0.636174
O O13 0.194252 0.080300 0.545596
O O14 0.320771 0.167875 0.466823
O O15 0.482029 0.115949 0.647096
O O16 0.779467 0.882618 0.826341
O O17 0.750000 0.500000 0.143692
O O18 0.000000 0.500000 0.000000
#
# Coordination Sequence:
#
# PCOD9412501 Si02
#       8
#     8   8   8   8   8   8   8   8
#     4  12  25  48  72 105 146 193 245 305 364 448
#     4  10  23  46  71 104 142 187 244 304 368 446
#     4  12  24  44  69  98 138 190 233 295 362 432
#     4  12  28  44  71 105 147 189 240 303 371 444
#     4  11  24  46  75 100 143 188 246 304 372 435
#     4  12  26  45  70 104 144 191 237 296 365 446
#     4  12  27  45  68 107 147 186 247 296 369 446
#     4  11  26  45  72 105 143 189 242 303 373 442
#
# _framework density 26.240109
#
# number of rings (size 3 to 8) (size 9 to 14) (size 15 to 20)
#    0.000    0.500    6.250    0.375    7.000    2.500 
#    0.000    0.000    0.000    0.000    0.000    0.000 
#    0.000    0.000    0.000    0.000    0.000    0.000 
#
# Total GULP energy -356645.489850 kJ/mol
# GULP energy per Si atom -5572.585779 kJ/mol
# Density = 2.618039 g / cm^3
# Si number density = 26.240109 Si / 1000 Ang^3
#
#
#
# Elastic Constant Matrix: (Units=GPa)
#
#
# Indices 1 2 3 4 5 6 
#
# 1 71.3034 29.5397 20.6883 0.0000 0.0000 0.0000
# 2 29.5397 182.2098 16.9166 0.0000 0.0000 0.0000
# 3 20.6883 16.9166 59.5504 0.0000 0.0000 0.0000
# 4 0.0000 0.0000 0.0000 47.7356 0.0000 0.0000
# 5 0.0000 0.0000 0.0000 0.0000 24.9623 0.0000
# 6 0.0000 0.0000 0.0000 0.0000 0.0000 48.2936
#
#
#
# Elastic Compliance Matrix: (Units=1/GPa)
#
#
# Indices 1 2 3 4 5 6 
#
# 1 0.016404 -0.002188 -0.005077 0.000000 0.000000 0.000000
# 2 -0.002188 0.005929 -0.000924 0.000000 0.000000 0.000000
# 3 -0.005077 -0.000924 0.018819 0.000000 0.000000 0.000000
# 4 0.000000 0.000000 0.000000 0.020949 0.000000 0.000000
# 5 0.000000 0.000000 0.000000 0.000000 0.040060 0.000000
# 6 0.000000 0.000000 0.000000 0.000000 0.000000 0.020707
#
#
# Mechanical properties :
#
#
# Convention : Reuss Voigt Hill
#
# Bulk Modulus (GPa) = 40.36673 49.70586 45.03630
# Shear Modulus (GPa) = 33.89734 40.59290 37.24512
#
# Velocity S-wave (km/s) = 3.59808 3.93743 3.77157
# Velocity P-wave (km/s) = 5.71652 6.29722 6.01388
#
# Compressibility (1/GPa) = 0.02477288
#
# Stress axis : x y z
#
# Youngs Moduli (GPa) = 60.95988 168.67126 53.13804
#
# Poissons Ratio (x) = 0.36906 0.26980
# Poissons Ratio (y) = 0.13338 0.04910
# Poissons Ratio (z) = 0.30952 0.15586
#
# Static dielectric constant tensor:
#      x y z
#    x 2.173290 0.000000 0.000000 
#    y 0.000000 2.237200 0.000000 
#    z 0.000000 0.000000 2.062820 
# 
# From -- ./inp_files/25125.got.cif
#   From: 2010.05.17/outbox.cif.g08.bks.cpg/sg52_13_cif.got.tgz:25125.got - 2010.06.03 12:15:38.
