data_PCOD9412648
_publ_section_title
;
Structure prediction by ZEFSAII (Michael W. Deem and Ramdas Pophale) SiO2 
 PCOD9412648
Probable space group: P N N A
;
_chemical_formula_sum "Si O2"
_cell_formula_units_Z 48
_cell_length_a 15.523912
_cell_length_b 25.142760
_cell_length_c 5.095541
_cell_angle_alpha 90.000000
_cell_angle_beta 90.000000
_cell_angle_gamma 90.000000
_cell_volume 1988.860958
_symmetry_space_group_name_H-M "P N N A"
_symmetry_group_IT_number 52
_symmetry_cell_setting 'orthorhombic'
loop_
_space_group_symop_operation_xyz
x,y,z
1/2-x,-y,z
x,1/2-y,1/2-z
1/2-x,1/2+y,1/2-z
-x,-y,-z
1/2+x,y,-z
-x,1/2+y,1/2+z
1/2+x,1/2-y,1/2+z
loop_
_atom_site_type_symbol
_atom_site_label
_atom_site_fract_x
_atom_site_fract_y
_atom_site_fract_z
Si Si1 0.229965 0.913953 0.039441
Si Si2 0.545018 0.938971 0.835449
Si Si3 0.307163 0.750000 0.750000
Si Si4 0.008845 0.855753 0.545439
Si Si5 0.596697 0.043434 0.763192
Si Si6 0.083291 0.250000 0.250000
Si Si7 0.791609 0.351646 0.060904
O O1 0.134717 0.937970 0.005720
O O2 0.304184 0.949099 0.168661
O O3 0.219160 0.867669 0.258668
O O4 0.256482 0.892620 0.755188
O O5 0.525968 0.878380 0.747349
O O6 0.575346 0.985958 0.634160
O O7 0.456995 0.956941 0.966150
O O8 0.363119 0.729130 0.502638
O O9 0.248945 0.704648 0.876331
O O10 0.107846 0.853344 0.640058
O O11 0.946378 0.903903 0.638048
O O12 0.967817 0.799685 0.621833
#
# Coordination Sequence:
#
# PCOD9412648 Si02
#       7
#     8   8   4   8   8   4   8
#     4  11  24  43  68 102 138 188 227 292 351 428
#     4  10  24  43  67 104 142 186 236 294 355 427
#     4  12  25  46  63 106 128 186 238 299 354 433
#     4  11  24  45  67 104 137 190 234 299 357 431
#     4  11  22  42  71  99 144 187 236 290 355 427
#     4  12  29  42  77 100 138 182 248 289 370 425
#     4  11  24  44  68  94 144 177 234 290 354 416
#
# _framework density 24.134416000000002
#
# number of rings (size 3 to 8) (size 9 to 14) (size 15 to 20)
#    0.000    1.000    1.667    4.500    7.000    0.000 
#    0.000    3.333    0.000    0.000    0.000    0.000 
#    0.000    0.000    0.000    0.000    0.000    0.000 
#
# Total GULP energy -267497.429589 kJ/mol
# GULP energy per Si atom -5572.863116 kJ/mol
# Density = 2.407948 g / cm^3
# Si number density = 24.134416 Si / 1000 Ang^3
#
#
#
# Elastic Constant Matrix: (Units=GPa)
#
#
# Indices 1 2 3 4 5 6 
#
# 1 121.9660 25.4879 14.5821 0.0000 0.0000 0.0000
# 2 25.4879 96.6868 6.4573 0.0000 0.0000 0.0000
# 3 14.5821 6.4573 61.9045 0.0000 0.0000 0.0000
# 4 0.0000 0.0000 0.0000 27.3727 0.0000 0.0000
# 5 0.0000 0.0000 0.0000 0.0000 37.3336 0.0000
# 6 0.0000 0.0000 0.0000 0.0000 0.0000 36.7193
#
#
#
# Elastic Compliance Matrix: (Units=1/GPa)
#
#
# Indices 1 2 3 4 5 6 
#
# 1 0.008885 -0.002218 -0.001862 0.000000 0.000000 0.000000
# 2 -0.002218 0.010969 -0.000622 0.000000 0.000000 0.000000
# 3 -0.001862 -0.000622 0.016657 0.000000 0.000000 0.000000
# 4 0.000000 0.000000 0.000000 0.036533 0.000000 0.000000
# 5 0.000000 0.000000 0.000000 0.000000 0.026786 0.000000
# 6 0.000000 0.000000 0.000000 0.000000 0.000000 0.027234
#
#
# Mechanical properties :
#
#
# Convention : Reuss Voigt Hill
#
# Bulk Modulus (GPa) = 36.88843 41.51243 39.20043
# Shear Modulus (GPa) = 34.36385 35.88713 35.12549
#
# Velocity S-wave (km/s) = 3.77749 3.86031 3.81912
# Velocity P-wave (km/s) = 5.86035 6.09156 5.97707
#
# Compressibility (1/GPa) = 0.02710877
#
# Stress axis : x y z
#
# Youngs Moduli (GPa) = 112.54843 91.16717 60.03384
#
# Poissons Ratio (x) = 0.20220 0.11176
# Poissons Ratio (y) = 0.24962 0.03732
# Poissons Ratio (z) = 0.20952 0.05668
#
# Static dielectric constant tensor:
#      x y z
#    x 1.888740 0.000000 0.000000 
#    y 0.000000 2.017480 0.000000 
#    z 0.000000 0.000000 2.010960 
# 
# From -- ./inp_files/2514.got.cif
#   From: 2010.05.17/outbox.cif.g08.bks.cpg/sg52_2_cif.got.tgz:2514.got - 2010.06.03 12:15:38.
