data_PCOD9412702
_publ_section_title
;
Structure prediction by ZEFSAII (Michael W. Deem and Ramdas Pophale) SiO2 
 PCOD9412702
Probable space group: P N N A
;
_chemical_formula_sum "Si O2"
_cell_formula_units_Z 40
_cell_length_a 5.577925
_cell_length_b 22.621918
_cell_length_c 11.559832
_cell_angle_alpha 90.000000
_cell_angle_beta 90.000000
_cell_angle_gamma 90.000000
_cell_volume 1458.658465
_symmetry_space_group_name_H-M "P N N A"
_symmetry_group_IT_number 52
_symmetry_cell_setting 'orthorhombic'
loop_
_space_group_symop_operation_xyz
x,y,z
1/2-x,-y,z
x,1/2-y,1/2-z
1/2-x,1/2+y,1/2-z
-x,-y,-z
1/2+x,y,-z
-x,1/2+y,1/2+z
1/2+x,1/2-y,1/2+z
loop_
_atom_site_type_symbol
_atom_site_label
_atom_site_fract_x
_atom_site_fract_y
_atom_site_fract_z
Si Si1 0.808078 0.250000 0.750000
Si Si2 0.951517 0.903572 0.873351
Si Si3 0.552128 0.141495 0.139100
Si Si4 0.417594 0.920017 0.559703
Si Si5 0.250000 0.500000 0.732014
Si Si6 0.915281 0.714024 0.973162
O O1 0.972341 0.206150 0.822824
O O2 0.649809 0.288070 0.838330
O O3 0.174422 0.867081 0.819985
O O4 0.051416 0.969345 0.849724
O O5 0.689439 0.893778 0.821212
O O6 0.929395 0.880517 0.005367
O O7 0.681258 0.937172 0.515010
O O8 0.362634 0.951937 0.680380
O O9 0.425876 0.848133 0.543605
O O10 0.674130 0.743714 0.021586
#
# Coordination Sequence:
#
# PCOD9412702 Si02
#       6
#     4   8   8   8   4   8
#     4  12  28  46  84  98 148 206 220 302 388 386
#     4  10  26  47  71 108 139 181 242 295 338 441
#     4  10  26  47  70 107 145 177 244 289 347 436
#     4  10  24  45  66 105 143 179 240 287 339 434
#     4  12  26  44  82  96 142 200 218 294 380 382
#     4  10  26  45  71 108 145 183 246 295 344 443
#
# _framework density 27.422460999999998
#
# number of rings (size 3 to 8) (size 9 to 14) (size 15 to 20)
#    0.000    1.600    0.000    0.600   16.800    7.200 
#    0.000    0.000    0.000    0.000    0.000    0.000 
#    0.000    0.000    0.000    0.000    0.000    0.000 
#
# Total GULP energy -223314.942977 kJ/mol
# GULP energy per Si atom -5582.873574 kJ/mol
# Density = 2.736005 g / cm^3
# Si number density = 27.422461 Si / 1000 Ang^3
#
#
#
# Elastic Constant Matrix: (Units=GPa)
#
#
# Indices 1 2 3 4 5 6 
#
# 1 207.4735 36.2714 30.7866 0.0000 0.0000 0.0000
# 2 36.2714 101.2160 71.5127 0.0000 0.0000 0.0000
# 3 30.7866 71.5127 106.8561 0.0000 0.0000 0.0000
# 4 0.0000 0.0000 0.0000 61.1856 0.0000 0.0000
# 5 0.0000 0.0000 0.0000 0.0000 56.4253 0.0000
# 6 0.0000 0.0000 0.0000 0.0000 0.0000 32.6616
#
#
#
# Elastic Compliance Matrix: (Units=1/GPa)
#
#
# Indices 1 2 3 4 5 6 
#
# 1 0.005155 -0.001514 -0.000472 0.000000 0.000000 0.000000
# 2 -0.001514 0.019186 -0.012404 0.000000 0.000000 0.000000
# 3 -0.000472 -0.012404 0.017796 0.000000 0.000000 0.000000
# 4 0.000000 0.000000 0.000000 0.016344 0.000000 0.000000
# 5 0.000000 0.000000 0.000000 0.000000 0.017723 0.000000
# 6 0.000000 0.000000 0.000000 0.000000 0.000000 0.030617
#
#
# Mechanical properties :
#
#
# Convention : Reuss Voigt Hill
#
# Bulk Modulus (GPa) = 74.86809 76.96521 75.91665
# Shear Modulus (GPa) = 35.70101 48.51949 42.11025
#
# Velocity S-wave (km/s) = 3.61208 4.21091 3.92294
# Velocity P-wave (km/s) = 6.69008 7.19512 6.94719
#
# Compressibility (1/GPa) = 0.01335683
#
# Stress axis : x y z
#
# Youngs Moduli (GPa) = 194.00281 52.12059 56.19290
#
# Poissons Ratio (x) = 0.07889 0.02653
# Poissons Ratio (y) = 0.29364 0.69703
# Poissons Ratio (z) = 0.09160 0.64651
#
# Static dielectric constant tensor:
#      x y z
#    x 2.084220 0.000000 0.000000 
#    y 0.000000 2.299220 0.000000 
#    z 0.000000 0.000000 2.169190 
# 
# From -- ./inp_files/16059.got.cif
#   From: 2010.05.17/outbox.cif.g08.bks.cpg/sg52_9_cif.got.tgz:16059.got - 2010.06.03 12:15:38.
