data_PCOD9412534
_publ_section_title
;
Structure prediction by ZEFSAII (Michael W. Deem and Ramdas Pophale) SiO2 
 PCOD9412534
Probable space group: P N N A
;
_chemical_formula_sum "Si O2"
_cell_formula_units_Z 28
_cell_length_a 28.681171
_cell_length_b 5.446820
_cell_length_c 7.868941
_cell_angle_alpha 90.000000
_cell_angle_beta 90.000000
_cell_angle_gamma 90.000000
_cell_volume 1229.295216
_symmetry_space_group_name_H-M "P N N A"
_symmetry_group_IT_number 52
_symmetry_cell_setting 'orthorhombic'
loop_
_space_group_symop_operation_xyz
x,y,z
1/2-x,-y,z
x,1/2-y,1/2-z
1/2-x,1/2+y,1/2-z
-x,-y,-z
1/2+x,y,-z
-x,1/2+y,1/2+z
1/2+x,1/2-y,1/2+z
loop_
_atom_site_type_symbol
_atom_site_label
_atom_site_fract_x
_atom_site_fract_y
_atom_site_fract_z
Si Si1 0.619398 0.250000 0.750000
Si Si2 0.707034 0.145810 0.577347
Si Si3 0.101224 0.750000 0.750000
Si Si4 0.340068 0.750000 0.750000
Si Si5 0.451859 0.399446 0.425203
O O1 0.656558 0.065060 0.657996
O O2 0.585703 0.389575 0.621446
O O3 0.729473 0.250000 0.750000
O O4 0.689838 0.302490 0.419155
O O5 0.750000 0.000000 0.501219
O O6 0.130682 0.499828 0.765937
O O7 0.070333 0.748949 0.580075
O O8 0.459067 0.250000 0.250000
O O9 0.500000 0.500000 0.500000
#
# Coordination Sequence:
#
# PCOD9412534 Si02
#       5
#     4   8   4   4   8
#     4  10  23  52  72 112 162 208 266 339 418 478
#     4  10  24  44  73 108 157 205 274 327 415 480
#     4  12  27  49  82 110 170 216 272 336 430 480
#     4  12  26  49  80 114 154 218 270 343 406 498
#     4  12  28  47  82 116 163 213 280 342 422 497
#
# _framework density 22.777280999999999
#
# number of rings (size 3 to 8) (size 9 to 14) (size 15 to 20)
#    0.857    0.000    2.857    2.571    2.000   10.286 
#    0.000    0.000    0.000    0.000    0.000    0.000 
#    0.000    0.000    0.000    0.000    0.000    0.000 
#
# Total GULP energy -155950.456688 kJ/mol
# GULP energy per Si atom -5569.659167 kJ/mol
# Density = 2.272544 g / cm^3
# Si number density = 22.777281 Si / 1000 Ang^3
#
#
#
# Elastic Constant Matrix: (Units=GPa)
#
#
# Indices 1 2 3 4 5 6 
#
# 1 173.8625 67.4527 48.1975 0.0000 0.0000 0.0000
# 2 67.4527 96.7046 40.2631 0.0000 0.0000 0.0000
# 3 48.1975 40.2631 176.5012 0.0000 0.0000 0.0000
# 4 0.0000 0.0000 0.0000 41.7427 0.0000 0.0000
# 5 0.0000 0.0000 0.0000 0.0000 68.0261 0.0000
# 6 0.0000 0.0000 0.0000 0.0000 0.0000 21.5159
#
#
#
# Elastic Compliance Matrix: (Units=1/GPa)
#
#
# Indices 1 2 3 4 5 6 
#
# 1 0.008046 -0.005191 -0.001013 0.000000 0.000000 0.000000
# 2 -0.005191 0.014774 -0.001953 0.000000 0.000000 0.000000
# 3 -0.001013 -0.001953 0.006388 0.000000 0.000000 0.000000
# 4 0.000000 0.000000 0.000000 0.023956 0.000000 0.000000
# 5 0.000000 0.000000 0.000000 0.000000 0.014700 0.000000
# 6 0.000000 0.000000 0.000000 0.000000 0.000000 0.046477
#
#
# Mechanical properties :
#
#
# Convention : Reuss Voigt Hill
#
# Bulk Modulus (GPa) = 77.54796 84.32165 80.93481
# Shear Modulus (GPa) = 37.04966 45.66728 41.35847
#
# Velocity S-wave (km/s) = 4.03750 4.48252 4.26582
# Velocity P-wave (km/s) = 7.47364 7.99319 7.73778
#
# Compressibility (1/GPa) = 0.01289525
#
# Stress axis : x y z
#
# Youngs Moduli (GPa) = 124.28082 67.68488 156.54750
#
# Poissons Ratio (x) = 0.35132 0.15861
# Poissons Ratio (y) = 0.64509 0.30572
# Poissons Ratio (z) = 0.12592 0.13218
#
# Static dielectric constant tensor:
#      x y z
#    x 1.809640 0.000000 0.000000 
#    y 0.000000 2.092270 0.000000 
#    z 0.000000 0.000000 1.868210 
# 
# From -- ./inp_files/14686.got.cif
#   From: 2010.05.17/outbox.cif.g08.bks.cpg/sg52_8_cif.got.tgz:14686.got - 2010.06.03 12:15:38.
