data_PCOD9412177
_publ_section_title
;
Structure prediction by ZEFSAII (Michael W. Deem and Ramdas Pophale) SiO2 
 PCOD9412177
Probable space group: P N N A
;
_chemical_formula_sum "Si O2"
_cell_formula_units_Z 40
_cell_length_a 8.901745
_cell_length_b 8.494973
_cell_length_c 23.702163
_cell_angle_alpha 90.000000
_cell_angle_beta 90.000000
_cell_angle_gamma 90.000000
_cell_volume 1792.359543
_symmetry_space_group_name_H-M "P N N A"
_symmetry_group_IT_number 52
_symmetry_cell_setting 'orthorhombic'
loop_
_space_group_symop_operation_xyz
x,y,z
1/2-x,-y,z
x,1/2-y,1/2-z
1/2-x,1/2+y,1/2-z
-x,-y,-z
1/2+x,y,-z
-x,1/2+y,1/2+z
1/2+x,1/2-y,1/2+z
loop_
_atom_site_type_symbol
_atom_site_label
_atom_site_fract_x
_atom_site_fract_y
_atom_site_fract_z
Si Si1 0.010131 0.724553 0.314866
Si Si2 0.250000 0.500000 0.656974
Si Si3 0.250000 0.000000 0.023884
Si Si4 0.039868 0.250000 0.250000
Si Si5 0.750000 0.000000 0.813067
Si Si6 0.921301 0.054974 0.355263
Si Si7 0.043126 0.829926 0.933734
O O1 0.054598 0.750000 0.250000
O O2 0.851769 0.630314 0.312192
O O3 0.136628 0.617353 0.343702
O O4 0.005909 0.891013 0.345371
O O5 0.129952 0.585557 0.617468
O O6 0.121152 0.099843 0.055115
O O7 0.348317 0.123378 0.985896
O O8 0.141043 0.112981 0.222869
O O9 0.949399 0.163881 0.300022
O O10 0.964577 0.151440 0.411258
O O11 0.750000 0.000000 0.358457
#
# Coordination Sequence:
#
# PCOD9412177 Si02
#       7
#     8   4   4   4   4   8   8
#     4  12  26  42  65  98 151 202 244 290 353 416
#     4  11  24  40  70 103 134 188 249 290 353 450
#     4   9  22  49  80 104 144 190 228 317 381 432
#     4  12  24  42  64 100 150 192 244 286 356 424
#     4  12  24  43  60  91 140 212 241 291 336 420
#     4  12  26  40  69 108 146 192 243 296 350 443
#     4  10  22  45  77 106 140 181 244 292 377 445
#
# _framework density 22.316949999999999
#
# number of rings (size 3 to 8) (size 9 to 14) (size 15 to 20)
#    0.000    0.800    5.000    1.200    2.800    3.200 
#    1.800    1.000    0.000    0.000    0.000    0.000 
#    0.000    0.000    0.000    0.000    0.000    0.000 
#
# Total GULP energy -223580.427642 kJ/mol
# GULP energy per Si atom -5589.510691 kJ/mol
# Density = 2.226616 g / cm^3
# Si number density = 22.316950 Si / 1000 Ang^3
#
#
#
# Elastic Constant Matrix: (Units=GPa)
#
#
# Indices 1 2 3 4 5 6 
#
# 1 170.4978 87.1033 61.6095 0.0000 0.0000 0.0000
# 2 87.1033 192.3250 63.4638 0.0000 0.0000 0.0000
# 3 61.6095 63.4638 61.7527 0.0000 0.0000 0.0000
# 4 0.0000 0.0000 0.0000 37.1580 0.0000 0.0000
# 5 0.0000 0.0000 0.0000 0.0000 -86.0873 0.0000
# 6 0.0000 0.0000 0.0000 0.0000 0.0000 49.6449
#
#
#
# Elastic Compliance Matrix: (Units=1/GPa)
#
#
# Indices 1 2 3 4 5 6 
#
# 1 0.009562 -0.001790 -0.007701 0.000000 0.000000 0.000000
# 2 -0.001790 0.008203 -0.006644 0.000000 0.000000 0.000000
# 3 -0.007701 -0.006644 0.030705 0.000000 0.000000 0.000000
# 4 0.000000 0.000000 0.000000 0.026912 0.000000 0.000000
# 5 0.000000 0.000000 0.000000 0.000000 -0.011616 0.000000
# 6 0.000000 0.000000 0.000000 0.000000 0.000000 0.020143
#
#
# Mechanical properties :
#
#
# Convention : Reuss Voigt Hill
#
# Bulk Modulus (GPa) = 61.72759 94.32541 78.02650
# Shear Modulus (GPa) = 41.12568 14.30305 27.71437
#
# Velocity S-wave (km/s) = 4.29744 2.53436 3.52782
# Velocity P-wave (km/s) = 7.23489 7.13596 7.18559
#
# Compressibility (1/GPa) = 0.01620021
#
# Stress axis : x y z
#
# Youngs Moduli (GPa) = 104.57962 121.91336 32.56778
#
# Poissons Ratio (x) = 0.21816 0.25080
# Poissons Ratio (y) = 0.18715 0.21640
# Poissons Ratio (z) = 0.80535 0.81005
#
# Static dielectric constant tensor:
#      x y z
#    x 1.846390 0.000000 0.000000 
#    y 0.000000 1.915790 0.000000 
#    z 0.000000 0.000000 1.836060 
# 
# From -- ./inp_files/39303.got.cif
#   From: 2010.05.17/outbox.cif.g08.bks.cpg/sg52_20_cif.got.tgz:39303.got - 2010.06.03 12:15:38.
