data_PCOD9412682
_publ_section_title
;
Structure prediction by ZEFSAII (Michael W. Deem and Ramdas Pophale) SiO2 
 PCOD9412682
Probable space group: P N N A
;
_chemical_formula_sum "Si O2"
_cell_formula_units_Z 16
_cell_length_a 15.614649
_cell_length_b 7.915957
_cell_length_c 4.358476
_cell_angle_alpha 90.000000
_cell_angle_beta 90.000000
_cell_angle_gamma 90.000000
_cell_volume 538.728947
_symmetry_space_group_name_H-M "P N N A"
_symmetry_group_IT_number 52
_symmetry_cell_setting 'orthorhombic'
loop_
_space_group_symop_operation_xyz
x,y,z
1/2-x,-y,z
x,1/2-y,1/2-z
1/2-x,1/2+y,1/2-z
-x,-y,-z
1/2+x,y,-z
-x,1/2+y,1/2+z
1/2+x,1/2-y,1/2+z
loop_
_atom_site_type_symbol
_atom_site_label
_atom_site_fract_x
_atom_site_fract_y
_atom_site_fract_z
Si Si1 0.123056 0.530753 0.689440
Si Si2 0.497175 0.250000 0.250000
Si Si3 0.250000 0.000000 0.311911
O O1 0.062041 0.396234 0.855646
O O2 0.189450 0.598918 0.947513
O O3 0.062488 0.656821 0.497895
O O4 0.180243 0.433627 0.432464
#
# Coordination Sequence:
#
# PCOD9412682 Si02
#       3
#     8   4   4
#     4  10  24  44  70 104 146 194 246 304 370 442
#     4  10  24  44  72 104 144 192 248 304 368 442
#     4  10  24  44  68 104 148 192 244 302 372 438
#
# _framework density 29.699539999999999
#
# number of rings (size 3 to 8) (size 9 to 14) (size 15 to 20)
#    0.000    2.000    0.000    0.000    0.000   24.000 
#    0.000    0.000    0.000    0.000    0.000    0.000 
#    0.000    0.000    0.000    0.000    0.000    0.000 
#
# Total GULP energy -89361.922720 kJ/mol
# GULP energy per Si atom -5585.120170 kJ/mol
# Density = 2.963194 g / cm^3
# Si number density = 29.699540 Si / 1000 Ang^3
#
#
#
# Elastic Constant Matrix: (Units=GPa)
#
#
# Indices 1 2 3 4 5 6 
#
# 1 216.4981 89.5373 103.6585 0.0000 0.0000 0.0000
# 2 89.5373 109.9041 49.5967 0.0000 0.0000 0.0000
# 3 103.6585 49.5967 163.8102 0.0000 0.0000 0.0000
# 4 0.0000 0.0000 0.0000 49.9506 0.0000 0.0000
# 5 0.0000 0.0000 0.0000 0.0000 83.8632 0.0000
# 6 0.0000 0.0000 0.0000 0.0000 0.0000 52.0473
#
#
#
# Elastic Compliance Matrix: (Units=1/GPa)
#
#
# Indices 1 2 3 4 5 6 
#
# 1 0.008676 -0.005317 -0.003880 0.000000 0.000000 0.000000
# 2 -0.005317 0.013797 -0.000813 0.000000 0.000000 0.000000
# 3 -0.003880 -0.000813 0.008806 0.000000 0.000000 0.000000
# 4 0.000000 0.000000 0.000000 0.020020 0.000000 0.000000
# 5 0.000000 0.000000 0.000000 0.000000 0.011924 0.000000
# 6 0.000000 0.000000 0.000000 0.000000 0.000000 0.019213
#
#
# Mechanical properties :
#
#
# Convention : Reuss Voigt Hill
#
# Bulk Modulus (GPa) = 88.81641 108.42192 98.61917
# Shear Modulus (GPa) = 47.07682 53.66688 50.37185
#
# Velocity S-wave (km/s) = 3.98565 4.25549 4.12278
# Velocity P-wave (km/s) = 7.15196 7.79301 7.47936
#
# Compressibility (1/GPa) = 0.01125918
#
# Stress axis : x y z
#
# Youngs Moduli (GPa) = 115.26409 72.47783 113.55798
#
# Poissons Ratio (x) = 0.38536 0.44062
# Poissons Ratio (y) = 0.61286 0.09230
# Poissons Ratio (z) = 0.44724 0.05891
#
# Static dielectric constant tensor:
#      x y z
#    x 2.225490 0.000000 0.000000 
#    y 0.000000 2.549730 0.000000 
#    z 0.000000 0.000000 2.219250 
# 
# From -- ./inp_files/2709.got.cif
#   From: 2010.05.17/outbox.cif.g08.bks.cpg/sg52_2_cif.got.tgz:2709.got - 2010.06.03 12:15:38.
