data_PCOD9412104
_publ_section_title
;
Structure prediction by ZEFSAII (Michael W. Deem and Ramdas Pophale) SiO2 
 PCOD9412104
Probable space group: P N N A
;
_chemical_formula_sum "Si O2"
_cell_formula_units_Z 28
_cell_length_a 13.467958
_cell_length_b 15.136621
_cell_length_c 5.423504
_cell_angle_alpha 90.000000
_cell_angle_beta 90.000000
_cell_angle_gamma 90.000000
_cell_volume 1105.632141
_symmetry_space_group_name_H-M "P N N A"
_symmetry_group_IT_number 52
_symmetry_cell_setting 'orthorhombic'
loop_
_space_group_symop_operation_xyz
x,y,z
1/2-x,-y,z
x,1/2-y,1/2-z
1/2-x,1/2+y,1/2-z
-x,-y,-z
1/2+x,y,-z
-x,1/2+y,1/2+z
1/2+x,1/2-y,1/2+z
loop_
_atom_site_type_symbol
_atom_site_label
_atom_site_fract_x
_atom_site_fract_y
_atom_site_fract_z
Si Si1 0.869986 0.998542 0.031780
Si Si2 0.659146 0.931191 0.538753
Si Si3 0.935430 0.797073 0.005906
Si Si4 0.867272 0.250000 0.750000
O O1 0.893563 0.055007 0.276700
O O2 0.750000 0.000000 0.018432
O O3 0.901772 0.897388 0.028637
O O4 0.905670 0.037916 0.771738
O O5 0.688145 0.831783 0.620253
O O6 0.750000 0.000000 0.524033
O O7 0.891361 0.750000 0.250000
O O8 0.054011 0.784309 0.045553
O O9 0.908226 0.750000 0.750000
#
# Coordination Sequence:
#
# PCOD9412104 Si02
#       4
#     8   8   8   4
#     4  10  22  44  64  96 134 174 225 284 335 405
#     4  10  23  43  66  98 134 180 225 283 340 408
#     4  10  23  42  66  99 132 178 224 276 340 408
#     4  10  26  42  68 100 140 176 228 282 340 410
#
# _framework density 25.324877000000001
#
# number of rings (size 3 to 8) (size 9 to 14) (size 15 to 20)
#    0.857    1.143    0.000    1.714    4.000    2.286 
#   30.857    0.000    0.000    0.000    0.000    0.000 
#    0.000    0.000    0.000    0.000    0.000    0.000 
#
# Total GULP energy -156343.689052 kJ/mol
# GULP energy per Si atom -5583.703180 kJ/mol
# Density = 2.526724 g / cm^3
# Si number density = 25.324877 Si / 1000 Ang^3
#
#
#
# Elastic Constant Matrix: (Units=GPa)
#
#
# Indices 1 2 3 4 5 6 
#
# 1 97.6995 45.3693 6.2263 0.0000 0.0000 0.0000
# 2 45.3693 142.9276 51.1910 0.0000 0.0000 0.0000
# 3 6.2263 51.1910 255.2262 0.0000 0.0000 0.0000
# 4 0.0000 0.0000 0.0000 43.9689 0.0000 0.0000
# 5 0.0000 0.0000 0.0000 0.0000 9.0347 0.0000
# 6 0.0000 0.0000 0.0000 0.0000 0.0000 56.3668
#
#
#
# Elastic Compliance Matrix: (Units=1/GPa)
#
#
# Indices 1 2 3 4 5 6 
#
# 1 0.012067 -0.004013 0.000511 0.000000 0.000000 0.000000
# 2 -0.004013 0.008873 -0.001682 0.000000 0.000000 0.000000
# 3 0.000511 -0.001682 0.004243 0.000000 0.000000 0.000000
# 4 0.000000 0.000000 0.000000 0.022743 0.000000 0.000000
# 5 0.000000 0.000000 0.000000 0.000000 0.110685 0.000000
# 6 0.000000 0.000000 0.000000 0.000000 0.000000 0.017741
#
#
# Mechanical properties :
#
#
# Convention : Reuss Voigt Hill
#
# Bulk Modulus (GPa) = 67.50529 77.93627 72.72078
# Shear Modulus (GPa) = 26.08821 48.07853 37.08337
#
# Velocity S-wave (km/s) = 3.21306 4.36187 3.83078
# Velocity P-wave (km/s) = 6.36228 7.49729 6.95298
#
# Compressibility (1/GPa) = 0.01481365
#
# Stress axis : x y z
#
# Youngs Moduli (GPa) = 82.87390 112.70464 235.68552
#
# Poissons Ratio (x) = 0.45230 -0.12033
# Poissons Ratio (y) = 0.33258 0.39636
# Poissons Ratio (z) = -0.04231 0.18954
#
# Static dielectric constant tensor:
#      x y z
#    x 2.473830 0.000000 0.000000 
#    y 0.000000 1.989410 0.000000 
#    z 0.000000 0.000000 2.075220 
# 
# From -- ./inp_files/2941.got.cif
#   From: 2010.05.17/outbox.cif.g08.bks.cpg/sg52_2_cif.got.tgz:2941.got - 2010.06.03 12:15:38.
