data_PCOD9412757
_publ_section_title
;
Structure prediction by ZEFSAII (Michael W. Deem and Ramdas Pophale) SiO2 
 PCOD9412757
Probable space group: P N N A
;
_chemical_formula_sum "Si O2"
_cell_formula_units_Z 56
_cell_length_a 6.610878
_cell_length_b 12.777453
_cell_length_c 27.531285
_cell_angle_alpha 90.000000
_cell_angle_beta 90.000000
_cell_angle_gamma 90.000000
_cell_volume 2325.572680
_symmetry_space_group_name_H-M "P N N A"
_symmetry_group_IT_number 52
_symmetry_cell_setting 'orthorhombic'
loop_
_space_group_symop_operation_xyz
x,y,z
1/2-x,-y,z
x,1/2-y,1/2-z
1/2-x,1/2+y,1/2-z
-x,-y,-z
1/2+x,y,-z
-x,1/2+y,1/2+z
1/2+x,1/2-y,1/2+z
loop_
_atom_site_type_symbol
_atom_site_label
_atom_site_fract_x
_atom_site_fract_y
_atom_site_fract_z
Si Si1 0.778353 0.119093 0.211395
Si Si2 0.874688 0.599717 0.791199
Si Si3 0.750000 0.000000 0.462026
Si Si4 0.903349 0.885394 0.597146
Si Si5 0.835116 0.304763 0.395301
Si Si6 0.623271 0.913367 0.009162
Si Si7 0.986120 0.307852 0.953933
Si Si8 0.081798 0.750000 0.250000
O O1 0.834138 0.176339 0.161864
O O2 0.566473 0.163598 0.229224
O O3 0.937551 0.123035 0.255804
O O4 0.750000 0.000000 0.197627
O O5 0.750000 0.500000 0.771749
O O6 0.921981 0.578438 0.847037
O O7 0.725929 0.698598 0.789639
O O8 0.626486 0.104178 0.482204
O O9 0.922612 0.053437 0.430538
O O10 0.681135 0.878032 0.574232
O O11 0.972019 0.765977 0.595335
O O12 0.861922 0.399793 0.432301
O O13 0.633811 0.244927 0.413837
O O14 0.373156 0.942839 0.002172
O O15 0.603822 0.792488 0.984414
#
# Coordination Sequence:
#
# PCOD9412757 Si02
#       8
#     8   8   4   8   8   8   8   4
#     4  12  26  45  71 106 147 197 243 307 376 437
#     4  12  25  45  72 108 147 193 251 297 371 448
#     4  10  24  46  76 108 152 188 248 308 372 454
#     4  11  24  44  76 110 149 197 243 308 373 444
#     4  11  25  46  72 105 147 190 247 306 372 446
#     4  12  24  46  76 105 146 195 246 306 374 456
#     4  11  24  46  76 112 146 196 249 309 384 443
#     4  12  24  46  70 102 146 186 246 310 360 432
#
# _framework density 24.080090999999999
#
# number of rings (size 3 to 8) (size 9 to 14) (size 15 to 20)
#    0.000    0.571    2.857    5.571    1.000    2.286 
#    0.000    3.571    1.571    0.000    0.000    0.000 
#    0.000    0.000    0.000    0.000    0.000    0.000 
#
# Total GULP energy -312727.967995 kJ/mol
# GULP energy per Si atom -5584.428000 kJ/mol
# Density = 2.402528 g / cm^3
# Si number density = 24.080091 Si / 1000 Ang^3
#
#
#
# Elastic Constant Matrix: (Units=GPa)
#
#
# Indices 1 2 3 4 5 6 
#
# 1 149.3735 53.8511 69.7695 0.0000 0.0000 0.0000
# 2 53.8511 114.7130 22.5805 0.0000 0.0000 0.0000
# 3 69.7695 22.5805 148.2193 0.0000 0.0000 0.0000
# 4 0.0000 0.0000 0.0000 59.2863 0.0000 0.0000
# 5 0.0000 0.0000 0.0000 0.0000 -17.0228 0.0000
# 6 0.0000 0.0000 0.0000 0.0000 0.0000 79.7709
#
#
#
# Elastic Compliance Matrix: (Units=1/GPa)
#
#
# Indices 1 2 3 4 5 6 
#
# 1 0.010026 -0.003894 -0.004126 0.000000 0.000000 0.000000
# 2 -0.003894 0.010500 0.000234 0.000000 0.000000 0.000000
# 3 -0.004126 0.000234 0.008653 0.000000 0.000000 0.000000
# 4 0.000000 0.000000 0.000000 0.016867 0.000000 0.000000
# 5 0.000000 0.000000 0.000000 0.000000 -0.058745 0.000000
# 6 0.000000 0.000000 0.000000 0.000000 0.000000 0.012536
#
#
# Mechanical properties :
#
#
# Convention : Reuss Voigt Hill
#
# Bulk Modulus (GPa) = 73.50157 78.30089 75.90123
# Shear Modulus (GPa) = 250.67753 42.14720 146.41236
#
# Velocity S-wave (km/s) = 10.21409 4.18819 7.80604
# Velocity P-wave (km/s) = 13.02664 7.48167 10.62235
#
# Compressibility (1/GPa) = 0.01360515
#
# Stress axis : x y z
#
# Youngs Moduli (GPa) = 99.74285 95.24178 115.56189
#
# Poissons Ratio (x) = 0.37090 0.47681
# Poissons Ratio (y) = 0.38843 -0.02699
# Poissons Ratio (z) = 0.41154 -0.02225
#
# Static dielectric constant tensor:
#      x y z
#    x 1.937440 0.000000 0.000000 
#    y 0.000000 2.040020 0.000000 
#    z 0.000000 0.000000 1.924050 
# 
# From -- ./inp_files/43809.got.cif
#   From: 2010.05.17/outbox.cif.g08.bks.cpg/sg52_22_cif.got.tgz:43809.got - 2010.06.03 12:15:38.
