data_PCOD9412577
_publ_section_title
;
Structure prediction by ZEFSAII (Michael W. Deem and Ramdas Pophale) SiO2 
 PCOD9412577
Probable space group: P N N A
;
_chemical_formula_sum "Si O2"
_cell_formula_units_Z 44
_cell_length_a 16.398681
_cell_length_b 19.868608
_cell_length_c 6.971350
_cell_angle_alpha 90.000000
_cell_angle_beta 90.000000
_cell_angle_gamma 90.000000
_cell_volume 2271.398038
_symmetry_space_group_name_H-M "P N N A"
_symmetry_group_IT_number 52
_symmetry_cell_setting 'orthorhombic'
loop_
_space_group_symop_operation_xyz
x,y,z
1/2-x,-y,z
x,1/2-y,1/2-z
1/2-x,1/2+y,1/2-z
-x,-y,-z
1/2+x,y,-z
-x,1/2+y,1/2+z
1/2+x,1/2-y,1/2+z
loop_
_atom_site_type_symbol
_atom_site_label
_atom_site_fract_x
_atom_site_fract_y
_atom_site_fract_z
Si Si1 0.059070 0.918935 0.363826
Si Si2 0.213849 0.319996 0.159032
Si Si3 0.832023 0.391016 0.537865
Si Si4 0.750000 0.500000 0.325061
Si Si5 0.142564 0.684340 0.852031
Si Si6 0.624276 0.057110 0.472141
O O1 0.085144 0.890468 0.157899
O O2 0.084284 0.863573 0.523004
O O3 0.963934 0.933709 0.376369
O O4 0.111388 0.987238 0.408137
O O5 0.182476 0.250000 0.250000
O O6 0.265912 0.359017 0.320601
O O7 0.149205 0.375137 0.085002
O O8 0.279562 0.301682 0.990388
O O9 0.811995 0.465425 0.470440
O O10 0.829862 0.354608 0.335960
O O11 0.695687 0.454963 0.182240
O O12 0.104777 0.750000 0.750000
#
# Coordination Sequence:
#
# PCOD9412577 Si02
#       6
#     8   8   8   4   8   8
#     4  10  24  41  61  91 133 166 205 267 328 386
#     4  11  22  38  65  93 124 166 215 269 318 381
#     4  11  21  38  65  92 118 169 209 258 322 378
#     4  12  20  38  70  90 120 166 216 266 312 376
#     4  11  21  40  66  91 123 166 216 258 317 393
#     4  11  22  42  61  95 131 162 215 269 316 386
#
# _framework density 19.371327999999998
#
# number of rings (size 3 to 8) (size 9 to 14) (size 15 to 20)
#    0.000    1.091    5.455    2.182    0.000    1.455 
#    3.273    0.000    8.000    0.000    0.000    0.000 
#    0.000    0.000    0.000    0.000    0.000    0.000 
#
# Total GULP energy -245219.508153 kJ/mol
# GULP energy per Si atom -5573.170640 kJ/mol
# Density = 1.932724 g / cm^3
# Si number density = 19.371328 Si / 1000 Ang^3
#
#
#
# Elastic Constant Matrix: (Units=GPa)
#
#
# Indices 1 2 3 4 5 6 
#
# 1 68.4150 26.3030 33.2679 0.0000 0.0000 0.0000
# 2 26.3030 99.7500 30.2589 0.0000 0.0000 0.0000
# 3 33.2679 30.2589 119.6954 0.0000 0.0000 0.0000
# 4 0.0000 0.0000 0.0000 404.9726 0.0000 0.0000
# 5 0.0000 0.0000 0.0000 0.0000 7.7412 0.0000
# 6 0.0000 0.0000 0.0000 0.0000 0.0000 -23.6978
#
#
#
# Elastic Compliance Matrix: (Units=1/GPa)
#
#
# Indices 1 2 3 4 5 6 
#
# 1 0.017956 -0.003488 -0.004109 0.000000 0.000000 0.000000
# 2 -0.003488 0.011535 -0.001947 0.000000 0.000000 0.000000
# 3 -0.004109 -0.001947 0.009989 0.000000 0.000000 0.000000
# 4 0.000000 0.000000 0.000000 0.002469 0.000000 0.000000
# 5 0.000000 0.000000 0.000000 0.000000 0.129179 0.000000
# 6 0.000000 0.000000 0.000000 0.000000 0.000000 -0.042198
#
#
# Mechanical properties :
#
#
# Convention : Reuss Voigt Hill
#
# Bulk Modulus (GPa) = 49.03790 51.94667 50.49228
# Shear Modulus (GPa) = 32.29670 91.00524 61.65097
#
# Velocity S-wave (km/s) = 4.08762 6.86158 5.64756
# Velocity P-wave (km/s) = 6.90274 9.46835 8.28545
#
# Compressibility (1/GPa) = 0.02039239
#
# Stress axis : x y z
#
# Youngs Moduli (GPa) = 55.69243 86.68965 100.11400
#
# Poissons Ratio (x) = 0.30241 0.41134
# Poissons Ratio (y) = 0.19428 0.19488
# Poissons Ratio (z) = 0.22883 0.16875
#
# Static dielectric constant tensor:
#      x y z
#    x 1.626840 0.000000 0.000000 
#    y 0.000000 1.710980 0.000000 
#    z 0.000000 0.000000 1.661710 
# 
# From -- ./inp_files/3398.got.cif
#   From: 2010.05.17/outbox.cif.g08.bks.cpg/sg52_2_cif.got.tgz:3398.got - 2010.06.03 12:15:38.
