data_PCOD9412002
_publ_section_title
;
Structure prediction by ZEFSAII (Michael W. Deem and Ramdas Pophale) SiO2 
 PCOD9412002
Probable space group: P N N A
;
_chemical_formula_sum "Si O2"
_cell_formula_units_Z 40
_cell_length_a 8.602924
_cell_length_b 16.518941
_cell_length_c 12.136383
_cell_angle_alpha 90.000000
_cell_angle_beta 90.000000
_cell_angle_gamma 90.000000
_cell_volume 1724.715879
_symmetry_space_group_name_H-M "P N N A"
_symmetry_group_IT_number 52
_symmetry_cell_setting 'orthorhombic'
loop_
_space_group_symop_operation_xyz
x,y,z
1/2-x,-y,z
x,1/2-y,1/2-z
1/2-x,1/2+y,1/2-z
-x,-y,-z
1/2+x,y,-z
-x,1/2+y,1/2+z
1/2+x,1/2-y,1/2+z
loop_
_atom_site_type_symbol
_atom_site_label
_atom_site_fract_x
_atom_site_fract_y
_atom_site_fract_z
Si Si1 0.750000 0.000000 0.636621
Si Si2 0.366281 0.092054 0.161832
Si Si3 0.223770 0.750000 0.250000
Si Si4 0.926067 0.657764 0.934511
Si Si5 0.747878 0.259964 0.119969
Si Si6 0.323953 0.917316 0.964628
O O1 0.636244 0.953961 0.722771
O O2 0.856117 0.933770 0.573263
O O3 0.380038 0.185179 0.190340
O O4 0.500557 0.076605 0.075200
O O5 0.202953 0.081694 0.096639
O O6 0.328836 0.705375 0.159479
O O7 0.102744 0.682963 0.907445
O O8 0.888172 0.695257 0.053327
O O9 0.733180 0.250000 0.250000
O O10 0.752392 0.167238 0.074465
O O11 0.250000 0.000000 0.919503
#
# Coordination Sequence:
#
# PCOD9412002 Si02
#       6
#     4   8   4   8   8   8
#     4  10  26  46  78 108 148 206 248 320 390 460
#     4  11  24  42  71 103 147 193 253 313 389 449
#     4  10  22  42  72 100 148 190 238 308 382 446
#     4  11  25  49  77 106 152 197 255 309 381 463
#     4  12  28  47  77 108 152 202 256 312 388 456
#     4  12  26  41  71 108 145 188 257 324 372 460
#
# _framework density 23.192226000000002
#
# number of rings (size 3 to 8) (size 9 to 14) (size 15 to 20)
#    0.000    0.800    4.000    1.800    4.200    2.400 
#    1.800    0.000    0.000    0.000    0.000    0.000 
#    0.000    0.000    0.000    0.000    0.000    0.000 
#
# Total GULP energy -223563.272565 kJ/mol
# GULP energy per Si atom -5589.081814 kJ/mol
# Density = 2.313944 g / cm^3
# Si number density = 23.192226 Si / 1000 Ang^3
#
#
#
# Elastic Constant Matrix: (Units=GPa)
#
#
# Indices 1 2 3 4 5 6 
#
# 1 80.5117 17.3884 30.3676 0.0000 0.0000 0.0000
# 2 17.3884 129.3830 20.3649 0.0000 0.0000 0.0000
# 3 30.3676 20.3649 112.5515 0.0000 0.0000 0.0000
# 4 0.0000 0.0000 0.0000 39.4499 0.0000 0.0000
# 5 0.0000 0.0000 0.0000 0.0000 5.4135 0.0000
# 6 0.0000 0.0000 0.0000 0.0000 0.0000 33.9165
#
#
#
# Elastic Compliance Matrix: (Units=1/GPa)
#
#
# Indices 1 2 3 4 5 6 
#
# 1 0.014046 -0.001329 -0.003549 0.000000 0.000000 0.000000
# 2 -0.001329 0.008081 -0.001104 0.000000 0.000000 0.000000
# 3 -0.003549 -0.001104 0.010042 0.000000 0.000000 0.000000
# 4 0.000000 0.000000 0.000000 0.025349 0.000000 0.000000
# 5 0.000000 0.000000 0.000000 0.000000 0.184724 0.000000
# 6 0.000000 0.000000 0.000000 0.000000 0.000000 0.029484
#
#
# Mechanical properties :
#
#
# Convention : Reuss Voigt Hill
#
# Bulk Modulus (GPa) = 49.49101 50.96534 50.22817
# Shear Modulus (GPa) = 17.21608 32.71102 24.96355
#
# Velocity S-wave (km/s) = 2.72751 3.75964 3.28438
# Velocity P-wave (km/s) = 5.59508 6.39292 6.00726
#
# Compressibility (1/GPa) = 0.02020569
#
# Stress axis : x y z
#
# Youngs Moduli (GPa) = 71.19284 123.74211 99.58015
#
# Poissons Ratio (x) = 0.16446 0.35345
# Poissons Ratio (y) = 0.09462 0.10990
# Poissons Ratio (z) = 0.25269 0.13656
#
# Static dielectric constant tensor:
#      x y z
#    x 1.905490 0.000000 0.000000 
#    y 0.000000 1.968330 0.000000 
#    z 0.000000 0.000000 1.823440 
# 
# From -- ./inp_files/16706.got.cif
#   From: 2010.05.17/outbox.cif.g08.bks.cpg/sg52_9_cif.got.tgz:16706.got - 2010.06.03 12:15:38.
