data_PCOD9412895
_publ_section_title
;
Structure prediction by ZEFSAII (Michael W. Deem and Ramdas Pophale) SiO2 
 PCOD9412895
Probable space group: P N N A
;
_chemical_formula_sum "Si O2"
_cell_formula_units_Z 36
_cell_length_a 8.238905
_cell_length_b 19.371404
_cell_length_c 9.934828
_cell_angle_alpha 90.000000
_cell_angle_beta 90.000000
_cell_angle_gamma 90.000000
_cell_volume 1585.590176
_symmetry_space_group_name_H-M "P N N A"
_symmetry_group_IT_number 52
_symmetry_cell_setting 'orthorhombic'
loop_
_space_group_symop_operation_xyz
x,y,z
1/2-x,-y,z
x,1/2-y,1/2-z
1/2-x,1/2+y,1/2-z
-x,-y,-z
1/2+x,y,-z
-x,1/2+y,1/2+z
1/2+x,1/2-y,1/2+z
loop_
_atom_site_type_symbol
_atom_site_label
_atom_site_fract_x
_atom_site_fract_y
_atom_site_fract_z
Si Si1 0.332075 0.750000 0.750000
Si Si2 0.729168 0.074759 0.449741
Si Si3 0.073285 0.642886 0.153184
Si Si4 0.131002 0.617426 0.670804
Si Si5 0.263474 0.919892 0.112474
O O1 0.458990 0.709733 0.846211
O O2 0.214527 0.692655 0.685661
O O3 0.546554 0.084012 0.400855
O O4 0.777119 0.135978 0.551749
O O5 0.834685 0.081356 0.313915
O O6 0.750000 0.000000 0.513198
O O7 0.135192 0.624787 0.301624
O O8 0.221628 0.583193 0.544871
O O9 0.940691 0.611422 0.640739
O O10 0.250000 0.000000 0.154717
#
# Coordination Sequence:
#
# PCOD9412895 Si02
#       5
#     4   8   8   8   8
#     4  10  26  46  62  96 130 176 226 256 330 394
#     4  11  21  39  63  96 128 168 213 266 327 380
#     4  11  24  40  65  92 131 170 213 270 315 391
#     4  11  24  41  67  94 135 176 215 275 323 398
#     4  12  24  44  70 103 131 171 222 279 340 385
#
# _framework density 22.704478999999999
#
# number of rings (size 3 to 8) (size 9 to 14) (size 15 to 20)
#    0.000    0.889    0.000    8.000    0.000    8.000 
#    0.000    0.000    0.000    0.000    0.000    0.000 
#    0.000    0.000    0.000    0.000    0.000    0.000 
#
# Total GULP energy -201246.256338 kJ/mol
# GULP energy per Si atom -5590.173787 kJ/mol
# Density = 2.265280 g / cm^3
# Si number density = 22.704479 Si / 1000 Ang^3
#
#
#
# Elastic Constant Matrix: (Units=GPa)
#
#
# Indices 1 2 3 4 5 6 
#
# 1 103.8020 60.5439 10.6770 0.0000 0.0000 0.0000
# 2 60.5439 119.3754 27.9762 0.0000 0.0000 0.0000
# 3 10.6770 27.9762 101.7089 0.0000 0.0000 0.0000
# 4 0.0000 0.0000 0.0000 9.7078 0.0000 0.0000
# 5 0.0000 0.0000 0.0000 0.0000 23.1876 0.0000
# 6 0.0000 0.0000 0.0000 0.0000 0.0000 39.9242
#
#
#
# Elastic Compliance Matrix: (Units=1/GPa)
#
#
# Indices 1 2 3 4 5 6 
#
# 1 0.013705 -0.007069 0.000506 0.000000 0.000000 0.000000
# 2 -0.007069 0.012601 -0.002724 0.000000 0.000000 0.000000
# 3 0.000506 -0.002724 0.010528 0.000000 0.000000 0.000000
# 4 0.000000 0.000000 0.000000 0.103010 0.000000 0.000000
# 5 0.000000 0.000000 0.000000 0.000000 0.043126 0.000000
# 6 0.000000 0.000000 0.000000 0.000000 0.000000 0.025047
#
#
# Mechanical properties :
#
#
# Convention : Reuss Voigt Hill
#
# Bulk Modulus (GPa) = 54.76751 58.14229 56.45490
# Shear Modulus (GPa) = 21.48889 29.60986 25.54938
#
# Velocity S-wave (km/s) = 3.07980 3.61521 3.35819
# Velocity P-wave (km/s) = 6.06804 6.56431 6.32105
#
# Compressibility (1/GPa) = 0.01825900
#
# Stress axis : x y z
#
# Youngs Moduli (GPa) = 72.96617 79.36100 94.98383
#
# Poissons Ratio (x) = 0.56103 -0.04804
# Poissons Ratio (y) = 0.51582 0.25872
# Poissons Ratio (z) = -0.03691 0.21617
#
# Static dielectric constant tensor:
#      x y z
#    x 1.891020 0.000000 0.000000 
#    y 0.000000 1.806840 0.000000 
#    z 0.000000 0.000000 1.864740 
# 
# From -- ./inp_files/7282.got.cif
#   From: 2010.05.17/outbox.cif.g08.bks.cpg/sg52_4_cif.got.tgz:7282.got - 2010.06.03 12:15:38.
