data_PCOD9412072
_publ_section_title
;
Structure prediction by ZEFSAII (Michael W. Deem and Ramdas Pophale) SiO2 
 PCOD9412072
Probable space group: P N N A
;
_chemical_formula_sum "Si O2"
_cell_formula_units_Z 36
_cell_length_a 11.160558
_cell_length_b 10.342660
_cell_length_c 13.409698
_cell_angle_alpha 90.000000
_cell_angle_beta 90.000000
_cell_angle_gamma 90.000000
_cell_volume 1547.879520
_symmetry_space_group_name_H-M "P N N A"
_symmetry_group_IT_number 52
_symmetry_cell_setting 'orthorhombic'
loop_
_space_group_symop_operation_xyz
x,y,z
1/2-x,-y,z
x,1/2-y,1/2-z
1/2-x,1/2+y,1/2-z
-x,-y,-z
1/2+x,y,-z
-x,1/2+y,1/2+z
1/2+x,1/2-y,1/2+z
loop_
_atom_site_type_symbol
_atom_site_label
_atom_site_fract_x
_atom_site_fract_y
_atom_site_fract_z
Si Si1 0.321889 0.250000 0.250000
Si Si2 0.681576 0.136555 0.562706
Si Si3 0.290675 0.703656 0.641393
Si Si4 0.529216 0.799250 0.080700
Si Si5 0.527111 0.931071 0.873654
O O1 0.244490 0.209414 0.345163
O O2 0.406863 0.130274 0.219756
O O3 0.691827 0.202224 0.453477
O O4 0.539530 0.162797 0.583868
O O5 0.750000 0.000000 0.557364
O O6 0.329850 0.750000 0.750000
O O7 0.382682 0.585939 0.624439
O O8 0.148409 0.691681 0.644389
O O9 0.444143 0.918600 0.113681
O O10 0.564641 0.843612 0.968675
#
# Coordination Sequence:
#
# PCOD9412072 Si02
#       5
#     4   8   8   8   8
#     4  12  24  46  68 100 136 188 226 296 360 434
#     4  11  28  45  67 102 144 185 235 296 360 428
#     4  11  23  44  69 103 137 182 230 290 366 424
#     4  10  23  44  68 101 133 184 239 289 350 435
#     4  10  22  43  71  97 138 179 237 291 351 430
#
# _framework density 23.257625000000001
#
# number of rings (size 3 to 8) (size 9 to 14) (size 15 to 20)
#    0.000    1.333    3.333    0.667    4.667    2.667 
#    0.000    0.000    0.000    0.000    0.000    0.000 
#    0.000    0.000    0.000    0.000    0.000    0.000 
#
# Total GULP energy -200771.573874 kJ/mol
# GULP energy per Si atom -5576.988163 kJ/mol
# Density = 2.320469 g / cm^3
# Si number density = 23.257625 Si / 1000 Ang^3
#
#
#
# Elastic Constant Matrix: (Units=GPa)
#
#
# Indices 1 2 3 4 5 6 
#
# 1 73.9189 28.5645 34.3277 0.0000 0.0000 0.0000
# 2 28.5645 89.8624 31.7040 0.0000 0.0000 0.0000
# 3 34.3277 31.7040 122.3587 0.0000 0.0000 0.0000
# 4 0.0000 0.0000 0.0000 19.0225 0.0000 0.0000
# 5 0.0000 0.0000 0.0000 0.0000 -5.2148 0.0000
# 6 0.0000 0.0000 0.0000 0.0000 0.0000 28.0313
#
#
#
# Elastic Compliance Matrix: (Units=1/GPa)
#
#
# Indices 1 2 3 4 5 6 
#
# 1 0.016793 -0.004046 -0.003663 0.000000 0.000000 0.000000
# 2 -0.004046 0.013222 -0.002291 0.000000 0.000000 0.000000
# 3 -0.003663 -0.002291 0.009794 0.000000 0.000000 0.000000
# 4 0.000000 0.000000 0.000000 0.052569 0.000000 0.000000
# 5 0.000000 0.000000 0.000000 0.000000 -0.191761 0.000000
# 6 0.000000 0.000000 0.000000 0.000000 0.000000 0.035674
#
#
# Mechanical properties :
#
#
# Convention : Reuss Voigt Hill
#
# Bulk Modulus (GPa) = 50.47970 52.81471 51.64720
# Shear Modulus (GPa) = -134.74922 21.13737 -56.80592
#
# Velocity S-wave (km/s) = -7.61994 3.01796 -4.94749
# Velocity P-wave (km/s) = 7.46098 5.90779 3.22213
#
# Compressibility (1/GPa) = 0.01980994
#
# Stress axis : x y z
#
# Youngs Moduli (GPa) = 59.54949 75.62928 102.10378
#
# Poissons Ratio (x) = 0.30597 0.37400
# Poissons Ratio (y) = 0.24091 0.23392
# Poissons Ratio (z) = 0.21813 0.17327
#
# Static dielectric constant tensor:
#      x y z
#    x 1.931970 0.000000 0.000000 
#    y 0.000000 1.888590 0.000000 
#    z 0.000000 0.000000 1.932510 
# 
# From -- ./inp_files/17744.got.cif
#   From: 2010.05.17/outbox.cif.g08.bks.cpg/sg52_9_cif.got.tgz:17744.got - 2010.06.03 12:15:38.
