data_PCOD9412318
_publ_section_title
;
Structure prediction by ZEFSAII (Michael W. Deem and Ramdas Pophale) SiO2 
 PCOD9412318
Probable space group: P N N A
;
_chemical_formula_sum "Si O2"
_cell_formula_units_Z 40
_cell_length_a 21.257378
_cell_length_b 10.396617
_cell_length_c 7.643328
_cell_angle_alpha 90.000000
_cell_angle_beta 90.000000
_cell_angle_gamma 90.000000
_cell_volume 1689.212310
_symmetry_space_group_name_H-M "P N N A"
_symmetry_group_IT_number 52
_symmetry_cell_setting 'orthorhombic'
loop_
_space_group_symop_operation_xyz
x,y,z
1/2-x,-y,z
x,1/2-y,1/2-z
1/2-x,1/2+y,1/2-z
-x,-y,-z
1/2+x,y,-z
-x,1/2+y,1/2+z
1/2+x,1/2-y,1/2+z
loop_
_atom_site_type_symbol
_atom_site_label
_atom_site_fract_x
_atom_site_fract_y
_atom_site_fract_z
Si Si1 0.993742 0.588222 0.232663
Si Si2 0.103931 0.106185 0.222753
Si Si3 0.432444 0.332587 0.924880
Si Si4 0.177899 0.521495 0.967535
Si Si5 0.357695 0.625163 0.643680
O O1 0.052378 0.506507 0.310650
O O2 0.956950 0.474338 0.127216
O O3 0.934124 0.630309 0.347540
O O4 0.023839 0.690128 0.093950
O O5 0.076438 0.250000 0.250000
O O6 0.139259 0.071495 0.402150
O O7 0.152700 0.113173 0.061739
O O8 0.437124 0.250000 0.750000
O O9 0.359958 0.344464 0.986545
O O10 0.250000 0.500000 0.011053
O O11 0.168807 0.488502 0.762475
O O12 0.334599 0.750000 0.750000
#
# Coordination Sequence:
#
# PCOD9412318 Si02
#       5
#     8   8   8   8   8
#     4   9  20  34  57  91 127 156 194 248 311 377
#     4  11  21  39  64  90 123 159 201 255 313 378
#     4   9  18  34  59  87 120 161 199 249 311 359
#     4  10  23  42  61  85 120 162 214 261 305 366
#     4  11  22  37  61  95 120 161 204 247 313 379
#
# _framework density 23.679677000000002
#
# number of rings (size 3 to 8) (size 9 to 14) (size 15 to 20)
#    0.000    2.000    2.000    2.400    2.800    1.600 
#    0.000    0.000    0.000    0.000    0.000    0.000 
#    0.000    0.000    0.000    0.000    0.000    0.000 
#
# Total GULP energy -222877.744650 kJ/mol
# GULP energy per Si atom -5571.943616 kJ/mol
# Density = 2.362578 g / cm^3
# Si number density = 23.679677 Si / 1000 Ang^3
#
#
#
# Elastic Constant Matrix: (Units=GPa)
#
#
# Indices 1 2 3 4 5 6 
#
# 1 98.1524 13.7166 3.1545 0.0000 0.0000 0.0000
# 2 13.7166 33.4460 13.2850 0.0000 0.0000 0.0000
# 3 3.1545 13.2850 124.2767 0.0000 0.0000 0.0000
# 4 0.0000 0.0000 0.0000 36.8474 0.0000 0.0000
# 5 0.0000 0.0000 0.0000 0.0000 5.2240 0.0000
# 6 0.0000 0.0000 0.0000 0.0000 0.0000 7.3033
#
#
#
# Elastic Compliance Matrix: (Units=1/GPa)
#
#
# Indices 1 2 3 4 5 6 
#
# 1 0.010813 -0.004517 0.000208 0.000000 0.000000 0.000000
# 2 -0.004517 0.033112 -0.003425 0.000000 0.000000 0.000000
# 3 0.000208 -0.003425 0.008407 0.000000 0.000000 0.000000
# 4 0.000000 0.000000 0.000000 0.027139 0.000000 0.000000
# 5 0.000000 0.000000 0.000000 0.000000 0.191425 0.000000
# 6 0.000000 0.000000 0.000000 0.000000 0.000000 0.136925
#
#
# Mechanical properties :
#
#
# Convention : Reuss Voigt Hill
#
# Bulk Modulus (GPa) = 27.12629 35.13193 31.12911
# Shear Modulus (GPa) = 11.47905 24.92287 18.20096
#
# Velocity S-wave (km/s) = 2.20412 3.24775 2.77543
# Velocity P-wave (km/s) = 4.23768 5.37888 4.84202
#
# Compressibility (1/GPa) = 0.03686460
#
# Stress axis : x y z
#
# Youngs Moduli (GPa) = 92.48289 30.20055 118.94290
#
# Poissons Ratio (x) = 0.13642 -0.02479
# Poissons Ratio (y) = 0.41777 0.40738
# Poissons Ratio (z) = -0.01928 0.10344
#
# Static dielectric constant tensor:
#      x y z
#    x 1.964710 0.000000 0.000000 
#    y 0.000000 2.099980 0.000000 
#    z 0.000000 0.000000 1.974490 
# 
# From -- ./inp_files/13162.got.cif
#   From: 2010.05.17/outbox.cif.g08.bks.cpg/sg52_7_cif.got.tgz:13162.got - 2010.06.03 12:15:38.
