data_PCOD9412763
_publ_section_title
;
Structure prediction by ZEFSAII (Michael W. Deem and Ramdas Pophale) SiO2 
 PCOD9412763
Probable space group: P N N A
;
_chemical_formula_sum "Si O2"
_cell_formula_units_Z 24
_cell_length_a 10.055533
_cell_length_b 14.052208
_cell_length_c 6.887217
_cell_angle_alpha 90.000000
_cell_angle_beta 90.000000
_cell_angle_gamma 90.000000
_cell_volume 973.180576
_symmetry_space_group_name_H-M "P N N A"
_symmetry_group_IT_number 52
_symmetry_cell_setting 'orthorhombic'
loop_
_space_group_symop_operation_xyz
x,y,z
1/2-x,-y,z
x,1/2-y,1/2-z
1/2-x,1/2+y,1/2-z
-x,-y,-z
1/2+x,y,-z
-x,1/2+y,1/2+z
1/2+x,1/2-y,1/2+z
loop_
_atom_site_type_symbol
_atom_site_label
_atom_site_fract_x
_atom_site_fract_y
_atom_site_fract_z
Si Si1 0.907905 0.250000 0.250000
Si Si2 0.441779 0.339177 0.364681
Si Si3 0.250000 0.000000 0.244612
Si Si4 0.195058 0.402427 0.877613
O O1 0.983298 0.303604 0.422320
O O2 0.810319 0.325254 0.145197
O O3 0.377931 0.250000 0.250000
O O4 0.343696 0.428737 0.371066
O O5 0.567005 0.367754 0.234959
O O6 0.331455 0.933549 0.399173
O O7 0.250000 0.500000 0.788447
#
# Coordination Sequence:
#
# PCOD9412763 Si02
#       4
#     4   8   4   8
#     4  12  26  46  74 116 148 210 260 302 398 460
#     4  12  24  50  77 109 162 204 252 325 379 464
#     4  10  24  46  82 114 150 206 260 320 382 458
#     4  10  24  48  73 113 152 196 268 313 386 456
#
# _framework density 24.661403
#
# number of rings (size 3 to 8) (size 9 to 14) (size 15 to 20)
#    1.000    0.000    5.000    1.000    2.333    1.333 
#    9.000    0.000    0.000    0.000    0.000    0.000 
#    0.000    0.000    0.000    0.000    0.000    0.000 
#
# Total GULP energy -134334.651398 kJ/mol
# GULP energy per Si atom -5597.277142 kJ/mol
# Density = 2.460527 g / cm^3
# Si number density = 24.661403 Si / 1000 Ang^3
#
#
#
# Elastic Constant Matrix: (Units=GPa)
#
#
# Indices 1 2 3 4 5 6 
#
# 1 43.9670 17.8486 22.4772 0.0000 0.0000 0.0000
# 2 17.8486 118.6448 38.9279 0.0000 0.0000 0.0000
# 3 22.4772 38.9279 154.4519 0.0000 0.0000 0.0000
# 4 0.0000 0.0000 0.0000 44.3302 0.0000 0.0000
# 5 0.0000 0.0000 0.0000 0.0000 23.9008 0.0000
# 6 0.0000 0.0000 0.0000 0.0000 0.0000 37.6470
#
#
#
# Elastic Compliance Matrix: (Units=1/GPa)
#
#
# Indices 1 2 3 4 5 6 
#
# 1 0.025425 -0.002846 -0.002983 0.000000 0.000000 0.000000
# 2 -0.002846 0.009507 -0.001982 0.000000 0.000000 0.000000
# 3 -0.002983 -0.001982 0.007408 0.000000 0.000000 0.000000
# 4 0.000000 0.000000 0.000000 0.022558 0.000000 0.000000
# 5 0.000000 0.000000 0.000000 0.000000 0.041840 0.000000
# 6 0.000000 0.000000 0.000000 0.000000 0.000000 0.026563
#
#
# Mechanical properties :
#
#
# Convention : Reuss Voigt Hill
#
# Bulk Modulus (GPa) = 37.42782 52.84126 45.13454
# Shear Modulus (GPa) = 31.68016 37.02958 34.35487
#
# Velocity S-wave (km/s) = 3.58803 3.87915 3.73642
# Velocity P-wave (km/s) = 5.68989 6.44492 6.07914
#
# Compressibility (1/GPa) = 0.02671809
#
# Stress axis : x y z
#
# Youngs Moduli (GPa) = 39.33201 105.18591 134.98746
#
# Poissons Ratio (x) = 0.29938 0.40262
# Poissons Ratio (y) = 0.11195 0.26754
# Poissons Ratio (z) = 0.11731 0.20847
#
# Static dielectric constant tensor:
#      x y z
#    x 1.908730 0.000000 0.000000 
#    y 0.000000 1.957730 0.000000 
#    z 0.000000 0.000000 2.003060 
# 
# From -- ./inp_files/7012.got.cif
#   From: 2010.05.17/outbox.cif.g08.bks.cpg/sg52_4_cif.got.tgz:7012.got - 2010.06.03 12:15:38.
