data_PCOD9412045
_publ_section_title
;
Structure prediction by ZEFSAII (Michael W. Deem and Ramdas Pophale) SiO2 
 PCOD9412045
Probable space group: P N N A
;
_chemical_formula_sum "Si O2"
_cell_formula_units_Z 48
_cell_length_a 10.244262
_cell_length_b 6.960369
_cell_length_c 29.469299
_cell_angle_alpha 90.000000
_cell_angle_beta 90.000000
_cell_angle_gamma 90.000000
_cell_volume 2101.274288
_symmetry_space_group_name_H-M "P N N A"
_symmetry_group_IT_number 52
_symmetry_cell_setting 'orthorhombic'
loop_
_space_group_symop_operation_xyz
x,y,z
1/2-x,-y,z
x,1/2-y,1/2-z
1/2-x,1/2+y,1/2-z
-x,-y,-z
1/2+x,y,-z
-x,1/2+y,1/2+z
1/2+x,1/2-y,1/2+z
loop_
_atom_site_type_symbol
_atom_site_label
_atom_site_fract_x
_atom_site_fract_y
_atom_site_fract_z
Si Si1 0.223582 0.770181 0.586784
Si Si2 0.480620 0.098028 0.652604
Si Si3 0.874664 0.139162 0.507024
Si Si4 0.606859 0.472265 0.680811
Si Si5 0.100728 0.524538 0.752295
Si Si6 0.020619 0.778274 0.097599
O O1 0.155088 0.738399 0.538442
O O2 0.365263 0.675734 0.592598
O O3 0.127632 0.762298 0.629639
O O4 0.250000 0.000000 0.584912
O O5 0.587441 0.246028 0.670600
O O6 0.420297 0.980008 0.694832
O O7 0.527279 0.940842 0.616713
O O8 0.909028 0.273335 0.549329
O O9 0.750000 0.000000 0.515656
O O10 0.000000 0.000000 0.500000
O O11 0.750000 0.500000 0.700021
O O12 0.500648 0.554404 0.716134
O O13 0.587743 0.584364 0.633764
O O14 0.250000 0.500000 0.738807
O O15 0.075554 0.750000 0.750000
#
# Coordination Sequence:
#
# PCOD9412045 Si02
#       6
#     8   8   8   8   8   8
#     4   9  18  36  66 101 127 161 226 270 321 396
#     4  10  22  43  68  96 128 169 223 268 325 397
#     4  11  19  36  64  99 132 170 222 273 323 395
#     4  11  28  45  60  99 138 167 219 276 327 399
#     4  10  23  43  69  98 130 166 218 278 321 394
#     4  11  23  40  72  92 129 184 211 274 339 381
#
# _framework density 22.84328
#
# number of rings (size 3 to 8) (size 9 to 14) (size 15 to 20)
#    0.000    1.667    5.000    1.500    9.333    0.000 
#    9.000    0.833    0.000    0.000    0.000    0.000 
#    0.000    0.000    0.000    0.000    0.000    0.000 
#
# Total GULP energy -268271.455677 kJ/mol
# GULP energy per Si atom -5588.988660 kJ/mol
# Density = 2.279129 g / cm^3
# Si number density = 22.843280 Si / 1000 Ang^3
#
#
#
# Elastic Constant Matrix: (Units=GPa)
#
#
# Indices 1 2 3 4 5 6 
#
# 1 132.8541 12.9005 46.3222 0.0000 0.0000 0.0000
# 2 12.9005 52.4708 5.6176 0.0000 0.0000 0.0000
# 3 46.3222 5.6176 123.6059 0.0000 0.0000 0.0000
# 4 0.0000 0.0000 0.0000 49.6027 0.0000 0.0000
# 5 0.0000 0.0000 0.0000 0.0000 47.5491 0.0000
# 6 0.0000 0.0000 0.0000 0.0000 0.0000 22.6276
#
#
#
# Elastic Compliance Matrix: (Units=1/GPa)
#
#
# Indices 1 2 3 4 5 6 
#
# 1 0.008829 -0.001825 -0.003226 0.000000 0.000000 0.000000
# 2 -0.001825 0.019529 -0.000203 0.000000 0.000000 0.000000
# 3 -0.003226 -0.000203 0.009308 0.000000 0.000000 0.000000
# 4 0.000000 0.000000 0.000000 0.020160 0.000000 0.000000
# 5 0.000000 0.000000 0.000000 0.000000 0.021031 0.000000
# 6 0.000000 0.000000 0.000000 0.000000 0.000000 0.044194
#
#
# Mechanical properties :
#
#
# Convention : Reuss Voigt Hill
#
# Bulk Modulus (GPa) = 36.82294 48.73458 42.77876
# Shear Modulus (GPa) = 35.05999 40.22859 37.64429
#
# Velocity S-wave (km/s) = 3.92191 4.20106 4.06388
# Velocity P-wave (km/s) = 6.05502 6.70168 6.38654
#
# Compressibility (1/GPa) = 0.02715698
#
# Stress axis : x y z
#
# Youngs Moduli (GPa) = 113.26266 51.20642 107.43026
#
# Poissons Ratio (x) = 0.09347 0.34655
# Poissons Ratio (y) = 0.20674 0.02186
# Poissons Ratio (z) = 0.36536 0.01042
#
# Static dielectric constant tensor:
#      x y z
#    x 1.840840 0.000000 0.000000 
#    y 0.000000 1.854670 0.000000 
#    z 0.000000 0.000000 1.918430 
# 
# From -- ./inp_files/44389.got.cif
#   From: 2010.05.17/outbox.cif.g08.bks.cpg/sg52_23_cif.got.tgz:44389.got - 2010.06.03 12:15:38.
