data_PCOD9412907
_publ_section_title
;
Structure prediction by ZEFSAII (Michael W. Deem and Ramdas Pophale) SiO2 
 PCOD9412907
Probable space group: P N N A
;
_chemical_formula_sum "Si O2"
_cell_formula_units_Z 24
_cell_length_a 16.918252
_cell_length_b 7.925218
_cell_length_c 7.740434
_cell_angle_alpha 90.000000
_cell_angle_beta 90.000000
_cell_angle_gamma 90.000000
_cell_volume 1037.843856
_symmetry_space_group_name_H-M "P N N A"
_symmetry_group_IT_number 52
_symmetry_cell_setting 'orthorhombic'
loop_
_space_group_symop_operation_xyz
x,y,z
1/2-x,-y,z
x,1/2-y,1/2-z
1/2-x,1/2+y,1/2-z
-x,-y,-z
1/2+x,y,-z
-x,1/2+y,1/2+z
1/2+x,1/2-y,1/2+z
loop_
_atom_site_type_symbol
_atom_site_label
_atom_site_fract_x
_atom_site_fract_y
_atom_site_fract_z
Si Si1 0.411879 0.454753 0.550770
Si Si2 0.358703 0.105587 0.557189
Si Si3 0.304121 0.767822 0.443416
O O1 0.500000 0.500000 0.500000
O O2 0.400241 0.267164 0.476050
O O3 0.394971 0.435014 0.755774
O O4 0.350034 0.598293 0.491569
O O5 0.268355 0.176796 0.565171
O O6 0.360132 0.932431 0.450930
O O7 0.272174 0.750000 0.250000
#
# Coordination Sequence:
#
# PCOD9412907 Si02
#       3
#     8   8   8
#     4  11  26  47  76 110 153 196 250 325 396 452
#     4  10  26  46  76 107 147 203 256 312 378 458
#     4  11  26  46  76 109 148 203 263 313 376 465
#
# _framework density 23.124865
#
# number of rings (size 3 to 8) (size 9 to 14) (size 15 to 20)
#    0.000    1.333    0.000    2.000   32.667    1.333 
#    6.000    0.000    0.000    0.000    0.000    0.000 
#    0.000    0.000    0.000    0.000    0.000    0.000 
#
# Total GULP energy -134115.415572 kJ/mol
# GULP energy per Si atom -5588.142315 kJ/mol
# Density = 2.307223 g / cm^3
# Si number density = 23.124865 Si / 1000 Ang^3
#
#
#
# Elastic Constant Matrix: (Units=GPa)
#
#
# Indices 1 2 3 4 5 6 
#
# 1 111.7978 35.6604 48.7346 0.0000 0.0000 0.0000
# 2 35.6604 152.5544 52.1302 0.0000 0.0000 0.0000
# 3 48.7346 52.1302 109.5765 0.0000 0.0000 0.0000
# 4 0.0000 0.0000 0.0000 3.8612 0.0000 0.0000
# 5 0.0000 0.0000 0.0000 0.0000 -36.6296 0.0000
# 6 0.0000 0.0000 0.0000 0.0000 0.0000 34.5116
#
#
#
# Elastic Compliance Matrix: (Units=1/GPa)
#
#
# Indices 1 2 3 4 5 6 
#
# 1 0.011248 -0.001098 -0.004480 0.000000 0.000000 0.000000
# 2 -0.001098 0.007935 -0.003286 0.000000 0.000000 0.000000
# 3 -0.004480 -0.003286 0.012682 0.000000 0.000000 0.000000
# 4 0.000000 0.000000 0.000000 0.258989 0.000000 0.000000
# 5 0.000000 0.000000 0.000000 0.000000 -0.027300 0.000000
# 6 0.000000 0.000000 0.000000 0.000000 0.000000 0.028976
#
#
# Mechanical properties :
#
#
# Convention : Reuss Voigt Hill
#
# Bulk Modulus (GPa) = 70.74554 71.88661 71.31608
# Shear Modulus (GPa) = 15.87449 16.17554 16.02502
#
# Velocity S-wave (km/s) = 2.62290 2.64765 2.63530
# Velocity P-wave (km/s) = 6.31126 6.36400 6.33769
#
# Compressibility (1/GPa) = 0.01413517
#
# Stress axis : x y z
#
# Youngs Moduli (GPa) = 88.90468 126.02696 78.85156
#
# Poissons Ratio (x) = 0.13843 0.35326
# Poissons Ratio (y) = 0.09765 0.25914
# Poissons Ratio (z) = 0.39830 0.41418
#
# Static dielectric constant tensor:
#      x y z
#    x 1.926540 0.000000 0.000000 
#    y 0.000000 1.898700 0.000000 
#    z 0.000000 0.000000 1.856590 
# 
# From -- ./inp_files/9298.got.cif
#   From: 2010.05.17/outbox.cif.g08.bks.cpg/sg52_5_cif.got.tgz:9298.got - 2010.06.03 12:15:38.
