data_PCOD9412286
_publ_section_title
;
Structure prediction by ZEFSAII (Michael W. Deem and Ramdas Pophale) SiO2 
 PCOD9412286
Probable space group: P N N A
;
_chemical_formula_sum "Si O2"
_cell_formula_units_Z 32
_cell_length_a 10.552638
_cell_length_b 8.680468
_cell_length_c 16.019270
_cell_angle_alpha 90.000000
_cell_angle_beta 90.000000
_cell_angle_gamma 90.000000
_cell_volume 1467.394551
_symmetry_space_group_name_H-M "P N N A"
_symmetry_group_IT_number 52
_symmetry_cell_setting 'orthorhombic'
loop_
_space_group_symop_operation_xyz
x,y,z
1/2-x,-y,z
x,1/2-y,1/2-z
1/2-x,1/2+y,1/2-z
-x,-y,-z
1/2+x,y,-z
-x,1/2+y,1/2+z
1/2+x,1/2-y,1/2+z
loop_
_atom_site_type_symbol
_atom_site_label
_atom_site_fract_x
_atom_site_fract_y
_atom_site_fract_z
Si Si1 0.610449 0.940675 0.438838
Si Si2 0.117437 0.433359 0.751989
Si Si3 0.626483 0.896278 0.006544
Si Si4 0.136415 0.614527 0.317202
O O1 0.611829 0.755040 0.437318
O O2 0.750000 0.000000 0.466344
O O3 0.500000 0.000000 0.500000
O O4 0.592061 0.008631 0.345962
O O5 0.250000 0.500000 0.723064
O O6 0.130804 0.250000 0.750000
O O7 0.997541 0.471057 0.695140
O O8 0.646923 0.830969 0.912278
O O9 0.750000 0.000000 0.026068
O O10 0.500000 0.000000 0.000000
O O11 0.250000 0.500000 0.300419
O O12 0.139519 0.750000 0.250000
#
# Coordination Sequence:
#
# PCOD9412286 Si02
#       4
#     8   8   8   8
#     4  11  23  41  67  97 129 172 221 272 326 391
#     4  10  23  41  63  95 129 167 215 268 324 389
#     4  11  25  43  65  96 134 174 218 273 333 394
#     4  10  23  41  63  92 126 163 209 263 319 384
#
# _framework density 21.807359999999999
#
# number of rings (size 3 to 8) (size 9 to 14) (size 15 to 20)
#    0.000    1.500    0.000    4.500    0.000   18.000 
#    0.000    0.000    0.000    0.000    0.000    0.000 
#    0.000    0.000    0.000    0.000    0.000    0.000 
#
# Total GULP energy -179053.921996 kJ/mol
# GULP energy per Si atom -5595.435062 kJ/mol
# Density = 2.175773 g / cm^3
# Si number density = 21.807360 Si / 1000 Ang^3
#
#
#
# Elastic Constant Matrix: (Units=GPa)
#
#
# Indices 1 2 3 4 5 6 
#
# 1 150.7834 48.6543 9.7818 0.0000 0.0000 0.0000
# 2 48.6543 151.4698 47.5580 0.0000 0.0000 0.0000
# 3 9.7818 47.5580 120.2887 0.0000 0.0000 0.0000
# 4 0.0000 0.0000 0.0000 46.1034 0.0000 0.0000
# 5 0.0000 0.0000 0.0000 0.0000 64.5412 0.0000
# 6 0.0000 0.0000 0.0000 0.0000 0.0000 36.9192
#
#
#
# Elastic Compliance Matrix: (Units=1/GPa)
#
#
# Indices 1 2 3 4 5 6 
#
# 1 0.007415 -0.002503 0.000387 0.000000 0.000000 0.000000
# 2 -0.002503 0.008383 -0.003111 0.000000 0.000000 0.000000
# 3 0.000387 -0.003111 0.009512 0.000000 0.000000 0.000000
# 4 0.000000 0.000000 0.000000 0.021690 0.000000 0.000000
# 5 0.000000 0.000000 0.000000 0.000000 0.015494 0.000000
# 6 0.000000 0.000000 0.000000 0.000000 0.000000 0.027086
#
#
# Mechanical properties :
#
#
# Convention : Reuss Voigt Hill
#
# Bulk Modulus (GPa) = 67.31789 70.50332 68.91060
# Shear Modulus (GPa) = 47.62567 50.61594 49.12081
#
# Velocity S-wave (km/s) = 4.67832 4.82295 4.75119
# Velocity P-wave (km/s) = 7.75362 7.96334 7.85918
#
# Compressibility (1/GPa) = 0.01485489
#
# Stress axis : x y z
#
# Youngs Moduli (GPa) = 134.86837 119.29351 105.13327
#
# Poissons Ratio (x) = 0.29860 -0.04065
# Poissons Ratio (y) = 0.33759 0.32704
# Poissons Ratio (z) = -0.05215 0.37108
#
# Static dielectric constant tensor:
#      x y z
#    x 1.798160 0.000000 0.000000 
#    y 0.000000 1.037420 0.000000 
#    z 0.000000 0.000000 1.828390 
# 
# From -- ./inp_files/25592.got.cif
#   From: 2010.05.17/outbox.cif.g08.bks.cpg/sg52_13_cif.got.tgz:25592.got - 2010.06.03 12:15:38.
