data_PCOD9412380
_publ_section_title
;
Structure prediction by ZEFSAII (Michael W. Deem and Ramdas Pophale) SiO2 
 PCOD9412380
Probable space group: P N N A
;
_chemical_formula_sum "Si O2"
_cell_formula_units_Z 64
_cell_length_a 27.546401
_cell_length_b 9.629936
_cell_length_c 12.290374
_cell_angle_alpha 90.000000
_cell_angle_beta 90.000000
_cell_angle_gamma 90.000000
_cell_volume 3260.268478
_symmetry_space_group_name_H-M "P N N A"
_symmetry_group_IT_number 52
_symmetry_cell_setting 'orthorhombic'
loop_
_space_group_symop_operation_xyz
x,y,z
1/2-x,-y,z
x,1/2-y,1/2-z
1/2-x,1/2+y,1/2-z
-x,-y,-z
1/2+x,y,-z
-x,1/2+y,1/2+z
1/2+x,1/2-y,1/2+z
loop_
_atom_site_type_symbol
_atom_site_label
_atom_site_fract_x
_atom_site_fract_y
_atom_site_fract_z
Si Si1 0.890501 0.058880 0.501693
Si Si2 0.415879 0.308504 0.631330
Si Si3 0.799152 0.582939 0.882490
Si Si4 0.971291 0.374276 0.825113
Si Si5 0.895039 0.932557 0.999633
Si Si6 0.798096 0.588032 0.623117
Si Si7 0.023693 0.370599 0.326447
Si Si8 0.922961 0.683683 0.132625
O O1 0.843042 0.991049 0.554137
O O2 0.906593 0.970644 0.396055
O O3 0.889029 0.215639 0.458638
O O4 0.932875 0.061917 0.592081
O O5 0.403232 0.250000 0.750000
O O6 0.403524 0.465555 0.600531
O O7 0.474783 0.303778 0.624456
O O8 0.750000 0.500000 0.908105
O O9 0.807393 0.572598 0.752326
O O10 0.793037 0.747760 0.903367
O O11 0.950418 0.250000 0.750000
O O12 0.990197 0.499233 0.749218
O O13 0.018860 0.311639 0.882666
O O14 0.845198 0.965214 0.939867
O O15 0.939503 0.931817 0.914635
O O16 0.895817 0.777481 0.045140
O O17 0.750000 0.500000 0.596815
O O18 0.046666 0.250000 0.250000
O O19 0.913282 0.750000 0.250000
#
# Coordination Sequence:
#
# PCOD9412380 Si02
#       8
#     8   8   8   8   8   8   8   8
#     4  12  22  39  63  92 121 168 213 253 311 376
#     4  11  24  40  56  88 132 174 213 256 299 352
#     4  10  23  43  67  96 126 152 189 256 324 386
#     4  11  22  37  57  92 131 165 209 259 305 371
#     4  12  22  38  65  89 120 171 211 253 308 376
#     4  10  23  43  67  97 124 151 194 253 325 383
#     4  11  22  37  59  91 131 167 205 259 311 371
#     4  11  22  38  59  85 123 168 216 258 294 354
#
# _framework density 19.630286000000002
#
# number of rings (size 3 to 8) (size 9 to 14) (size 15 to 20)
#    0.000    1.000    1.250    7.500    3.500    0.000 
#    2.250    0.000    0.000    4.500    0.000    0.000 
#    0.000    0.000    0.000    0.000    0.000    0.000 
#
# Total GULP energy -357510.841974 kJ/mol
# GULP energy per Si atom -5586.106906 kJ/mol
# Density = 1.958561 g / cm^3
# Si number density = 19.630286 Si / 1000 Ang^3
#
#
#
# Elastic Constant Matrix: (Units=GPa)
#
#
# Indices 1 2 3 4 5 6 
#
# 1 102.5972 24.1194 55.7327 0.0000 0.0000 0.0000
# 2 24.1194 87.3372 30.0092 0.0000 0.0000 0.0000
# 3 55.7327 30.0092 62.4937 0.0000 0.0000 0.0000
# 4 0.0000 0.0000 0.0000 42.7047 0.0000 0.0000
# 5 0.0000 0.0000 0.0000 0.0000 18.8049 0.0000
# 6 0.0000 0.0000 0.0000 0.0000 0.0000 26.6201
#
#
#
# Elastic Compliance Matrix: (Units=1/GPa)
#
#
# Indices 1 2 3 4 5 6 
#
# 1 0.018940 0.000686 -0.017221 0.000000 0.000000 0.000000
# 2 0.000686 0.013737 -0.007209 0.000000 0.000000 0.000000
# 3 -0.017221 -0.007209 0.034821 0.000000 0.000000 0.000000
# 4 0.000000 0.000000 0.000000 0.023417 0.000000 0.000000
# 5 0.000000 0.000000 0.000000 0.000000 0.053178 0.000000
# 6 0.000000 0.000000 0.000000 0.000000 0.000000 0.037566
#
#
# Mechanical properties :
#
#
# Convention : Reuss Voigt Hill
#
# Bulk Modulus (GPa) = 49.96937 52.46118 51.21528
# Shear Modulus (GPa) = 21.20310 27.13041 24.16676
#
# Velocity S-wave (km/s) = 3.29009 3.72165 3.51250
# Velocity P-wave (km/s) = 6.32008 6.72683 6.52662
#
# Compressibility (1/GPa) = 0.02001226
#
# Stress axis : x y z
#
# Youngs Moduli (GPa) = 52.79818 72.79486 28.71844
#
# Poissons Ratio (x) = -0.04997 0.49455
# Poissons Ratio (y) = -0.03624 0.20702
# Poissons Ratio (z) = 0.90922 0.52476
#
# Static dielectric constant tensor:
#      x y z
#    x 1.648800 0.000000 0.000000 
#    y 0.000000 1.691200 0.000000 
#    z 0.000000 0.000000 1.698650 
# 
# From -- ./inp_files/23224.got.cif
#   From: 2010.05.17/outbox.cif.g08.bks.cpg/sg52_12_cif.got.tgz:23224.got - 2010.06.03 12:15:38.
