data_PCOD9412526
_publ_section_title
;
Structure prediction by ZEFSAII (Michael W. Deem and Ramdas Pophale) SiO2 
 PCOD9412526
Probable space group: P N N A
;
_chemical_formula_sum "Si O2"
_cell_formula_units_Z 32
_cell_length_a 21.605872
_cell_length_b 9.928450
_cell_length_c 6.110198
_cell_angle_alpha 90.000000
_cell_angle_beta 90.000000
_cell_angle_gamma 90.000000
_cell_volume 1310.715803
_symmetry_space_group_name_H-M "P N N A"
_symmetry_group_IT_number 52
_symmetry_cell_setting 'orthorhombic'
loop_
_space_group_symop_operation_xyz
x,y,z
1/2-x,-y,z
x,1/2-y,1/2-z
1/2-x,1/2+y,1/2-z
-x,-y,-z
1/2+x,y,-z
-x,1/2+y,1/2+z
1/2+x,1/2-y,1/2+z
loop_
_atom_site_type_symbol
_atom_site_label
_atom_site_fract_x
_atom_site_fract_y
_atom_site_fract_z
Si Si1 0.859915 0.119425 0.116659
Si Si2 0.965025 0.082312 0.811967
Si Si3 0.168490 0.250000 0.250000
Si Si4 0.586849 0.104405 0.446936
Si Si5 0.250000 0.500000 0.336673
O O1 0.842180 0.250000 0.250000
O O2 0.881003 0.997121 0.275755
O O3 0.915725 0.165228 0.954620
O O4 0.802018 0.070698 0.980545
O O5 0.018381 0.133949 0.647562
O O6 0.924381 0.980850 0.667032
O O7 0.000000 0.000000 0.000000
O O8 0.124488 0.234821 0.466395
O O9 0.212549 0.379858 0.221008
#
# Coordination Sequence:
#
# PCOD9412526 Si02
#       5
#     8   8   4   8   4
#     4  11  26  47  74 115 155 207 259 325 394 470
#     4   9  20  49  73 115 147 200 257 325 391 463
#     4  12  28  52  80 116 154 218 260 332 394 478
#     4  10  23  48  78 110 153 199 267 324 393 465
#     4  12  30  48  80 110 160 212 276 314 392 480
#
# _framework density 24.41414
#
# number of rings (size 3 to 8) (size 9 to 14) (size 15 to 20)
#    0.000    1.500    2.500    0.000    7.000    1.000 
#   24.750    0.000    0.000    0.000    0.000    0.000 
#    0.000    0.000    0.000    0.000    0.000    0.000 
#
# Total GULP energy -178949.586734 kJ/mol
# GULP energy per Si atom -5592.174585 kJ/mol
# Density = 2.435857 g / cm^3
# Si number density = 24.414140 Si / 1000 Ang^3
#
#
#
# Elastic Constant Matrix: (Units=GPa)
#
#
# Indices 1 2 3 4 5 6 
#
# 1 136.2546 22.1185 27.4130 0.0000 0.0000 0.0000
# 2 22.1185 97.6267 14.5714 0.0000 0.0000 0.0000
# 3 27.4130 14.5714 83.3461 0.0000 0.0000 0.0000
# 4 0.0000 0.0000 0.0000 51.9120 0.0000 0.0000
# 5 0.0000 0.0000 0.0000 0.0000 11.6366 0.0000
# 6 0.0000 0.0000 0.0000 0.0000 0.0000 38.8931
#
#
#
# Elastic Compliance Matrix: (Units=1/GPa)
#
#
# Indices 1 2 3 4 5 6 
#
# 1 0.008059 -0.001469 -0.002394 0.000000 0.000000 0.000000
# 2 -0.001469 0.010785 -0.001403 0.000000 0.000000 0.000000
# 3 -0.002394 -0.001403 0.013031 0.000000 0.000000 0.000000
# 4 0.000000 0.000000 0.000000 0.019263 0.000000 0.000000
# 5 0.000000 0.000000 0.000000 0.000000 0.085935 0.000000
# 6 0.000000 0.000000 0.000000 0.000000 0.000000 0.025712
#
#
# Mechanical properties :
#
#
# Convention : Reuss Voigt Hill
#
# Bulk Modulus (GPa) = 46.84953 49.49259 48.17106
# Shear Modulus (GPa) = 27.71146 37.36331 32.53738
#
# Velocity S-wave (km/s) = 3.37272 3.91627 3.65461
# Velocity P-wave (km/s) = 5.86499 6.38480 6.13041
#
# Compressibility (1/GPa) = 0.02134493
#
# Stress axis : x y z
#
# Youngs Moduli (GPa) = 124.08105 92.71995 76.74153
#
# Poissons Ratio (x) = 0.13617 0.18372
# Poissons Ratio (y) = 0.18223 0.10763
# Poissons Ratio (z) = 0.29705 0.13004
#
# Static dielectric constant tensor:
#      x y z
#    x 1.904610 0.000000 0.000000 
#    y 0.000000 1.731680 0.000000 
#    z 0.000000 0.000000 1.895610 
# 
# From -- ./inp_files/3963.got.cif
#   From: 2010.05.17/outbox.cif.g08.bks.cpg/sg52_2_cif.got.tgz:3963.got - 2010.06.03 12:15:38.
