data_PCOD9412317
_publ_section_title
;
Structure prediction by ZEFSAII (Michael W. Deem and Ramdas Pophale) SiO2 
 PCOD9412317
Probable space group: P N N A
;
_chemical_formula_sum "Si O2"
_cell_formula_units_Z 40
_cell_length_a 29.197899
_cell_length_b 5.090960
_cell_length_c 12.999937
_cell_angle_alpha 90.000000
_cell_angle_beta 90.000000
_cell_angle_gamma 90.000000
_cell_volume 1932.380002
_symmetry_space_group_name_H-M "P N N A"
_symmetry_group_IT_number 52
_symmetry_cell_setting 'orthorhombic'
loop_
_space_group_symop_operation_xyz
x,y,z
1/2-x,-y,z
x,1/2-y,1/2-z
1/2-x,1/2+y,1/2-z
-x,-y,-z
1/2+x,y,-z
-x,1/2+y,1/2+z
1/2+x,1/2-y,1/2+z
loop_
_atom_site_type_symbol
_atom_site_label
_atom_site_fract_x
_atom_site_fract_y
_atom_site_fract_z
Si Si1 0.371125 0.637211 0.529229
Si Si2 0.464504 0.891571 0.083203
Si Si3 0.087125 0.750000 0.250000
Si Si4 0.840573 0.387658 0.915637
Si Si5 0.028293 0.750000 0.750000
Si Si6 0.750000 0.000000 0.691178
Si Si7 0.594687 0.250000 0.250000
O O1 0.421171 0.703890 0.481236
O O2 0.357842 0.345658 0.491082
O O3 0.374907 0.702250 0.648971
O O4 0.337791 0.841755 0.476316
O O5 0.495352 0.702732 0.152436
O O6 0.443722 0.089117 0.169305
O O7 0.500000 0.000000 0.000000
O O8 0.122210 0.589294 0.176871
O O9 0.790467 0.350934 0.869267
O O10 0.061152 0.500194 0.746879
O O11 0.727555 0.250000 0.750000
#
# Coordination Sequence:
#
# PCOD9412317 Si02
#       7
#     8   8   4   8   4   4   4
#     4  11  25  43  64  94 134 179 222 272 335 383
#     4  11  23  39  60  91 130 183 228 281 321 384
#     4  10  23  42  58  97 138 176 217 274 334 393
#     4  11  24  44  69  99 138 170 206 271 347 408
#     4  12  24  40  60  91 125 178 238 284 328 368
#     4  12  24  42  76 110 138 166 212 264 346 432
#     4  12  25  42  66  90 127 178 237 284 312 387
#
# _framework density 20.699864000000002
#
# number of rings (size 3 to 8) (size 9 to 14) (size 15 to 20)
#    0.000    0.800    3.000    4.200    5.600    2.400 
#    0.000    0.000    0.000    2.400    0.000    0.000 
#    0.000    0.000    0.000    0.000    0.000    0.000 
#
# Total GULP energy -223331.669438 kJ/mol
# GULP energy per Si atom -5583.291736 kJ/mol
# Density = 2.065275 g / cm^3
# Si number density = 20.699864 Si / 1000 Ang^3
#
#
#
# Elastic Constant Matrix: (Units=GPa)
#
#
# Indices 1 2 3 4 5 6 
#
# 1 64.3682 -1.9487 21.9651 0.0000 0.0000 0.0000
# 2 -1.9487 64.0823 6.6502 0.0000 0.0000 0.0000
# 3 21.9651 6.6502 134.4406 0.0000 0.0000 0.0000
# 4 0.0000 0.0000 0.0000 29.0671 0.0000 0.0000
# 5 0.0000 0.0000 0.0000 0.0000 94.7217 0.0000
# 6 0.0000 0.0000 0.0000 0.0000 0.0000 -1.2672
#
#
#
# Elastic Compliance Matrix: (Units=1/GPa)
#
#
# Indices 1 2 3 4 5 6 
#
# 1 0.016492 0.000785 -0.002733 0.000000 0.000000 0.000000
# 2 0.000785 0.015723 -0.000906 0.000000 0.000000 0.000000
# 3 -0.002733 -0.000906 0.007930 0.000000 0.000000 0.000000
# 4 0.000000 0.000000 0.000000 0.034403 0.000000 0.000000
# 5 0.000000 0.000000 0.000000 0.000000 0.010557 0.000000
# 6 0.000000 0.000000 0.000000 0.000000 0.000000 -0.789171
#
#
# Mechanical properties :
#
#
# Convention : Reuss Voigt Hill
#
# Bulk Modulus (GPa) = 29.03923 35.13604 32.08764
# Shear Modulus (GPa) = -7.27930 40.25263 16.48666
#
# Velocity S-wave (km/s) = -1.87729 4.41453 2.82523
# Velocity P-wave (km/s) = 3.05944 6.55706 5.11640
#
# Compressibility (1/GPa) = 0.03443617
#
# Stress axis : x y z
#
# Youngs Moduli (GPa) = 60.63499 63.60182 126.10941
#
# Poissons Ratio (x) = -0.04994 0.34470
# Poissons Ratio (y) = -0.04761 0.11426
# Poissons Ratio (z) = 0.16574 0.05762
#
# Static dielectric constant tensor:
#      x y z
#    x 1.742300 0.000000 0.000000 
#    y 0.000000 1.841670 0.000000 
#    z 0.000000 0.000000 1.822110 
# 
# From -- ./inp_files/22721.got.cif
#   From: 2010.05.17/outbox.cif.g08.bks.cpg/sg52_12_cif.got.tgz:22721.got - 2010.06.03 12:15:38.
