data_PCOD9412804
_publ_section_title
;
Structure prediction by ZEFSAII (Michael W. Deem and Ramdas Pophale) SiO2 
 PCOD9412804
Probable space group: P N N A
;
_chemical_formula_sum "Si O2"
_cell_formula_units_Z 60
_cell_length_a 9.688292
_cell_length_b 25.839608
_cell_length_c 11.371394
_cell_angle_alpha 90.000000
_cell_angle_beta 90.000000
_cell_angle_gamma 90.000000
_cell_volume 2846.733735
_symmetry_space_group_name_H-M "P N N A"
_symmetry_group_IT_number 52
_symmetry_cell_setting 'orthorhombic'
loop_
_space_group_symop_operation_xyz
x,y,z
1/2-x,-y,z
x,1/2-y,1/2-z
1/2-x,1/2+y,1/2-z
-x,-y,-z
1/2+x,y,-z
-x,1/2+y,1/2+z
1/2+x,1/2-y,1/2+z
loop_
_atom_site_type_symbol
_atom_site_label
_atom_site_fract_x
_atom_site_fract_y
_atom_site_fract_z
Si Si1 0.943706 0.962264 0.808351
Si Si2 0.610125 0.530453 0.079877
Si Si3 0.264263 0.167636 0.862386
Si Si4 0.526334 0.840492 0.599938
Si Si5 0.344149 0.079696 0.220447
Si Si6 0.501628 0.620190 0.503807
Si Si7 0.598781 0.250000 0.250000
Si Si8 0.280988 0.357287 0.915835
O O1 0.817884 0.927768 0.757061
O O2 0.065424 0.966050 0.715262
O O3 0.894852 0.021677 0.810513
O O4 0.980937 0.932704 0.928418
O O5 0.750000 0.500000 0.065862
O O6 0.645116 0.589194 0.051973
O O7 0.500000 0.500000 0.000000
O O8 0.142999 0.136814 0.934449
O O9 0.198881 0.224539 0.847601
O O10 0.278986 0.149742 0.725288
O O11 0.414976 0.159976 0.919603
O O12 0.583065 0.888918 0.675896
O O13 0.492532 0.794508 0.691659
O O14 0.378102 0.856243 0.547491
O O15 0.628916 0.820399 0.498903
O O16 0.387104 0.111019 0.105755
#
# Coordination Sequence:
#
# PCOD9412804 Si02
#       8
#     8   8   8   8   8   8   4   8
#     4  11  25  39  67 103 145 190 236 279 356 430
#     4  12  26  41  65 100 145 192 238 283 342 422
#     4  11  25  44  73 102 141 184 237 309 357 433
#     4  11  25  45  75  97 143 181 237 301 358 436
#     4  11  23  43  65 104 143 187 232 291 348 422
#     4  12  22  45  70 100 147 186 235 297 353 431
#     4  10  24  50  74 106 130 184 240 300 390 420
#     4  11  23  44  65 102 141 182 229 293 354 406
#
# _framework density 21.076786999999999
#
# number of rings (size 3 to 8) (size 9 to 14) (size 15 to 20)
#    0.000    0.800    5.333    2.800    5.600    2.133 
#    2.400    0.000    0.000    4.800    0.000    0.000 
#    0.000    0.000    0.000    0.000    0.000    0.000 
#
# Total GULP energy -334607.648963 kJ/mol
# GULP energy per Si atom -5576.794149 kJ/mol
# Density = 2.102881 g / cm^3
# Si number density = 21.076787 Si / 1000 Ang^3
#
#
#
# Elastic Constant Matrix: (Units=GPa)
#
#
# Indices 1 2 3 4 5 6 
#
# 1 106.0154 1.4745 50.7002 0.0000 0.0000 0.0000
# 2 1.4745 32.1998 24.3346 0.0000 0.0000 0.0000
# 3 50.7002 24.3346 118.0820 0.0000 0.0000 0.0000
# 4 0.0000 0.0000 0.0000 9.2177 0.0000 0.0000
# 5 0.0000 0.0000 0.0000 0.0000 60.8281 0.0000
# 6 0.0000 0.0000 0.0000 0.0000 0.0000 13.2342
#
#
#
# Elastic Compliance Matrix: (Units=1/GPa)
#
#
# Indices 1 2 3 4 5 6 
#
# 1 0.012303 0.004061 -0.006119 0.000000 0.000000 0.000000
# 2 0.004061 0.038126 -0.009601 0.000000 0.000000 0.000000
# 3 -0.006119 -0.009601 0.013075 0.000000 0.000000 0.000000
# 4 0.000000 0.000000 0.000000 0.108487 0.000000 0.000000
# 5 0.000000 0.000000 0.000000 0.000000 0.016440 0.000000
# 6 0.000000 0.000000 0.000000 0.000000 0.000000 0.075562
#
#
# Mechanical properties :
#
#
# Convention : Reuss Voigt Hill
#
# Bulk Modulus (GPa) = 24.88470 45.47952 35.18211
# Shear Modulus (GPa) = 16.62762 28.64184 22.63473
#
# Velocity S-wave (km/s) = 2.81180 3.69036 3.28062
# Velocity P-wave (km/s) = 4.73011 6.30740 5.57482
#
# Compressibility (1/GPa) = 0.04018534
#
# Stress axis : x y z
#
# Youngs Moduli (GPa) = 81.28415 26.22893 76.48416
#
# Poissons Ratio (x) = -0.10652 0.46802
# Poissons Ratio (y) = -0.33011 0.73431
# Poissons Ratio (z) = 0.49739 0.25182
#
# Static dielectric constant tensor:
#      x y z
#    x 1.793420 0.000000 0.000000 
#    y 0.000000 1.843140 0.000000 
#    z 0.000000 0.000000 1.862650 
# 
# From -- ./inp_files/17221.got.cif
#   From: 2010.05.17/outbox.cif.g08.bks.cpg/sg52_9_cif.got.tgz:17221.got - 2010.06.03 12:15:38.
