data_PCOD9412820
_publ_section_title
;
Structure prediction by ZEFSAII (Michael W. Deem and Ramdas Pophale) SiO2 
 PCOD9412820
Probable space group: P N N A
;
_chemical_formula_sum "Si O2"
_cell_formula_units_Z 40
_cell_length_a 17.722049
_cell_length_b 5.520908
_cell_length_c 18.091231
_cell_angle_alpha 90.000000
_cell_angle_beta 90.000000
_cell_angle_gamma 90.000000
_cell_volume 1770.078643
_symmetry_space_group_name_H-M "P N N A"
_symmetry_group_IT_number 52
_symmetry_cell_setting 'orthorhombic'
loop_
_space_group_symop_operation_xyz
x,y,z
1/2-x,-y,z
x,1/2-y,1/2-z
1/2-x,1/2+y,1/2-z
-x,-y,-z
1/2+x,y,-z
-x,1/2+y,1/2+z
1/2+x,1/2-y,1/2+z
loop_
_atom_site_type_symbol
_atom_site_label
_atom_site_fract_x
_atom_site_fract_y
_atom_site_fract_z
Si Si1 0.202194 0.248576 0.606982
Si Si2 0.451642 0.334427 0.053918
Si Si3 0.450553 0.608257 0.675001
Si Si4 0.929292 0.763633 0.668115
Si Si5 0.163205 0.042385 0.039094
O O1 0.250000 0.500000 0.606941
O O2 0.135561 0.308022 0.664558
O O3 0.166420 0.252121 0.524093
O O4 0.250000 0.000000 0.619452
O O5 0.513175 0.174286 0.095893
O O6 0.422627 0.487318 0.124186
O O7 0.385166 0.190315 0.012472
O O8 0.500000 0.500000 0.000000
O O9 0.477688 0.750000 0.750000
O O10 0.484125 0.334606 0.676902
O O11 0.897489 0.750000 0.750000
O O12 0.881134 0.597362 0.613696
O O13 0.250000 0.000000 0.056852
#
# Coordination Sequence:
#
# PCOD9412820 Si02
#       5
#     8   8   8   8   8
#     4  11  27  45  71 104 144 189 244 298 371 443
#     4  11  23  41  74 101 136 187 240 293 362 434
#     4  11  24  43  67 101 141 183 240 303 367 437
#     4  11  23  42  68 101 138 186 240 302 369 441
#     4  10  25  43  65 102 142 182 245 301 366 437
#
# _framework density 22.597864000000001
#
# number of rings (size 3 to 8) (size 9 to 14) (size 15 to 20)
#    0.000    1.200    2.000    2.400   14.000    4.000 
#    3.600    0.000    0.000    0.000    0.000    0.000 
#    0.000    0.000    0.000    0.000    0.000    0.000 
#
# Total GULP energy -222726.998485 kJ/mol
# GULP energy per Si atom -5568.174962 kJ/mol
# Density = 2.254643 g / cm^3
# Si number density = 22.597864 Si / 1000 Ang^3
#
#
#
# Elastic Constant Matrix: (Units=GPa)
#
#
# Indices 1 2 3 4 5 6 
#
# 1 136.5491 43.2087 26.0633 0.0000 0.0000 0.0000
# 2 43.2087 86.2346 -2.8209 0.0000 0.0000 0.0000
# 3 26.0633 -2.8209 85.0506 0.0000 0.0000 0.0000
# 4 0.0000 0.0000 0.0000 32.8928 0.0000 0.0000
# 5 0.0000 0.0000 0.0000 0.0000 26.9243 0.0000
# 6 0.0000 0.0000 0.0000 0.0000 0.0000 35.1449
#
#
#
# Elastic Compliance Matrix: (Units=1/GPa)
#
#
# Indices 1 2 3 4 5 6 
#
# 1 0.009433 -0.004826 -0.003051 0.000000 0.000000 0.000000
# 2 -0.004826 0.014078 0.001946 0.000000 0.000000 0.000000
# 3 -0.003051 0.001946 0.012757 0.000000 0.000000 0.000000
# 4 0.000000 0.000000 0.000000 0.030402 0.000000 0.000000
# 5 0.000000 0.000000 0.000000 0.000000 0.037141 0.000000
# 6 0.000000 0.000000 0.000000 0.000000 0.000000 0.028454
#
#
# Mechanical properties :
#
#
# Convention : Reuss Voigt Hill
#
# Bulk Modulus (GPa) = 40.97342 48.97071 44.97207
# Shear Modulus (GPa) = 32.83812 35.08462 33.96137
#
# Velocity S-wave (km/s) = 3.81616 3.94453 3.88088
# Velocity P-wave (km/s) = 6.13093 6.51639 6.32660
#
# Compressibility (1/GPa) = 0.02440606
#
# Stress axis : x y z
#
# Youngs Moduli (GPa) = 106.01266 71.03204 78.38761
#
# Poissons Ratio (x) = 0.34282 0.23914
# Poissons Ratio (y) = 0.51164 -0.15253
# Poissons Ratio (z) = 0.32341 -0.13822
#
# Static dielectric constant tensor:
#      x y z
#    x 1.906970 0.000000 0.000000 
#    y 0.000000 2.101410 0.000000 
#    z 0.000000 0.000000 1.823950 
# 
# From -- ./inp_files/33439.got.cif
#   From: 2010.05.17/outbox.cif.g08.bks.cpg/sg52_17_cif.got.tgz:33439.got - 2010.06.03 12:15:38.
