data_PCOD9412734
_publ_section_title
;
Structure prediction by ZEFSAII (Michael W. Deem and Ramdas Pophale) SiO2 
 PCOD9412734
Probable space group: P N N A
;
_chemical_formula_sum "Si O2"
_cell_formula_units_Z 24
_cell_length_a 8.915912
_cell_length_b 5.144757
_cell_length_c 21.132026
_cell_angle_alpha 90.000000
_cell_angle_beta 90.000000
_cell_angle_gamma 90.000000
_cell_volume 969.330273
_symmetry_space_group_name_H-M "P N N A"
_symmetry_group_IT_number 52
_symmetry_cell_setting 'orthorhombic'
loop_
_space_group_symop_operation_xyz
x,y,z
1/2-x,-y,z
x,1/2-y,1/2-z
1/2-x,1/2+y,1/2-z
-x,-y,-z
1/2+x,y,-z
-x,1/2+y,1/2+z
1/2+x,1/2-y,1/2+z
loop_
_atom_site_type_symbol
_atom_site_label
_atom_site_fract_x
_atom_site_fract_y
_atom_site_fract_z
Si Si1 0.585750 0.608303 0.816551
Si Si2 0.250000 0.500000 0.992392
Si Si3 0.354926 0.250000 0.750000
Si Si4 0.490598 0.802449 0.941717
O O1 0.750000 0.500000 0.832914
O O2 0.600593 0.750000 0.750000
O O3 0.463734 0.378557 0.803954
O O4 0.533348 0.819606 0.868688
O O5 0.320445 0.710945 0.946580
O O6 0.384901 0.408188 0.036190
O O7 0.250000 0.500000 0.731513
O O8 0.500000 0.000000 0.000000
#
# Coordination Sequence:
#
# PCOD9412734 Si02
#       4
#     8   4   4   8
#     4  12  27  50  86 124 170 226 292 370 451 533
#     4  10  24  46  70 106 152 212 272 336 416 514
#     4  12  28  54  80 134 178 230 290 370 440 530
#     4  11  25  48  77 113 161 218 283 349 433 514
#
# _framework density 24.759363
#
# number of rings (size 3 to 8) (size 9 to 14) (size 15 to 20)
#    0.000    0.667    5.000    1.000    2.333    8.000 
#    6.000    0.000    0.000    0.000    0.000    0.000 
#    0.000    0.000    0.000    0.000    0.000    0.000 
#
# Total GULP energy -133863.480113 kJ/mol
# GULP energy per Si atom -5577.645005 kJ/mol
# Density = 2.470301 g / cm^3
# Si number density = 24.759363 Si / 1000 Ang^3
#
#
#
# Elastic Constant Matrix: (Units=GPa)
#
#
# Indices 1 2 3 4 5 6 
#
# 1 126.0897 43.4698 29.3739 0.0000 0.0000 0.0000
# 2 43.4698 116.7331 43.3139 0.0000 0.0000 0.0000
# 3 29.3739 43.3139 183.2134 0.0000 0.0000 0.0000
# 4 0.0000 0.0000 0.0000 17.6669 0.0000 0.0000
# 5 0.0000 0.0000 0.0000 0.0000 10.3744 0.0000
# 6 0.0000 0.0000 0.0000 0.0000 0.0000 30.9264
#
#
#
# Elastic Compliance Matrix: (Units=1/GPa)
#
#
# Indices 1 2 3 4 5 6 
#
# 1 0.009187 -0.003151 -0.000728 0.000000 0.000000 0.000000
# 2 -0.003151 0.010471 -0.001970 0.000000 0.000000 0.000000
# 3 -0.000728 -0.001970 0.006041 0.000000 0.000000 0.000000
# 4 0.000000 0.000000 0.000000 0.056603 0.000000 0.000000
# 5 0.000000 0.000000 0.000000 0.000000 0.096391 0.000000
# 6 0.000000 0.000000 0.000000 0.000000 0.000000 0.032335
#
#
# Mechanical properties :
#
#
# Convention : Reuss Voigt Hill
#
# Bulk Modulus (GPa) = 71.42847 73.15017 72.28932
# Shear Modulus (GPa) = 21.98841 32.45211 27.22026
#
# Velocity S-wave (km/s) = 2.98331 3.62429 3.31931
# Velocity P-wave (km/s) = 6.38581 6.86459 6.62952
#
# Compressibility (1/GPa) = 0.01400002
#
# Stress axis : x y z
#
# Youngs Moduli (GPa) = 108.85267 95.50202 165.54563
#
# Poissons Ratio (x) = 0.30092 0.12051
# Poissons Ratio (y) = 0.34298 0.32617
# Poissons Ratio (z) = 0.07924 0.18817
#
# Static dielectric constant tensor:
#      x y z
#    x 1.941530 0.000000 0.000000 
#    y 0.000000 2.076830 0.000000 
#    z 0.000000 0.000000 2.113410 
# 
# From -- ./inp_files/39047.got.cif
#   From: 2010.05.17/outbox.cif.g08.bks.cpg/sg52_20_cif.got.tgz:39047.got - 2010.06.03 12:15:38.
