data_PCOD9412196
_publ_section_title
;
Structure prediction by ZEFSAII (Michael W. Deem and Ramdas Pophale) SiO2 
 PCOD9412196
Probable space group: P N N A
;
_chemical_formula_sum "Si O2"
_cell_formula_units_Z 32
_cell_length_a 16.902230
_cell_length_b 14.565170
_cell_length_c 6.071065
_cell_angle_alpha 90.000000
_cell_angle_beta 90.000000
_cell_angle_gamma 90.000000
_cell_volume 1494.598176
_symmetry_space_group_name_H-M "P N N A"
_symmetry_group_IT_number 52
_symmetry_cell_setting 'orthorhombic'
loop_
_space_group_symop_operation_xyz
x,y,z
1/2-x,-y,z
x,1/2-y,1/2-z
1/2-x,1/2+y,1/2-z
-x,-y,-z
1/2+x,y,-z
-x,1/2+y,1/2+z
1/2+x,1/2-y,1/2+z
loop_
_atom_site_type_symbol
_atom_site_label
_atom_site_fract_x
_atom_site_fract_y
_atom_site_fract_z
Si Si1 0.449338 0.541353 0.188870
Si Si2 0.202338 0.345402 0.126569
Si Si3 0.302594 0.250000 0.750000
Si Si4 0.102294 0.909219 0.952072
Si Si5 0.750000 0.000000 0.975908
O O1 0.382903 0.608336 0.095301
O O2 0.410927 0.453313 0.309015
O O3 0.515101 0.587833 0.346295
O O4 0.500000 0.500000 0.000000
O O5 0.190954 0.250000 0.250000
O O6 0.240898 0.413757 0.309151
O O7 0.250445 0.318055 0.905296
O O8 0.358584 0.188739 0.907076
O O9 0.171989 0.981164 0.876669
#
# Coordination Sequence:
#
# PCOD9412196 Si02
#       5
#     8   8   4   8   4
#     4  10  25  46  70  97 141 190 231 287 362 421
#     4  11  25  45  66 103 137 185 232 292 349 429
#     4  12  26  40  74 108 140 180 238 294 352 416
#     4  10  24  43  68 101 137 179 231 288 346 421
#     4  10  22  46  72  94 144 176 240 284 346 422
#
# _framework density 21.410437000000002
#
# number of rings (size 3 to 8) (size 9 to 14) (size 15 to 20)
#    0.000    1.500    2.500    0.000   12.250    2.000 
#    0.000    0.000    0.000    0.000    0.000    0.000 
#    0.000    0.000    0.000    0.000    0.000    0.000 
#
# Total GULP energy -178263.500596 kJ/mol
# GULP energy per Si atom -5570.734394 kJ/mol
# Density = 2.136171 g / cm^3
# Si number density = 21.410437 Si / 1000 Ang^3
#
#
#
# Elastic Constant Matrix: (Units=GPa)
#
#
# Indices 1 2 3 4 5 6 
#
# 1 144.2016 64.2314 30.0755 0.0000 0.0000 0.0000
# 2 64.2314 152.7833 52.8535 0.0000 0.0000 0.0000
# 3 30.0755 52.8535 41.8994 0.0000 0.0000 0.0000
# 4 0.0000 0.0000 0.0000 33.5923 0.0000 0.0000
# 5 0.0000 0.0000 0.0000 0.0000 8.6199 0.0000
# 6 0.0000 0.0000 0.0000 0.0000 0.0000 55.8926
#
#
#
# Elastic Compliance Matrix: (Units=1/GPa)
#
#
# Indices 1 2 3 4 5 6 
#
# 1 0.008727 -0.002665 -0.002903 0.000000 0.000000 0.000000
# 2 -0.002665 0.012426 -0.013762 0.000000 0.000000 0.000000
# 3 -0.002903 -0.013762 0.043311 0.000000 0.000000 0.000000
# 4 0.000000 0.000000 0.000000 0.029769 0.000000 0.000000
# 5 0.000000 0.000000 0.000000 0.000000 0.116010 0.000000
# 6 0.000000 0.000000 0.000000 0.000000 0.000000 0.017891
#
#
# Mechanical properties :
#
#
# Convention : Reuss Voigt Hill
#
# Bulk Modulus (GPa) = 38.75336 70.35613 54.55474
# Shear Modulus (GPa) = 18.15565 32.40256 25.27910
#
# Velocity S-wave (km/s) = 2.91517 3.89446 3.43985
# Velocity P-wave (km/s) = 5.42867 7.29071 6.42748
#
# Compressibility (1/GPa) = 0.02580422
#
# Stress axis : x y z
#
# Youngs Moduli (GPa) = 114.58509 80.47362 23.08885
#
# Poissons Ratio (x) = 0.21444 0.06703
# Poissons Ratio (y) = 0.30534 0.31776
# Poissons Ratio (z) = 0.33264 1.10751
#
# Static dielectric constant tensor:
#      x y z
#    x 2.137140 0.000000 0.000000 
#    y 0.000000 1.759390 0.000000 
#    z 0.000000 0.000000 1.768830 
# 
# From -- ./inp_files/3005.got.cif
#   From: 2010.05.17/outbox.cif.g08.bks.cpg/sg52_2_cif.got.tgz:3005.got - 2010.06.03 12:15:38.
