data_PCOD9412806
_publ_section_title
;
Structure prediction by ZEFSAII (Michael W. Deem and Ramdas Pophale) SiO2 
 PCOD9412806
Probable space group: P N N A
;
_chemical_formula_sum "Si O2"
_cell_formula_units_Z 40
_cell_length_a 25.068534
_cell_length_b 5.488073
_cell_length_c 12.741395
_cell_angle_alpha 90.000000
_cell_angle_beta 90.000000
_cell_angle_gamma 90.000000
_cell_volume 1752.934935
_symmetry_space_group_name_H-M "P N N A"
_symmetry_group_IT_number 52
_symmetry_cell_setting 'orthorhombic'
loop_
_space_group_symop_operation_xyz
x,y,z
1/2-x,-y,z
x,1/2-y,1/2-z
1/2-x,1/2+y,1/2-z
-x,-y,-z
1/2+x,y,-z
-x,1/2+y,1/2+z
1/2+x,1/2-y,1/2+z
loop_
_atom_site_type_symbol
_atom_site_label
_atom_site_fract_x
_atom_site_fract_y
_atom_site_fract_z
Si Si1 0.148147 0.155727 0.561174
Si Si2 0.284405 0.753909 0.133299
Si Si3 0.577320 0.956422 0.175660
Si Si4 0.482138 0.250000 0.250000
Si Si5 0.948486 0.166219 0.520839
Si Si6 0.250000 0.500000 0.815444
O O1 0.174250 0.283444 0.460712
O O2 0.119725 0.338440 0.642595
O O3 0.103489 0.981970 0.513314
O O4 0.196669 0.014236 0.615171
O O5 0.250000 0.500000 0.121378
O O6 0.309297 0.750000 0.250000
O O7 0.250000 0.000000 0.130518
O O8 0.602833 0.750000 0.250000
O O9 0.525520 0.033734 0.242808
O O10 0.552889 0.882456 0.063180
O O11 0.449419 0.238613 0.357265
O O12 0.000000 0.000000 0.500000
O O13 0.248966 0.750000 0.750000
#
# Coordination Sequence:
#
# PCOD9412806 Si02
#       6
#     8   8   8   4   8   4
#     4  12  29  49  77 118 155 208 268 336 398 490
#     4  10  24  50  79 108 153 203 257 326 399 474
#     4  12  26  46  80 110 162 206 266 331 401 481
#     4  12  26  50  74 114 156 202 264 324 400 484
#     4  12  27  48  76 113 155 209 264 333 407 478
#     4  12  34  52  82 116 164 218 274 328 408 482
#
# _framework density 22.818874000000001
#
# number of rings (size 3 to 8) (size 9 to 14) (size 15 to 20)
#    0.000    0.400    5.000    0.600   11.200    1.600 
#    1.800    0.000    0.000    0.000    0.000    0.000 
#    0.000    0.000    0.000    0.000    0.000    0.000 
#
# Total GULP energy -223784.639450 kJ/mol
# GULP energy per Si atom -5594.615986 kJ/mol
# Density = 2.276694 g / cm^3
# Si number density = 22.818874 Si / 1000 Ang^3
#
#
#
# Elastic Constant Matrix: (Units=GPa)
#
#
# Indices 1 2 3 4 5 6 
#
# 1 127.1597 27.8968 59.5793 0.0000 0.0000 0.0000
# 2 27.8968 79.1133 28.2788 0.0000 0.0000 0.0000
# 3 59.5793 28.2788 181.9375 0.0000 0.0000 0.0000
# 4 0.0000 0.0000 0.0000 -0.0165 0.0000 0.0000
# 5 0.0000 0.0000 0.0000 0.0000 139.8901 0.0000
# 6 0.0000 0.0000 0.0000 0.0000 0.0000 21.6978
#
#
#
# Elastic Compliance Matrix: (Units=1/GPa)
#
#
# Indices 1 2 3 4 5 6 
#
# 1 0.009709 -0.002422 -0.002803 0.000000 0.000000 0.000000
# 2 -0.002422 0.013988 -0.001381 0.000000 0.000000 0.000000
# 3 -0.002803 -0.001381 0.006629 0.000000 0.000000 0.000000
# 4 0.000000 0.000000 0.000000-60.465453 0.000000 0.000000
# 5 0.000000 0.000000 0.000000 0.000000 0.007148 0.000000
# 6 0.000000 0.000000 0.000000 0.000000 0.000000 0.046088
#
#
# Mechanical properties :
#
#
# Convention : Reuss Voigt Hill
#
# Bulk Modulus (GPa) = 58.43154 68.85782 63.64468
# Shear Modulus (GPa) = -0.08283 50.47797 25.19757
#
# Velocity S-wave (km/s) = -0.19073 4.70841 3.32662
# Velocity P-wave (km/s) = 5.06100 7.73306 6.53506
#
# Compressibility (1/GPa) = 0.01711405
#
# Stress axis : x y z
#
# Youngs Moduli (GPa) = 103.00090 71.49154 150.85371
#
# Poissons Ratio (x) = 0.17312 0.42283
# Poissons Ratio (y) = 0.24942 0.20835
# Poissons Ratio (z) = 0.28870 0.09874
#
# Static dielectric constant tensor:
#      x y z
#    x 2.030700 0.000000 0.000000 
#    y 0.000000 1.681780 0.000000 
#    z 0.000000 0.000000 1.865330 
# 
# From -- ./inp_files/22658.got.cif
#   From: 2010.05.17/outbox.cif.g08.bks.cpg/sg52_12_cif.got.tgz:22658.got - 2010.06.03 12:15:38.
