data_PCOD9412739
_publ_section_title
;
Structure prediction by ZEFSAII (Michael W. Deem and Ramdas Pophale) SiO2 
 PCOD9412739
Probable space group: P N N A
;
_chemical_formula_sum "Si O2"
_cell_formula_units_Z 36
_cell_length_a 13.518371
_cell_length_b 6.166191
_cell_length_c 21.233009
_cell_angle_alpha 90.000000
_cell_angle_beta 90.000000
_cell_angle_gamma 90.000000
_cell_volume 1769.916908
_symmetry_space_group_name_H-M "P N N A"
_symmetry_group_IT_number 52
_symmetry_cell_setting 'orthorhombic'
loop_
_space_group_symop_operation_xyz
x,y,z
1/2-x,-y,z
x,1/2-y,1/2-z
1/2-x,1/2+y,1/2-z
-x,-y,-z
1/2+x,y,-z
-x,1/2+y,1/2+z
1/2+x,1/2-y,1/2+z
loop_
_atom_site_type_symbol
_atom_site_label
_atom_site_fract_x
_atom_site_fract_y
_atom_site_fract_z
Si Si1 0.159504 0.670720 0.321993
Si Si2 0.035505 0.014293 0.891480
Si Si3 0.069319 0.299477 0.013015
Si Si4 0.863653 0.002440 0.231186
Si Si5 0.750000 0.500000 0.919396
O O1 0.250000 0.500000 0.326086
O O2 0.155121 0.750000 0.250000
O O3 0.054181 0.583937 0.345196
O O4 0.184846 0.855870 0.372471
O O5 0.125103 0.982667 0.843975
O O6 0.986432 0.821158 0.930382
O O7 0.069012 0.170658 0.947703
O O8 0.177815 0.359747 0.037115
O O9 0.000000 0.500000 0.000000
O O10 0.899641 0.750000 0.250000
O O11 0.750000 0.000000 0.253329
O O12 0.904899 0.250000 0.250000
#
# Coordination Sequence:
#
# PCOD9412739 Si02
#       5
#     8   8   8   8   4
#     4  12  24  41  67 100 134 177 224 285 354 415
#     4  11  25  43  68 100 135 177 238 282 353 422
#     4  11  25  42  66  96 132 181 228 287 346 423
#     4  10  24  46  72 104 141 180 232 294 354 419
#     4  12  24  44  66  94 144 174 232 290 348 428
#
# _framework density 20.339939000000001
#
# number of rings (size 3 to 8) (size 9 to 14) (size 15 to 20)
#    0.000    0.889    5.556    0.667    3.111    4.444 
#    2.000    0.000    0.000    0.000    0.000    0.000 
#    0.000    0.000    0.000    0.000    0.000    0.000 
#
# Total GULP energy -200436.534921 kJ/mol
# GULP energy per Si atom -5567.681526 kJ/mol
# Density = 2.029364 g / cm^3
# Si number density = 20.339939 Si / 1000 Ang^3
#
#
#
# Elastic Constant Matrix: (Units=GPa)
#
#
# Indices 1 2 3 4 5 6 
#
# 1 46.7958 20.1406 43.9981 0.0000 0.0000 0.0000
# 2 20.1406 108.2235 53.1345 0.0000 0.0000 0.0000
# 3 43.9981 53.1345 99.9831 0.0000 0.0000 0.0000
# 4 0.0000 0.0000 0.0000 -719.4198 0.0000 0.0000
# 5 0.0000 0.0000 0.0000 0.0000 86.6617 0.0000
# 6 0.0000 0.0000 0.0000 0.0000 0.0000 25.4316
#
#
#
# Elastic Compliance Matrix: (Units=1/GPa)
#
#
# Indices 1 2 3 4 5 6 
#
# 1 0.036626 0.001484 -0.016906 0.000000 0.000000 0.000000
# 2 0.001484 0.012562 -0.007329 0.000000 0.000000 0.000000
# 3 -0.016906 -0.007329 0.021336 0.000000 0.000000 0.000000
# 4 0.000000 0.000000 0.000000 -0.001390 0.000000 0.000000
# 5 0.000000 0.000000 0.000000 0.000000 0.011539 0.000000
# 6 0.000000 0.000000 0.000000 0.000000 0.000000 0.039321
#
#
# Mechanical properties :
#
#
# Convention : Reuss Voigt Hill
#
# Bulk Modulus (GPa) = 39.96419 54.39432 47.17925
# Shear Modulus (GPa) = 28.76226 -112.28335 -41.76055
#
# Velocity S-wave (km/s) = 3.76450 -7.43796 -4.53606
# Velocity P-wave (km/s) = 6.21177 6.85300 2.04665
#
# Compressibility (1/GPa) = 0.02502240
#
# Stress axis : x y z
#
# Youngs Moduli (GPa) = 27.30277 79.60303 46.86807
#
# Poissons Ratio (x) = -0.11816 0.79237
# Poissons Ratio (y) = -0.04053 0.34351
# Poissons Ratio (z) = 0.46159 0.58343
#
# Static dielectric constant tensor:
#      x y z
#    x 1.698010 0.000000 0.000000 
#    y 0.000000 1.804140 0.000000 
#    z 0.000000 0.000000 1.541420 
# 
# From -- ./inp_files/37038.got.cif
#   From: 2010.05.17/outbox.cif.g08.bks.cpg/sg52_19_cif.got.tgz:37038.got - 2010.06.03 12:15:38.
