data_PCOD9412150
_publ_section_title
;
Structure prediction by ZEFSAII (Michael W. Deem and Ramdas Pophale) SiO2 
 PCOD9412150
Probable space group: P N N A
;
_chemical_formula_sum "Si O2"
_cell_formula_units_Z 40
_cell_length_a 19.901534
_cell_length_b 7.517038
_cell_length_c 12.074898
_cell_angle_alpha 90.000000
_cell_angle_beta 90.000000
_cell_angle_gamma 90.000000
_cell_volume 1806.411833
_symmetry_space_group_name_H-M "P N N A"
_symmetry_group_IT_number 52
_symmetry_cell_setting 'orthorhombic'
loop_
_space_group_symop_operation_xyz
x,y,z
1/2-x,-y,z
x,1/2-y,1/2-z
1/2-x,1/2+y,1/2-z
-x,-y,-z
1/2+x,y,-z
-x,1/2+y,1/2+z
1/2+x,1/2-y,1/2+z
loop_
_atom_site_type_symbol
_atom_site_label
_atom_site_fract_x
_atom_site_fract_y
_atom_site_fract_z
Si Si1 0.363162 0.802171 0.378039
Si Si2 0.235378 0.805507 0.975881
Si Si3 0.871730 0.750000 0.250000
Si Si4 0.750000 0.000000 0.298399
Si Si5 0.028490 0.195461 0.539500
Si Si6 0.386573 0.276837 0.120209
O O1 0.358003 0.750000 0.250000
O O2 0.297034 0.750594 0.445717
O O3 0.430034 0.725995 0.436547
O O4 0.371869 0.013404 0.394175
O O5 0.170097 0.820178 0.051248
O O6 0.250000 0.000000 0.931622
O O7 0.226894 0.662287 0.879111
O O8 0.819663 0.917273 0.248095
O O9 0.919470 0.789415 0.356618
O O10 0.959455 0.282272 0.578710
O O11 0.000000 0.000000 0.500000
O O12 0.380941 0.250000 0.250000
#
# Coordination Sequence:
#
# PCOD9412150 Si02
#       6
#     8   8   4   4   8   8
#     4  11  22  42  69 106 150 194 258 330 395 475
#     4  12  24  45  72 108 148 198 259 325 398 470
#     4  12  24  48  80 114 160 210 270 332 408 492
#     4  12  26  46  76 112 152 196 258 322 392 480
#     4  10  22  44  74 104 156 210 261 329 401 480
#     4  11  21  40  69 103 143 202 258 317 393 477
#
# _framework density 22.143345
#
# number of rings (size 3 to 8) (size 9 to 14) (size 15 to 20)
#    0.000    0.800    5.000    3.000    1.400    0.000 
#    0.000    8.000   11.000    0.000    0.000    0.000 
#    0.000    0.000    0.000    0.000    0.000    0.000 
#
# Total GULP energy -223355.308488 kJ/mol
# GULP energy per Si atom -5583.882712 kJ/mol
# Density = 2.209295 g / cm^3
# Si number density = 22.143345 Si / 1000 Ang^3
#
#
#
# Elastic Constant Matrix: (Units=GPa)
#
#
# Indices 1 2 3 4 5 6 
#
# 1 205.3110 49.9692 68.8185 0.0000 0.0000 0.0000
# 2 49.9692 108.5605 25.9374 0.0000 0.0000 0.0000
# 3 68.8185 25.9374 83.4968 0.0000 0.0000 0.0000
# 4 0.0000 0.0000 0.0000 41.8250 0.0000 0.0000
# 5 0.0000 0.0000 0.0000 0.0000 62.9264 0.0000
# 6 0.0000 0.0000 0.0000 0.0000 0.0000 -10.6757
#
#
#
# Elastic Compliance Matrix: (Units=1/GPa)
#
#
# Indices 1 2 3 4 5 6 
#
# 1 0.007120 -0.002025 -0.005239 0.000000 0.000000 0.000000
# 2 -0.002025 0.010526 -0.001600 0.000000 0.000000 0.000000
# 3 -0.005239 -0.001600 0.016792 0.000000 0.000000 0.000000
# 4 0.000000 0.000000 0.000000 0.023909 0.000000 0.000000
# 5 0.000000 0.000000 0.000000 0.000000 0.015892 0.000000
# 6 0.000000 0.000000 0.000000 0.000000 0.000000 -0.093670
#
#
# Mechanical properties :
#
#
# Convention : Reuss Voigt Hill
#
# Bulk Modulus (GPa) = 59.85219 76.31318 68.08269
# Shear Modulus (GPa) = 1293.20138 35.65803 664.42970
#
# Velocity S-wave (km/s) = 24.19259 4.01724 17.34099
# Velocity P-wave (km/s) = 28.41590 7.48704 20.77882
#
# Compressibility (1/GPa) = 0.01670783
#
# Stress axis : x y z
#
# Youngs Moduli (GPa) = 140.45669 95.00183 59.55372
#
# Poissons Ratio (x) = 0.19242 0.31199
# Poissons Ratio (y) = 0.28448 0.09531
# Poissons Ratio (z) = 0.73583 0.15205
#
# Static dielectric constant tensor:
#      x y z
#    x 1.797370 0.000000 0.000000 
#    y 0.000000 0.473970 0.000000 
#    z 0.000000 0.000000 3.427440 
# 
# From -- ./inp_files/20401.got.cif
#   From: 2010.05.17/outbox.cif.g08.bks.cpg/sg52_11_cif.got.tgz:20401.got - 2010.06.03 12:15:38.
