data_PCOD9412031
_publ_section_title
;
Structure prediction by ZEFSAII (Michael W. Deem and Ramdas Pophale) SiO2 
 PCOD9412031
Probable space group: P N N A
;
_chemical_formula_sum "Si O2"
_cell_formula_units_Z 48
_cell_length_a 28.864539
_cell_length_b 8.550109
_cell_length_c 10.191812
_cell_angle_alpha 90.000000
_cell_angle_beta 90.000000
_cell_angle_gamma 90.000000
_cell_volume 2515.287781
_symmetry_space_group_name_H-M "P N N A"
_symmetry_group_IT_number 52
_symmetry_cell_setting 'orthorhombic'
loop_
_space_group_symop_operation_xyz
x,y,z
1/2-x,-y,z
x,1/2-y,1/2-z
1/2-x,1/2+y,1/2-z
-x,-y,-z
1/2+x,y,-z
-x,1/2+y,1/2+z
1/2+x,1/2-y,1/2+z
loop_
_atom_site_type_symbol
_atom_site_label
_atom_site_fract_x
_atom_site_fract_y
_atom_site_fract_z
Si Si1 0.551403 0.438423 0.003491
Si Si2 0.296349 0.896054 0.346064
Si Si3 0.890265 0.064885 0.736340
Si Si4 0.296095 0.602139 0.845722
Si Si5 0.052983 0.438140 0.485226
Si Si6 0.108106 0.059961 0.755784
O O1 0.580999 0.519515 0.891659
O O2 0.551991 0.250860 0.985805
O O3 0.500000 0.500000 0.000000
O O4 0.573364 0.484960 0.141526
O O5 0.288709 0.750000 0.250000
O O6 0.306455 0.855383 0.500632
O O7 0.250000 0.000000 0.346151
O O8 0.340127 0.986973 0.284574
O O9 0.885370 0.250000 0.750000
O O10 0.920510 0.998322 0.856774
O O11 0.250000 0.500000 0.845202
O O12 0.288891 0.750000 0.750000
O O13 0.340147 0.510784 0.784060
O O14 0.085565 0.487674 0.607435
O O15 0.000000 0.500000 0.500000
O O16 0.110363 0.250000 0.750000
#
# Coordination Sequence:
#
# PCOD9412031 Si02
#       6
#     8   8   8   8   8   8
#     4  11  21  39  66  91 128 168 213 270 326 386
#     4  11  24  44  69  98 132 168 214 269 330 394
#     4  12  25  42  62  94 131 175 221 269 321 385
#     4  10  22  43  66  96 128 165 210 257 320 386
#     4  11  23  41  64  96 129 170 217 266 330 390
#     4   9  20  39  62  89 122 165 205 258 320 380
#
# _framework density 19.083303999999998
#
# number of rings (size 3 to 8) (size 9 to 14) (size 15 to 20)
#    0.000    1.333    1.667    4.000    4.667    2.000 
#    6.000    2.500    0.000    0.000    0.000    0.000 
#    0.000    0.000    0.000    0.000    0.000    0.000 
#
# Total GULP energy -268052.917406 kJ/mol
# GULP energy per Si atom -5584.435779 kJ/mol
# Density = 1.903987 g / cm^3
# Si number density = 19.083304 Si / 1000 Ang^3
#
#
#
# Elastic Constant Matrix: (Units=GPa)
#
#
# Indices 1 2 3 4 5 6 
#
# 1 128.7729 19.2442 22.3575 0.0000 0.0000 0.0000
# 2 19.2442 75.1074 27.6191 0.0000 0.0000 0.0000
# 3 22.3575 27.6191 97.0554 0.0000 0.0000 0.0000
# 4 0.0000 0.0000 0.0000 17.7166 0.0000 0.0000
# 5 0.0000 0.0000 0.0000 0.0000 40.7994 0.0000
# 6 0.0000 0.0000 0.0000 0.0000 0.0000 35.6306
#
#
#
# Elastic Compliance Matrix: (Units=1/GPa)
#
#
# Indices 1 2 3 4 5 6 
#
# 1 0.008254 -0.001581 -0.001451 0.000000 0.000000 0.000000
# 2 -0.001581 0.015173 -0.003954 0.000000 0.000000 0.000000
# 3 -0.001451 -0.003954 0.011763 0.000000 0.000000 0.000000
# 4 0.000000 0.000000 0.000000 0.056444 0.000000 0.000000
# 5 0.000000 0.000000 0.000000 0.000000 0.024510 0.000000
# 6 0.000000 0.000000 0.000000 0.000000 0.000000 0.028066
#
#
# Mechanical properties :
#
#
# Convention : Reuss Voigt Hill
#
# Bulk Modulus (GPa) = 47.13058 48.81971 47.97515
# Shear Modulus (GPa) = 30.25628 34.27698 32.26663
#
# Velocity S-wave (km/s) = 3.98613 4.24273 4.11643
# Velocity P-wave (km/s) = 6.77765 7.04549 6.91287
#
# Compressibility (1/GPa) = 0.02121765
#
# Stress axis : x y z
#
# Youngs Moduli (GPa) = 121.15503 65.90543 85.01361
#
# Poissons Ratio (x) = 0.10420 0.12339
# Poissons Ratio (y) = 0.19156 0.33611
# Poissons Ratio (z) = 0.17585 0.26057
#
# Static dielectric constant tensor:
#      x y z
#    x 1.658860 0.000000 0.000000 
#    y 0.000000 1.659450 0.000000 
#    z 0.000000 0.000000 1.679900 
# 
# From -- ./inp_files/15537.got.cif
#   From: 2010.05.17/outbox.cif.g08.bks.cpg/sg52_8_cif.got.tgz:15537.got - 2010.06.03 12:15:38.
