data_PCOD9412210
_publ_section_title
;
Structure prediction by ZEFSAII (Michael W. Deem and Ramdas Pophale) SiO2 
 PCOD9412210
Probable space group: P N N A
;
_chemical_formula_sum "Si O2"
_cell_formula_units_Z 56
_cell_length_a 10.273429
_cell_length_b 20.095143
_cell_length_c 12.767647
_cell_angle_alpha 90.000000
_cell_angle_beta 90.000000
_cell_angle_gamma 90.000000
_cell_volume 2635.829970
_symmetry_space_group_name_H-M "P N N A"
_symmetry_group_IT_number 52
_symmetry_cell_setting 'orthorhombic'
loop_
_space_group_symop_operation_xyz
x,y,z
1/2-x,-y,z
x,1/2-y,1/2-z
1/2-x,1/2+y,1/2-z
-x,-y,-z
1/2+x,y,-z
-x,1/2+y,1/2+z
1/2+x,1/2-y,1/2+z
loop_
_atom_site_type_symbol
_atom_site_label
_atom_site_fract_x
_atom_site_fract_y
_atom_site_fract_z
Si Si1 0.672121 0.113314 0.883537
Si Si2 0.383823 0.804748 0.924043
Si Si3 0.548923 0.598066 0.710356
Si Si4 0.149461 0.629717 0.892163
Si Si5 0.750000 0.500000 0.467169
Si Si6 0.564058 0.949930 0.205625
Si Si7 0.191323 0.750000 0.750000
Si Si8 0.049956 0.154748 0.570158
O O1 0.798791 0.107133 0.811858
O O2 0.541860 0.106986 0.816855
O O3 0.675452 0.174379 0.964379
O O4 0.670336 0.048308 0.958140
O O5 0.476421 0.863672 0.883980
O O6 0.280135 0.792495 0.830966
O O7 0.457371 0.734825 0.935361
O O8 0.506031 0.521286 0.714355
O O9 0.502857 0.631770 0.817468
O O10 0.140114 0.569430 0.810298
O O11 0.122777 0.697049 0.824979
O O12 0.296592 0.636537 0.935905
O O13 0.041055 0.623961 0.981148
O O14 0.661148 0.544327 0.391996
#
# Coordination Sequence:
#
# PCOD9412210 Si02
#       8
#     8   8   8   8   4   8   4   8
#     4  12  25  38  70 111 142 181 233 303 364 427
#     4  11  22  45  69 102 141 189 237 289 365 432
#     4  12  23  45  70 101 145 187 232 300 358 424
#     4  11  26  47  71 102 138 192 239 296 352 433
#     4  12  20  42  66 102 146 178 226 286 372 420
#     4  12  25  43  69 105 143 182 240 293 364 433
#     4  10  22  48  66 102 142 182 236 288 362 430
#     4  11  27  48  71 102 141 194 247 286 359 424
#
# _framework density 21.245678999999999
#
# number of rings (size 3 to 8) (size 9 to 14) (size 15 to 20)
#    0.000    0.571    5.714    3.000    8.000    0.571 
#    0.000    0.000    0.000    0.000    0.000    0.000 
#    0.000    0.000    0.000    0.000    0.000    0.000 
#
# Total GULP energy -313288.654060 kJ/mol
# GULP energy per Si atom -5594.440251 kJ/mol
# Density = 2.119732 g / cm^3
# Si number density = 21.245679 Si / 1000 Ang^3
#
#
#
# Elastic Constant Matrix: (Units=GPa)
#
#
# Indices 1 2 3 4 5 6 
#
# 1 108.7374 24.1930 49.8024 0.0000 0.0000 0.0000
# 2 24.1930 62.9487 34.3100 0.0000 0.0000 0.0000
# 3 49.8024 34.3100 63.0364 0.0000 0.0000 0.0000
# 4 0.0000 0.0000 0.0000 4.4889 0.0000 0.0000
# 5 0.0000 0.0000 0.0000 0.0000 34.8640 0.0000
# 6 0.0000 0.0000 0.0000 0.0000 0.0000 23.1887
#
#
#
# Elastic Compliance Matrix: (Units=1/GPa)
#
#
# Indices 1 2 3 4 5 6 
#
# 1 0.014451 0.000951 -0.011935 0.000000 0.000000 0.000000
# 2 0.000951 0.022649 -0.013079 0.000000 0.000000 0.000000
# 3 -0.011935 -0.013079 0.032412 0.000000 0.000000 0.000000
# 4 0.000000 0.000000 0.000000 0.222772 0.000000 0.000000
# 5 0.000000 0.000000 0.000000 0.000000 0.028683 0.000000
# 6 0.000000 0.000000 0.000000 0.000000 0.000000 0.043125
#
#
# Mechanical properties :
#
#
# Convention : Reuss Voigt Hill
#
# Bulk Modulus (GPa) = 46.75870 50.14814 48.45342
# Shear Modulus (GPa) = 11.92333 20.93612 16.42973
#
# Velocity S-wave (km/s) = 2.37156 3.14256 2.78388
# Velocity P-wave (km/s) = 5.43649 6.06818 5.76100
#
# Compressibility (1/GPa) = 0.02138640
#
# Stress axis : x y z
#
# Youngs Moduli (GPa) = 69.19890 44.15181 30.85295
#
# Poissons Ratio (x) = -0.04199 0.36823
# Poissons Ratio (y) = -0.06581 0.40353
# Poissons Ratio (z) = 0.82588 0.57746
#
# Static dielectric constant tensor:
#      x y z
#    x 1.761530 0.000000 0.000000 
#    y 0.000000 1.782900 0.000000 
#    z 0.000000 0.000000 1.755400 
# 
# From -- ./inp_files/18371.got.cif
#   From: 2010.05.17/outbox.cif.g08.bks.cpg/sg52_10_cif.got.tgz:18371.got - 2010.06.03 12:15:38.
