data_PCOD9412527
_publ_section_title
;
Structure prediction by ZEFSAII (Michael W. Deem and Ramdas Pophale) SiO2 
 PCOD9412527
Probable space group: P N N A
;
_chemical_formula_sum "Si O2"
_cell_formula_units_Z 48
_cell_length_a 9.190740
_cell_length_b 13.551796
_cell_length_c 17.818087
_cell_angle_alpha 90.000000
_cell_angle_beta 90.000000
_cell_angle_gamma 90.000000
_cell_volume 2219.261152
_symmetry_space_group_name_H-M "P N N A"
_symmetry_group_IT_number 52
_symmetry_cell_setting 'orthorhombic'
loop_
_space_group_symop_operation_xyz
x,y,z
1/2-x,-y,z
x,1/2-y,1/2-z
1/2-x,1/2+y,1/2-z
-x,-y,-z
1/2+x,y,-z
-x,1/2+y,1/2+z
1/2+x,1/2-y,1/2+z
loop_
_atom_site_type_symbol
_atom_site_label
_atom_site_fract_x
_atom_site_fract_y
_atom_site_fract_z
Si Si1 0.274563 0.612957 0.961065
Si Si2 0.425289 0.491022 0.706435
Si Si3 0.067319 0.344800 0.396717
Si Si4 0.035596 0.764596 0.463980
Si Si5 0.615610 0.821439 0.313951
Si Si6 0.872096 0.174272 0.815829
O O1 0.250000 0.500000 0.981290
O O2 0.441438 0.637291 0.971548
O O3 0.223375 0.634778 0.875895
O O4 0.191912 0.697235 0.009019
O O5 0.250000 0.500000 0.708120
O O6 0.473035 0.438024 0.629547
O O7 0.459670 0.411943 0.771572
O O8 0.524709 0.587215 0.714648
O O9 0.228727 0.359914 0.362832
O O10 0.034039 0.319657 0.483168
O O11 0.000282 0.248155 0.355472
O O12 0.035715 0.730325 0.379075
O O13 0.684878 0.750000 0.250000
O O14 0.830184 0.250000 0.750000
#
# Coordination Sequence:
#
# PCOD9412527 Si02
#       6
#     8   8   8   8   8   8
#     4  11  23  42  68  96 138 178 230 276 340 405
#     4  11  25  40  69 105 132 179 227 282 346 405
#     4  10  23  49  67  94 140 183 223 283 339 407
#     4  11  25  44  67  99 136 182 223 286 338 402
#     4   9  21  40  70  95 138 173 219 277 348 394
#     4  12  27  43  70 101 139 179 232 279 343 409
#
# _framework density 21.628819
#
# number of rings (size 3 to 8) (size 9 to 14) (size 15 to 20)
#    0.000    1.333    1.667    3.000   11.667    0.667 
#    0.000    0.000    0.000    0.000    0.000    0.000 
#    0.000    0.000    0.000    0.000    0.000    0.000 
#
# Total GULP energy -268008.856829 kJ/mol
# GULP energy per Si atom -5583.517851 kJ/mol
# Density = 2.157959 g / cm^3
# Si number density = 21.628819 Si / 1000 Ang^3
#
#
#
# Elastic Constant Matrix: (Units=GPa)
#
#
# Indices 1 2 3 4 5 6 
#
# 1 63.9373 -0.5137 -28.0393 0.0000 0.0000 0.0000
# 2 -0.5137 60.2398 -1.1138 0.0000 0.0000 0.0000
# 3 -28.0393 -1.1138 62.8843 0.0000 0.0000 0.0000
# 4 0.0000 0.0000 0.0000 7.5391 0.0000 0.0000
# 5 0.0000 0.0000 0.0000 0.0000 -21.0198 0.0000
# 6 0.0000 0.0000 0.0000 0.0000 0.0000 56.5132
#
#
#
# Elastic Compliance Matrix: (Units=1/GPa)
#
#
# Indices 1 2 3 4 5 6 
#
# 1 0.019448 0.000326 0.008678 0.000000 0.000000 0.000000
# 2 0.000326 0.016611 0.000440 0.000000 0.000000 0.000000
# 3 0.008678 0.000440 0.019779 0.000000 0.000000 0.000000
# 4 0.000000 0.000000 0.000000 0.132641 0.000000 0.000000
# 5 0.000000 0.000000 0.000000 0.000000 -0.047574 0.000000
# 6 0.000000 0.000000 0.000000 0.000000 0.000000 0.017695
#
#
# Mechanical properties :
#
#
# Convention : Reuss Voigt Hill
#
# Bulk Modulus (GPa) = 13.38222 14.19200 13.78711
# Shear Modulus (GPa) = 30.37251 23.05504 26.71377
#
# Velocity S-wave (km/s) = 3.75141 3.26842 3.51821
# Velocity P-wave (km/s) = 4.99648 4.56281 4.78456
#
# Compressibility (1/GPa) = 0.07472600
#
# Stress axis : x y z
#
# Youngs Moduli (GPa) = 51.41797 60.20020 50.55812
#
# Poissons Ratio (x) = -0.01964 -0.43872
# Poissons Ratio (y) = -0.01678 -0.02223
# Poissons Ratio (z) = -0.44618 -0.02647
#
# Static dielectric constant tensor:
#      x y z
#    x 1.811150 0.000000 0.000000 
#    y 0.000000 1.765440 0.000000 
#    z 0.000000 0.000000 1.811360 
# 
# From -- ./inp_files/31258.got.cif
#   From: 2010.05.17/outbox.cif.g08.bks.cpg/sg52_16_cif.got.tgz:31258.got - 2010.06.03 12:15:38.
