data_PCOD9412269
_publ_section_title
;
Structure prediction by ZEFSAII (Michael W. Deem and Ramdas Pophale) SiO2 
 PCOD9412269
Probable space group: P N N A
;
_chemical_formula_sum "Si O2"
_cell_formula_units_Z 60
_cell_length_a 14.203542
_cell_length_b 24.044251
_cell_length_c 8.625957
_cell_angle_alpha 90.000000
_cell_angle_beta 90.000000
_cell_angle_gamma 90.000000
_cell_volume 2945.881016
_symmetry_space_group_name_H-M "P N N A"
_symmetry_group_IT_number 52
_symmetry_cell_setting 'orthorhombic'
loop_
_space_group_symop_operation_xyz
x,y,z
1/2-x,-y,z
x,1/2-y,1/2-z
1/2-x,1/2+y,1/2-z
-x,-y,-z
1/2+x,y,-z
-x,1/2+y,1/2+z
1/2+x,1/2-y,1/2+z
loop_
_atom_site_type_symbol
_atom_site_label
_atom_site_fract_x
_atom_site_fract_y
_atom_site_fract_z
Si Si1 0.229674 0.266956 0.567833
Si Si2 0.188344 0.875619 0.835504
Si Si3 0.176268 0.456205 0.839303
Si Si4 0.750000 0.500000 0.659021
Si Si5 0.200210 0.107968 0.360890
Si Si6 0.912600 0.473776 0.418262
Si Si7 0.935630 0.708249 0.884200
Si Si8 0.866969 0.174540 0.495320
O O1 0.222752 0.250000 0.750000
O O2 0.259126 0.331169 0.558507
O O3 0.135317 0.245599 0.486831
O O4 0.315314 0.233481 0.489692
O O5 0.265037 0.921882 0.788195
O O6 0.158750 0.846245 0.677004
O O7 0.095389 0.907908 0.890257
O O8 0.250000 0.500000 0.910770
O O9 0.102735 0.493216 0.744043
O O10 0.153763 0.414381 0.977207
O O11 0.785523 0.553957 0.754552
O O12 0.831754 0.482474 0.543764
O O13 0.129777 0.158262 0.315061
O O14 0.305121 0.133137 0.396595
O O15 0.000000 0.500000 0.500000
O O16 0.973215 0.750000 0.750000
O O17 0.020991 0.683477 0.988064
#
# Coordination Sequence:
#
# PCOD9412269 Si02
#       8
#     8   8   8   4   8   8   8   8
#     4   9  19  39  61  84 116 159 205 251 311 375
#     4   9  17  36  64  78 117 164 204 249 302 376
#     4   9  17  40  60  82 118 171 207 240 311 390
#     4  12  24  42  60 100 132 154 212 274 324 376
#     4  10  23  40  67  87 128 166 205 265 320 374
#     4  11  24  38  59  93 129 166 216 261 316 385
#     4  11  23  37  63  94 122 156 212 260 317 378
#     4   9  20  41  62  87 114 163 209 245 302 390
#
# _framework density 20.367422000000001
#
# number of rings (size 3 to 8) (size 9 to 14) (size 15 to 20)
#    0.000    2.133    2.667    2.000    3.733    1.067 
#    2.400    4.000    0.000    0.000    0.000    0.000 
#    0.000    0.000    0.000    0.000    0.000    0.000 
#
# Total GULP energy -334138.362066 kJ/mol
# GULP energy per Si atom -5568.972701 kJ/mol
# Density = 2.032106 g / cm^3
# Si number density = 20.367422 Si / 1000 Ang^3
#
#
#
# Elastic Constant Matrix: (Units=GPa)
#
#
# Indices 1 2 3 4 5 6 
#
# 1 54.7286 -1.4945 -9.8282 0.0000 0.0000 0.0000
# 2 -1.4945 97.0547 6.7118 0.0000 0.0000 0.0000
# 3 -9.8282 6.7118 33.4796 0.0000 0.0000 0.0000
# 4 0.0000 0.0000 0.0000 19.7667 0.0000 0.0000
# 5 0.0000 0.0000 0.0000 0.0000 5.7449 0.0000
# 6 0.0000 0.0000 0.0000 0.0000 0.0000 20.6448
#
#
#
# Elastic Compliance Matrix: (Units=1/GPa)
#
#
# Indices 1 2 3 4 5 6 
#
# 1 0.019290 -0.000096 0.005682 0.000000 0.000000 0.000000
# 2 -0.000096 0.010449 -0.002123 0.000000 0.000000 0.000000
# 3 0.005682 -0.002123 0.031962 0.000000 0.000000 0.000000
# 4 0.000000 0.000000 0.000000 0.050590 0.000000 0.000000
# 5 0.000000 0.000000 0.000000 0.000000 0.174068 0.000000
# 6 0.000000 0.000000 0.000000 0.000000 0.000000 0.048438
#
#
# Mechanical properties :
#
#
# Convention : Reuss Voigt Hill
#
# Bulk Modulus (GPa) = 14.57147 19.56011 17.06579
# Shear Modulus (GPa) = 14.25531 21.88952 18.07241
#
# Velocity S-wave (km/s) = 2.64845 3.28187 2.98202
# Velocity P-wave (km/s) = 4.06475 4.89748 4.50042
#
# Compressibility (1/GPa) = 0.06862726
#
# Stress axis : x y z
#
# Youngs Moduli (GPa) = 51.84105 95.70480 31.28669
#
# Poissons Ratio (x) = 0.00918 -0.17777
# Poissons Ratio (y) = 0.00497 0.06642
# Poissons Ratio (z) = -0.29455 0.20317
#
# Static dielectric constant tensor:
#      x y z
#    x 1.744000 0.000000 0.000000 
#    y 0.000000 1.776260 0.000000 
#    z 0.000000 0.000000 1.726000 
# 
# From -- ./inp_files/10987.got.cif
#   From: 2010.05.17/outbox.cif.g08.bks.cpg/sg52_6_cif.got.tgz:10987.got - 2010.06.03 12:15:38.
