data_PCOD9412815
_publ_section_title
;
Structure prediction by ZEFSAII (Michael W. Deem and Ramdas Pophale) SiO2 
 PCOD9412815
Probable space group: P N N A
;
_chemical_formula_sum "Si O2"
_cell_formula_units_Z 36
_cell_length_a 7.822372
_cell_length_b 8.062938
_cell_length_c 28.643000
_cell_angle_alpha 90.000000
_cell_angle_beta 90.000000
_cell_angle_gamma 90.000000
_cell_volume 1806.551259
_symmetry_space_group_name_H-M "P N N A"
_symmetry_group_IT_number 52
_symmetry_cell_setting 'orthorhombic'
loop_
_space_group_symop_operation_xyz
x,y,z
1/2-x,-y,z
x,1/2-y,1/2-z
1/2-x,1/2+y,1/2-z
-x,-y,-z
1/2+x,y,-z
-x,1/2+y,1/2+z
1/2+x,1/2-y,1/2+z
loop_
_atom_site_type_symbol
_atom_site_label
_atom_site_fract_x
_atom_site_fract_y
_atom_site_fract_z
Si Si1 0.750000 0.500000 0.972596
Si Si2 0.391568 0.375102 0.938140
Si Si3 0.545987 0.122401 0.191370
Si Si4 0.558296 0.967584 0.707624
Si Si5 0.921323 0.290428 0.346426
O O1 0.581664 0.449722 0.944517
O O2 0.685981 0.641786 0.009558
O O3 0.250000 0.500000 0.916168
O O4 0.406033 0.228466 0.901867
O O5 0.549444 0.068205 0.245721
O O6 0.439276 0.289153 0.182519
O O7 0.734280 0.175384 0.174813
O O8 0.479464 0.958317 0.165821
O O9 0.750000 0.000000 0.723871
O O10 0.492757 0.121915 0.677086
#
# Coordination Sequence:
#
# PCOD9412815 Si02
#       5
#     4   8   8   8   8
#     4   8  18  34  64  96 126 168 214 266 334 406
#     4   9  17  36  61  95 127 164 218 259 328 402
#     4  10  25  39  59  88 123 169 213 262 312 377
#     4  11  25  40  61  86 127 171 215 265 317 363
#     4  11  23  39  65  91 120 168 219 261 315 387
#
# _framework density 19.927471000000001
#
# number of rings (size 3 to 8) (size 9 to 14) (size 15 to 20)
#    0.667    1.333    0.000    2.667   20.222    0.000 
#    0.000    0.000    0.000    5.333    0.000    0.000 
#    0.000    0.000    0.000    0.000    0.000    0.000 
#
# Total GULP energy -200421.777157 kJ/mol
# GULP energy per Si atom -5567.271588 kJ/mol
# Density = 1.988211 g / cm^3
# Si number density = 19.927471 Si / 1000 Ang^3
#
#
#
# Elastic Constant Matrix: (Units=GPa)
#
#
# Indices 1 2 3 4 5 6 
#
# 1 103.9736 24.2019 33.7855 0.0000 0.0000 0.0000
# 2 24.2019 148.1379 43.5180 0.0000 0.0000 0.0000
# 3 33.7855 43.5180 72.1915 0.0000 0.0000 0.0000
# 4 0.0000 0.0000 0.0000 22.2599 0.0000 0.0000
# 5 0.0000 0.0000 0.0000 0.0000 1.2024 0.0000
# 6 0.0000 0.0000 0.0000 0.0000 0.0000 11.3415
#
#
#
# Elastic Compliance Matrix: (Units=1/GPa)
#
#
# Indices 1 2 3 4 5 6 
#
# 1 0.011358 -0.000357 -0.005100 0.000000 0.000000 0.000000
# 2 -0.000357 0.008214 -0.004784 0.000000 0.000000 0.000000
# 3 -0.005100 -0.004784 0.019123 0.000000 0.000000 0.000000
# 4 0.000000 0.000000 0.000000 0.044924 0.000000 0.000000
# 5 0.000000 0.000000 0.000000 0.000000 0.831662 0.000000
# 6 0.000000 0.000000 0.000000 0.000000 0.000000 0.088172
#
#
# Mechanical properties :
#
#
# Convention : Reuss Voigt Hill
#
# Bulk Modulus (GPa) = 54.91007 58.59041 56.75024
# Shear Modulus (GPa) = 4.85433 21.81394 13.33413
#
# Velocity S-wave (km/s) = 1.56246 3.31216 2.58957
# Velocity P-wave (km/s) = 5.55606 6.64025 6.12220
#
# Compressibility (1/GPa) = 0.01821160
#
# Stress axis : x y z
#
# Youngs Moduli (GPa) = 88.04142 121.73784 52.29279
#
# Poissons Ratio (x) = 0.04351 0.26670
# Poissons Ratio (y) = 0.03146 0.25019
# Poissons Ratio (z) = 0.44903 0.58245
#
# Static dielectric constant tensor:
#      x y z
#    x 1.726960 0.000000 0.000000 
#    y 0.000000 1.791010 0.000000 
#    z 0.000000 0.000000 1.709910 
# 
# From -- ./inp_files/42053.got.cif
#   From: 2010.05.17/outbox.cif.g08.bks.cpg/sg52_22_cif.got.tgz:42053.got - 2010.06.03 12:15:38.
