data_PCOD9412419
_publ_section_title
;
Structure prediction by ZEFSAII (Michael W. Deem and Ramdas Pophale) SiO2 
 PCOD9412419
Probable space group: P N N A
;
_chemical_formula_sum "Si O2"
_cell_formula_units_Z 32
_cell_length_a 13.547203
_cell_length_b 6.973816
_cell_length_c 15.752493
_cell_angle_alpha 90.000000
_cell_angle_beta 90.000000
_cell_angle_gamma 90.000000
_cell_volume 1488.227819
_symmetry_space_group_name_H-M "P N N A"
_symmetry_group_IT_number 52
_symmetry_cell_setting 'orthorhombic'
loop_
_space_group_symop_operation_xyz
x,y,z
1/2-x,-y,z
x,1/2-y,1/2-z
1/2-x,1/2+y,1/2-z
-x,-y,-z
1/2+x,y,-z
-x,1/2+y,1/2+z
1/2+x,1/2-y,1/2+z
loop_
_atom_site_type_symbol
_atom_site_label
_atom_site_fract_x
_atom_site_fract_y
_atom_site_fract_z
Si Si1 0.750000 0.500000 0.500235
Si Si2 0.379276 0.151885 0.550570
Si Si3 0.604673 0.308607 0.927362
Si Si4 0.136749 0.469809 0.762513
Si Si5 0.972708 0.750000 0.750000
O O1 0.691374 0.664762 0.449859
O O2 0.671430 0.374956 0.553106
O O3 0.492489 0.217261 0.539424
O O4 0.358943 0.999635 0.475436
O O5 0.369029 0.037239 0.639232
O O6 0.591740 0.330558 0.826486
O O7 0.250000 0.500000 0.734669
O O8 0.113768 0.250000 0.750000
O O9 0.050789 0.590584 0.717225
#
# Coordination Sequence:
#
# PCOD9412419 Si02
#       5
#     4   8   8   8   4
#     4  12  22  42  72 100 124 180 228 278 330 388
#     4  10  24  43  68  96 136 171 226 275 329 400
#     4  10  23  44  64  99 133 176 220 277 329 396
#     4  11  22  39  63  97 133 170 209 272 333 399
#     4  10  24  42  64  96 136 174 220 270 338 394
#
# _framework density 21.502085000000001
#
# number of rings (size 3 to 8) (size 9 to 14) (size 15 to 20)
#    0.000    1.500    1.250    3.000    0.000   14.000 
#    6.750    0.000    0.000    0.000    0.000    0.000 
#    0.000    0.000    0.000    0.000    0.000    0.000 
#
# Total GULP energy -178842.836613 kJ/mol
# GULP energy per Si atom -5588.838644 kJ/mol
# Density = 2.145314 g / cm^3
# Si number density = 21.502085 Si / 1000 Ang^3
#
#
#
# Elastic Constant Matrix: (Units=GPa)
#
#
# Indices 1 2 3 4 5 6 
#
# 1 121.0753 56.6687 34.8059 0.0000 0.0000 0.0000
# 2 56.6687 174.3448 46.3375 0.0000 0.0000 0.0000
# 3 34.8059 46.3375 111.1145 0.0000 0.0000 0.0000
# 4 0.0000 0.0000 0.0000 27.4719 0.0000 0.0000
# 5 0.0000 0.0000 0.0000 0.0000 14.4183 0.0000
# 6 0.0000 0.0000 0.0000 0.0000 0.0000 56.4928
#
#
#
# Elastic Compliance Matrix: (Units=1/GPa)
#
#
# Indices 1 2 3 4 5 6 
#
# 1 0.010131 -0.002755 -0.002025 0.000000 0.000000 0.000000
# 2 -0.002755 0.007200 -0.002140 0.000000 0.000000 0.000000
# 3 -0.002025 -0.002140 0.010526 0.000000 0.000000 0.000000
# 4 0.000000 0.000000 0.000000 0.036401 0.000000 0.000000
# 5 0.000000 0.000000 0.000000 0.000000 0.069356 0.000000
# 6 0.000000 0.000000 0.000000 0.000000 0.000000 0.017701
#
#
# Mechanical properties :
#
#
# Convention : Reuss Voigt Hill
#
# Bulk Modulus (GPa) = 71.33264 75.79544 73.56404
# Shear Modulus (GPa) = 29.44190 37.59143 33.51667
#
# Velocity S-wave (km/s) = 3.70436 4.18577 3.95240
# Velocity P-wave (km/s) = 7.17936 7.66079 7.42398
#
# Compressibility (1/GPa) = 0.01401883
#
# Stress axis : x y z
#
# Youngs Moduli (GPa) = 98.70991 138.89220 95.00132
#
# Poissons Ratio (x) = 0.38262 0.19234
# Poissons Ratio (y) = 0.27192 0.20326
# Poissons Ratio (z) = 0.19985 0.29717
#
# Static dielectric constant tensor:
#      x y z
#    x 1.810750 0.000000 0.000000 
#    y 0.000000 1.877560 0.000000 
#    z 0.000000 0.000000 1.804270 
# 
# From -- ./inp_files/32715.got.cif
#   From: 2010.05.17/outbox.cif.g08.bks.cpg/sg52_17_cif.got.tgz:32715.got - 2010.06.03 12:15:38.
