data_PCOD9412537
_publ_section_title
;
Structure prediction by ZEFSAII (Michael W. Deem and Ramdas Pophale) SiO2 
 PCOD9412537
Probable space group: P N N A
;
_chemical_formula_sum "Si O2"
_cell_formula_units_Z 48
_cell_length_a 8.731995
_cell_length_b 21.892905
_cell_length_c 11.891888
_cell_angle_alpha 90.000000
_cell_angle_beta 90.000000
_cell_angle_gamma 90.000000
_cell_volume 2273.357209
_symmetry_space_group_name_H-M "P N N A"
_symmetry_group_IT_number 52
_symmetry_cell_setting 'orthorhombic'
loop_
_space_group_symop_operation_xyz
x,y,z
1/2-x,-y,z
x,1/2-y,1/2-z
1/2-x,1/2+y,1/2-z
-x,-y,-z
1/2+x,y,-z
-x,1/2+y,1/2+z
1/2+x,1/2-y,1/2+z
loop_
_atom_site_type_symbol
_atom_site_label
_atom_site_fract_x
_atom_site_fract_y
_atom_site_fract_z
Si Si1 0.291200 0.372540 0.260453
Si Si2 0.783295 0.370597 0.996402
Si Si3 0.516355 0.444864 0.913908
Si Si4 0.750000 0.000000 0.765828
Si Si5 0.015472 0.303191 0.342775
Si Si6 0.982412 0.250000 0.750000
Si Si7 0.217910 0.262287 0.554301
O O1 0.338433 0.384830 0.130835
O O2 0.312589 0.437607 0.323267
O O3 0.381926 0.309464 0.282961
O O4 0.111889 0.355361 0.279031
O O5 0.608481 0.390649 0.977376
O O6 0.804432 0.299546 0.018608
O O7 0.851953 0.412830 0.094373
O O8 0.613230 0.473059 0.812193
O O9 0.500000 0.500000 0.000000
O O10 0.006631 0.250000 0.250000
O O11 0.843626 0.308221 0.392416
O O12 0.124401 0.287242 0.448413
O O13 0.095615 0.240628 0.646042
#
# Coordination Sequence:
#
# PCOD9412537 Si02
#       7
#     8   8   8   4   8   4   8
#     4  11  21  41  60  92 128 173 215 268 329 393
#     4  11  21  33  59  84 131 165 203 260 324 388
#     4  11  18  32  49  84 121 170 203 238 313 402
#     4  10  24  34  62  84 132 176 216 264 334 392
#     4  12  23  42  65  94 131 173 218 271 329 390
#     4  12  24  38  66  94 134 168 224 274 330 396
#     4  12  25  40  65 101 129 174 220 280 333 393
#
# _framework density 21.114146999999999
#
# number of rings (size 3 to 8) (size 9 to 14) (size 15 to 20)
#    0.000    0.667    6.667    4.000    2.333    0.000 
#    0.000    0.000    0.000    4.000    0.000    0.000 
#    0.000    0.000    0.000    0.000    0.000    0.000 
#
# Total GULP energy -267311.597389 kJ/mol
# GULP energy per Si atom -5568.991612 kJ/mol
# Density = 2.106609 g / cm^3
# Si number density = 21.114147 Si / 1000 Ang^3
#
#
#
# Elastic Constant Matrix: (Units=GPa)
#
#
# Indices 1 2 3 4 5 6 
#
# 1 72.3053 21.0255 21.8200 0.0000 0.0000 0.0000
# 2 21.0255 103.1933 -6.7491 0.0000 0.0000 0.0000
# 3 21.8200 -6.7491 54.8347 0.0000 0.0000 0.0000
# 4 0.0000 0.0000 0.0000 22.0652 0.0000 0.0000
# 5 0.0000 0.0000 0.0000 0.0000 23.8198 0.0000
# 6 0.0000 0.0000 0.0000 0.0000 0.0000 26.8203
#
#
#
# Elastic Compliance Matrix: (Units=1/GPa)
#
#
# Indices 1 2 3 4 5 6 
#
# 1 0.017203 -0.003985 -0.007336 0.000000 0.000000 0.000000
# 2 -0.003985 0.010692 0.002902 0.000000 0.000000 0.000000
# 3 -0.007336 0.002902 0.021513 0.000000 0.000000 0.000000
# 4 0.000000 0.000000 0.000000 0.045320 0.000000 0.000000
# 5 0.000000 0.000000 0.000000 0.000000 0.041982 0.000000
# 6 0.000000 0.000000 0.000000 0.000000 0.000000 0.037285
#
#
# Mechanical properties :
#
#
# Convention : Reuss Voigt Hill
#
# Bulk Modulus (GPa) = 30.70322 33.61400 32.15861
# Shear Modulus (GPa) = 24.79054 27.49018 26.14036
#
# Velocity S-wave (km/s) = 3.43026 3.61221 3.52241
# Velocity P-wave (km/s) = 5.50109 5.77513 5.63977
#
# Compressibility (1/GPa) = 0.03256988
#
# Stress axis : x y z
#
# Youngs Moduli (GPa) = 58.13018 93.52582 46.48382
#
# Poissons Ratio (x) = 0.37268 0.34100
# Poissons Ratio (y) = 0.23164 -0.13488
# Poissons Ratio (z) = 0.42643 -0.27138
#
# Static dielectric constant tensor:
#      x y z
#    x 1.821800 0.000000 0.000000 
#    y 0.000000 1.874800 0.000000 
#    z 0.000000 0.000000 1.860520 
# 
# From -- ./inp_files/16978.got.cif
#   From: 2010.05.17/outbox.cif.g08.bks.cpg/sg52_9_cif.got.tgz:16978.got - 2010.06.03 12:15:38.
