data_PCOD9412359
_publ_section_title
;
Structure prediction by ZEFSAII (Michael W. Deem and Ramdas Pophale) SiO2 
 PCOD9412359
Probable space group: P N N A
;
_chemical_formula_sum "Si O2"
_cell_formula_units_Z 40
_cell_length_a 14.896108
_cell_length_b 21.042378
_cell_length_c 5.332248
_cell_angle_alpha 90.000000
_cell_angle_beta 90.000000
_cell_angle_gamma 90.000000
_cell_volume 1671.390658
_symmetry_space_group_name_H-M "P N N A"
_symmetry_group_IT_number 52
_symmetry_cell_setting 'orthorhombic'
loop_
_space_group_symop_operation_xyz
x,y,z
1/2-x,-y,z
x,1/2-y,1/2-z
1/2-x,1/2+y,1/2-z
-x,-y,-z
1/2+x,y,-z
-x,1/2+y,1/2+z
1/2+x,1/2-y,1/2+z
loop_
_atom_site_type_symbol
_atom_site_label
_atom_site_fract_x
_atom_site_fract_y
_atom_site_fract_z
Si Si1 0.118344 0.544415 0.011878
Si Si2 0.687365 0.407349 0.961328
Si Si3 0.905509 0.687983 0.344608
Si Si4 0.274545 0.308679 0.412433
Si Si5 0.437024 0.110990 0.964511
O O1 0.218038 0.567739 0.928322
O O2 0.130944 0.470978 0.083899
O O3 0.063628 0.560467 0.760520
O O4 0.081867 0.580868 0.258793
O O5 0.630714 0.360828 0.136416
O O6 0.728177 0.367811 0.731528
O O7 0.958258 0.750000 0.250000
O O8 0.815585 0.717187 0.462920
O O9 0.969605 0.648342 0.526038
O O10 0.310380 0.250000 0.250000
O O11 0.355981 0.337894 0.570625
#
# Coordination Sequence:
#
# PCOD9412359 Si02
#       5
#     8   8   8   8   8
#     4  10  24  45  69 101 137 182 227 281 343 407
#     4  10  23  42  70  97 137 182 230 278 341 412
#     4  12  25  43  68 101 133 180 234 281 339 413
#     4  11  23  45  68  98 139 185 225 288 349 407
#     4  11  26  44  70 101 136 180 228 284 345 407
#
# _framework density 23.932165000000001
#
# number of rings (size 3 to 8) (size 9 to 14) (size 15 to 20)
#    0.000    1.200    4.000    0.600    5.600    3.200 
#    0.000    3.000    0.000    0.000    0.000    0.000 
#    0.000    0.000    0.000    0.000    0.000    0.000 
#
# Total GULP energy -223360.972771 kJ/mol
# GULP energy per Si atom -5584.024319 kJ/mol
# Density = 2.387769 g / cm^3
# Si number density = 23.932165 Si / 1000 Ang^3
#
#
#
# Elastic Constant Matrix: (Units=GPa)
#
#
# Indices 1 2 3 4 5 6 
#
# 1 119.3368 17.4525 12.5046 0.0000 0.0000 0.0000
# 2 17.4525 108.8929 7.1827 0.0000 0.0000 0.0000
# 3 12.5046 7.1827 56.9633 0.0000 0.0000 0.0000
# 4 0.0000 0.0000 0.0000 30.7561 0.0000 0.0000
# 5 0.0000 0.0000 0.0000 0.0000 23.5862 0.0000
# 6 0.0000 0.0000 0.0000 0.0000 0.0000 106.1457
#
#
#
# Elastic Compliance Matrix: (Units=1/GPa)
#
#
# Indices 1 2 3 4 5 6 
#
# 1 0.008752 -0.001287 -0.001759 0.000000 0.000000 0.000000
# 2 -0.001287 0.009450 -0.000909 0.000000 0.000000 0.000000
# 3 -0.001759 -0.000909 0.018056 0.000000 0.000000 0.000000
# 4 0.000000 0.000000 0.000000 0.032514 0.000000 0.000000
# 5 0.000000 0.000000 0.000000 0.000000 0.042398 0.000000
# 6 0.000000 0.000000 0.000000 0.000000 0.000000 0.009421
#
#
# Mechanical properties :
#
#
# Convention : Reuss Voigt Hill
#
# Bulk Modulus (GPa) = 35.27584 39.94140 37.60862
# Shear Modulus (GPa) = 36.24528 48.63449 42.43989
#
# Velocity S-wave (km/s) = 3.89588 4.51286 4.21567
# Velocity P-wave (km/s) = 5.91685 6.62421 6.28050
#
# Compressibility (1/GPa) = 0.02834801
#
# Stress axis : x y z
#
# Youngs Moduli (GPa) = 114.25784 105.82553 55.38347
#
# Poissons Ratio (x) = 0.13617 0.09742
# Poissons Ratio (y) = 0.14702 0.05035
# Poissons Ratio (z) = 0.20098 0.09620
#
# Static dielectric constant tensor:
#      x y z
#    x 1.930100 0.000000 0.000000 
#    y 0.000000 1.803200 0.000000 
#    z 0.000000 0.000000 2.003550 
# 
# From -- ./inp_files/2252.got.cif
#   From: 2010.05.17/outbox.cif.g08.bks.cpg/sg52_2_cif.got.tgz:2252.got - 2010.06.03 12:15:38.
