data_PCOD9412622
_publ_section_title
;
Structure prediction by ZEFSAII (Michael W. Deem and Ramdas Pophale) SiO2 
 PCOD9412622
Probable space group: P N N A
;
_chemical_formula_sum "Si O2"
_cell_formula_units_Z 28
_cell_length_a 8.574450
_cell_length_b 5.127728
_cell_length_c 28.014948
_cell_angle_alpha 90.000000
_cell_angle_beta 90.000000
_cell_angle_gamma 90.000000
_cell_volume 1231.745751
_symmetry_space_group_name_H-M "P N N A"
_symmetry_group_IT_number 52
_symmetry_cell_setting 'orthorhombic'
loop_
_space_group_symop_operation_xyz
x,y,z
1/2-x,-y,z
x,1/2-y,1/2-z
1/2-x,1/2+y,1/2-z
-x,-y,-z
1/2+x,y,-z
-x,1/2+y,1/2+z
1/2+x,1/2-y,1/2+z
loop_
_atom_site_type_symbol
_atom_site_label
_atom_site_fract_x
_atom_site_fract_y
_atom_site_fract_z
Si Si1 0.432870 0.438863 0.654749
Si Si2 0.069135 0.919234 0.296823
Si Si3 0.032046 0.811804 0.955530
Si Si4 0.750000 0.000000 0.509100
O O1 0.250000 0.500000 0.663318
O O2 0.536612 0.695100 0.664696
O O3 0.482222 0.186327 0.686937
O O4 0.461053 0.388619 0.598970
O O5 0.019049 0.750000 0.250000
O O6 0.250000 0.000000 0.291233
O O7 0.896618 0.591311 0.960119
O O8 0.199553 0.714972 0.971561
O O9 0.000000 0.000000 0.000000
#
# Coordination Sequence:
#
# PCOD9412622 Si02
#       4
#     8   8   8   4
#     4  12  28  47  81 114 155 200 256 313 386 458
#     4  12  28  53  79 111 148 197 254 324 387 461
#     4  11  25  44  70 108 154 199 252 307 369 449
#     4  10  24  42  70 100 154 200 250 300 372 436
#
# _framework density 22.731967000000001
#
# number of rings (size 3 to 8) (size 9 to 14) (size 15 to 20)
#    0.000    0.571    0.000    6.857   14.000    4.571 
#    0.000    1.429    0.000    0.000    0.000    0.000 
#    0.000    0.000    0.000    0.000    0.000    0.000 
#
# Total GULP energy -156233.526904 kJ/mol
# GULP energy per Si atom -5579.768818 kJ/mol
# Density = 2.268023 g / cm^3
# Si number density = 22.731967 Si / 1000 Ang^3
#
#
#
# Elastic Constant Matrix: (Units=GPa)
#
#
# Indices 1 2 3 4 5 6 
#
# 1 68.4115 46.4587 50.2959 0.0000 0.0000 0.0000
# 2 46.4587 159.0479 55.0175 0.0000 0.0000 0.0000
# 3 50.2959 55.0175 121.8095 0.0000 0.0000 0.0000
# 4 0.0000 0.0000 0.0000 41.7772 0.0000 0.0000
# 5 0.0000 0.0000 0.0000 0.0000 19.2670 0.0000
# 6 0.0000 0.0000 0.0000 0.0000 0.0000 62.6505
#
#
#
# Elastic Compliance Matrix: (Units=1/GPa)
#
#
# Indices 1 2 3 4 5 6 
#
# 1 0.023018 -0.004072 -0.007665 0.000000 0.000000 0.000000
# 2 -0.004072 0.008172 -0.002010 0.000000 0.000000 0.000000
# 3 -0.007665 -0.002010 0.012282 0.000000 0.000000 0.000000
# 4 0.000000 0.000000 0.000000 0.023937 0.000000 0.000000
# 5 0.000000 0.000000 0.000000 0.000000 0.051902 0.000000
# 6 0.000000 0.000000 0.000000 0.000000 0.000000 0.015962
#
#
# Mechanical properties :
#
#
# Convention : Reuss Voigt Hill
#
# Bulk Modulus (GPa) = 62.58355 72.53478 67.55917
# Shear Modulus (GPa) = 29.74544 37.90539 33.82542
#
# Velocity S-wave (km/s) = 3.62128 4.08792 3.86166
# Velocity P-wave (km/s) = 6.71385 7.36610 7.04753
#
# Compressibility (1/GPa) = 0.01597864
#
# Stress axis : x y z
#
# Youngs Moduli (GPa) = 43.44368 122.36742 81.41873
#
# Poissons Ratio (x) = 0.49831 0.62408
# Poissons Ratio (y) = 0.17691 0.16362
# Poissons Ratio (z) = 0.33300 0.24591
#
# Static dielectric constant tensor:
#      x y z
#    x 1.835070 0.000000 0.000000 
#    y 0.000000 1.928360 0.000000 
#    z 0.000000 0.000000 1.996970 
# 
# From -- ./inp_files/41959.got.cif
#   From: 2010.05.17/outbox.cif.g08.bks.cpg/sg52_21_cif.got.tgz:41959.got - 2010.06.03 12:15:38.
