data_PCOD9412244
_publ_section_title
;
Structure prediction by ZEFSAII (Michael W. Deem and Ramdas Pophale) SiO2 
 PCOD9412244
Probable space group: P N N A
;
_chemical_formula_sum "Si O2"
_cell_formula_units_Z 48
_cell_length_a 17.786565
_cell_length_b 14.078466
_cell_length_c 9.997012
_cell_angle_alpha 90.000000
_cell_angle_beta 90.000000
_cell_angle_gamma 90.000000
_cell_volume 2503.327288
_symmetry_space_group_name_H-M "P N N A"
_symmetry_group_IT_number 52
_symmetry_cell_setting 'orthorhombic'
loop_
_space_group_symop_operation_xyz
x,y,z
1/2-x,-y,z
x,1/2-y,1/2-z
1/2-x,1/2+y,1/2-z
-x,-y,-z
1/2+x,y,-z
-x,1/2+y,1/2+z
1/2+x,1/2-y,1/2+z
loop_
_atom_site_type_symbol
_atom_site_label
_atom_site_fract_x
_atom_site_fract_y
_atom_site_fract_z
Si Si1 0.293586 0.265524 0.097775
Si Si2 0.912001 0.404519 0.576579
Si Si3 0.576636 0.060030 0.140781
Si Si4 0.429354 0.567054 0.951595
Si Si5 0.849674 0.755228 0.089641
Si Si6 0.834099 0.471644 0.830647
O O1 0.264168 0.250000 0.250000
O O2 0.354927 0.183560 0.068050
O O3 0.335402 0.366125 0.107366
O O4 0.225237 0.268012 0.993836
O O5 0.920234 0.462279 0.439721
O O6 0.880279 0.471485 0.694324
O O7 0.996546 0.386370 0.625854
O O8 0.588300 0.041745 0.297657
O O9 0.632731 0.133806 0.071297
O O10 0.418687 0.682890 0.947202
O O11 0.500000 0.500000 0.000000
O O12 0.366071 0.539274 0.057008
O O13 0.837720 0.750000 0.250000
O O14 0.750000 0.500000 0.797858
#
# Coordination Sequence:
#
# PCOD9412244 Si02
#       6
#     8   8   8   8   8   8
#     4  10  23  39  62  91 121 163 203 253 308 365
#     4  10  23  41  62  88 124 160 205 249 310 370
#     4  10  23  41  62  89 121 165 203 253 311 367
#     4  11  22  40  64  90 123 162 204 254 307 366
#     4  10  23  39  61  89 123 159 204 250 309 367
#     4  11  22  39  65  92 123 160 207 253 305 371
#
# _framework density 19.174479999999999
#
# number of rings (size 3 to 8) (size 9 to 14) (size 15 to 20)
#    0.000    1.667    3.333    0.000    7.000    3.333 
#    0.000    0.000    0.000    0.000    0.000    0.000 
#    0.000    0.000    0.000    0.000    0.000    0.000 
#
# Total GULP energy -267299.711010 kJ/mol
# GULP energy per Si atom -5568.743979 kJ/mol
# Density = 1.913084 g / cm^3
# Si number density = 19.174480 Si / 1000 Ang^3
#
#
#
# Elastic Constant Matrix: (Units=GPa)
#
#
# Indices 1 2 3 4 5 6 
#
# 1 50.5017 -0.5738 12.5886 0.0000 0.0000 0.0000
# 2 -0.5738 54.3526 21.7496 0.0000 0.0000 0.0000
# 3 12.5886 21.7496 61.8460 0.0000 0.0000 0.0000
# 4 0.0000 0.0000 0.0000 -11.7602 0.0000 0.0000
# 5 0.0000 0.0000 0.0000 0.0000 25.4076 0.0000
# 6 0.0000 0.0000 0.0000 0.0000 0.0000 29.8717
#
#
#
# Elastic Compliance Matrix: (Units=1/GPa)
#
#
# Indices 1 2 3 4 5 6 
#
# 1 0.021095 0.002259 -0.005088 0.000000 0.000000 0.000000
# 2 0.002259 0.021653 -0.008075 0.000000 0.000000 0.000000
# 3 -0.005088 -0.008075 0.020045 0.000000 0.000000 0.000000
# 4 0.000000 0.000000 0.000000 -0.085033 0.000000 0.000000
# 5 0.000000 0.000000 0.000000 0.000000 0.039358 0.000000
# 6 0.000000 0.000000 0.000000 0.000000 0.000000 0.033477
#
#
# Mechanical properties :
#
#
# Convention : Reuss Voigt Hill
#
# Bulk Modulus (GPa) = 24.39919 26.02546 25.21232
# Shear Modulus (GPa) = 58.09530 17.56621 37.83075
#
# Velocity S-wave (km/s) = 5.51036 3.03004 4.44664
# Velocity P-wave (km/s) = 7.29642 5.08369 6.28815
#
# Compressibility (1/GPa) = 0.04098497
#
# Stress axis : x y z
#
# Youngs Moduli (GPa) = 47.40384 46.18211 49.88883
#
# Poissons Ratio (x) = -0.10432 0.25385
# Poissons Ratio (y) = -0.10708 0.40284
# Poissons Ratio (z) = 0.24120 0.37291
#
# Static dielectric constant tensor:
#      x y z
#    x 1.670990 0.000000 0.000000 
#    y 0.000000 1.715940 0.000000 
#    z 0.000000 0.000000 1.622400 
# 
# From -- ./inp_files/12081.got.cif
#   From: 2010.05.17/outbox.cif.g08.bks.cpg/sg52_7_cif.got.tgz:12081.got - 2010.06.03 12:15:38.
