data_PCOD9412476
_publ_section_title
;
Structure prediction by ZEFSAII (Michael W. Deem and Ramdas Pophale) SiO2 
 PCOD9412476
Probable space group: P N N A
;
_chemical_formula_sum "Si O2"
_cell_formula_units_Z 48
_cell_length_a 7.958179
_cell_length_b 18.525341
_cell_length_c 13.579865
_cell_angle_alpha 90.000000
_cell_angle_beta 90.000000
_cell_angle_gamma 90.000000
_cell_volume 2002.052062
_symmetry_space_group_name_H-M "P N N A"
_symmetry_group_IT_number 52
_symmetry_cell_setting 'orthorhombic'
loop_
_space_group_symop_operation_xyz
x,y,z
1/2-x,-y,z
x,1/2-y,1/2-z
1/2-x,1/2+y,1/2-z
-x,-y,-z
1/2+x,y,-z
-x,1/2+y,1/2+z
1/2+x,1/2-y,1/2+z
loop_
_atom_site_type_symbol
_atom_site_label
_atom_site_fract_x
_atom_site_fract_y
_atom_site_fract_z
Si Si1 0.750000 0.000000 0.950886
Si Si2 0.952965 0.443239 0.865722
Si Si3 0.088657 0.249669 0.979002
Si Si4 0.941942 0.467061 0.302127
Si Si5 0.290790 0.303611 0.158113
Si Si6 0.250000 0.000000 0.544468
Si Si7 0.351822 0.355350 0.572658
O O1 0.921037 0.992093 0.885204
O O2 0.720277 0.926784 0.015862
O O3 0.965964 0.513975 0.798659
O O4 0.848102 0.383097 0.808183
O O5 0.866209 0.455761 0.969757
O O6 0.149946 0.439464 0.893816
O O7 0.145660 0.294292 0.075510
O O8 0.009765 0.173901 0.013757
O O9 0.245673 0.217773 0.920220
O O10 0.956514 0.284888 0.906660
O O11 0.750000 0.500000 0.303126
O O12 0.909958 0.383707 0.322156
O O13 0.267896 0.250000 0.250000
#
# Coordination Sequence:
#
# PCOD9412476 Si02
#       7
#     4   8   8   8   8   4   8
#     4  12  23  37  64 104 146 182 200 289 359 424
#     4  11  24  43  67  97 133 172 249 286 368 416
#     4  10  24  44  67  99 136 192 234 284 348 440
#     4  12  24  37  65 107 138 177 225 295 351 434
#     4  11  26  44  70  96 140 190 234 295 353 433
#     4  10  23  45  70  90 126 184 224 327 349 402
#     4  11  21  40  66  98 144 172 223 270 361 430
#
# _framework density 23.975401000000002
#
# number of rings (size 3 to 8) (size 9 to 14) (size 15 to 20)
#    0.000    1.000    3.333    3.000    7.000    1.333 
#    0.000    3.333    0.000    0.000    0.000    0.000 
#    0.000    0.000    0.000    0.000    0.000    0.000 
#
# Total GULP energy -267371.403850 kJ/mol
# GULP energy per Si atom -5570.237580 kJ/mol
# Density = 2.392083 g / cm^3
# Si number density = 23.975401 Si / 1000 Ang^3
#
#
#
# Elastic Constant Matrix: (Units=GPa)
#
#
# Indices 1 2 3 4 5 6 
#
# 1 83.0145 13.8429 13.8080 0.0000 0.0000 0.0000
# 2 13.8429 34.7826 -1.5011 0.0000 0.0000 0.0000
# 3 13.8080 -1.5011 78.2549 0.0000 0.0000 0.0000
# 4 0.0000 0.0000 0.0000 56.5764 0.0000 0.0000
# 5 0.0000 0.0000 0.0000 0.0000 -15.4838 0.0000
# 6 0.0000 0.0000 0.0000 0.0000 0.0000 23.8889
#
#
#
# Elastic Compliance Matrix: (Units=1/GPa)
#
#
# Indices 1 2 3 4 5 6 
#
# 1 0.013360 -0.005423 -0.002461 0.000000 0.000000 0.000000
# 2 -0.005423 0.030975 0.001551 0.000000 0.000000 0.000000
# 3 -0.002461 0.001551 0.013243 0.000000 0.000000 0.000000
# 4 0.000000 0.000000 0.000000 0.017675 0.000000 0.000000
# 5 0.000000 0.000000 0.000000 0.000000 -0.064584 0.000000
# 6 0.000000 0.000000 0.000000 0.000000 0.000000 0.041860
#
#
# Mechanical properties :
#
#
# Convention : Reuss Voigt Hill
#
# Bulk Modulus (GPa) = 22.26625 27.59461 24.93043
# Shear Modulus (GPa) = 62.36960 24.32312 43.34636
#
# Velocity S-wave (km/s) = 5.10592 3.18858 4.25661
# Velocity P-wave (km/s) = 6.63837 5.00905 5.88041
#
# Compressibility (1/GPa) = 0.04491102
#
# Stress axis : x y z
#
# Youngs Moduli (GPa) = 74.85131 32.28379 75.51269
#
# Poissons Ratio (x) = 0.17508 0.18586
# Poissons Ratio (y) = 0.40593 -0.11713
# Poissons Ratio (z) = 0.18424 -0.05008
#
# Static dielectric constant tensor:
#      x y z
#    x 2.093900 0.000000 0.000000 
#    y 0.000000 2.287700 0.000000 
#    z 0.000000 0.000000 1.964570 
# 
# From -- ./inp_files/24762.got.cif
#   From: 2010.05.17/outbox.cif.g08.bks.cpg/sg52_13_cif.got.tgz:24762.got - 2010.06.03 12:15:38.
