data_PCOD9412378
_publ_section_title
;
Structure prediction by ZEFSAII (Michael W. Deem and Ramdas Pophale) SiO2 
 PCOD9412378
Probable space group: P N N A
;
_chemical_formula_sum "Si O2"
_cell_formula_units_Z 36
_cell_length_a 14.802649
_cell_length_b 14.916276
_cell_length_c 8.407199
_cell_angle_alpha 90.000000
_cell_angle_beta 90.000000
_cell_angle_gamma 90.000000
_cell_volume 1856.312885
_symmetry_space_group_name_H-M "P N N A"
_symmetry_group_IT_number 52
_symmetry_cell_setting 'orthorhombic'
loop_
_space_group_symop_operation_xyz
x,y,z
1/2-x,-y,z
x,1/2-y,1/2-z
1/2-x,1/2+y,1/2-z
-x,-y,-z
1/2+x,y,-z
-x,1/2+y,1/2+z
1/2+x,1/2-y,1/2+z
loop_
_atom_site_type_symbol
_atom_site_label
_atom_site_fract_x
_atom_site_fract_y
_atom_site_fract_z
Si Si1 0.750000 0.000000 0.249731
Si Si2 0.134108 0.259646 0.061584
Si Si3 0.980165 0.332383 0.626751
Si Si4 0.309709 0.186211 0.900229
Si Si5 0.066363 0.441395 0.896684
O O1 0.736418 0.907000 0.154682
O O2 0.841458 0.990621 0.350194
O O3 0.132245 0.250000 0.250000
O O4 0.234085 0.241923 0.995549
O O5 0.097066 0.353795 0.995131
O O6 0.066231 0.188872 0.982481
O O7 0.965784 0.250000 0.750000
O O8 0.893736 0.337836 0.513164
O O9 0.010558 0.413564 0.739104
O O10 0.336199 0.250000 0.750000
O O11 0.000000 0.500000 0.000000
#
# Coordination Sequence:
#
# PCOD9412378 Si02
#       5
#     4   8   8   8   8
#     4  12  26  44  72  98 140 184 226 288 358 410
#     4  11  23  44  68 100 138 184 231 293 351 416
#     4  10  23  43  67 100 135 181 233 280 351 418
#     4  12  24  44  70  99 142 185 232 292 350 418
#     4  11  26  45  69 103 145 181 236 295 352 427
#
# _framework density 19.393283
#
# number of rings (size 3 to 8) (size 9 to 14) (size 15 to 20)
#    0.000    0.889    4.444    2.000    9.333    4.444 
#    0.000    0.000    0.000    0.000    0.000    0.000 
#    0.000    0.000    0.000    0.000    0.000    0.000 
#
# Total GULP energy -201158.145278 kJ/mol
# GULP energy per Si atom -5587.726258 kJ/mol
# Density = 1.934914 g / cm^3
# Si number density = 19.393283 Si / 1000 Ang^3
#
#
#
# Elastic Constant Matrix: (Units=GPa)
#
#
# Indices 1 2 3 4 5 6 
#
# 1 168.0572 39.5435 79.0190 0.0000 0.0000 0.0000
# 2 39.5435 77.8842 49.0738 0.0000 0.0000 0.0000
# 3 79.0190 49.0738 153.1060 0.0000 0.0000 0.0000
# 4 0.0000 0.0000 0.0000 18.7519 0.0000 0.0000
# 5 0.0000 0.0000 0.0000 0.0000 43.3260 0.0000
# 6 0.0000 0.0000 0.0000 0.0000 0.0000 16.7475
#
#
#
# Elastic Compliance Matrix: (Units=1/GPa)
#
#
# Indices 1 2 3 4 5 6 
#
# 1 0.008063 -0.001844 -0.003570 0.000000 0.000000 0.000000
# 2 -0.001844 0.016511 -0.004340 0.000000 0.000000 0.000000
# 3 -0.003570 -0.004340 0.009765 0.000000 0.000000 0.000000
# 4 0.000000 0.000000 0.000000 0.053328 0.000000 0.000000
# 5 0.000000 0.000000 0.000000 0.000000 0.023081 0.000000
# 6 0.000000 0.000000 0.000000 0.000000 0.000000 0.059710
#
#
# Mechanical properties :
#
#
# Convention : Reuss Voigt Hill
#
# Bulk Modulus (GPa) = 67.43326 81.59111 74.51218
# Shear Modulus (GPa) = 25.65280 31.19248 28.42264
#
# Velocity S-wave (km/s) = 3.64093 4.01486 3.83246
# Velocity P-wave (km/s) = 7.24721 7.97843 7.62159
#
# Compressibility (1/GPa) = 0.01482948
#
# Stress axis : x y z
#
# Youngs Moduli (GPa) = 124.02343 60.56711 102.40451
#
# Poissons Ratio (x) = 0.11170 0.36561
# Poissons Ratio (y) = 0.22872 0.44446
# Poissons Ratio (z) = 0.44280 0.26287
#
# Static dielectric constant tensor:
#      x y z
#    x 1.649260 0.000000 0.000000 
#    y 0.000000 1.711170 0.000000 
#    z 0.000000 0.000000 1.670120 
# 
# From -- ./inp_files/9934.got.cif
#   From: 2010.05.17/outbox.cif.g08.bks.cpg/sg52_5_cif.got.tgz:9934.got - 2010.06.03 12:15:38.
