data_PCOD9412950
_publ_section_title
;
Structure prediction by ZEFSAII (Michael W. Deem and Ramdas Pophale) SiO2 
 PCOD9412950
Probable space group: P N N A
;
_chemical_formula_sum "Si O2"
_cell_formula_units_Z 32
_cell_length_a 19.357829
_cell_length_b 12.511598
_cell_length_c 5.550618
_cell_angle_alpha 90.000000
_cell_angle_beta 90.000000
_cell_angle_gamma 90.000000
_cell_volume 1344.345107
_symmetry_space_group_name_H-M "P N N A"
_symmetry_group_IT_number 52
_symmetry_cell_setting 'orthorhombic'
loop_
_space_group_symop_operation_xyz
x,y,z
1/2-x,-y,z
x,1/2-y,1/2-z
1/2-x,1/2+y,1/2-z
-x,-y,-z
1/2+x,y,-z
-x,1/2+y,1/2+z
1/2+x,1/2-y,1/2+z
loop_
_atom_site_type_symbol
_atom_site_label
_atom_site_fract_x
_atom_site_fract_y
_atom_site_fract_z
Si Si1 0.062138 0.923300 0.826375
Si Si2 0.382507 0.629954 0.848938
Si Si3 0.750000 0.000000 0.461985
Si Si4 0.451330 0.750000 0.250000
Si Si5 0.634432 0.627997 0.815333
O O1 0.095432 0.882799 0.572420
O O2 0.003835 0.833889 0.875121
O O3 0.058430 0.049085 0.750110
O O4 0.103537 0.927112 0.077660
O O5 0.380311 0.750000 0.750000
O O6 0.309983 0.566763 0.824486
O O7 0.403065 0.662547 0.118965
O O8 0.709182 0.918196 0.628059
O O9 0.637722 0.750000 0.750000
#
# Coordination Sequence:
#
# PCOD9412950 Si02
#       5
#     8   8   4   4   8
#     4  11  26  48  77 112 155 194 255 314 393 453
#     4  11  29  49  78 114 154 212 254 330 388 465
#     4  10  28  48  72 112 152 196 272 308 390 462
#     4  12  26  50  76 120 152 204 260 324 386 482
#     4  11  23  46  77 107 146 207 246 320 381 458
#
# _framework density 23.80341
#
# number of rings (size 3 to 8) (size 9 to 14) (size 15 to 20)
#    0.000    1.000    2.500    0.750   12.250    9.000 
#    0.000    0.000    0.000    0.000    0.000    0.000 
#    0.000    0.000    0.000    0.000    0.000    0.000 
#
# Total GULP energy -178178.060001 kJ/mol
# GULP energy per Si atom -5568.064375 kJ/mol
# Density = 2.374923 g / cm^3
# Si number density = 23.803410 Si / 1000 Ang^3
#
#
#
# Elastic Constant Matrix: (Units=GPa)
#
#
# Indices 1 2 3 4 5 6 
#
# 1 57.6615 31.6333 7.1725 0.0000 0.0000 0.0000
# 2 31.6333 189.6490 22.9413 0.0000 0.0000 0.0000
# 3 7.1725 22.9413 74.1992 0.0000 0.0000 0.0000
# 4 0.0000 0.0000 0.0000 102.4007 0.0000 0.0000
# 5 0.0000 0.0000 0.0000 0.0000 52.2963 0.0000
# 6 0.0000 0.0000 0.0000 0.0000 0.0000 77.3237
#
#
#
# Elastic Compliance Matrix: (Units=1/GPa)
#
#
# Indices 1 2 3 4 5 6 
#
# 1 0.019147 -0.003085 -0.000897 0.000000 0.000000 0.000000
# 2 -0.003085 0.005975 -0.001549 0.000000 0.000000 0.000000
# 3 -0.000897 -0.001549 0.014043 0.000000 0.000000 0.000000
# 4 0.000000 0.000000 0.000000 0.009766 0.000000 0.000000
# 5 0.000000 0.000000 0.000000 0.000000 0.019122 0.000000
# 6 0.000000 0.000000 0.000000 0.000000 0.000000 0.012933
#
#
# Mechanical properties :
#
#
# Convention : Reuss Voigt Hill
#
# Bulk Modulus (GPa) = 35.58456 49.44487 42.51471
# Shear Modulus (GPa) = 49.30272 63.72165 56.51219
#
# Velocity S-wave (km/s) = 4.55603 5.17958 4.87778
# Velocity P-wave (km/s) = 6.53134 7.52250 7.04437
#
# Compressibility (1/GPa) = 0.02810208
#
# Stress axis : x y z
#
# Youngs Moduli (GPa) = 52.22832 167.36700 71.21037
#
# Poissons Ratio (x) = 0.51635 0.06387
# Poissons Ratio (y) = 0.16113 0.11031
# Poissons Ratio (z) = 0.04685 0.25927
#
# Static dielectric constant tensor:
#      x y z
#    x 1.931900 0.000000 0.000000 
#    y 0.000000 1.904270 0.000000 
#    z 0.000000 0.000000 2.039730 
# 
# From -- ./inp_files/3976.got.cif
#   From: 2010.05.17/outbox.cif.g08.bks.cpg/sg52_2_cif.got.tgz:3976.got - 2010.06.03 12:15:38.
