data_PCOD9412176
_publ_section_title
;
Structure prediction by ZEFSAII (Michael W. Deem and Ramdas Pophale) SiO2 
 PCOD9412176
Probable space group: P N N A
;
_chemical_formula_sum "Si O2"
_cell_formula_units_Z 36
_cell_length_a 9.426438
_cell_length_b 7.301041
_cell_length_c 21.321540
_cell_angle_alpha 90.000000
_cell_angle_beta 90.000000
_cell_angle_gamma 90.000000
_cell_volume 1467.408303
_symmetry_space_group_name_H-M "P N N A"
_symmetry_group_IT_number 52
_symmetry_cell_setting 'orthorhombic'
loop_
_space_group_symop_operation_xyz
x,y,z
1/2-x,-y,z
x,1/2-y,1/2-z
1/2-x,1/2+y,1/2-z
-x,-y,-z
1/2+x,y,-z
-x,1/2+y,1/2+z
1/2+x,1/2-y,1/2+z
loop_
_atom_site_type_symbol
_atom_site_label
_atom_site_fract_x
_atom_site_fract_y
_atom_site_fract_z
Si Si1 0.406317 0.574466 0.902733
Si Si2 0.116775 0.376250 0.697425
Si Si3 0.834375 0.671047 0.875429
Si Si4 0.345392 0.250000 0.250000
Si Si5 0.131939 0.130730 0.002332
O O1 0.250000 0.500000 0.893015
O O2 0.432782 0.750634 0.859452
O O3 0.507186 0.411059 0.878823
O O4 0.405529 0.673165 0.970768
O O5 0.250000 0.500000 0.678183
O O6 0.189396 0.250000 0.750000
O O7 0.961337 0.412261 0.731267
O O8 0.750000 0.500000 0.903777
O O9 0.755534 0.712518 0.809738
O O10 0.826850 0.829509 0.926010
O O11 0.250000 0.000000 0.971218
O O12 0.000000 0.000000 0.000000
#
# Coordination Sequence:
#
# PCOD9412176 Si02
#       5
#     8   8   8   4   8
#     4  12  25  49  72 112 149 214 264 314 399 473
#     4  10  22  45  76 111 159 201 262 319 392 479
#     4  12  24  51  79 110 162 201 262 332 398 470
#     4  10  26  48  78 120 156 204 272 318 408 460
#     4  12  27  47  77 115 152 205 263 334 398 470
#
# _framework density 24.533049999999999
#
# number of rings (size 3 to 8) (size 9 to 14) (size 15 to 20)
#    0.667    0.000    2.222    5.333    0.000    0.889 
#   14.000    0.000    4.889    0.000    0.000    0.000 
#    0.000    0.000    0.000    0.000    0.000    0.000 
#
# Total GULP energy -200567.317756 kJ/mol
# GULP energy per Si atom -5571.314382 kJ/mol
# Density = 2.447721 g / cm^3
# Si number density = 24.533050 Si / 1000 Ang^3
#
#
#
# Elastic Constant Matrix: (Units=GPa)
#
#
# Indices 1 2 3 4 5 6 
#
# 1 170.7281 48.8495 49.8365 0.0000 0.0000 0.0000
# 2 48.8495 72.5483 48.3113 0.0000 0.0000 0.0000
# 3 49.8365 48.3113 162.7247 0.0000 0.0000 0.0000
# 4 0.0000 0.0000 0.0000 -46.6559 0.0000 0.0000
# 5 0.0000 0.0000 0.0000 0.0000 24.6668 0.0000
# 6 0.0000 0.0000 0.0000 0.0000 0.0000 63.5218
#
#
#
# Elastic Compliance Matrix: (Units=1/GPa)
#
#
# Indices 1 2 3 4 5 6 
#
# 1 0.007378 -0.004316 -0.000978 0.000000 0.000000 0.000000
# 2 -0.004316 0.019706 -0.004529 0.000000 0.000000 0.000000
# 3 -0.000978 -0.004529 0.007789 0.000000 0.000000 0.000000
# 4 0.000000 0.000000 0.000000 -0.021433 0.000000 0.000000
# 5 0.000000 0.000000 0.000000 0.000000 0.040540 0.000000
# 6 0.000000 0.000000 0.000000 0.000000 0.000000 0.015743
#
#
# Mechanical properties :
#
#
# Convention : Reuss Voigt Hill
#
# Bulk Modulus (GPa) = 65.67242 77.77730 71.72486
# Shear Modulus (GPa) = 52.94125 25.57347 39.25736
#
# Velocity S-wave (km/s) = 4.65042 3.23214 4.00457
# Velocity P-wave (km/s) = 7.46072 6.76024 7.11910
#
# Compressibility (1/GPa) = 0.01522709
#
# Stress axis : x y z
#
# Youngs Moduli (GPa) = 135.54171 50.74602 128.38028
#
# Poissons Ratio (x) = 0.21904 0.12556
# Poissons Ratio (y) = 0.58506 0.58137
# Poissons Ratio (z) = 0.13256 0.22981
#
# Static dielectric constant tensor:
#      x y z
#    x 1.906320 0.000000 0.000000 
#    y 0.000000 2.023930 0.000000 
#    z 0.000000 0.000000 2.064230 
# 
# From -- ./inp_files/35568.got.cif
#   From: 2010.05.17/outbox.cif.g08.bks.cpg/sg52_18_cif.got.tgz:35568.got - 2010.06.03 12:15:38.
