data_PCOD9412211
_publ_section_title
;
Structure prediction by ZEFSAII (Michael W. Deem and Ramdas Pophale) SiO2 
 PCOD9412211
Probable space group: P N N A
;
_chemical_formula_sum "Si O2"
_cell_formula_units_Z 48
_cell_length_a 27.495892
_cell_length_b 5.843738
_cell_length_c 13.996103
_cell_angle_alpha 90.000000
_cell_angle_beta 90.000000
_cell_angle_gamma 90.000000
_cell_volume 2248.876880
_symmetry_space_group_name_H-M "P N N A"
_symmetry_group_IT_number 52
_symmetry_cell_setting 'orthorhombic'
loop_
_space_group_symop_operation_xyz
x,y,z
1/2-x,-y,z
x,1/2-y,1/2-z
1/2-x,1/2+y,1/2-z
-x,-y,-z
1/2+x,y,-z
-x,1/2+y,1/2+z
1/2+x,1/2-y,1/2+z
loop_
_atom_site_type_symbol
_atom_site_label
_atom_site_fract_x
_atom_site_fract_y
_atom_site_fract_z
Si Si1 0.802912 0.107168 0.882668
Si Si2 0.750000 0.500000 0.962136
Si Si3 0.122206 0.750000 0.250000
Si Si4 0.422181 0.250000 0.750000
Si Si5 0.127682 0.250000 0.750000
Si Si6 0.834631 0.715305 0.460781
Si Si7 0.486136 0.294226 0.569098
Si Si8 0.578787 0.016699 0.570858
O O1 0.841480 0.068988 0.800101
O O2 0.750000 0.000000 0.864756
O O3 0.788890 0.370012 0.897053
O O4 0.827280 0.018924 0.980383
O O5 0.782278 0.666233 0.025677
O O6 0.094208 0.633772 0.162231
O O7 0.396052 0.495561 0.775119
O O8 0.454737 0.337701 0.662237
O O9 0.153985 0.308269 0.650193
O O10 0.876728 0.857915 0.516362
O O11 0.500000 0.500000 0.500000
O O12 0.537686 0.194815 0.602906
O O13 0.451542 0.131115 0.505867
#
# Coordination Sequence:
#
# PCOD9412211 Si02
#       8
#     8   4   4   4   4   8   8   8
#     4  10  25  43  71 104 150 188 237 305 374 445
#     4  10  22  48  68 102 150 186 238 310 368 444
#     4  12  26  41  76 103 142 189 246 293 378 446
#     4  12  28  48  79 111 146 201 249 316 384 450
#     4  12  28  47  81 106 146 202 257 307 390 436
#     4  11  24  48  72 102 146 192 247 309 370 445
#     4  11  27  47  72 102 150 189 250 308 379 443
#     4  11  26  46  69 106 143 190 243 309 366 451
#
# _framework density 21.343989000000001
#
# number of rings (size 3 to 8) (size 9 to 14) (size 15 to 20)
#    0.000    1.000    3.333    1.000   12.833    0.667 
#    4.500    0.000    0.000    0.000    0.000    0.000 
#    0.000    0.000    0.000    0.000    0.000    0.000 
#
# Total GULP energy -267603.760711 kJ/mol
# GULP energy per Si atom -5575.078348 kJ/mol
# Density = 2.129541 g / cm^3
# Si number density = 21.343989 Si / 1000 Ang^3
#
#
#
# Elastic Constant Matrix: (Units=GPa)
#
#
# Indices 1 2 3 4 5 6 
#
# 1 94.3029 18.3107 41.8354 0.0000 0.0000 0.0000
# 2 18.3107 60.9401 11.0082 0.0000 0.0000 0.0000
# 3 41.8354 11.0082 133.7195 0.0000 0.0000 0.0000
# 4 0.0000 0.0000 0.0000 30.1302 0.0000 0.0000
# 5 0.0000 0.0000 0.0000 0.0000 33.1890 0.0000
# 6 0.0000 0.0000 0.0000 0.0000 0.0000 27.7263
#
#
#
# Elastic Compliance Matrix: (Units=1/GPa)
#
#
# Indices 1 2 3 4 5 6 
#
# 1 0.012898 -0.003194 -0.003772 0.000000 0.000000 0.000000
# 2 -0.003194 0.017448 -0.000437 0.000000 0.000000 0.000000
# 3 -0.003772 -0.000437 0.008695 0.000000 0.000000 0.000000
# 4 0.000000 0.000000 0.000000 0.033189 0.000000 0.000000
# 5 0.000000 0.000000 0.000000 0.000000 0.030130 0.000000
# 6 0.000000 0.000000 0.000000 0.000000 0.000000 0.036067
#
#
# Mechanical properties :
#
#
# Convention : Reuss Voigt Hill
#
# Bulk Modulus (GPa) = 41.26470 47.91902 44.59186
# Shear Modulus (GPa) = 30.99588 32.72964 31.86276
#
# Velocity S-wave (km/s) = 3.81492 3.92016 3.86790
# Velocity P-wave (km/s) = 6.22735 6.55666 6.39413
#
# Compressibility (1/GPa) = 0.02423379
#
# Stress axis : x y z
#
# Youngs Moduli (GPa) = 77.53277 57.31243 115.01507
#
# Poissons Ratio (x) = 0.18305 0.43387
# Poissons Ratio (y) = 0.24764 0.05028
# Poissons Ratio (z) = 0.29247 0.02505
#
# Static dielectric constant tensor:
#      x y z
#    x 1.781850 0.000000 0.000000 
#    y 0.000000 1.896300 0.000000 
#    z 0.000000 0.000000 1.723840 
# 
# From -- ./inp_files/29488.got.cif
#   From: 2010.05.17/outbox.cif.g08.bks.cpg/sg52_15_cif.got.tgz:29488.got - 2010.06.03 12:15:38.
