data_PCOD9412447
_publ_section_title
;
Structure prediction by ZEFSAII (Michael W. Deem and Ramdas Pophale) SiO2 
 PCOD9412447
Probable space group: P N N A
;
_chemical_formula_sum "Si O2"
_cell_formula_units_Z 40
_cell_length_a 11.531861
_cell_length_b 16.832359
_cell_length_c 9.913504
_cell_angle_alpha 90.000000
_cell_angle_beta 90.000000
_cell_angle_gamma 90.000000
_cell_volume 1924.294641
_symmetry_space_group_name_H-M "P N N A"
_symmetry_group_IT_number 52
_symmetry_cell_setting 'orthorhombic'
loop_
_space_group_symop_operation_xyz
x,y,z
1/2-x,-y,z
x,1/2-y,1/2-z
1/2-x,1/2+y,1/2-z
-x,-y,-z
1/2+x,y,-z
-x,1/2+y,1/2+z
1/2+x,1/2-y,1/2+z
loop_
_atom_site_type_symbol
_atom_site_label
_atom_site_fract_x
_atom_site_fract_y
_atom_site_fract_z
Si Si1 0.713420 0.338173 0.448044
Si Si2 0.936749 0.450537 0.114362
Si Si3 0.250000 0.000000 0.807109
Si Si4 0.162339 0.812641 0.439985
Si Si5 0.382898 0.837991 0.243903
Si Si6 0.037707 0.250000 0.750000
O O1 0.764516 0.419982 0.392618
O O2 0.804909 0.267996 0.480373
O O3 0.653069 0.354660 0.591347
O O4 0.620330 0.304358 0.341830
O O5 0.861143 0.505670 0.210754
O O6 0.031747 0.403030 0.198993
O O7 0.856137 0.384689 0.042351
O O8 0.000000 0.500000 0.000000
O O9 0.268662 0.831116 0.338528
O O10 0.047450 0.798023 0.350770
O O11 0.438225 0.750000 0.250000
#
# Coordination Sequence:
#
# PCOD9412447 Si02
#       6
#     8   8   4   8   8   4
#     4  11  25  44  65 103 135 179 239 282 350 427
#     4  12  26  43  68 101 141 180 232 290 356 418
#     4  12  28  42  64 102 138 188 220 288 358 406
#     4  11  22  45  72  96 134 183 232 286 350 417
#     4  10  23  44  70 101 132 183 236 285 348 421
#     4  12  22  42  74  98 132 178 232 296 346 414
#
# _framework density 20.786839000000001
#
# number of rings (size 3 to 8) (size 9 to 14) (size 15 to 20)
#    0.000    0.800    3.000    6.000    5.600    2.400 
#    0.000    0.000    0.000    0.000    0.000    0.000 
#    0.000    0.000    0.000    0.000    0.000    0.000 
#
# Total GULP energy -223920.372531 kJ/mol
# GULP energy per Si atom -5598.009313 kJ/mol
# Density = 2.073953 g / cm^3
# Si number density = 20.786839 Si / 1000 Ang^3
#
#
#
# Elastic Constant Matrix: (Units=GPa)
#
#
# Indices 1 2 3 4 5 6 
#
# 1 70.7076 37.0963 40.7150 0.0000 0.0000 0.0000
# 2 37.0963 94.3473 63.1736 0.0000 0.0000 0.0000
# 3 40.7150 63.1736 112.7474 0.0000 0.0000 0.0000
# 4 0.0000 0.0000 0.0000 39.8801 0.0000 0.0000
# 5 0.0000 0.0000 0.0000 0.0000 31.0898 0.0000
# 6 0.0000 0.0000 0.0000 0.0000 0.0000 1.8876
#
#
#
# Elastic Compliance Matrix: (Units=1/GPa)
#
#
# Indices 1 2 3 4 5 6 
#
# 1 0.019032 -0.004611 -0.004289 0.000000 0.000000 0.000000
# 2 -0.004611 0.018081 -0.008466 0.000000 0.000000 0.000000
# 3 -0.004289 -0.008466 0.015162 0.000000 0.000000 0.000000
# 4 0.000000 0.000000 0.000000 0.025075 0.000000 0.000000
# 5 0.000000 0.000000 0.000000 0.000000 0.032165 0.000000
# 6 0.000000 0.000000 0.000000 0.000000 0.000000 0.529770
#
#
# Mechanical properties :
#
#
# Convention : Reuss Voigt Hill
#
# Bulk Modulus (GPa) = 57.00486 62.19689 59.60088
# Shear Modulus (GPa) = 7.35443 23.69267 15.52355
#
# Velocity S-wave (km/s) = 1.88300 3.37974 2.73572
# Velocity P-wave (km/s) = 5.67544 6.72432 6.22202
#
# Compressibility (1/GPa) = 0.01754236
#
# Stress axis : x y z
#
# Youngs Moduli (GPa) = 52.54398 55.30769 65.95631
#
# Poissons Ratio (x) = 0.25504 0.28288
# Poissons Ratio (y) = 0.24229 0.55836
# Poissons Ratio (z) = 0.22536 0.46821
#
# Static dielectric constant tensor:
#      x y z
#    x 1.731640 0.000000 0.000000 
#    y 0.000000 1.715470 0.000000 
#    z 0.000000 0.000000 1.729950 
# 
# From -- ./inp_files/8553.got.cif
#   From: 2010.05.17/outbox.cif.g08.bks.cpg/sg52_5_cif.got.tgz:8553.got - 2010.06.03 12:15:38.
