data_PCOD9412839
_publ_section_title
;
Structure prediction by ZEFSAII (Michael W. Deem and Ramdas Pophale) SiO2 
 PCOD9412839
Probable space group: P N N A
;
_chemical_formula_sum "Si O2"
_cell_formula_units_Z 32
_cell_length_a 15.143028
_cell_length_b 16.291408
_cell_length_c 5.232474
_cell_angle_alpha 90.000000
_cell_angle_beta 90.000000
_cell_angle_gamma 90.000000
_cell_volume 1290.857863
_symmetry_space_group_name_H-M "P N N A"
_symmetry_group_IT_number 52
_symmetry_cell_setting 'orthorhombic'
loop_
_space_group_symop_operation_xyz
x,y,z
1/2-x,-y,z
x,1/2-y,1/2-z
1/2-x,1/2+y,1/2-z
-x,-y,-z
1/2+x,y,-z
-x,1/2+y,1/2+z
1/2+x,1/2-y,1/2+z
loop_
_atom_site_type_symbol
_atom_site_label
_atom_site_fract_x
_atom_site_fract_y
_atom_site_fract_z
Si Si1 0.650378 0.974096 0.475695
Si Si2 0.314049 0.799158 0.007410
Si Si3 0.373313 0.129743 0.023483
Si Si4 0.548257 0.421428 0.368629
O O1 0.649051 0.937488 0.757392
O O2 0.750000 0.000000 0.419279
O O3 0.582264 0.047475 0.407799
O O4 0.627354 0.905231 0.264357
O O5 0.347030 0.750000 0.250000
O O6 0.208413 0.808933 0.029994
O O7 0.333679 0.750000 0.750000
O O8 0.363180 0.886483 0.995802
O O9 0.473859 0.148943 0.104973
O O10 0.500000 0.500000 0.500000
#
# Coordination Sequence:
#
# PCOD9412839 Si02
#       4
#     8   8   8   8
#     4  11  21  39  72 102 141 171 231 298 369 415
#     4  12  28  47  70 101 150 204 243 301 380 459
#     4  11  24  43  68 102 139 183 234 294 364 434
#     4  10  25  45  75 111 141 187 250 314 365 427
#
# _framework density 24.789715999999999
#
# number of rings (size 3 to 8) (size 9 to 14) (size 15 to 20)
#    0.000    1.000    2.500    3.000    3.500    6.000 
#    0.000    0.000    0.000    0.000    0.000    0.000 
#    0.000    0.000    0.000    0.000    0.000    0.000 
#
# Total GULP energy -178798.462229 kJ/mol
# GULP energy per Si atom -5587.451945 kJ/mol
# Density = 2.473329 g / cm^3
# Si number density = 24.789716 Si / 1000 Ang^3
#
#
#
# Elastic Constant Matrix: (Units=GPa)
#
#
# Indices 1 2 3 4 5 6 
#
# 1 123.5041 1.2605 19.9407 0.0000 0.0000 0.0000
# 2 1.2605 47.6844 54.7756 0.0000 0.0000 0.0000
# 3 19.9407 54.7756 130.5274 0.0000 0.0000 0.0000
# 4 0.0000 0.0000 0.0000 41.7593 0.0000 0.0000
# 5 0.0000 0.0000 0.0000 0.0000 292.1984 0.0000
# 6 0.0000 0.0000 0.0000 0.0000 0.0000 -196.7075
#
#
#
# Elastic Compliance Matrix: (Units=1/GPa)
#
#
# Indices 1 2 3 4 5 6 
#
# 1 0.008445 0.002430 -0.002310 0.000000 0.000000 0.000000
# 2 0.002430 0.041189 -0.017656 0.000000 0.000000 0.000000
# 3 -0.002310 -0.017656 0.015423 0.000000 0.000000 0.000000
# 4 0.000000 0.000000 0.000000 0.023947 0.000000 0.000000
# 5 0.000000 0.000000 0.000000 0.000000 0.003422 0.000000
# 6 0.000000 0.000000 0.000000 0.000000 0.000000 -0.005084
#
#
# Mechanical properties :
#
#
# Convention : Reuss Voigt Hill
#
# Bulk Modulus (GPa) = 33.34921 50.40770 41.87846
# Shear Modulus (GPa) = 37.76170 42.49933 40.13052
#
# Velocity S-wave (km/s) = 3.90716 4.14502 4.02784
# Velocity P-wave (km/s) = 5.81692 6.57925 6.20979
#
# Compressibility (1/GPa) = 0.02998572
#
# Stress axis : x y z
#
# Youngs Moduli (GPa) = 118.41226 24.27853 64.83632
#
# Poissons Ratio (x) = -0.05901 0.14977
# Poissons Ratio (y) = -0.28778 1.14475
# Poissons Ratio (z) = 0.27354 0.42866
#
# Static dielectric constant tensor:
#      x y z
#    x 2.039030 0.000000 0.000000 
#    y 0.000000 2.039520 0.000000 
#    z 0.000000 0.000000 1.358440 
# 
# From -- ./inp_files/1922.got.cif
#   From: 2010.05.17/outbox.cif.g08.bks.cpg/sg52_1_cif.got.tgz:1922.got - 2010.06.03 12:15:38.
