data_PCOD9412490
_publ_section_title
;
Structure prediction by ZEFSAII (Michael W. Deem and Ramdas Pophale) SiO2 
 PCOD9412490
Probable space group: P N N A
;
_chemical_formula_sum "Si O2"
_cell_formula_units_Z 28
_cell_length_a 14.938228
_cell_length_b 7.059989
_cell_length_c 11.979798
_cell_angle_alpha 90.000000
_cell_angle_beta 90.000000
_cell_angle_gamma 90.000000
_cell_volume 1263.434126
_symmetry_space_group_name_H-M "P N N A"
_symmetry_group_IT_number 52
_symmetry_cell_setting 'orthorhombic'
loop_
_space_group_symop_operation_xyz
x,y,z
1/2-x,-y,z
x,1/2-y,1/2-z
1/2-x,1/2+y,1/2-z
-x,-y,-z
1/2+x,y,-z
-x,1/2+y,1/2+z
1/2+x,1/2-y,1/2+z
loop_
_atom_site_type_symbol
_atom_site_label
_atom_site_fract_x
_atom_site_fract_y
_atom_site_fract_z
Si Si1 0.250000 0.000000 0.856340
Si Si2 0.727922 0.778349 0.558098
Si Si3 0.388941 0.750000 0.750000
Si Si4 0.630599 0.250000 0.750000
Si Si5 0.038983 0.585892 0.113511
O O1 0.329657 0.931153 0.778366
O O2 0.231811 0.828072 0.941018
O O3 0.800862 0.700689 0.647535
O O4 0.626306 0.782393 0.600876
O O5 0.750000 0.000000 0.543197
O O6 0.455750 0.709135 0.848938
O O7 0.569915 0.420232 0.799704
O O8 0.000000 0.500000 0.000000
#
# Coordination Sequence:
#
# PCOD9412490 Si02
#       5
#     4   8   4   4   8
#     4  12  30  46  76  94 152 188 244 296 368 434
#     4  10  24  47  74 109 142 193 236 295 368 437
#     4  12  29  45  70 108 138 200 232 301 373 426
#     4  10  23  45  78 106 150 186 240 303 363 444
#     4  11  26  46  73 109 144 184 248 298 361 432
#
# _framework density 22.161822000000001
#
# number of rings (size 3 to 8) (size 9 to 14) (size 15 to 20)
#    0.000    1.143    0.000    4.286   20.000    1.143 
#    0.000    0.000    0.000    0.000    0.000    0.000 
#    0.000    0.000    0.000    0.000    0.000    0.000 
#
# Total GULP energy -156533.550493 kJ/mol
# GULP energy per Si atom -5590.483946 kJ/mol
# Density = 2.211138 g / cm^3
# Si number density = 22.161822 Si / 1000 Ang^3
#
#
#
# Elastic Constant Matrix: (Units=GPa)
#
#
# Indices 1 2 3 4 5 6 
#
# 1 144.0821 30.0644 8.7895 0.0000 0.0000 0.0000
# 2 30.0644 51.8263 2.1460 0.0000 0.0000 0.0000
# 3 8.7895 2.1460 27.7521 0.0000 0.0000 0.0000
# 4 0.0000 0.0000 0.0000 55.8312 0.0000 0.0000
# 5 0.0000 0.0000 0.0000 0.0000 843.8687 0.0000
# 6 0.0000 0.0000 0.0000 0.0000 0.0000 46.5700
#
#
#
# Elastic Compliance Matrix: (Units=1/GPa)
#
#
# Indices 1 2 3 4 5 6 
#
# 1 0.008027 -0.004566 -0.002189 0.000000 0.000000 0.000000
# 2 -0.004566 0.021954 -0.000252 0.000000 0.000000 0.000000
# 3 -0.002189 -0.000252 0.036746 0.000000 0.000000 0.000000
# 4 0.000000 0.000000 0.000000 0.017911 0.000000 0.000000
# 5 0.000000 0.000000 0.000000 0.000000 0.001185 0.000000
# 6 0.000000 0.000000 0.000000 0.000000 0.000000 0.021473
#
#
# Mechanical properties :
#
#
# Convention : Reuss Voigt Hill
#
# Bulk Modulus (GPa) = 18.97022 33.96224 26.46623
# Shear Modulus (GPa) = 36.00219 201.43135 118.71677
#
# Velocity S-wave (km/s) = 4.03490 9.54403 7.32697
# Velocity P-wave (km/s) = 5.50324 11.69655 9.14043
#
# Compressibility (1/GPa) = 0.05271420
#
# Stress axis : x y z
#
# Youngs Moduli (GPa) = 124.58412 45.54941 27.21375
#
# Poissons Ratio (x) = 0.20796 0.05957
# Poissons Ratio (y) = 0.56881 0.00685
# Poissons Ratio (z) = 0.27273 0.01146
#
# Static dielectric constant tensor:
#      x y z
#    x 1.726000 0.000000 0.000000 
#    y 0.000000 1.761740 0.000000 
#    z 0.000000 0.000000 1.741720 
# 
# From -- ./inp_files/18818.got.cif
#   From: 2010.05.17/outbox.cif.g08.bks.cpg/sg52_10_cif.got.tgz:18818.got - 2010.06.03 12:15:38.
