data_PCOD9412910
_publ_section_title
;
Structure prediction by ZEFSAII (Michael W. Deem and Ramdas Pophale) SiO2 
 PCOD9412910
Probable space group: P N N A
;
_chemical_formula_sum "Si O2"
_cell_formula_units_Z 16
_cell_length_a 5.392756
_cell_length_b 4.759034
_cell_length_c 19.501854
_cell_angle_alpha 90.000000
_cell_angle_beta 90.000000
_cell_angle_gamma 90.000000
_cell_volume 500.501610
_symmetry_space_group_name_H-M "P N N A"
_symmetry_group_IT_number 52
_symmetry_cell_setting 'orthorhombic'
loop_
_space_group_symop_operation_xyz
x,y,z
1/2-x,-y,z
x,1/2-y,1/2-z
1/2-x,1/2+y,1/2-z
-x,-y,-z
1/2+x,y,-z
-x,1/2+y,1/2+z
1/2+x,1/2-y,1/2+z
loop_
_atom_site_type_symbol
_atom_site_label
_atom_site_fract_x
_atom_site_fract_y
_atom_site_fract_z
Si Si1 0.067117 0.750000 0.750000
Si Si2 0.250000 0.500000 0.022207
Si Si3 0.468873 0.602229 0.398388
O O1 0.250000 0.500000 0.767114
O O2 0.921831 0.702074 0.680287
O O3 0.171065 0.787472 0.077074
O O4 0.453743 0.337268 0.961422
O O5 0.750000 0.500000 0.389782
#
# Coordination Sequence:
#
# PCOD9412910 Si02
#       3
#     4   4   8
#     4  10  26  46  80 116 156 198 252 324 398 468
#     4  12  28  46  76 106 154 204 262 316 384 470
#     4  11  27  46  75 110 151 200 256 324 395 466
#
# _framework density 31.967931
#
# number of rings (size 3 to 8) (size 9 to 14) (size 15 to 20)
#    0.000    1.000    0.000    3.000   21.000    8.000 
#    0.000    0.000    0.000    0.000    0.000    0.000 
#    0.000    0.000    0.000    0.000    0.000    0.000 
#
# Total GULP energy -89276.173392 kJ/mol
# GULP energy per Si atom -5579.760837 kJ/mol
# Density = 3.189517 g / cm^3
# Si number density = 31.967931 Si / 1000 Ang^3
#
#
#
# Elastic Constant Matrix: (Units=GPa)
#
#
# Indices 1 2 3 4 5 6 
#
# 1 343.6446 76.0331 114.2680 0.0000 0.0000 0.0000
# 2 76.0331 192.8211 136.2576 0.0000 0.0000 0.0000
# 3 114.2680 136.2576 404.0147 0.0000 0.0000 0.0000
# 4 0.0000 0.0000 0.0000 34.8691 0.0000 0.0000
# 5 0.0000 0.0000 0.0000 0.0000 40.5843 0.0000
# 6 0.0000 0.0000 0.0000 0.0000 0.0000 117.3375
#
#
#
# Elastic Compliance Matrix: (Units=1/GPa)
#
#
# Indices 1 2 3 4 5 6 
#
# 1 0.003314 -0.000846 -0.000652 0.000000 0.000000 0.000000
# 2 -0.000846 0.007025 -0.002130 0.000000 0.000000 0.000000
# 3 -0.000652 -0.002130 0.003378 0.000000 0.000000 0.000000
# 4 0.000000 0.000000 0.000000 0.028679 0.000000 0.000000
# 5 0.000000 0.000000 0.000000 0.000000 0.024640 0.000000
# 6 0.000000 0.000000 0.000000 0.000000 0.000000 0.008522
#
#
# Mechanical properties :
#
#
# Convention : Reuss Voigt Hill
#
# Bulk Modulus (GPa) = 154.77761 177.06641 165.92201
# Shear Modulus (GPa) = 58.84610 79.48629 69.16620
#
# Velocity S-wave (km/s) = 4.29509 4.99183 4.65651
# Velocity P-wave (km/s) = 8.55095 9.41985 8.99589
#
# Compressibility (1/GPa) = 0.00646088
#
# Stress axis : x y z
#
# Youngs Moduli (GPa) = 301.75352 142.35126 296.04356
#
# Poissons Ratio (x) = 0.12044 0.19301
# Poissons Ratio (y) = 0.25530 0.63055
# Poissons Ratio (z) = 0.19673 0.30320
#
# Static dielectric constant tensor:
#      x y z
#    x 2.651080 0.000000 0.000000 
#    y 0.000000 2.795550 0.000000 
#    z 0.000000 0.000000 2.356570 
# 
# From -- ./inp_files/30403.got.cif
#   From: 2010.05.17/outbox.cif.g08.bks.cpg/sg52_16_cif.got.tgz:30403.got - 2010.06.03 12:15:38.
