data_PCOD9412674
_publ_section_title
;
Structure prediction by ZEFSAII (Michael W. Deem and Ramdas Pophale) SiO2 
 PCOD9412674
Probable space group: P N N A
;
_chemical_formula_sum "Si O2"
_cell_formula_units_Z 48
_cell_length_a 9.999674
_cell_length_b 15.073739
_cell_length_c 14.881924
_cell_angle_alpha 90.000000
_cell_angle_beta 90.000000
_cell_angle_gamma 90.000000
_cell_volume 2243.189252
_symmetry_space_group_name_H-M "P N N A"
_symmetry_group_IT_number 52
_symmetry_cell_setting 'orthorhombic'
loop_
_space_group_symop_operation_xyz
x,y,z
1/2-x,-y,z
x,1/2-y,1/2-z
1/2-x,1/2+y,1/2-z
-x,-y,-z
1/2+x,y,-z
-x,1/2+y,1/2+z
1/2+x,1/2-y,1/2+z
loop_
_atom_site_type_symbol
_atom_site_label
_atom_site_fract_x
_atom_site_fract_y
_atom_site_fract_z
Si Si1 0.530375 0.760530 0.532235
Si Si2 0.750000 0.500000 0.383195
Si Si3 0.347548 0.079084 0.556451
Si Si4 0.702687 0.354036 0.534367
Si Si5 0.657908 0.310313 0.177449
Si Si6 0.750000 0.000000 0.814772
Si Si7 0.461102 0.506941 0.763854
O O1 0.558112 0.864379 0.509200
O O2 0.666692 0.706706 0.530844
O O3 0.426382 0.709559 0.467430
O O4 0.460962 0.757775 0.629420
O O5 0.701530 0.420518 0.448357
O O6 0.628007 0.531057 0.318692
O O7 0.251726 0.153244 0.599655
O O8 0.428121 0.040736 0.641941
O O9 0.250000 0.000000 0.521263
O O10 0.718378 0.416865 0.620510
O O11 0.730561 0.250000 0.250000
O O12 0.598104 0.395202 0.225847
O O13 0.616537 0.988445 0.757138
#
# Coordination Sequence:
#
# PCOD9412674 Si02
#       7
#     8   4   8   8   8   4   8
#     4  12  24  42  66 100 131 173 224 280 332 405
#     4  11  20  42  68  91 130 176 226 265 330 432
#     4  10  24  44  66  97 129 182 228 269 332 399
#     4  11  24  39  65  97 132 172 214 279 350 404
#     4  11  22  41  67  94 129 170 224 274 321 397
#     4  11  24  42  60  99 140 162 210 287 354 400
#     4  11  23  41  66  93 125 178 221 267 335 399
#
# _framework density 21.398105999999999
#
# number of rings (size 3 to 8) (size 9 to 14) (size 15 to 20)
#    0.000    1.000    4.167    4.000    0.000    8.000 
#    1.500    1.667    0.000    0.000    0.000    0.000 
#    0.000    0.000    0.000    0.000    0.000    0.000 
#
# Total GULP energy -268304.729788 kJ/mol
# GULP energy per Si atom -5589.681871 kJ/mol
# Density = 2.134940 g / cm^3
# Si number density = 21.398106 Si / 1000 Ang^3
#
#
#
# Elastic Constant Matrix: (Units=GPa)
#
#
# Indices 1 2 3 4 5 6 
#
# 1 67.3666 -11.6714 -11.0613 0.0000 0.0000 0.0000
# 2 -11.6714 71.9106 7.4090 0.0000 0.0000 0.0000
# 3 -11.0613 7.4090 26.5988 0.0000 0.0000 0.0000
# 4 0.0000 0.0000 0.0000 23.2624 0.0000 0.0000
# 5 0.0000 0.0000 0.0000 0.0000 13.8116 0.0000
# 6 0.0000 0.0000 0.0000 0.0000 0.0000 28.3806
#
#
#
# Elastic Compliance Matrix: (Units=1/GPa)
#
#
# Indices 1 2 3 4 5 6 
#
# 1 0.016205 0.001993 0.006184 0.000000 0.000000 0.000000
# 2 0.001993 0.014562 -0.003227 0.000000 0.000000 0.000000
# 3 0.006184 -0.003227 0.041066 0.000000 0.000000 0.000000
# 4 0.000000 0.000000 0.000000 0.042988 0.000000 0.000000
# 5 0.000000 0.000000 0.000000 0.000000 0.072403 0.000000
# 6 0.000000 0.000000 0.000000 0.000000 0.000000 0.035235
#
#
# Mechanical properties :
#
#
# Convention : Reuss Voigt Hill
#
# Bulk Modulus (GPa) = 12.23514 15.02540 13.63027
# Shear Modulus (GPa) = 20.85032 25.17091 23.01062
#
# Velocity S-wave (km/s) = 3.12493 3.43347 3.28282
# Velocity P-wave (km/s) = 4.33018 4.77025 4.55554
#
# Compressibility (1/GPa) = 0.08173181
#
# Stress axis : x y z
#
# Youngs Moduli (GPa) = 61.71010 68.67124 24.35092
#
# Poissons Ratio (x) = -0.13686 -0.15058
# Poissons Ratio (y) = -0.12299 0.07859
# Poissons Ratio (z) = -0.38160 0.22163
#
# Static dielectric constant tensor:
#      x y z
#    x 1.689770 0.000000 0.000000 
#    y 0.000000 1.813910 0.000000 
#    z 0.000000 0.000000 1.793140 
# 
# From -- ./inp_files/31267.got.cif
#   From: 2010.05.17/outbox.cif.g08.bks.cpg/sg52_16_cif.got.tgz:31267.got - 2010.06.03 12:15:38.
