data_PCOD9412947
_publ_section_title
;
Structure prediction by ZEFSAII (Michael W. Deem and Ramdas Pophale) SiO2 
 PCOD9412947
Probable space group: P N N A
;
_chemical_formula_sum "Si O2"
_cell_formula_units_Z 48
_cell_length_a 8.225626
_cell_length_b 16.524558
_cell_length_c 14.630589
_cell_angle_alpha 90.000000
_cell_angle_beta 90.000000
_cell_angle_gamma 90.000000
_cell_volume 1988.660380
_symmetry_space_group_name_H-M "P N N A"
_symmetry_group_IT_number 52
_symmetry_cell_setting 'orthorhombic'
loop_
_space_group_symop_operation_xyz
x,y,z
1/2-x,-y,z
x,1/2-y,1/2-z
1/2-x,1/2+y,1/2-z
-x,-y,-z
1/2+x,y,-z
-x,1/2+y,1/2+z
1/2+x,1/2-y,1/2+z
loop_
_atom_site_type_symbol
_atom_site_label
_atom_site_fract_x
_atom_site_fract_y
_atom_site_fract_z
Si Si1 0.941925 0.913378 0.961251
Si Si2 0.081185 0.449430 0.261069
Si Si3 0.750000 0.500000 0.195256
Si Si4 0.736241 0.166736 0.403269
Si Si5 0.857583 0.329089 0.599152
Si Si6 0.101310 0.318222 0.097677
Si Si7 0.520237 0.250000 0.250000
O O1 0.985242 0.905894 0.853793
O O2 0.750328 0.900318 0.945088
O O3 0.990661 0.842124 0.031512
O O4 0.000000 0.000000 0.000000
O O5 0.250000 0.500000 0.272445
O O6 0.111308 0.383255 0.180520
O O7 0.925436 0.506838 0.243315
O O8 0.772192 0.420253 0.137415
O O9 0.645854 0.148624 0.497876
O O10 0.624922 0.215034 0.332814
O O11 0.912874 0.208918 0.407943
O O12 0.736576 0.252174 0.603627
O O13 0.921476 0.323285 0.702527
#
# Coordination Sequence:
#
# PCOD9412947 Si02
#       7
#     8   8   4   8   8   8   4
#     4  12  28  47  75 113 156 208 265 324 403 486
#     4  11  27  48  77 115 163 214 268 334 409 487
#     4  10  28  42  76 112 154 210 268 324 404 480
#     4  11  26  47  73 115 153 206 262 330 403 486
#     4  12  27  47  77 113 152 207 262 330 402 483
#     4  11  26  47  78 114 152 204 265 329 407 482
#     4  12  28  48  82 108 162 206 268 332 404 482
#
# _framework density 24.136852000000001
#
# number of rings (size 3 to 8) (size 9 to 14) (size 15 to 20)
#    0.000    0.667    0.000    5.500   12.833    8.667 
#    0.000    0.000    0.000    0.000    0.000    0.000 
#    0.000    0.000    0.000    0.000    0.000    0.000 
#
# Total GULP energy -267592.738663 kJ/mol
# GULP energy per Si atom -5574.848722 kJ/mol
# Density = 2.408192 g / cm^3
# Si number density = 24.136852 Si / 1000 Ang^3
#
#
#
# Elastic Constant Matrix: (Units=GPa)
#
#
# Indices 1 2 3 4 5 6 
#
# 1 150.1600 42.8012 66.6073 0.0000 0.0000 0.0000
# 2 42.8012 97.6441 46.7851 0.0000 0.0000 0.0000
# 3 66.6073 46.7851 167.5115 0.0000 0.0000 0.0000
# 4 0.0000 0.0000 0.0000 -20.0027 0.0000 0.0000
# 5 0.0000 0.0000 0.0000 0.0000 38.1264 0.0000
# 6 0.0000 0.0000 0.0000 0.0000 0.0000 37.6158
#
#
#
# Elastic Compliance Matrix: (Units=1/GPa)
#
#
# Indices 1 2 3 4 5 6 
#
# 1 0.008565 -0.002451 -0.002721 0.000000 0.000000 0.000000
# 2 -0.002451 0.012525 -0.002524 0.000000 0.000000 0.000000
# 3 -0.002721 -0.002524 0.007757 0.000000 0.000000 0.000000
# 4 0.000000 0.000000 0.000000 -0.049993 0.000000 0.000000
# 5 0.000000 0.000000 0.000000 0.000000 0.026229 0.000000
# 6 0.000000 0.000000 0.000000 0.000000 0.000000 0.026585
#
#
# Mechanical properties :
#
#
# Convention : Reuss Voigt Hill
#
# Bulk Modulus (GPa) = 74.31967 80.85587 77.58777
# Shear Modulus (GPa) = 97.00733 28.42270 62.71501
#
# Velocity S-wave (km/s) = 6.34648 3.43529 5.10289
# Velocity P-wave (km/s) = 9.19573 7.02187 8.18132
#
# Compressibility (1/GPa) = 0.01345539
#
# Stress axis : x y z
#
# Youngs Moduli (GPa) = 116.75179 79.84273 128.92141
#
# Poissons Ratio (x) = 0.19566 0.35084
# Poissons Ratio (y) = 0.28611 0.32535
# Poissons Ratio (z) = 0.31772 0.20150
#
# Static dielectric constant tensor:
#      x y z
#    x 2.872750 0.000000 0.000000 
#    y 0.000000 1.959410 0.000000 
#    z 0.000000 0.000000 2.223000 
# 
# From -- ./inp_files/24767.got.cif
#   From: 2010.05.17/outbox.cif.g08.bks.cpg/sg52_13_cif.got.tgz:24767.got - 2010.06.03 12:15:38.
