data_PCOD9412940
_publ_section_title
;
Structure prediction by ZEFSAII (Michael W. Deem and Ramdas Pophale) SiO2 
 PCOD9412940
Probable space group: P N N A
;
_chemical_formula_sum "Si O2"
_cell_formula_units_Z 32
_cell_length_a 21.401395
_cell_length_b 10.411058
_cell_length_c 6.012655
_cell_angle_alpha 90.000000
_cell_angle_beta 90.000000
_cell_angle_gamma 90.000000
_cell_volume 1339.686663
_symmetry_space_group_name_H-M "P N N A"
_symmetry_group_IT_number 52
_symmetry_cell_setting 'orthorhombic'
loop_
_space_group_symop_operation_xyz
x,y,z
1/2-x,-y,z
x,1/2-y,1/2-z
1/2-x,1/2+y,1/2-z
-x,-y,-z
1/2+x,y,-z
-x,1/2+y,1/2+z
1/2+x,1/2-y,1/2+z
loop_
_atom_site_type_symbol
_atom_site_label
_atom_site_fract_x
_atom_site_fract_y
_atom_site_fract_z
Si Si1 0.250000 0.500000 0.784255
Si Si2 0.043286 0.570668 0.823490
Si Si3 0.937755 0.750000 0.750000
Si Si4 0.636594 0.414562 0.487957
Si Si5 0.346427 0.377086 0.117521
O O1 0.296312 0.581162 0.627885
O O2 0.293235 0.415427 0.944145
O O3 0.087607 0.483100 0.675838
O O4 0.989139 0.642504 0.691165
O O5 0.091304 0.652663 0.973767
O O6 0.000000 0.500000 0.000000
O O7 0.889215 0.726481 0.549621
O O8 0.640903 0.503943 0.711980
O O9 0.328991 0.250000 0.250000
#
# Coordination Sequence:
#
# PCOD9412940 Si02
#       5
#     4   8   4   8   8
#     4  10  26  52  68 106 144 192 260 296 358 438
#     4  11  24  42  70 110 149 181 239 294 372 444
#     4  12  24  44  78 106 146 190 228 312 364 440
#     4  11  25  49  70 108 147 191 245 302 365 434
#     4  11  24  48  74 102 143 198 238 305 363 429
#
# _framework density 23.886182999999999
#
# number of rings (size 3 to 8) (size 9 to 14) (size 15 to 20)
#    0.000    1.000    2.500    3.000    3.500    3.000 
#   13.500    0.000    0.000    0.000    0.000    0.000 
#    0.000    0.000    0.000    0.000    0.000    0.000 
#
# Total GULP energy -178705.291685 kJ/mol
# GULP energy per Si atom -5584.540365 kJ/mol
# Density = 2.383182 g / cm^3
# Si number density = 23.886183 Si / 1000 Ang^3
#
#
#
# Elastic Constant Matrix: (Units=GPa)
#
#
# Indices 1 2 3 4 5 6 
#
# 1 196.5420 32.5783 68.8602 0.0000 0.0000 0.0000
# 2 32.5783 37.1234 15.7342 0.0000 0.0000 0.0000
# 3 68.8602 15.7342 100.1540 0.0000 0.0000 0.0000
# 4 0.0000 0.0000 0.0000 30.6932 0.0000 0.0000
# 5 0.0000 0.0000 0.0000 0.0000 59.9850 0.0000
# 6 0.0000 0.0000 0.0000 0.0000 0.0000 17.4416
#
#
#
# Elastic Compliance Matrix: (Units=1/GPa)
#
#
# Indices 1 2 3 4 5 6 
#
# 1 0.007378 -0.004633 -0.004345 0.000000 0.000000 0.000000
# 2 -0.004633 0.031768 -0.001805 0.000000 0.000000 0.000000
# 3 -0.004345 -0.001805 0.013256 0.000000 0.000000 0.000000
# 4 0.000000 0.000000 0.000000 0.032580 0.000000 0.000000
# 5 0.000000 0.000000 0.000000 0.000000 0.016671 0.000000
# 6 0.000000 0.000000 0.000000 0.000000 0.000000 0.057334
#
#
# Mechanical properties :
#
#
# Convention : Reuss Voigt Hill
#
# Bulk Modulus (GPa) = 32.43051 63.12945 47.77998
# Shear Modulus (GPa) = 26.20090 36.06708 31.13399
#
# Velocity S-wave (km/s) = 3.31555 3.89003 3.61422
# Velocity P-wave (km/s) = 5.31637 6.83104 6.12074
#
# Compressibility (1/GPa) = 0.03083516
#
# Stress axis : x y z
#
# Youngs Moduli (GPa) = 135.53266 31.47785 75.43989
#
# Poissons Ratio (x) = 0.14585 0.32779
# Poissons Ratio (y) = 0.62798 0.13618
# Poissons Ratio (z) = 0.58889 0.05682
#
# Static dielectric constant tensor:
#      x y z
#    x 1.912660 0.000000 0.000000 
#    y 0.000000 2.186850 0.000000 
#    z 0.000000 0.000000 1.914110 
# 
# From -- ./inp_files/3959.got.cif
#   From: 2010.05.17/outbox.cif.g08.bks.cpg/sg52_2_cif.got.tgz:3959.got - 2010.06.03 12:15:38.
