data_PCOD9412881
_publ_section_title
;
Structure prediction by ZEFSAII (Michael W. Deem and Ramdas Pophale) SiO2 
 PCOD9412881
Probable space group: P N N A
;
_chemical_formula_sum "Si O2"
_cell_formula_units_Z 28
_cell_length_a 11.416323
_cell_length_b 18.515416
_cell_length_c 4.592004
_cell_angle_alpha 90.000000
_cell_angle_beta 90.000000
_cell_angle_gamma 90.000000
_cell_volume 970.648482
_symmetry_space_group_name_H-M "P N N A"
_symmetry_group_IT_number 52
_symmetry_cell_setting 'orthorhombic'
loop_
_space_group_symop_operation_xyz
x,y,z
1/2-x,-y,z
x,1/2-y,1/2-z
1/2-x,1/2+y,1/2-z
-x,-y,-z
1/2+x,y,-z
-x,1/2+y,1/2+z
1/2+x,1/2-y,1/2+z
loop_
_atom_site_type_symbol
_atom_site_label
_atom_site_fract_x
_atom_site_fract_y
_atom_site_fract_z
Si Si1 0.621544 0.001749 0.678910
Si Si2 0.723378 0.250000 0.250000
Si Si3 0.395287 0.347681 0.375106
Si Si4 0.558081 0.341230 0.841602
O O1 0.612496 0.084062 0.779608
O O2 0.750000 0.000000 0.528648
O O3 0.500000 0.000000 0.500000
O O4 0.620099 0.934822 0.906160
O O5 0.505122 0.311580 0.544275
O O6 0.654888 0.195377 0.462132
O O7 0.292954 0.301348 0.519429
O O8 0.439432 0.346851 0.040784
#
# Coordination Sequence:
#
# PCOD9412881 Si02
#       4
#     8   4   8   8
#     4  10  25  52  85 121 169 226 293 352 425 510
#     4  12  28  48  88 120 176 218 282 354 442 516
#     4  11  27  51  78 120 167 222 283 353 430 514
#     4  11  27  50  77 122 164 221 284 351 428 513
#
# _framework density 28.846693999999999
#
# number of rings (size 3 to 8) (size 9 to 14) (size 15 to 20)
#    0.000    1.143    0.000    2.571   12.000    2.286 
#    0.000    0.000    0.000    0.000    0.000    0.000 
#    0.000    0.000    0.000    0.000    0.000    0.000 
#
# Total GULP energy -156435.396915 kJ/mol
# GULP energy per Si atom -5586.978461 kJ/mol
# Density = 2.878104 g / cm^3
# Si number density = 28.846694 Si / 1000 Ang^3
#
#
#
# Elastic Constant Matrix: (Units=GPa)
#
#
# Indices 1 2 3 4 5 6 
#
# 1 184.3308 53.7625 41.6493 0.0000 0.0000 0.0000
# 2 53.7625 222.2532 47.5613 0.0000 0.0000 0.0000
# 3 41.6493 47.5613 129.6983 0.0000 0.0000 0.0000
# 4 0.0000 0.0000 0.0000 50.2728 0.0000 0.0000
# 5 0.0000 0.0000 0.0000 0.0000 48.5499 0.0000
# 6 0.0000 0.0000 0.0000 0.0000 0.0000 44.3404
#
#
#
# Elastic Compliance Matrix: (Units=1/GPa)
#
#
# Indices 1 2 3 4 5 6 
#
# 1 0.006108 -0.001148 -0.001540 0.000000 0.000000 0.000000
# 2 -0.001148 0.005098 -0.001501 0.000000 0.000000 0.000000
# 3 -0.001540 -0.001501 0.008755 0.000000 0.000000 0.000000
# 4 0.000000 0.000000 0.000000 0.019891 0.000000 0.000000
# 5 0.000000 0.000000 0.000000 0.000000 0.020597 0.000000
# 6 0.000000 0.000000 0.000000 0.000000 0.000000 0.022553
#
#
# Mechanical properties :
#
#
# Convention : Reuss Voigt Hill
#
# Bulk Modulus (GPa) = 86.33430 91.35873 88.84652
# Shear Modulus (GPa) = 52.49757 54.85324 53.67541
#
# Velocity S-wave (km/s) = 4.27064 4.36540 4.31828
# Velocity P-wave (km/s) = 7.36963 7.55964 7.46524
#
# Compressibility (1/GPa) = 0.01158288
#
# Stress axis : x y z
#
# Youngs Moduli (GPa) = 163.72302 196.14653 114.21660
#
# Poissons Ratio (x) = 0.22514 0.17595
# Poissons Ratio (y) = 0.18793 0.17143
# Poissons Ratio (z) = 0.25221 0.29441
#
# Static dielectric constant tensor:
#      x y z
#    x 2.394030 0.000000 0.000000 
#    y 0.000000 2.479780 0.000000 
#    z 0.000000 0.000000 2.167710 
# 
# From -- ./inp_files/8402.got.cif
#   From: 2010.05.17/outbox.cif.g08.bks.cpg/sg52_5_cif.got.tgz:8402.got - 2010.06.03 12:15:38.
