data_PCOD9412829
_publ_section_title
;
Structure prediction by ZEFSAII (Michael W. Deem and Ramdas Pophale) SiO2 
 PCOD9412829
Probable space group: P N N A
;
_chemical_formula_sum "Si O2"
_cell_formula_units_Z 36
_cell_length_a 24.226816
_cell_length_b 5.092792
_cell_length_c 12.732950
_cell_angle_alpha 90.000000
_cell_angle_beta 90.000000
_cell_angle_gamma 90.000000
_cell_volume 1571.018552
_symmetry_space_group_name_H-M "P N N A"
_symmetry_group_IT_number 52
_symmetry_cell_setting 'orthorhombic'
loop_
_space_group_symop_operation_xyz
x,y,z
1/2-x,-y,z
x,1/2-y,1/2-z
1/2-x,1/2+y,1/2-z
-x,-y,-z
1/2+x,y,-z
-x,1/2+y,1/2+z
1/2+x,1/2-y,1/2+z
loop_
_atom_site_type_symbol
_atom_site_label
_atom_site_fract_x
_atom_site_fract_y
_atom_site_fract_z
Si Si1 0.956666 0.390945 0.082022
Si Si2 0.304802 0.899458 0.900009
Si Si3 0.159673 0.631701 0.025318
Si Si4 0.963932 0.750000 0.750000
Si Si5 0.102422 0.250000 0.750000
Si Si6 0.617265 0.750000 0.750000
O O1 0.934243 0.597732 0.166913
O O2 0.994454 0.204226 0.152338
O O3 0.902515 0.314626 0.017602
O O4 0.000000 0.500000 0.000000
O O5 0.355400 0.925764 0.818297
O O6 0.250000 0.000000 0.838811
O O7 0.316372 0.624827 0.963134
O O8 0.305882 0.122825 0.987286
O O9 0.154190 0.659107 0.150374
O O10 0.923814 0.499608 0.742611
#
# Coordination Sequence:
#
# PCOD9412829 Si02
#       6
#     8   8   8   4   4   4
#     4  11  23  41  65 103 148 190 232 282 340 426
#     4  11  25  48  76 101 139 179 239 304 367 408
#     4  11  25  45  68 107 140 185 235 295 351 423
#     4  12  24  40  65  99 140 204 232 272 348 404
#     4  10  25  44  67 110 144 187 238 293 348 434
#     4  12  25  42  68  99 142 185 240 287 338 426
#
# _framework density 22.915068000000002
#
# number of rings (size 3 to 8) (size 9 to 14) (size 15 to 20)
#    0.000    0.889    2.222    4.000    3.111    8.889 
#    0.000    2.222    0.000    0.000    0.000    0.000 
#    0.000    0.000    0.000    0.000    0.000    0.000 
#
# Total GULP energy -200718.498678 kJ/mol
# GULP energy per Si atom -5575.513852 kJ/mol
# Density = 2.286291 g / cm^3
# Si number density = 22.915068 Si / 1000 Ang^3
#
#
#
# Elastic Constant Matrix: (Units=GPa)
#
#
# Indices 1 2 3 4 5 6 
#
# 1 97.5365 38.3706 20.6798 0.0000 0.0000 0.0000
# 2 38.3706 123.3194 16.4390 0.0000 0.0000 0.0000
# 3 20.6798 16.4390 122.6605 0.0000 0.0000 0.0000
# 4 0.0000 0.0000 0.0000 29.1032 0.0000 0.0000
# 5 0.0000 0.0000 0.0000 0.0000 -57.2642 0.0000
# 6 0.0000 0.0000 0.0000 0.0000 0.0000 39.7129
#
#
#
# Elastic Compliance Matrix: (Units=1/GPa)
#
#
# Indices 1 2 3 4 5 6 
#
# 1 0.011964 -0.003516 -0.001546 0.000000 0.000000 0.000000
# 2 -0.003516 0.009290 -0.000652 0.000000 0.000000 0.000000
# 3 -0.001546 -0.000652 0.008501 0.000000 0.000000 0.000000
# 4 0.000000 0.000000 0.000000 0.034360 0.000000 0.000000
# 5 0.000000 0.000000 0.000000 0.000000 -0.017463 0.000000
# 6 0.000000 0.000000 0.000000 0.000000 0.000000 0.025181
#
#
# Mechanical properties :
#
#
# Convention : Reuss Voigt Hill
#
# Bulk Modulus (GPa) = 54.56842 54.94392 54.75617
# Shear Modulus (GPa) = 55.94729 20.17886 38.06307
#
# Velocity S-wave (km/s) = 4.94652 2.97070 4.08002
# Velocity P-wave (km/s) = 7.51592 5.98298 6.79283
#
# Compressibility (1/GPa) = 0.01832562
#
# Stress axis : x y z
#
# Youngs Moduli (GPa) = 83.58658 107.64156 117.63886
#
# Poissons Ratio (x) = 0.37851 0.18184
# Poissons Ratio (y) = 0.29393 0.07673
# Poissons Ratio (z) = 0.12920 0.07021
#
# Static dielectric constant tensor:
#      x y z
#    x 2.238670 0.000000 0.000000 
#    y 0.000000 1.628790 0.000000 
#    z 0.000000 0.000000 7.979500 
# 
# From -- ./inp_files/22113.got.cif
#   From: 2010.05.17/outbox.cif.g08.bks.cpg/sg52_12_cif.got.tgz:22113.got - 2010.06.03 12:15:38.
