data_PCOD9412311
_publ_section_title
;
Structure prediction by ZEFSAII (Michael W. Deem and Ramdas Pophale) SiO2 
 PCOD9412311
Probable space group: P N N A
;
_chemical_formula_sum "Si O2"
_cell_formula_units_Z 44
_cell_length_a 8.252970
_cell_length_b 13.210628
_cell_length_c 18.456020
_cell_angle_alpha 90.000000
_cell_angle_beta 90.000000
_cell_angle_gamma 90.000000
_cell_volume 2012.202953
_symmetry_space_group_name_H-M "P N N A"
_symmetry_group_IT_number 52
_symmetry_cell_setting 'orthorhombic'
loop_
_space_group_symop_operation_xyz
x,y,z
1/2-x,-y,z
x,1/2-y,1/2-z
1/2-x,1/2+y,1/2-z
-x,-y,-z
1/2+x,y,-z
-x,1/2+y,1/2+z
1/2+x,1/2-y,1/2+z
loop_
_atom_site_type_symbol
_atom_site_label
_atom_site_fract_x
_atom_site_fract_y
_atom_site_fract_z
Si Si1 0.616061 0.250000 0.750000
Si Si2 0.089767 0.070433 0.803581
Si Si3 0.201389 0.668554 0.496832
Si Si4 0.477288 0.894167 0.116120
Si Si5 0.578206 0.254786 0.095302
Si Si6 0.641888 0.594950 0.830526
O O1 0.525528 0.183408 0.813836
O O2 0.732688 0.325702 0.794449
O O3 0.114178 0.184576 0.834085
O O4 0.992786 0.070014 0.729258
O O5 0.250000 0.000000 0.797272
O O6 0.968582 0.006916 0.854418
O O7 0.331453 0.631552 0.438334
O O8 0.139229 0.604307 0.565725
O O9 0.269870 0.765648 0.541683
O O10 0.042041 0.687498 0.451955
O O11 0.469854 0.351564 0.110439
O O12 0.750000 0.500000 0.853157
#
# Coordination Sequence:
#
# PCOD9412311 Si02
#       6
#     4   8   8   8   8   8
#     4  12  22  42  72  96 132 184 234 290 328 422
#     4  12  24  39  64 108 136 178 225 286 356 421
#     4  10  23  41  68  99 140 180 224 288 358 423
#     4  11  23  40  67 102 137 177 231 279 361 419
#     4  11  23  43  65  96 138 180 227 287 348 416
#     4  12  24  44  69  96 137 183 234 285 346 409
#
# _framework density 21.866579999999999
#
# number of rings (size 3 to 8) (size 9 to 14) (size 15 to 20)
#    0.000    0.727    7.273    0.000    0.000    5.818 
#    0.000    0.909    0.000    0.000    0.000    0.000 
#    0.000    0.000    0.000    0.000    0.000    0.000 
#
# Total GULP energy -245096.511611 kJ/mol
# GULP energy per Si atom -5570.375264 kJ/mol
# Density = 2.181681 g / cm^3
# Si number density = 21.866580 Si / 1000 Ang^3
#
#
#
# Elastic Constant Matrix: (Units=GPa)
#
#
# Indices 1 2 3 4 5 6 
#
# 1 35.6074 -3.5953 7.0098 0.0000 0.0000 0.0000
# 2 -3.5953 60.6468 3.5338 0.0000 0.0000 0.0000
# 3 7.0098 3.5338 75.0029 0.0000 0.0000 0.0000
# 4 0.0000 0.0000 0.0000 78.6587 0.0000 0.0000
# 5 0.0000 0.0000 0.0000 0.0000 -323.1397 0.0000
# 6 0.0000 0.0000 0.0000 0.0000 0.0000 29.1846
#
#
#
# Elastic Compliance Matrix: (Units=1/GPa)
#
#
# Indices 1 2 3 4 5 6 
#
# 1 0.028821 0.001871 -0.002782 0.000000 0.000000 0.000000
# 2 0.001871 0.016656 -0.000960 0.000000 0.000000 0.000000
# 3 -0.002782 -0.000960 0.013638 0.000000 0.000000 0.000000
# 4 0.000000 0.000000 0.000000 0.012713 0.000000 0.000000
# 5 0.000000 0.000000 0.000000 0.000000 -0.003095 0.000000
# 6 0.000000 0.000000 0.000000 0.000000 0.000000 0.034265
#
#
# Mechanical properties :
#
#
# Convention : Reuss Voigt Hill
#
# Bulk Modulus (GPa) = 18.05934 20.57262 19.31598
# Shear Modulus (GPa) = 39.93723 -32.10537 3.91593
#
# Velocity S-wave (km/s) = 4.27828 -3.83592 1.33967
# Velocity P-wave (km/s) = 5.71679 3.19223 3.35346
#
# Compressibility (1/GPa) = 0.05537302
#
# Stress axis : x y z
#
# Youngs Moduli (GPa) = 34.69746 60.03938 73.32445
#
# Poissons Ratio (x) = -0.11231 0.20397
# Poissons Ratio (y) = -0.06491 0.07036
# Poissons Ratio (z) = 0.09652 0.05761
#
# Static dielectric constant tensor:
#      x y z
#    x 1.857570 0.000000 0.000000 
#    y 0.000000 1.828160 0.000000 
#    z 0.000000 0.000000 1.884310 
# 
# From -- ./inp_files/31165.got.cif
#   From: 2010.05.17/outbox.cif.g08.bks.cpg/sg52_16_cif.got.tgz:31165.got - 2010.06.03 12:15:38.
