data_PCOD9412070
_publ_section_title
;
Structure prediction by ZEFSAII (Michael W. Deem and Ramdas Pophale) SiO2 
 PCOD9412070
Probable space group: P N N A
;
_chemical_formula_sum "Si O2"
_cell_formula_units_Z 64
_cell_length_a 14.812577
_cell_length_b 18.078792
_cell_length_c 12.218945
_cell_angle_alpha 90.000000
_cell_angle_beta 90.000000
_cell_angle_gamma 90.000000
_cell_volume 3272.154030
_symmetry_space_group_name_H-M "P N N A"
_symmetry_group_IT_number 52
_symmetry_cell_setting 'orthorhombic'
loop_
_space_group_symop_operation_xyz
x,y,z
1/2-x,-y,z
x,1/2-y,1/2-z
1/2-x,1/2+y,1/2-z
-x,-y,-z
1/2+x,y,-z
-x,1/2+y,1/2+z
1/2+x,1/2-y,1/2+z
loop_
_atom_site_type_symbol
_atom_site_label
_atom_site_fract_x
_atom_site_fract_y
_atom_site_fract_z
Si Si1 0.285896 0.578360 0.598863
Si Si2 0.888472 0.834644 0.285398
Si Si3 0.426109 0.108614 0.202860
Si Si4 0.515762 0.209682 0.865930
Si Si5 0.761212 0.918865 0.690103
Si Si6 0.674910 0.298951 0.975259
Si Si7 0.099893 0.054729 0.115354
Si Si8 0.347260 0.194834 0.004901
O O1 0.250000 0.500000 0.638882
O O2 0.323570 0.626764 0.697451
O O3 0.362539 0.562466 0.507387
O O4 0.205727 0.623029 0.539686
O O5 0.899796 0.750000 0.250000
O O6 0.847953 0.833017 0.406850
O O7 0.984986 0.873755 0.271297
O O8 0.338043 0.108784 0.279387
O O9 0.432749 0.027654 0.145406
O O10 0.405204 0.169297 0.109718
O O11 0.524791 0.250000 0.750000
O O12 0.595076 0.242931 0.941699
O O13 0.530180 0.121075 0.862125
O O14 0.418349 0.224555 0.917169
O O15 0.814802 0.862881 0.614298
O O16 0.816033 0.929648 0.803050
O O17 0.750000 0.000000 0.638655
O O18 0.768430 0.253622 0.973666
#
# Coordination Sequence:
#
# PCOD9412070 Si02
#       8
#     8   8   8   8   8   8   8   8
#     4  12  23  43  70 102 141 178 223 287 360 408
#     4  12  27  45  62  99 149 182 220 286 348 415
#     4  11  24  41  73 104 130 175 237 284 348 408
#     4  12  26  43  69 100 135 183 232 284 347 412
#     4  10  22  43  71  97 130 180 234 284 328 404
#     4  12  26  47  67  97 143 186 228 281 339 419
#     4  11  20  45  69 104 135 166 230 300 339 395
#     4  12  25  41  69 101 136 178 223 290 344 413
#
# _framework density 19.558982
#
# number of rings (size 3 to 8) (size 9 to 14) (size 15 to 20)
#    0.000    0.500    6.250    1.875    7.000    1.500 
#    0.000    3.750    0.000    0.000    0.000    0.000 
#    0.000    0.000    0.000    0.000    0.000    0.000 
#
# Total GULP energy -358048.351766 kJ/mol
# GULP energy per Si atom -5594.505496 kJ/mol
# Density = 1.951446 g / cm^3
# Si number density = 19.558982 Si / 1000 Ang^3
#
#
#
# Elastic Constant Matrix: (Units=GPa)
#
#
# Indices 1 2 3 4 5 6 
#
# 1 55.4629 23.8888 15.6640 0.0000 0.0000 0.0000
# 2 23.8888 88.3854 47.1779 0.0000 0.0000 0.0000
# 3 15.6640 47.1779 90.5352 0.0000 0.0000 0.0000
# 4 0.0000 0.0000 0.0000 23.4425 0.0000 0.0000
# 5 0.0000 0.0000 0.0000 0.0000 20.9738 0.0000
# 6 0.0000 0.0000 0.0000 0.0000 0.0000 24.2251
#
#
#
# Elastic Compliance Matrix: (Units=1/GPa)
#
#
# Indices 1 2 3 4 5 6 
#
# 1 0.020460 -0.005043 -0.000912 0.000000 0.000000 0.000000
# 2 -0.005043 0.016917 -0.007943 0.000000 0.000000 0.000000
# 3 -0.000912 -0.007943 0.015342 0.000000 0.000000 0.000000
# 4 0.000000 0.000000 0.000000 0.042658 0.000000 0.000000
# 5 0.000000 0.000000 0.000000 0.000000 0.047679 0.000000
# 6 0.000000 0.000000 0.000000 0.000000 0.000000 0.041280
#
#
# Mechanical properties :
#
#
# Convention : Reuss Voigt Hill
#
# Bulk Modulus (GPa) = 40.12336 45.31608 42.71972
# Shear Modulus (GPa) = 22.68213 23.57179 23.12696
#
# Velocity S-wave (km/s) = 3.40910 3.47531 3.44237
# Velocity P-wave (km/s) = 6.00454 6.27080 6.13912
#
# Compressibility (1/GPa) = 0.02492314
#
# Stress axis : x y z
#
# Youngs Moduli (GPa) = 48.87645 59.11277 65.17972
#
# Poissons Ratio (x) = 0.29811 0.05944
# Poissons Ratio (y) = 0.24649 0.51771
# Poissons Ratio (z) = 0.04457 0.46952
#
# Static dielectric constant tensor:
#      x y z
#    x 1.681010 0.000000 0.000000 
#    y 0.000000 1.696970 0.000000 
#    z 0.000000 0.000000 1.674830 
# 
# From -- ./inp_files/19878.got.cif
#   From: 2010.05.17/outbox.cif.g08.bks.cpg/sg52_10_cif.got.tgz:19878.got - 2010.06.03 12:15:38.
