data_PCOD9412188
_publ_section_title
;
Structure prediction by ZEFSAII (Michael W. Deem and Ramdas Pophale) SiO2 
 PCOD9412188
Probable space group: P N N A
;
_chemical_formula_sum "Si O2"
_cell_formula_units_Z 32
_cell_length_a 5.081553
_cell_length_b 12.508180
_cell_length_c 19.148202
_cell_angle_alpha 90.000000
_cell_angle_beta 90.000000
_cell_angle_gamma 90.000000
_cell_volume 1217.078477
_symmetry_space_group_name_H-M "P N N A"
_symmetry_group_IT_number 52
_symmetry_cell_setting 'orthorhombic'
loop_
_space_group_symop_operation_xyz
x,y,z
1/2-x,-y,z
x,1/2-y,1/2-z
1/2-x,1/2+y,1/2-z
-x,-y,-z
1/2+x,y,-z
-x,1/2+y,1/2+z
1/2+x,1/2-y,1/2+z
loop_
_atom_site_type_symbol
_atom_site_label
_atom_site_fract_x
_atom_site_fract_y
_atom_site_fract_z
Si Si1 0.919406 0.101091 0.797633
Si Si2 0.750000 0.000000 0.080381
Si Si3 0.999721 0.177533 0.654244
Si Si4 0.121219 0.771003 0.958071
Si Si5 0.750000 0.000000 0.553910
O O1 0.087642 0.129217 0.728916
O O2 0.823807 0.217638 0.824858
O O3 0.750000 0.000000 0.774014
O O4 0.049622 0.055820 0.867089
O O5 0.881848 0.099729 0.042562
O O6 0.841787 0.091672 0.609172
O O7 0.251376 0.220650 0.611004
O O8 0.335710 0.738749 0.016334
O O9 0.500000 0.000000 0.500000
#
# Coordination Sequence:
#
# PCOD9412188 Si02
#       5
#     8   4   8   8   4
#     4  10  22  46  70 105 146 191 248 319 370 439
#     4  10  24  39  70 103 140 186 244 298 376 428
#     4  10  23  45  71 107 146 194 254 302 378 441
#     4  11  24  43  69 103 144 188 236 297 362 441
#     4  12  26  49  76 107 150 198 244 302 364 454
#
# _framework density 26.292472
#
# number of rings (size 3 to 8) (size 9 to 14) (size 15 to 20)
#    0.000    1.500    1.250    2.250    7.000    1.000 
#    9.000    2.500    0.000    0.000    0.000    0.000 
#    0.000    0.000    0.000    0.000    0.000    0.000 
#
# Total GULP energy -178776.316114 kJ/mol
# GULP energy per Si atom -5586.759879 kJ/mol
# Density = 2.623263 g / cm^3
# Si number density = 26.292472 Si / 1000 Ang^3
#
#
#
# Elastic Constant Matrix: (Units=GPa)
#
#
# Indices 1 2 3 4 5 6 
#
# 1 74.2223 40.6557 28.7352 0.0000 0.0000 0.0000
# 2 40.6557 120.3538 45.3380 0.0000 0.0000 0.0000
# 3 28.7352 45.3380 134.5424 0.0000 0.0000 0.0000
# 4 0.0000 0.0000 0.0000 65.4725 0.0000 0.0000
# 5 0.0000 0.0000 0.0000 0.0000 -3.2003 0.0000
# 6 0.0000 0.0000 0.0000 0.0000 0.0000 30.4316
#
#
#
# Elastic Compliance Matrix: (Units=1/GPa)
#
#
# Indices 1 2 3 4 5 6 
#
# 1 0.016962 -0.005000 -0.001938 0.000000 0.000000 0.000000
# 2 -0.005000 0.010991 -0.002636 0.000000 0.000000 0.000000
# 3 -0.001938 -0.002636 0.008735 0.000000 0.000000 0.000000
# 4 0.000000 0.000000 0.000000 0.015274 0.000000 0.000000
# 5 0.000000 0.000000 0.000000 0.000000 -0.312474 0.000000
# 6 0.000000 0.000000 0.000000 0.000000 0.000000 0.032861
#
#
# Mechanical properties :
#
#
# Convention : Reuss Voigt Hill
#
# Bulk Modulus (GPa) = 57.01103 62.06402 59.53753
# Shear Modulus (GPa) = -24.67203 32.83341 4.08069
#
# Velocity S-wave (km/s) = -3.06660 3.53764 1.24716
# Velocity P-wave (km/s) = 3.03179 6.35161 4.97668
#
# Compressibility (1/GPa) = 0.01754047
#
# Stress axis : x y z
#
# Youngs Moduli (GPa) = 58.95549 90.98610 114.48601
#
# Poissons Ratio (x) = 0.45491 0.22186
# Poissons Ratio (y) = 0.29476 0.30176
# Poissons Ratio (z) = 0.11425 0.23982
#
# Static dielectric constant tensor:
#      x y z
#    x 2.015680 0.000000 0.000000 
#    y 0.000000 2.286700 0.000000 
#    z 0.000000 0.000000 2.041480 
# 
# From -- ./inp_files/34858.got.cif
#   From: 2010.05.17/outbox.cif.g08.bks.cpg/sg52_18_cif.got.tgz:34858.got - 2010.06.03 12:15:38.
