data_PCOD9412309
_publ_section_title
;
Structure prediction by ZEFSAII (Michael W. Deem and Ramdas Pophale) SiO2 
 PCOD9412309
Probable space group: P N N A
;
_chemical_formula_sum "Si O2"
_cell_formula_units_Z 64
_cell_length_a 15.627345
_cell_length_b 18.200071
_cell_length_c 11.630195
_cell_angle_alpha 90.000000
_cell_angle_beta 90.000000
_cell_angle_gamma 90.000000
_cell_volume 3307.845972
_symmetry_space_group_name_H-M "P N N A"
_symmetry_group_IT_number 52
_symmetry_cell_setting 'orthorhombic'
loop_
_space_group_symop_operation_xyz
x,y,z
1/2-x,-y,z
x,1/2-y,1/2-z
1/2-x,1/2+y,1/2-z
-x,-y,-z
1/2+x,y,-z
-x,1/2+y,1/2+z
1/2+x,1/2-y,1/2+z
loop_
_atom_site_type_symbol
_atom_site_label
_atom_site_fract_x
_atom_site_fract_y
_atom_site_fract_z
Si Si1 0.897653 0.676037 0.508125
Si Si2 0.737398 0.583768 0.519861
Si Si3 0.338882 0.656918 0.063753
Si Si4 0.813895 0.161947 0.745128
Si Si5 0.982991 0.663043 0.750242
Si Si6 0.658155 0.579828 0.276259
Si Si7 0.003247 0.334420 0.715846
Si Si8 0.334967 0.585449 0.822824
O O1 0.823911 0.619809 0.470833
O O2 0.856701 0.758678 0.517901
O O3 0.930430 0.651927 0.632970
O O4 0.976756 0.667764 0.420384
O O5 0.750000 0.500000 0.556827
O O6 0.716455 0.631212 0.632019
O O7 0.670972 0.581138 0.414182
O O8 0.253837 0.647913 0.142810
O O9 0.420243 0.643693 0.145551
O O10 0.334887 0.600555 0.958686
O O11 0.817095 0.250000 0.750000
O O12 0.912373 0.134937 0.739682
O O13 0.001778 0.750000 0.750000
O O14 0.070825 0.619591 0.754248
O O15 0.657854 0.497901 0.223126
O O16 0.743930 0.615581 0.223204
O O17 0.005680 0.250000 0.750000
O O18 0.082699 0.373734 0.774145
#
# Coordination Sequence:
#
# PCOD9412309 Si02
#       8
#     8   8   8   8   8   8   8   8
#     4  11  20  41  69  97 134 171 219 287 336 395
#     4  12  22  41  71  94 131 178 222 277 341 398
#     4  11  22  43  67  94 138 178 218 277 342 401
#     4  11  23  42  67 101 135 171 225 280 337 414
#     4  10  23  41  68  99 128 170 224 279 340 408
#     4  11  24  45  66  93 133 174 229 283 330 402
#     4  11  22  38  65  99 129 168 222 273 336 394
#     4  11  24  43  63  90 135 179 221 277 333 403
#
# _framework density 19.347937999999999
#
# number of rings (size 3 to 8) (size 9 to 14) (size 15 to 20)
#    0.000    1.000    6.250    1.125    0.000    4.000 
#    4.500    2.500    0.000    0.000    0.000    0.000 
#    0.000    0.000    0.000    0.000    0.000    0.000 
#
# Total GULP energy -357050.477586 kJ/mol
# GULP energy per Si atom -5578.913712 kJ/mol
# Density = 1.930390 g / cm^3
# Si number density = 19.347938 Si / 1000 Ang^3
#
#
#
# Elastic Constant Matrix: (Units=GPa)
#
#
# Indices 1 2 3 4 5 6 
#
# 1 146.8277 52.3082 47.8258 0.0000 0.0000 0.0000
# 2 52.3082 47.9228 46.7592 0.0000 0.0000 0.0000
# 3 47.8258 46.7592 130.0287 0.0000 0.0000 0.0000
# 4 0.0000 0.0000 0.0000 25.1453 0.0000 0.0000
# 5 0.0000 0.0000 0.0000 0.0000 16.7034 0.0000
# 6 0.0000 0.0000 0.0000 0.0000 0.0000 36.4719
#
#
#
# Elastic Compliance Matrix: (Units=1/GPa)
#
#
# Indices 1 2 3 4 5 6 
#
# 1 0.011159 -0.012595 0.000425 0.000000 0.000000 0.000000
# 2 -0.012595 0.046361 -0.012039 0.000000 0.000000 0.000000
# 3 0.000425 -0.012039 0.011864 0.000000 0.000000 0.000000
# 4 0.000000 0.000000 0.000000 0.039769 0.000000 0.000000
# 5 0.000000 0.000000 0.000000 0.000000 0.059868 0.000000
# 6 0.000000 0.000000 0.000000 0.000000 0.000000 0.027418
#
#
# Mechanical properties :
#
#
# Convention : Reuss Voigt Hill
#
# Bulk Modulus (GPa) = 47.69751 68.72950 58.21350
# Shear Modulus (GPa) = 19.85325 27.52318 23.68821
#
# Velocity S-wave (km/s) = 3.20678 3.77575 3.50284
# Velocity P-wave (km/s) = 6.19817 7.38975 6.82003
#
# Compressibility (1/GPa) = 0.02096546
#
# Stress axis : x y z
#
# Youngs Moduli (GPa) = 89.61052 21.56963 84.28989
#
# Poissons Ratio (x) = 0.27167 -0.03580
# Poissons Ratio (y) = 1.12864 1.01479
# Poissons Ratio (z) = -0.03806 0.25968
#
# Static dielectric constant tensor:
#      x y z
#    x 1.708160 0.000000 0.000000 
#    y 0.000000 1.668460 0.000000 
#    z 0.000000 0.000000 1.714910 
# 
# From -- ./inp_files/19876.got.cif
#   From: 2010.05.17/outbox.cif.g08.bks.cpg/sg52_10_cif.got.tgz:19876.got - 2010.06.03 12:15:38.
