data_PCOD9412334
_publ_section_title
;
Structure prediction by ZEFSAII (Michael W. Deem and Ramdas Pophale) SiO2 
 PCOD9412334
Probable space group: P N N A
;
_chemical_formula_sum "Si O2"
_cell_formula_units_Z 32
_cell_length_a 9.188473
_cell_length_b 10.311844
_cell_length_c 13.633477
_cell_angle_alpha 90.000000
_cell_angle_beta 90.000000
_cell_angle_gamma 90.000000
_cell_volume 1291.773311
_symmetry_space_group_name_H-M "P N N A"
_symmetry_group_IT_number 52
_symmetry_cell_setting 'orthorhombic'
loop_
_space_group_symop_operation_xyz
x,y,z
1/2-x,-y,z
x,1/2-y,1/2-z
1/2-x,1/2+y,1/2-z
-x,-y,-z
1/2+x,y,-z
-x,1/2+y,1/2+z
1/2+x,1/2-y,1/2+z
loop_
_atom_site_type_symbol
_atom_site_label
_atom_site_fract_x
_atom_site_fract_y
_atom_site_fract_z
Si Si1 0.429959 0.302259 0.136103
Si Si2 0.594642 0.943151 0.342960
Si Si3 0.072342 0.863193 0.875654
Si Si4 0.176175 0.315179 0.487153
O O1 0.436456 0.250000 0.250000
O O2 0.470000 0.454252 0.133560
O O3 0.559239 0.240734 0.067465
O O4 0.274279 0.275137 0.085299
O O5 0.604241 0.928521 0.226268
O O6 0.563161 0.795211 0.372098
O O7 0.750000 0.000000 0.379355
O O8 0.202164 0.880338 0.948519
O O9 0.918330 0.906109 0.916905
#
# Coordination Sequence:
#
# PCOD9412334 Si02
#       4
#     8   8   8   8
#     4  11  24  44  69 100 138 178 228 282 342 400
#     4  11  22  40  70  94 137 177 221 275 346 402
#     4  10  23  42  65  98 132 174 225 277 342 403
#     4  10  23  44  69 100 134 176 233 283 334 416
#
# _framework density 24.772145999999999
#
# number of rings (size 3 to 8) (size 9 to 14) (size 15 to 20)
#    0.000    1.500    2.500    1.500    3.500    7.000 
#    0.000   13.750    0.000    0.000    0.000    0.000 
#    0.000    0.000    0.000    0.000    0.000    0.000 
#
# Total GULP energy -178894.019386 kJ/mol
# GULP energy per Si atom -5590.438106 kJ/mol
# Density = 2.471576 g / cm^3
# Si number density = 24.772146 Si / 1000 Ang^3
#
#
#
# Elastic Constant Matrix: (Units=GPa)
#
#
# Indices 1 2 3 4 5 6 
#
# 1 156.2365 26.1721 64.8534 0.0000 0.0000 0.0000
# 2 26.1721 82.0828 25.0170 0.0000 0.0000 0.0000
# 3 64.8534 25.0170 126.8761 0.0000 0.0000 0.0000
# 4 0.0000 0.0000 0.0000 20.9376 0.0000 0.0000
# 5 0.0000 0.0000 0.0000 0.0000 37.3085 0.0000
# 6 0.0000 0.0000 0.0000 0.0000 0.0000 15.8754
#
#
#
# Elastic Compliance Matrix: (Units=1/GPa)
#
#
# Indices 1 2 3 4 5 6 
#
# 1 0.008281 -0.001437 -0.003949 0.000000 0.000000 0.000000
# 2 -0.001437 0.013211 -0.001871 0.000000 0.000000 0.000000
# 3 -0.003949 -0.001871 0.010269 0.000000 0.000000 0.000000
# 4 0.000000 0.000000 0.000000 0.047761 0.000000 0.000000
# 5 0.000000 0.000000 0.000000 0.000000 0.026804 0.000000
# 6 0.000000 0.000000 0.000000 0.000000 0.000000 0.062991
#
#
# Mechanical properties :
#
#
# Convention : Reuss Voigt Hill
#
# Bulk Modulus (GPa) = 57.97860 66.36449 62.17155
# Shear Modulus (GPa) = 26.37429 31.43447 28.90438
#
# Velocity S-wave (km/s) = 3.26648 3.56609 3.41957
# Velocity P-wave (km/s) = 6.13857 6.61847 6.38303
#
# Compressibility (1/GPa) = 0.01724774
#
# Stress axis : x y z
#
# Youngs Moduli (GPa) = 120.76428 75.69452 97.37762
#
# Poissons Ratio (x) = 0.10874 0.38458
# Poissons Ratio (y) = 0.17349 0.18215
# Poissons Ratio (z) = 0.47695 0.14159
#
# Static dielectric constant tensor:
#      x y z
#    x 1.946210 0.000000 0.000000 
#    y 0.000000 2.048860 0.000000 
#    z 0.000000 0.000000 1.976020 
# 
# From -- ./inp_files/24063.got.cif
#   From: 2010.05.17/outbox.cif.g08.bks.cpg/sg52_13_cif.got.tgz:24063.got - 2010.06.03 12:15:38.
