data_PCOD9412483
_publ_section_title
;
Structure prediction by ZEFSAII (Michael W. Deem and Ramdas Pophale) SiO2 
 PCOD9412483
Probable space group: P N N A
;
_chemical_formula_sum "Si O2"
_cell_formula_units_Z 48
_cell_length_a 8.096733
_cell_length_b 22.158799
_cell_length_c 11.381074
_cell_angle_alpha 90.000000
_cell_angle_beta 90.000000
_cell_angle_gamma 90.000000
_cell_volume 2041.922635
_symmetry_space_group_name_H-M "P N N A"
_symmetry_group_IT_number 52
_symmetry_cell_setting 'orthorhombic'
loop_
_space_group_symop_operation_xyz
x,y,z
1/2-x,-y,z
x,1/2-y,1/2-z
1/2-x,1/2+y,1/2-z
-x,-y,-z
1/2+x,y,-z
-x,1/2+y,1/2+z
1/2+x,1/2-y,1/2+z
loop_
_atom_site_type_symbol
_atom_site_label
_atom_site_fract_x
_atom_site_fract_y
_atom_site_fract_z
Si Si1 0.338790 0.799829 0.148269
Si Si2 0.010798 0.677115 0.244032
Si Si3 0.598546 0.961171 0.093672
Si Si4 0.117011 0.915315 0.431429
Si Si5 0.472893 0.546825 0.154256
Si Si6 0.290884 0.165114 0.913406
O O1 0.340946 0.750000 0.250000
O O2 0.184333 0.840184 0.193479
O O3 0.530229 0.816687 0.134490
O O4 0.277811 0.789783 0.013486
O O5 0.000756 0.750000 0.250000
O O6 0.029913 0.644433 0.118896
O O7 0.849634 0.657063 0.315289
O O8 0.492694 0.944939 0.207803
O O9 0.675084 0.901561 0.036237
O O10 0.750000 0.000000 0.141247
O O11 0.500000 0.000000 0.000000
O O12 0.304431 0.922997 0.390502
O O13 0.108955 0.922135 0.571804
O O14 0.031162 0.975491 0.376700
#
# Coordination Sequence:
#
# PCOD9412483 Si02
#       6
#     8   8   8   8   8   8
#     4  11  25  47  74 105 144 196 253 311 376 448
#     4  11  25  48  72 106 148 204 257 316 387 463
#     4  12  28  44  74 113 150 199 252 311 393 463
#     4  10  23  45  72 106 153 191 250 312 387 460
#     4  10  24  44  75 108 149 196 248 314 389 462
#     4  12  24  48  77 103 153 195 251 322 374 457
#
# _framework density 23.507255000000001
#
# number of rings (size 3 to 8) (size 9 to 14) (size 15 to 20)
#    0.000    1.000    1.667    3.500   11.667    0.000 
#    9.000    0.000    0.000    0.000    0.000    0.000 
#    0.000    0.000    0.000    0.000    0.000    0.000 
#
# Total GULP energy -268043.687332 kJ/mol
# GULP energy per Si atom -5584.243486 kJ/mol
# Density = 2.345375 g / cm^3
# Si number density = 23.507255 Si / 1000 Ang^3
#
#
#
# Elastic Constant Matrix: (Units=GPa)
#
#
# Indices 1 2 3 4 5 6 
#
# 1 177.3612 28.5619 54.3787 0.0000 0.0000 0.0000
# 2 28.5619 103.2136 37.8113 0.0000 0.0000 0.0000
# 3 54.3787 37.8113 139.1214 0.0000 0.0000 0.0000
# 4 0.0000 0.0000 0.0000 31.3239 0.0000 0.0000
# 5 0.0000 0.0000 0.0000 0.0000 -28.8486 0.0000
# 6 0.0000 0.0000 0.0000 0.0000 0.0000 11.9379
#
#
#
# Elastic Compliance Matrix: (Units=1/GPa)
#
#
# Indices 1 2 3 4 5 6 
#
# 1 0.006491 -0.000963 -0.002275 0.000000 0.000000 0.000000
# 2 -0.000963 0.010903 -0.002587 0.000000 0.000000 0.000000
# 3 -0.002275 -0.002587 0.008780 0.000000 0.000000 0.000000
# 4 0.000000 0.000000 0.000000 0.031924 0.000000 0.000000
# 5 0.000000 0.000000 0.000000 0.000000 -0.034664 0.000000
# 6 0.000000 0.000000 0.000000 0.000000 0.000000 0.083767
#
#
# Mechanical properties :
#
#
# Convention : Reuss Voigt Hill
#
# Bulk Modulus (GPa) = 68.85143 73.46664 71.15904
# Shear Modulus (GPa) = 40.42256 22.81226 31.61741
#
# Velocity S-wave (km/s) = 4.15128 3.11856 3.67141
# Velocity P-wave (km/s) = 7.23398 6.65491 6.95048
#
# Compressibility (1/GPa) = 0.01452403
#
# Stress axis : x y z
#
# Youngs Moduli (GPa) = 154.06211 91.72014 113.88882
#
# Poissons Ratio (x) = 0.08829 0.25915
# Poissons Ratio (y) = 0.14830 0.29463
# Poissons Ratio (z) = 0.35057 0.23728
#
# Static dielectric constant tensor:
#      x y z
#    x 1.902890 0.000000 0.000000 
#    y 0.000000 1.871510 0.000000 
#    z 0.000000 0.000000 1.929680 
# 
# From -- ./inp_files/16928.got.cif
#   From: 2010.05.17/outbox.cif.g08.bks.cpg/sg52_9_cif.got.tgz:16928.got - 2010.06.03 12:15:38.
