data_PCOD9412723
_publ_section_title
;
Structure prediction by ZEFSAII (Michael W. Deem and Ramdas Pophale) SiO2 
 PCOD9412723
Probable space group: P N N A
;
_chemical_formula_sum "Si O2"
_cell_formula_units_Z 48
_cell_length_a 23.609445
_cell_length_b 10.249915
_cell_length_c 6.814661
_cell_angle_alpha 90.000000
_cell_angle_beta 90.000000
_cell_angle_gamma 90.000000
_cell_volume 1649.112556
_symmetry_space_group_name_H-M "P N N A"
_symmetry_group_IT_number 52
_symmetry_cell_setting 'orthorhombic'
loop_
_space_group_symop_operation_xyz
x,y,z
1/2-x,-y,z
x,1/2-y,1/2-z
1/2-x,1/2+y,1/2-z
-x,-y,-z
1/2+x,y,-z
-x,1/2+y,1/2+z
1/2+x,1/2-y,1/2+z
loop_
_atom_site_type_symbol
_atom_site_label
_atom_site_fract_x
_atom_site_fract_y
_atom_site_fract_z
Si Si1 0.174747 0.016589 0.110526
Si Si2 0.567320 0.668796 0.094959
Si Si3 0.560332 0.501974 0.401726
Si Si4 0.632957 0.250000 0.750000
Si Si5 0.303446 0.246986 0.485201
Si Si6 0.250000 0.500000 0.016780
Si Si7 0.554974 0.335122 0.095928
O O1 0.173613 0.172595 0.097120
O O2 0.203144 0.903344 0.980049
O O3 0.197508 0.008921 0.331766
O O4 0.109880 0.988577 0.063118
O O5 0.512686 0.658122 0.952027
O O6 0.558497 0.834463 0.156730
O O7 0.633060 0.694875 0.031200
O O8 0.570406 0.498805 0.149662
O O9 0.500000 0.500000 0.500000
O O10 0.563442 0.332634 0.350140
O O11 0.591093 0.329026 0.892886
O O12 0.297154 0.250000 0.250000
O O13 0.261625 0.139803 0.578320
#
# Coordination Sequence:
#
# PCOD9412723 Si02
#       7
#     8   8   8   4   8   4   8
#     4  11  25  47  74 110 153 205 273 339 411 499
#     4  12  23  42  74 112 161 208 271 327 406 509
#     4  12  26  44  72 117 164 219 270 341 422 505
#     4  12  26  46  74 114 164 218 274 330 422 502
#     4  10  24  45  75 109 144 204 270 337 409 484
#     4  10  26  48  78 104 144 202 276 346 416 474
#     4  12  25  44  69 113 171 218 263 331 410 499
#
# _framework density 29.106563999999999
#
# number of rings (size 3 to 8) (size 9 to 14) (size 15 to 20)
#    0.000    0.667    4.167    3.000   12.833    0.000 
#    0.000    0.833    0.000    5.000    0.000    0.000 
#    0.000    0.000    0.000    0.000    0.000    0.000 
#
# Total GULP energy -267679.719162 kJ/mol
# GULP energy per Si atom -5576.660816 kJ/mol
# Density = 2.904032 g / cm^3
# Si number density = 29.106564 Si / 1000 Ang^3
#
#
#
# Elastic Constant Matrix: (Units=GPa)
#
#
# Indices 1 2 3 4 5 6 
#
# 1 157.7216 84.0011 62.7546 0.0000 0.0000 0.0000
# 2 84.0011 306.7138 71.5600 0.0000 0.0000 0.0000
# 3 62.7546 71.5600 135.3539 0.0000 0.0000 0.0000
# 4 0.0000 0.0000 0.0000 83.7758 0.0000 0.0000
# 5 0.0000 0.0000 0.0000 0.0000 28.7177 0.0000
# 6 0.0000 0.0000 0.0000 0.0000 0.0000 71.4597
#
#
#
# Elastic Compliance Matrix: (Units=1/GPa)
#
#
# Indices 1 2 3 4 5 6 
#
# 1 0.008402 -0.001588 -0.003056 0.000000 0.000000 0.000000
# 2 -0.001588 0.004019 -0.001389 0.000000 0.000000 0.000000
# 3 -0.003056 -0.001389 0.009539 0.000000 0.000000 0.000000
# 4 0.000000 0.000000 0.000000 0.011937 0.000000 0.000000
# 5 0.000000 0.000000 0.000000 0.000000 0.034822 0.000000
# 6 0.000000 0.000000 0.000000 0.000000 0.000000 0.013994
#
#
# Mechanical properties :
#
#
# Convention : Reuss Voigt Hill
#
# Bulk Modulus (GPa) = 101.06037 115.15785 108.10911
# Shear Modulus (GPa) = 50.98089 62.22223 56.60156
#
# Velocity S-wave (km/s) = 4.18966 4.62858 4.41458
# Velocity P-wave (km/s) = 7.62893 8.25925 7.95034
#
# Compressibility (1/GPa) = 0.00989508
#
# Stress axis : x y z
#
# Youngs Moduli (GPa) = 119.01986 248.79922 104.83308
#
# Poissons Ratio (x) = 0.39512 0.32035
# Poissons Ratio (y) = 0.18902 0.14558
# Poissons Ratio (z) = 0.36370 0.34549
#
# Static dielectric constant tensor:
#      x y z
#    x 2.038850 0.000000 0.000000 
#    y 0.000000 2.834640 0.000000 
#    z 0.000000 0.000000 2.213680 
# 
# From -- ./inp_files/22785.got.cif
#   From: 2010.05.17/outbox.cif.g08.bks.cpg/sg52_12_cif.got.tgz:22785.got - 2010.06.03 12:15:38.
