data_PCOD9412828
_publ_section_title
;
Structure prediction by ZEFSAII (Michael W. Deem and Ramdas Pophale) SiO2 
 PCOD9412828
Probable space group: P N N A
;
_chemical_formula_sum "Si O2"
_cell_formula_units_Z 60
_cell_length_a 22.914309
_cell_length_b 17.187956
_cell_length_c 6.678486
_cell_angle_alpha 90.000000
_cell_angle_beta 90.000000
_cell_angle_gamma 90.000000
_cell_volume 2630.322612
_symmetry_space_group_name_H-M "P N N A"
_symmetry_group_IT_number 52
_symmetry_cell_setting 'orthorhombic'
loop_
_space_group_symop_operation_xyz
x,y,z
1/2-x,-y,z
x,1/2-y,1/2-z
1/2-x,1/2+y,1/2-z
-x,-y,-z
1/2+x,y,-z
-x,1/2+y,1/2+z
1/2+x,1/2-y,1/2+z
loop_
_atom_site_type_symbol
_atom_site_label
_atom_site_fract_x
_atom_site_fract_y
_atom_site_fract_z
Si Si1 0.542887 0.562116 0.404554
Si Si2 0.346803 0.033594 0.170078
Si Si3 0.845683 0.250000 0.250000
Si Si4 0.739087 0.844816 0.942730
Si Si5 0.150234 0.158064 0.784466
Si Si6 0.982412 0.660872 0.308777
Si Si7 0.713924 0.417733 0.909412
Si Si8 0.082785 0.882362 0.506064
O O1 0.500000 0.500000 0.500000
O O2 0.602869 0.545593 0.513408
O O3 0.514224 0.643194 0.480178
O O4 0.555702 0.561116 0.172215
O O5 0.291491 0.070708 0.059625
O O6 0.367079 0.082372 0.365228
O O7 0.334472 0.949003 0.254078
O O8 0.804561 0.291524 0.421377
O O9 0.886892 0.188227 0.368957
O O10 0.751926 0.845662 0.700236
O O11 0.801645 0.844648 0.043088
O O12 0.144479 0.250000 0.750000
O O13 0.083790 0.128268 0.812712
O O14 0.181884 0.113647 0.603163
O O15 0.977414 0.750000 0.250000
O O16 0.028674 0.632103 0.142979
O O17 0.750000 0.500000 0.946199
#
# Coordination Sequence:
#
# PCOD9412828 Si02
#       8
#     8   8   4   8   8   8   8   8
#     4  11  25  42  71 105 135 187 237 303 357 427
#     4  10  25  44  66 105 135 182 237 294 362 432
#     4  12  24  44  76 102 142 186 242 314 364 438
#     4  11  25  44  68 104 137 184 239 292 368 434
#     4  11  26  46  71 105 142 197 239 299 359 446
#     4  10  25  46  68 103 145 185 241 287 371 438
#     4  10  26  44  69 100 144 190 235 297 366 435
#     4  11  25  43  73 104 140 186 239 309 365 425
#
# _framework density 22.810891000000002
#
# number of rings (size 3 to 8) (size 9 to 14) (size 15 to 20)
#    0.000    1.333    2.000    0.800   11.200    4.267 
#    0.000    2.667    0.000    0.000    0.000    0.000 
#    0.000    0.000    0.000    0.000    0.000    0.000 
#
# Total GULP energy -334494.967790 kJ/mol
# GULP energy per Si atom -5574.916130 kJ/mol
# Density = 2.275897 g / cm^3
# Si number density = 22.810891 Si / 1000 Ang^3
#
#
#
# Elastic Constant Matrix: (Units=GPa)
#
#
# Indices 1 2 3 4 5 6 
#
# 1 137.2325 24.3121 36.3405 0.0000 0.0000 0.0000
# 2 24.3121 67.3839 22.7109 0.0000 0.0000 0.0000
# 3 36.3405 22.7109 63.5039 0.0000 0.0000 0.0000
# 4 0.0000 0.0000 0.0000 32.8156 0.0000 0.0000
# 5 0.0000 0.0000 0.0000 0.0000 14.0197 0.0000
# 6 0.0000 0.0000 0.0000 0.0000 0.0000 28.6229
#
#
#
# Elastic Compliance Matrix: (Units=1/GPa)
#
#
# Indices 1 2 3 4 5 6 
#
# 1 0.008751 -0.001671 -0.004410 0.000000 0.000000 0.000000
# 2 -0.001671 0.017193 -0.005193 0.000000 0.000000 0.000000
# 3 -0.004410 -0.005193 0.020128 0.000000 0.000000 0.000000
# 4 0.000000 0.000000 0.000000 0.030473 0.000000 0.000000
# 5 0.000000 0.000000 0.000000 0.000000 0.071328 0.000000
# 6 0.000000 0.000000 0.000000 0.000000 0.000000 0.034937
#
#
# Mechanical properties :
#
#
# Convention : Reuss Voigt Hill
#
# Bulk Modulus (GPa) = 42.50875 48.31635 45.41255
# Shear Modulus (GPa) = 23.45224 27.40877 25.43051
#
# Velocity S-wave (km/s) = 3.20990 3.47012 3.34255
# Velocity P-wave (km/s) = 5.69330 6.10597 5.90325
#
# Compressibility (1/GPa) = 0.02352457
#
# Stress axis : x y z
#
# Youngs Moduli (GPa) = 114.27579 58.16211 49.68245
#
# Poissons Ratio (x) = 0.09718 0.21910
# Poissons Ratio (y) = 0.19094 0.25798
# Poissons Ratio (z) = 0.50397 0.30202
#
# Static dielectric constant tensor:
#      x y z
#    x 1.800530 0.000000 0.000000 
#    y 0.000000 1.826610 0.000000 
#    z 0.000000 0.000000 1.875570 
# 
# From -- ./inp_files/5263.got.cif
#   From: 2010.05.17/outbox.cif.g08.bks.cpg/sg52_3_cif.got.tgz:5263.got - 2010.06.03 12:15:38.
