data_PCOD9412385
_publ_section_title
;
Structure prediction by ZEFSAII (Michael W. Deem and Ramdas Pophale) SiO2 
 PCOD9412385
Probable space group: P N N A
;
_chemical_formula_sum "Si O2"
_cell_formula_units_Z 36
_cell_length_a 9.644230
_cell_length_b 9.056504
_cell_length_c 20.195855
_cell_angle_alpha 90.000000
_cell_angle_beta 90.000000
_cell_angle_gamma 90.000000
_cell_volume 1763.966716
_symmetry_space_group_name_H-M "P N N A"
_symmetry_group_IT_number 52
_symmetry_cell_setting 'orthorhombic'
loop_
_space_group_symop_operation_xyz
x,y,z
1/2-x,-y,z
x,1/2-y,1/2-z
1/2-x,1/2+y,1/2-z
-x,-y,-z
1/2+x,y,-z
-x,1/2+y,1/2+z
1/2+x,1/2-y,1/2+z
loop_
_atom_site_type_symbol
_atom_site_label
_atom_site_fract_x
_atom_site_fract_y
_atom_site_fract_z
Si Si1 0.636808 0.603153 0.210665
Si Si2 0.933213 0.839929 0.983976
Si Si3 0.113797 0.576408 0.251679
Si Si4 0.250000 0.000000 0.118718
Si Si5 0.291194 0.335125 0.940068
O O1 0.750000 0.500000 0.245974
O O2 0.602273 0.750000 0.250000
O O3 0.507119 0.496148 0.210562
O O4 0.690089 0.648804 0.138753
O O5 0.062606 0.732640 0.966323
O O6 0.818982 0.873245 0.926231
O O7 0.837338 0.770663 0.041255
O O8 0.000000 0.000000 0.000000
O O9 0.250000 0.500000 0.223175
O O10 0.114690 0.750000 0.250000
O O11 0.125937 0.539998 0.330210
O O12 0.250000 0.500000 0.965406
#
# Coordination Sequence:
#
# PCOD9412385 Si02
#       5
#     8   8   8   4   8
#     4  11  24  44  68 102 134 181 225 294 350 409
#     4  12  23  46  69 100 139 185 236 275 349 427
#     4  10  23  43  68 100 132 178 237 280 347 405
#     4  10  24  40  70 102 136 186 234 278 346 418
#     4  11  26  45  68 103 143 183 233 293 357 410
#
# _framework density 20.408549000000001
#
# number of rings (size 3 to 8) (size 9 to 14) (size 15 to 20)
#    0.667    0.444    2.222    3.333    3.111    7.111 
#    4.000    0.000    0.000    0.000    0.000    0.000 
#    0.000    0.000    0.000    0.000    0.000    0.000 
#
# Total GULP energy -200612.912505 kJ/mol
# GULP energy per Si atom -5572.580903 kJ/mol
# Density = 2.036210 g / cm^3
# Si number density = 20.408549 Si / 1000 Ang^3
#
#
#
# Elastic Constant Matrix: (Units=GPa)
#
#
# Indices 1 2 3 4 5 6 
#
# 1 85.3558 39.1860 4.3814 0.0000 0.0000 0.0000
# 2 39.1860 135.1872 32.4238 0.0000 0.0000 0.0000
# 3 4.3814 32.4238 60.7672 0.0000 0.0000 0.0000
# 4 0.0000 0.0000 0.0000 8.5704 0.0000 0.0000
# 5 0.0000 0.0000 0.0000 0.0000 30.1465 0.0000
# 6 0.0000 0.0000 0.0000 0.0000 0.0000 48.9853
#
#
#
# Elastic Compliance Matrix: (Units=1/GPa)
#
#
# Indices 1 2 3 4 5 6 
#
# 1 0.013601 -0.004251 0.001288 0.000000 0.000000 0.000000
# 2 -0.004251 0.009812 -0.004929 0.000000 0.000000 0.000000
# 3 0.001288 -0.004929 0.018993 0.000000 0.000000 0.000000
# 4 0.000000 0.000000 0.000000 0.116681 0.000000 0.000000
# 5 0.000000 0.000000 0.000000 0.000000 0.033171 0.000000
# 6 0.000000 0.000000 0.000000 0.000000 0.000000 0.020414
#
#
# Mechanical properties :
#
#
# Convention : Reuss Voigt Hill
#
# Bulk Modulus (GPa) = 37.56363 48.14362 42.85363
# Shear Modulus (GPa) = 21.06762 31.22839 26.14800
#
# Velocity S-wave (km/s) = 3.21642 3.91597 3.58331
# Velocity P-wave (km/s) = 5.67799 6.63985 6.17767
#
# Compressibility (1/GPa) = 0.02662149
#
# Stress axis : x y z
#
# Youngs Moduli (GPa) = 73.52217 101.92027 52.65044
#
# Poissons Ratio (x) = 0.43330 -0.06780
# Poissons Ratio (y) = 0.31257 0.25950
# Poissons Ratio (z) = -0.09468 0.50233
#
# Static dielectric constant tensor:
#      x y z
#    x 1.707370 0.000000 0.000000 
#    y 0.000000 1.735080 0.000000 
#    z 0.000000 0.000000 1.776960 
# 
# From -- ./inp_files/35591.got.cif
#   From: 2010.05.17/outbox.cif.g08.bks.cpg/sg52_18_cif.got.tgz:35591.got - 2010.06.03 12:15:38.
