data_PCOD9412658
_publ_section_title
;
Structure prediction by ZEFSAII (Michael W. Deem and Ramdas Pophale) SiO2 
 PCOD9412658
Probable space group: P N N A
;
_chemical_formula_sum "Si O2"
_cell_formula_units_Z 24
_cell_length_a 8.017737
_cell_length_b 21.236555
_cell_length_c 4.668431
_cell_angle_alpha 90.000000
_cell_angle_beta 90.000000
_cell_angle_gamma 90.000000
_cell_volume 794.889604
_symmetry_space_group_name_H-M "P N N A"
_symmetry_group_IT_number 52
_symmetry_cell_setting 'orthorhombic'
loop_
_space_group_symop_operation_xyz
x,y,z
1/2-x,-y,z
x,1/2-y,1/2-z
1/2-x,1/2+y,1/2-z
-x,-y,-z
1/2+x,y,-z
-x,1/2+y,1/2+z
1/2+x,1/2-y,1/2+z
loop_
_atom_site_type_symbol
_atom_site_label
_atom_site_fract_x
_atom_site_fract_y
_atom_site_fract_z
Si Si1 0.750000 0.000000 0.105860
Si Si2 0.478015 0.164043 0.087228
Si Si3 0.748168 0.750000 0.250000
Si Si4 0.180633 0.413616 0.149464
O O1 0.782695 0.942865 0.335761
O O2 0.872256 0.973039 0.850370
O O3 0.631731 0.189550 0.277623
O O4 0.357683 0.115036 0.242211
O O5 0.371864 0.224486 0.992039
O O6 0.550993 0.136016 0.792254
#
# Coordination Sequence:
#
# PCOD9412658 Si02
#       4
#     4   8   4   8
#     4  10  24  44  70 104 146 190 242 304 368 440
#     4  10  24  43  70 106 146 195 246 304 370 444
#     4  10  24  46  68 102 148 192 246 306 368 436
#     4  10  24  43  71 106 145 190 244 301 370 442
#
# _framework density 30.192869999999999
#
# number of rings (size 3 to 8) (size 9 to 14) (size 15 to 20)
#    0.000    2.000    0.000    0.000    0.000   26.667 
#    0.000    0.000    0.000    0.000    0.000    0.000 
#    0.000    0.000    0.000    0.000    0.000    0.000 
#
# Total GULP energy -133770.906362 kJ/mol
# GULP energy per Si atom -5573.787765 kJ/mol
# Density = 3.012415 g / cm^3
# Si number density = 30.192870 Si / 1000 Ang^3
#
#
#
# Elastic Constant Matrix: (Units=GPa)
#
#
# Indices 1 2 3 4 5 6 
#
# 1 105.2906 34.1875 19.0274 0.0000 0.0000 0.0000
# 2 34.1875 133.3604 28.8922 0.0000 0.0000 0.0000
# 3 19.0274 28.8922 164.5430 0.0000 0.0000 0.0000
# 4 0.0000 0.0000 0.0000 57.7093 0.0000 0.0000
# 5 0.0000 0.0000 0.0000 0.0000 -14.6306 0.0000
# 6 0.0000 0.0000 0.0000 0.0000 0.0000 38.8407
#
#
#
# Elastic Compliance Matrix: (Units=1/GPa)
#
#
# Indices 1 2 3 4 5 6 
#
# 1 0.010452 -0.002513 -0.000767 0.000000 0.000000 0.000000
# 2 -0.002513 0.008399 -0.001184 0.000000 0.000000 0.000000
# 3 -0.000767 -0.001184 0.006374 0.000000 0.000000 0.000000
# 4 0.000000 0.000000 0.000000 0.017328 0.000000 0.000000
# 5 0.000000 0.000000 0.000000 0.000000 -0.068350 0.000000
# 6 0.000000 0.000000 0.000000 0.000000 0.000000 0.025746
#
#
# Mechanical properties :
#
#
# Convention : Reuss Voigt Hill
#
# Bulk Modulus (GPa) = 61.36463 63.04534 62.20499
# Shear Modulus (GPa) = 349.35772 37.78968 193.57370
#
# Velocity S-wave (km/s) = 10.76847 3.54165 8.01571
# Velocity P-wave (km/s) = 13.22806 6.13600 10.31097
#
# Compressibility (1/GPa) = 0.01629603
#
# Stress axis : x y z
#
# Youngs Moduli (GPa) = 95.67333 119.05736 156.88463
#
# Poissons Ratio (x) = 0.29922 0.12039
# Poissons Ratio (y) = 0.24045 0.18579
# Poissons Ratio (z) = 0.07342 0.14099
#
# Static dielectric constant tensor:
#      x y z
#    x 2.546710 0.000000 0.000000 
#    y 0.000000 2.529670 0.000000 
#    z 0.000000 0.000000 2.295860 
# 
# From -- ./inp_files/308.got.cif
#   From: 2010.05.17/outbox.cif.g08.bks.cpg/sg52_1_cif.got.tgz:308.got - 2010.06.03 12:15:38.
