data_PCOD9412892
_publ_section_title
;
Structure prediction by ZEFSAII (Michael W. Deem and Ramdas Pophale) SiO2 
 PCOD9412892
Probable space group: P N N A
;
_chemical_formula_sum "Si O2"
_cell_formula_units_Z 40
_cell_length_a 6.899874
_cell_length_b 7.803390
_cell_length_c 26.988609
_cell_angle_alpha 90.000000
_cell_angle_beta 90.000000
_cell_angle_gamma 90.000000
_cell_volume 1453.131691
_symmetry_space_group_name_H-M "P N N A"
_symmetry_group_IT_number 52
_symmetry_cell_setting 'orthorhombic'
loop_
_space_group_symop_operation_xyz
x,y,z
1/2-x,-y,z
x,1/2-y,1/2-z
1/2-x,1/2+y,1/2-z
-x,-y,-z
1/2+x,y,-z
-x,1/2+y,1/2+z
1/2+x,1/2-y,1/2+z
loop_
_atom_site_type_symbol
_atom_site_label
_atom_site_fract_x
_atom_site_fract_y
_atom_site_fract_z
Si Si1 0.261228 0.796148 0.059748
Si Si2 0.896278 0.250000 0.250000
Si Si3 0.250000 0.500000 0.613020
Si Si4 0.668487 0.186588 0.450760
Si Si5 0.980443 0.873818 0.207398
Si Si6 0.847971 0.685078 0.833737
O O1 0.357961 0.762876 0.112150
O O2 0.050420 0.712129 0.066487
O O3 0.250000 0.000000 0.051467
O O4 0.343170 0.711663 0.010131
O O5 0.941596 0.307175 0.190290
O O6 0.964218 0.448095 0.265636
O O7 0.215866 0.655978 0.574240
O O8 0.103638 0.412077 0.653083
O O9 0.750000 0.000000 0.438625
O O10 0.860223 0.750000 0.250000
O O11 0.188496 0.792415 0.198457
O O12 0.750000 0.500000 0.835564
#
# Coordination Sequence:
#
# PCOD9412892 Si02
#       6
#     8   4   4   8   8   8
#     4  12  28  52  83 123 172 224 290 357 441 531
#     4  10  26  44  82 112 174 220 292 368 436 518
#     4  12  26  52  88 120 174 228 284 354 432 522
#     4  12  28  52  87 126 174 224 287 360 439 528
#     4  10  26  48  78 121 162 223 290 349 433 506
#     4  12  27  49  79 122 169 221 294 360 435 520
#
# _framework density 27.526755999999999
#
# number of rings (size 3 to 8) (size 9 to 14) (size 15 to 20)
#    0.600    0.000    4.000    1.800    5.600    3.200 
#    1.800    0.000    0.000    0.000    0.000    0.000 
#    0.000    0.000    0.000    0.000    0.000    0.000 
#
# Total GULP energy -223790.643479 kJ/mol
# GULP energy per Si atom -5594.766087 kJ/mol
# Density = 2.746410 g / cm^3
# Si number density = 27.526756 Si / 1000 Ang^3
#
#
#
# Elastic Constant Matrix: (Units=GPa)
#
#
# Indices 1 2 3 4 5 6 
#
# 1 106.7178 -7.3744 59.4288 0.0000 0.0000 0.0000
# 2 -7.3744 179.8882 44.5433 0.0000 0.0000 0.0000
# 3 59.4288 44.5433 212.7860 0.0000 0.0000 0.0000
# 4 0.0000 0.0000 0.0000 105.6051 0.0000 0.0000
# 5 0.0000 0.0000 0.0000 0.0000 42.5052 0.0000
# 6 0.0000 0.0000 0.0000 0.0000 0.0000 35.3396
#
#
#
# Elastic Compliance Matrix: (Units=1/GPa)
#
#
# Indices 1 2 3 4 5 6 
#
# 1 0.011387 0.001323 -0.003457 0.000000 0.000000 0.000000
# 2 0.001323 0.006017 -0.001629 0.000000 0.000000 0.000000
# 3 -0.003457 -0.001629 0.006006 0.000000 0.000000 0.000000
# 4 0.000000 0.000000 0.000000 0.009469 0.000000 0.000000
# 5 0.000000 0.000000 0.000000 0.000000 0.023527 0.000000
# 6 0.000000 0.000000 0.000000 0.000000 0.000000 0.028297
#
#
# Mechanical properties :
#
#
# Convention : Reuss Voigt Hill
#
# Bulk Modulus (GPa) = 62.95925 76.95416 69.95670
# Shear Modulus (GPa) = 51.26969 63.54295 57.40632
#
# Velocity S-wave (km/s) = 4.32040 4.80980 4.57165
# Velocity P-wave (km/s) = 6.91444 7.67218 7.30314
#
# Compressibility (1/GPa) = 0.01588329
#
# Stress axis : x y z
#
# Youngs Moduli (GPa) = 87.81802 166.20705 166.49681
#
# Poissons Ratio (x) = -0.21987 0.57562
# Poissons Ratio (y) = -0.11617 0.27121
# Poissons Ratio (z) = 0.30361 0.27074
#
# Static dielectric constant tensor:
#      x y z
#    x 2.345820 0.000000 0.000000 
#    y 0.000000 1.937680 0.000000 
#    z 0.000000 0.000000 2.105180 
# 
# From -- ./inp_files/42153.got.cif
#   From: 2010.05.17/outbox.cif.g08.bks.cpg/sg52_22_cif.got.tgz:42153.got - 2010.06.03 12:15:38.
