data_PCOD9412680
_publ_section_title
;
Structure prediction by ZEFSAII (Michael W. Deem and Ramdas Pophale) SiO2 
 PCOD9412680
Probable space group: P N N A
;
_chemical_formula_sum "Si O2"
_cell_formula_units_Z 20
_cell_length_a 9.030719
_cell_length_b 4.921344
_cell_length_c 20.194747
_cell_angle_alpha 90.000000
_cell_angle_beta 90.000000
_cell_angle_gamma 90.000000
_cell_volume 897.520690
_symmetry_space_group_name_H-M "P N N A"
_symmetry_group_IT_number 52
_symmetry_cell_setting 'orthorhombic'
loop_
_space_group_symop_operation_xyz
x,y,z
1/2-x,-y,z
x,1/2-y,1/2-z
1/2-x,1/2+y,1/2-z
-x,-y,-z
1/2+x,y,-z
-x,1/2+y,1/2+z
1/2+x,1/2-y,1/2+z
loop_
_atom_site_type_symbol
_atom_site_label
_atom_site_fract_x
_atom_site_fract_y
_atom_site_fract_z
Si Si1 0.013342 0.347104 0.093415
Si Si2 0.250000 0.500000 0.999624
Si Si3 0.916523 0.375457 0.678750
O O1 0.056208 0.633481 0.126938
O O2 0.870692 0.361507 0.047289
O O3 0.992446 0.128753 0.150885
O O4 0.153991 0.296544 0.045426
O O5 0.750000 0.500000 0.682685
O O6 0.952364 0.250000 0.750000
#
# Coordination Sequence:
#
# PCOD9412680 Si02
#       3
#     8   4   8
#     4  11  24  42  69 102 133 177 219 278 333 401
#     4  10  24  44  68 102 142 174 220 274 344 402
#     4  12  23  42  68  98 131 176 230 276 325 395
#
# _framework density 22.283609999999999
#
# number of rings (size 3 to 8) (size 9 to 14) (size 15 to 20)
#    0.000    0.800    4.000    3.600    0.000   11.200 
#    0.000    4.000    0.000    2.400    0.000    0.000 
#    0.000    0.000    0.000    0.000    0.000    0.000 
#
# Total GULP energy -111815.781027 kJ/mol
# GULP energy per Si atom -5590.789051 kJ/mol
# Density = 2.223289 g / cm^3
# Si number density = 22.283610 Si / 1000 Ang^3
#
#
#
# Elastic Constant Matrix: (Units=GPa)
#
#
# Indices 1 2 3 4 5 6 
#
# 1 107.1458 18.5686 50.3748 0.0000 0.0000 0.0000
# 2 18.5686 105.1445 9.2305 0.0000 0.0000 0.0000
# 3 50.3748 9.2305 66.5392 0.0000 0.0000 0.0000
# 4 0.0000 0.0000 0.0000 223.9070 0.0000 0.0000
# 5 0.0000 0.0000 0.0000 0.000022050.7525 0.0000
# 6 0.0000 0.0000 0.0000 0.0000 0.0000 11.5692
#
#
#
# Elastic Compliance Matrix: (Units=1/GPa)
#
#
# Indices 1 2 3 4 5 6 
#
# 1 0.014767 -0.001647 -0.010951 0.000000 0.000000 0.000000
# 2 -0.001647 0.009812 -0.000115 0.000000 0.000000 0.000000
# 3 -0.010951 -0.000115 0.023336 0.000000 0.000000 0.000000
# 4 0.000000 0.000000 0.000000 0.004466 0.000000 0.000000
# 5 0.000000 0.000000 0.000000 0.000000 0.000045 0.000000
# 6 0.000000 0.000000 0.000000 0.000000 0.000000 0.086436
#
#
# Mechanical properties :
#
#
# Convention : Reuss Voigt Hill
#
# Bulk Modulus (GPa) = 44.46533 48.35304 46.40918
# Shear Modulus (GPa) = 29.10640 4470.62280 2249.86460
#
# Velocity S-wave (km/s) = 3.61803 44.83964 31.80946
# Velocity P-wave (km/s) = 6.11973 51.98593 37.01343
#
# Compressibility (1/GPa) = 0.02248943
#
# Stress axis : x y z
#
# Youngs Moduli (GPa) = 67.71735 101.92065 42.85291
#
# Poissons Ratio (x) = 0.16781 0.46930
# Poissons Ratio (y) = 0.11150 0.00491
# Poissons Ratio (z) = 0.74160 0.01168
#
# Static dielectric constant tensor:
#      x y z
#    x 1.835430 0.000000 0.000000 
#    y 0.000000 1.818490 0.000000 
#    z 0.000000 0.000000 1.835710 
# 
# From -- ./inp_files/30492.got.cif
#   From: 2010.05.17/outbox.cif.g08.bks.cpg/sg52_16_cif.got.tgz:30492.got - 2010.06.03 12:15:38.
