data_PCOD9412731
_publ_section_title
;
Structure prediction by ZEFSAII (Michael W. Deem and Ramdas Pophale) SiO2 
 PCOD9412731
Probable space group: P N N A
;
_chemical_formula_sum "Si O2"
_cell_formula_units_Z 40
_cell_length_a 8.613415
_cell_length_b 22.052626
_cell_length_c 9.786605
_cell_angle_alpha 90.000000
_cell_angle_beta 90.000000
_cell_angle_gamma 90.000000
_cell_volume 1858.950153
_symmetry_space_group_name_H-M "P N N A"
_symmetry_group_IT_number 52
_symmetry_cell_setting 'orthorhombic'
loop_
_space_group_symop_operation_xyz
x,y,z
1/2-x,-y,z
x,1/2-y,1/2-z
1/2-x,1/2+y,1/2-z
-x,-y,-z
1/2+x,y,-z
-x,1/2+y,1/2+z
1/2+x,1/2-y,1/2+z
loop_
_atom_site_type_symbol
_atom_site_label
_atom_site_fract_x
_atom_site_fract_y
_atom_site_fract_z
Si Si1 0.259729 0.641488 0.829308
Si Si2 0.750000 0.500000 0.574516
Si Si3 0.426742 0.185072 0.444726
Si Si4 0.969618 0.579150 0.377455
Si Si5 0.453251 0.189306 0.918707
Si Si6 0.722777 0.250000 0.750000
O O1 0.394684 0.680933 0.902108
O O2 0.367928 0.591217 0.757481
O O3 0.162773 0.667310 0.700565
O O4 0.134330 0.633712 0.951198
O O5 0.857842 0.541633 0.478638
O O6 0.626894 0.542065 0.653070
O O7 0.392435 0.248435 0.519361
O O8 0.326918 0.195915 0.310569
O O9 0.015613 0.639089 0.465277
O O10 0.610992 0.212751 0.850332
#
# Coordination Sequence:
#
# PCOD9412731 Si02
#       6
#     8   4   8   8   8   4
#     4  12  24  43  64  98 143 180 224 267 336 416
#     4  10  24  46  68 102 118 170 242 306 348 382
#     4  12  25  39  61 100 144 184 214 260 323 433
#     4  11  24  43  71  98 129 171 231 296 351 383
#     4  12  23  40  61  99 139 180 214 270 329 413
#     4  12  24  36  60  96 142 180 220 252 322 426
#
# _framework density 21.517520999999999
#
# number of rings (size 3 to 8) (size 9 to 14) (size 15 to 20)
#    0.000    0.400    6.000    2.400    8.400    0.000 
#    0.000    0.000    0.000    3.600    0.000    0.000 
#    0.000    0.000    0.000    0.000    0.000    0.000 
#
# Total GULP energy -223182.681147 kJ/mol
# GULP energy per Si atom -5579.567029 kJ/mol
# Density = 2.146855 g / cm^3
# Si number density = 21.517521 Si / 1000 Ang^3
#
#
#
# Elastic Constant Matrix: (Units=GPa)
#
#
# Indices 1 2 3 4 5 6 
#
# 1 104.9923 -6.5570 28.3233 0.0000 0.0000 0.0000
# 2 -6.5570 15.3833 14.2805 0.0000 0.0000 0.0000
# 3 28.3233 14.2805 73.8846 0.0000 0.0000 0.0000
# 4 0.0000 0.0000 0.0000 1.1308 0.0000 0.0000
# 5 0.0000 0.0000 0.0000 0.0000 310.8347 0.0000
# 6 0.0000 0.0000 0.0000 0.0000 0.0000 29.6189
#
#
#
# Elastic Compliance Matrix: (Units=1/GPa)
#
#
# Indices 1 2 3 4 5 6 
#
# 1 0.012097 0.011530 -0.006866 0.000000 0.000000 0.000000
# 2 0.011530 0.090209 -0.021855 0.000000 0.000000 0.000000
# 3 -0.006866 -0.021855 0.020391 0.000000 0.000000 0.000000
# 4 0.000000 0.000000 0.000000 0.884333 0.000000 0.000000
# 5 0.000000 0.000000 0.000000 0.000000 0.003217 0.000000
# 6 0.000000 0.000000 0.000000 0.000000 0.000000 0.033762
#
#
# Mechanical properties :
#
#
# Convention : Reuss Voigt Hill
#
# Bulk Modulus (GPa) = 11.32336 29.59486 20.45911
# Shear Modulus (GPa) = 4.51333 78.86444 41.68889
#
# Velocity S-wave (km/s) = 1.44985 6.06060 4.40641
# Velocity P-wave (km/s) = 2.84193 7.92200 5.95125
#
# Compressibility (1/GPa) = 0.08831301
#
# Stress axis : x y z
#
# Youngs Moduli (GPa) = 82.66735 11.08543 49.04184
#
# Poissons Ratio (x) = -0.12781 0.33670
# Poissons Ratio (y) = -0.95312 1.07183
# Poissons Ratio (z) = 0.56756 0.24228
#
# Static dielectric constant tensor:
#      x y z
#    x 1.865460 0.000000 0.000000 
#    y 0.000000 1.821030 0.000000 
#    z 0.000000 0.000000 1.941050 
# 
# From -- ./inp_files/7468.got.cif
#   From: 2010.05.17/outbox.cif.g08.bks.cpg/sg52_4_cif.got.tgz:7468.got - 2010.06.03 12:15:38.
