data_PCOD9412299
_publ_section_title
;
Structure prediction by ZEFSAII (Michael W. Deem and Ramdas Pophale) SiO2 
 PCOD9412299
Probable space group: P N N A
;
_chemical_formula_sum "Si O2"
_cell_formula_units_Z 48
_cell_length_a 29.096843
_cell_length_b 7.911509
_cell_length_c 8.695319
_cell_angle_alpha 90.000000
_cell_angle_beta 90.000000
_cell_angle_gamma 90.000000
_cell_volume 2001.661871
_symmetry_space_group_name_H-M "P N N A"
_symmetry_group_IT_number 52
_symmetry_cell_setting 'orthorhombic'
loop_
_space_group_symop_operation_xyz
x,y,z
1/2-x,-y,z
x,1/2-y,1/2-z
1/2-x,1/2+y,1/2-z
-x,-y,-z
1/2+x,y,-z
-x,1/2+y,1/2+z
1/2+x,1/2-y,1/2+z
loop_
_atom_site_type_symbol
_atom_site_label
_atom_site_fract_x
_atom_site_fract_y
_atom_site_fract_z
Si Si1 0.021624 0.255886 0.569422
Si Si2 0.346880 0.676154 0.918481
Si Si3 0.256024 0.701930 0.077444
Si Si4 0.074303 0.911837 0.049276
Si Si5 0.663751 0.772052 0.423936
Si Si6 0.421177 0.606388 0.149491
O O1 0.023210 0.250000 0.750000
O O2 0.053082 0.418354 0.525101
O O3 0.045456 0.092053 0.495137
O O4 0.968751 0.287491 0.529537
O O5 0.360852 0.750000 0.750000
O O6 0.347385 0.471841 0.924420
O O7 0.296398 0.746609 0.958600
O O8 0.377244 0.700214 0.073598
O O9 0.250000 0.500000 0.069129
O O10 0.268943 0.750000 0.250000
O O11 0.206270 0.774054 0.033537
O O12 0.085401 0.955650 0.230032
O O13 0.119445 0.838079 0.968629
O O14 0.679555 0.750000 0.250000
O O15 0.446642 0.750000 0.250000
#
# Coordination Sequence:
#
# PCOD9412299 Si02
#       6
#     8   8   8   8   8   8
#     4  10  23  43  69  99 141 189 234 288 354 424
#     4  11  25  44  71 100 139 186 234 285 356 431
#     4  10  24  45  71 105 137 182 234 289 354 421
#     4  10  25  44  68 105 142 184 237 298 352 420
#     4  11  27  43  69 102 141 180 233 296 354 418
#     4  10  23  41  67  99 137 184 235 286 354 424
#
# _framework density 23.980073999999998
#
# number of rings (size 3 to 8) (size 9 to 14) (size 15 to 20)
#    0.000    1.667    0.000    1.500   14.000    5.333 
#    0.000    0.000    0.000    0.000    0.000    0.000 
#    0.000    0.000    0.000    0.000    0.000    0.000 
#
# Total GULP energy -267963.225322 kJ/mol
# GULP energy per Si atom -5582.567194 kJ/mol
# Density = 2.392549 g / cm^3
# Si number density = 23.980074 Si / 1000 Ang^3
#
#
#
# Elastic Constant Matrix: (Units=GPa)
#
#
# Indices 1 2 3 4 5 6 
#
# 1 134.1994 15.9229 6.5840 0.0000 0.0000 0.0000
# 2 15.9229 58.4412 -3.2754 0.0000 0.0000 0.0000
# 3 6.5840 -3.2754 51.3420 0.0000 0.0000 0.0000
# 4 0.0000 0.0000 0.0000 29.2830 0.0000 0.0000
# 5 0.0000 0.0000 0.0000 0.0000 63.4577 0.0000
# 6 0.0000 0.0000 0.0000 0.0000 0.0000 -570.7868
#
#
#
# Elastic Compliance Matrix: (Units=1/GPa)
#
#
# Indices 1 2 3 4 5 6 
#
# 1 0.007766 -0.002179 -0.001135 0.000000 0.000000 0.000000
# 2 -0.002179 0.017784 0.001414 0.000000 0.000000 0.000000
# 3 -0.001135 0.001414 0.019713 0.000000 0.000000 0.000000
# 4 0.000000 0.000000 0.000000 0.034150 0.000000 0.000000
# 5 0.000000 0.000000 0.000000 0.000000 0.015759 0.000000
# 6 0.000000 0.000000 0.000000 0.000000 0.000000 -0.001752
#
#
# Mechanical properties :
#
#
# Convention : Reuss Voigt Hill
#
# Bulk Modulus (GPa) = 24.11822 31.38284 27.75053
# Shear Modulus (GPa) = 45.02851 -80.62582 -17.79866
#
# Velocity S-wave (km/s) = 4.33800 -5.80474 -2.72734
# Velocity P-wave (km/s) = 5.93047 5.64014 1.29600
#
# Compressibility (1/GPa) = 0.04146243
#
# Stress axis : x y z
#
# Youngs Moduli (GPa) = 128.76844 56.22935 50.72801
#
# Poissons Ratio (x) = 0.12255 0.05757
# Poissons Ratio (y) = 0.28065 -0.07173
# Poissons Ratio (z) = 0.14614 -0.07951
#
# Static dielectric constant tensor:
#      x y z
#    x 1.942020 0.000000 0.000000 
#    y 0.000000 2.284360 0.000000 
#    z 0.000000 0.000000 1.525640 
# 
# From -- ./inp_files/15540.got.cif
#   From: 2010.05.17/outbox.cif.g08.bks.cpg/sg52_8_cif.got.tgz:15540.got - 2010.06.03 12:15:38.
