data_PCOD9412103
_publ_section_title
;
Structure prediction by ZEFSAII (Michael W. Deem and Ramdas Pophale) SiO2 
 PCOD9412103
Probable space group: P N N A
;
_chemical_formula_sum "Si O2"
_cell_formula_units_Z 28
_cell_length_a 10.743284
_cell_length_b 13.741439
_cell_length_c 9.089373
_cell_angle_alpha 90.000000
_cell_angle_beta 90.000000
_cell_angle_gamma 90.000000
_cell_volume 1341.847609
_symmetry_space_group_name_H-M "P N N A"
_symmetry_group_IT_number 52
_symmetry_cell_setting 'orthorhombic'
loop_
_space_group_symop_operation_xyz
x,y,z
1/2-x,-y,z
x,1/2-y,1/2-z
1/2-x,1/2+y,1/2-z
-x,-y,-z
1/2+x,y,-z
-x,1/2+y,1/2+z
1/2+x,1/2-y,1/2+z
loop_
_atom_site_type_symbol
_atom_site_label
_atom_site_fract_x
_atom_site_fract_y
_atom_site_fract_z
Si Si1 0.837464 0.250000 0.250000
Si Si2 0.666149 0.086974 0.395828
Si Si3 0.423288 0.744222 0.413315
Si Si4 0.115517 0.050000 0.918987
O O1 0.758423 0.163077 0.315713
O O2 0.933437 0.281613 0.377620
O O3 0.590022 0.150891 0.510998
O O4 0.588773 0.047997 0.256443
O O5 0.750000 0.000000 0.459420
O O6 0.363340 0.750000 0.250000
O O7 0.373422 0.659716 0.517796
O O8 0.250000 0.000000 0.941432
O O9 0.000000 0.000000 0.000000
#
# Coordination Sequence:
#
# PCOD9412103 Si02
#       4
#     4   8   8   8
#     4  10  22  44  64  94 142 166 242 276 350 408
#     4  11  22  43  70  91 136 185 218 290 352 403
#     4  10  23  41  63  97 130 176 227 286 332 419
#     4  11  23  43  68 100 134 182 231 280 349 417
#
# _framework density 20.866751000000001
#
# number of rings (size 3 to 8) (size 9 to 14) (size 15 to 20)
#    0.857    0.571    2.857    3.429    0.000    2.286 
#    5.143    0.000    0.000    0.000    0.000    0.000 
#    0.000    0.000    0.000    0.000    0.000    0.000 
#
# Total GULP energy -156215.267143 kJ/mol
# GULP energy per Si atom -5579.116684 kJ/mol
# Density = 2.081926 g / cm^3
# Si number density = 20.866751 Si / 1000 Ang^3
#
#
#
# Elastic Constant Matrix: (Units=GPa)
#
#
# Indices 1 2 3 4 5 6 
#
# 1 60.4725 11.6215 22.0736 0.0000 0.0000 0.0000
# 2 11.6215 72.8339 3.0062 0.0000 0.0000 0.0000
# 3 22.0736 3.0062 83.1382 0.0000 0.0000 0.0000
# 4 0.0000 0.0000 0.0000 42.3040 0.0000 0.0000
# 5 0.0000 0.0000 0.0000 0.0000 13.8011 0.0000
# 6 0.0000 0.0000 0.0000 0.0000 0.0000 31.1004
#
#
#
# Elastic Compliance Matrix: (Units=1/GPa)
#
#
# Indices 1 2 3 4 5 6 
#
# 1 0.018868 -0.002808 -0.004908 0.000000 0.000000 0.000000
# 2 -0.002808 0.014168 0.000233 0.000000 0.000000 0.000000
# 3 -0.004908 0.000233 0.013323 0.000000 0.000000 0.000000
# 4 0.000000 0.000000 0.000000 0.023638 0.000000 0.000000
# 5 0.000000 0.000000 0.000000 0.000000 0.072458 0.000000
# 6 0.000000 0.000000 0.000000 0.000000 0.000000 0.032154
#
#
# Mechanical properties :
#
#
# Convention : Reuss Voigt Hill
#
# Bulk Modulus (GPa) = 31.85387 32.20524 32.02956
# Shear Modulus (GPa) = 24.99514 29.42397 27.20956
#
# Velocity S-wave (km/s) = 3.46474 3.75919 3.61497
# Velocity P-wave (km/s) = 5.59504 5.85741 5.72773
#
# Compressibility (1/GPa) = 0.03139335
#
# Stress axis : x y z
#
# Youngs Moduli (GPa) = 53.00102 70.58020 75.05925
#
# Poissons Ratio (x) = 0.19819 0.36838
# Poissons Ratio (y) = 0.14882 -0.01751
# Poissons Ratio (z) = 0.26012 -0.01646
#
# Static dielectric constant tensor:
#      x y z
#    x 1.745300 0.000000 0.000000 
#    y 0.000000 1.788350 0.000000 
#    z 0.000000 0.000000 1.780370 
# 
# From -- ./inp_files/8149.got.cif
#   From: 2010.05.17/outbox.cif.g08.bks.cpg/sg52_5_cif.got.tgz:8149.got - 2010.06.03 12:15:38.
