data_PCOD9412978
_publ_section_title
;
Structure prediction by ZEFSAII (Michael W. Deem and Ramdas Pophale) SiO2 
 PCOD9412978
Probable space group: P N N A
;
_chemical_formula_sum "Si O2"
_cell_formula_units_Z 48
_cell_length_a 17.154883
_cell_length_b 11.135365
_cell_length_c 11.570852
_cell_angle_alpha 90.000000
_cell_angle_beta 90.000000
_cell_angle_gamma 90.000000
_cell_volume 2210.332229
_symmetry_space_group_name_H-M "P N N A"
_symmetry_group_IT_number 52
_symmetry_cell_setting 'orthorhombic'
loop_
_space_group_symop_operation_xyz
x,y,z
1/2-x,-y,z
x,1/2-y,1/2-z
1/2-x,1/2+y,1/2-z
-x,-y,-z
1/2+x,y,-z
-x,1/2+y,1/2+z
1/2+x,1/2-y,1/2+z
loop_
_atom_site_type_symbol
_atom_site_label
_atom_site_fract_x
_atom_site_fract_y
_atom_site_fract_z
Si Si1 0.610431 0.077984 0.427911
Si Si2 0.103303 0.848481 0.153610
Si Si3 0.022695 0.750000 0.750000
Si Si4 0.250000 0.500000 0.764021
Si Si5 0.360166 0.094017 0.902271
Si Si6 0.080209 0.319300 0.627712
Si Si7 0.553998 0.480767 0.839416
O O1 0.615029 0.218934 0.456627
O O2 0.605527 0.005101 0.546648
O O3 0.679486 0.036440 0.346322
O O4 0.527371 0.051026 0.364548
O O5 0.127325 0.750000 0.250000
O O6 0.013468 0.822149 0.117249
O O7 0.096022 0.970037 0.226850
O O8 0.149221 0.865583 0.034564
O O9 0.216960 0.600458 0.676555
O O10 0.076015 0.824130 0.839127
O O11 0.527925 0.154367 0.681177
O O12 0.388562 0.953888 0.892515
O O13 0.097783 0.250000 0.750000
#
# Coordination Sequence:
#
# PCOD9412978 Si02
#       7
#     8   8   4   4   8   8   8
#     4  11  23  41  67  96 139 173 222 280 342 410
#     4  11  22  41  66  96 133 176 226 291 347 392
#     4  12  22  40  66 104 132 164 238 286 328 406
#     4  12  24  48  62 102 132 180 222 278 352 420
#     4  12  26  38  65  98 136 177 227 278 343 417
#     4  11  18  40  63  96 132 171 214 282 345 390
#     4  11  23  40  65 101 130 174 228 284 337 401
#
# _framework density 21.716190999999998
#
# number of rings (size 3 to 8) (size 9 to 14) (size 15 to 20)
#    0.000    0.667    8.333    1.500    4.667    1.333 
#    0.000    0.833    0.000    0.000    2.167    0.000 
#    0.000    0.000    0.000    0.000    0.000    0.000 
#
# Total GULP energy -268085.676794 kJ/mol
# GULP energy per Si atom -5585.118267 kJ/mol
# Density = 2.166676 g / cm^3
# Si number density = 21.716191 Si / 1000 Ang^3
#
#
#
# Elastic Constant Matrix: (Units=GPa)
#
#
# Indices 1 2 3 4 5 6 
#
# 1 59.5315 24.8840 64.5700 0.0000 0.0000 0.0000
# 2 24.8840 114.2634 41.5715 0.0000 0.0000 0.0000
# 3 64.5700 41.5715 171.8957 0.0000 0.0000 0.0000
# 4 0.0000 0.0000 0.0000 22.0065 0.0000 0.0000
# 5 0.0000 0.0000 0.0000 0.0000 31.3041 0.0000
# 6 0.0000 0.0000 0.0000 0.0000 0.0000 1.4536
#
#
#
# Elastic Compliance Matrix: (Units=1/GPa)
#
#
# Indices 1 2 3 4 5 6 
#
# 1 0.029026 -0.002582 -0.010279 0.000000 0.000000 0.000000
# 2 -0.002582 0.009826 -0.001407 0.000000 0.000000 0.000000
# 3 -0.010279 -0.001407 0.010019 0.000000 0.000000 0.000000
# 4 0.000000 0.000000 0.000000 0.045441 0.000000 0.000000
# 5 0.000000 0.000000 0.000000 0.000000 0.031945 0.000000
# 6 0.000000 0.000000 0.000000 0.000000 0.000000 0.687956
#
#
# Mechanical properties :
#
#
# Convention : Reuss Voigt Hill
#
# Bulk Modulus (GPa) = 49.17295 67.52684 58.34990
# Shear Modulus (GPa) = 5.88565 25.26385 15.57475
#
# Velocity S-wave (km/s) = 1.64807 3.41451 2.68096
# Velocity P-wave (km/s) = 5.12973 6.83432 6.04243
#
# Compressibility (1/GPa) = 0.02033638
#
# Stress axis : x y z
#
# Youngs Moduli (GPa) = 34.45238 101.77462 99.81351
#
# Poissons Ratio (x) = 0.26273 1.02595
# Poissons Ratio (y) = 0.08894 0.14039
# Poissons Ratio (z) = 0.35413 0.14315
#
# Static dielectric constant tensor:
#      x y z
#    x 1.788760 0.000000 0.000000 
#    y 0.000000 1.867590 0.000000 
#    z 0.000000 0.000000 1.864360 
# 
# From -- ./inp_files/20649.got.cif
#   From: 2010.05.17/outbox.cif.g08.bks.cpg/sg52_11_cif.got.tgz:20649.got - 2010.06.03 12:15:38.
