data_PCOD9412826
_publ_section_title
;
Structure prediction by ZEFSAII (Michael W. Deem and Ramdas Pophale) SiO2 
 PCOD9412826
Probable space group: P N N A
;
_chemical_formula_sum "Si O2"
_cell_formula_units_Z 48
_cell_length_a 9.245651
_cell_length_b 21.495711
_cell_length_c 10.563361
_cell_angle_alpha 90.000000
_cell_angle_beta 90.000000
_cell_angle_gamma 90.000000
_cell_volume 2099.381822
_symmetry_space_group_name_H-M "P N N A"
_symmetry_group_IT_number 52
_symmetry_cell_setting 'orthorhombic'
loop_
_space_group_symop_operation_xyz
x,y,z
1/2-x,-y,z
x,1/2-y,1/2-z
1/2-x,1/2+y,1/2-z
-x,-y,-z
1/2+x,y,-z
-x,1/2+y,1/2+z
1/2+x,1/2-y,1/2+z
loop_
_atom_site_type_symbol
_atom_site_label
_atom_site_fract_x
_atom_site_fract_y
_atom_site_fract_z
Si Si1 0.800543 0.205766 0.352597
Si Si2 0.250000 0.000000 0.797296
Si Si3 0.506229 0.295420 0.496844
Si Si4 0.770995 0.370343 0.387651
Si Si5 0.841485 0.250000 0.750000
Si Si6 0.213547 0.357027 0.086302
Si Si7 0.438890 0.058027 0.577325
O O1 0.730615 0.250000 0.250000
O O2 0.804474 0.146215 0.260989
O O3 0.697935 0.190887 0.469111
O O4 0.834553 0.097284 0.520657
O O5 0.212898 0.059829 0.882271
O O6 0.371438 0.024479 0.700054
O O7 0.663286 0.323099 0.462056
O O8 0.421734 0.357006 0.544705
O O9 0.435177 0.271376 0.368272
O O10 0.445145 0.242369 0.598566
O O11 0.757119 0.311949 0.798278
O O12 0.071656 0.396477 0.110030
O O13 0.500000 0.000000 0.500000
#
# Coordination Sequence:
#
# PCOD9412826 Si02
#       7
#     8   4   8   8   4   8   8
#     4   9  20  42  70 102 145 188 230 304 370 440
#     4  12  26  46  78  98 150 202 248 316 368 436
#     4  10  25  43  73 105 149 195 244 303 378 446
#     4  11  24  48  72 107 146 200 250 300 377 444
#     4  10  26  40  66 116 152 192 236 314 378 468
#     4  11  24  43  70 107 149 186 251 305 381 451
#     4  12  23  44  71 105 138 195 252 315 370 440
#
# _framework density 22.863873000000002
#
# number of rings (size 3 to 8) (size 9 to 14) (size 15 to 20)
#    0.000    1.333    3.333    0.000    8.167    7.333 
#    6.000    0.000    0.000    0.000    0.000    0.000 
#    0.000    0.000    0.000    0.000    0.000    0.000 
#
# Total GULP energy -267487.083310 kJ/mol
# GULP energy per Si atom -5572.647569 kJ/mol
# Density = 2.281183 g / cm^3
# Si number density = 22.863873 Si / 1000 Ang^3
#
#
#
# Elastic Constant Matrix: (Units=GPa)
#
#
# Indices 1 2 3 4 5 6 
#
# 1 106.8772 27.2133 27.1596 0.0000 0.0000 0.0000
# 2 27.2133 150.8117 22.1468 0.0000 0.0000 0.0000
# 3 27.1596 22.1468 86.4499 0.0000 0.0000 0.0000
# 4 0.0000 0.0000 0.0000 48.5426 0.0000 0.0000
# 5 0.0000 0.0000 0.0000 0.0000 33.0488 0.0000
# 6 0.0000 0.0000 0.0000 0.0000 0.0000 28.8925
#
#
#
# Elastic Compliance Matrix: (Units=1/GPa)
#
#
# Indices 1 2 3 4 5 6 
#
# 1 0.010469 -0.001461 -0.002915 0.000000 0.000000 0.000000
# 2 -0.001461 0.007094 -0.001358 0.000000 0.000000 0.000000
# 3 -0.002915 -0.001358 0.012831 0.000000 0.000000 0.000000
# 4 0.000000 0.000000 0.000000 0.020600 0.000000 0.000000
# 5 0.000000 0.000000 0.000000 0.000000 0.030258 0.000000
# 6 0.000000 0.000000 0.000000 0.000000 0.000000 0.034611
#
#
# Mechanical properties :
#
#
# Convention : Reuss Voigt Hill
#
# Bulk Modulus (GPa) = 52.83762 55.24203 54.03982
# Shear Modulus (GPa) = 37.41365 39.93805 38.67585
#
# Velocity S-wave (km/s) = 4.04959 4.18398 4.11733
# Velocity P-wave (km/s) = 6.71010 6.89599 6.80368
#
# Compressibility (1/GPa) = 0.01892591
#
# Stress axis : x y z
#
# Youngs Moduli (GPa) = 95.51768 140.96618 77.93571
#
# Poissons Ratio (x) = 0.20596 0.22717
# Poissons Ratio (y) = 0.13956 0.10586
# Poissons Ratio (z) = 0.27841 0.19147
#
# Static dielectric constant tensor:
#      x y z
#    x 1.893070 0.000000 0.000000 
#    y 0.000000 2.078410 0.000000 
#    z 0.000000 0.000000 1.829530 
# 
# From -- ./inp_files/17000.got.cif
#   From: 2010.05.17/outbox.cif.g08.bks.cpg/sg52_9_cif.got.tgz:17000.got - 2010.06.03 12:15:38.
