data_PCOD9412278
_publ_section_title
;
Structure prediction by ZEFSAII (Michael W. Deem and Ramdas Pophale) SiO2 
 PCOD9412278
Probable space group: P N N A
;
_chemical_formula_sum "Si O2"
_cell_formula_units_Z 32
_cell_length_a 8.938550
_cell_length_b 5.535146
_cell_length_c 29.340811
_cell_angle_alpha 90.000000
_cell_angle_beta 90.000000
_cell_angle_gamma 90.000000
_cell_volume 1451.671225
_symmetry_space_group_name_H-M "P N N A"
_symmetry_group_IT_number 52
_symmetry_cell_setting 'orthorhombic'
loop_
_space_group_symop_operation_xyz
x,y,z
1/2-x,-y,z
x,1/2-y,1/2-z
1/2-x,1/2+y,1/2-z
-x,-y,-z
1/2+x,y,-z
-x,1/2+y,1/2+z
1/2+x,1/2-y,1/2+z
loop_
_atom_site_type_symbol
_atom_site_label
_atom_site_fract_x
_atom_site_fract_y
_atom_site_fract_z
Si Si1 0.995310 0.320224 0.373489
Si Si2 0.250000 0.000000 0.581256
Si Si3 0.250000 0.500000 0.083812
Si Si4 0.068994 0.001088 0.224221
Si Si5 0.003547 0.822069 0.042807
O O1 0.002051 0.458550 0.325863
O O2 0.000489 0.515061 0.412770
O O3 0.138778 0.148955 0.383179
O O4 0.849598 0.164600 0.385422
O O5 0.138690 0.148775 0.548687
O O6 0.348325 0.334445 0.050440
O O7 0.027042 0.750000 0.250000
O O8 0.250000 0.000000 0.220129
O O9 0.028296 0.250000 0.250000
O O10 0.000000 0.000000 0.000000
#
# Coordination Sequence:
#
# PCOD9412278 Si02
#       5
#     8   4   4   8   8
#     4  11  24  43  72 104 143 184 238 300 366 433
#     4  10  26  45  72  98 150 186 236 298 371 436
#     4  10  24  41  72 104 142 184 246 292 363 434
#     4  10  23  40  72 109 144 185 244 306 366 428
#     4  11  25  45  70 101 141 188 238 294 363 438
#
# _framework density 22.043558999999998
#
# number of rings (size 3 to 8) (size 9 to 14) (size 15 to 20)
#    0.000    1.500    0.000    3.000   12.250   10.000 
#    0.000    3.750    5.500    0.000    0.000    0.000 
#    0.000    0.000    0.000    0.000    0.000    0.000 
#
# Total GULP energy -179087.004209 kJ/mol
# GULP energy per Si atom -5596.468882 kJ/mol
# Density = 2.199339 g / cm^3
# Si number density = 22.043559 Si / 1000 Ang^3
#
#
#
# Elastic Constant Matrix: (Units=GPa)
#
#
# Indices 1 2 3 4 5 6 
#
# 1 95.3092 55.3223 37.2473 0.0000 0.0000 0.0000
# 2 55.3223 158.2786 94.7616 0.0000 0.0000 0.0000
# 3 37.2473 94.7616 207.2081 0.0000 0.0000 0.0000
# 4 0.0000 0.0000 0.0000 51.3549 0.0000 0.0000
# 5 0.0000 0.0000 0.0000 0.0000 18.7867 0.0000
# 6 0.0000 0.0000 0.0000 0.0000 0.0000 -87.0350
#
#
#
# Elastic Compliance Matrix: (Units=1/GPa)
#
#
# Indices 1 2 3 4 5 6 
#
# 1 0.013182 -0.004391 -0.000361 0.000000 0.000000 0.000000
# 2 -0.004391 0.010163 -0.003858 0.000000 0.000000 0.000000
# 3 -0.000361 -0.003858 0.006656 0.000000 0.000000 0.000000
# 4 0.000000 0.000000 0.000000 0.019472 0.000000 0.000000
# 5 0.000000 0.000000 0.000000 0.000000 0.053229 0.000000
# 6 0.000000 0.000000 0.000000 0.000000 0.000000 -0.011490
#
#
# Mechanical properties :
#
#
# Convention : Reuss Voigt Hill
#
# Bulk Modulus (GPa) = 78.25496 92.82869 85.54182
# Shear Modulus (GPa) = 44.36797 14.85231 29.61014
#
# Velocity S-wave (km/s) = 4.49123 2.59853 3.66902
# Velocity P-wave (km/s) = 7.90392 7.15584 7.53917
#
# Compressibility (1/GPa) = 0.01277874
#
# Stress axis : x y z
#
# Youngs Moduli (GPa) = 75.85959 98.39814 150.25018
#
# Poissons Ratio (x) = 0.43208 0.05431
# Poissons Ratio (y) = 0.33311 0.57972
# Poissons Ratio (z) = 0.02742 0.37966
#
# Static dielectric constant tensor:
#      x y z
#    x 1.774240 0.000000 0.000000 
#    y 0.000000 1.798410 0.000000 
#    z 0.000000 0.000000 1.763420 
# 
# From -- ./inp_files/44041.got.cif
#   From: 2010.05.17/outbox.cif.g08.bks.cpg/sg52_23_cif.got.tgz:44041.got - 2010.06.03 12:15:38.
