data_PCOD9412759
_publ_section_title
;
Structure prediction by ZEFSAII (Michael W. Deem and Ramdas Pophale) SiO2 
 PCOD9412759
Probable space group: P N N A
;
_chemical_formula_sum "Si O2"
_cell_formula_units_Z 48
_cell_length_a 14.203817
_cell_length_b 16.582397
_cell_length_c 8.519113
_cell_angle_alpha 90.000000
_cell_angle_beta 90.000000
_cell_angle_gamma 90.000000
_cell_volume 2006.535074
_symmetry_space_group_name_H-M "P N N A"
_symmetry_group_IT_number 52
_symmetry_cell_setting 'orthorhombic'
loop_
_space_group_symop_operation_xyz
x,y,z
1/2-x,-y,z
x,1/2-y,1/2-z
1/2-x,1/2+y,1/2-z
-x,-y,-z
1/2+x,y,-z
-x,1/2+y,1/2+z
1/2+x,1/2-y,1/2+z
loop_
_atom_site_type_symbol
_atom_site_label
_atom_site_fract_x
_atom_site_fract_y
_atom_site_fract_z
Si Si1 0.673705 0.131050 0.157706
Si Si2 0.250000 0.000000 0.078419
Si Si3 0.982601 0.750000 0.250000
Si Si4 0.997187 0.454592 0.208446
Si Si5 0.112254 0.817806 0.872760
Si Si6 0.848586 0.959086 0.484607
Si Si7 0.408747 0.386007 0.301079
O O1 0.591518 0.197789 0.140921
O O2 0.776221 0.170969 0.146744
O O3 0.665189 0.097759 0.335305
O O4 0.682987 0.055174 0.035758
O O5 0.310975 0.064658 0.178371
O O6 0.045990 0.676532 0.176296
O O7 0.020255 0.538888 0.293235
O O8 0.946812 0.395656 0.324325
O O9 0.919906 0.471096 0.073588
O O10 0.094063 0.423112 0.130820
O O11 0.081816 0.750000 0.750000
O O12 0.096078 0.821624 0.057825
O O13 0.750000 0.000000 0.519989
#
# Coordination Sequence:
#
# PCOD9412759 Si02
#       7
#     8   4   4   8   8   8   8
#     4  11  21  43  69 103 132 188 239 287 367 437
#     4  10  24  46  76  98 136 206 246 288 366 466
#     4  12  26  40  70 110 142 182 234 320 372 420
#     4  11  24  39  67 102 131 189 236 295 364 426
#     4  11  24  43  68 102 141 184 241 299 363 444
#     4  11  21  40  67  93 134 176 238 288 342 440
#     4  11  26  45  71 102 147 188 251 299 372 444
#
# _framework density 23.921834
#
# number of rings (size 3 to 8) (size 9 to 14) (size 15 to 20)
#    0.000    1.000    5.000    1.500    5.833    0.000 
#    0.000    0.000    1.833    0.000    0.000    0.000 
#    0.000    0.000    0.000    0.000    0.000    0.000 
#
# Total GULP energy -267503.520282 kJ/mol
# GULP energy per Si atom -5572.990006 kJ/mol
# Density = 2.386739 g / cm^3
# Si number density = 23.921834 Si / 1000 Ang^3
#
#
#
# Elastic Constant Matrix: (Units=GPa)
#
#
# Indices 1 2 3 4 5 6 
#
# 1 144.7347 64.6694 29.4661 0.0000 0.0000 0.0000
# 2 64.6694 156.4827 27.0882 0.0000 0.0000 0.0000
# 3 29.4661 27.0882 44.3602 0.0000 0.0000 0.0000
# 4 0.0000 0.0000 0.0000 28.1691 0.0000 0.0000
# 5 0.0000 0.0000 0.0000 0.0000 9.9308 0.0000
# 6 0.0000 0.0000 0.0000 0.0000 0.0000 34.8664
#
#
#
# Elastic Compliance Matrix: (Units=1/GPa)
#
#
# Indices 1 2 3 4 5 6 
#
# 1 0.009125 -0.003043 -0.004203 0.000000 0.000000 0.000000
# 2 -0.003043 0.008161 -0.002962 0.000000 0.000000 0.000000
# 3 -0.004203 -0.002962 0.027143 0.000000 0.000000 0.000000
# 4 0.000000 0.000000 0.000000 0.035500 0.000000 0.000000
# 5 0.000000 0.000000 0.000000 0.000000 0.100697 0.000000
# 6 0.000000 0.000000 0.000000 0.000000 0.000000 0.028681
#
#
# Mechanical properties :
#
#
# Convention : Reuss Voigt Hill
#
# Bulk Modulus (GPa) = 41.64442 65.33611 53.49027
# Shear Modulus (GPa) = 21.03261 29.55018 25.29140
#
# Velocity S-wave (km/s) = 2.96839 3.51847 3.25507
# Velocity P-wave (km/s) = 5.40322 6.62403 6.04452
#
# Compressibility (1/GPa) = 0.02401282
#
# Stress axis : x y z
#
# Youngs Moduli (GPa) = 109.59366 122.53470 36.84209
#
# Poissons Ratio (x) = 0.37293 0.15483
# Poissons Ratio (y) = 0.33354 0.10912
# Poissons Ratio (z) = 0.46057 0.36293
#
# Static dielectric constant tensor:
#      x y z
#    x 1.973010 0.000000 0.000000 
#    y 0.000000 1.968550 0.000000 
#    z 0.000000 0.000000 2.045830 
# 
# From -- ./inp_files/10554.got.cif
#   From: 2010.05.17/outbox.cif.g08.bks.cpg/sg52_6_cif.got.tgz:10554.got - 2010.06.03 12:15:38.
