data_PCOD9412136
_publ_section_title
;
Structure prediction by ZEFSAII (Michael W. Deem and Ramdas Pophale) SiO2 
 PCOD9412136
Probable space group: P N N A
;
_chemical_formula_sum "Si O2"
_cell_formula_units_Z 32
_cell_length_a 11.340768
_cell_length_b 9.399681
_cell_length_c 12.314790
_cell_angle_alpha 90.000000
_cell_angle_beta 90.000000
_cell_angle_gamma 90.000000
_cell_volume 1312.751706
_symmetry_space_group_name_H-M "P N N A"
_symmetry_group_IT_number 52
_symmetry_cell_setting 'orthorhombic'
loop_
_space_group_symop_operation_xyz
x,y,z
1/2-x,-y,z
x,1/2-y,1/2-z
1/2-x,1/2+y,1/2-z
-x,-y,-z
1/2+x,y,-z
-x,1/2+y,1/2+z
1/2+x,1/2-y,1/2+z
loop_
_atom_site_type_symbol
_atom_site_label
_atom_site_fract_x
_atom_site_fract_y
_atom_site_fract_z
Si Si1 0.497867 0.026192 0.301828
Si Si2 0.477246 0.183977 0.073440
Si Si3 0.232581 0.207228 0.021536
Si Si4 0.750000 0.000000 0.396117
Si Si5 0.648418 0.250000 0.750000
O O1 0.479537 0.096964 0.184978
O O2 0.466752 0.147948 0.391203
O O3 0.634227 0.991124 0.322544
O O4 0.426127 0.879440 0.301200
O O5 0.363986 0.147569 0.998923
O O6 0.604166 0.158693 0.019026
O O7 0.226214 0.195439 0.151174
O O8 0.238752 0.363993 0.972021
#
# Coordination Sequence:
#
# PCOD9412136 Si02
#       5
#     8   8   8   4   4
#     4  10  23  42  67  97 130 172 222 273 328 391
#     4  10  23  44  67  94 130 172 220 273 329 393
#     4  11  23  40  67  98 132 172 220 271 328 392
#     4  10  22  44  70  94 130 182 226 260 324 412
#     4  12  24  38  64  98 134 172 218 274 330 388
#
# _framework density 24.376279
#
# number of rings (size 3 to 8) (size 9 to 14) (size 15 to 20)
#    0.000    1.500    0.000    4.500    0.000   14.000 
#    0.000    2.500    0.000    0.000    0.000    0.000 
#    0.000    0.000    0.000    0.000    0.000    0.000 
#
# Total GULP energy -179051.355599 kJ/mol
# GULP energy per Si atom -5595.354862 kJ/mol
# Density = 2.432080 g / cm^3
# Si number density = 24.376279 Si / 1000 Ang^3
#
#
#
# Elastic Constant Matrix: (Units=GPa)
#
#
# Indices 1 2 3 4 5 6 
#
# 1 232.7564 49.2079 49.9702 0.0000 0.0000 0.0000
# 2 49.2079 129.0047 16.7787 0.0000 0.0000 0.0000
# 3 49.9702 16.7787 60.7107 0.0000 0.0000 0.0000
# 4 0.0000 0.0000 0.0000 24.6736 0.0000 0.0000
# 5 0.0000 0.0000 0.0000 0.0000 44.4560 0.0000
# 6 0.0000 0.0000 0.0000 0.0000 0.0000 22.6607
#
#
#
# Elastic Compliance Matrix: (Units=1/GPa)
#
#
# Indices 1 2 3 4 5 6 
#
# 1 0.005508 -0.001568 -0.004100 0.000000 0.000000 0.000000
# 2 -0.001568 0.008487 -0.001055 0.000000 0.000000 0.000000
# 3 -0.004100 -0.001055 0.020138 0.000000 0.000000 0.000000
# 4 0.000000 0.000000 0.000000 0.040529 0.000000 0.000000
# 5 0.000000 0.000000 0.000000 0.000000 0.022494 0.000000
# 6 0.000000 0.000000 0.000000 0.000000 0.000000 0.044129
#
#
# Mechanical properties :
#
#
# Convention : Reuss Voigt Hill
#
# Bulk Modulus (GPa) = 48.34046 72.70951 60.52499
# Shear Modulus (GPa) = 30.93530 38.79239 34.86385
#
# Velocity S-wave (km/s) = 3.56627 3.99356 3.78595
# Velocity P-wave (km/s) = 6.06891 7.15244 6.63284
#
# Compressibility (1/GPa) = 0.02068660
#
# Stress axis : x y z
#
# Youngs Moduli (GPa) = 181.55170 117.82890 49.65708
#
# Poissons Ratio (x) = 0.18472 0.20361
# Poissons Ratio (y) = 0.28462 0.05240
# Poissons Ratio (z) = 0.74443 0.12433
#
# Static dielectric constant tensor:
#      x y z
#    x 1.976130 0.000000 0.000000 
#    y 0.000000 1.894350 0.000000 
#    z 0.000000 0.000000 1.900410 
# 
# From -- ./inp_files/19020.got.cif
#   From: 2010.05.17/outbox.cif.g08.bks.cpg/sg52_10_cif.got.tgz:19020.got - 2010.06.03 12:15:38.
