data_PCOD9412511
_publ_section_title
;
Structure prediction by ZEFSAII (Michael W. Deem and Ramdas Pophale) SiO2 
 PCOD9412511
Probable space group: P N N A
;
_chemical_formula_sum "Si O2"
_cell_formula_units_Z 32
_cell_length_a 8.916105
_cell_length_b 24.234029
_cell_length_c 5.558411
_cell_angle_alpha 90.000000
_cell_angle_beta 90.000000
_cell_angle_gamma 90.000000
_cell_volume 1201.023358
_symmetry_space_group_name_H-M "P N N A"
_symmetry_group_IT_number 52
_symmetry_cell_setting 'orthorhombic'
loop_
_space_group_symop_operation_xyz
x,y,z
1/2-x,-y,z
x,1/2-y,1/2-z
1/2-x,1/2+y,1/2-z
-x,-y,-z
1/2+x,y,-z
-x,1/2+y,1/2+z
1/2+x,1/2-y,1/2+z
loop_
_atom_site_type_symbol
_atom_site_label
_atom_site_fract_x
_atom_site_fract_y
_atom_site_fract_z
Si Si1 0.375526 0.314356 0.888407
Si Si2 0.750000 0.000000 0.796424
Si Si3 0.832258 0.750000 0.750000
Si Si4 0.752646 0.409209 0.329209
Si Si5 0.524316 0.572564 0.982215
O O1 0.282424 0.268004 0.033360
O O2 0.409362 0.365248 0.073442
O O3 0.537813 0.297978 0.778442
O O4 0.772607 0.343523 0.317811
O O5 0.889545 0.023916 0.650810
O O6 0.706400 0.053006 0.954504
O O7 0.642990 0.423888 0.109115
O O8 0.918502 0.429314 0.255185
#
# Coordination Sequence:
#
# PCOD9412511 Si02
#       5
#     8   4   4   8   8
#     4  10  24  48  72 106 146 186 254 306 370 434
#     4  12  24  38  76 104 146 194 230 282 394 420
#     4  12  24  52  80 102 148 206 238 326 374 424
#     4  10  23  47  68 104 147 186 235 305 348 454
#     4  10  23  47  68 104 147 186 235 305 348 454
#
# _framework density 26.643944000000001
#
# number of rings (size 3 to 8) (size 9 to 14) (size 15 to 20)
#    1.500    0.000    2.500    1.500    0.000    9.000 
#    9.000    0.000    0.000    0.000    0.000    0.000 
#    0.000    0.000    0.000    0.000    0.000    0.000 
#
# Total GULP energy -178199.323024 kJ/mol
# GULP energy per Si atom -5568.728845 kJ/mol
# Density = 2.658330 g / cm^3
# Si number density = 26.643944 Si / 1000 Ang^3
#
#
#
# Elastic Constant Matrix: (Units=GPa)
#
#
# Indices 1 2 3 4 5 6 
#
# 1 182.4823 51.8741 52.5212 0.0000 0.0000 0.0000
# 2 51.8741 165.0103 52.0699 0.0000 0.0000 0.0000
# 3 52.5212 52.0699 62.5553 0.0000 0.0000 0.0000
# 4 0.0000 0.0000 0.0000 33.1579 0.0000 0.0000
# 5 0.0000 0.0000 0.0000 0.0000 39.6138 0.0000
# 6 0.0000 0.0000 0.0000 0.0000 0.0000 54.6825
#
#
#
# Elastic Compliance Matrix: (Units=1/GPa)
#
#
# Indices 1 2 3 4 5 6 
#
# 1 0.007255 -0.000486 -0.005686 0.000000 0.000000 0.000000
# 2 -0.000486 0.008252 -0.006460 0.000000 0.000000 0.000000
# 3 -0.005686 -0.006460 0.026137 0.000000 0.000000 0.000000
# 4 0.000000 0.000000 0.000000 0.030159 0.000000 0.000000
# 5 0.000000 0.000000 0.000000 0.000000 0.025244 0.000000
# 6 0.000000 0.000000 0.000000 0.000000 0.000000 0.018287
#
#
# Mechanical properties :
#
#
# Convention : Reuss Voigt Hill
#
# Bulk Modulus (GPa) = 61.05680 80.33094 70.69387
# Shear Modulus (GPa) = 34.23276 42.39636 38.31456
#
# Velocity S-wave (km/s) = 3.58833 3.99334 3.79624
# Velocity P-wave (km/s) = 6.33512 7.17479 6.76799
#
# Compressibility (1/GPa) = 0.01637819
#
# Stress axis : x y z
#
# Youngs Moduli (GPa) = 137.83888 121.18754 38.25933
#
# Poissons Ratio (x) = 0.05894 0.21755
# Poissons Ratio (y) = 0.06704 0.24716
# Poissons Ratio (z) = 0.78380 0.78290
#
# Static dielectric constant tensor:
#      x y z
#    x 2.023800 0.000000 0.000000 
#    y 0.000000 2.267390 0.000000 
#    z 0.000000 0.000000 2.166770 
# 
# From -- ./inp_files/417.got.cif
#   From: 2010.05.17/outbox.cif.g08.bks.cpg/sg52_1_cif.got.tgz:417.got - 2010.06.03 12:15:38.
