data_PCOD9412426
_publ_section_title
;
Structure prediction by ZEFSAII (Michael W. Deem and Ramdas Pophale) SiO2 
 PCOD9412426
Probable space group: P N N A
;
_chemical_formula_sum "Si O2"
_cell_formula_units_Z 56
_cell_length_a 9.396901
_cell_length_b 19.883087
_cell_length_c 12.358560
_cell_angle_alpha 90.000000
_cell_angle_beta 90.000000
_cell_angle_gamma 90.000000
_cell_volume 2309.065937
_symmetry_space_group_name_H-M "P N N A"
_symmetry_group_IT_number 52
_symmetry_cell_setting 'orthorhombic'
loop_
_space_group_symop_operation_xyz
x,y,z
1/2-x,-y,z
x,1/2-y,1/2-z
1/2-x,1/2+y,1/2-z
-x,-y,-z
1/2+x,y,-z
-x,1/2+y,1/2+z
1/2+x,1/2-y,1/2+z
loop_
_atom_site_type_symbol
_atom_site_label
_atom_site_fract_x
_atom_site_fract_y
_atom_site_fract_z
Si Si1 0.576046 0.510587 0.239859
Si Si2 0.635859 0.443239 0.593790
Si Si3 0.598682 0.824422 0.638591
Si Si4 0.181149 0.683347 0.385787
Si Si5 0.227019 0.179184 0.710083
Si Si6 0.346238 0.066668 0.538737
Si Si7 0.915871 0.601850 0.379959
O O1 0.750000 0.500000 0.246802
O O2 0.495346 0.557856 0.324390
O O3 0.537741 0.533485 0.119345
O O4 0.521317 0.437564 0.275417
O O5 0.750000 0.500000 0.629314
O O6 0.698839 0.368384 0.581278
O O7 0.608306 0.455756 0.466973
O O8 0.676716 0.760784 0.580943
O O9 0.673567 0.824101 0.755437
O O10 0.433257 0.806244 0.664172
O O11 0.612551 0.890246 0.565144
O O12 0.033878 0.651030 0.425037
O O13 0.293832 0.250000 0.750000
O O14 0.287856 0.125378 0.623142
O O15 0.211455 0.141211 0.825480
O O16 0.250000 0.000000 0.515420
#
# Coordination Sequence:
#
# PCOD9412426 Si02
#       7
#     8   8   8   8   8   8   8
#     4  11  23  44  65 103 146 176 235 295 353 433
#     4  12  26  38  71 105 137 190 229 298 368 415
#     4  10  23  45  69  96 133 193 231 290 369 429
#     4  10  23  44  66 101 140 177 241 297 346 441
#     4  11  22  44  70  95 136 192 235 285 361 443
#     4  11  25  43  71 103 138 185 240 302 351 433
#     4  11  21  41  67  94 141 181 230 285 356 425
#
# _framework density 24.252230000000001
#
# number of rings (size 3 to 8) (size 9 to 14) (size 15 to 20)
#    0.000    1.143    7.143    0.857    4.000    2.286 
#    0.000    1.429    0.000    0.000    0.000    0.000 
#    0.000    0.000    0.000    0.000    0.000    0.000 
#
# Total GULP energy -311985.842091 kJ/mol
# GULP energy per Si atom -5571.175752 kJ/mol
# Density = 2.419703 g / cm^3
# Si number density = 24.252230 Si / 1000 Ang^3
#
#
#
# Elastic Constant Matrix: (Units=GPa)
#
#
# Indices 1 2 3 4 5 6 
#
# 1 53.1375 27.2202 38.4133 0.0000 0.0000 0.0000
# 2 27.2202 149.6763 26.5848 0.0000 0.0000 0.0000
# 3 38.4133 26.5848 98.0166 0.0000 0.0000 0.0000
# 4 0.0000 0.0000 0.0000 50.5284 0.0000 0.0000
# 5 0.0000 0.0000 0.0000 0.0000 26.6132 0.0000
# 6 0.0000 0.0000 0.0000 0.0000 0.0000 24.3835
#
#
#
# Elastic Compliance Matrix: (Units=1/GPa)
#
#
# Indices 1 2 3 4 5 6 
#
# 1 0.027700 -0.003267 -0.009970 0.000000 0.000000 0.000000
# 2 -0.003267 0.007404 -0.000728 0.000000 0.000000 0.000000
# 3 -0.009970 -0.000728 0.014307 0.000000 0.000000 0.000000
# 4 0.000000 0.000000 0.000000 0.019791 0.000000 0.000000
# 5 0.000000 0.000000 0.000000 0.000000 0.037575 0.000000
# 6 0.000000 0.000000 0.000000 0.000000 0.000000 0.041011
#
#
# Mechanical properties :
#
#
# Convention : Reuss Voigt Hill
#
# Bulk Modulus (GPa) = 46.54997 53.91854 50.23425
# Shear Modulus (GPa) = 27.34062 34.21248 30.77655
#
# Velocity S-wave (km/s) = 3.36124 3.76000 3.56619
# Velocity P-wave (km/s) = 5.85659 6.41333 6.14127
#
# Compressibility (1/GPa) = 0.02148229
#
# Stress axis : x y z
#
# Youngs Moduli (GPa) = 36.10168 135.05334 69.89606
#
# Poissons Ratio (x) = 0.44118 0.69683
# Poissons Ratio (y) = 0.11793 0.05089
# Poissons Ratio (z) = 0.35992 0.09833
#
# Static dielectric constant tensor:
#      x y z
#    x 1.989450 0.000000 0.000000 
#    y 0.000000 2.038940 0.000000 
#    z 0.000000 0.000000 2.097830 
# 
# From -- ./inp_files/18352.got.cif
#   From: 2010.05.17/outbox.cif.g08.bks.cpg/sg52_10_cif.got.tgz:18352.got - 2010.06.03 12:15:38.
