data_PCOD9412871
_publ_section_title
;
Structure prediction by ZEFSAII (Michael W. Deem and Ramdas Pophale) SiO2 
 PCOD9412871
Probable space group: P N N A
;
_chemical_formula_sum "Si O2"
_cell_formula_units_Z 32
_cell_length_a 16.949399
_cell_length_b 14.860708
_cell_length_c 5.058136
_cell_angle_alpha 90.000000
_cell_angle_beta 90.000000
_cell_angle_gamma 90.000000
_cell_volume 1274.043646
_symmetry_space_group_name_H-M "P N N A"
_symmetry_group_IT_number 52
_symmetry_cell_setting 'orthorhombic'
loop_
_space_group_symop_operation_xyz
x,y,z
1/2-x,-y,z
x,1/2-y,1/2-z
1/2-x,1/2+y,1/2-z
-x,-y,-z
1/2+x,y,-z
-x,1/2+y,1/2+z
1/2+x,1/2-y,1/2+z
loop_
_atom_site_type_symbol
_atom_site_label
_atom_site_fract_x
_atom_site_fract_y
_atom_site_fract_z
Si Si1 0.809434 0.814428 0.498711
Si Si2 0.053963 0.686517 0.501863
Si Si3 0.307494 0.430360 0.334361
Si Si4 0.056627 0.435466 0.162981
O O1 0.816805 0.750000 0.750000
O O2 0.741531 0.884954 0.592902
O O3 0.894004 0.864476 0.485458
O O4 0.794217 0.750000 0.250000
O O5 0.054854 0.750000 0.750000
O O6 0.142131 0.646381 0.474438
O O7 0.990033 0.611678 0.594742
O O8 0.037310 0.750000 0.250000
O O9 0.250000 0.500000 0.487578
O O10 0.376025 0.497378 0.253351
O O11 0.000000 0.500000 0.000000
#
# Coordination Sequence:
#
# PCOD9412871 Si02
#       4
#     8   8   8   8
#     4  11  27  50  76 110 150 201 255 317 389 468
#     4  12  27  49  77 114 154 203 260 324 396 474
#     4  10  25  49  74 108 152 199 253 315 386 463
#     4  11  26  48  78 112 153 201 258 322 391 467
#
# _framework density 25.116880999999999
#
# number of rings (size 3 to 8) (size 9 to 14) (size 15 to 20)
#    0.000    1.000    0.000    3.750    0.000   20.000 
#    0.000   15.000    0.000    0.000    0.000    0.000 
#    0.000    0.000    0.000    0.000    0.000    0.000 
#
# Total GULP energy -179071.386309 kJ/mol
# GULP energy per Si atom -5595.980822 kJ/mol
# Density = 2.505971 g / cm^3
# Si number density = 25.116881 Si / 1000 Ang^3
#
#
#
# Elastic Constant Matrix: (Units=GPa)
#
#
# Indices 1 2 3 4 5 6 
#
# 1 194.4958 92.3091 67.0468 0.0000 0.0000 0.0000
# 2 92.3091 163.5406 94.3972 0.0000 0.0000 0.0000
# 3 67.0468 94.3972 160.7909 0.0000 0.0000 0.0000
# 4 0.0000 0.0000 0.0000 25.4838 0.0000 0.0000
# 5 0.0000 0.0000 0.0000 0.0000 30.4591 0.0000
# 6 0.0000 0.0000 0.0000 0.0000 0.0000 119.7170
#
#
#
# Elastic Compliance Matrix: (Units=1/GPa)
#
#
# Indices 1 2 3 4 5 6 
#
# 1 0.007112 -0.003483 -0.000921 0.000000 0.000000 0.000000
# 2 -0.003483 0.010954 -0.004979 0.000000 0.000000 0.000000
# 3 -0.000921 -0.004979 0.009526 0.000000 0.000000 0.000000
# 4 0.000000 0.000000 0.000000 0.039241 0.000000 0.000000
# 5 0.000000 0.000000 0.000000 0.000000 0.032831 0.000000
# 6 0.000000 0.000000 0.000000 0.000000 0.000000 0.008353
#
#
# Mechanical properties :
#
#
# Convention : Reuss Voigt Hill
#
# Bulk Modulus (GPa) = 113.28169 114.03705 113.65937
# Shear Modulus (GPa) = 38.54331 52.80361 45.67346
#
# Velocity S-wave (km/s) = 3.92159 4.59008 4.26894
# Velocity P-wave (km/s) = 8.10586 8.57863 8.34559
#
# Compressibility (1/GPa) = 0.00882755
#
# Stress axis : x y z
#
# Youngs Moduli (GPa) = 140.61035 91.28854 104.97327
#
# Poissons Ratio (x) = 0.31793 0.09667
# Poissons Ratio (y) = 0.48970 0.52264
# Poissons Ratio (z) = 0.12949 0.45451
#
# Static dielectric constant tensor:
#      x y z
#    x 1.908170 0.000000 0.000000 
#    y 0.000000 1.968890 0.000000 
#    z 0.000000 0.000000 1.926140 
# 
# From -- ./inp_files/2984.got.cif
#   From: 2010.05.17/outbox.cif.g08.bks.cpg/sg52_2_cif.got.tgz:2984.got - 2010.06.03 12:15:38.
