data_PCOD9412289
_publ_section_title
;
Structure prediction by ZEFSAII (Michael W. Deem and Ramdas Pophale) SiO2 
 PCOD9412289
Probable space group: P N N A
;
_chemical_formula_sum "Si O2"
_cell_formula_units_Z 36
_cell_length_a 9.427245
_cell_length_b 20.458354
_cell_length_c 7.344432
_cell_angle_alpha 90.000000
_cell_angle_beta 90.000000
_cell_angle_gamma 90.000000
_cell_volume 1416.490601
_symmetry_space_group_name_H-M "P N N A"
_symmetry_group_IT_number 52
_symmetry_cell_setting 'orthorhombic'
loop_
_space_group_symop_operation_xyz
x,y,z
1/2-x,-y,z
x,1/2-y,1/2-z
1/2-x,1/2+y,1/2-z
-x,-y,-z
1/2+x,y,-z
-x,1/2+y,1/2+z
1/2+x,1/2-y,1/2+z
loop_
_atom_site_type_symbol
_atom_site_label
_atom_site_fract_x
_atom_site_fract_y
_atom_site_fract_z
Si Si1 0.894918 0.144396 0.343068
Si Si2 0.665799 0.566617 0.503480
Si Si3 0.839090 0.804971 0.866319
Si Si4 0.898537 0.040138 0.629958
Si Si5 0.339378 0.750000 0.750000
O O1 0.889016 0.110893 0.537371
O O2 0.763890 0.192530 0.319442
O O3 0.038088 0.178754 0.278359
O O4 0.884837 0.087791 0.192330
O O5 0.750000 0.500000 0.484066
O O6 0.755074 0.628907 0.581760
O O7 0.553107 0.551669 0.663112
O O8 0.752718 0.750000 0.750000
O O9 0.903056 0.778686 0.060783
O O10 0.750000 0.000000 0.633972
O O11 0.000000 0.000000 0.500000
#
# Coordination Sequence:
#
# PCOD9412289 Si02
#       5
#     8   8   8   8   4
#     4  11  22  41  66  92 130 175 226 281 343 412
#     4  10  23  41  64  98 132 174 223 282 347 405
#     4  11  23  42  66  94 135 176 231 291 343 417
#     4  11  24  41  66 100 136 177 223 282 346 413
#     4  10  24  42  60  94 126 172 226 280 346 406
#
# _framework density 25.414922000000001
#
# number of rings (size 3 to 8) (size 9 to 14) (size 15 to 20)
#    0.000    1.333    1.111    4.667    0.000    8.889 
#    8.000    0.000    0.000    0.000    0.000    0.000 
#    0.000    0.000    0.000    0.000    0.000    0.000 
#
# Total GULP energy -201424.237836 kJ/mol
# GULP energy per Si atom -5595.117718 kJ/mol
# Density = 2.535708 g / cm^3
# Si number density = 25.414922 Si / 1000 Ang^3
#
#
#
# Elastic Constant Matrix: (Units=GPa)
#
#
# Indices 1 2 3 4 5 6 
#
# 1 36.2011 6.1853 13.6618 0.0000 0.0000 0.0000
# 2 6.1853 136.0570 39.7180 0.0000 0.0000 0.0000
# 3 13.6618 39.7180 143.2170 0.0000 0.0000 0.0000
# 4 0.0000 0.0000 0.0000 56.5442 0.0000 0.0000
# 5 0.0000 0.0000 0.0000 0.0000 30.8376 0.0000
# 6 0.0000 0.0000 0.0000 0.0000 0.0000 29.1081
#
#
#
# Elastic Compliance Matrix: (Units=1/GPa)
#
#
# Indices 1 2 3 4 5 6 
#
# 1 0.028693 -0.000550 -0.002585 0.000000 0.000000 0.000000
# 2 -0.000550 0.008008 -0.002168 0.000000 0.000000 0.000000
# 3 -0.002585 -0.002168 0.007830 0.000000 0.000000 0.000000
# 4 0.000000 0.000000 0.000000 0.017685 0.000000 0.000000
# 5 0.000000 0.000000 0.000000 0.000000 0.032428 0.000000
# 6 0.000000 0.000000 0.000000 0.000000 0.000000 0.034355
#
#
# Mechanical properties :
#
#
# Convention : Reuss Voigt Hill
#
# Bulk Modulus (GPa) = 29.47648 48.28947 38.88297
# Shear Modulus (GPa) = 33.13168 40.35865 36.74517
#
# Velocity S-wave (km/s) = 3.61450 3.98928 3.80651
# Velocity P-wave (km/s) = 5.38913 6.34514 5.88658
#
# Compressibility (1/GPa) = 0.03392535
#
# Stress axis : x y z
#
# Youngs Moduli (GPa) = 34.85189 124.87754 127.70907
#
# Poissons Ratio (x) = 0.06867 0.33007
# Poissons Ratio (y) = 0.01917 0.27692
# Poissons Ratio (z) = 0.09008 0.27078
#
# Static dielectric constant tensor:
#      x y z
#    x 2.018410 0.000000 0.000000 
#    y 0.000000 1.534660 0.000000 
#    z 0.000000 0.000000 1.940190 
# 
# From -- ./inp_files/8661.got.cif
#   From: 2010.05.17/outbox.cif.g08.bks.cpg/sg52_5_cif.got.tgz:8661.got - 2010.06.03 12:15:38.
