data_PCOD9412860
_publ_section_title
;
Structure prediction by ZEFSAII (Michael W. Deem and Ramdas Pophale) SiO2 
 PCOD9412860
Probable space group: P N N A
;
_chemical_formula_sum "Si O2"
_cell_formula_units_Z 32
_cell_length_a 13.066956
_cell_length_b 8.684962
_cell_length_c 11.682443
_cell_angle_alpha 90.000000
_cell_angle_beta 90.000000
_cell_angle_gamma 90.000000
_cell_volume 1325.793917
_symmetry_space_group_name_H-M "P N N A"
_symmetry_group_IT_number 52
_symmetry_cell_setting 'orthorhombic'
loop_
_space_group_symop_operation_xyz
x,y,z
1/2-x,-y,z
x,1/2-y,1/2-z
1/2-x,1/2+y,1/2-z
-x,-y,-z
1/2+x,y,-z
-x,1/2+y,1/2+z
1/2+x,1/2-y,1/2+z
loop_
_atom_site_type_symbol
_atom_site_label
_atom_site_fract_x
_atom_site_fract_y
_atom_site_fract_z
Si Si1 0.437839 0.687414 0.864729
Si Si2 0.890104 0.940909 0.957240
Si Si3 0.687729 0.250000 0.750000
Si Si4 0.341187 0.293099 0.056698
Si Si5 0.750000 0.500000 0.135780
O O1 0.488885 0.750000 0.750000
O O2 0.542375 0.644833 0.930651
O O3 0.350773 0.576045 0.811071
O O4 0.377951 0.805032 0.948730
O O5 0.879288 0.861127 0.832346
O O6 0.833669 0.106553 0.952873
O O7 0.000000 0.000000 0.000000
O O8 0.765459 0.331748 0.838705
O O9 0.300832 0.372069 0.943795
#
# Coordination Sequence:
#
# PCOD9412860 Si02
#       5
#     8   8   4   8   4
#     4  11  25  47  69 104 151 200 251 317 390 469
#     4  10  25  47  72 112 153 192 255 322 385 451
#     4  12  22  42  84 102 140 198 254 316 374 448
#     4  11  25  45  73 108 143 191 266 319 369 467
#     4  12  26  42  70 102 150 198 246 316 402 448
#
# _framework density 24.136479000000001
#
# number of rings (size 3 to 8) (size 9 to 14) (size 15 to 20)
#    0.000    1.000    3.750    1.500    3.500    2.000 
#   18.000    0.000    0.000    0.000    0.000    0.000 
#    0.000    0.000    0.000    0.000    0.000    0.000 
#
# Total GULP energy -178195.121285 kJ/mol
# GULP energy per Si atom -5568.597540 kJ/mol
# Density = 2.408154 g / cm^3
# Si number density = 24.136479 Si / 1000 Ang^3
#
#
#
# Elastic Constant Matrix: (Units=GPa)
#
#
# Indices 1 2 3 4 5 6 
#
# 1 131.5499 32.9196 7.4243 0.0000 0.0000 0.0000
# 2 32.9196 86.3394 20.0364 0.0000 0.0000 0.0000
# 3 7.4243 20.0364 70.0828 0.0000 0.0000 0.0000
# 4 0.0000 0.0000 0.0000 21.7350 0.0000 0.0000
# 5 0.0000 0.0000 0.0000 0.0000 46.7691 0.0000
# 6 0.0000 0.0000 0.0000 0.0000 0.0000 33.6301
#
#
#
# Elastic Compliance Matrix: (Units=1/GPa)
#
#
# Indices 1 2 3 4 5 6 
#
# 1 0.008404 -0.003211 0.000028 0.000000 0.000000 0.000000
# 2 -0.003211 0.013632 -0.003557 0.000000 0.000000 0.000000
# 3 0.000028 -0.003557 0.015283 0.000000 0.000000 0.000000
# 4 0.000000 0.000000 0.000000 0.046009 0.000000 0.000000
# 5 0.000000 0.000000 0.000000 0.000000 0.021382 0.000000
# 6 0.000000 0.000000 0.000000 0.000000 0.000000 0.029735
#
#
# Mechanical properties :
#
#
# Convention : Reuss Voigt Hill
#
# Bulk Modulus (GPa) = 41.94964 45.41476 43.68220
# Shear Modulus (GPa) = 32.07802 35.59964 33.83883
#
# Velocity S-wave (km/s) = 3.64954 3.84465 3.74836
# Velocity P-wave (km/s) = 5.93100 6.21008 6.07214
#
# Compressibility (1/GPa) = 0.02383811
#
# Stress axis : x y z
#
# Youngs Moduli (GPa) = 118.99755 73.35780 65.43266
#
# Poissons Ratio (x) = 0.23552 -0.00181
# Poissons Ratio (y) = 0.38204 0.23276
# Poissons Ratio (z) = -0.00329 0.26095
#
# Static dielectric constant tensor:
#      x y z
#    x 2.190360 0.000000 0.000000 
#    y 0.000000 2.160920 0.000000 
#    z 0.000000 0.000000 1.889840 
# 
# From -- ./inp_files/18948.got.cif
#   From: 2010.05.17/outbox.cif.g08.bks.cpg/sg52_10_cif.got.tgz:18948.got - 2010.06.03 12:15:38.
