data_PCOD9412036
_publ_section_title
;
Structure prediction by ZEFSAII (Michael W. Deem and Ramdas Pophale) SiO2 
 PCOD9412036
Probable space group: P N N A
;
_chemical_formula_sum "Si O2"
_cell_formula_units_Z 32
_cell_length_a 13.959823
_cell_length_b 9.930272
_cell_length_c 9.305687
_cell_angle_alpha 90.000000
_cell_angle_beta 90.000000
_cell_angle_gamma 90.000000
_cell_volume 1289.999366
_symmetry_space_group_name_H-M "P N N A"
_symmetry_group_IT_number 52
_symmetry_cell_setting 'orthorhombic'
loop_
_space_group_symop_operation_xyz
x,y,z
1/2-x,-y,z
x,1/2-y,1/2-z
1/2-x,1/2+y,1/2-z
-x,-y,-z
1/2+x,y,-z
-x,1/2+y,1/2+z
1/2+x,1/2-y,1/2+z
loop_
_atom_site_type_symbol
_atom_site_label
_atom_site_fract_x
_atom_site_fract_y
_atom_site_fract_z
Si Si1 0.909767 0.581070 0.940170
Si Si2 0.681330 0.611768 0.694069
Si Si3 0.312975 0.615084 0.761729
Si Si4 0.988241 0.847432 0.045548
O O1 0.866154 0.490238 0.812794
O O2 0.836830 0.586971 0.073392
O O3 0.949287 0.736189 0.932877
O O4 0.000000 0.500000 0.000000
O O5 0.750000 0.500000 0.619763
O O6 0.733422 0.750000 0.750000
O O7 0.594723 0.680340 0.604860
O O8 0.250000 0.500000 0.698084
O O9 0.252263 0.750000 0.750000
O O10 0.408952 0.640353 0.671011
O O11 0.000000 0.000000 0.000000
#
# Coordination Sequence:
#
# PCOD9412036 Si02
#       4
#     8   8   8   8
#     4  11  21  45  73  90 129 185 231 281 349 408
#     4  12  26  46  70 103 141 183 236 290 354 427
#     4  10  22  43  67  96 128 171 227 279 339 408
#     4  11  25  43  67  99 140 179 228 286 346 423
#
# _framework density 24.806214000000001
#
# number of rings (size 3 to 8) (size 9 to 14) (size 15 to 20)
#    0.000    1.000    5.000    1.500    3.500    3.000 
#    4.500    0.000    0.000    0.000    0.000    0.000 
#    0.000    0.000    0.000    0.000    0.000    0.000 
#
# Total GULP energy -178538.983735 kJ/mol
# GULP energy per Si atom -5579.343242 kJ/mol
# Density = 2.474975 g / cm^3
# Si number density = 24.806214 Si / 1000 Ang^3
#
#
#
# Elastic Constant Matrix: (Units=GPa)
#
#
# Indices 1 2 3 4 5 6 
#
# 1 79.0553 50.5741 13.6480 0.0000 0.0000 0.0000
# 2 50.5741 237.9547 37.7486 0.0000 0.0000 0.0000
# 3 13.6480 37.7486 81.7678 0.0000 0.0000 0.0000
# 4 0.0000 0.0000 0.0000 38.9985 0.0000 0.0000
# 5 0.0000 0.0000 0.0000 0.0000 -1.5843 0.0000
# 6 0.0000 0.0000 0.0000 0.0000 0.0000 40.4263
#
#
#
# Elastic Compliance Matrix: (Units=1/GPa)
#
#
# Indices 1 2 3 4 5 6 
#
# 1 0.014730 -0.002957 -0.001093 0.000000 0.000000 0.000000
# 2 -0.002957 0.005128 -0.001874 0.000000 0.000000 0.000000
# 3 -0.001093 -0.001874 0.013277 0.000000 0.000000 0.000000
# 4 0.000000 0.000000 0.000000 0.025642 0.000000 0.000000
# 5 0.000000 0.000000 0.000000 0.000000 -0.631179 0.000000
# 6 0.000000 0.000000 0.000000 0.000000 0.000000 0.024736
#
#
# Mechanical properties :
#
#
# Convention : Reuss Voigt Hill
#
# Bulk Modulus (GPa) = 46.97796 66.96880 56.97338
# Shear Modulus (GPa) = -9.45680 35.35523 12.94921
#
# Velocity S-wave (km/s) = -1.95462 3.77935 2.28724
# Velocity P-wave (km/s) = 3.72626 6.78970 5.47655
#
# Compressibility (1/GPa) = 0.02128658
#
# Stress axis : x y z
#
# Youngs Moduli (GPa) = 67.88886 194.99764 75.31619
#
# Poissons Ratio (x) = 0.57665 0.08235
# Poissons Ratio (y) = 0.20076 0.14114
# Poissons Ratio (z) = 0.07423 0.36541
#
# Static dielectric constant tensor:
#      x y z
#    x 2.111100 0.000000 0.000000 
#    y 0.000000 2.097990 0.000000 
#    z 0.000000 0.000000 2.106690 
# 
# From -- ./inp_files/18845.got.cif
#   From: 2010.05.17/outbox.cif.g08.bks.cpg/sg52_10_cif.got.tgz:18845.got - 2010.06.03 12:15:38.
