data_PCOD9412099
_publ_section_title
;
Structure prediction by ZEFSAII (Michael W. Deem and Ramdas Pophale) SiO2 
 PCOD9412099
Probable space group: P N N A
;
_chemical_formula_sum "Si O2"
_cell_formula_units_Z 28
_cell_length_a 17.296173
_cell_length_b 12.984424
_cell_length_c 5.161088
_cell_angle_alpha 90.000000
_cell_angle_beta 90.000000
_cell_angle_gamma 90.000000
_cell_volume 1159.081498
_symmetry_space_group_name_H-M "P N N A"
_symmetry_group_IT_number 52
_symmetry_cell_setting 'orthorhombic'
loop_
_space_group_symop_operation_xyz
x,y,z
1/2-x,-y,z
x,1/2-y,1/2-z
1/2-x,1/2+y,1/2-z
-x,-y,-z
1/2+x,y,-z
-x,1/2+y,1/2+z
1/2+x,1/2-y,1/2+z
loop_
_atom_site_type_symbol
_atom_site_label
_atom_site_fract_x
_atom_site_fract_y
_atom_site_fract_z
Si Si1 0.435041 0.904865 0.742848
Si Si2 0.711548 0.750000 0.750000
Si Si3 0.603313 0.900793 0.968946
Si Si4 0.150687 0.107486 0.241599
O O1 0.377797 0.855938 0.957961
O O2 0.414543 0.625856 0.044566
O O3 0.418971 0.028728 0.782498
O O4 0.521774 0.882021 0.828847
O O5 0.655550 0.799854 0.965943
O O6 0.771741 0.838494 0.667420
O O7 0.651756 0.985145 0.803044
#
# Coordination Sequence:
#
# PCOD9412099 Si02
#       4
#     8   4   8   8
#     4   9  21  46  70  84 134 175 226 258 331 379
#     4  12  24  42  64 108 136 168 220 272 344 384
#     4   9  22  43  69  94 128 178 219 274 315 400
#     4  10  22  44  63  97 130 174 208 284 320 394
#
# _framework density 24.157060000000001
#
# number of rings (size 3 to 8) (size 9 to 14) (size 15 to 20)
#    1.714    0.571    0.000    1.714    0.000    3.429 
#   15.429    0.000    0.000    0.000    0.000    0.000 
#    0.000    0.000    0.000    0.000    0.000    0.000 
#
# Total GULP energy -156013.775215 kJ/mol
# GULP energy per Si atom -5571.920543 kJ/mol
# Density = 2.410208 g / cm^3
# Si number density = 24.157060 Si / 1000 Ang^3
#
#
#
# Elastic Constant Matrix: (Units=GPa)
#
#
# Indices 1 2 3 4 5 6 
#
# 1 117.0765 37.2333 -7.0475 0.0000 0.0000 0.0000
# 2 37.2333 69.4471 -1.9811 0.0000 0.0000 0.0000
# 3 -7.0475 -1.9811 73.8365 0.0000 0.0000 0.0000
# 4 0.0000 0.0000 0.0000 2.3091 0.0000 0.0000
# 5 0.0000 0.0000 0.0000 0.0000 -136.6655 0.0000
# 6 0.0000 0.0000 0.0000 0.0000 0.0000 48.5797
#
#
#
# Elastic Compliance Matrix: (Units=1/GPa)
#
#
# Indices 1 2 3 4 5 6 
#
# 1 0.010349 -0.005524 0.000840 0.000000 0.000000 0.000000
# 2 -0.005524 0.017360 -0.000062 0.000000 0.000000 0.000000
# 3 0.000840 -0.000062 0.013622 0.000000 0.000000 0.000000
# 4 0.000000 0.000000 0.000000 0.433072 0.000000 0.000000
# 5 0.000000 0.000000 0.000000 0.000000 -0.007317 0.000000
# 6 0.000000 0.000000 0.000000 0.000000 0.000000 0.020585
#
#
# Mechanical properties :
#
#
# Convention : Reuss Voigt Hill
#
# Bulk Modulus (GPa) = 31.40954 35.19660 33.30307
# Shear Modulus (GPa) = 9.84687 -1.67833 4.08427
#
# Velocity S-wave (km/s) = 2.02115 -0.83443 1.30169
# Velocity P-wave (km/s) = 4.29851 3.69773 4.00939
#
# Compressibility (1/GPa) = 0.03183746
#
# Stress axis : x y z
#
# Youngs Moduli (GPa) = 96.62878 57.60506 73.41105
#
# Poissons Ratio (x) = 0.31824 -0.06163
# Poissons Ratio (y) = 0.53382 0.00452
# Poissons Ratio (z) = -0.08112 0.00354
#
# Static dielectric constant tensor:
#      x y z
#    x 1.878050 0.000000 0.000000 
#    y 0.000000 2.089910 0.000000 
#    z 0.000000 0.000000 1.886030 
# 
# From -- ./inp_files/17551.got.cif
#   From: 2010.05.17/outbox.cif.g08.bks.cpg/sg52_9_cif.got.tgz:17551.got - 2010.06.03 12:15:38.
