data_PCOD9412946
_publ_section_title
;
Structure prediction by ZEFSAII (Michael W. Deem and Ramdas Pophale) SiO2 
 PCOD9412946
Probable space group: P N N A
;
_chemical_formula_sum "Si O2"
_cell_formula_units_Z 20
_cell_length_a 16.574150
_cell_length_b 8.934456
_cell_length_c 5.024338
_cell_angle_alpha 90.000000
_cell_angle_beta 90.000000
_cell_angle_gamma 90.000000
_cell_volume 744.009065
_symmetry_space_group_name_H-M "P N N A"
_symmetry_group_IT_number 52
_symmetry_cell_setting 'orthorhombic'
loop_
_space_group_symop_operation_xyz
x,y,z
1/2-x,-y,z
x,1/2-y,1/2-z
1/2-x,1/2+y,1/2-z
-x,-y,-z
1/2+x,y,-z
-x,1/2+y,1/2+z
1/2+x,1/2-y,1/2+z
loop_
_atom_site_type_symbol
_atom_site_label
_atom_site_fract_x
_atom_site_fract_y
_atom_site_fract_z
Si Si1 0.150294 0.649047 0.505146
Si Si2 0.928908 0.589370 0.854012
Si Si3 0.808074 0.750000 0.250000
O O1 0.138524 0.750000 0.250000
O O2 0.105410 0.500825 0.401869
O O3 0.246092 0.655075 0.567336
O O4 0.119399 0.750000 0.750000
O O5 0.955472 0.750000 0.750000
O O6 0.858972 0.635274 0.066878
O O7 0.000000 0.500000 0.000000
#
# Coordination Sequence:
#
# PCOD9412946 Si02
#       3
#     8   8   4
#     4  10  27  57  92 135 178 246 326 385 462 568
#     4  12  31  58  90 141 192 247 310 401 493 565
#     4  10  28  56 102 130 192 246 332 390 472 576
#
# _framework density 26.881395000000001
#
# number of rings (size 3 to 8) (size 9 to 14) (size 15 to 20)
#    1.200    0.000    0.000    1.200    8.400   12.800 
#    7.200    4.000    0.000    0.000    0.000    0.000 
#    0.000    0.000    0.000    0.000    0.000    0.000 
#
# Total GULP energy -111941.720464 kJ/mol
# GULP energy per Si atom -5597.086023 kJ/mol
# Density = 2.682021 g / cm^3
# Si number density = 26.881395 Si / 1000 Ang^3
#
#
#
# Elastic Constant Matrix: (Units=GPa)
#
#
# Indices 1 2 3 4 5 6 
#
# 1 204.1958 119.4253 102.9118 0.0000 0.0000 0.0000
# 2 119.4253 247.8262 114.1599 0.0000 0.0000 0.0000
# 3 102.9118 114.1599 248.3412 0.0000 0.0000 0.0000
# 4 0.0000 0.0000 0.0000 65.9970 0.0000 0.0000
# 5 0.0000 0.0000 0.0000 0.0000 -619.7831 0.0000
# 6 0.0000 0.0000 0.0000 0.0000 0.0000 24.2909
#
#
#
# Elastic Compliance Matrix: (Units=1/GPa)
#
#
# Indices 1 2 3 4 5 6 
#
# 1 0.007412 -0.002736 -0.001814 0.000000 0.000000 0.000000
# 2 -0.002736 0.006129 -0.001684 0.000000 0.000000 0.000000
# 3 -0.001814 -0.001684 0.005552 0.000000 0.000000 0.000000
# 4 0.000000 0.000000 0.000000 0.015152 0.000000 0.000000
# 5 0.000000 0.000000 0.000000 0.000000 -0.001613 0.000000
# 6 0.000000 0.000000 0.000000 0.000000 0.000000 0.041168
#
#
# Mechanical properties :
#
#
# Convention : Reuss Voigt Hill
#
# Bulk Modulus (GPa) = 150.91596 152.59523 151.75560
# Shear Modulus (GPa) = 56.51330 -81.64128 -12.56399
#
# Velocity S-wave (km/s) = 4.59008 -5.51696 -2.16426
# Velocity P-wave (km/s) = 9.18450 4.03818 7.09443
#
# Compressibility (1/GPa) = 0.00662620
#
# Stress axis : x y z
#
# Youngs Moduli (GPa) = 134.92532 163.15376 180.10870
#
# Poissons Ratio (x) = 0.44641 0.32663
# Poissons Ratio (y) = 0.36918 0.30324
# Poissons Ratio (z) = 0.24469 0.27470
#
# Static dielectric constant tensor:
#      x y z
#    x 2.182770 0.000000 0.000000 
#    y 0.000000 2.116030 0.000000 
#    z 0.000000 0.000000 2.117000 
# 
# From -- ./inp_files/2776.got.cif
#   From: 2010.05.17/outbox.cif.g08.bks.cpg/sg52_2_cif.got.tgz:2776.got - 2010.06.03 12:15:38.
