data_PCOD9412423
_publ_section_title
;
Structure prediction by ZEFSAII (Michael W. Deem and Ramdas Pophale) SiO2 
 PCOD9412423
Probable space group: P N N A
;
_chemical_formula_sum "Si O2"
_cell_formula_units_Z 32
_cell_length_a 10.790205
_cell_length_b 9.912368
_cell_length_c 14.085864
_cell_angle_alpha 90.000000
_cell_angle_beta 90.000000
_cell_angle_gamma 90.000000
_cell_volume 1506.574470
_symmetry_space_group_name_H-M "P N N A"
_symmetry_group_IT_number 52
_symmetry_cell_setting 'orthorhombic'
loop_
_space_group_symop_operation_xyz
x,y,z
1/2-x,-y,z
x,1/2-y,1/2-z
1/2-x,1/2+y,1/2-z
-x,-y,-z
1/2+x,y,-z
-x,1/2+y,1/2+z
1/2+x,1/2-y,1/2+z
loop_
_atom_site_type_symbol
_atom_site_label
_atom_site_fract_x
_atom_site_fract_y
_atom_site_fract_z
Si Si1 0.838224 0.612423 0.274522
Si Si2 0.941167 0.855165 0.024248
Si Si3 0.856093 0.687949 0.849468
Si Si4 0.928216 0.113800 0.638286
O O1 0.750000 0.500000 0.235365
O O2 0.771799 0.750000 0.250000
O O3 0.854658 0.611154 0.386532
O O4 0.971333 0.613056 0.223233
O O5 0.025419 0.728918 0.063878
O O6 0.874139 0.797288 0.931750
O O7 0.000000 0.000000 0.000000
O O8 0.905206 0.750000 0.750000
O O9 0.916925 0.546334 0.884786
O O10 0.710895 0.655509 0.834577
#
# Coordination Sequence:
#
# PCOD9412423 Si02
#       4
#     8   8   8   8
#     4  10  23  44  65  96 132 176 223 284 337 407
#     4  11  24  40  67 103 136 173 230 287 347 418
#     4  11  23  43  71  97 135 183 225 283 348 418
#     4  10  24  47  66  95 139 179 228 284 347 417
#
# _framework density 21.240238999999999
#
# number of rings (size 3 to 8) (size 9 to 14) (size 15 to 20)
#    0.000    1.500    0.000    4.500    3.500    5.000 
#   22.500    0.000    0.000    0.000    0.000    0.000 
#    0.000    0.000    0.000    0.000    0.000    0.000 
#
# Total GULP energy -178378.260495 kJ/mol
# GULP energy per Si atom -5574.320640 kJ/mol
# Density = 2.119190 g / cm^3
# Si number density = 21.240239 Si / 1000 Ang^3
#
#
#
# Elastic Constant Matrix: (Units=GPa)
#
#
# Indices 1 2 3 4 5 6 
#
# 1 62.9646 65.2750 33.6451 0.0000 0.0000 0.0000
# 2 65.2750 185.4597 49.7967 0.0000 0.0000 0.0000
# 3 33.6451 49.7967 113.3980 0.0000 0.0000 0.0000
# 4 0.0000 0.0000 0.0000 30.0065 0.0000 0.0000
# 5 0.0000 0.0000 0.0000 0.0000 40.9140 0.0000
# 6 0.0000 0.0000 0.0000 0.0000 0.0000 24.7016
#
#
#
# Elastic Compliance Matrix: (Units=1/GPa)
#
#
# Indices 1 2 3 4 5 6 
#
# 1 0.026743 -0.008255 -0.004309 0.000000 0.000000 0.000000
# 2 -0.008255 0.008661 -0.001354 0.000000 0.000000 0.000000
# 3 -0.004309 -0.001354 0.010692 0.000000 0.000000 0.000000
# 4 0.000000 0.000000 0.000000 0.033326 0.000000 0.000000
# 5 0.000000 0.000000 0.000000 0.000000 0.024442 0.000000
# 6 0.000000 0.000000 0.000000 0.000000 0.000000 0.040483
#
#
# Mechanical properties :
#
#
# Convention : Reuss Voigt Hill
#
# Bulk Modulus (GPa) = 54.77004 73.25064 64.01034
# Shear Modulus (GPa) = 28.04726 33.33146 30.68936
#
# Velocity S-wave (km/s) = 3.63778 3.96569 3.80527
# Velocity P-wave (km/s) = 6.59443 7.45188 7.03623
#
# Compressibility (1/GPa) = 0.01825816
#
# Stress axis : x y z
#
# Youngs Moduli (GPa) = 37.39289 115.45757 93.53064
#
# Poissons Ratio (x) = 0.95316 0.40306
# Poissons Ratio (y) = 0.30870 0.12664
# Poissons Ratio (z) = 0.16114 0.15633
#
# Static dielectric constant tensor:
#      x y z
#    x 1.752820 0.000000 0.000000 
#    y 0.000000 1.828430 0.000000 
#    z 0.000000 0.000000 1.734130 
# 
# From -- ./inp_files/25510.got.cif
#   From: 2010.05.17/outbox.cif.g08.bks.cpg/sg52_13_cif.got.tgz:25510.got - 2010.06.03 12:15:38.
