data_PCOD9412525
_publ_section_title
;
Structure prediction by ZEFSAII (Michael W. Deem and Ramdas Pophale) SiO2 
 PCOD9412525
Probable space group: P N N A
;
_chemical_formula_sum "Si O2"
_cell_formula_units_Z 24
_cell_length_a 9.065578
_cell_length_b 10.665752
_cell_length_c 10.622447
_cell_angle_alpha 90.000000
_cell_angle_beta 90.000000
_cell_angle_gamma 90.000000
_cell_volume 1027.097218
_symmetry_space_group_name_H-M "P N N A"
_symmetry_group_IT_number 52
_symmetry_cell_setting 'orthorhombic'
loop_
_space_group_symop_operation_xyz
x,y,z
1/2-x,-y,z
x,1/2-y,1/2-z
1/2-x,1/2+y,1/2-z
-x,-y,-z
1/2+x,y,-z
-x,1/2+y,1/2+z
1/2+x,1/2-y,1/2+z
loop_
_atom_site_type_symbol
_atom_site_label
_atom_site_fract_x
_atom_site_fract_y
_atom_site_fract_z
Si Si1 0.670524 0.155276 0.439033
Si Si2 0.017196 0.562455 0.837084
Si Si3 0.888740 0.913533 0.926994
O O1 0.615380 0.084185 0.565429
O O2 0.835910 0.129653 0.391963
O O3 0.651459 0.297883 0.482310
O O4 0.564397 0.085563 0.336658
O O5 0.968994 0.616425 0.703885
O O6 0.750000 0.000000 0.894957
O O7 0.000000 0.000000 0.000000
#
# Coordination Sequence:
#
# PCOD9412525 Si02
#       3
#     8   8   8
#     4  10  23  48  77 103 151 205 257 318 397 464
#     4  10  24  47  79 109 146 207 265 319 393 476
#     4  12  28  47  73 118 159 202 264 335 397 473
#
# _framework density 23.366823
#
# number of rings (size 3 to 8) (size 9 to 14) (size 15 to 20)
#    0.000    1.333    0.000    3.000   14.000    1.333 
#   12.000    0.000    0.000    0.000    0.000    0.000 
#    0.000    0.000    0.000    0.000    0.000    0.000 
#
# Total GULP energy -134120.690131 kJ/mol
# GULP energy per Si atom -5588.362089 kJ/mol
# Density = 2.331364 g / cm^3
# Si number density = 23.366823 Si / 1000 Ang^3
#
#
#
# Elastic Constant Matrix: (Units=GPa)
#
#
# Indices 1 2 3 4 5 6 
#
# 1 165.0419 68.6728 67.7374 0.0000 0.0000 0.0000
# 2 68.6728 180.6853 48.3790 0.0000 0.0000 0.0000
# 3 67.7374 48.3790 107.6290 0.0000 0.0000 0.0000
# 4 0.0000 0.0000 0.0000 22.2554 0.0000 0.0000
# 5 0.0000 0.0000 0.0000 0.0000 34.3886 0.0000
# 6 0.0000 0.0000 0.0000 0.0000 0.0000 33.6190
#
#
#
# Elastic Compliance Matrix: (Units=1/GPa)
#
#
# Indices 1 2 3 4 5 6 
#
# 1 0.008833 -0.002124 -0.004604 0.000000 0.000000 0.000000
# 2 -0.002124 0.006803 -0.001721 0.000000 0.000000 0.000000
# 3 -0.004604 -0.001721 0.012962 0.000000 0.000000 0.000000
# 4 0.000000 0.000000 0.000000 0.044933 0.000000 0.000000
# 5 0.000000 0.000000 0.000000 0.000000 0.029079 0.000000
# 6 0.000000 0.000000 0.000000 0.000000 0.000000 0.029745
#
#
# Mechanical properties :
#
#
# Convention : Reuss Voigt Hill
#
# Bulk Modulus (GPa) = 85.47568 91.43717 88.45643
# Shear Modulus (GPa) = 32.64715 35.95707 34.30211
#
# Velocity S-wave (km/s) = 3.74191 3.92702 3.83558
# Velocity P-wave (km/s) = 7.43832 7.73163 7.58639
#
# Compressibility (1/GPa) = 0.01169923
#
# Stress axis : x y z
#
# Youngs Moduli (GPa) = 113.21752 147.00257 77.14693
#
# Poissons Ratio (x) = 0.31227 0.35519
# Poissons Ratio (y) = 0.24050 0.13276
# Poissons Ratio (z) = 0.52126 0.25297
#
# Static dielectric constant tensor:
#      x y z
#    x 1.788490 0.000000 0.000000 
#    y 0.000000 2.027210 0.000000 
#    z 0.000000 0.000000 1.934120 
# 
# From -- ./inp_files/16267.got.cif
#   From: 2010.05.17/outbox.cif.g08.bks.cpg/sg52_9_cif.got.tgz:16267.got - 2010.06.03 12:15:38.
