data_PCOD9412719
_publ_section_title
;
Structure prediction by ZEFSAII (Michael W. Deem and Ramdas Pophale) SiO2 
 PCOD9412719
Probable space group: P N N A
;
_chemical_formula_sum "Si O2"
_cell_formula_units_Z 16
_cell_length_a 4.833885
_cell_length_b 10.310517
_cell_length_c 10.892272
_cell_angle_alpha 90.000000
_cell_angle_beta 90.000000
_cell_angle_gamma 90.000000
_cell_volume 542.869240
_symmetry_space_group_name_H-M "P N N A"
_symmetry_group_IT_number 52
_symmetry_cell_setting 'orthorhombic'
loop_
_space_group_symop_operation_xyz
x,y,z
1/2-x,-y,z
x,1/2-y,1/2-z
1/2-x,1/2+y,1/2-z
-x,-y,-z
1/2+x,y,-z
-x,1/2+y,1/2+z
1/2+x,1/2-y,1/2+z
loop_
_atom_site_type_symbol
_atom_site_label
_atom_site_fract_x
_atom_site_fract_y
_atom_site_fract_z
Si Si1 0.923387 0.750000 0.250000
Si Si2 0.250000 0.500000 0.900938
Si Si3 0.663550 0.137323 0.924763
O O1 0.160966 0.759257 0.144220
O O2 0.755845 0.626270 0.191438
O O3 0.500000 0.500000 0.000000
O O4 0.750000 0.000000 0.867423
O O5 0.339070 0.138916 0.946651
#
# Coordination Sequence:
#
# PCOD9412719 Si02
#       3
#     4   4   8
#     4  12  28  52  88 116 176 222 276 354 450 482
#     4  12  32  56  82 132 174 220 298 356 422 532
#     4  10  24  45  73 110 150 201 272 327 400 505
#
# _framework density 29.473027999999999
#
# number of rings (size 3 to 8) (size 9 to 14) (size 15 to 20)
#    0.000    1.000    0.000    3.000   14.000    4.000 
#    0.000    0.000    0.000    0.000    0.000    0.000 
#    0.000    0.000    0.000    0.000    0.000    0.000 
#
# Total GULP energy -89215.343090 kJ/mol
# GULP energy per Si atom -5575.958943 kJ/mol
# Density = 2.940595 g / cm^3
# Si number density = 29.473028 Si / 1000 Ang^3
#
#
#
# Elastic Constant Matrix: (Units=GPa)
#
#
# Indices 1 2 3 4 5 6 
#
# 1 229.7239 16.9614 34.9534 0.0000 0.0000 0.0000
# 2 16.9614 154.3472 41.6735 0.0000 0.0000 0.0000
# 3 34.9534 41.6735 168.2819 0.0000 0.0000 0.0000
# 4 0.0000 0.0000 0.0000 63.9338 0.0000 0.0000
# 5 0.0000 0.0000 0.0000 0.0000 19.2514 0.0000
# 6 0.0000 0.0000 0.0000 0.0000 0.0000 48.4181
#
#
#
# Elastic Compliance Matrix: (Units=1/GPa)
#
#
# Indices 1 2 3 4 5 6 
#
# 1 0.004505 -0.000260 -0.000871 0.000000 0.000000 0.000000
# 2 -0.000260 0.006958 -0.001669 0.000000 0.000000 0.000000
# 3 -0.000871 -0.001669 0.006537 0.000000 0.000000 0.000000
# 4 0.000000 0.000000 0.000000 0.015641 0.000000 0.000000
# 5 0.000000 0.000000 0.000000 0.000000 0.051944 0.000000
# 6 0.000000 0.000000 0.000000 0.000000 0.000000 0.020653
#
#
# Mechanical properties :
#
#
# Convention : Reuss Voigt Hill
#
# Bulk Modulus (GPa) = 80.65097 82.16994 81.41045
# Shear Modulus (GPa) = 43.11381 56.90498 50.00939
#
# Velocity S-wave (km/s) = 3.82884 4.39879 4.12367
# Velocity P-wave (km/s) = 6.85349 7.33072 7.09612
#
# Compressibility (1/GPa) = 0.01239911
#
# Stress axis : x y z
#
# Youngs Moduli (GPa) = 221.98487 143.71699 152.98126
#
# Poissons Ratio (x) = 0.03733 0.13330
# Poissons Ratio (y) = 0.05767 0.25535
# Poissons Ratio (z) = 0.19343 0.23989
#
# Static dielectric constant tensor:
#      x y z
#    x 2.280590 0.000000 0.000000 
#    y 0.000000 2.719380 0.000000 
#    z 0.000000 0.000000 2.748850 
# 
# From -- ./inp_files/15781.got.cif
#   From: 2010.05.17/outbox.cif.g08.bks.cpg/sg52_8_cif.got.tgz:15781.got - 2010.06.03 12:15:38.
