data_PCOD9412424
_publ_section_title
;
Structure prediction by ZEFSAII (Michael W. Deem and Ramdas Pophale) SiO2 
 PCOD9412424
Probable space group: P N N A
;
_chemical_formula_sum "Si O2"
_cell_formula_units_Z 40
_cell_length_a 11.864632
_cell_length_b 9.779134
_cell_length_c 13.519776
_cell_angle_alpha 90.000000
_cell_angle_beta 90.000000
_cell_angle_gamma 90.000000
_cell_volume 1568.643180
_symmetry_space_group_name_H-M "P N N A"
_symmetry_group_IT_number 52
_symmetry_cell_setting 'orthorhombic'
loop_
_space_group_symop_operation_xyz
x,y,z
1/2-x,-y,z
x,1/2-y,1/2-z
1/2-x,1/2+y,1/2-z
-x,-y,-z
1/2+x,y,-z
-x,1/2+y,1/2+z
1/2+x,1/2-y,1/2+z
loop_
_atom_site_type_symbol
_atom_site_label
_atom_site_fract_x
_atom_site_fract_y
_atom_site_fract_z
Si Si1 0.882732 0.750000 0.250000
Si Si2 0.114639 0.867052 0.437615
Si Si3 0.899099 0.003360 0.358586
Si Si4 0.501409 0.250000 0.750000
Si Si5 0.048853 0.135662 0.952165
Si Si6 0.294518 0.652728 0.385500
O O1 0.946451 0.839141 0.165109
O O2 0.830705 0.624907 0.186871
O O3 0.209611 0.782018 0.378862
O O4 0.139142 0.964492 0.529929
O O5 0.035785 0.752414 0.487083
O O6 0.029061 0.947489 0.367412
O O7 0.919313 0.135392 0.293257
O O8 0.590471 0.315657 0.672365
O O9 0.172050 0.151376 0.998459
O O10 0.000000 0.000000 0.000000
O O11 0.250000 0.500000 0.359778
#
# Coordination Sequence:
#
# PCOD9412424 Si02
#       6
#     4   8   8   4   8   8
#     4  10  24  41  73 102 134 186 248 283 363 442
#     4  10  23  44  65  97 142 186 226 287 370 422
#     4  10  23  44  68  98 139 190 227 299 363 430
#     4  12  26  41  71 110 134 184 244 301 365 444
#     4  11  21  45  69  99 142 182 233 295 363 436
#     4  12  26  40  69 105 140 187 242 301 363 435
#
# _framework density 25.499745000000001
#
# number of rings (size 3 to 8) (size 9 to 14) (size 15 to 20)
#    0.000    1.200    4.000    1.200    5.600    0.800 
#    0.000    3.000    0.000    0.000    0.000    0.000 
#    0.000    0.000    0.000    0.000    0.000    0.000 
#
# Total GULP energy -223419.213259 kJ/mol
# GULP energy per Si atom -5585.480331 kJ/mol
# Density = 2.544171 g / cm^3
# Si number density = 25.499745 Si / 1000 Ang^3
#
#
#
# Elastic Constant Matrix: (Units=GPa)
#
#
# Indices 1 2 3 4 5 6 
#
# 1 114.6881 33.4245 26.8804 0.0000 0.0000 0.0000
# 2 33.4245 162.3960 55.4349 0.0000 0.0000 0.0000
# 3 26.8804 55.4349 113.4160 0.0000 0.0000 0.0000
# 4 0.0000 0.0000 0.0000 54.2195 0.0000 0.0000
# 5 0.0000 0.0000 0.0000 0.0000 12.8889 0.0000
# 6 0.0000 0.0000 0.0000 0.0000 0.0000 21.7443
#
#
#
# Elastic Compliance Matrix: (Units=1/GPa)
#
#
# Indices 1 2 3 4 5 6 
#
# 1 0.009499 -0.001424 -0.001555 0.000000 0.000000 0.000000
# 2 -0.001424 0.007604 -0.003379 0.000000 0.000000 0.000000
# 3 -0.001555 -0.003379 0.010837 0.000000 0.000000 0.000000
# 4 0.000000 0.000000 0.000000 0.018444 0.000000 0.000000
# 5 0.000000 0.000000 0.000000 0.000000 0.077586 0.000000
# 6 0.000000 0.000000 0.000000 0.000000 0.000000 0.045989
#
#
# Mechanical properties :
#
#
# Convention : Reuss Voigt Hill
#
# Bulk Modulus (GPa) = 65.68861 69.10884 67.39873
# Shear Modulus (GPa) = 26.63099 36.08790 31.35944
#
# Velocity S-wave (km/s) = 3.23517 3.76603 3.51065
# Velocity P-wave (km/s) = 6.30646 6.78758 6.55144
#
# Compressibility (1/GPa) = 0.01522334
#
# Stress axis : x y z
#
# Youngs Moduli (GPa) = 105.27568 131.50154 92.27290
#
# Poissons Ratio (x) = 0.18728 0.14350
# Poissons Ratio (y) = 0.14993 0.31182
# Poissons Ratio (z) = 0.16372 0.44439
#
# Static dielectric constant tensor:
#      x y z
#    x 2.230970 0.000000 0.000000 
#    y 0.000000 1.950620 0.000000 
#    z 0.000000 0.000000 1.365960 
# 
# From -- ./inp_files/26934.got.cif
#   From: 2010.05.17/outbox.cif.g08.bks.cpg/sg52_14_cif.got.tgz:26934.got - 2010.06.03 12:15:38.
