data_PCOD9412407
_publ_section_title
;
Structure prediction by ZEFSAII (Michael W. Deem and Ramdas Pophale) SiO2 
 PCOD9412407
Probable space group: P N N A
;
_chemical_formula_sum "Si O2"
_cell_formula_units_Z 40
_cell_length_a 15.619623
_cell_length_b 12.097085
_cell_length_c 8.538050
_cell_angle_alpha 90.000000
_cell_angle_beta 90.000000
_cell_angle_gamma 90.000000
_cell_volume 1613.280830
_symmetry_space_group_name_H-M "P N N A"
_symmetry_group_IT_number 52
_symmetry_cell_setting 'orthorhombic'
loop_
_space_group_symop_operation_xyz
x,y,z
1/2-x,-y,z
x,1/2-y,1/2-z
1/2-x,1/2+y,1/2-z
-x,-y,-z
1/2+x,y,-z
-x,1/2+y,1/2+z
1/2+x,1/2-y,1/2+z
loop_
_atom_site_type_symbol
_atom_site_label
_atom_site_fract_x
_atom_site_fract_y
_atom_site_fract_z
Si Si1 0.929011 0.765463 0.436182
Si Si2 0.792842 0.398840 0.629553
Si Si3 0.551367 0.450915 0.641488
Si Si4 0.581649 0.648757 0.128726
Si Si5 0.251165 0.159353 0.473766
O O1 0.931483 0.750000 0.250000
O O2 0.913560 0.663619 0.562389
O O3 0.844525 0.839500 0.462620
O O4 0.021966 0.809160 0.487148
O O5 0.750000 0.500000 0.536410
O O6 0.882477 0.451892 0.678031
O O7 0.788007 0.285533 0.536990
O O8 0.745959 0.379116 0.794502
O O9 0.500000 0.500000 0.500000
O O10 0.484664 0.429329 0.779456
O O11 0.596986 0.750000 0.250000
O O12 0.672747 0.602273 0.071441
#
# Coordination Sequence:
#
# PCOD9412407 Si02
#       5
#     8   8   8   8   8
#     4  11  24  43  69  99 136 177 231 290 346 407
#     4  11  22  41  70  99 133 184 233 281 348 417
#     4  11  24  44  69 100 138 182 232 285 351 427
#     4  10  23  43  70  96 136 180 225 280 351 416
#     4  11  24  42  70 100 139 181 234 287 348 412
#
# _framework density 24.794194000000001
#
# number of rings (size 3 to 8) (size 9 to 14) (size 15 to 20)
#    0.000    1.200    2.000    4.200   11.200    0.800 
#    3.600    0.000    0.000    0.000    0.000    0.000 
#    0.000    0.000    0.000    0.000    0.000    0.000 
#
# Total GULP energy -223572.259143 kJ/mol
# GULP energy per Si atom -5589.306479 kJ/mol
# Density = 2.473776 g / cm^3
# Si number density = 24.794194 Si / 1000 Ang^3
#
#
#
# Elastic Constant Matrix: (Units=GPa)
#
#
# Indices 1 2 3 4 5 6 
#
# 1 133.7992 -1.3976 36.5416 0.0000 0.0000 0.0000
# 2 -1.3976 87.8146 -11.8728 0.0000 0.0000 0.0000
# 3 36.5416 -11.8728 111.7059 0.0000 0.0000 0.0000
# 4 0.0000 0.0000 0.0000 14.3137 0.0000 0.0000
# 5 0.0000 0.0000 0.0000 0.0000 30.0482 0.0000
# 6 0.0000 0.0000 0.0000 0.0000 0.0000 10.3151
#
#
#
# Elastic Compliance Matrix: (Units=1/GPa)
#
#
# Indices 1 2 3 4 5 6 
#
# 1 0.008212 -0.000236 -0.002711 0.000000 0.000000 0.000000
# 2 -0.000236 0.011560 0.001306 0.000000 0.000000 0.000000
# 3 -0.002711 0.001306 0.009978 0.000000 0.000000 0.000000
# 4 0.000000 0.000000 0.000000 0.069863 0.000000 0.000000
# 5 0.000000 0.000000 0.000000 0.000000 0.033280 0.000000
# 6 0.000000 0.000000 0.000000 0.000000 0.000000 0.096946
#
#
# Mechanical properties :
#
#
# Convention : Reuss Voigt Hill
#
# Bulk Modulus (GPa) = 37.78234 42.20692 39.99463
# Shear Modulus (GPa) = 20.66594 31.60529 26.13562
#
# Velocity S-wave (km/s) = 2.89017 3.57417 3.25022
# Velocity P-wave (km/s) = 5.13896 5.83891 5.50008
#
# Compressibility (1/GPa) = 0.02646739
#
# Stress axis : x y z
#
# Youngs Moduli (GPa) = 121.77421 86.50191 100.22222
#
# Poissons Ratio (x) = 0.02041 0.27174
# Poissons Ratio (y) = 0.02873 -0.13088
# Poissons Ratio (z) = 0.33018 -0.11296
#
# Static dielectric constant tensor:
#      x y z
#    x 1.164450 0.000000 0.000000 
#    y 0.000000 2.024980 0.000000 
#    z 0.000000 0.000000 1.539520 
# 
# From -- ./inp_files/10040.got.cif
#   From: 2010.05.17/outbox.cif.g08.bks.cpg/sg52_6_cif.got.tgz:10040.got - 2010.06.03 12:15:38.
