data_PCOD9412052
_publ_section_title
;
Structure prediction by ZEFSAII (Michael W. Deem and Ramdas Pophale) SiO2 
 PCOD9412052
Probable space group: P N N A
;
_chemical_formula_sum "Si O2"
_cell_formula_units_Z 60
_cell_length_a 8.963204
_cell_length_b 17.264256
_cell_length_c 17.417434
_cell_angle_alpha 90.000000
_cell_angle_beta 90.000000
_cell_angle_gamma 90.000000
_cell_volume 2695.226833
_symmetry_space_group_name_H-M "P N N A"
_symmetry_group_IT_number 52
_symmetry_cell_setting 'orthorhombic'
loop_
_space_group_symop_operation_xyz
x,y,z
1/2-x,-y,z
x,1/2-y,1/2-z
1/2-x,1/2+y,1/2-z
-x,-y,-z
1/2+x,y,-z
-x,1/2+y,1/2+z
1/2+x,1/2-y,1/2+z
loop_
_atom_site_type_symbol
_atom_site_label
_atom_site_fract_x
_atom_site_fract_y
_atom_site_fract_z
Si Si1 0.054876 0.431321 0.850408
Si Si2 0.629881 0.056331 0.593247
Si Si3 0.407447 0.723627 0.163101
Si Si4 0.429535 0.001445 0.811154
Si Si5 0.443372 0.140942 0.908171
Si Si6 0.438015 0.238128 0.340850
Si Si7 0.407156 0.874192 0.932345
Si Si8 0.250000 0.500000 0.938372
O O1 0.015624 0.465072 0.767890
O O2 0.228058 0.430720 0.869781
O O3 0.018699 0.501718 0.911978
O O4 0.975563 0.350554 0.862058
O O5 0.596908 0.133656 0.639263
O O6 0.703956 0.063554 0.509631
O O7 0.750000 0.000000 0.635028
O O8 0.441180 0.750000 0.250000
O O9 0.521185 0.770633 0.110597
O O10 0.237661 0.752070 0.148432
O O11 0.480442 0.086783 0.834928
O O12 0.250000 0.000000 0.805105
O O13 0.467688 0.944626 0.881003
O O14 0.270989 0.127372 0.927024
O O15 0.539959 0.117758 0.981185
O O16 0.473570 0.250000 0.250000
O O17 0.529848 0.296562 0.393146
#
# Coordination Sequence:
#
# PCOD9412052 Si02
#       8
#     8   8   8   8   8   8   8   4
#     4  12  21  42  68  95 134 180 230 280 341 411
#     4  10  23  41  60  95 131 175 224 276 336 398
#     4  11  24  45  66 100 142 180 232 287 343 414
#     4  10  22  43  69 101 133 175 236 286 342 424
#     4  11  25  45  70 101 137 180 232 288 357 412
#     4  11  23  40  67  99 140 179 231 281 346 408
#     4  11  24  44  69 100 138 180 226 291 347 418
#     4  10  24  38  64  98 130 178 226 280 340 410
#
# _framework density 22.261576999999999
#
# number of rings (size 3 to 8) (size 9 to 14) (size 15 to 20)
#    0.400    0.800    3.333    2.400    1.867    1.600 
#    2.400    2.000    0.000    0.000    0.000    0.000 
#    0.000    0.000    0.000    0.000    0.000    0.000 
#
# Total GULP energy -334308.684341 kJ/mol
# GULP energy per Si atom -5571.811406 kJ/mol
# Density = 2.221091 g / cm^3
# Si number density = 22.261577 Si / 1000 Ang^3
#
#
#
# Elastic Constant Matrix: (Units=GPa)
#
#
# Indices 1 2 3 4 5 6 
#
# 1 38.9783 6.6435 13.1159 0.0000 0.0000 0.0000
# 2 6.6435 124.4747 33.5204 0.0000 0.0000 0.0000
# 3 13.1159 33.5204 78.4638 0.0000 0.0000 0.0000
# 4 0.0000 0.0000 0.0000 27.4063 0.0000 0.0000
# 5 0.0000 0.0000 0.0000 0.0000 21.7820 0.0000
# 6 0.0000 0.0000 0.0000 0.0000 0.0000 33.3842
#
#
#
# Elastic Compliance Matrix: (Units=1/GPa)
#
#
# Indices 1 2 3 4 5 6 
#
# 1 0.027192 -0.000257 -0.004436 0.000000 0.000000 0.000000
# 2 -0.000257 0.009081 -0.003836 0.000000 0.000000 0.000000
# 3 -0.004436 -0.003836 0.015125 0.000000 0.000000 0.000000
# 4 0.000000 0.000000 0.000000 0.036488 0.000000 0.000000
# 5 0.000000 0.000000 0.000000 0.000000 0.045910 0.000000
# 6 0.000000 0.000000 0.000000 0.000000 0.000000 0.029954
#
#
# Mechanical properties :
#
#
# Convention : Reuss Voigt Hill
#
# Bulk Modulus (GPa) = 29.12075 38.71958 33.92016
# Shear Modulus (GPa) = 26.00737 29.09030 27.54884
#
# Velocity S-wave (km/s) = 3.42169 3.61882 3.52164
# Velocity P-wave (km/s) = 5.35913 5.90694 5.63969
#
# Compressibility (1/GPa) = 0.03433977
#
# Stress axis : x y z
#
# Youngs Moduli (GPa) = 36.77606 110.12510 66.11525
#
# Poissons Ratio (x) = 0.02828 0.29326
# Poissons Ratio (y) = 0.00944 0.25364
# Poissons Ratio (z) = 0.16312 0.42248
#
# Static dielectric constant tensor:
#      x y z
#    x 1.254390 0.000000 0.000000 
#    y 0.000000 1.815740 0.000000 
#    z 0.000000 0.000000 1.851470 
# 
# From -- ./inp_files/32387.got.cif
#   From: 2010.05.17/outbox.cif.g08.bks.cpg/sg52_17_cif.got.tgz:32387.got - 2010.06.03 12:15:38.
