data_PCOD9412372
_publ_section_title
;
Structure prediction by ZEFSAII (Michael W. Deem and Ramdas Pophale) SiO2 
 PCOD9412372
Probable space group: P N N A
;
_chemical_formula_sum "Si O2"
_cell_formula_units_Z 24
_cell_length_a 15.425918
_cell_length_b 5.071176
_cell_length_c 11.673938
_cell_angle_alpha 90.000000
_cell_angle_beta 90.000000
_cell_angle_gamma 90.000000
_cell_volume 913.223512
_symmetry_space_group_name_H-M "P N N A"
_symmetry_group_IT_number 52
_symmetry_cell_setting 'orthorhombic'
loop_
_space_group_symop_operation_xyz
x,y,z
1/2-x,-y,z
x,1/2-y,1/2-z
1/2-x,1/2+y,1/2-z
-x,-y,-z
1/2+x,y,-z
-x,1/2+y,1/2+z
1/2+x,1/2-y,1/2+z
loop_
_atom_site_type_symbol
_atom_site_label
_atom_site_fract_x
_atom_site_fract_y
_atom_site_fract_z
Si Si1 0.750000 0.000000 0.387044
Si Si2 0.929706 0.928931 0.388734
Si Si3 0.083153 0.750000 0.250000
Si Si4 0.360979 0.402764 0.487128
O O1 0.838937 0.979502 0.318314
O O2 0.726540 0.749537 0.468740
O O3 0.901238 0.661142 0.454104
O O4 0.012481 0.939858 0.309310
O O5 0.928921 0.172882 0.475117
O O6 0.136526 0.603889 0.349247
#
# Coordination Sequence:
#
# PCOD9412372 Si02
#       4
#     4   8   4   8
#     4   8  22  46  58  92 140 162 210 268 314 366
#     4  10  23  43  65  92 131 166 211 269 310 380
#     4  12  24  42  72  96 124 172 220 254 328 372
#     4  10  23  43  65  92 131 166 211 269 310 380
#
# _framework density 26.280532999999998
#
# number of rings (size 3 to 8) (size 9 to 14) (size 15 to 20)
#    2.000    0.000    0.000    3.000    0.000    5.333 
#   12.000    0.000    0.000    0.000    0.000    0.000 
#    0.000    0.000    0.000    0.000    0.000    0.000 
#
# Total GULP energy -133614.909579 kJ/mol
# GULP energy per Si atom -5567.287899 kJ/mol
# Density = 2.622072 g / cm^3
# Si number density = 26.280533 Si / 1000 Ang^3
#
#
#
# Elastic Constant Matrix: (Units=GPa)
#
#
# Indices 1 2 3 4 5 6 
#
# 1 93.2617 9.5996 0.3624 0.0000 0.0000 0.0000
# 2 9.5996 183.8751 26.0772 0.0000 0.0000 0.0000
# 3 0.3624 26.0772 83.2930 0.0000 0.0000 0.0000
# 4 0.0000 0.0000 0.0000 32.8406 0.0000 0.0000
# 5 0.0000 0.0000 0.0000 0.0000 -65.7087 0.0000
# 6 0.0000 0.0000 0.0000 0.0000 0.0000 17.6994
#
#
#
# Elastic Compliance Matrix: (Units=1/GPa)
#
#
# Indices 1 2 3 4 5 6 
#
# 1 0.010782 -0.000582 0.000135 0.000000 0.000000 0.000000
# 2 -0.000582 0.005723 -0.001789 0.000000 0.000000 0.000000
# 3 0.000135 -0.001789 0.012565 0.000000 0.000000 0.000000
# 4 0.000000 0.000000 0.000000 0.030450 0.000000 0.000000
# 5 0.000000 0.000000 0.000000 0.000000 -0.015219 0.000000
# 6 0.000000 0.000000 0.000000 0.000000 0.000000 0.056499
#
#
# Mechanical properties :
#
#
# Convention : Reuss Voigt Hill
#
# Bulk Modulus (GPa) = 40.65346 48.05647 44.35496
# Shear Modulus (GPa) = 44.06402 18.59232 31.32817
#
# Velocity S-wave (km/s) = 4.09917 2.66269 3.45638
# Velocity P-wave (km/s) = 6.15686 5.27057 5.73087
#
# Compressibility (1/GPa) = 0.02459816
#
# Stress axis : x y z
#
# Youngs Moduli (GPa) = 92.74797 174.74598 79.58401
#
# Poissons Ratio (x) = 0.10172 -0.01077
# Poissons Ratio (y) = 0.05399 0.14238
# Poissons Ratio (z) = -0.01255 0.31264
#
# Static dielectric constant tensor:
#      x y z
#    x 2.368490 0.000000 0.000000 
#    y 0.000000 2.086850 0.000000 
#    z 0.000000 0.000000 2.594670 
# 
# From -- ./inp_files/3744.got.cif
#   From: 2010.05.17/outbox.cif.g08.bks.cpg/sg52_2_cif.got.tgz:3744.got - 2010.06.03 12:15:38.
