data_PCOD9412938
_publ_section_title
;
Structure prediction by ZEFSAII (Michael W. Deem and Ramdas Pophale) SiO2 
 PCOD9412938
Probable space group: P N N A
;
_chemical_formula_sum "Si O2"
_cell_formula_units_Z 28
_cell_length_a 13.849821
_cell_length_b 16.253639
_cell_length_c 4.874883
_cell_angle_alpha 90.000000
_cell_angle_beta 90.000000
_cell_angle_gamma 90.000000
_cell_volume 1097.384867
_symmetry_space_group_name_H-M "P N N A"
_symmetry_group_IT_number 52
_symmetry_cell_setting 'orthorhombic'
loop_
_space_group_symop_operation_xyz
x,y,z
1/2-x,-y,z
x,1/2-y,1/2-z
1/2-x,1/2+y,1/2-z
-x,-y,-z
1/2+x,y,-z
-x,1/2+y,1/2+z
1/2+x,1/2-y,1/2+z
loop_
_atom_site_type_symbol
_atom_site_label
_atom_site_fract_x
_atom_site_fract_y
_atom_site_fract_z
Si Si1 0.900729 0.498198 0.677912
Si Si2 0.332818 0.174209 0.408640
Si Si3 0.487883 0.750000 0.750000
Si Si4 0.654187 0.102981 0.286984
O O1 0.744029 0.640975 0.122201
O O2 0.868040 0.405618 0.740282
O O3 0.832189 0.546282 0.472525
O O4 0.106464 0.449985 0.037322
O O5 0.281650 0.250000 0.250000
O O6 0.435318 0.217534 0.476498
O O7 0.418525 0.825713 0.806566
O O8 0.500000 0.000000 0.000000
#
# Coordination Sequence:
#
# PCOD9412938 Si02
#       4
#     8   8   4   8
#     4  12  26  53  81 115 166 215 271 339 412 484
#     4  10  26  51  80 123 157 217 271 334 409 488
#     4  10  26  54  82 116 170 214 266 352 400 488
#     4  12  28  52  82 117 163 217 273 335 412 491
#
# _framework density 25.515205999999999
#
# number of rings (size 3 to 8) (size 9 to 14) (size 15 to 20)
#    0.857    0.000    2.857    1.714    4.000    4.571 
#    0.000    8.571    0.000    0.000    0.000    0.000 
#    0.000    0.000    0.000    0.000    0.000    0.000 
#
# Total GULP energy -156544.212418 kJ/mol
# GULP energy per Si atom -5590.864729 kJ/mol
# Density = 2.545713 g / cm^3
# Si number density = 25.515206 Si / 1000 Ang^3
#
#
#
# Elastic Constant Matrix: (Units=GPa)
#
#
# Indices 1 2 3 4 5 6 
#
# 1 162.3556 76.2059 34.6572 0.0000 0.0000 0.0000
# 2 76.2059 226.6520 90.7377 0.0000 0.0000 0.0000
# 3 34.6572 90.7377 128.5884 0.0000 0.0000 0.0000
# 4 0.0000 0.0000 0.0000 17.6674 0.0000 0.0000
# 5 0.0000 0.0000 0.0000 0.0000 -51.9958 0.0000
# 6 0.0000 0.0000 0.0000 0.0000 0.0000 51.8962
#
#
#
# Elastic Compliance Matrix: (Units=1/GPa)
#
#
# Indices 1 2 3 4 5 6 
#
# 1 0.007324 -0.002330 -0.000329 0.000000 0.000000 0.000000
# 2 -0.002330 0.006891 -0.004234 0.000000 0.000000 0.000000
# 3 -0.000329 -0.004234 0.010853 0.000000 0.000000 0.000000
# 4 0.000000 0.000000 0.000000 0.056601 0.000000 0.000000
# 5 0.000000 0.000000 0.000000 0.000000 -0.019232 0.000000
# 6 0.000000 0.000000 0.000000 0.000000 0.000000 0.019269
#
#
# Mechanical properties :
#
#
# Convention : Reuss Voigt Hill
#
# Bulk Modulus (GPa) = 88.65706 102.31085 95.48395
# Shear Modulus (GPa) = 50.37571 24.57990 37.47780
#
# Velocity S-wave (km/s) = 4.44818 3.10714 3.83671
# Velocity P-wave (km/s) = 7.82329 7.28406 7.55848
#
# Compressibility (1/GPa) = 0.01127942
#
# Stress axis : x y z
#
# Youngs Moduli (GPa) = 136.54673 145.12127 92.13660
#
# Poissons Ratio (x) = 0.33820 0.03034
# Poissons Ratio (y) = 0.31822 0.39014
# Poissons Ratio (z) = 0.04497 0.61449
#
# Static dielectric constant tensor:
#      x y z
#    x 2.028010 0.000000 0.000000 
#    y 0.000000 1.977560 0.000000 
#    z 0.000000 0.000000 2.024590 
# 
# From -- ./inp_files/9759.got.cif
#   From: 2010.05.17/outbox.cif.g08.bks.cpg/sg52_5_cif.got.tgz:9759.got - 2010.06.03 12:15:38.
