data_PCOD9412175
_publ_section_title
;
Structure prediction by ZEFSAII (Michael W. Deem and Ramdas Pophale) SiO2 
 PCOD9412175
Probable space group: P N N A
;
_chemical_formula_sum "Si O2"
_cell_formula_units_Z 56
_cell_length_a 14.077698
_cell_length_b 9.044058
_cell_length_c 19.203834
_cell_angle_alpha 90.000000
_cell_angle_beta 90.000000
_cell_angle_gamma 90.000000
_cell_volume 2445.022874
_symmetry_space_group_name_H-M "P N N A"
_symmetry_group_IT_number 52
_symmetry_cell_setting 'orthorhombic'
loop_
_space_group_symop_operation_xyz
x,y,z
1/2-x,-y,z
x,1/2-y,1/2-z
1/2-x,1/2+y,1/2-z
-x,-y,-z
1/2+x,y,-z
-x,1/2+y,1/2+z
1/2+x,1/2-y,1/2+z
loop_
_atom_site_type_symbol
_atom_site_label
_atom_site_fract_x
_atom_site_fract_y
_atom_site_fract_z
Si Si1 0.519584 0.593886 0.784014
Si Si2 0.853070 0.841176 0.068111
Si Si3 0.072061 0.922591 0.443120
Si Si4 0.575393 0.271570 0.923070
Si Si5 0.665206 0.388746 0.705423
Si Si6 0.874043 0.315598 0.449724
Si Si7 0.683843 0.135615 0.304354
O O1 0.545307 0.750000 0.750000
O O2 0.532547 0.606988 0.866785
O O3 0.584381 0.467792 0.751305
O O4 0.408627 0.564871 0.768435
O O5 0.739776 0.816462 0.058354
O O6 0.860593 0.741189 0.136539
O O7 0.888304 0.010988 0.068801
O O8 0.909852 0.784704 0.001320
O O9 0.114205 0.775354 0.477301
O O10 0.130390 0.071455 0.424855
O O11 0.000000 0.000000 0.500000
O O12 0.622772 0.166566 0.867084
O O13 0.460457 0.266924 0.907830
O O14 0.750000 0.500000 0.692375
O O15 0.700663 0.250000 0.750000
O O16 0.732152 0.250000 0.250000
O O17 0.750000 0.000000 0.328434
#
# Coordination Sequence:
#
# PCOD9412175 Si02
#       7
#     8   8   8   8   8   8   8
#     4  11  26  47  75 104 148 196 251 310 381 449
#     4  11  26  44  70 110 149 195 246 306 378 447
#     4  10  22  45  75 107 140 194 248 305 370 443
#     4  11  25  45  75 107 147 197 250 304 379 446
#     4  12  28  50  74 108 147 198 250 308 376 455
#     4  10  25  43  75 104 150 191 247 306 368 454
#     4  11  28  46  73 107 150 196 253 317 384 459
#
# _framework density 22.903670999999999
#
# number of rings (size 3 to 8) (size 9 to 14) (size 15 to 20)
#    0.000    1.143    1.429    2.571   16.000    1.714 
#    0.000    0.000    0.000    0.000    0.000    0.000 
#    0.000    0.000    0.000    0.000    0.000    0.000 
#
# Total GULP energy -311754.927005 kJ/mol
# GULP energy per Si atom -5567.052268 kJ/mol
# Density = 2.285154 g / cm^3
# Si number density = 22.903671 Si / 1000 Ang^3
#
#
#
# Elastic Constant Matrix: (Units=GPa)
#
#
# Indices 1 2 3 4 5 6 
#
# 1 75.3349 44.9036 14.4196 0.0000 0.0000 0.0000
# 2 44.9036 146.2879 53.6663 0.0000 0.0000 0.0000
# 3 14.4196 53.6663 120.0495 0.0000 0.0000 0.0000
# 4 0.0000 0.0000 0.0000 34.8539 0.0000 0.0000
# 5 0.0000 0.0000 0.0000 0.0000 108.8646 0.0000
# 6 0.0000 0.0000 0.0000 0.0000 0.0000 34.8698
#
#
#
# Elastic Compliance Matrix: (Units=1/GPa)
#
#
# Indices 1 2 3 4 5 6 
#
# 1 0.016258 -0.005112 0.000333 0.000000 0.000000 0.000000
# 2 -0.005112 0.009784 -0.003760 0.000000 0.000000 0.000000
# 3 0.000333 -0.003760 0.009971 0.000000 0.000000 0.000000
# 4 0.000000 0.000000 0.000000 0.028691 0.000000 0.000000
# 5 0.000000 0.000000 0.000000 0.000000 0.009186 0.000000
# 6 0.000000 0.000000 0.000000 0.000000 0.000000 0.028678
#
#
# Mechanical properties :
#
#
# Convention : Reuss Voigt Hill
#
# Bulk Modulus (GPa) = 52.81633 63.07235 57.94434
# Shear Modulus (GPa) = 39.69568 50.96318 45.32943
#
# Velocity S-wave (km/s) = 4.16764 4.72222 4.45357
# Velocity P-wave (km/s) = 6.80215 7.57168 7.19721
#
# Compressibility (1/GPa) = 0.01893354
#
# Stress axis : x y z
#
# Youngs Moduli (GPa) = 61.50959 102.20318 100.29330
#
# Poissons Ratio (x) = 0.52250 -0.03336
# Poissons Ratio (y) = 0.31446 0.37709
# Poissons Ratio (z) = -0.02046 0.38428
#
# Static dielectric constant tensor:
#      x y z
#    x 1.900140 0.000000 0.000000 
#    y 0.000000 1.662430 0.000000 
#    z 0.000000 0.000000 1.894350 
# 
# From -- ./inp_files/37317.got.cif
#   From: 2010.05.17/outbox.cif.g08.bks.cpg/sg52_19_cif.got.tgz:37317.got - 2010.06.03 12:15:38.
