data_PCOD9412350
_publ_section_title
;
Structure prediction by ZEFSAII (Michael W. Deem and Ramdas Pophale) SiO2 
 PCOD9412350
Probable space group: P N N A
;
_chemical_formula_sum "Si O2"
_cell_formula_units_Z 56
_cell_length_a 10.045517
_cell_length_b 17.982024
_cell_length_c 13.973564
_cell_angle_alpha 90.000000
_cell_angle_beta 90.000000
_cell_angle_gamma 90.000000
_cell_volume 2524.166824
_symmetry_space_group_name_H-M "P N N A"
_symmetry_group_IT_number 52
_symmetry_cell_setting 'orthorhombic'
loop_
_space_group_symop_operation_xyz
x,y,z
1/2-x,-y,z
x,1/2-y,1/2-z
1/2-x,1/2+y,1/2-z
-x,-y,-z
1/2+x,y,-z
-x,1/2+y,1/2+z
1/2+x,1/2-y,1/2+z
loop_
_atom_site_type_symbol
_atom_site_label
_atom_site_fract_x
_atom_site_fract_y
_atom_site_fract_z
Si Si1 0.025893 0.902117 0.592003
Si Si2 0.999510 0.589103 0.293006
Si Si3 0.402114 0.319647 0.477666
Si Si4 0.348834 0.784397 0.487303
Si Si5 0.398849 0.468362 0.580225
Si Si6 0.256084 0.672232 0.801778
Si Si7 0.879969 0.050578 0.604678
O O1 0.120949 0.870282 0.673045
O O2 0.098897 0.898515 0.488085
O O3 0.892124 0.853172 0.579950
O O4 0.998036 0.989043 0.605105
O O5 0.964012 0.505081 0.325914
O O6 0.861376 0.625810 0.259630
O O7 0.057457 0.635111 0.382384
O O8 0.102253 0.591231 0.205213
O O9 0.274120 0.268316 0.460293
O O10 0.521939 0.267381 0.508753
O O11 0.384580 0.380774 0.561694
O O12 0.322634 0.812763 0.594856
O O13 0.250000 0.500000 0.568542
O O14 0.500000 0.500000 0.500000
O O15 0.230191 0.750000 0.750000
O O16 0.750000 0.000000 0.597014
#
# Coordination Sequence:
#
# PCOD9412350 Si02
#       7
#     8   8   8   8   8   8   8
#     4  11  26  46  72 103 136 188 240 299 355 423
#     4  11  25  44  72 103 144 184 239 299 355 422
#     4  11  24  43  72 107 140 196 226 291 367 435
#     4  12  23  45  74  97 148 184 236 285 362 434
#     4  10  23  42  68 102 143 183 230 285 351 424
#     4  12  25  44  72 106 137 184 242 294 356 431
#     4  11  26  45  70 101 140 188 241 300 357 413
#
# _framework density 22.185538000000001
#
# number of rings (size 3 to 8) (size 9 to 14) (size 15 to 20)
#    0.000    0.857    4.286    2.571    4.000    3.429 
#    2.571    0.000    0.000    0.000    0.000    0.000 
#    0.000    0.000    0.000    0.000    0.000    0.000 
#
# Total GULP energy -313302.395878 kJ/mol
# GULP energy per Si atom -5594.685641 kJ/mol
# Density = 2.213504 g / cm^3
# Si number density = 22.185538 Si / 1000 Ang^3
#
#
#
# Elastic Constant Matrix: (Units=GPa)
#
#
# Indices 1 2 3 4 5 6 
#
# 1 102.5039 21.3259 16.6201 0.0000 0.0000 0.0000
# 2 21.3259 102.6319 30.6587 0.0000 0.0000 0.0000
# 3 16.6201 30.6587 88.2756 0.0000 0.0000 0.0000
# 4 0.0000 0.0000 0.0000 30.9172 0.0000 0.0000
# 5 0.0000 0.0000 0.0000 0.0000 27.8709 0.0000
# 6 0.0000 0.0000 0.0000 0.0000 0.0000 35.6569
#
#
#
# Elastic Compliance Matrix: (Units=1/GPa)
#
#
# Indices 1 2 3 4 5 6 
#
# 1 0.010336 -0.001748 -0.001339 0.000000 0.000000 0.000000
# 2 -0.001748 0.011167 -0.003549 0.000000 0.000000 0.000000
# 3 -0.001339 -0.003549 0.012813 0.000000 0.000000 0.000000
# 4 0.000000 0.000000 0.000000 0.032344 0.000000 0.000000
# 5 0.000000 0.000000 0.000000 0.000000 0.035880 0.000000
# 6 0.000000 0.000000 0.000000 0.000000 0.000000 0.028045
#
#
# Mechanical properties :
#
#
# Convention : Reuss Voigt Hill
#
# Bulk Modulus (GPa) = 47.51930 47.84674 47.68302
# Shear Modulus (GPa) = 33.14053 33.87613 33.50833
#
# Velocity S-wave (km/s) = 3.86915 3.91186 3.89056
# Velocity P-wave (km/s) = 6.43630 6.48205 6.45921
#
# Compressibility (1/GPa) = 0.02104408
#
# Stress axis : x y z
#
# Youngs Moduli (GPa) = 96.74479 89.54960 78.04595
#
# Poissons Ratio (x) = 0.15651 0.10451
# Poissons Ratio (y) = 0.16909 0.27701
# Poissons Ratio (z) = 0.12955 0.31784
#
# Static dielectric constant tensor:
#      x y z
#    x 1.800470 0.000000 0.000000 
#    y 0.000000 1.829570 0.000000 
#    z 0.000000 0.000000 1.823050 
# 
# From -- ./inp_files/24953.got.cif
#   From: 2010.05.17/outbox.cif.g08.bks.cpg/sg52_13_cif.got.tgz:24953.got - 2010.06.03 12:15:38.
