data_PCOD9412635
_publ_section_title
;
Structure prediction by ZEFSAII (Michael W. Deem and Ramdas Pophale) SiO2 
 PCOD9412635
Probable space group: P N N A
;
_chemical_formula_sum "Si O2"
_cell_formula_units_Z 40
_cell_length_a 12.422414
_cell_length_b 5.240437
_cell_length_c 29.073239
_cell_angle_alpha 90.000000
_cell_angle_beta 90.000000
_cell_angle_gamma 90.000000
_cell_volume 1892.635237
_symmetry_space_group_name_H-M "P N N A"
_symmetry_group_IT_number 52
_symmetry_cell_setting 'orthorhombic'
loop_
_space_group_symop_operation_xyz
x,y,z
1/2-x,-y,z
x,1/2-y,1/2-z
1/2-x,1/2+y,1/2-z
-x,-y,-z
1/2+x,y,-z
-x,1/2+y,1/2+z
1/2+x,1/2-y,1/2+z
loop_
_atom_site_type_symbol
_atom_site_label
_atom_site_fract_x
_atom_site_fract_y
_atom_site_fract_z
Si Si1 0.851384 0.627881 0.668623
Si Si2 0.995323 0.750000 0.750000
Si Si3 0.020295 0.975086 0.446096
Si Si4 0.460025 0.492792 0.608205
Si Si5 0.750000 0.500000 0.330675
Si Si6 0.357428 0.750000 0.750000
Si Si7 0.250000 0.500000 0.093735
O O1 0.750000 0.500000 0.693365
O O2 0.920253 0.781269 0.705443
O O3 0.794964 0.784985 0.627970
O O4 0.941221 0.454864 0.643623
O O5 0.068257 0.499233 0.747865
O O6 0.954874 0.738563 0.424463
O O7 0.147019 0.922653 0.436438
O O8 0.000000 0.000000 0.500000
O O9 0.988071 0.237565 0.420336
O O10 0.352531 0.447364 0.637395
O O11 0.715264 0.276018 0.295539
#
# Coordination Sequence:
#
# PCOD9412635 Si02
#       7
#     8   4   8   8   4   4   4
#     4  11  24  45  67 104 142 187 235 289 359 421
#     4  12  29  43  74 104 146 189 259 294 344 442
#     4  11  25  47  73 107 138 178 237 297 366 440
#     4  11  26  45  72 103 137 187 235 287 362 433
#     4  12  28  48  74  99 154 193 246 302 356 426
#     4  12  29  49  68 108 148 201 245 304 354 414
#     4  10  24  42  72  97 144 183 216 296 366 412
#
# _framework density 21.134550999999998
#
# number of rings (size 3 to 8) (size 9 to 14) (size 15 to 20)
#    0.000    0.800    4.000    1.200    9.800    4.000 
#    0.000    0.000    0.000    0.000    0.000    0.000 
#    0.000    0.000    0.000    0.000    0.000    0.000 
#
# Total GULP energy -223595.703612 kJ/mol
# GULP energy per Si atom -5589.892590 kJ/mol
# Density = 2.108645 g / cm^3
# Si number density = 21.134551 Si / 1000 Ang^3
#
#
#
# Elastic Constant Matrix: (Units=GPa)
#
#
# Indices 1 2 3 4 5 6 
#
# 1 166.1002 50.1614 78.4433 0.0000 0.0000 0.0000
# 2 50.1614 119.3733 43.0230 0.0000 0.0000 0.0000
# 3 78.4433 43.0230 142.0767 0.0000 0.0000 0.0000
# 4 0.0000 0.0000 0.0000 21.5194 0.0000 0.0000
# 5 0.0000 0.0000 0.0000 0.0000 39.6170 0.0000
# 6 0.0000 0.0000 0.0000 0.0000 0.0000 21.0823
#
#
#
# Elastic Compliance Matrix: (Units=1/GPa)
#
#
# Indices 1 2 3 4 5 6 
#
# 1 0.008603 -0.002136 -0.004103 0.000000 0.000000 0.000000
# 2 -0.002136 0.009934 -0.001829 0.000000 0.000000 0.000000
# 3 -0.004103 -0.001829 0.009858 0.000000 0.000000 0.000000
# 4 0.000000 0.000000 0.000000 0.046470 0.000000 0.000000
# 5 0.000000 0.000000 0.000000 0.000000 0.025242 0.000000
# 6 0.000000 0.000000 0.000000 0.000000 0.000000 0.047433
#
#
# Mechanical properties :
#
#
# Convention : Reuss Voigt Hill
#
# Bulk Modulus (GPa) = 81.57552 85.64505 83.61028
# Shear Modulus (GPa) = 29.80415 33.50525 31.65470
#
# Velocity S-wave (km/s) = 3.75935 3.98594 3.87430
# Velocity P-wave (km/s) = 7.58456 7.86100 7.72402
#
# Compressibility (1/GPa) = 0.01225858
#
# Stress axis : x y z
#
# Youngs Moduli (GPa) = 116.23267 100.66606 101.44436
#
# Poissons Ratio (x) = 0.21506 0.41625
# Poissons Ratio (y) = 0.24832 0.18550
# Poissons Ratio (z) = 0.47692 0.18408
#
# Static dielectric constant tensor:
#      x y z
#    x 1.781250 0.000000 0.000000 
#    y 0.000000 1.782540 0.000000 
#    z 0.000000 0.000000 1.748430 
# 
# From -- ./inp_files/42602.got.cif
#   From: 2010.05.17/outbox.cif.g08.bks.cpg/sg52_22_cif.got.tgz:42602.got - 2010.06.03 12:15:38.
