data_PCOD9412185
_publ_section_title
;
Structure prediction by ZEFSAII (Michael W. Deem and Ramdas Pophale) SiO2 
 PCOD9412185
Probable space group: P N N A
;
_chemical_formula_sum "Si O2"
_cell_formula_units_Z 40
_cell_length_a 24.635042
_cell_length_b 10.326108
_cell_length_c 8.018197
_cell_angle_alpha 90.000000
_cell_angle_beta 90.000000
_cell_angle_gamma 90.000000
_cell_volume 2039.701862
_symmetry_space_group_name_H-M "P N N A"
_symmetry_group_IT_number 52
_symmetry_cell_setting 'orthorhombic'
loop_
_space_group_symop_operation_xyz
x,y,z
1/2-x,-y,z
x,1/2-y,1/2-z
1/2-x,1/2+y,1/2-z
-x,-y,-z
1/2+x,y,-z
-x,1/2+y,1/2+z
1/2+x,1/2-y,1/2+z
loop_
_atom_site_type_symbol
_atom_site_label
_atom_site_fract_x
_atom_site_fract_y
_atom_site_fract_z
Si Si1 0.863134 0.069965 0.036588
Si Si2 0.115440 0.226091 0.937892
Si Si3 0.750000 0.500000 0.595759
Si Si4 0.997005 0.352927 0.954955
Si Si5 0.074054 0.750000 0.750000
Si Si6 0.307772 0.750000 0.250000
Si Si7 0.909255 0.250000 0.750000
O O1 0.886952 0.130961 0.204969
O O2 0.889763 0.927552 0.022886
O O3 0.875526 0.176201 0.891625
O O4 0.799459 0.045310 0.020215
O O5 0.138371 0.250000 0.750000
O O6 0.056351 0.292831 0.933944
O O7 0.153928 0.276709 0.087904
O O8 0.727625 0.377806 0.703802
O O9 0.953650 0.354835 0.806192
O O10 0.000000 0.500000 0.000000
O O11 0.965294 0.273957 0.096056
#
# Coordination Sequence:
#
# PCOD9412185 Si02
#       7
#     8   8   4   8   4   4   4
#     4  10  23  44  65  92 132 168 225 277 329 395
#     4  11  23  43  66 100 134 174 223 267 330 410
#     4  10  22  46  68  92 126 174 226 276 348 374
#     4  11  23  36  61  95 130 173 207 256 332 396
#     4  10  23  38  62  94 128 170 215 270 322 402
#     4  10  24  44  72  94 134 178 222 290 332 404
#     4  10  23  38  64  92 132 168 205 270 316 400
#
# _framework density 19.610710000000001
#
# number of rings (size 3 to 8) (size 9 to 14) (size 15 to 20)
#    0.000    1.600    1.000    2.400    8.400    1.600 
#   10.800    1.000    0.000    0.000    0.000    0.000 
#    0.000    0.000    0.000    0.000    0.000    0.000 
#
# Total GULP energy -222776.349506 kJ/mol
# GULP energy per Si atom -5569.408738 kJ/mol
# Density = 1.956607 g / cm^3
# Si number density = 19.610710 Si / 1000 Ang^3
#
#
#
# Elastic Constant Matrix: (Units=GPa)
#
#
# Indices 1 2 3 4 5 6 
#
# 1 118.6912 31.3024 29.1592 0.0000 0.0000 0.0000
# 2 31.3024 75.4506 -5.4250 0.0000 0.0000 0.0000
# 3 29.1592 -5.4250 66.8618 0.0000 0.0000 0.0000
# 4 0.0000 0.0000 0.0000 32.8951 0.0000 0.0000
# 5 0.0000 0.0000 0.0000 0.0000 49.6952 0.0000
# 6 0.0000 0.0000 0.0000 0.0000 0.0000 -39.7837
#
#
#
# Elastic Compliance Matrix: (Units=1/GPa)
#
#
# Indices 1 2 3 4 5 6 
#
# 1 0.011006 -0.004940 -0.005200 0.000000 0.000000 0.000000
# 2 -0.004940 0.015549 0.003416 0.000000 0.000000 0.000000
# 3 -0.005200 0.003416 0.017501 0.000000 0.000000 0.000000
# 4 0.000000 0.000000 0.000000 0.030400 0.000000 0.000000
# 5 0.000000 0.000000 0.000000 0.000000 0.020123 0.000000
# 6 0.000000 0.000000 0.000000 0.000000 0.000000 -0.025136
#
#
# Mechanical properties :
#
#
# Convention : Reuss Voigt Hill
#
# Bulk Modulus (GPa) = 32.67241 41.23075 36.95158
# Shear Modulus (GPa) = 53.70958 22.29247 38.00103
#
# Velocity S-wave (km/s) = 5.23902 3.37523 4.40679
# Velocity P-wave (km/s) = 7.30021 6.02161 6.69152
#
# Compressibility (1/GPa) = 0.03060686
#
# Stress axis : x y z
#
# Youngs Moduli (GPa) = 90.86260 64.31398 57.13836
#
# Poissons Ratio (x) = 0.31770 0.29715
# Poissons Ratio (y) = 0.44885 -0.19518
# Poissons Ratio (z) = 0.47253 -0.21969
#
# Static dielectric constant tensor:
#      x y z
#    x 1.470840 0.000000 0.000000 
#    y 0.000000 1.660750 0.000000 
#    z 0.000000 0.000000 1.718810 
# 
# From -- ./inp_files/13225.got.cif
#   From: 2010.05.17/outbox.cif.g08.bks.cpg/sg52_7_cif.got.tgz:13225.got - 2010.06.03 12:15:38.
