data_PCOD9412365
_publ_section_title
;
Structure prediction by ZEFSAII (Michael W. Deem and Ramdas Pophale) SiO2 
 PCOD9412365
Probable space group: P N N A
;
_chemical_formula_sum "Si O2"
_cell_formula_units_Z 56
_cell_length_a 13.510943
_cell_length_b 5.381960
_cell_length_c 32.132535
_cell_angle_alpha 90.000000
_cell_angle_beta 90.000000
_cell_angle_gamma 90.000000
_cell_volume 2336.528683
_symmetry_space_group_name_H-M "P N N A"
_symmetry_group_IT_number 52
_symmetry_cell_setting 'orthorhombic'
loop_
_space_group_symop_operation_xyz
x,y,z
1/2-x,-y,z
x,1/2-y,1/2-z
1/2-x,1/2+y,1/2-z
-x,-y,-z
1/2+x,y,-z
-x,1/2+y,1/2+z
1/2+x,1/2-y,1/2+z
loop_
_atom_site_type_symbol
_atom_site_label
_atom_site_fract_x
_atom_site_fract_y
_atom_site_fract_z
Si Si1 0.538377 0.613428 0.637200
Si Si2 0.686459 0.757336 0.579164
Si Si3 0.867016 0.519199 0.504157
Si Si4 0.368523 0.513680 0.871124
Si Si5 0.657158 0.646004 0.293838
Si Si6 0.991248 0.264487 0.437201
Si Si7 0.940461 0.001177 0.773029
O O1 0.613813 0.809115 0.617313
O O2 0.534305 0.397130 0.603479
O O3 0.586830 0.515495 0.679024
O O4 0.429667 0.736938 0.640996
O O5 0.750000 0.500000 0.585511
O O6 0.620596 0.697335 0.538672
O O7 0.750000 0.000000 0.572514
O O8 0.750000 0.500000 0.497185
O O9 0.919183 0.452344 0.461678
O O10 0.920392 0.749866 0.528056
O O11 0.250000 0.500000 0.877835
O O12 0.380180 0.336701 0.829784
O O13 0.421330 0.438304 0.914960
O O14 0.750000 0.500000 0.312612
O O15 0.699248 0.750000 0.250000
O O16 0.560456 0.505027 0.276920
O O17 0.908823 0.250000 0.750000
O O18 0.910069 0.750000 0.750000
#
# Coordination Sequence:
#
# PCOD9412365 Si02
#       7
#     8   8   8   8   8   8   8
#     4  11  24  43  68  97 143 179 240 295 349 433
#     4  10  24  44  75 106 135 181 236 299 362 423
#     4   9  21  42  70  94 137 180 236 296 358 430
#     4  12  26  38  63  97 137 191 231 288 352 420
#     4  11  21  37  58  88 132 177 240 283 337 403
#     4  10  23  43  62 100 133 184 235 294 362 421
#     4  11  23  39  65  97 133 183 227 281 348 410
#
# _framework density 23.967177
#
# number of rings (size 3 to 8) (size 9 to 14) (size 15 to 20)
#    0.000    1.429    1.429    3.429    8.000    0.571 
#    2.571    2.143    0.000    1.714    0.000    0.000 
#    0.000    0.000    0.000    0.000    0.000    0.000 
#
# Total GULP energy -312225.453021 kJ/mol
# GULP energy per Si atom -5575.454518 kJ/mol
# Density = 2.391263 g / cm^3
# Si number density = 23.967177 Si / 1000 Ang^3
#
#
#
# Elastic Constant Matrix: (Units=GPa)
#
#
# Indices 1 2 3 4 5 6 
#
# 1 86.3191 15.2801 19.6318 0.0000 0.0000 0.0000
# 2 15.2801 88.6851 30.8317 0.0000 0.0000 0.0000
# 3 19.6318 30.8317 142.6181 0.0000 0.0000 0.0000
# 4 0.0000 0.0000 0.0000 9.9405 0.0000 0.0000
# 5 0.0000 0.0000 0.0000 0.0000 12.7304 0.0000
# 6 0.0000 0.0000 0.0000 0.0000 0.0000 29.3813
#
#
#
# Elastic Compliance Matrix: (Units=1/GPa)
#
#
# Indices 1 2 3 4 5 6 
#
# 1 0.012176 -0.001638 -0.001322 0.000000 0.000000 0.000000
# 2 -0.001638 0.012413 -0.002458 0.000000 0.000000 0.000000
# 3 -0.001322 -0.002458 0.007725 0.000000 0.000000 0.000000
# 4 0.000000 0.000000 0.000000 0.100599 0.000000 0.000000
# 5 0.000000 0.000000 0.000000 0.000000 0.078552 0.000000
# 6 0.000000 0.000000 0.000000 0.000000 0.000000 0.034035
#
#
# Mechanical properties :
#
#
# Convention : Reuss Voigt Hill
#
# Bulk Modulus (GPa) = 46.56093 49.90105 48.23099
# Shear Modulus (GPa) = 18.97571 27.20235 23.08903
#
# Velocity S-wave (km/s) = 2.81684 3.37261 3.10717
# Velocity P-wave (km/s) = 5.48166 6.00264 5.74806
#
# Compressibility (1/GPa) = 0.02147723
#
# Stress axis : x y z
#
# Youngs Moduli (GPa) = 82.13184 80.56324 129.44915
#
# Poissons Ratio (x) = 0.13198 0.17111
# Poissons Ratio (y) = 0.13455 0.31817
# Poissons Ratio (z) = 0.10856 0.19802
#
# Static dielectric constant tensor:
#      x y z
#    x 2.002780 0.000000 0.000000 
#    y 0.000000 2.058400 0.000000 
#    z 0.000000 0.000000 1.932030 
# 
# From -- ./inp_files/44982.got.cif
#   From: 2010.05.17/outbox.cif.g08.bks.cpg/sg52_23_cif.got.tgz:44982.got - 2010.06.03 12:15:38.
