data_PCOD9412856
_publ_section_title
;
Structure prediction by ZEFSAII (Michael W. Deem and Ramdas Pophale) SiO2 
 PCOD9412856
Probable space group: P N N A
;
_chemical_formula_sum "Si O2"
_cell_formula_units_Z 32
_cell_length_a 11.702371
_cell_length_b 17.402317
_cell_length_c 7.399477
_cell_angle_alpha 90.000000
_cell_angle_beta 90.000000
_cell_angle_gamma 90.000000
_cell_volume 1506.891428
_symmetry_space_group_name_H-M "P N N A"
_symmetry_group_IT_number 52
_symmetry_cell_setting 'orthorhombic'
loop_
_space_group_symop_operation_xyz
x,y,z
1/2-x,-y,z
x,1/2-y,1/2-z
1/2-x,1/2+y,1/2-z
-x,-y,-z
1/2+x,y,-z
-x,1/2+y,1/2+z
1/2+x,1/2-y,1/2+z
loop_
_atom_site_type_symbol
_atom_site_label
_atom_site_fract_x
_atom_site_fract_y
_atom_site_fract_z
Si Si1 0.959125 0.931664 0.374201
Si Si2 0.426400 0.666593 0.209819
Si Si3 0.413271 0.378064 0.475355
Si Si4 0.750000 0.500000 0.335182
Si Si5 0.301964 0.250000 0.250000
O O1 0.838595 0.954849 0.290622
O O2 0.956572 0.861339 0.511981
O O3 0.040382 0.914768 0.207892
O O4 0.000000 0.000000 0.500000
O O5 0.476075 0.750000 0.250000
O O6 0.484680 0.619722 0.373757
O O7 0.289386 0.681336 0.206156
O O8 0.314880 0.434023 0.551102
O O9 0.372740 0.292040 0.410609
#
# Coordination Sequence:
#
# PCOD9412856 Si02
#       5
#     8   8   8   4   4
#     4  12  27  45  73 107 143 188 242 298 357 438
#     4  10  25  47  70 106 144 187 243 296 356 435
#     4  12  25  49  70 110 143 189 240 304 359 429
#     4  12  28  44  80 102 150 196 236 304 368 426
#     4  10  26  44  78  98 144 194 232 298 360 430
#
# _framework density 21.235768
#
# number of rings (size 3 to 8) (size 9 to 14) (size 15 to 20)
#    0.750    0.000    2.500    3.750    7.000    2.000 
#    0.000    0.000    0.000    0.000    0.000    0.000 
#    0.000    0.000    0.000    0.000    0.000    0.000 
#
# Total GULP energy -178366.888732 kJ/mol
# GULP energy per Si atom -5573.965273 kJ/mol
# Density = 2.118743 g / cm^3
# Si number density = 21.235768 Si / 1000 Ang^3
#
#
#
# Elastic Constant Matrix: (Units=GPa)
#
#
# Indices 1 2 3 4 5 6 
#
# 1 112.0301 55.8032 88.9405 0.0000 0.0000 0.0000
# 2 55.8032 100.6323 72.3718 0.0000 0.0000 0.0000
# 3 88.9405 72.3718 195.9402 0.0000 0.0000 0.0000
# 4 0.0000 0.0000 0.0000 44.1625 0.0000 0.0000
# 5 0.0000 0.0000 0.0000 0.0000 2.2516 0.0000
# 6 0.0000 0.0000 0.0000 0.0000 0.0000 38.9933
#
#
#
# Elastic Compliance Matrix: (Units=1/GPa)
#
#
# Indices 1 2 3 4 5 6 
#
# 1 0.015497 -0.004813 -0.005256 0.000000 0.000000 0.000000
# 2 -0.004813 0.015026 -0.003365 0.000000 0.000000 0.000000
# 3 -0.005256 -0.003365 0.008733 0.000000 0.000000 0.000000
# 4 0.000000 0.000000 0.000000 0.022644 0.000000 0.000000
# 5 0.000000 0.000000 0.000000 0.000000 0.444122 0.000000
# 6 0.000000 0.000000 0.000000 0.000000 0.000000 0.025645
#
#
# Mechanical properties :
#
#
# Convention : Reuss Voigt Hill
#
# Bulk Modulus (GPa) = 80.73667 93.64818 87.19243
# Shear Modulus (GPa) = 8.88628 29.84729 19.36679
#
# Velocity S-wave (km/s) = 2.04784 3.75309 3.02319
# Velocity P-wave (km/s) = 6.61009 7.93574 7.30306
#
# Compressibility (1/GPa) = 0.01238595
#
# Stress axis : x y z
#
# Youngs Moduli (GPa) = 64.52989 66.54961 114.51295
#
# Poissons Ratio (x) = 0.32030 0.60194
# Poissons Ratio (y) = 0.31058 0.38538
# Poissons Ratio (z) = 0.33920 0.22397
#
# Static dielectric constant tensor:
#      x y z
#    x 1.800810 0.000000 0.000000 
#    y 0.000000 1.863740 0.000000 
#    z 0.000000 0.000000 2.147180 
# 
# From -- ./inp_files/1112.got.cif
#   From: 2010.05.17/outbox.cif.g08.bks.cpg/sg52_1_cif.got.tgz:1112.got - 2010.06.03 12:15:38.
