data_PCOD9412340
_publ_section_title
;
Structure prediction by ZEFSAII (Michael W. Deem and Ramdas Pophale) SiO2 
 PCOD9412340
Probable space group: P N N A
;
_chemical_formula_sum "Si O2"
_cell_formula_units_Z 64
_cell_length_a 7.618937
_cell_length_b 25.031340
_cell_length_c 13.508507
_cell_angle_alpha 90.000000
_cell_angle_beta 90.000000
_cell_angle_gamma 90.000000
_cell_volume 2576.237122
_symmetry_space_group_name_H-M "P N N A"
_symmetry_group_IT_number 52
_symmetry_cell_setting 'orthorhombic'
loop_
_space_group_symop_operation_xyz
x,y,z
1/2-x,-y,z
x,1/2-y,1/2-z
1/2-x,1/2+y,1/2-z
-x,-y,-z
1/2+x,y,-z
-x,1/2+y,1/2+z
1/2+x,1/2-y,1/2+z
loop_
_atom_site_type_symbol
_atom_site_label
_atom_site_fract_x
_atom_site_fract_y
_atom_site_fract_z
Si Si1 0.321780 0.823698 0.000128
Si Si2 0.539263 0.991410 0.184740
Si Si3 0.058097 0.140890 0.662442
Si Si4 0.432250 0.198572 0.678483
Si Si5 0.538436 0.898737 0.876903
Si Si6 0.940213 0.524276 0.102106
Si Si7 0.052091 0.761896 0.452392
Si Si8 0.423102 0.629012 0.340964
O O1 0.210613 0.778798 0.061631
O O2 0.505477 0.833621 0.073500
O O3 0.368949 0.875373 0.930423
O O4 0.390669 0.776566 0.922624
O O5 0.492927 0.930541 0.162387
O O6 0.750000 0.000000 0.178536
O O7 0.455940 0.037316 0.115745
O O8 0.469492 0.004872 0.295837
O O9 0.984817 0.117961 0.764131
O O10 0.940766 0.187133 0.617267
O O11 0.250423 0.165350 0.678301
O O12 0.065259 0.088061 0.595067
O O13 0.424934 0.250000 0.750000
O O14 0.466713 0.214276 0.564194
O O15 0.565114 0.157786 0.736526
O O16 0.732127 0.873990 0.900647
O O17 0.750000 0.500000 0.117297
O O18 0.000000 0.500000 0.000000
#
# Coordination Sequence:
#
# PCOD9412340 Si02
#       8
#     8   8   8   8   8   8   8   8
#     4  12  26  47  69 104 144 187 238 298 356 434
#     4  10  24  47  71 101 135 182 238 296 362 436
#     4  11  27  43  70 102 141 191 239 296 352 433
#     4  12  25  43  70 100 139 190 235 289 360 423
#     4  11  26  46  71 104 140 181 242 295 366 421
#     4  10  23  42  66  98 136 182 234 291 355 418
#     4  12  26  45  68 101 144 187 242 291 357 431
#     4  12  26  43  75 102 142 183 234 300 361 432
#
# _framework density 24.842433
#
# number of rings (size 3 to 8) (size 9 to 14) (size 15 to 20)
#    0.000    0.750    3.750    3.375    7.000    2.500 
#    0.000    0.000    0.000    0.000    0.000    0.000 
#    0.000    0.000    0.000    0.000    0.000    0.000 
#
# Total GULP energy -356850.131647 kJ/mol
# GULP energy per Si atom -5575.783307 kJ/mol
# Density = 2.478589 g / cm^3
# Si number density = 24.842433 Si / 1000 Ang^3
#
#
#
# Elastic Constant Matrix: (Units=GPa)
#
#
# Indices 1 2 3 4 5 6 
#
# 1 45.3724 33.8746 1.0736 0.0000 0.0000 0.0000
# 2 33.8746 232.2922 58.3138 0.0000 0.0000 0.0000
# 3 1.0736 58.3138 95.4218 0.0000 0.0000 0.0000
# 4 0.0000 0.0000 0.0000 45.7264 0.0000 0.0000
# 5 0.0000 0.0000 0.0000 0.0000 40.1546 0.0000
# 6 0.0000 0.0000 0.0000 0.0000 0.0000 27.4976
#
#
#
# Elastic Compliance Matrix: (Units=1/GPa)
#
#
# Indices 1 2 3 4 5 6 
#
# 1 0.025158 -0.004250 0.002314 0.000000 0.000000 0.000000
# 2 -0.004250 0.005803 -0.003498 0.000000 0.000000 0.000000
# 3 0.002314 -0.003498 0.012592 0.000000 0.000000 0.000000
# 4 0.000000 0.000000 0.000000 0.021869 0.000000 0.000000
# 5 0.000000 0.000000 0.000000 0.000000 0.024904 0.000000
# 6 0.000000 0.000000 0.000000 0.000000 0.000000 0.036367
#
#
# Mechanical properties :
#
#
# Convention : Reuss Voigt Hill
#
# Bulk Modulus (GPa) = 30.59580 62.17894 46.38737
# Shear Modulus (GPa) = 33.68027 41.33068 37.50547
#
# Velocity S-wave (km/s) = 3.68605 4.08329 3.88975
# Velocity P-wave (km/s) = 5.51894 6.87857 6.23592
#
# Compressibility (1/GPa) = 0.03268422
#
# Stress axis : x y z
#
# Youngs Moduli (GPa) = 39.74913 172.32887 79.41744
#
# Poissons Ratio (x) = 0.73233 -0.18377
# Poissons Ratio (y) = 0.16892 0.27783
# Poissons Ratio (z) = -0.09198 0.60288
#
# Static dielectric constant tensor:
#      x y z
#    x 2.366400 0.000000 0.000000 
#    y 0.000000 1.922780 0.000000 
#    z 0.000000 0.000000 2.135520 
# 
# From -- ./inp_files/25123.got.cif
#   From: 2010.05.17/outbox.cif.g08.bks.cpg/sg52_13_cif.got.tgz:25123.got - 2010.06.03 12:15:38.
