data_PCOD9412110
_publ_section_title
;
Structure prediction by ZEFSAII (Michael W. Deem and Ramdas Pophale) SiO2 
 PCOD9412110
Probable space group: P N N A
;
_chemical_formula_sum "Si O2"
_cell_formula_units_Z 32
_cell_length_a 32.890312
_cell_length_b 7.319018
_cell_length_c 5.637369
_cell_angle_alpha 90.000000
_cell_angle_beta 90.000000
_cell_angle_gamma 90.000000
_cell_volume 1357.054444
_symmetry_space_group_name_H-M "P N N A"
_symmetry_group_IT_number 52
_symmetry_cell_setting 'orthorhombic'
loop_
_space_group_symop_operation_xyz
x,y,z
1/2-x,-y,z
x,1/2-y,1/2-z
1/2-x,1/2+y,1/2-z
-x,-y,-z
1/2+x,y,-z
-x,1/2+y,1/2+z
1/2+x,1/2-y,1/2+z
loop_
_atom_site_type_symbol
_atom_site_label
_atom_site_fract_x
_atom_site_fract_y
_atom_site_fract_z
Si Si1 0.168160 0.056713 0.390987
Si Si2 0.451996 0.030943 0.993599
Si Si3 0.715990 0.250000 0.250000
Si Si4 0.750000 0.500000 0.625800
Si Si5 0.420421 0.448301 0.012647
O O1 0.159164 0.250000 0.250000
O O2 0.186243 0.097883 0.649819
O O3 0.207381 0.976893 0.258719
O O4 0.127650 0.943549 0.434859
O O5 0.432131 0.965695 0.743585
O O6 0.439796 0.245897 0.001489
O O7 0.437071 0.957685 0.248504
O O8 0.500000 0.000000 0.000000
O O9 0.742766 0.325288 0.460654
#
# Coordination Sequence:
#
# PCOD9412110 Si02
#       5
#     8   8   4   4   8
#     4  10  23  44  65 102 144 185 241 289 358 425
#     4  10  22  46  69  99 136 176 234 295 365 430
#     4  10  22  44  66  98 136 198 234 298 354 426
#     4  10  22  44  70 102 140 194 236 296 360 430
#     4  10  23  44  68 104 135 183 230 294 355 431
#
# _framework density 23.580483999999998
#
# number of rings (size 3 to 8) (size 9 to 14) (size 15 to 20)
#    0.000    2.000    0.000    1.500    7.000    0.000 
#   36.000    0.000    0.000    0.000    0.000    0.000 
#    0.000    0.000    0.000    0.000    0.000    0.000 
#
# Total GULP energy -178604.746225 kJ/mol
# GULP energy per Si atom -5581.398320 kJ/mol
# Density = 2.352681 g / cm^3
# Si number density = 23.580484 Si / 1000 Ang^3
#
#
#
# Elastic Constant Matrix: (Units=GPa)
#
#
# Indices 1 2 3 4 5 6 
#
# 1 253.1997 55.1887 87.1302 0.0000 0.0000 0.0000
# 2 55.1887 90.2768 10.4958 0.0000 0.0000 0.0000
# 3 87.1302 10.4958 207.8668 0.0000 0.0000 0.0000
# 4 0.0000 0.0000 0.0000 0.7199 0.0000 0.0000
# 5 0.0000 0.0000 0.0000 0.0000 -9.7365 0.0000
# 6 0.0000 0.0000 0.0000 0.0000 0.0000 44.5450
#
#
#
# Elastic Compliance Matrix: (Units=1/GPa)
#
#
# Indices 1 2 3 4 5 6 
#
# 1 0.005321 -0.003011 -0.002078 0.000000 0.000000 0.000000
# 2 -0.003011 0.012847 0.000614 0.000000 0.000000 0.000000
# 3 -0.002078 0.000614 0.005651 0.000000 0.000000 0.000000
# 4 0.000000 0.000000 0.000000 1.389131 0.000000 0.000000
# 5 0.000000 0.000000 0.000000 0.000000 -0.102706 0.000000
# 6 0.000000 0.000000 0.000000 0.000000 0.000000 0.022449
#
#
# Mechanical properties :
#
#
# Convention : Reuss Voigt Hill
#
# Bulk Modulus (GPa) = 67.26544 95.21918 81.24231
# Shear Modulus (GPa) = 3.71305 33.67425 18.69365
#
# Velocity S-wave (km/s) = 1.25620 3.78306 2.81865
# Velocity P-wave (km/s) = 5.54003 7.71688 6.71722
#
# Compressibility (1/GPa) = 0.01486648
#
# Stress axis : x y z
#
# Youngs Moduli (GPa) = 187.93542 77.84182 176.96150
#
# Poissons Ratio (x) = 0.23440 0.36778
# Poissons Ratio (y) = 0.56592 -0.10857
# Poissons Ratio (z) = 0.39059 -0.04776
#
# Static dielectric constant tensor:
#      x y z
#    x 1.882390 0.000000 0.000000 
#    y 0.000000 1.948920 0.000000 
#    z 0.000000 0.000000 1.984910 
# 
# From -- ./inp_files/6145.got.cif
#   From: 2010.05.17/outbox.cif.g08.bks.cpg/sg52_4_cif.got.tgz:6145.got - 2010.06.03 12:15:38.
