data_PCOD9412945
_publ_section_title
;
Structure prediction by ZEFSAII (Michael W. Deem and Ramdas Pophale) SiO2 
 PCOD9412945
Probable space group: P N N A
;
_chemical_formula_sum "Si O2"
_cell_formula_units_Z 36
_cell_length_a 19.949370
_cell_length_b 15.228637
_cell_length_c 5.056327
_cell_angle_alpha 90.000000
_cell_angle_beta 90.000000
_cell_angle_gamma 90.000000
_cell_volume 1536.120810
_symmetry_space_group_name_H-M "P N N A"
_symmetry_group_IT_number 52
_symmetry_cell_setting 'orthorhombic'
loop_
_space_group_symop_operation_xyz
x,y,z
1/2-x,-y,z
x,1/2-y,1/2-z
1/2-x,1/2+y,1/2-z
-x,-y,-z
1/2+x,y,-z
-x,1/2+y,1/2+z
1/2+x,1/2-y,1/2+z
loop_
_atom_site_type_symbol
_atom_site_label
_atom_site_fract_x
_atom_site_fract_y
_atom_site_fract_z
Si Si1 0.967714 0.250000 0.750000
Si Si2 0.547488 0.073906 0.363049
Si Si3 0.250000 0.000000 0.418741
Si Si4 0.626811 0.750000 0.250000
Si Si5 0.863615 0.559673 0.644538
Si Si6 0.241462 0.344475 0.675050
O O1 0.920735 0.235468 0.497214
O O2 0.011257 0.160465 0.752626
O O3 0.593331 0.097528 0.615130
O O4 0.500000 0.000000 0.500000
O O5 0.408565 0.960478 0.886970
O O6 0.317794 0.019793 0.254690
O O7 0.303023 0.875624 0.067137
O O8 0.679216 0.674265 0.336985
O O9 0.766505 0.580483 0.109210
O O10 0.212474 0.250000 0.750000
#
# Coordination Sequence:
#
# PCOD9412945 Si02
#       6
#     4   8   4   4   8   8
#     4  12  28  51  76 109 154 216 254 310 376 472
#     4  12  30  49  76 109 157 213 256 313 375 471
#     4  12  26  46  80 118 150 198 250 332 394 452
#     4  10  28  49  80 109 158 190 268 312 394 460
#     4  12  27  50  79 112 155 195 264 315 391 461
#     4  10  27  48  79 117 151 198 245 338 392 449
#
# _framework density 23.435656999999999
#
# number of rings (size 3 to 8) (size 9 to 14) (size 15 to 20)
#    0.667    0.000    2.222    2.667    7.778    4.444 
#    0.000    0.000    0.000    0.000    0.000    0.000 
#    0.000    0.000    0.000    0.000    0.000    0.000 
#
# Total GULP energy -201020.592198 kJ/mol
# GULP energy per Si atom -5583.905339 kJ/mol
# Density = 2.338232 g / cm^3
# Si number density = 23.435657 Si / 1000 Ang^3
#
#
#
# Elastic Constant Matrix: (Units=GPa)
#
#
# Indices 1 2 3 4 5 6 
#
# 1 131.5186 37.4517 46.5609 0.0000 0.0000 0.0000
# 2 37.4517 106.5520 19.2855 0.0000 0.0000 0.0000
# 3 46.5609 19.2855 105.6908 0.0000 0.0000 0.0000
# 4 0.0000 0.0000 0.0000 14.4450 0.0000 0.0000
# 5 0.0000 0.0000 0.0000 0.0000 83.3254 0.0000
# 6 0.0000 0.0000 0.0000 0.0000 0.0000 39.5013
#
#
#
# Elastic Compliance Matrix: (Units=1/GPa)
#
#
# Indices 1 2 3 4 5 6 
#
# 1 0.009721 -0.002732 -0.003784 0.000000 0.000000 0.000000
# 2 -0.002732 0.010473 -0.000708 0.000000 0.000000 0.000000
# 3 -0.003784 -0.000708 0.011258 0.000000 0.000000 0.000000
# 4 0.000000 0.000000 0.000000 0.069228 0.000000 0.000000
# 5 0.000000 0.000000 0.000000 0.000000 0.012001 0.000000
# 6 0.000000 0.000000 0.000000 0.000000 0.000000 0.025316
#
#
# Mechanical properties :
#
#
# Convention : Reuss Voigt Hill
#
# Bulk Modulus (GPa) = 58.80586 61.15086 59.97836
# Shear Modulus (GPa) = 31.62306 43.48523 37.55414
#
# Velocity S-wave (km/s) = 3.67734 4.31224 4.00739
# Velocity P-wave (km/s) = 6.57095 7.13748 6.86007
#
# Compressibility (1/GPa) = 0.01700511
#
# Stress axis : x y z
#
# Youngs Moduli (GPa) = 102.86924 95.47993 88.82831
#
# Poissons Ratio (x) = 0.26085 0.33613
# Poissons Ratio (y) = 0.28103 0.06285
# Poissons Ratio (z) = 0.38926 0.06756
#
# Static dielectric constant tensor:
#      x y z
#    x 1.962940 0.000000 0.000000 
#    y 0.000000 2.010380 0.000000 
#    z 0.000000 0.000000 2.000150 
# 
# From -- ./inp_files/4144.got.cif
#   From: 2010.05.17/outbox.cif.g08.bks.cpg/sg52_3_cif.got.tgz:4144.got - 2010.06.03 12:15:38.
