data_PCOD9412699
_publ_section_title
;
Structure prediction by ZEFSAII (Michael W. Deem and Ramdas Pophale) SiO2 
 PCOD9412699
Probable space group: P N N A
;
_chemical_formula_sum "Si O2"
_cell_formula_units_Z 48
_cell_length_a 30.868224
_cell_length_b 8.573694
_cell_length_c 9.057552
_cell_angle_alpha 90.000000
_cell_angle_beta 90.000000
_cell_angle_gamma 90.000000
_cell_volume 2397.123770
_symmetry_space_group_name_H-M "P N N A"
_symmetry_group_IT_number 52
_symmetry_cell_setting 'orthorhombic'
loop_
_space_group_symop_operation_xyz
x,y,z
1/2-x,-y,z
x,1/2-y,1/2-z
1/2-x,1/2+y,1/2-z
-x,-y,-z
1/2+x,y,-z
-x,1/2+y,1/2+z
1/2+x,1/2-y,1/2+z
loop_
_atom_site_type_symbol
_atom_site_label
_atom_site_fract_x
_atom_site_fract_y
_atom_site_fract_z
Si Si1 0.590017 0.750000 0.750000
Si Si2 0.639070 0.941534 0.496956
Si Si3 0.727219 0.847234 0.614569
Si Si4 0.409623 0.250000 0.750000
Si Si5 0.050347 0.960905 0.001592
Si Si6 0.717727 0.355766 0.396319
Si Si7 0.621977 0.206996 0.078642
O O1 0.617565 0.855560 0.636760
O O2 0.562070 0.635353 0.648034
O O3 0.689839 0.903315 0.504702
O O4 0.619190 0.864895 0.350121
O O5 0.630548 0.126235 0.498287
O O6 0.708573 0.750000 0.750000
O O7 0.762116 0.744455 0.528723
O O8 0.750000 0.000000 0.677380
O O9 0.437800 0.147583 0.861847
O O10 0.082363 0.109507 0.987431
O O11 0.000000 0.000000 0.000000
O O12 0.750000 0.500000 0.374598
O O13 0.717376 0.250000 0.250000
O O14 0.667108 0.391033 0.428324
O O15 0.613316 0.250000 0.250000
#
# Coordination Sequence:
#
# PCOD9412699 Si02
#       7
#     4   8   8   4   8   8   8
#     4  10  26  44  68 102 134 178 220 280 344 406
#     4  11  23  44  67 101 137 181 228 276 347 403
#     4  12  25  42  62  95 137 180 226 280 337 401
#     4  10  24  44  74  96 136 180 222 284 336 416
#     4  11  26  46  73 103 136 177 228 279 350 406
#     4  11  26  40  64  97 132 176 231 279 329 394
#     4  11  24  44  70 101 135 180 230 283 339 406
#
# _framework density 20.023997000000001
#
# number of rings (size 3 to 8) (size 9 to 14) (size 15 to 20)
#    0.000    1.000    4.167    1.000    9.333    3.333 
#    0.000    3.333    0.000    0.000    0.000    0.000 
#    0.000    0.000    0.000    0.000    0.000    0.000 
#
# Total GULP energy -268451.782103 kJ/mol
# GULP energy per Si atom -5592.745460 kJ/mol
# Density = 1.997842 g / cm^3
# Si number density = 20.023997 Si / 1000 Ang^3
#
#
#
# Elastic Constant Matrix: (Units=GPa)
#
#
# Indices 1 2 3 4 5 6 
#
# 1 164.8943 68.3025 40.3709 0.0000 0.0000 0.0000
# 2 68.3025 99.1616 29.6672 0.0000 0.0000 0.0000
# 3 40.3709 29.6672 90.3410 0.0000 0.0000 0.0000
# 4 0.0000 0.0000 0.0000 25.9364 0.0000 0.0000
# 5 0.0000 0.0000 0.0000 0.0000 11.7146 0.0000
# 6 0.0000 0.0000 0.0000 0.0000 0.0000 31.5162
#
#
#
# Elastic Compliance Matrix: (Units=1/GPa)
#
#
# Indices 1 2 3 4 5 6 
#
# 1 0.008852 -0.005449 -0.002166 0.000000 0.000000 0.000000
# 2 -0.005449 0.014538 -0.002339 0.000000 0.000000 0.000000
# 3 -0.002166 -0.002339 0.012805 0.000000 0.000000 0.000000
# 4 0.000000 0.000000 0.000000 0.038556 0.000000 0.000000
# 5 0.000000 0.000000 0.000000 0.000000 0.085364 0.000000
# 6 0.000000 0.000000 0.000000 0.000000 0.000000 0.031730
#
#
# Mechanical properties :
#
#
# Convention : Reuss Voigt Hill
#
# Bulk Modulus (GPa) = 61.40155 70.11979 65.76067
# Shear Modulus (GPa) = 23.02217 28.23718 25.62967
#
# Velocity S-wave (km/s) = 3.39444 3.75929 3.58152
# Velocity P-wave (km/s) = 6.78922 7.34418 7.07215
#
# Compressibility (1/GPa) = 0.01628623
#
# Stress axis : x y z
#
# Youngs Moduli (GPa) = 112.96873 68.78662 78.09262
#
# Poissons Ratio (x) = 0.37483 0.16917
# Poissons Ratio (y) = 0.61558 0.18266
# Poissons Ratio (z) = 0.24472 0.16089
#
# Static dielectric constant tensor:
#      x y z
#    x 1.687900 0.000000 0.000000 
#    y 0.000000 1.706140 0.000000 
#    z 0.000000 0.000000 1.690190 
# 
# From -- ./inp_files/15580.got.cif
#   From: 2010.05.17/outbox.cif.g08.bks.cpg/sg52_8_cif.got.tgz:15580.got - 2010.06.03 12:15:38.
