data_PCOD9412777
_publ_section_title
;
Structure prediction by ZEFSAII (Michael W. Deem and Ramdas Pophale) SiO2 
 PCOD9412777
Probable space group: P N N A
;
_chemical_formula_sum "Si O2"
_cell_formula_units_Z 40
_cell_length_a 19.763917
_cell_length_b 12.177951
_cell_length_c 7.051212
_cell_angle_alpha 90.000000
_cell_angle_beta 90.000000
_cell_angle_gamma 90.000000
_cell_volume 1697.113999
_symmetry_space_group_name_H-M "P N N A"
_symmetry_group_IT_number 52
_symmetry_cell_setting 'orthorhombic'
loop_
_space_group_symop_operation_xyz
x,y,z
1/2-x,-y,z
x,1/2-y,1/2-z
1/2-x,1/2+y,1/2-z
-x,-y,-z
1/2+x,y,-z
-x,1/2+y,1/2+z
1/2+x,1/2-y,1/2+z
loop_
_atom_site_type_symbol
_atom_site_label
_atom_site_fract_x
_atom_site_fract_y
_atom_site_fract_z
Si Si1 0.108510 0.250000 0.750000
Si Si2 0.674476 0.967806 0.618804
Si Si3 0.176851 0.472538 0.675354
Si Si4 0.101860 0.750000 0.250000
Si Si5 0.953316 0.401051 0.429409
Si Si6 0.437245 0.852761 0.366393
O O1 0.154588 0.345753 0.658438
O O2 0.068278 0.182946 0.586457
O O3 0.612425 0.046838 0.678352
O O4 0.750000 0.000000 0.687791
O O5 0.677650 0.992337 0.395047
O O6 0.649825 0.845382 0.664727
O O7 0.250000 0.500000 0.597339
O O8 0.120611 0.550261 0.589827
O O9 0.055981 0.694447 0.415175
O O10 0.000000 0.500000 0.500000
O O11 0.988860 0.372035 0.227512
O O12 0.409329 0.750000 0.250000
#
# Coordination Sequence:
#
# PCOD9412777 Si02
#       6
#     4   8   8   4   8   8
#     4  10  24  47  80 112 149 208 256 326 388 471
#     4  10  25  48  76 115 154 204 264 326 391 477
#     4  10  25  50  77 109 152 203 267 323 396 470
#     4  12  28  47  76 114 163 202 264 330 392 475
#     4  12  27  49  75 116 155 210 261 325 400 466
#     4  11  25  47  74 113 157 197 260 319 393 467
#
# _framework density 23.569424000000001
#
# number of rings (size 3 to 8) (size 9 to 14) (size 15 to 20)
#    0.000    1.200    2.000    1.200    4.200   13.600 
#    0.000    0.000    0.000    0.000    0.000    0.000 
#    0.000    0.000    0.000    0.000    0.000    0.000 
#
# Total GULP energy -223676.716365 kJ/mol
# GULP energy per Si atom -5591.917909 kJ/mol
# Density = 2.351578 g / cm^3
# Si number density = 23.569424 Si / 1000 Ang^3
#
#
#
# Elastic Constant Matrix: (Units=GPa)
#
#
# Indices 1 2 3 4 5 6 
#
# 1 207.8338 83.9814 54.9087 0.0000 0.0000 0.0000
# 2 83.9814 167.5607 31.6548 0.0000 0.0000 0.0000
# 3 54.9087 31.6548 117.5896 0.0000 0.0000 0.0000
# 4 0.0000 0.0000 0.0000 47.4049 0.0000 0.0000
# 5 0.0000 0.0000 0.0000 0.0000 48.1295 0.0000
# 6 0.0000 0.0000 0.0000 0.0000 0.0000 24.0638
#
#
#
# Elastic Compliance Matrix: (Units=1/GPa)
#
#
# Indices 1 2 3 4 5 6 
#
# 1 0.006575 -0.002861 -0.002300 0.000000 0.000000 0.000000
# 2 -0.002861 0.007533 -0.000692 0.000000 0.000000 0.000000
# 3 -0.002300 -0.000692 0.009764 0.000000 0.000000 0.000000
# 4 0.000000 0.000000 0.000000 0.021095 0.000000 0.000000
# 5 0.000000 0.000000 0.000000 0.000000 0.020777 0.000000
# 6 0.000000 0.000000 0.000000 0.000000 0.000000 0.041556
#
#
# Mechanical properties :
#
#
# Convention : Reuss Voigt Hill
#
# Bulk Modulus (GPa) = 82.19357 92.67487 87.43422
# Shear Modulus (GPa) = 40.62987 45.41559 43.02273
#
# Velocity S-wave (km/s) = 4.15642 4.39439 4.27706
# Velocity P-wave (km/s) = 7.61466 8.07173 7.84653
#
# Compressibility (1/GPa) = 0.01216640
#
# Stress axis : x y z
#
# Youngs Moduli (GPa) = 152.08421 132.75604 102.41221
#
# Poissons Ratio (x) = 0.37982 0.23557
# Poissons Ratio (y) = 0.43511 0.07085
# Poissons Ratio (z) = 0.34982 0.09184
#
# Static dielectric constant tensor:
#      x y z
#    x 1.908090 0.000000 0.000000 
#    y 0.000000 2.189080 0.000000 
#    z 0.000000 0.000000 2.023770 
# 
# From -- ./inp_files/11704.got.cif
#   From: 2010.05.17/outbox.cif.g08.bks.cpg/sg52_6_cif.got.tgz:11704.got - 2010.06.03 12:15:38.
