data_PCOD9412271
_publ_section_title
;
Structure prediction by ZEFSAII (Michael W. Deem and Ramdas Pophale) SiO2 
 PCOD9412271
Probable space group: P N N A
;
_chemical_formula_sum "Si O2"
_cell_formula_units_Z 52
_cell_length_a 4.993064
_cell_length_b 23.982706
_cell_length_c 16.096247
_cell_angle_alpha 90.000000
_cell_angle_beta 90.000000
_cell_angle_gamma 90.000000
_cell_volume 1927.480283
_symmetry_space_group_name_H-M "P N N A"
_symmetry_group_IT_number 52
_symmetry_cell_setting 'orthorhombic'
loop_
_space_group_symop_operation_xyz
x,y,z
1/2-x,-y,z
x,1/2-y,1/2-z
1/2-x,1/2+y,1/2-z
-x,-y,-z
1/2+x,y,-z
-x,1/2+y,1/2+z
1/2+x,1/2-y,1/2+z
loop_
_atom_site_type_symbol
_atom_site_label
_atom_site_fract_x
_atom_site_fract_y
_atom_site_fract_z
Si Si1 0.544720 0.091698 0.845722
Si Si2 0.572298 0.599353 0.806241
Si Si3 0.993542 0.932732 0.011373
Si Si4 0.806566 0.690992 0.286392
Si Si5 0.250000 0.500000 0.766335
Si Si6 0.372478 0.845723 0.446734
Si Si7 0.698978 0.782543 0.940308
O O1 0.811019 0.092741 0.785301
O O2 0.424975 0.153486 0.826776
O O3 0.734663 0.083557 0.932941
O O4 0.413451 0.039666 0.795921
O O5 0.394984 0.654510 0.792875
O O6 0.419106 0.542305 0.822116
O O7 0.793887 0.613864 0.872949
O O8 0.722709 0.917713 0.066830
O O9 0.969995 0.800434 0.991032
O O10 0.000000 0.000000 0.000000
O O11 0.713541 0.750000 0.250000
O O12 0.040268 0.701423 0.355435
O O13 0.674399 0.854735 0.475170
O O14 0.288443 0.781811 0.425973
#
# Coordination Sequence:
#
# PCOD9412271 Si02
#       7
#     8   8   8   8   4   8   8
#     4  11  26  42  72 101 143 195 242 302 358 436
#     4  11  25  44  72 104 139 187 241 301 363 438
#     4  10  23  40  67  97 141 191 240 291 354 425
#     4  11  25  44  68 105 146 188 244 298 359 428
#     4  10  24  44  68  98 140 176 244 292 370 422
#     4  10  23  44  73 102 140 183 234 291 373 439
#     4  10  23  43  68  99 145 193 233 292 355 427
#
# _framework density 26.978228999999999
#
# number of rings (size 3 to 8) (size 9 to 14) (size 15 to 20)
#    0.000    1.538    1.538    1.385   15.077    3.077 
#    0.000    0.769    0.000    0.000    0.000    0.000 
#    0.000    0.000    0.000    0.000    0.000    0.000 
#
# Total GULP energy -290386.188721 kJ/mol
# GULP energy per Si atom -5584.349783 kJ/mol
# Density = 2.691683 g / cm^3
# Si number density = 26.978229 Si / 1000 Ang^3
#
#
#
# Elastic Constant Matrix: (Units=GPa)
#
#
# Indices 1 2 3 4 5 6 
#
# 1 186.9903 22.1502 -1.1743 0.0000 0.0000 0.0000
# 2 22.1502 141.9013 12.8996 0.0000 0.0000 0.0000
# 3 -1.1743 12.8996 78.0159 0.0000 0.0000 0.0000
# 4 0.0000 0.0000 0.0000 44.5423 0.0000 0.0000
# 5 0.0000 0.0000 0.0000 0.0000 23.3101 0.0000
# 6 0.0000 0.0000 0.0000 0.0000 0.0000 26.3496
#
#
#
# Elastic Compliance Matrix: (Units=1/GPa)
#
#
# Indices 1 2 3 4 5 6 
#
# 1 0.005453 -0.000872 0.000226 0.000000 0.000000 0.000000
# 2 -0.000872 0.007294 -0.001219 0.000000 0.000000 0.000000
# 3 0.000226 -0.001219 0.013023 0.000000 0.000000 0.000000
# 4 0.000000 0.000000 0.000000 0.022451 0.000000 0.000000
# 5 0.000000 0.000000 0.000000 0.000000 0.042900 0.000000
# 6 0.000000 0.000000 0.000000 0.000000 0.000000 0.037951
#
#
# Mechanical properties :
#
#
# Convention : Reuss Voigt Hill
#
# Bulk Modulus (GPa) = 45.37163 52.73982 49.05572
# Shear Modulus (GPa) = 35.67679 43.70920 39.69300
#
# Velocity S-wave (km/s) = 3.64047 4.02950 3.83991
# Velocity P-wave (km/s) = 5.87580 6.42188 6.15490
#
# Compressibility (1/GPa) = 0.02204021
#
# Stress axis : x y z
#
# Youngs Moduli (GPa) = 183.40048 137.09818 76.78789
#
# Poissons Ratio (x) = 0.11951 -0.01737
# Poissons Ratio (y) = 0.15987 0.09362
# Poissons Ratio (z) = -0.04149 0.16714
#
# Static dielectric constant tensor:
#      x y z
#    x 2.362430 0.000000 0.000000 
#    y 0.000000 2.164320 0.000000 
#    z 0.000000 0.000000 2.139630 
# 
# From -- ./inp_files/35177.got.cif
#   From: 2010.05.17/outbox.cif.g08.bks.cpg/sg52_18_cif.got.tgz:35177.got - 2010.06.03 12:15:38.
