data_PCOD9412065
_publ_section_title
;
Structure prediction by ZEFSAII (Michael W. Deem and Ramdas Pophale) SiO2 
 PCOD9412065
Probable space group: P N N A
;
_chemical_formula_sum "Si O2"
_cell_formula_units_Z 56
_cell_length_a 14.943025
_cell_length_b 19.149795
_cell_length_c 8.973484
_cell_angle_alpha 90.000000
_cell_angle_beta 90.000000
_cell_angle_gamma 90.000000
_cell_volume 2567.815080
_symmetry_space_group_name_H-M "P N N A"
_symmetry_group_IT_number 52
_symmetry_cell_setting 'orthorhombic'
loop_
_space_group_symop_operation_xyz
x,y,z
1/2-x,-y,z
x,1/2-y,1/2-z
1/2-x,1/2+y,1/2-z
-x,-y,-z
1/2+x,y,-z
-x,1/2+y,1/2+z
1/2+x,1/2-y,1/2+z
loop_
_atom_site_type_symbol
_atom_site_label
_atom_site_fract_x
_atom_site_fract_y
_atom_site_fract_z
Si Si1 0.778124 0.632637 0.127970
Si Si2 0.908836 0.092627 0.302366
Si Si3 0.254280 0.581161 0.193068
Si Si4 0.442313 0.400053 0.119281
Si Si5 0.593809 0.452052 0.337345
Si Si6 0.065556 0.269746 0.920592
Si Si7 0.919819 0.634394 0.625738
O O1 0.675488 0.643088 0.172436
O O2 0.830597 0.596717 0.263316
O O3 0.834151 0.699841 0.080934
O O4 0.782070 0.584030 0.981256
O O5 0.924601 0.058702 0.465746
O O6 0.998640 0.125374 0.239028
O O7 0.880726 0.031836 0.188401
O O8 0.250000 0.500000 0.241109
O O9 0.154081 0.612462 0.193802
O O10 0.326432 0.624770 0.287133
O O11 0.505505 0.437028 0.238475
O O12 0.493942 0.331647 0.057913
O O13 0.577704 0.427793 0.504431
O O14 0.046747 0.250000 0.750000
O O15 0.064846 0.205620 0.033809
#
# Coordination Sequence:
#
# PCOD9412065 Si02
#       7
#     8   8   8   8   8   8   8
#     4  10  22  43  70  93 133 187 228 279 335 407
#     4  11  23  40  67 105 127 174 234 276 340 403
#     4  11  24  44  69 107 138 176 235 289 348 411
#     4  10  22  43  70  95 131 189 227 275 337 410
#     4  11  21  41  66  96 140 176 217 285 342 399
#     4  11  23  50  64  94 137 182 235 280 347 412
#     4  12  25  42  69 100 145 177 219 291 342 407
#
# _framework density 21.808423999999999
#
# number of rings (size 3 to 8) (size 9 to 14) (size 15 to 20)
#    0.000    1.143    2.857    5.571    0.000    4.571 
#   10.286    0.000    0.000    0.000    0.000    0.000 
#    0.000    0.000    0.000    0.000    0.000    0.000 
#
# Total GULP energy -312965.250432 kJ/mol
# GULP energy per Si atom -5588.665186 kJ/mol
# Density = 2.175879 g / cm^3
# Si number density = 21.808424 Si / 1000 Ang^3
#
#
#
# Elastic Constant Matrix: (Units=GPa)
#
#
# Indices 1 2 3 4 5 6 
#
# 1 134.2528 4.5633 56.0779 0.0000 0.0000 0.0000
# 2 4.5633 51.6030 15.1513 0.0000 0.0000 0.0000
# 3 56.0779 15.1513 97.9754 0.0000 0.0000 0.0000
# 4 0.0000 0.0000 0.0000 19.2316 0.0000 0.0000
# 5 0.0000 0.0000 0.0000 0.0000 1308.4681 0.0000
# 6 0.0000 0.0000 0.0000 0.0000 0.0000 14.5026
#
#
#
# Elastic Compliance Matrix: (Units=1/GPa)
#
#
# Indices 1 2 3 4 5 6 
#
# 1 0.009822 0.000819 -0.005748 0.000000 0.000000 0.000000
# 2 0.000819 0.020369 -0.003619 0.000000 0.000000 0.000000
# 3 -0.005748 -0.003619 0.014056 0.000000 0.000000 0.000000
# 4 0.000000 0.000000 0.000000 0.051998 0.000000 0.000000
# 5 0.000000 0.000000 0.000000 0.000000 0.000764 0.000000
# 6 0.000000 0.000000 0.000000 0.000000 0.000000 0.068953
#
#
# Mechanical properties :
#
#
# Convention : Reuss Voigt Hill
#
# Bulk Modulus (GPa) = 36.83077 48.37956 42.60517
# Shear Modulus (GPa) = 26.02690 282.30970 154.16830
#
# Velocity S-wave (km/s) = 3.45836 11.38995 8.41698
# Velocity P-wave (km/s) = 5.73341 13.97163 10.67892
#
# Compressibility (1/GPa) = 0.02715121
#
# Stress axis : x y z
#
# Youngs Moduli (GPa) = 101.81288 49.09470 71.14147
#
# Poissons Ratio (x) = -0.04022 0.40895
# Poissons Ratio (y) = -0.08341 0.25745
# Poissons Ratio (z) = 0.58527 0.17766
#
# Static dielectric constant tensor:
#      x y z
#    x 1.810230 0.000000 0.000000 
#    y 0.000000 1.878770 0.000000 
#    z 0.000000 0.000000 1.796910 
# 
# From -- ./inp_files/10827.got.cif
#   From: 2010.05.17/outbox.cif.g08.bks.cpg/sg52_6_cif.got.tgz:10827.got - 2010.06.03 12:15:38.
