data_PCOD9412463
_publ_section_title
;
Structure prediction by ZEFSAII (Michael W. Deem and Ramdas Pophale) SiO2 
 PCOD9412463
Probable space group: P N N A
;
_chemical_formula_sum "Si O2"
_cell_formula_units_Z 48
_cell_length_a 14.255858
_cell_length_b 16.040603
_cell_length_c 9.792398
_cell_angle_alpha 90.000000
_cell_angle_beta 90.000000
_cell_angle_gamma 90.000000
_cell_volume 2239.252706
_symmetry_space_group_name_H-M "P N N A"
_symmetry_group_IT_number 52
_symmetry_cell_setting 'orthorhombic'
loop_
_space_group_symop_operation_xyz
x,y,z
1/2-x,-y,z
x,1/2-y,1/2-z
1/2-x,1/2+y,1/2-z
-x,-y,-z
1/2+x,y,-z
-x,1/2+y,1/2+z
1/2+x,1/2-y,1/2+z
loop_
_atom_site_type_symbol
_atom_site_label
_atom_site_fract_x
_atom_site_fract_y
_atom_site_fract_z
Si Si1 0.018645 0.598696 0.852466
Si Si2 0.363263 0.664187 0.322454
Si Si3 0.796506 0.088466 0.665554
Si Si4 0.282194 0.155748 0.636731
Si Si5 0.519588 0.406421 0.157428
Si Si6 0.663683 0.170763 0.138549
O O1 0.106924 0.659768 0.836804
O O2 0.939216 0.601911 0.739622
O O3 0.054524 0.502694 0.848659
O O4 0.971903 0.620473 0.998866
O O5 0.393749 0.750000 0.250000
O O6 0.258959 0.649211 0.265848
O O7 0.363457 0.654195 0.484019
O O8 0.774010 0.110007 0.507641
O O9 0.907919 0.091900 0.683763
O O10 0.750000 0.000000 0.694110
O O11 0.238045 0.116276 0.773801
O O12 0.220654 0.240622 0.622448
O O13 0.572744 0.347142 0.264715
#
# Coordination Sequence:
#
# PCOD9412463 Si02
#       6
#     8   8   8   8   8   8
#     4  10  23  44  75 100 134 185 236 289 354 419
#     4  12  25  44  68 101 146 186 230 286 362 422
#     4  11  22  47  75 101 136 183 239 284 350 427
#     4  10  24  44  67 101 135 182 237 286 345 416
#     4  10  23  44  75 103 132 183 237 293 345 425
#     4  11  25  43  64 104 145 180 229 290 353 416
#
# _framework density 21.435721000000001
#
# number of rings (size 3 to 8) (size 9 to 14) (size 15 to 20)
#    0.000    1.333    3.333    1.000    9.333    2.000 
#    6.000    0.000    0.000    0.000    0.000    0.000 
#    0.000    0.000    0.000    0.000    0.000    0.000 
#
# Total GULP energy -267375.243396 kJ/mol
# GULP energy per Si atom -5570.317571 kJ/mol
# Density = 2.138693 g / cm^3
# Si number density = 21.435721 Si / 1000 Ang^3
#
#
#
# Elastic Constant Matrix: (Units=GPa)
#
#
# Indices 1 2 3 4 5 6 
#
# 1 143.0961 36.7078 75.3264 0.0000 0.0000 0.0000
# 2 36.7078 62.1803 30.7397 0.0000 0.0000 0.0000
# 3 75.3264 30.7397 186.1420 0.0000 0.0000 0.0000
# 4 0.0000 0.0000 0.0000 19.6516 0.0000 0.0000
# 5 0.0000 0.0000 0.0000 0.0000 -15.1665 0.0000
# 6 0.0000 0.0000 0.0000 0.0000 0.0000 28.4243
#
#
#
# Elastic Compliance Matrix: (Units=1/GPa)
#
#
# Indices 1 2 3 4 5 6 
#
# 1 0.009775 -0.004154 -0.003270 0.000000 0.000000 0.000000
# 2 -0.004154 0.019277 -0.001502 0.000000 0.000000 0.000000
# 3 -0.003270 -0.001502 0.006943 0.000000 0.000000 0.000000
# 4 0.000000 0.000000 0.000000 0.050886 0.000000 0.000000
# 5 0.000000 0.000000 0.000000 0.000000 -0.065935 0.000000
# 6 0.000000 0.000000 0.000000 0.000000 0.000000 0.035181
#
#
# Mechanical properties :
#
#
# Convention : Reuss Voigt Hill
#
# Bulk Modulus (GPa) = 55.11650 75.21850 65.16750
# Shear Modulus (GPa) = 62.47684 23.15817 42.81750
#
# Velocity S-wave (km/s) = 5.40457 3.29044 4.47417
# Velocity P-wave (km/s) = 8.04451 7.04290 7.56031
#
# Compressibility (1/GPa) = 0.01814339
#
# Stress axis : x y z
#
# Youngs Moduli (GPa) = 102.29994 51.87406 144.01964
#
# Poissons Ratio (x) = 0.21550 0.47090
# Poissons Ratio (y) = 0.42499 0.21637
# Poissons Ratio (z) = 0.33449 0.07793
#
# Static dielectric constant tensor:
#      x y z
#    x 1.783660 0.000000 0.000000 
#    y 0.000000 1.871920 0.000000 
#    z 0.000000 0.000000 1.808580 
# 
# From -- ./inp_files/10479.got.cif
#   From: 2010.05.17/outbox.cif.g08.bks.cpg/sg52_6_cif.got.tgz:10479.got - 2010.06.03 12:15:38.
