data_PCOD9412585
_publ_section_title
;
Structure prediction by ZEFSAII (Michael W. Deem and Ramdas Pophale) SiO2 
 PCOD9412585
Probable space group: P N N A
;
_chemical_formula_sum "Si O2"
_cell_formula_units_Z 64
_cell_length_a 8.801027
_cell_length_b 12.071415
_cell_length_c 29.927091
_cell_angle_alpha 90.000000
_cell_angle_beta 90.000000
_cell_angle_gamma 90.000000
_cell_volume 3179.479566
_symmetry_space_group_name_H-M "P N N A"
_symmetry_group_IT_number 52
_symmetry_cell_setting 'orthorhombic'
loop_
_space_group_symop_operation_xyz
x,y,z
1/2-x,-y,z
x,1/2-y,1/2-z
1/2-x,1/2+y,1/2-z
-x,-y,-z
1/2+x,y,-z
-x,1/2+y,1/2+z
1/2+x,1/2-y,1/2+z
loop_
_atom_site_type_symbol
_atom_site_label
_atom_site_fract_x
_atom_site_fract_y
_atom_site_fract_z
Si Si1 0.393694 0.639023 0.843428
Si Si2 0.442703 0.250756 0.002687
Si Si3 0.415434 0.823479 0.149774
Si Si4 0.697741 0.126953 0.445845
Si Si5 0.425072 0.467431 0.717858
Si Si6 0.885715 0.311301 0.704187
Si Si7 0.315347 0.876634 0.050315
Si Si8 0.441994 0.109267 0.686224
O O1 0.352177 0.652574 0.895321
O O2 0.511820 0.727888 0.825157
O O3 0.451882 0.514050 0.834268
O O4 0.233610 0.646618 0.817533
O O5 0.554624 0.343392 0.022805
O O6 0.325277 0.205035 0.039372
O O7 0.338935 0.299243 0.962929
O O8 0.552515 0.153559 0.984931
O O9 0.544403 0.897393 0.173338
O O10 0.261485 0.845959 0.176794
O O11 0.384910 0.853065 0.098818
O O12 0.458785 0.696089 0.158834
O O13 0.750000 0.000000 0.448531
O O14 0.250000 0.500000 0.723463
O O15 0.518311 0.580466 0.715726
O O16 0.478711 0.399157 0.761387
O O17 0.843728 0.250000 0.750000
O O18 0.250000 0.000000 0.046961
#
# Coordination Sequence:
#
# PCOD9412585 Si02
#       8
#     8   8   8   8   8   8   8   8
#     4  11  22  40  67  91 125 174 217 269 312 389
#     4  10  24  41  68  97 126 175 214 275 351 402
#     4  12  27  40  65  94 133 166 215 272 332 392
#     4  11  21  40  65  95 135 166 219 273 338 405
#     4  12  23  42  65  91 126 178 222 265 318 380
#     4  12  23  40  60  92 130 168 213 267 325 386
#     4  11  23  46  67  96 130 168 221 279 338 410
#     4  11  21  42  61  91 127 172 221 261 315 383
#
# _framework density 20.129079999999998
#
# number of rings (size 3 to 8) (size 9 to 14) (size 15 to 20)
#    0.000    0.750    3.750    5.250    0.000    0.500 
#    0.000    1.875    0.000    0.000    0.000    0.000 
#    0.000    0.000    0.000    0.000    0.000    0.000 
#
# Total GULP energy -358030.986250 kJ/mol
# GULP energy per Si atom -5594.234160 kJ/mol
# Density = 2.008327 g / cm^3
# Si number density = 20.129080 Si / 1000 Ang^3
#
#
#
# Elastic Constant Matrix: (Units=GPa)
#
#
# Indices 1 2 3 4 5 6 
#
# 1 52.7139 6.1935 15.5468 0.0000 0.0000 0.0000
# 2 6.1935 51.6176 11.8622 0.0000 0.0000 0.0000
# 3 15.5468 11.8622 111.4637 0.0000 0.0000 0.0000
# 4 0.0000 0.0000 0.0000 28.1734 0.0000 0.0000
# 5 0.0000 0.0000 0.0000 0.0000 31.9213 0.0000
# 6 0.0000 0.0000 0.0000 0.0000 0.0000 29.7610
#
#
#
# Elastic Compliance Matrix: (Units=1/GPa)
#
#
# Indices 1 2 3 4 5 6 
#
# 1 0.019946 -0.001798 -0.002591 0.000000 0.000000 0.000000
# 2 -0.001798 0.020021 -0.001880 0.000000 0.000000 0.000000
# 3 -0.002591 -0.001880 0.009533 0.000000 0.000000 0.000000
# 4 0.000000 0.000000 0.000000 0.035495 0.000000 0.000000
# 5 0.000000 0.000000 0.000000 0.000000 0.031327 0.000000
# 6 0.000000 0.000000 0.000000 0.000000 0.000000 0.033601
#
#
# Mechanical properties :
#
#
# Convention : Reuss Voigt Hill
#
# Bulk Modulus (GPa) = 27.05433 31.44446 29.24940
# Shear Modulus (GPa) = 28.60742 30.11732 29.36237
#
# Velocity S-wave (km/s) = 3.77397 3.87228 3.82344
# Velocity P-wave (km/s) = 5.69737 5.97060 5.83559
#
# Compressibility (1/GPa) = 0.03696266
#
# Stress axis : x y z
#
# Youngs Moduli (GPa) = 50.13629 49.94762 104.89945
#
# Poissons Ratio (x) = 0.08980 0.27176
# Poissons Ratio (y) = 0.09014 0.19720
# Poissons Ratio (z) = 0.12989 0.09390
#
# Static dielectric constant tensor:
#      x y z
#    x 1.698740 0.000000 0.000000 
#    y 0.000000 1.706200 0.000000 
#    z 0.000000 0.000000 1.704580 
# 
# From -- ./inp_files/44595.got.cif
#   From: 2010.05.17/outbox.cif.g08.bks.cpg/sg52_23_cif.got.tgz:44595.got - 2010.06.03 12:15:38.
