data_PCOD9412735
_publ_section_title
;
Structure prediction by ZEFSAII (Michael W. Deem and Ramdas Pophale) SiO2 
 PCOD9412735
Probable space group: P N N A
;
_chemical_formula_sum "Si O2"
_cell_formula_units_Z 24
_cell_length_a 9.091121
_cell_length_b 18.242559
_cell_length_c 5.132743
_cell_angle_alpha 90.000000
_cell_angle_beta 90.000000
_cell_angle_gamma 90.000000
_cell_volume 851.241360
_symmetry_space_group_name_H-M "P N N A"
_symmetry_group_IT_number 52
_symmetry_cell_setting 'orthorhombic'
loop_
_space_group_symop_operation_xyz
x,y,z
1/2-x,-y,z
x,1/2-y,1/2-z
1/2-x,1/2+y,1/2-z
-x,-y,-z
1/2+x,y,-z
-x,1/2+y,1/2+z
1/2+x,1/2-y,1/2+z
loop_
_atom_site_type_symbol
_atom_site_label
_atom_site_fract_x
_atom_site_fract_y
_atom_site_fract_z
Si Si1 0.438857 0.618793 0.993652
Si Si2 0.197778 0.869512 0.867269
Si Si3 0.250000 0.000000 0.224075
Si Si4 0.740710 0.250000 0.750000
O O1 0.603817 0.623864 0.102098
O O2 0.366967 0.544805 0.106740
O O3 0.361485 0.689145 0.122137
O O4 0.372199 0.625528 0.703705
O O5 0.169668 0.940151 0.044490
O O6 0.171189 0.795524 0.030671
#
# Coordination Sequence:
#
# PCOD9412735 Si02
#       4
#     8   8   4   4
#     4  11  25  45  75 109 151 199 254 315 376 452
#     4  11  25  48  76 110 153 201 255 313 381 454
#     4  10  24  46  70 114 150 204 252 312 374 454
#     4  10  26  46  70 106 152 200 252 308 378 456
#
# _framework density 28.194118
#
# number of rings (size 3 to 8) (size 9 to 14) (size 15 to 20)
#    0.000    1.333    0.000    3.000    4.667   16.000 
#    0.000    0.000    0.000    2.000    0.000    0.000 
#    0.000    0.000    0.000    0.000    0.000    0.000 
#
# Total GULP energy -134672.615807 kJ/mol
# GULP energy per Si atom -5611.358992 kJ/mol
# Density = 2.812995 g / cm^3
# Si number density = 28.194118 Si / 1000 Ang^3
#
#
#
# Elastic Constant Matrix: (Units=GPa)
#
#
# Indices 1 2 3 4 5 6 
#
# 1 164.6783 62.9233 34.4578 0.0000 0.0000 0.0000
# 2 62.9233 195.6821 69.1838 0.0000 0.0000 0.0000
# 3 34.4578 69.1838 103.0731 0.0000 0.0000 0.0000
# 4 0.0000 0.0000 0.0000 41.4728 0.0000 0.0000
# 5 0.0000 0.0000 0.0000 0.0000 30.1901 0.0000
# 6 0.0000 0.0000 0.0000 0.0000 0.0000 35.7689
#
#
#
# Elastic Compliance Matrix: (Units=1/GPa)
#
#
# Indices 1 2 3 4 5 6 
#
# 1 0.007015 -0.001871 -0.001090 0.000000 0.000000 0.000000
# 2 -0.001871 0.007199 -0.004207 0.000000 0.000000 0.000000
# 3 -0.001090 -0.004207 0.012890 0.000000 0.000000 0.000000
# 4 0.000000 0.000000 0.000000 0.024112 0.000000 0.000000
# 5 0.000000 0.000000 0.000000 0.000000 0.033123 0.000000
# 6 0.000000 0.000000 0.000000 0.000000 0.000000 0.027957
#
#
# Mechanical properties :
#
#
# Convention : Reuss Voigt Hill
#
# Bulk Modulus (GPa) = 78.30817 88.50701 83.40759
# Shear Modulus (GPa) = 38.20066 41.27760 39.73913
#
# Velocity S-wave (km/s) = 3.68491 3.83044 3.75838
# Velocity P-wave (km/s) = 6.77788 7.14305 6.96286
#
# Compressibility (1/GPa) = 0.01277006
#
# Stress axis : x y z
#
# Youngs Moduli (GPa) = 142.54802 138.90549 77.58079
#
# Poissons Ratio (x) = 0.25983 0.08454
# Poissons Ratio (y) = 0.26664 0.32637
# Poissons Ratio (z) = 0.15533 0.58435
#
# Static dielectric constant tensor:
#      x y z
#    x 2.195640 0.000000 0.000000 
#    y 0.000000 2.077760 0.000000 
#    z 0.000000 0.000000 2.268300 
# 
# From -- ./inp_files/834.got.cif
#   From: 2010.05.17/outbox.cif.g08.bks.cpg/sg52_1_cif.got.tgz:834.got - 2010.06.03 12:15:38.
