data_PCOD9412475
_publ_section_title
;
Structure prediction by ZEFSAII (Michael W. Deem and Ramdas Pophale) SiO2 
 PCOD9412475
Probable space group: P N N A
;
_chemical_formula_sum "Si O2"
_cell_formula_units_Z 64
_cell_length_a 9.836832
_cell_length_b 14.319162
_cell_length_c 18.627174
_cell_angle_alpha 90.000000
_cell_angle_beta 90.000000
_cell_angle_gamma 90.000000
_cell_volume 2623.734151
_symmetry_space_group_name_H-M "P N N A"
_symmetry_group_IT_number 52
_symmetry_cell_setting 'orthorhombic'
loop_
_space_group_symop_operation_xyz
x,y,z
1/2-x,-y,z
x,1/2-y,1/2-z
1/2-x,1/2+y,1/2-z
-x,-y,-z
1/2+x,y,-z
-x,1/2+y,1/2+z
1/2+x,1/2-y,1/2+z
loop_
_atom_site_type_symbol
_atom_site_label
_atom_site_fract_x
_atom_site_fract_y
_atom_site_fract_z
Si Si1 0.890956 0.773703 0.334574
Si Si2 0.554555 0.057247 0.252425
Si Si3 0.379178 0.219935 0.582947
Si Si4 0.399625 0.953845 0.903640
Si Si5 0.829986 0.237974 0.580860
Si Si6 0.596212 0.380727 0.562488
Si Si7 0.964602 0.354347 0.223331
Si Si8 0.227101 0.851867 0.280810
O O1 0.886214 0.887596 0.320479
O O2 0.758724 0.748411 0.379013
O O3 0.907950 0.595069 0.326563
O O4 0.023915 0.753899 0.381666
O O5 0.605561 0.250000 0.250000
O O6 0.899769 0.050609 0.248430
O O7 0.391447 0.076109 0.261751
O O8 0.346184 0.201622 0.499969
O O9 0.488275 0.302353 0.583034
O O10 0.441314 0.144828 0.637768
O O11 0.250000 0.000000 0.908385
O O12 0.529928 0.024882 0.905530
O O13 0.408969 0.896644 0.977146
O O14 0.742921 0.335020 0.581188
O O15 0.759162 0.163877 0.633837
O O16 0.923220 0.250000 0.250000
O O17 0.121341 0.365945 0.246890
O O18 0.186067 0.750000 0.250000
#
# Coordination Sequence:
#
# PCOD9412475 Si02
#       8
#     8   8   8   8   8   8   8   8
#     4  11  28  48  75 117 154 211 264 334 413 479
#     4  11  25  45  75 105 158 203 269 325 400 487
#     4  12  25  43  78 105 149 206 258 327 398 488
#     4  11  27  45  71 118 162 213 257 340 410 509
#     4  11  23  45  75 104 148 200 259 327 398 486
#     4  11  25  47  72 110 160 202 261 317 417 486
#     4  11  24  45  73 109 147 202 264 328 402 479
#     4  10  23  45  70 109 148 199 262 324 398 476
#
# _framework density 24.392714000000002
#
# number of rings (size 3 to 8) (size 9 to 14) (size 15 to 20)
#    0.000    1.000    1.250    4.500   10.500    0.000 
#    2.250    2.500    5.500    2.250    0.000    0.000 
#    0.000    0.000    0.000    0.000    0.000    0.000 
#
# Total GULP energy -357757.403457 kJ/mol
# GULP energy per Si atom -5589.959429 kJ/mol
# Density = 2.433720 g / cm^3
# Si number density = 24.392714 Si / 1000 Ang^3
#
#
#
# Elastic Constant Matrix: (Units=GPa)
#
#
# Indices 1 2 3 4 5 6 
#
# 1 139.8178 20.1576 51.3089 0.0000 0.0000 0.0000
# 2 20.1576 68.4821 42.2159 0.0000 0.0000 0.0000
# 3 51.3089 42.2159 184.4157 0.0000 0.0000 0.0000
# 4 0.0000 0.0000 0.0000 41.4359 0.0000 0.0000
# 5 0.0000 0.0000 0.0000 0.0000 37.0520 0.0000
# 6 0.0000 0.0000 0.0000 0.0000 0.0000 26.0445
#
#
#
# Elastic Compliance Matrix: (Units=1/GPa)
#
#
# Indices 1 2 3 4 5 6 
#
# 1 0.008043 -0.001150 -0.001974 0.000000 0.000000 0.000000
# 2 -0.001150 0.017166 -0.003610 0.000000 0.000000 0.000000
# 3 -0.001974 -0.003610 0.006798 0.000000 0.000000 0.000000
# 4 0.000000 0.000000 0.000000 0.024134 0.000000 0.000000
# 5 0.000000 0.000000 0.000000 0.000000 0.026989 0.000000
# 6 0.000000 0.000000 0.000000 0.000000 0.000000 0.038396
#
#
# Mechanical properties :
#
#
# Convention : Reuss Voigt Hill
#
# Bulk Modulus (GPa) = 53.94196 68.89782 61.41989
# Shear Modulus (GPa) = 35.41755 39.50871 37.46313
#
# Velocity S-wave (km/s) = 3.81461 4.02891 3.92322
# Velocity P-wave (km/s) = 6.44699 7.06749 6.76435
#
# Compressibility (1/GPa) = 0.01853844
#
# Stress axis : x y z
#
# Youngs Moduli (GPa) = 124.33933 58.25448 147.09937
#
# Poissons Ratio (x) = 0.06701 0.29042
# Poissons Ratio (y) = 0.14302 0.53097
# Poissons Ratio (z) = 0.24548 0.21027
#
# Static dielectric constant tensor:
#      x y z
#    x 1.973950 0.000000 0.000000 
#    y 0.000000 2.131490 0.000000 
#    z 0.000000 0.000000 1.914420 
# 
# From -- ./inp_files/39759.got.cif
#   From: 2010.05.17/outbox.cif.g08.bks.cpg/sg52_20_cif.got.tgz:39759.got - 2010.06.03 12:15:38.
