data_PCOD9412931
_publ_section_title
;
Structure prediction by ZEFSAII (Michael W. Deem and Ramdas Pophale) SiO2 
 PCOD9412931
Probable space group: P N N A
;
_chemical_formula_sum "Si O2"
_cell_formula_units_Z 48
_cell_length_a 11.726807
_cell_length_b 23.533090
_cell_length_c 8.067115
_cell_angle_alpha 90.000000
_cell_angle_beta 90.000000
_cell_angle_gamma 90.000000
_cell_volume 2226.265629
_symmetry_space_group_name_H-M "P N N A"
_symmetry_group_IT_number 52
_symmetry_cell_setting 'orthorhombic'
loop_
_space_group_symop_operation_xyz
x,y,z
1/2-x,-y,z
x,1/2-y,1/2-z
1/2-x,1/2+y,1/2-z
-x,-y,-z
1/2+x,y,-z
-x,1/2+y,1/2+z
1/2+x,1/2-y,1/2+z
loop_
_atom_site_type_symbol
_atom_site_label
_atom_site_fract_x
_atom_site_fract_y
_atom_site_fract_z
Si Si1 0.125506 0.526264 0.773951
Si Si2 0.415104 0.660754 0.722470
Si Si3 0.048676 0.569741 0.096356
Si Si4 0.251357 0.092271 0.005237
Si Si5 0.250000 0.500000 0.256923
Si Si6 0.732197 0.750000 0.250000
Si Si7 0.132605 0.709117 0.405570
O O1 0.250000 0.500000 0.814090
O O2 0.150764 0.557954 0.598992
O O3 0.042295 0.473983 0.821454
O O4 0.071768 0.571825 0.900512
O O5 0.502647 0.630002 0.844863
O O6 0.344420 0.615367 0.617042
O O7 0.316763 0.698842 0.800470
O O8 0.497312 0.698357 0.607700
O O9 0.164492 0.540095 0.158816
O O10 0.192009 0.046629 0.124794
O O11 0.305619 0.147057 0.095440
O O12 0.663496 0.733807 0.414361
O O13 0.164370 0.750000 0.250000
#
# Coordination Sequence:
#
# PCOD9412931 Si02
#       7
#     8   8   8   8   4   4   8
#     4  11  22  43  63 100 141 182 222 277 347 425
#     4  11  22  45  69  98 135 182 229 295 348 423
#     4  11  24  39  67 101 141 179 230 280 344 428
#     4  11  24  41  68  96 139 179 225 282 356 422
#     4  12  22  38  66 102 138 178 216 276 344 422
#     4  10  26  50  72  98 134 182 242 306 364 412
#     4  11  25  49  71  99 136 181 241 301 358 426
#
# _framework density 21.560770000000002
#
# number of rings (size 3 to 8) (size 9 to 14) (size 15 to 20)
#    0.000    1.000    5.833    0.000    2.333    4.000 
#   12.000    0.000    0.000    0.000    0.000    0.000 
#    0.000    0.000    0.000    0.000    0.000    0.000 
#
# Total GULP energy -267396.689681 kJ/mol
# GULP energy per Si atom -5570.764368 kJ/mol
# Density = 2.151170 g / cm^3
# Si number density = 21.560770 Si / 1000 Ang^3
#
#
#
# Elastic Constant Matrix: (Units=GPa)
#
#
# Indices 1 2 3 4 5 6 
#
# 1 53.3802 9.0051 7.6067 0.0000 0.0000 0.0000
# 2 9.0051 48.3030 36.1006 0.0000 0.0000 0.0000
# 3 7.6067 36.1006 67.6867 0.0000 0.0000 0.0000
# 4 0.0000 0.0000 0.0000 24.8756 0.0000 0.0000
# 5 0.0000 0.0000 0.0000 0.0000 13.3581 0.0000
# 6 0.0000 0.0000 0.0000 0.0000 0.0000 23.3281
#
#
#
# Elastic Compliance Matrix: (Units=1/GPa)
#
#
# Indices 1 2 3 4 5 6 
#
# 1 0.019349 -0.003296 -0.000417 0.000000 0.000000 0.000000
# 2 -0.003296 0.034986 -0.018289 0.000000 0.000000 0.000000
# 3 -0.000417 -0.018289 0.024575 0.000000 0.000000 0.000000
# 4 0.000000 0.000000 0.000000 0.040200 0.000000 0.000000
# 5 0.000000 0.000000 0.000000 0.000000 0.074861 0.000000
# 6 0.000000 0.000000 0.000000 0.000000 0.000000 0.042867
#
#
# Mechanical properties :
#
#
# Convention : Reuss Voigt Hill
#
# Bulk Modulus (GPa) = 28.64776 30.53274 29.59025
# Shear Modulus (GPa) = 17.09533 20.08954 18.59243
#
# Velocity S-wave (km/s) = 2.81889 3.05579 2.93973
# Velocity P-wave (km/s) = 4.88985 5.16163 5.02758
#
# Compressibility (1/GPa) = 0.03490674
#
# Stress axis : x y z
#
# Youngs Moduli (GPa) = 51.68248 28.58267 40.69108
#
# Poissons Ratio (x) = 0.09420 0.01695
# Poissons Ratio (y) = 0.17034 0.74422
# Poissons Ratio (z) = 0.02153 0.52276
#
# Static dielectric constant tensor:
#      x y z
#    x 1.774250 0.000000 0.000000 
#    y 0.000000 1.858360 0.000000 
#    z 0.000000 0.000000 1.853290 
# 
# From -- ./inp_files/8909.got.cif
#   From: 2010.05.17/outbox.cif.g08.bks.cpg/sg52_5_cif.got.tgz:8909.got - 2010.06.03 12:15:38.
