data_PCOD9412533
_publ_section_title
;
Structure prediction by ZEFSAII (Michael W. Deem and Ramdas Pophale) SiO2 
 PCOD9412533
Probable space group: P N N A
;
_chemical_formula_sum "Si O2"
_cell_formula_units_Z 32
_cell_length_a 9.086852
_cell_length_b 17.208025
_cell_length_c 7.480839
_cell_angle_alpha 90.000000
_cell_angle_beta 90.000000
_cell_angle_gamma 90.000000
_cell_volume 1169.754679
_symmetry_space_group_name_H-M "P N N A"
_symmetry_group_IT_number 52
_symmetry_cell_setting 'orthorhombic'
loop_
_space_group_symop_operation_xyz
x,y,z
1/2-x,-y,z
x,1/2-y,1/2-z
1/2-x,1/2+y,1/2-z
-x,-y,-z
1/2+x,y,-z
-x,1/2+y,1/2+z
1/2+x,1/2-y,1/2+z
loop_
_atom_site_type_symbol
_atom_site_label
_atom_site_fract_x
_atom_site_fract_y
_atom_site_fract_z
Si Si1 0.387496 0.527927 0.341491
Si Si2 0.863242 0.431104 0.087981
Si Si3 0.556773 0.674811 0.370166
Si Si4 0.286739 0.341844 0.274998
O O1 0.500000 0.500000 0.500000
O O2 0.480934 0.532088 0.155784
O O3 0.396618 0.631988 0.350186
O O4 0.292968 0.443242 0.333052
O O5 0.750000 0.500000 0.071500
O O6 0.844523 0.368863 0.927841
O O7 0.828911 0.383109 0.271549
O O8 0.565872 0.750000 0.250000
O O9 0.589423 0.680214 0.575424
O O10 0.233069 0.250000 0.250000
#
# Coordination Sequence:
#
# PCOD9412533 Si02
#       4
#     8   8   8   8
#     4  10  25  48  74 111 161 197 259 330 386 474
#     4  10  25  49  79 113 159 204 264 325 403 472
#     4  10  23  51  76 109 158 211 262 324 394 476
#     4  12  23  44  78 113 150 205 271 329 392 471
#
# _framework density 27.356164
#
# number of rings (size 3 to 8) (size 9 to 14) (size 15 to 20)
#    1.500    0.000    2.500    1.500    0.000    7.000 
#    9.000    2.500    0.000    1.500    0.000    1.750 
#    0.000    0.000    0.000    0.000    0.000    0.000 
#
# Total GULP energy -178160.115607 kJ/mol
# GULP energy per Si atom -5567.503613 kJ/mol
# Density = 2.729390 g / cm^3
# Si number density = 27.356164 Si / 1000 Ang^3
#
#
#
# Elastic Constant Matrix: (Units=GPa)
#
#
# Indices 1 2 3 4 5 6 
#
# 1 166.4409 86.9510 81.8973 0.0000 0.0000 0.0000
# 2 86.9510 255.3089 57.9521 0.0000 0.0000 0.0000
# 3 81.8973 57.9521 207.5482 0.0000 0.0000 0.0000
# 4 0.0000 0.0000 0.0000 73.4726 0.0000 0.0000
# 5 0.0000 0.0000 0.0000 0.0000 10.7144 0.0000
# 6 0.0000 0.0000 0.0000 0.0000 0.0000 61.3975
#
#
#
# Elastic Compliance Matrix: (Units=1/GPa)
#
#
# Indices 1 2 3 4 5 6 
#
# 1 0.008551 -0.002291 -0.002734 0.000000 0.000000 0.000000
# 2 -0.002291 0.004796 -0.000435 0.000000 0.000000 0.000000
# 3 -0.002734 -0.000435 0.006018 0.000000 0.000000 0.000000
# 4 0.000000 0.000000 0.000000 0.013611 0.000000 0.000000
# 5 0.000000 0.000000 0.000000 0.000000 0.093332 0.000000
# 6 0.000000 0.000000 0.000000 0.000000 0.000000 0.016287
#
#
# Mechanical properties :
#
#
# Convention : Reuss Voigt Hill
#
# Bulk Modulus (GPa) = 118.42916 120.32209 119.37563
# Shear Modulus (GPa) = 31.98347 55.95007 43.96677
#
# Velocity S-wave (km/s) = 3.42299 4.52735 4.01334
# Velocity P-wave (km/s) = 7.68167 8.45034 8.07515
#
# Compressibility (1/GPa) = 0.00844387
#
# Stress axis : x y z
#
# Youngs Moduli (GPa) = 116.95104 208.50890 166.15440
#
# Poissons Ratio (x) = 0.47779 0.45430
# Poissons Ratio (y) = 0.26799 0.07227
# Poissons Ratio (z) = 0.31977 0.09069
#
# Static dielectric constant tensor:
#      x y z
#    x 2.225160 0.000000 0.000000 
#    y 0.000000 2.472310 0.000000 
#    z 0.000000 0.000000 2.006110 
# 
# From -- ./inp_files/9824.got.cif
#   From: 2010.05.17/outbox.cif.g08.bks.cpg/sg52_5_cif.got.tgz:9824.got - 2010.06.03 12:15:38.
