data_PCOD9412874
_publ_section_title
;
Structure prediction by ZEFSAII (Michael W. Deem and Ramdas Pophale) SiO2 
 PCOD9412874
Probable space group: P N N A
;
_chemical_formula_sum "Si O2"
_cell_formula_units_Z 20
_cell_length_a 8.990372
_cell_length_b 14.708621
_cell_length_c 4.956361
_cell_angle_alpha 90.000000
_cell_angle_beta 90.000000
_cell_angle_gamma 90.000000
_cell_volume 655.409226
_symmetry_space_group_name_H-M "P N N A"
_symmetry_group_IT_number 52
_symmetry_cell_setting 'orthorhombic'
loop_
_space_group_symop_operation_xyz
x,y,z
1/2-x,-y,z
x,1/2-y,1/2-z
1/2-x,1/2+y,1/2-z
-x,-y,-z
1/2+x,y,-z
-x,1/2+y,1/2+z
1/2+x,1/2-y,1/2+z
loop_
_atom_site_type_symbol
_atom_site_label
_atom_site_fract_x
_atom_site_fract_y
_atom_site_fract_z
Si Si1 0.058198 0.101945 0.065568
Si Si2 0.368370 0.250000 0.250000
Si Si3 0.202002 0.902581 0.612592
O O1 0.976962 0.105058 0.359904
O O2 0.786489 0.896676 0.100363
O O3 0.972102 0.186399 0.930396
O O4 0.000000 0.000000 0.000000
O O5 0.264045 0.182208 0.421669
O O6 0.250000 0.000000 0.490190
#
# Coordination Sequence:
#
# PCOD9412874 Si02
#       3
#     8   4   8
#     4  10  25  49  78 113 158 209 269 332 406 487
#     4  12  26  44  80 124 160 204 268 340 418 480
#     4  10  25  51  81 118 157 214 270 338 405 492
#
# _framework density 30.515288999999999
#
# number of rings (size 3 to 8) (size 9 to 14) (size 15 to 20)
#    0.000    1.600    0.000    1.200    5.600   14.400 
#    0.000    0.000    0.000    2.400    0.000    0.000 
#    0.000    0.000    0.000    0.000    0.000    0.000 
#
# Total GULP energy -111881.327474 kJ/mol
# GULP energy per Si atom -5594.066374 kJ/mol
# Density = 3.044584 g / cm^3
# Si number density = 30.515289 Si / 1000 Ang^3
#
#
#
# Elastic Constant Matrix: (Units=GPa)
#
#
# Indices 1 2 3 4 5 6 
#
# 1 191.9243 71.6912 19.9385 0.0000 0.0000 0.0000
# 2 71.6912 250.8459 46.4664 0.0000 0.0000 0.0000
# 3 19.9385 46.4664 109.0272 0.0000 0.0000 0.0000
# 4 0.0000 0.0000 0.0000 68.9410 0.0000 0.0000
# 5 0.0000 0.0000 0.0000 0.0000 29.9376 0.0000
# 6 0.0000 0.0000 0.0000 0.0000 0.0000 68.9152
#
#
#
# Elastic Compliance Matrix: (Units=1/GPa)
#
#
# Indices 1 2 3 4 5 6 
#
# 1 0.005848 -0.001600 -0.000388 0.000000 0.000000 0.000000
# 2 -0.001600 0.004766 -0.001739 0.000000 0.000000 0.000000
# 3 -0.000388 -0.001739 0.009984 0.000000 0.000000 0.000000
# 4 0.000000 0.000000 0.000000 0.014505 0.000000 0.000000
# 5 0.000000 0.000000 0.000000 0.000000 0.033403 0.000000
# 6 0.000000 0.000000 0.000000 0.000000 0.000000 0.014511
#
#
# Mechanical properties :
#
#
# Convention : Reuss Voigt Hill
#
# Bulk Modulus (GPa) = 76.06903 91.99884 84.03394
# Shear Modulus (GPa) = 52.71472 61.13885 56.92678
#
# Velocity S-wave (km/s) = 4.16081 4.48096 4.32385
# Velocity P-wave (km/s) = 6.93292 7.54890 7.24746
#
# Compressibility (1/GPa) = 0.01314595
#
# Stress axis : x y z
#
# Youngs Moduli (GPa) = 170.99360 209.83213 100.16120
#
# Poissons Ratio (x) = 0.33564 0.03884
# Poissons Ratio (y) = 0.27351 0.17414
# Poissons Ratio (z) = 0.06631 0.36481
#
# Static dielectric constant tensor:
#      x y z
#    x 3.497230 0.000000 0.000000 
#    y 0.000000 2.386470 0.000000 
#    z 0.000000 0.000000 2.506910 
# 
# From -- ./inp_files/642.got.cif
#   From: 2010.05.17/outbox.cif.g08.bks.cpg/sg52_1_cif.got.tgz:642.got - 2010.06.03 12:15:38.
