data_PCOD9412006
_publ_section_title
;
Structure prediction by ZEFSAII (Michael W. Deem and Ramdas Pophale) SiO2 
 PCOD9412006
Probable space group: P N N A
;
_chemical_formula_sum "Si O2"
_cell_formula_units_Z 40
_cell_length_a 6.695554
_cell_length_b 9.619389
_cell_length_c 27.639826
_cell_angle_alpha 90.000000
_cell_angle_beta 90.000000
_cell_angle_gamma 90.000000
_cell_volume 1780.202101
_symmetry_space_group_name_H-M "P N N A"
_symmetry_group_IT_number 52
_symmetry_cell_setting 'orthorhombic'
loop_
_space_group_symop_operation_xyz
x,y,z
1/2-x,-y,z
x,1/2-y,1/2-z
1/2-x,1/2+y,1/2-z
-x,-y,-z
1/2+x,y,-z
-x,1/2+y,1/2+z
1/2+x,1/2-y,1/2+z
loop_
_atom_site_type_symbol
_atom_site_label
_atom_site_fract_x
_atom_site_fract_y
_atom_site_fract_z
Si Si1 0.433892 0.177659 0.614074
Si Si2 0.922526 0.750000 0.250000
Si Si3 0.697064 0.647879 0.572345
Si Si4 0.250000 0.500000 0.812438
Si Si5 0.872927 0.390449 0.003929
Si Si6 0.898607 0.622805 0.342436
O O1 0.631436 0.268287 0.602744
O O2 0.432288 0.044850 0.650773
O O3 0.358071 0.140167 0.561040
O O4 0.259173 0.265434 0.638261
O O5 0.800533 0.627642 0.223205
O O6 0.023051 0.675479 0.295930
O O7 0.750000 0.500000 0.547479
O O8 0.618394 0.758697 0.533088
O O9 0.539667 0.597307 0.612423
O O10 0.624420 0.428981 0.994552
O O11 0.750000 0.500000 0.328093
#
# Coordination Sequence:
#
# PCOD9412006 Si02
#       6
#     8   4   8   4   8   8
#     4  11  24  44  69 101 143 180 239 284 356 421
#     4  10  22  42  72 106 130 182 244 288 366 424
#     4  12  27  44  70 105 144 189 239 294 354 426
#     4  10  22  42  76 102 136 192 228 304 362 424
#     4  12  24  43  66  99 140 189 234 283 345 427
#     4  11  23  45  69  99 138 181 233 294 357 416
#
# _framework density 22.469358
#
# number of rings (size 3 to 8) (size 9 to 14) (size 15 to 20)
#    0.000    0.800    6.000    1.200    2.800    1.600 
#    0.000    6.000    0.000    0.000    0.000    0.000 
#    0.000    0.000    0.000    0.000    0.000    0.000 
#
# Total GULP energy -222707.370193 kJ/mol
# GULP energy per Si atom -5567.684255 kJ/mol
# Density = 2.241822 g / cm^3
# Si number density = 22.469358 Si / 1000 Ang^3
#
#
#
# Elastic Constant Matrix: (Units=GPa)
#
#
# Indices 1 2 3 4 5 6 
#
# 1 78.7418 34.8912 7.0352 0.0000 0.0000 0.0000
# 2 34.8912 132.1289 63.8189 0.0000 0.0000 0.0000
# 3 7.0352 63.8189 149.8937 0.0000 0.0000 0.0000
# 4 0.0000 0.0000 0.0000 38.7153 0.0000 0.0000
# 5 0.0000 0.0000 0.0000 0.0000 13.3626 0.0000
# 6 0.0000 0.0000 0.0000 0.0000 0.0000 28.0058
#
#
#
# Elastic Compliance Matrix: (Units=1/GPa)
#
#
# Indices 1 2 3 4 5 6 
#
# 1 0.014552 -0.004422 0.001200 0.000000 0.000000 0.000000
# 2 -0.004422 0.010872 -0.004421 0.000000 0.000000 0.000000
# 3 0.001200 -0.004421 0.008497 0.000000 0.000000 0.000000
# 4 0.000000 0.000000 0.000000 0.025830 0.000000 0.000000
# 5 0.000000 0.000000 0.000000 0.000000 0.074836 0.000000
# 6 0.000000 0.000000 0.000000 0.000000 0.000000 0.035707
#
#
# Mechanical properties :
#
#
# Convention : Reuss Voigt Hill
#
# Bulk Modulus (GPa) = 53.66553 63.58388 58.62471
# Shear Modulus (GPa) = 26.06994 33.01801 29.54398
#
# Velocity S-wave (km/s) = 3.40993 3.83752 3.63003
# Velocity P-wave (km/s) = 6.28007 6.92784 6.61189
#
# Compressibility (1/GPa) = 0.01863394
#
# Stress axis : x y z
#
# Youngs Moduli (GPa) = 68.71861 91.98286 117.68267
#
# Poissons Ratio (x) = 0.40678 -0.14120
# Poissons Ratio (y) = 0.30389 0.52029
# Poissons Ratio (z) = -0.08245 0.40667
#
# Static dielectric constant tensor:
#      x y z
#    x 1.867310 0.000000 0.000000 
#    y 0.000000 1.739710 0.000000 
#    z 0.000000 0.000000 1.768700 
# 
# From -- ./inp_files/41508.got.cif
#   From: 2010.05.17/outbox.cif.g08.bks.cpg/sg52_21_cif.got.tgz:41508.got - 2010.06.03 12:15:38.
