data_PCOD9412722
_publ_section_title
;
Structure prediction by ZEFSAII (Michael W. Deem and Ramdas Pophale) SiO2 
 PCOD9412722
Probable space group: P N N A
;
_chemical_formula_sum "Si O2"
_cell_formula_units_Z 40
_cell_length_a 19.361236
_cell_length_b 10.496601
_cell_length_c 8.773592
_cell_angle_alpha 90.000000
_cell_angle_beta 90.000000
_cell_angle_gamma 90.000000
_cell_volume 1783.032266
_symmetry_space_group_name_H-M "P N N A"
_symmetry_group_IT_number 52
_symmetry_cell_setting 'orthorhombic'
loop_
_space_group_symop_operation_xyz
x,y,z
1/2-x,-y,z
x,1/2-y,1/2-z
1/2-x,1/2+y,1/2-z
-x,-y,-z
1/2+x,y,-z
-x,1/2+y,1/2+z
1/2+x,1/2-y,1/2+z
loop_
_atom_site_type_symbol
_atom_site_label
_atom_site_fract_x
_atom_site_fract_y
_atom_site_fract_z
Si Si1 0.838753 0.760255 0.414108
Si Si2 0.267911 0.750000 0.250000
Si Si3 0.923781 0.017002 0.424602
Si Si4 0.062640 0.415111 0.446211
Si Si5 0.635034 0.889561 0.724223
Si Si6 0.025670 0.750000 0.750000
O O1 0.798912 0.750000 0.250000
O O2 0.805463 0.769840 0.586173
O O3 0.882705 0.630850 0.431635
O O4 0.889442 0.881100 0.394419
O O5 0.213928 0.866207 0.229140
O O6 0.873723 0.081258 0.548282
O O7 0.932929 0.122731 0.292767
O O8 0.000000 0.000000 0.500000
O O9 0.100852 0.496167 0.316310
O O10 0.000000 0.500000 0.500000
O O11 0.026107 0.288412 0.384116
O O12 0.600382 0.750000 0.750000
#
# Coordination Sequence:
#
# PCOD9412722 Si02
#       6
#     8   4   8   8   8   4
#     4  12  27  46  72 107 147 198 257 315 368 454
#     4  10  27  54  72 102 148 211 260 292 378 444
#     4  12  23  42  72 110 153 189 242 320 397 455
#     4  12  23  39  70 106 144 184 235 307 386 453
#     4  10  24  45  74  99 146 203 247 300 380 460
#     4  12  23  38  66 110 152 179 234 296 400 464
#
# _framework density 22.433693000000002
#
# number of rings (size 3 to 8) (size 9 to 14) (size 15 to 20)
#    0.600    0.000    4.000    4.200    0.000    3.200 
#    1.800    2.000    0.000    0.000    0.000    0.000 
#    0.000    0.000    0.000    0.000    0.000    0.000 
#
# Total GULP energy -223029.998942 kJ/mol
# GULP energy per Si atom -5575.749974 kJ/mol
# Density = 2.238263 g / cm^3
# Si number density = 22.433693 Si / 1000 Ang^3
#
#
#
# Elastic Constant Matrix: (Units=GPa)
#
#
# Indices 1 2 3 4 5 6 
#
# 1 72.2313 14.9346 38.1186 0.0000 0.0000 0.0000
# 2 14.9346 94.8963 18.8439 0.0000 0.0000 0.0000
# 3 38.1186 18.8439 140.8016 0.0000 0.0000 0.0000
# 4 0.0000 0.0000 0.0000 43.3060 0.0000 0.0000
# 5 0.0000 0.0000 0.0000 0.0000 23.8780 0.0000
# 6 0.0000 0.0000 0.0000 0.0000 0.0000 19.1297
#
#
#
# Elastic Compliance Matrix: (Units=1/GPa)
#
#
# Indices 1 2 3 4 5 6 
#
# 1 0.016430 -0.001749 -0.004214 0.000000 0.000000 0.000000
# 2 -0.001749 0.011012 -0.001000 0.000000 0.000000 0.000000
# 3 -0.004214 -0.001000 0.008377 0.000000 0.000000 0.000000
# 4 0.000000 0.000000 0.000000 0.023092 0.000000 0.000000
# 5 0.000000 0.000000 0.000000 0.000000 0.041880 0.000000
# 6 0.000000 0.000000 0.000000 0.000000 0.000000 0.052275
#
#
# Mechanical properties :
#
#
# Convention : Reuss Voigt Hill
#
# Bulk Modulus (GPa) = 45.67833 50.19149 47.93491
# Shear Modulus (GPa) = 28.68820 32.99821 30.84321
#
# Velocity S-wave (km/s) = 3.57991 3.83942 3.71193
# Velocity P-wave (km/s) = 6.12318 6.48666 6.30754
#
# Compressibility (1/GPa) = 0.02189222
#
# Stress axis : x y z
#
# Youngs Moduli (GPa) = 60.86494 90.81261 119.37637
#
# Poissons Ratio (x) = 0.15882 0.50304
# Poissons Ratio (y) = 0.10645 0.11941
# Poissons Ratio (z) = 0.25648 0.09084
#
# Static dielectric constant tensor:
#      x y z
#    x 1.857860 0.000000 0.000000 
#    y 0.000000 1.870040 0.000000 
#    z 0.000000 0.000000 1.893470 
# 
# From -- ./inp_files/14049.got.cif
#   From: 2010.05.17/outbox.cif.g08.bks.cpg/sg52_8_cif.got.tgz:14049.got - 2010.06.03 12:15:38.
