data_PCOD9412015
_publ_section_title
;
Structure prediction by ZEFSAII (Michael W. Deem and Ramdas Pophale) SiO2 
 PCOD9412015
Probable space group: P N N A
;
_chemical_formula_sum "Si O2"
_cell_formula_units_Z 36
_cell_length_a 9.331615
_cell_length_b 10.063435
_cell_length_c 17.523614
_cell_angle_alpha 90.000000
_cell_angle_beta 90.000000
_cell_angle_gamma 90.000000
_cell_volume 1645.609313
_symmetry_space_group_name_H-M "P N N A"
_symmetry_group_IT_number 52
_symmetry_cell_setting 'orthorhombic'
loop_
_space_group_symop_operation_xyz
x,y,z
1/2-x,-y,z
x,1/2-y,1/2-z
1/2-x,1/2+y,1/2-z
-x,-y,-z
1/2+x,y,-z
-x,1/2+y,1/2+z
1/2+x,1/2-y,1/2+z
loop_
_atom_site_type_symbol
_atom_site_label
_atom_site_fract_x
_atom_site_fract_y
_atom_site_fract_z
Si Si1 0.750000 0.500000 0.913506
Si Si2 0.750000 0.000000 0.321226
Si Si3 0.448618 0.094081 0.275679
Si Si4 0.441116 0.134360 0.037133
Si Si5 0.721903 0.201715 0.451301
Si Si6 0.750000 0.500000 0.656381
O O1 0.629578 0.562902 0.857046
O O2 0.692746 0.389518 0.973413
O O3 0.722089 0.881496 0.380255
O O4 0.886394 0.946911 0.276664
O O5 0.427957 0.250000 0.250000
O O6 0.378680 0.988751 0.216347
O O7 0.576421 0.218530 0.066231
O O8 0.318496 0.107683 0.100147
O O9 0.354042 0.206759 0.972020
O O10 0.500000 0.000000 0.000000
#
# Coordination Sequence:
#
# PCOD9412015 Si02
#       6
#     4   4   8   8   8   4
#     4  10  22  42  74 104 130 188 224 284 354 392
#     4  11  24  45  67 104 129 188 224 290 341 388
#     4  11  24  45  67  93 143 179 229 274 336 424
#     4  12  23  42  68 105 136 177 219 287 349 402
#     4  11  22  41  73 101 141 167 238 286 334 412
#     4  11  24  45  63  94 133 182 222 268 343 406
#
# _framework density 21.876394999999999
#
# number of rings (size 3 to 8) (size 9 to 14) (size 15 to 20)
#    0.000    0.889    2.222    5.333    0.000    3.556 
#    8.000    1.111    0.000    0.000    0.000    0.000 
#    0.000    0.000    0.000    0.000    0.000    0.000 
#
# Total GULP energy -200800.569301 kJ/mol
# GULP energy per Si atom -5577.793592 kJ/mol
# Density = 2.182660 g / cm^3
# Si number density = 21.876395 Si / 1000 Ang^3
#
#
#
# Elastic Constant Matrix: (Units=GPa)
#
#
# Indices 1 2 3 4 5 6 
#
# 1 71.3001 38.4468 3.9756 0.0000 0.0000 0.0000
# 2 38.4468 94.2052 20.1965 0.0000 0.0000 0.0000
# 3 3.9756 20.1965 50.3590 0.0000 0.0000 0.0000
# 4 0.0000 0.0000 0.0000 14.2112 0.0000 0.0000
# 5 0.0000 0.0000 0.0000 0.0000 21.1787 0.0000
# 6 0.0000 0.0000 0.0000 0.0000 0.0000 45.4310
#
#
#
# Elastic Compliance Matrix: (Units=1/GPa)
#
#
# Indices 1 2 3 4 5 6 
#
# 1 0.018111 -0.007752 0.001679 0.000000 0.000000 0.000000
# 2 -0.007752 0.014931 -0.005376 0.000000 0.000000 0.000000
# 3 0.001679 -0.005376 0.021881 0.000000 0.000000 0.000000
# 4 0.000000 0.000000 0.000000 0.070367 0.000000 0.000000
# 5 0.000000 0.000000 0.000000 0.000000 0.047217 0.000000
# 6 0.000000 0.000000 0.000000 0.000000 0.000000 0.022011
#
#
# Mechanical properties :
#
#
# Convention : Reuss Voigt Hill
#
# Bulk Modulus (GPa) = 31.22457 37.90023 34.56240
# Shear Modulus (GPa) = 21.92095 26.38054 24.15075
#
# Velocity S-wave (km/s) = 3.16893 3.47636 3.32620
# Velocity P-wave (km/s) = 5.26248 5.78583 5.53035
#
# Compressibility (1/GPa) = 0.03202606
#
# Stress axis : x y z
#
# Youngs Moduli (GPa) = 55.21377 66.97354 45.70170
#
# Poissons Ratio (x) = 0.51915 -0.07673
# Poissons Ratio (y) = 0.42799 0.24570
# Poissons Ratio (z) = -0.09270 0.36007
#
# Static dielectric constant tensor:
#      x y z
#    x 1.756090 0.000000 0.000000 
#    y 0.000000 1.781880 0.000000 
#    z 0.000000 0.000000 1.876010 
# 
# From -- ./inp_files/35616.got.cif
#   From: 2010.05.17/outbox.cif.g08.bks.cpg/sg52_18_cif.got.tgz:35616.got - 2010.06.03 12:15:38.
