data_PCOD9412973
_publ_section_title
;
Structure prediction by ZEFSAII (Michael W. Deem and Ramdas Pophale) SiO2 
 PCOD9412973
Probable space group: P N N A
;
_chemical_formula_sum "Si O2"
_cell_formula_units_Z 36
_cell_length_a 11.762507
_cell_length_b 15.215684
_cell_length_c 6.921712
_cell_angle_alpha 90.000000
_cell_angle_beta 90.000000
_cell_angle_gamma 90.000000
_cell_volume 1238.810564
_symmetry_space_group_name_H-M "P N N A"
_symmetry_group_IT_number 52
_symmetry_cell_setting 'orthorhombic'
loop_
_space_group_symop_operation_xyz
x,y,z
1/2-x,-y,z
x,1/2-y,1/2-z
1/2-x,1/2+y,1/2-z
-x,-y,-z
1/2+x,y,-z
-x,1/2+y,1/2+z
1/2+x,1/2-y,1/2+z
loop_
_atom_site_type_symbol
_atom_site_label
_atom_site_fract_x
_atom_site_fract_y
_atom_site_fract_z
Si Si1 0.254413 0.250000 0.250000
Si Si2 0.609202 0.070417 0.701297
Si Si3 0.074497 0.618710 0.304047
Si Si4 0.102731 0.837300 0.650663
Si Si5 0.171281 0.077877 0.737262
O O1 0.174459 0.164296 0.284854
O O2 0.343624 0.305724 0.389534
O O3 0.477294 0.088990 0.747083
O O4 0.629503 0.047865 0.475556
O O5 0.629257 0.978030 0.809127
O O6 0.939849 0.613131 0.348452
O O7 0.079682 0.646054 0.075939
O O8 0.059623 0.750000 0.750000
O O9 0.235285 0.848132 0.693127
O O10 0.250000 0.000000 0.817610
#
# Coordination Sequence:
#
# PCOD9412973 Si02
#       5
#     4   8   8   8   8
#     4  12  22  36  58  94 122 162 212 256 296 372
#     4  11  20  38  62  91 119 162 209 253 299 368
#     4  11  23  37  60  94 122 158 208 258 306 364
#     4  11  21  35  60  91 123 156 200 254 314 370
#     4  11  18  36  61  88 121 151 201 257 306 362
#
# _framework density 29.060134000000001
#
# number of rings (size 3 to 8) (size 9 to 14) (size 15 to 20)
#    0.000    0.889    7.778    2.000    1.556    0.000 
#    0.000    0.000    0.000    4.000    0.000    0.000 
#    0.000    0.000    0.000    0.000    0.000    0.000 
#
# Total GULP energy -201042.203312 kJ/mol
# GULP energy per Si atom -5584.505648 kJ/mol
# Density = 2.899399 g / cm^3
# Si number density = 29.060134 Si / 1000 Ang^3
#
#
#
# Elastic Constant Matrix: (Units=GPa)
#
#
# Indices 1 2 3 4 5 6 
#
# 1 230.5963 81.5899 29.2217 0.0000 0.0000 0.0000
# 2 81.5899 247.1436 7.1872 0.0000 0.0000 0.0000
# 3 29.2217 7.1872 101.5563 0.0000 0.0000 0.0000
# 4 0.0000 0.0000 0.0000 27.9343 0.0000 0.0000
# 5 0.0000 0.0000 0.0000 0.0000 24.0326 0.0000
# 6 0.0000 0.0000 0.0000 0.0000 0.0000 58.2517
#
#
#
# Elastic Compliance Matrix: (Units=1/GPa)
#
#
# Indices 1 2 3 4 5 6 
#
# 1 0.005088 -0.001640 -0.001348 0.000000 0.000000 0.000000
# 2 -0.001640 0.004584 0.000148 0.000000 0.000000 0.000000
# 3 -0.001348 0.000148 0.010224 0.000000 0.000000 0.000000
# 4 0.000000 0.000000 0.000000 0.035798 0.000000 0.000000
# 5 0.000000 0.000000 0.000000 0.000000 0.041610 0.000000
# 6 0.000000 0.000000 0.000000 0.000000 0.000000 0.017167
#
#
# Mechanical properties :
#
#
# Convention : Reuss Voigt Hill
#
# Bulk Modulus (GPa) = 70.35262 90.58821 80.47041
# Shear Modulus (GPa) = 40.03519 52.79689 46.41604
#
# Velocity S-wave (km/s) = 3.71572 4.26704 4.00089
# Velocity P-wave (km/s) = 6.53228 7.45098 7.00670
#
# Compressibility (1/GPa) = 0.01421411
#
# Stress axis : x y z
#
# Youngs Moduli (GPa) = 196.54810 218.17383 97.80774
#
# Poissons Ratio (x) = 0.35790 0.13183
# Poissons Ratio (y) = 0.32243 -0.01444
# Poissons Ratio (z) = 0.26492 -0.03221
#
# Static dielectric constant tensor:
#      x y z
#    x 2.306620 0.000000 0.000000 
#    y 0.000000 2.322130 0.000000 
#    z 0.000000 0.000000 2.316660 
# 
# From -- ./inp_files/17929.got.cif
#   From: 2010.05.17/outbox.cif.g08.bks.cpg/sg52_9_cif.got.tgz:17929.got - 2010.06.03 12:15:38.
