data_PCOD9412717
_publ_section_title
;
Structure prediction by ZEFSAII (Michael W. Deem and Ramdas Pophale) SiO2 
 PCOD9412717
Probable space group: P N N A
;
_chemical_formula_sum "Si O2"
_cell_formula_units_Z 32
_cell_length_a 15.298402
_cell_length_b 10.088425
_cell_length_c 7.936248
_cell_angle_alpha 90.000000
_cell_angle_beta 90.000000
_cell_angle_gamma 90.000000
_cell_volume 1224.854971
_symmetry_space_group_name_H-M "P N N A"
_symmetry_group_IT_number 52
_symmetry_cell_setting 'orthorhombic'
loop_
_space_group_symop_operation_xyz
x,y,z
1/2-x,-y,z
x,1/2-y,1/2-z
1/2-x,1/2+y,1/2-z
-x,-y,-z
1/2+x,y,-z
-x,1/2+y,1/2+z
1/2+x,1/2-y,1/2+z
loop_
_atom_site_type_symbol
_atom_site_label
_atom_site_fract_x
_atom_site_fract_y
_atom_site_fract_z
Si Si1 0.929735 0.612127 0.530581
Si Si2 0.655019 0.451385 0.879741
Si Si3 0.418148 0.285797 0.949531
Si Si4 0.761444 0.701860 0.437287
O O1 0.904065 0.594085 0.725647
O O2 0.837100 0.592371 0.435398
O O3 0.000000 0.500000 0.500000
O O4 0.988202 0.740764 0.480136
O O5 0.750000 0.500000 0.813149
O O6 0.610065 0.565371 0.995049
O O7 0.684951 0.320029 0.975682
O O8 0.426200 0.250000 0.750000
O O9 0.335064 0.199015 0.017204
O O10 0.745194 0.750000 0.250000
#
# Coordination Sequence:
#
# PCOD9412717 Si02
#       4
#     8   8   8   8
#     4  12  28  41  69 106 139 189 230 295 345 423
#     4  10  24  48  73 100 143 189 236 294 351 420
#     4  10  24  45  73 100 138 185 233 290 353 418
#     4  10  24  46  71 101 138 184 236 291 354 419
#
# _framework density 26.125543
#
# number of rings (size 3 to 8) (size 9 to 14) (size 15 to 20)
#    0.000    1.500    0.000    2.250   10.500    2.000 
#    0.000    0.000    0.000    0.000    0.000    0.000 
#    0.000    0.000    0.000    0.000    0.000    0.000 
#
# Total GULP energy -178759.598999 kJ/mol
# GULP energy per Si atom -5586.237469 kJ/mol
# Density = 2.606608 g / cm^3
# Si number density = 26.125543 Si / 1000 Ang^3
#
#
#
# Elastic Constant Matrix: (Units=GPa)
#
#
# Indices 1 2 3 4 5 6 
#
# 1 246.2884 15.7281 11.3884 0.0000 0.0000 0.0000
# 2 15.7281 63.4677 -9.3576 0.0000 0.0000 0.0000
# 3 11.3884 -9.3576 63.9075 0.0000 0.0000 0.0000
# 4 0.0000 0.0000 0.0000 34.2448 0.0000 0.0000
# 5 0.0000 0.0000 0.0000 0.0000 9.8034 0.0000
# 6 0.0000 0.0000 0.0000 0.0000 0.0000 -4.6396
#
#
#
# Elastic Compliance Matrix: (Units=1/GPa)
#
#
# Indices 1 2 3 4 5 6 
#
# 1 0.004177 -0.001170 -0.000916 0.000000 0.000000 0.000000
# 2 -0.001170 0.016432 0.002615 0.000000 0.000000 0.000000
# 3 -0.000916 0.002615 0.016194 0.000000 0.000000 0.000000
# 4 0.000000 0.000000 0.000000 0.029202 0.000000 0.000000
# 5 0.000000 0.000000 0.000000 0.000000 0.102005 0.000000
# 6 0.000000 0.000000 0.000000 0.000000 0.000000 -0.215535
#
#
# Mechanical properties :
#
#
# Convention : Reuss Voigt Hill
#
# Bulk Modulus (GPa) = 26.41341 45.46460 35.93901
# Shear Modulus (GPa) = -139.03210 31.60871 -53.71170
#
# Velocity S-wave (km/s) = -7.30291 3.48210 -4.53913
# Velocity P-wave (km/s) = 7.80883 5.79714 3.69939
#
# Compressibility (1/GPa) = 0.03785955
#
# Stress axis : x y z
#
# Youngs Moduli (GPa) = 239.38585 60.85869 61.75267
#
# Poissons Ratio (x) = 0.07122 0.05655
# Poissons Ratio (y) = 0.28013 -0.16145
# Poissons Ratio (z) = 0.21922 -0.15912
#
# Static dielectric constant tensor:
#      x y z
#    x 2.217570 0.000000 0.000000 
#    y 0.000000 2.306350 0.000000 
#    z 0.000000 0.000000 1.847040 
# 
# From -- ./inp_files/9575.got.cif
#   From: 2010.05.17/outbox.cif.g08.bks.cpg/sg52_5_cif.got.tgz:9575.got - 2010.06.03 12:15:38.
