data_PCOD9412879
_publ_section_title
;
Structure prediction by ZEFSAII (Michael W. Deem and Ramdas Pophale) SiO2 
 PCOD9412879
Probable space group: P N N A
;
_chemical_formula_sum "Si O2"
_cell_formula_units_Z 32
_cell_length_a 20.151307
_cell_length_b 7.660151
_cell_length_c 7.796301
_cell_angle_alpha 90.000000
_cell_angle_beta 90.000000
_cell_angle_gamma 90.000000
_cell_volume 1203.453040
_symmetry_space_group_name_H-M "P N N A"
_symmetry_group_IT_number 52
_symmetry_cell_setting 'orthorhombic'
loop_
_space_group_symop_operation_xyz
x,y,z
1/2-x,-y,z
x,1/2-y,1/2-z
1/2-x,1/2+y,1/2-z
-x,-y,-z
1/2+x,y,-z
-x,1/2+y,1/2+z
1/2+x,1/2-y,1/2+z
loop_
_atom_site_type_symbol
_atom_site_label
_atom_site_fract_x
_atom_site_fract_y
_atom_site_fract_z
Si Si1 0.161108 0.316885 0.447930
Si Si2 0.517215 0.750000 0.250000
Si Si3 0.872466 0.461106 0.060244
Si Si4 0.080615 0.574997 0.296242
Si Si5 0.250000 0.500000 0.689847
O O1 0.171989 0.250000 0.250000
O O2 0.116234 0.169829 0.539072
O O3 0.126248 0.507273 0.450732
O O4 0.225697 0.346116 0.562295
O O5 0.566518 0.657213 0.117488
O O6 0.469710 0.588404 0.296099
O O7 0.811142 0.449930 0.187301
O O8 0.865829 0.411485 0.860536
O O9 0.041133 0.750000 0.250000
#
# Coordination Sequence:
#
# PCOD9412879 Si02
#       5
#     8   4   8   8   4
#     4  10  25  51  78 113 162 210 263 336 410 491
#     4  12  26  52  78 116 164 216 270 340 392 496
#     4  11  27  49  77 116 160 206 269 334 403 471
#     4  11  26  48  82 115 159 216 268 326 411 479
#     4  12  28  48  82 118 154 206 268 334 404 478
#
# _framework density 26.590154999999999
#
# number of rings (size 3 to 8) (size 9 to 14) (size 15 to 20)
#    0.000    1.000    3.750    1.500    7.000    8.000 
#    0.000    0.000    0.000    0.000    0.000    0.000 
#    0.000    0.000    0.000    0.000    0.000    0.000 
#
# Total GULP energy -178421.677506 kJ/mol
# GULP energy per Si atom -5575.677422 kJ/mol
# Density = 2.652963 g / cm^3
# Si number density = 26.590155 Si / 1000 Ang^3
#
#
#
# Elastic Constant Matrix: (Units=GPa)
#
#
# Indices 1 2 3 4 5 6 
#
# 1 103.0564 46.9351 66.5063 0.0000 0.0000 0.0000
# 2 46.9351 206.6763 41.7728 0.0000 0.0000 0.0000
# 3 66.5063 41.7728 114.6164 0.0000 0.0000 0.0000
# 4 0.0000 0.0000 0.0000 40.9853 0.0000 0.0000
# 5 0.0000 0.0000 0.0000 0.0000 -19.9209 0.0000
# 6 0.0000 0.0000 0.0000 0.0000 0.0000 26.0447
#
#
#
# Elastic Compliance Matrix: (Units=1/GPa)
#
#
# Indices 1 2 3 4 5 6 
#
# 1 0.016188 -0.001919 -0.008693 0.000000 0.000000 0.000000
# 2 -0.001919 0.005451 -0.000873 0.000000 0.000000 0.000000
# 3 -0.008693 -0.000873 0.014087 0.000000 0.000000 0.000000
# 4 0.000000 0.000000 0.000000 0.024399 0.000000 0.000000
# 5 0.000000 0.000000 0.000000 0.000000 -0.050199 0.000000
# 6 0.000000 0.000000 0.000000 0.000000 0.000000 0.038396
#
#
# Mechanical properties :
#
#
# Convention : Reuss Voigt Hill
#
# Bulk Modulus (GPa) = 78.40305 81.64196 80.02250
# Shear Modulus (GPa) = 66.18619 27.36414 46.77516
#
# Velocity S-wave (km/s) = 4.99452 3.21145 4.19873
# Velocity P-wave (km/s) = 7.92528 6.67246 7.32570
#
# Compressibility (1/GPa) = 0.01275461
#
# Stress axis : x y z
#
# Youngs Moduli (GPa) = 61.77545 183.46123 70.98565
#
# Poissons Ratio (x) = 0.35207 0.61711
# Poissons Ratio (y) = 0.11855 0.06197
# Poissons Ratio (z) = 0.53704 0.16017
#
# Static dielectric constant tensor:
#      x y z
#    x 2.073050 0.000000 0.000000 
#    y 0.000000 2.423820 0.000000 
#    z 0.000000 0.000000 2.235690 
# 
# From -- ./inp_files/12875.got.cif
#   From: 2010.05.17/outbox.cif.g08.bks.cpg/sg52_7_cif.got.tgz:12875.got - 2010.06.03 12:15:38.
