data_PCOD9412696
_publ_section_title
;
Structure prediction by ZEFSAII (Michael W. Deem and Ramdas Pophale) SiO2 
 PCOD9412696
Probable space group: P N N A
;
_chemical_formula_sum "Si O2"
_cell_formula_units_Z 36
_cell_length_a 8.314752
_cell_length_b 20.054294
_cell_length_c 8.338108
_cell_angle_alpha 90.000000
_cell_angle_beta 90.000000
_cell_angle_gamma 90.000000
_cell_volume 1390.350168
_symmetry_space_group_name_H-M "P N N A"
_symmetry_group_IT_number 52
_symmetry_cell_setting 'orthorhombic'
loop_
_space_group_symop_operation_xyz
x,y,z
1/2-x,-y,z
x,1/2-y,1/2-z
1/2-x,1/2+y,1/2-z
-x,-y,-z
1/2+x,y,-z
-x,1/2+y,1/2+z
1/2+x,1/2-y,1/2+z
loop_
_atom_site_type_symbol
_atom_site_label
_atom_site_fract_x
_atom_site_fract_y
_atom_site_fract_z
Si Si1 0.843755 0.560400 0.658123
Si Si2 0.775687 0.634355 0.143435
Si Si3 0.521456 0.276258 0.905590
Si Si4 0.250000 0.500000 0.034957
Si Si5 0.038002 0.639457 0.418417
O O1 0.750000 0.500000 0.569329
O O2 0.878519 0.526734 0.831246
O O3 0.993202 0.591142 0.567059
O O4 0.704286 0.616830 0.662954
O O5 0.627713 0.683647 0.168598
O O6 0.890426 0.628838 0.296435
O O7 0.720459 0.563882 0.073256
O O8 0.880217 0.671930 0.009315
O O9 0.615243 0.250000 0.750000
O O10 0.466638 0.214994 0.017894
#
# Coordination Sequence:
#
# PCOD9412696 Si02
#       5
#     8   8   8   4   8
#     4  10  24  44  71 107 141 191 230 292 356 419
#     4  12  27  46  72 105 139 190 230 299 348 428
#     4  12  26  46  71 101 139 179 239 288 361 413
#     4  10  26  44  68 100 146 180 238 280 360 416
#     4  12  24  46  75 104 143 183 244 292 357 424
#
# _framework density 25.892758000000001
#
# number of rings (size 3 to 8) (size 9 to 14) (size 15 to 20)
#    0.667    0.000    0.000    8.000    1.556    5.333 
#    0.000    0.000    0.000    0.000    0.000    0.000 
#    0.000    0.000    0.000    0.000    0.000    0.000 
#
# Total GULP energy -201715.056541 kJ/mol
# GULP energy per Si atom -5603.196015 kJ/mol
# Density = 2.583383 g / cm^3
# Si number density = 25.892758 Si / 1000 Ang^3
#
#
#
# Elastic Constant Matrix: (Units=GPa)
#
#
# Indices 1 2 3 4 5 6 
#
# 1 75.9788 40.7830 29.1511 0.0000 0.0000 0.0000
# 2 40.7830 212.3412 65.7172 0.0000 0.0000 0.0000
# 3 29.1511 65.7172 130.6995 0.0000 0.0000 0.0000
# 4 0.0000 0.0000 0.0000 44.5984 0.0000 0.0000
# 5 0.0000 0.0000 0.0000 0.0000 19.8638 0.0000
# 6 0.0000 0.0000 0.0000 0.0000 0.0000 48.8193
#
#
#
# Elastic Compliance Matrix: (Units=1/GPa)
#
#
# Indices 1 2 3 4 5 6 
#
# 1 0.015228 -0.002219 -0.002281 0.000000 0.000000 0.000000
# 2 -0.002219 0.005901 -0.002472 0.000000 0.000000 0.000000
# 3 -0.002281 -0.002472 0.009403 0.000000 0.000000 0.000000
# 4 0.000000 0.000000 0.000000 0.022422 0.000000 0.000000
# 5 0.000000 0.000000 0.000000 0.000000 0.050343 0.000000
# 6 0.000000 0.000000 0.000000 0.000000 0.000000 0.020484
#
#
# Mechanical properties :
#
#
# Convention : Reuss Voigt Hill
#
# Bulk Modulus (GPa) = 60.28478 76.70244 68.49361
# Shear Modulus (GPa) = 34.90343 41.54749 38.22546
#
# Velocity S-wave (km/s) = 3.67549 4.01009 3.84643
# Velocity P-wave (km/s) = 6.43004 7.15042 6.79978
#
# Compressibility (1/GPa) = 0.01658793
#
# Stress axis : x y z
#
# Youngs Moduli (GPa) = 65.67017 169.47385 106.35151
#
# Poissons Ratio (x) = 0.37603 0.24256
# Poissons Ratio (y) = 0.14571 0.26290
# Poissons Ratio (z) = 0.14977 0.41894
#
# Static dielectric constant tensor:
#      x y z
#    x 1.998040 0.000000 0.000000 
#    y 0.000000 2.024020 0.000000 
#    z 0.000000 0.000000 2.044250 
# 
# From -- ./inp_files/7301.got.cif
#   From: 2010.05.17/outbox.cif.g08.bks.cpg/sg52_4_cif.got.tgz:7301.got - 2010.06.03 12:15:38.
