data_PCOD9412601
_publ_section_title
;
Structure prediction by ZEFSAII (Michael W. Deem and Ramdas Pophale) SiO2 
 PCOD9412601
Probable space group: P N N A
;
_chemical_formula_sum "Si O2"
_cell_formula_units_Z 44
_cell_length_a 13.740163
_cell_length_b 7.990635
_cell_length_c 16.843554
_cell_angle_alpha 90.000000
_cell_angle_beta 90.000000
_cell_angle_gamma 90.000000
_cell_volume 1849.298048
_symmetry_space_group_name_H-M "P N N A"
_symmetry_group_IT_number 52
_symmetry_cell_setting 'orthorhombic'
loop_
_space_group_symop_operation_xyz
x,y,z
1/2-x,-y,z
x,1/2-y,1/2-z
1/2-x,1/2+y,1/2-z
-x,-y,-z
1/2+x,y,-z
-x,1/2+y,1/2+z
1/2+x,1/2-y,1/2+z
loop_
_atom_site_type_symbol
_atom_site_label
_atom_site_fract_x
_atom_site_fract_y
_atom_site_fract_z
Si Si1 0.750000 0.500000 0.626662
Si Si2 0.879534 0.700255 0.107531
Si Si3 0.729069 0.700627 0.989059
Si Si4 0.989196 0.241526 0.461614
Si Si5 0.534830 0.973034 0.844218
Si Si6 0.411594 0.105121 0.702498
O O1 0.769334 0.668614 0.575319
O O2 0.649547 0.546090 0.669899
O O3 0.857624 0.558469 0.171612
O O4 0.960922 0.819040 0.145082
O O5 0.775644 0.757558 0.073446
O O6 0.932169 0.663141 0.021509
O O7 0.750000 0.500000 0.978325
O O8 0.614088 0.737268 0.993432
O O9 0.967061 0.149224 0.379068
O O10 0.020277 0.420708 0.425380
O O11 0.492086 0.063963 0.767926
O O12 0.353917 0.250000 0.750000
#
# Coordination Sequence:
#
# PCOD9412601 Si02
#       6
#     4   8   8   8   8   8
#     4  12  24  46  72 114 150 180 252 308 368 450
#     4  12  22  43  71 100 141 191 248 297 360 436
#     4  12  25  40  72 115 135 185 255 308 361 427
#     4  11  22  44  69 101 142 188 246 301 363 435
#     4  11  24  45  70 105 146 193 231 309 383 434
#     4  10  24  42  65  98 146 189 230 290 371 432
#
# _framework density 23.792814
#
# number of rings (size 3 to 8) (size 9 to 14) (size 15 to 20)
#    0.000    0.727    5.455    2.727    0.000    0.000 
#    0.000   16.364    0.000    0.000    0.000    0.000 
#    0.000    0.000    0.000    0.000    0.000    0.000 
#
# Total GULP energy -245337.307242 kJ/mol
# GULP energy per Si atom -5575.847892 kJ/mol
# Density = 2.373866 g / cm^3
# Si number density = 23.792814 Si / 1000 Ang^3
#
#
#
# Elastic Constant Matrix: (Units=GPa)
#
#
# Indices 1 2 3 4 5 6 
#
# 1 100.8874 28.9878 -18.7139 0.0000 0.0000 0.0000
# 2 28.9878 83.8817 12.7415 0.0000 0.0000 0.0000
# 3 -18.7139 12.7415 60.3105 0.0000 0.0000 0.0000
# 4 0.0000 0.0000 0.0000 39.5649 0.0000 0.0000
# 5 0.0000 0.0000 0.0000 0.0000 -1.2156 0.0000
# 6 0.0000 0.0000 0.0000 0.0000 0.0000 21.5490
#
#
#
# Elastic Compliance Matrix: (Units=1/GPa)
#
#
# Indices 1 2 3 4 5 6 
#
# 1 0.012238 -0.004965 0.004846 0.000000 0.000000 0.000000
# 2 -0.004965 0.014331 -0.004568 0.000000 0.000000 0.000000
# 3 0.004846 -0.004568 0.019050 0.000000 0.000000 0.000000
# 4 0.000000 0.000000 0.000000 0.025275 0.000000 0.000000
# 5 0.000000 0.000000 0.000000 0.000000 -0.822605 0.000000
# 6 0.000000 0.000000 0.000000 0.000000 0.000000 0.046406
#
#
# Mechanical properties :
#
#
# Convention : Reuss Voigt Hill
#
# Bulk Modulus (GPa) = 27.59077 32.34558 29.96818
# Shear Modulus (GPa) = -7.31155 26.78394 9.73620
#
# Velocity S-wave (km/s) = -1.75490 3.35881 2.02508
# Velocity P-wave (km/s) = 2.74139 5.35409 4.25332
#
# Compressibility (1/GPa) = 0.03624401
#
# Stress axis : x y z
#
# Youngs Moduli (GPa) = 81.71522 69.77716 52.49416
#
# Poissons Ratio (x) = 0.34646 -0.25440
# Poissons Ratio (y) = 0.40573 0.23981
# Poissons Ratio (z) = -0.39601 0.31877
#
# Static dielectric constant tensor:
#      x y z
#    x 1.891160 0.000000 0.000000 
#    y 0.000000 2.104250 0.000000 
#    z 0.000000 0.000000 1.887850 
# 
# From -- ./inp_files/32971.got.cif
#   From: 2010.05.17/outbox.cif.g08.bks.cpg/sg52_17_cif.got.tgz:32971.got - 2010.06.03 12:15:38.
