data_PCOD9412000
_publ_section_title
;
Structure prediction by ZEFSAII (Michael W. Deem and Ramdas Pophale) SiO2 
 PCOD9412000
Probable space group: P N N A
;
_chemical_formula_sum "Si O2"
_cell_formula_units_Z 64
_cell_length_a 8.631416
_cell_length_b 30.026575
_cell_length_c 12.075089
_cell_angle_alpha 90.000000
_cell_angle_beta 90.000000
_cell_angle_gamma 90.000000
_cell_volume 3129.523274
_symmetry_space_group_name_H-M "P N N A"
_symmetry_group_IT_number 52
_symmetry_cell_setting 'orthorhombic'
loop_
_space_group_symop_operation_xyz
x,y,z
1/2-x,-y,z
x,1/2-y,1/2-z
1/2-x,1/2+y,1/2-z
-x,-y,-z
1/2+x,y,-z
-x,1/2+y,1/2+z
1/2+x,1/2-y,1/2+z
loop_
_atom_site_type_symbol
_atom_site_label
_atom_site_fract_x
_atom_site_fract_y
_atom_site_fract_z
Si Si1 0.345493 0.630540 0.842305
Si Si2 0.864000 0.889142 0.936326
Si Si3 0.840518 0.791486 0.166657
Si Si4 0.856137 0.561252 0.336075
Si Si5 0.102318 0.602744 0.024989
Si Si6 0.147761 0.459916 0.082303
Si Si7 0.890209 0.323960 0.514447
Si Si8 0.997420 0.027684 0.185514
O O1 0.316652 0.666875 0.749173
O O2 0.394968 0.586006 0.776822
O O3 0.196439 0.620449 0.918275
O O4 0.493579 0.639841 0.920036
O O5 0.712464 0.859620 0.916144
O O6 0.898191 0.934461 0.871283
O O7 0.854135 0.904666 0.063470
O O8 0.004950 0.854503 0.933490
O O9 0.834719 0.750000 0.250000
O O10 0.001896 0.797471 0.099922
O O11 0.715222 0.794218 0.066825
O O12 0.976904 0.521780 0.363759
O O13 0.679815 0.544676 0.318656
O O14 0.985038 0.563192 0.989793
O O15 0.232052 0.580526 0.102723
O O16 0.250000 0.500000 0.031511
O O17 0.066092 0.477326 0.192368
#
# Coordination Sequence:
#
# PCOD9412000 Si02
#       8
#     8   8   8   8   8   8   8   8
#     4  11  21  44  62  90 125 175 209 277 330 388
#     4  11  20  40  63  92 131 174 215 259 317 400
#     4  11  25  46  75 101 137 162 204 268 330 398
#     4  11  21  38  58  88 132 179 215 278 327 368
#     4  10  24  38  61  84 121 168 227 261 328 374
#     4  11  22  38  54  85 119 170 222 278 310 367
#     4  10  22  42  71  99 128 175 210 248 333 401
#     4  11  23  34  57  92 130 171 233 271 318 373
#
# _framework density 20.450398
#
# number of rings (size 3 to 8) (size 9 to 14) (size 15 to 20)
#    0.000    1.250    5.000    1.500    1.750    3.000 
#    2.250    2.500    0.000    0.000    0.000    0.000 
#    0.000    0.000    0.000    0.000    0.000    0.000 
#
# Total GULP energy -357083.552204 kJ/mol
# GULP energy per Si atom -5579.430503 kJ/mol
# Density = 2.040385 g / cm^3
# Si number density = 20.450398 Si / 1000 Ang^3
#
#
#
# Elastic Constant Matrix: (Units=GPa)
#
#
# Indices 1 2 3 4 5 6 
#
# 1 101.2868 29.2151 34.7513 0.0000 0.0000 0.0000
# 2 29.2151 75.3316 38.4713 0.0000 0.0000 0.0000
# 3 34.7513 38.4713 80.6783 0.0000 0.0000 0.0000
# 4 0.0000 0.0000 0.0000 90.9645 0.0000 0.0000
# 5 0.0000 0.0000 0.0000 0.0000 0.2886 0.0000
# 6 0.0000 0.0000 0.0000 0.0000 0.0000 14.9568
#
#
#
# Elastic Compliance Matrix: (Units=1/GPa)
#
#
# Indices 1 2 3 4 5 6 
#
# 1 0.011974 -0.002657 -0.003891 0.000000 0.000000 0.000000
# 2 -0.002657 0.018137 -0.007504 0.000000 0.000000 0.000000
# 3 -0.003891 -0.007504 0.017649 0.000000 0.000000 0.000000
# 4 0.000000 0.000000 0.000000 0.010993 0.000000 0.000000
# 5 0.000000 0.000000 0.000000 0.000000 3.465171 0.000000
# 6 0.000000 0.000000 0.000000 0.000000 0.000000 0.066859
#
#
# Mechanical properties :
#
#
# Convention : Reuss Voigt Hill
#
# Bulk Modulus (GPa) = 50.87294 51.35244 51.11269
# Shear Modulus (GPa) = 1.37914 31.56593 16.47254
#
# Velocity S-wave (km/s) = 0.82210 3.93305 2.84119
# Velocity P-wave (km/s) = 5.08246 6.76686 5.98422
#
# Compressibility (1/GPa) = 0.01965682
#
# Stress axis : x y z
#
# Youngs Moduli (GPa) = 83.51272 55.13450 56.65941
#
# Poissons Ratio (x) = 0.14648 0.22045
# Poissons Ratio (y) = 0.22188 0.42520
# Poissons Ratio (z) = 0.32494 0.41375
#
# Static dielectric constant tensor:
#      x y z
#    x 1.778310 0.000000 0.000000 
#    y 0.000000 1.785860 0.000000 
#    z 0.000000 0.000000 1.717750 
# 
# From -- ./inp_files/17248.got.cif
#   From: 2010.05.17/outbox.cif.g08.bks.cpg/sg52_9_cif.got.tgz:17248.got - 2010.06.03 12:15:38.
