data_PCOD9412887
_publ_section_title
;
Structure prediction by ZEFSAII (Michael W. Deem and Ramdas Pophale) SiO2 
 PCOD9412887
Probable space group: P N N A
;
_chemical_formula_sum "Si O2"
_cell_formula_units_Z 32
_cell_length_a 12.793279
_cell_length_b 5.066917
_cell_length_c 23.354567
_cell_angle_alpha 90.000000
_cell_angle_beta 90.000000
_cell_angle_gamma 90.000000
_cell_volume 1513.901019
_symmetry_space_group_name_H-M "P N N A"
_symmetry_group_IT_number 52
_symmetry_cell_setting 'orthorhombic'
loop_
_space_group_symop_operation_xyz
x,y,z
1/2-x,-y,z
x,1/2-y,1/2-z
1/2-x,1/2+y,1/2-z
-x,-y,-z
1/2+x,y,-z
-x,1/2+y,1/2+z
1/2+x,1/2-y,1/2+z
loop_
_atom_site_type_symbol
_atom_site_label
_atom_site_fract_x
_atom_site_fract_y
_atom_site_fract_z
Si Si1 0.250000 0.500000 0.414903
Si Si2 0.869946 0.780028 0.687097
Si Si3 0.180277 0.250000 0.750000
Si Si4 0.999245 0.780166 0.165075
Si Si5 0.457462 0.255004 0.465274
O O1 0.192278 0.303673 0.369965
O O2 0.334757 0.329797 0.451408
O O3 0.819749 0.750000 0.750000
O O4 0.966525 0.572129 0.684861
O O5 0.909643 0.076945 0.682079
O O6 0.250000 0.500000 0.736903
O O7 0.104555 0.304689 0.803105
O O8 0.991107 0.757178 0.097349
O O9 0.500000 0.500000 0.500000
O O10 0.500000 0.000000 0.500000
#
# Coordination Sequence:
#
# PCOD9412887 Si02
#       5
#     4   8   4   8   8
#     4  10  26  42  72 106 132 182 238 272 350 424
#     4  11  21  40  70 102 140 166 207 282 353 421
#     4  12  24  42  70 100 136 178 234 282 336 414
#     4  11  23  44  68  98 135 179 220 280 352 392
#     4  11  25  47  69  95 140 181 230 291 336 400
#
# _framework density 21.137445
#
# number of rings (size 3 to 8) (size 9 to 14) (size 15 to 20)
#    0.000    1.000    2.500    4.500    0.000   13.000 
#    6.750    0.000    0.000    0.000    0.000    0.000 
#    0.000    0.000    0.000    0.000    0.000    0.000 
#
# Total GULP energy -178794.347947 kJ/mol
# GULP energy per Si atom -5587.323373 kJ/mol
# Density = 2.108934 g / cm^3
# Si number density = 21.137445 Si / 1000 Ang^3
#
#
#
# Elastic Constant Matrix: (Units=GPa)
#
#
# Indices 1 2 3 4 5 6 
#
# 1 101.9810 26.7151 49.5776 0.0000 0.0000 0.0000
# 2 26.7151 110.9233 44.0585 0.0000 0.0000 0.0000
# 3 49.5776 44.0585 169.5381 0.0000 0.0000 0.0000
# 4 0.0000 0.0000 0.0000 36.6216 0.0000 0.0000
# 5 0.0000 0.0000 0.0000 0.0000 48.2766 0.0000
# 6 0.0000 0.0000 0.0000 0.0000 0.0000 34.8294
#
#
#
# Elastic Compliance Matrix: (Units=1/GPa)
#
#
# Indices 1 2 3 4 5 6 
#
# 1 0.011688 -0.001625 -0.002995 0.000000 0.000000 0.000000
# 2 -0.001625 0.010279 -0.002196 0.000000 0.000000 0.000000
# 3 -0.002995 -0.002196 0.007345 0.000000 0.000000 0.000000
# 4 0.000000 0.000000 0.000000 0.027306 0.000000 0.000000
# 5 0.000000 0.000000 0.000000 0.000000 0.020714 0.000000
# 6 0.000000 0.000000 0.000000 0.000000 0.000000 0.028711
#
#
# Mechanical properties :
#
#
# Convention : Reuss Voigt Hill
#
# Bulk Modulus (GPa) = 63.78177 69.23831 66.51004
# Shear Modulus (GPa) = 40.03120 41.41825 40.72473
#
# Velocity S-wave (km/s) = 4.35656 4.43140 4.39414
# Velocity P-wave (km/s) = 7.45295 7.68182 7.56825
#
# Compressibility (1/GPa) = 0.01567846
#
# Stress axis : x y z
#
# Youngs Moduli (GPa) = 85.55999 97.28688 136.14665
#
# Poissons Ratio (x) = 0.15810 0.40783
# Poissons Ratio (y) = 0.13904 0.29898
# Poissons Ratio (z) = 0.25629 0.21364
#
# Static dielectric constant tensor:
#      x y z
#    x 1.767410 0.000000 0.000000 
#    y 0.000000 1.780540 0.000000 
#    z 0.000000 0.000000 1.707480 
# 
# From -- ./inp_files/39853.got.cif
#   From: 2010.05.17/outbox.cif.g08.bks.cpg/sg52_20_cif.got.tgz:39853.got - 2010.06.03 12:15:38.
