data_PCOD9412304
_publ_section_title
;
Structure prediction by ZEFSAII (Michael W. Deem and Ramdas Pophale) SiO2 
 PCOD9412304
Probable space group: P N N A
;
_chemical_formula_sum "Si O2"
_cell_formula_units_Z 40
_cell_length_a 17.933335
_cell_length_b 19.642278
_cell_length_c 5.359675
_cell_angle_alpha 90.000000
_cell_angle_beta 90.000000
_cell_angle_gamma 90.000000
_cell_volume 1887.953834
_symmetry_space_group_name_H-M "P N N A"
_symmetry_group_IT_number 52
_symmetry_cell_setting 'orthorhombic'
loop_
_space_group_symop_operation_xyz
x,y,z
1/2-x,-y,z
x,1/2-y,1/2-z
1/2-x,1/2+y,1/2-z
-x,-y,-z
1/2+x,y,-z
-x,1/2+y,1/2+z
1/2+x,1/2-y,1/2+z
loop_
_atom_site_type_symbol
_atom_site_label
_atom_site_fract_x
_atom_site_fract_y
_atom_site_fract_z
Si Si1 0.336081 0.168943 0.721957
Si Si2 0.284004 0.821583 0.383982
Si Si3 0.716789 0.072250 0.014098
Si Si4 0.094267 0.129164 0.705013
Si Si5 0.989189 0.831343 0.784984
O O1 0.321688 0.250000 0.750000
O O2 0.301176 0.159035 0.447624
O O3 0.283769 0.119033 0.879916
O O4 0.422015 0.157348 0.776104
O O5 0.287271 0.750000 0.250000
O O6 0.338812 0.819602 0.621845
O O7 0.313083 0.883013 0.214340
O O8 0.647472 0.066486 0.208073
O O9 0.750000 0.000000 0.945559
O O10 0.043440 0.129554 0.457989
O O11 0.045703 0.149538 0.946334
O O12 0.975679 0.750000 0.750000
#
# Coordination Sequence:
#
# PCOD9412304 Si02
#       5
#     8   8   8   8   8
#     4  10  23  41  68 103 138 180 228 283 340 409
#     4  11  22  39  74  99 136 179 238 283 335 392
#     4  11  25  45  70 101 139 181 231 284 341 405
#     4  11  24  42  65 101 135 176 226 276 340 403
#     4  11  24  39  68 102 142 175 221 284 346 401
#
# _framework density 21.186957
#
# number of rings (size 3 to 8) (size 9 to 14) (size 15 to 20)
#    0.000    1.200    4.000    1.200    5.600    3.200 
#    0.000    2.000    0.000    0.000    0.000    0.000 
#    0.000    0.000    0.000    0.000    0.000    0.000 
#
# Total GULP energy -222843.157557 kJ/mol
# GULP energy per Si atom -5571.078939 kJ/mol
# Density = 2.113873 g / cm^3
# Si number density = 21.186957 Si / 1000 Ang^3
#
#
#
# Elastic Constant Matrix: (Units=GPa)
#
#
# Indices 1 2 3 4 5 6 
#
# 1 147.7441 23.4790 54.5501 0.0000 0.0000 0.0000
# 2 23.4790 66.6987 23.9862 0.0000 0.0000 0.0000
# 3 54.5501 23.9862 115.2993 0.0000 0.0000 0.0000
# 4 0.0000 0.0000 0.0000 15.9992 0.0000 0.0000
# 5 0.0000 0.0000 0.0000 0.0000 43.2964 0.0000
# 6 0.0000 0.0000 0.0000 0.0000 0.0000 5.1681
#
#
#
# Elastic Compliance Matrix: (Units=1/GPa)
#
#
# Indices 1 2 3 4 5 6 
#
# 1 0.008365 -0.001644 -0.003615 0.000000 0.000000 0.000000
# 2 -0.001644 0.016528 -0.002661 0.000000 0.000000 0.000000
# 3 -0.003615 -0.002661 0.010937 0.000000 0.000000 0.000000
# 4 0.000000 0.000000 0.000000 0.062503 0.000000 0.000000
# 5 0.000000 0.000000 0.000000 0.000000 0.023097 0.000000
# 6 0.000000 0.000000 0.000000 0.000000 0.000000 0.193495
#
#
# Mechanical properties :
#
#
# Convention : Reuss Voigt Hill
#
# Bulk Modulus (GPa) = 50.02588 59.30809 54.66699
# Shear Modulus (GPa) = 14.81797 28.07451 21.44624
#
# Velocity S-wave (km/s) = 2.64747 3.64412 3.18502
# Velocity P-wave (km/s) = 5.74529 6.76459 6.27567
#
# Compressibility (1/GPa) = 0.01998965
#
# Stress axis : x y z
#
# Youngs Moduli (GPa) = 119.55083 60.50198 91.43224
#
# Poissons Ratio (x) = 0.09948 0.33056
# Poissons Ratio (y) = 0.19658 0.24326
# Poissons Ratio (z) = 0.43222 0.16097
#
# Static dielectric constant tensor:
#      x y z
#    x 1.800410 0.000000 0.000000 
#    y 0.000000 1.761880 0.000000 
#    z 0.000000 0.000000 1.887630 
# 
# From -- ./inp_files/3217.got.cif
#   From: 2010.05.17/outbox.cif.g08.bks.cpg/sg52_2_cif.got.tgz:3217.got - 2010.06.03 12:15:38.
