data_PCOD9412971
_publ_section_title
;
Structure prediction by ZEFSAII (Michael W. Deem and Ramdas Pophale) SiO2 
 PCOD9412971
Probable space group: P N N A
;
_chemical_formula_sum "Si O2"
_cell_formula_units_Z 64
_cell_length_a 20.878410
_cell_length_b 8.970485
_cell_length_c 16.319479
_cell_angle_alpha 90.000000
_cell_angle_beta 90.000000
_cell_angle_gamma 90.000000
_cell_volume 3056.466470
_symmetry_space_group_name_H-M "P N N A"
_symmetry_group_IT_number 52
_symmetry_cell_setting 'orthorhombic'
loop_
_space_group_symop_operation_xyz
x,y,z
1/2-x,-y,z
x,1/2-y,1/2-z
1/2-x,1/2+y,1/2-z
-x,-y,-z
1/2+x,y,-z
-x,1/2+y,1/2+z
1/2+x,1/2-y,1/2+z
loop_
_atom_site_type_symbol
_atom_site_label
_atom_site_fract_x
_atom_site_fract_y
_atom_site_fract_z
Si Si1 0.684793 0.428486 0.581810
Si Si2 0.428395 0.376557 0.472866
Si Si3 0.047495 0.496996 0.629862
Si Si4 0.091967 0.561189 0.093479
Si Si5 0.978222 0.907282 0.296949
Si Si6 0.151185 0.255476 0.839648
Si Si7 0.692901 0.380326 0.992813
Si Si8 0.686517 0.572437 0.760559
O O1 0.750000 0.500000 0.546831
O O2 0.620383 0.485915 0.538714
O O3 0.696088 0.253796 0.572405
O O4 0.677958 0.490451 0.673858
O O5 0.440736 0.365135 0.569817
O O6 0.493427 0.406675 0.422074
O O7 0.397292 0.229257 0.436966
O O8 0.111340 0.396380 0.641297
O O9 0.021579 0.521974 0.721272
O O10 0.019414 0.549550 0.124369
O O11 0.129487 0.540938 0.178294
O O12 0.124364 0.456101 0.026832
O O13 0.999633 0.750000 0.250000
O O14 0.906509 0.873018 0.325524
O O15 0.184204 0.250000 0.750000
O O16 0.191956 0.305162 0.917318
O O17 0.750000 0.500000 0.986953
O O18 0.750000 0.500000 0.797240
O O19 0.692986 0.750000 0.750000
#
# Coordination Sequence:
#
# PCOD9412971 Si02
#       8
#     8   8   8   8   8   8   8   8
#     4  11  24  40  61  86 129 176 228 264 322 395
#     4  11  18  35  62  96 121 168 216 273 325 387
#     4   9  18  33  66  92 122 159 225 264 324 397
#     4  12  22  36  63  96 138 168 214 265 335 389
#     4   9  17  36  61  94 122 172 209 257 332 391
#     4   9  19  42  69  90 120 165 215 275 341 403
#     4  12  27  43  62  95 134 171 217 278 331 391
#     4  11  24  37  58  87 130 182 220 264 311 384
#
# _framework density 20.939212000000001
#
# number of rings (size 3 to 8) (size 9 to 14) (size 15 to 20)
#    0.000    1.750    5.000    2.250    5.250    0.500 
#    0.000    0.625    2.750    3.000    0.000    0.000 
#    0.000    0.000    0.000    0.000    0.000    0.000 
#
# Total GULP energy -356971.012298 kJ/mol
# GULP energy per Si atom -5577.672067 kJ/mol
# Density = 2.089155 g / cm^3
# Si number density = 20.939212 Si / 1000 Ang^3
#
#
#
# Elastic Constant Matrix: (Units=GPa)
#
#
# Indices 1 2 3 4 5 6 
#
# 1 21.2350 10.9436 10.2937 0.0000 0.0000 0.0000
# 2 10.9436 66.9862 32.7483 0.0000 0.0000 0.0000
# 3 10.2937 32.7483 113.8726 0.0000 0.0000 0.0000
# 4 0.0000 0.0000 0.0000 23.1641 0.0000 0.0000
# 5 0.0000 0.0000 0.0000 0.0000 24.2506 0.0000
# 6 0.0000 0.0000 0.0000 0.0000 0.0000 12.9995
#
#
#
# Elastic Compliance Matrix: (Units=1/GPa)
#
#
# Indices 1 2 3 4 5 6 
#
# 1 0.052090 -0.007224 -0.002631 0.000000 0.000000 0.000000
# 2 -0.007224 0.018372 -0.004631 0.000000 0.000000 0.000000
# 3 -0.002631 -0.004631 0.010351 0.000000 0.000000 0.000000
# 4 0.000000 0.000000 0.000000 0.043170 0.000000 0.000000
# 5 0.000000 0.000000 0.000000 0.000000 0.041236 0.000000
# 6 0.000000 0.000000 0.000000 0.000000 0.000000 0.076926
#
#
# Mechanical properties :
#
#
# Convention : Reuss Voigt Hill
#
# Bulk Modulus (GPa) = 19.28911 34.45168 26.87039
# Shear Modulus (GPa) = 17.33710 21.95671 19.64691
#
# Velocity S-wave (km/s) = 2.88057 3.24171 3.06646
# Velocity P-wave (km/s) = 4.50506 5.52273 5.03965
#
# Compressibility (1/GPa) = 0.05184273
#
# Stress axis : x y z
#
# Youngs Moduli (GPa) = 19.19742 54.42935 96.60579
#
# Poissons Ratio (x) = 0.39318 0.25421
# Poissons Ratio (y) = 0.13867 0.44735
# Poissons Ratio (z) = 0.05052 0.25205
#
# Static dielectric constant tensor:
#      x y z
#    x 1.814050 0.000000 0.000000 
#    y 0.000000 1.776610 0.000000 
#    z 0.000000 0.000000 1.817270 
# 
# From -- ./inp_files/34380.got.cif
#   From: 2010.05.17/outbox.cif.g08.bks.cpg/sg52_18_cif.got.tgz:34380.got - 2010.06.03 12:15:38.
