data_PCOD9412181
_publ_section_title
;
Structure prediction by ZEFSAII (Michael W. Deem and Ramdas Pophale) SiO2 
 PCOD9412181
Probable space group: P N N A
;
_chemical_formula_sum "Si O2"
_cell_formula_units_Z 48
_cell_length_a 25.352120
_cell_length_b 15.174075
_cell_length_c 5.077783
_cell_angle_alpha 90.000000
_cell_angle_beta 90.000000
_cell_angle_gamma 90.000000
_cell_volume 1953.397580
_symmetry_space_group_name_H-M "P N N A"
_symmetry_group_IT_number 52
_symmetry_cell_setting 'orthorhombic'
loop_
_space_group_symop_operation_xyz
x,y,z
1/2-x,-y,z
x,1/2-y,1/2-z
1/2-x,1/2+y,1/2-z
-x,-y,-z
1/2+x,y,-z
-x,1/2+y,1/2+z
1/2+x,1/2-y,1/2+z
loop_
_atom_site_type_symbol
_atom_site_label
_atom_site_fract_x
_atom_site_fract_y
_atom_site_fract_z
Si Si1 0.605521 0.250000 0.250000
Si Si2 0.086403 0.847263 0.361916
Si Si3 0.702261 0.812846 0.496884
Si Si4 0.250000 0.500000 0.919606
Si Si5 0.644956 0.427406 0.129925
Si Si6 0.982465 0.837095 0.630890
Si Si7 0.090855 0.474542 0.397835
O O1 0.645190 0.331367 0.260040
O O2 0.565208 0.211117 0.468942
O O3 0.078533 0.750000 0.250000
O O4 0.140532 0.842132 0.528473
O O5 0.030620 0.878282 0.477129
O O6 0.094775 0.922195 0.146761
O O7 0.716633 0.750000 0.250000
O O8 0.736150 0.902986 0.542022
O O9 0.705905 0.750000 0.750000
O O10 0.303931 0.521247 0.773864
O O11 0.595793 0.465363 0.289211
O O12 0.634891 0.437761 0.817785
O O13 0.009171 0.750000 0.750000
O O14 0.957384 0.910767 0.817412
#
# Coordination Sequence:
#
# PCOD9412181 Si02
#       7
#     4   8   8   4   8   8   8
#     4  10  22  46  62 110 138 190 234 306 352 448
#     4  11  24  44  71 105 151 196 242 294 369 447
#     4  11  28  50  74 111 151 194 258 315 377 451
#     4  12  28  52  80 108 146 206 254 320 386 434
#     4  11  26  45  74 101 147 183 253 299 373 422
#     4  11  21  42  72 104 145 191 242 286 379 431
#     4  11  25  46  68 107 147 189 236 309 350 450
#
# _framework density 24.572568
#
# number of rings (size 3 to 8) (size 9 to 14) (size 15 to 20)
#    0.000    1.000    4.167    1.000    5.833    4.000 
#    0.000    3.333    0.000    0.000    0.000    0.000 
#    0.000    0.000    0.000    0.000    0.000    0.000 
#
# Total GULP energy -267376.953137 kJ/mol
# GULP energy per Si atom -5570.353190 kJ/mol
# Density = 2.451664 g / cm^3
# Si number density = 24.572568 Si / 1000 Ang^3
#
#
#
# Elastic Constant Matrix: (Units=GPa)
#
#
# Indices 1 2 3 4 5 6 
#
# 1 70.1730 27.1734 17.6967 0.0000 0.0000 0.0000
# 2 27.1734 170.3958 27.9173 0.0000 0.0000 0.0000
# 3 17.6967 27.9173 81.9700 0.0000 0.0000 0.0000
# 4 0.0000 0.0000 0.0000 17.9558 0.0000 0.0000
# 5 0.0000 0.0000 0.0000 0.0000 4.7024 0.0000
# 6 0.0000 0.0000 0.0000 0.0000 0.0000 1.9012
#
#
#
# Elastic Compliance Matrix: (Units=1/GPa)
#
#
# Indices 1 2 3 4 5 6 
#
# 1 0.015730 -0.002067 -0.002692 0.000000 0.000000 0.000000
# 2 -0.002067 0.006487 -0.001763 0.000000 0.000000 0.000000
# 3 -0.002692 -0.001763 0.013381 0.000000 0.000000 0.000000
# 4 0.000000 0.000000 0.000000 0.055692 0.000000 0.000000
# 5 0.000000 0.000000 0.000000 0.000000 0.212659 0.000000
# 6 0.000000 0.000000 0.000000 0.000000 0.000000 0.525988
#
#
# Mechanical properties :
#
#
# Convention : Reuss Voigt Hill
#
# Bulk Modulus (GPa) = 44.33878 52.01263 48.17570
# Shear Modulus (GPa) = 5.87889 21.56196 13.72042
#
# Velocity S-wave (km/s) = 1.54844 2.96544 2.36554
# Velocity P-wave (km/s) = 4.61303 5.73917 5.20664
#
# Compressibility (1/GPa) = 0.02255362
#
# Stress axis : x y z
#
# Youngs Moduli (GPa) = 63.57310 154.14853 74.73172
#
# Poissons Ratio (x) = 0.31870 0.20117
# Poissons Ratio (y) = 0.13143 0.13176
# Poissons Ratio (z) = 0.17113 0.27178
#
# Static dielectric constant tensor:
#      x y z
#    x 2.005690 0.000000 0.000000 
#    y 0.000000 2.006510 0.000000 
#    z 0.000000 0.000000 2.025550 
# 
# From -- ./inp_files/5828.got.cif
#   From: 2010.05.17/outbox.cif.g08.bks.cpg/sg52_3_cif.got.tgz:5828.got - 2010.06.03 12:15:38.
