data_PCOD9412390
_publ_section_title
;
Structure prediction by ZEFSAII (Michael W. Deem and Ramdas Pophale) SiO2 
 PCOD9412390
Probable space group: P N N A
;
_chemical_formula_sum "Si O2"
_cell_formula_units_Z 20
_cell_length_a 20.525380
_cell_length_b 7.740082
_cell_length_c 5.439089
_cell_angle_alpha 90.000000
_cell_angle_beta 90.000000
_cell_angle_gamma 90.000000
_cell_volume 864.097867
_symmetry_space_group_name_H-M "P N N A"
_symmetry_group_IT_number 52
_symmetry_cell_setting 'orthorhombic'
loop_
_space_group_symop_operation_xyz
x,y,z
1/2-x,-y,z
x,1/2-y,1/2-z
1/2-x,1/2+y,1/2-z
-x,-y,-z
1/2+x,y,-z
-x,1/2+y,1/2+z
1/2+x,1/2-y,1/2+z
loop_
_atom_site_type_symbol
_atom_site_label
_atom_site_fract_x
_atom_site_fract_y
_atom_site_fract_z
Si Si1 0.460519 0.544822 0.748223
Si Si2 0.730501 0.301986 0.500330
Si Si3 0.646311 0.750000 0.250000
O O1 0.448783 0.750000 0.750000
O O2 0.500000 0.500000 0.500000
O O3 0.398408 0.417622 0.729810
O O4 0.500000 0.500000 0.000000
O O5 0.750000 0.500000 0.500778
O O6 0.695598 0.250000 0.250000
O O7 0.801705 0.211975 0.469122
O O8 0.696650 0.250000 0.750000
#
# Coordination Sequence:
#
# PCOD9412390 Si02
#       3
#     8   8   4
#     4  12  24  43  69  98 137 176 218 274 324 397
#     4  10  23  43  68  93 132 167 223 276 327 389
#     4  10  26  42  72  96 138 172 232 254 352 384
#
# _framework density 23.145527999999999
#
# number of rings (size 3 to 8) (size 9 to 14) (size 15 to 20)
#    1.200    0.000    4.000    1.200    5.600    1.600 
#    0.000    0.000    0.000    0.000    0.000    0.000 
#    0.000    0.000    0.000    0.000    0.000    0.000 
#
# Total GULP energy -111635.374593 kJ/mol
# GULP energy per Si atom -5581.768730 kJ/mol
# Density = 2.309285 g / cm^3
# Si number density = 23.145528 Si / 1000 Ang^3
#
#
#
# Elastic Constant Matrix: (Units=GPa)
#
#
# Indices 1 2 3 4 5 6 
#
# 1 104.0565 24.8270 18.0900 0.0000 0.0000 0.0000
# 2 24.8270 170.6995 35.2483 0.0000 0.0000 0.0000
# 3 18.0900 35.2483 205.4784 0.0000 0.0000 0.0000
# 4 0.0000 0.0000 0.0000 36.5776 0.0000 0.0000
# 5 0.0000 0.0000 0.0000 0.0000 -13.4823 0.0000
# 6 0.0000 0.0000 0.0000 0.0000 0.0000 45.2250
#
#
#
# Elastic Compliance Matrix: (Units=1/GPa)
#
#
# Indices 1 2 3 4 5 6 
#
# 1 0.010040 -0.001325 -0.000657 0.000000 0.000000 0.000000
# 2 -0.001325 0.006248 -0.000955 0.000000 0.000000 0.000000
# 3 -0.000657 -0.000955 0.005088 0.000000 0.000000 0.000000
# 4 0.000000 0.000000 0.000000 0.027339 0.000000 0.000000
# 5 0.000000 0.000000 0.000000 0.000000 -0.074171 0.000000
# 6 0.000000 0.000000 0.000000 0.000000 0.000000 0.022112
#
#
# Mechanical properties :
#
#
# Convention : Reuss Voigt Hill
#
# Bulk Modulus (GPa) = 64.50065 70.72945 67.61505
# Shear Modulus (GPa) = 649.58032 40.46869 345.02450
#
# Velocity S-wave (km/s) = 16.77080 4.18598 12.22256
# Velocity P-wave (km/s) = 20.07339 7.34766 15.11504
#
# Compressibility (1/GPa) = 0.01550372
#
# Stress axis : x y z
#
# Youngs Moduli (GPa) = 99.59771 160.04716 196.52686
#
# Poissons Ratio (x) = 0.21201 0.12906
# Poissons Ratio (y) = 0.13194 0.18772
# Poissons Ratio (z) = 0.06541 0.15288
#
# Static dielectric constant tensor:
#      x y z
#    x 1.858960 0.000000 0.000000 
#    y 0.000000 1.847850 0.000000 
#    z 0.000000 0.000000 2.541190 
# 
# From -- ./inp_files/4683.got.cif
#   From: 2010.05.17/outbox.cif.g08.bks.cpg/sg52_3_cif.got.tgz:4683.got - 2010.06.03 12:15:38.
