data_PCOD9412592
_publ_section_title
;
Structure prediction by ZEFSAII (Michael W. Deem and Ramdas Pophale) SiO2 
 PCOD9412592
Probable space group: P N N A
;
_chemical_formula_sum "Si O2"
_cell_formula_units_Z 56
_cell_length_a 14.924553
_cell_length_b 14.349470
_cell_length_c 11.706008
_cell_angle_alpha 90.000000
_cell_angle_beta 90.000000
_cell_angle_gamma 90.000000
_cell_volume 2506.951949
_symmetry_space_group_name_H-M "P N N A"
_symmetry_group_IT_number 52
_symmetry_cell_setting 'orthorhombic'
loop_
_space_group_symop_operation_xyz
x,y,z
1/2-x,-y,z
x,1/2-y,1/2-z
1/2-x,1/2+y,1/2-z
-x,-y,-z
1/2+x,y,-z
-x,1/2+y,1/2+z
1/2+x,1/2-y,1/2+z
loop_
_atom_site_type_symbol
_atom_site_label
_atom_site_fract_x
_atom_site_fract_y
_atom_site_fract_z
Si Si1 0.332973 0.111609 0.628049
Si Si2 0.621155 0.356241 0.790133
Si Si3 0.531138 0.623387 0.579980
Si Si4 0.812166 0.136988 0.763713
Si Si5 0.855974 0.597383 0.050815
Si Si6 0.948755 0.336136 0.927676
Si Si7 0.954073 0.054939 0.175715
O O1 0.229237 0.141771 0.617284
O O2 0.402876 0.172028 0.553096
O O3 0.367264 0.090780 0.755878
O O4 0.340679 0.012373 0.563740
O O5 0.604718 0.250000 0.750000
O O6 0.710899 0.396256 0.732535
O O7 0.535992 0.416835 0.757551
O O8 0.644484 0.361760 0.923450
O O9 0.630460 0.604525 0.628892
O O10 0.521602 0.731942 0.606979
O O11 0.529373 0.604793 0.445470
O O12 0.462154 0.554334 0.643451
O O13 0.803108 0.250000 0.750000
O O14 0.873796 0.118199 0.653513
O O15 0.959340 0.608913 0.084383
#
# Coordination Sequence:
#
# PCOD9412592 Si02
#       7
#     8   8   8   8   8   8   8
#     4  11  24  39  67 100 133 166 222 288 330 393
#     4  11  22  38  67  99 128 165 224 277 335 396
#     4  10  24  42  63  91 133 182 221 265 340 404
#     4   9  20  38  63  95 127 162 215 272 322 392
#     4  11  23  39  66 103 129 169 224 278 341 391
#     4  11  20  41  71  94 131 171 223 284 334 395
#     4  11  24  43  65  95 136 177 222 274 335 406
#
# _framework density 22.337883999999999
#
# number of rings (size 3 to 8) (size 9 to 14) (size 15 to 20)
#    0.000    1.429    2.857    2.143    2.000    0.571 
#    0.000    7.143   12.571    0.000    0.000    0.000 
#    0.000    0.000    0.000    0.000    0.000    0.000 
#
# Total GULP energy -312624.480331 kJ/mol
# GULP energy per Si atom -5582.580006 kJ/mol
# Density = 2.228704 g / cm^3
# Si number density = 22.337884 Si / 1000 Ang^3
#
#
#
# Elastic Constant Matrix: (Units=GPa)
#
#
# Indices 1 2 3 4 5 6 
#
# 1 86.3222 -23.5371 9.3004 0.0000 0.0000 0.0000
# 2 -23.5371 29.0779 -22.6035 0.0000 0.0000 0.0000
# 3 9.3004 -22.6035 76.8852 0.0000 0.0000 0.0000
# 4 0.0000 0.0000 0.0000 14.3771 0.0000 0.0000
# 5 0.0000 0.0000 0.0000 0.0000 -70.5455 0.0000
# 6 0.0000 0.0000 0.0000 0.0000 0.0000 10.3834
#
#
#
# Elastic Compliance Matrix: (Units=1/GPa)
#
#
# Indices 1 2 3 4 5 6 
#
# 1 0.015173 0.014071 0.002301 0.000000 0.000000 0.000000
# 2 0.014071 0.057626 0.015239 0.000000 0.000000 0.000000
# 3 0.002301 0.015239 0.017208 0.000000 0.000000 0.000000
# 4 0.000000 0.000000 0.000000 0.069555 0.000000 0.000000
# 5 0.000000 0.000000 0.000000 0.000000 -0.014175 0.000000
# 6 0.000000 0.000000 0.000000 0.000000 0.000000 0.096308
#
#
# Mechanical properties :
#
#
# Convention : Reuss Voigt Hill
#
# Bulk Modulus (GPa) = 6.52612 13.17835 9.85224
# Shear Modulus (GPa) = 21.78183 6.11802 13.94993
#
# Velocity S-wave (km/s) = 3.12606 1.65674 2.50170
# Velocity P-wave (km/s) = 3.99469 3.09388 3.57279
#
# Compressibility (1/GPa) = 0.15323036
#
# Stress axis : x y z
#
# Youngs Moduli (GPa) = 65.90586 17.35323 58.11155
#
# Poissons Ratio (x) = -0.24417 -0.13373
# Poissons Ratio (y) = -0.92734 -0.88559
# Poissons Ratio (z) = -0.15166 -0.26445
#
# Static dielectric constant tensor:
#      x y z
#    x 1.882870 0.000000 0.000000 
#    y 0.000000 1.876550 0.000000 
#    z 0.000000 0.000000 1.875370 
# 
# From -- ./inp_files/19621.got.cif
#   From: 2010.05.17/outbox.cif.g08.bks.cpg/sg52_10_cif.got.tgz:19621.got - 2010.06.03 12:15:38.
