data_PCOD9412208
_publ_section_title
;
Structure prediction by ZEFSAII (Michael W. Deem and Ramdas Pophale) SiO2 
 PCOD9412208
Probable space group: P N N A
;
_chemical_formula_sum "Si O2"
_cell_formula_units_Z 32
_cell_length_a 13.056488
_cell_length_b 9.256153
_cell_length_c 9.878154
_cell_angle_alpha 90.000000
_cell_angle_beta 90.000000
_cell_angle_gamma 90.000000
_cell_volume 1193.803069
_symmetry_space_group_name_H-M "P N N A"
_symmetry_group_IT_number 52
_symmetry_cell_setting 'orthorhombic'
loop_
_space_group_symop_operation_xyz
x,y,z
1/2-x,-y,z
x,1/2-y,1/2-z
1/2-x,1/2+y,1/2-z
-x,-y,-z
1/2+x,y,-z
-x,1/2+y,1/2+z
1/2+x,1/2-y,1/2+z
loop_
_atom_site_type_symbol
_atom_site_label
_atom_site_fract_x
_atom_site_fract_y
_atom_site_fract_z
Si Si1 0.383006 0.663773 0.031000
Si Si2 0.802511 0.343549 0.544052
Si Si3 0.481804 0.906162 0.865960
Si Si4 0.099864 0.611255 0.862317
O O1 0.287017 0.739808 0.096277
O O2 0.483396 0.662254 0.121254
O O3 0.418461 0.764058 0.904828
O O4 0.369060 0.501448 0.979972
O O5 0.750000 0.500000 0.518617
O O6 0.836511 0.254908 0.405267
O O7 0.898147 0.361619 0.647218
O O8 0.415490 0.003638 0.764641
O O9 0.500000 0.000000 0.000000
#
# Coordination Sequence:
#
# PCOD9412208 Si02
#       4
#     8   8   8   8
#     4  10  22  47  71 109 144 193 261 306 380 462
#     4  11  23  46  73 110 150 195 261 312 382 469
#     4  11  23  46  70 104 151 194 244 311 384 450
#     4  10  24  45  77 102 154 200 243 326 386 446
#
# _framework density 26.80509
#
# number of rings (size 3 to 8) (size 9 to 14) (size 15 to 20)
#    0.000    1.500    2.500    1.500    0.000    4.000 
#   13.500   15.000    0.000    0.000    0.000    0.000 
#    0.000    0.000    0.000    0.000    0.000    0.000 
#
# Total GULP energy -178617.059802 kJ/mol
# GULP energy per Si atom -5581.783119 kJ/mol
# Density = 2.674408 g / cm^3
# Si number density = 26.805090 Si / 1000 Ang^3
#
#
#
# Elastic Constant Matrix: (Units=GPa)
#
#
# Indices 1 2 3 4 5 6 
#
# 1 146.1594 54.6058 -8.8098 0.0000 0.0000 0.0000
# 2 54.6058 216.4652 52.0608 0.0000 0.0000 0.0000
# 3 -8.8098 52.0608 68.4708 0.0000 0.0000 0.0000
# 4 0.0000 0.0000 0.0000 22.4629 0.0000 0.0000
# 5 0.0000 0.0000 0.0000 0.0000 9.0303 0.0000
# 6 0.0000 0.0000 0.0000 0.0000 0.0000 60.2491
#
#
#
# Elastic Compliance Matrix: (Units=1/GPa)
#
#
# Indices 1 2 3 4 5 6 
#
# 1 0.008079 -0.002800 0.003168 0.000000 0.000000 0.000000
# 2 -0.002800 0.006624 -0.005397 0.000000 0.000000 0.000000
# 3 0.003168 -0.005397 0.019116 0.000000 0.000000 0.000000
# 4 0.000000 0.000000 0.000000 0.044518 0.000000 0.000000
# 5 0.000000 0.000000 0.000000 0.000000 0.110738 0.000000
# 6 0.000000 0.000000 0.000000 0.000000 0.000000 0.016598
#
#
# Mechanical properties :
#
#
# Convention : Reuss Voigt Hill
#
# Bulk Modulus (GPa) = 42.08390 69.64544 55.86467
# Shear Modulus (GPa) = 22.35643 40.56437 31.46040
#
# Velocity S-wave (km/s) = 2.89110 3.89435 3.42961
# Velocity P-wave (km/s) = 5.18447 6.80146 6.04725
#
# Compressibility (1/GPa) = 0.02376205
#
# Stress axis : x y z
#
# Youngs Moduli (GPa) = 123.77885 150.96737 52.31288
#
# Poissons Ratio (x) = 0.42271 -0.16575
# Poissons Ratio (y) = 0.34658 0.28232
# Poissons Ratio (z) = -0.39219 0.81473
#
# Static dielectric constant tensor:
#      x y z
#    x 2.149370 0.000000 0.000000 
#    y 0.000000 1.994930 0.000000 
#    z 0.000000 0.000000 2.399050 
# 
# From -- ./inp_files/18991.got.cif
#   From: 2010.05.17/outbox.cif.g08.bks.cpg/sg52_10_cif.got.tgz:18991.got - 2010.06.03 12:15:38.
