data_PCOD9412275
_publ_section_title
;
Structure prediction by ZEFSAII (Michael W. Deem and Ramdas Pophale) SiO2 
 PCOD9412275
Probable space group: P N N A
;
_chemical_formula_sum "Si O2"
_cell_formula_units_Z 40
_cell_length_a 18.008667
_cell_length_b 19.840702
_cell_length_c 5.343487
_cell_angle_alpha 90.000000
_cell_angle_beta 90.000000
_cell_angle_gamma 90.000000
_cell_volume 1909.252460
_symmetry_space_group_name_H-M "P N N A"
_symmetry_group_IT_number 52
_symmetry_cell_setting 'orthorhombic'
loop_
_space_group_symop_operation_xyz
x,y,z
1/2-x,-y,z
x,1/2-y,1/2-z
1/2-x,1/2+y,1/2-z
-x,-y,-z
1/2+x,y,-z
-x,1/2+y,1/2+z
1/2+x,1/2-y,1/2+z
loop_
_atom_site_type_symbol
_atom_site_label
_atom_site_fract_x
_atom_site_fract_y
_atom_site_fract_z
Si Si1 0.658083 0.368762 0.696042
Si Si2 0.414902 0.170247 0.786150
Si Si3 0.741847 0.169774 0.292482
Si Si4 0.965372 0.927457 0.536700
Si Si5 0.965646 0.822434 0.126603
O O1 0.707893 0.369309 0.447285
O O2 0.606886 0.431417 0.783509
O O3 0.589951 0.320016 0.610529
O O4 0.706254 0.347342 0.937510
O O5 0.428779 0.250000 0.750000
O O6 0.330025 0.157588 0.721721
O O7 0.468749 0.120448 0.637774
O O8 0.448417 0.161718 0.064031
O O9 0.729460 0.250000 0.250000
O O10 0.939298 0.885126 0.294624
O O11 0.000000 0.000000 0.500000
O O12 0.960374 0.750000 0.250000
#
# Coordination Sequence:
#
# PCOD9412275 Si02
#       5
#     8   8   8   8   8
#     4  11  24  41  66  99 136 179 224 279 342 403
#     4  10  23  40  68 104 137 180 229 286 342 409
#     4  11  24  39  67 102 142 175 224 286 348 402
#     4  11  25  45  72 101 139 181 233 284 341 405
#     4  11  22  40  75 102 135 176 238 286 338 395
#
# _framework density 20.950607000000002
#
# number of rings (size 3 to 8) (size 9 to 14) (size 15 to 20)
#    0.000    1.200    4.000    1.200    5.600    3.200 
#    0.000    1.000    4.400    0.000    0.000    0.000 
#    0.000    0.000    0.000    0.000    0.000    0.000 
#
# Total GULP energy -222787.863421 kJ/mol
# GULP energy per Si atom -5569.696586 kJ/mol
# Density = 2.090292 g / cm^3
# Si number density = 20.950607 Si / 1000 Ang^3
#
#
#
# Elastic Constant Matrix: (Units=GPa)
#
#
# Indices 1 2 3 4 5 6 
#
# 1 152.2000 37.2762 54.4633 0.0000 0.0000 0.0000
# 2 37.2762 75.3629 31.0812 0.0000 0.0000 0.0000
# 3 54.4633 31.0812 111.8479 0.0000 0.0000 0.0000
# 4 0.0000 0.0000 0.0000 14.6336 0.0000 0.0000
# 5 0.0000 0.0000 0.0000 0.0000 -16.3085 0.0000
# 6 0.0000 0.0000 0.0000 0.0000 0.0000 26.4939
#
#
#
# Elastic Compliance Matrix: (Units=1/GPa)
#
#
# Indices 1 2 3 4 5 6 
#
# 1 0.008451 -0.002804 -0.003336 0.000000 0.000000 0.000000
# 2 -0.002804 0.015917 -0.003058 0.000000 0.000000 0.000000
# 3 -0.003336 -0.003058 0.011415 0.000000 0.000000 0.000000
# 4 0.000000 0.000000 0.000000 0.068336 0.000000 0.000000
# 5 0.000000 0.000000 0.000000 0.000000 -0.061318 0.000000
# 6 0.000000 0.000000 0.000000 0.000000 0.000000 0.037744
#
#
# Mechanical properties :
#
#
# Convention : Reuss Voigt Hill
#
# Bulk Modulus (GPa) = 57.51311 65.00580 61.25946
# Shear Modulus (GPa) = 47.73890 19.40315 33.57103
#
# Velocity S-wave (km/s) = 4.77869 3.04655 4.00733
# Velocity P-wave (km/s) = 7.61309 6.59324 7.12145
#
# Compressibility (1/GPa) = 0.01738734
#
# Stress axis : x y z
#
# Youngs Moduli (GPa) = 118.33245 62.82500 87.60603
#
# Poissons Ratio (x) = 0.17617 0.29223
# Poissons Ratio (y) = 0.33183 0.26788
# Poissons Ratio (z) = 0.39473 0.19210
#
# Static dielectric constant tensor:
#      x y z
#    x 1.793130 0.000000 0.000000 
#    y 0.000000 1.717310 0.000000 
#    z 0.000000 0.000000 1.878240 
# 
# From -- ./inp_files/3186.got.cif
#   From: 2010.05.17/outbox.cif.g08.bks.cpg/sg52_2_cif.got.tgz:3186.got - 2010.06.03 12:15:38.
