data_PCOD9412657
_publ_section_title
;
Structure prediction by ZEFSAII (Michael W. Deem and Ramdas Pophale) SiO2 
 PCOD9412657
Probable space group: P N N A
;
_chemical_formula_sum "Si O2"
_cell_formula_units_Z 28
_cell_length_a 13.758140
_cell_length_b 5.290754
_cell_length_c 16.562571
_cell_angle_alpha 90.000000
_cell_angle_beta 90.000000
_cell_angle_gamma 90.000000
_cell_volume 1205.605016
_symmetry_space_group_name_H-M "P N N A"
_symmetry_group_IT_number 52
_symmetry_cell_setting 'orthorhombic'
loop_
_space_group_symop_operation_xyz
x,y,z
1/2-x,-y,z
x,1/2-y,1/2-z
1/2-x,1/2+y,1/2-z
-x,-y,-z
1/2+x,y,-z
-x,1/2+y,1/2+z
1/2+x,1/2-y,1/2+z
loop_
_atom_site_type_symbol
_atom_site_label
_atom_site_fract_x
_atom_site_fract_y
_atom_site_fract_z
Si Si1 0.857928 0.107458 0.165260
Si Si2 0.315176 0.750000 0.250000
Si Si3 0.433718 0.254989 0.999963
Si Si4 0.936719 0.391180 0.666197
O O1 0.875286 0.250000 0.250000
O O2 0.869330 0.258402 0.080807
O O3 0.750000 0.000000 0.168943
O O4 0.946717 0.909687 0.158573
O O5 0.250000 0.500000 0.236386
O O6 0.387994 0.666480 0.321948
O O7 0.500000 0.500000 0.000000
O O8 0.387020 0.235587 0.088790
O O9 0.500000 0.000000 0.000000
O O10 0.922480 0.250000 0.750000
#
# Coordination Sequence:
#
# PCOD9412657 Si02
#       4
#     8   4   8   8
#     4  11  23  43  72 111 149 200 248 308 376 460
#     4  12  26  44  72 106 142 200 254 308 378 454
#     4  10  24  43  70 105 145 194 245 301 370 446
#     4  11  23  45  76 106 151 194 244 315 385 451
#
# _framework density 23.224855000000002
#
# number of rings (size 3 to 8) (size 9 to 14) (size 15 to 20)
#    0.000    1.143    2.857    2.571    4.000    3.429 
#    0.000    0.000    6.286    0.000    0.000    0.000 
#    0.000    0.000    0.000    0.000    0.000    0.000 
#
# Total GULP energy -156211.232861 kJ/mol
# GULP energy per Si atom -5578.972602 kJ/mol
# Density = 2.317199 g / cm^3
# Si number density = 23.224855 Si / 1000 Ang^3
#
#
#
# Elastic Constant Matrix: (Units=GPa)
#
#
# Indices 1 2 3 4 5 6 
#
# 1 108.2579 20.7125 19.7471 0.0000 0.0000 0.0000
# 2 20.7125 106.4464 37.2935 0.0000 0.0000 0.0000
# 3 19.7471 37.2935 238.6853 0.0000 0.0000 0.0000
# 4 0.0000 0.0000 0.0000 41.7704 0.0000 0.0000
# 5 0.0000 0.0000 0.0000 0.0000 12.0464 0.0000
# 6 0.0000 0.0000 0.0000 0.0000 0.0000 23.7451
#
#
#
# Elastic Compliance Matrix: (Units=1/GPa)
#
#
# Indices 1 2 3 4 5 6 
#
# 1 0.009658 -0.001692 -0.000535 0.000000 0.000000 0.000000
# 2 -0.001692 0.010235 -0.001459 0.000000 0.000000 0.000000
# 3 -0.000535 -0.001459 0.004462 0.000000 0.000000 0.000000
# 4 0.000000 0.000000 0.000000 0.023940 0.000000 0.000000
# 5 0.000000 0.000000 0.000000 0.000000 0.083012 0.000000
# 6 0.000000 0.000000 0.000000 0.000000 0.000000 0.042114
#
#
# Mechanical properties :
#
#
# Convention : Reuss Voigt Hill
#
# Bulk Modulus (GPa) = 58.88111 67.65510 63.26810
# Shear Modulus (GPa) = 26.81615 40.55481 33.68548
#
# Velocity S-wave (km/s) = 3.40167 4.18327 3.81255
# Velocity P-wave (km/s) = 6.39032 7.24753 6.83238
#
# Compressibility (1/GPa) = 0.01698338
#
# Stress axis : x y z
#
# Youngs Moduli (GPa) = 103.53612 97.70534 224.12270
#
# Poissons Ratio (x) = 0.16532 0.11984
# Poissons Ratio (y) = 0.17519 0.32703
# Poissons Ratio (z) = 0.05536 0.14257
#
# Static dielectric constant tensor:
#      x y z
#    x 1.878880 0.000000 0.000000 
#    y 0.000000 1.969410 0.000000 
#    z 0.000000 0.000000 2.043930 
# 
# From -- ./inp_files/32549.got.cif
#   From: 2010.05.17/outbox.cif.g08.bks.cpg/sg52_17_cif.got.tgz:32549.got - 2010.06.03 12:15:38.
