data_PCOD9412302
_publ_section_title
;
Structure prediction by ZEFSAII (Michael W. Deem and Ramdas Pophale) SiO2 
 PCOD9412302
Probable space group: P N N A
;
_chemical_formula_sum "Si O2"
_cell_formula_units_Z 48
_cell_length_a 14.820614
_cell_length_b 16.232249
_cell_length_c 9.776979
_cell_angle_alpha 90.000000
_cell_angle_beta 90.000000
_cell_angle_gamma 90.000000
_cell_volume 2352.066383
_symmetry_space_group_name_H-M "P N N A"
_symmetry_group_IT_number 52
_symmetry_cell_setting 'orthorhombic'
loop_
_space_group_symop_operation_xyz
x,y,z
1/2-x,-y,z
x,1/2-y,1/2-z
1/2-x,1/2+y,1/2-z
-x,-y,-z
1/2+x,y,-z
-x,1/2+y,1/2+z
1/2+x,1/2-y,1/2+z
loop_
_atom_site_type_symbol
_atom_site_label
_atom_site_fract_x
_atom_site_fract_y
_atom_site_fract_z
Si Si1 0.216985 0.321972 0.984050
Si Si2 0.398568 0.254848 0.589038
Si Si3 0.565987 0.470751 0.299483
Si Si4 0.750000 0.000000 0.355913
Si Si5 0.151180 0.250000 0.250000
Si Si6 0.963010 0.883420 0.922391
Si Si7 0.518135 0.316510 0.132899
O O1 0.293724 0.260562 0.930944
O O2 0.241943 0.415532 0.942767
O O3 0.120587 0.300777 0.916732
O O4 0.207552 0.305324 0.144887
O O5 0.417235 0.250000 0.750000
O O6 0.442503 0.339470 0.536532
O O7 0.452481 0.189169 0.496854
O O8 0.659818 0.502737 0.236892
O O9 0.581797 0.421580 0.442323
O O10 0.494931 0.542709 0.326871
O O11 0.521312 0.406170 0.197038
O O12 0.093954 0.185570 0.157530
O O13 0.494190 0.250000 0.250000
#
# Coordination Sequence:
#
# PCOD9412302 Si02
#       7
#     8   8   8   4   4   8   8
#     4  11  25  41  68  96 138 177 238 284 349 428
#     4  12  23  40  68  97 131 184 235 279 352 424
#     4  10  23  41  68 100 137 181 235 289 351 421
#     4  10  24  44  64 100 134 184 230 292 356 410
#     4  12  24  44  64 100 138 186 232 300 358 408
#     4  11  22  41  67  98 138 182 235 291 357 411
#     4  11  21  42  66  97 136 179 227 289 350 412
#
# _framework density 20.407586999999999
#
# number of rings (size 3 to 8) (size 9 to 14) (size 15 to 20)
#    0.000    1.000    4.167    1.500    1.167    5.333 
#    0.000    8.333    0.000    0.000    0.000    0.000 
#    0.000    0.000    0.000    0.000    0.000    0.000 
#
# Total GULP energy -268134.913209 kJ/mol
# GULP energy per Si atom -5586.144025 kJ/mol
# Density = 2.036114 g / cm^3
# Si number density = 20.407587 Si / 1000 Ang^3
#
#
#
# Elastic Constant Matrix: (Units=GPa)
#
#
# Indices 1 2 3 4 5 6 
#
# 1 57.7523 18.2143 48.2169 0.0000 0.0000 0.0000
# 2 18.2143 80.3248 60.6996 0.0000 0.0000 0.0000
# 3 48.2169 60.6996 137.9699 0.0000 0.0000 0.0000
# 4 0.0000 0.0000 0.0000 43.1859 0.0000 0.0000
# 5 0.0000 0.0000 0.0000 0.0000 21.2637 0.0000
# 6 0.0000 0.0000 0.0000 0.0000 0.0000 24.5724
#
#
#
# Elastic Compliance Matrix: (Units=1/GPa)
#
#
# Indices 1 2 3 4 5 6 
#
# 1 0.024550 0.001373 -0.009183 0.000000 0.000000 0.000000
# 2 0.001373 0.018726 -0.008718 0.000000 0.000000 0.000000
# 3 -0.009183 -0.008718 0.014293 0.000000 0.000000 0.000000
# 4 0.000000 0.000000 0.000000 0.023156 0.000000 0.000000
# 5 0.000000 0.000000 0.000000 0.000000 0.047029 0.000000
# 6 0.000000 0.000000 0.000000 0.000000 0.000000 0.040696
#
#
# Mechanical properties :
#
#
# Convention : Reuss Voigt Hill
#
# Bulk Modulus (GPa) = 40.79799 58.92317 49.86058
# Shear Modulus (GPa) = 23.84612 27.73214 25.78913
#
# Velocity S-wave (km/s) = 3.42203 3.69034 3.55872
# Velocity P-wave (km/s) = 5.97065 6.86251 6.43206
#
# Compressibility (1/GPa) = 0.02451101
#
# Stress axis : x y z
#
# Youngs Moduli (GPa) = 40.73402 53.40033 69.96431
#
# Poissons Ratio (x) = -0.07331 0.64251
# Poissons Ratio (y) = -0.05592 0.60998
# Poissons Ratio (z) = 0.37408 0.46557
#
# Static dielectric constant tensor:
#      x y z
#    x 1.735780 0.000000 0.000000 
#    y 0.000000 1.744490 0.000000 
#    z 0.000000 0.000000 1.751030 
# 
# From -- ./inp_files/10553.got.cif
#   From: 2010.05.17/outbox.cif.g08.bks.cpg/sg52_6_cif.got.tgz:10553.got - 2010.06.03 12:15:38.
