data_PCOD9412362
_publ_section_title
;
Structure prediction by ZEFSAII (Michael W. Deem and Ramdas Pophale) SiO2 
 PCOD9412362
Probable space group: P N N A
;
_chemical_formula_sum "Si O2"
_cell_formula_units_Z 40
_cell_length_a 8.193994
_cell_length_b 8.849444
_cell_length_c 26.880153
_cell_angle_alpha 90.000000
_cell_angle_beta 90.000000
_cell_angle_gamma 90.000000
_cell_volume 1949.141478
_symmetry_space_group_name_H-M "P N N A"
_symmetry_group_IT_number 52
_symmetry_cell_setting 'orthorhombic'
loop_
_space_group_symop_operation_xyz
x,y,z
1/2-x,-y,z
x,1/2-y,1/2-z
1/2-x,1/2+y,1/2-z
-x,-y,-z
1/2+x,y,-z
-x,1/2+y,1/2+z
1/2+x,1/2-y,1/2+z
loop_
_atom_site_type_symbol
_atom_site_label
_atom_site_fract_x
_atom_site_fract_y
_atom_site_fract_z
Si Si1 0.375221 0.876985 0.021231
Si Si2 0.914102 0.759414 0.083603
Si Si3 0.250000 0.500000 0.852073
Si Si4 0.988240 0.256271 0.192791
Si Si5 0.782966 0.820489 0.603086
Si Si6 0.250000 0.000000 0.847760
O O1 0.409738 0.751885 0.063074
O O2 0.250000 0.000000 0.042542
O O3 0.337274 0.782739 0.971050
O O4 0.500000 0.000000 0.000000
O O5 0.842527 0.616093 0.112243
O O6 0.864558 0.902346 0.116453
O O7 0.108405 0.741616 0.084924
O O8 0.121597 0.595805 0.819646
O O9 0.038817 0.250000 0.250000
O O10 0.142937 0.266446 0.155625
O O11 0.867723 0.114329 0.181963
O O12 0.750000 0.000000 0.603450
#
# Coordination Sequence:
#
# PCOD9412362 Si02
#       6
#     8   8   4   8   8   4
#     4  12  25  41  67  99 137 181 224 269 337 411
#     4  11  23  43  67  99 136 174 221 273 338 409
#     4  10  23  42  72  98 136 172 225 276 336 408
#     4  11  24  46  69  99 133 180 229 280 343 398
#     4  12  27  45  65 103 144 177 224 285 344 408
#     4  10  23  42  72 100 128 176 225 286 328 402
#
# _framework density 20.521856
#
# number of rings (size 3 to 8) (size 9 to 14) (size 15 to 20)
#    0.000    0.800    5.000    1.800    4.200    0.800 
#    3.600    1.000    0.000    0.000    0.000    0.000 
#    0.000    0.000    0.000    0.000    0.000    0.000 
#
# Total GULP energy -223053.758423 kJ/mol
# GULP energy per Si atom -5576.343961 kJ/mol
# Density = 2.047515 g / cm^3
# Si number density = 20.521856 Si / 1000 Ang^3
#
#
#
# Elastic Constant Matrix: (Units=GPa)
#
#
# Indices 1 2 3 4 5 6 
#
# 1 20.1508 20.6050 -1.4802 0.0000 0.0000 0.0000
# 2 20.6050 129.8673 57.3331 0.0000 0.0000 0.0000
# 3 -1.4802 57.3331 160.8805 0.0000 0.0000 0.0000
# 4 0.0000 0.0000 0.0000 7.4878 0.0000 0.0000
# 5 0.0000 0.0000 0.0000 0.0000 19.8913 0.0000
# 6 0.0000 0.0000 0.0000 0.0000 0.0000 24.1521
#
#
#
# Elastic Compliance Matrix: (Units=1/GPa)
#
#
# Indices 1 2 3 4 5 6 
#
# 1 0.062280 -0.012027 0.004859 0.000000 0.000000 0.000000
# 2 -0.012027 0.011460 -0.004195 0.000000 0.000000 0.000000
# 3 0.004859 -0.004195 0.007755 0.000000 0.000000 0.000000
# 4 0.000000 0.000000 0.000000 0.133551 0.000000 0.000000
# 5 0.000000 0.000000 0.000000 0.000000 0.050273 0.000000
# 6 0.000000 0.000000 0.000000 0.000000 0.000000 0.041404
#
#
# Mechanical properties :
#
#
# Convention : Reuss Voigt Hill
#
# Bulk Modulus (GPa) = 17.01515 51.53494 34.27505
# Shear Modulus (GPa) = 14.32503 25.93562 20.13033
#
# Velocity S-wave (km/s) = 2.64491 3.55886 3.13536
# Velocity P-wave (km/s) = 4.19960 6.48491 5.46309
#
# Compressibility (1/GPa) = 0.05877114
#
# Stress axis : x y z
#
# Youngs Moduli (GPa) = 16.05642 87.25842 128.94266
#
# Poissons Ratio (x) = 1.04943 -0.62653
# Poissons Ratio (y) = 0.19311 0.54088
# Poissons Ratio (z) = -0.07802 0.36603
#
# Static dielectric constant tensor:
#      x y z
#    x 1.777910 0.000000 0.000000 
#    y 0.000000 1.782870 0.000000 
#    z 0.000000 0.000000 1.749320 
# 
# From -- ./inp_files/39257.got.cif
#   From: 2010.05.17/outbox.cif.g08.bks.cpg/sg52_20_cif.got.tgz:39257.got - 2010.06.03 12:15:38.
