data_PCOD9412133
_publ_section_title
;
Structure prediction by ZEFSAII (Michael W. Deem and Ramdas Pophale) SiO2 
 PCOD9412133
Probable space group: P N N A
;
_chemical_formula_sum "Si O2"
_cell_formula_units_Z 24
_cell_length_a 10.570367
_cell_length_b 5.093040
_cell_length_c 17.882613
_cell_angle_alpha 90.000000
_cell_angle_beta 90.000000
_cell_angle_gamma 90.000000
_cell_volume 962.715870
_symmetry_space_group_name_H-M "P N N A"
_symmetry_group_IT_number 52
_symmetry_cell_setting 'orthorhombic'
loop_
_space_group_symop_operation_xyz
x,y,z
1/2-x,-y,z
x,1/2-y,1/2-z
1/2-x,1/2+y,1/2-z
-x,-y,-z
1/2+x,y,-z
-x,1/2+y,1/2+z
1/2+x,1/2-y,1/2+z
loop_
_atom_site_type_symbol
_atom_site_label
_atom_site_fract_x
_atom_site_fract_y
_atom_site_fract_z
Si Si1 0.662072 0.750000 0.750000
Si Si2 0.750000 0.000000 0.302032
Si Si3 0.629370 0.700726 0.429084
Si Si4 0.883701 0.346200 0.589698
O O1 0.750000 0.500000 0.743466
O O2 0.595407 0.783109 0.670278
O O3 0.717212 0.250000 0.250000
O O4 0.854615 0.100354 0.360837
O O5 0.750000 0.500000 0.425314
O O6 0.624659 0.819957 0.512932
O O7 0.500404 0.542836 0.419234
O O8 0.750000 0.500000 0.591281
#
# Coordination Sequence:
#
# PCOD9412133 Si02
#       4
#     4   4   8   8
#     4  10  22  44  70 108 148 192 240 306 374 446
#     4  12  26  48  72 112 150 200 252 312 366 442
#     4  10  22  46  74 106 143 195 245 305 368 442
#     4   9  21  45  72 107 145 189 242 304 373 441
#
# _framework density 24.929473000000002
#
# number of rings (size 3 to 8) (size 9 to 14) (size 15 to 20)
#    0.000    2.000    1.667    0.000    2.333    2.667 
#   24.000    5.000    0.000    0.000    0.000    0.000 
#    0.000    0.000    0.000    0.000    0.000    0.000 
#
# Total GULP energy -134167.727542 kJ/mol
# GULP energy per Si atom -5590.321981 kJ/mol
# Density = 2.487273 g / cm^3
# Si number density = 24.929473 Si / 1000 Ang^3
#
#
#
# Elastic Constant Matrix: (Units=GPa)
#
#
# Indices 1 2 3 4 5 6 
#
# 1 171.4962 42.5686 42.2900 0.0000 0.0000 0.0000
# 2 42.5686 108.3395 71.8518 0.0000 0.0000 0.0000
# 3 42.2900 71.8518 318.7293 0.0000 0.0000 0.0000
# 4 0.0000 0.0000 0.0000 7.4413 0.0000 0.0000
# 5 0.0000 0.0000 0.0000 0.0000 -291.2725 0.0000
# 6 0.0000 0.0000 0.0000 0.0000 0.0000 44.2416
#
#
#
# Elastic Compliance Matrix: (Units=1/GPa)
#
#
# Indices 1 2 3 4 5 6 
#
# 1 0.006492 -0.002327 -0.000337 0.000000 0.000000 0.000000
# 2 -0.002327 0.011687 -0.002326 0.000000 0.000000 0.000000
# 3 -0.000337 -0.002326 0.003706 0.000000 0.000000 0.000000
# 4 0.000000 0.000000 0.000000 0.134385 0.000000 0.000000
# 5 0.000000 0.000000 0.000000 0.000000 -0.003433 0.000000
# 6 0.000000 0.000000 0.000000 0.000000 0.000000 0.022603
#
#
# Mechanical properties :
#
#
# Convention : Reuss Voigt Hill
#
# Bulk Modulus (GPa) = 83.99465 101.33177 92.66321
# Shear Modulus (GPa) = 26.40070 -18.46095 3.96987
#
# Velocity S-wave (km/s) = 3.25778 -2.72422 1.26329
# Velocity P-wave (km/s) = 6.92220 5.55342 6.27525
#
# Compressibility (1/GPa) = 0.01190552
#
# Stress axis : x y z
#
# Youngs Moduli (GPa) = 154.04113 85.56299 269.79948
#
# Poissons Ratio (x) = 0.19914 0.09083
# Poissons Ratio (y) = 0.35852 0.62752
# Poissons Ratio (z) = 0.05186 0.19901
#
# Static dielectric constant tensor:
#      x y z
#    x 1.983890 0.000000 0.000000 
#    y 0.000000 1.997050 0.000000 
#    z 0.000000 0.000000 2.075170 
# 
# From -- ./inp_files/31758.got.cif
#   From: 2010.05.17/outbox.cif.g08.bks.cpg/sg52_16_cif.got.tgz:31758.got - 2010.06.03 12:15:38.
