data_PCOD9412863
_publ_section_title
;
Structure prediction by ZEFSAII (Michael W. Deem and Ramdas Pophale) SiO2 
 PCOD9412863
Probable space group: P N N A
;
_chemical_formula_sum "Si O2"
_cell_formula_units_Z 60
_cell_length_a 27.296005
_cell_length_b 8.877334
_cell_length_c 11.104250
_cell_angle_alpha 90.000000
_cell_angle_beta 90.000000
_cell_angle_gamma 90.000000
_cell_volume 2690.734703
_symmetry_space_group_name_H-M "P N N A"
_symmetry_group_IT_number 52
_symmetry_cell_setting 'orthorhombic'
loop_
_space_group_symop_operation_xyz
x,y,z
1/2-x,-y,z
x,1/2-y,1/2-z
1/2-x,1/2+y,1/2-z
-x,-y,-z
1/2+x,y,-z
-x,1/2+y,1/2+z
1/2+x,1/2-y,1/2+z
loop_
_atom_site_type_symbol
_atom_site_label
_atom_site_fract_x
_atom_site_fract_y
_atom_site_fract_z
Si Si1 0.963722 0.358015 0.003698
Si Si2 0.198432 0.429718 0.239766
Si Si3 0.816489 0.715956 0.113593
Si Si4 0.491073 0.750000 0.250000
Si Si5 0.851095 0.971969 0.985389
Si Si6 0.851971 0.057808 0.514833
Si Si7 0.959559 0.042673 0.900777
Si Si8 0.796640 0.299064 0.386492
O O1 0.976272 0.286334 0.133575
O O2 0.909068 0.422409 0.003759
O O3 0.000000 0.500000 0.000000
O O4 0.967372 0.227305 0.899276
O O5 0.250000 0.500000 0.202312
O O6 0.201455 0.250000 0.250000
O O7 0.182515 0.489544 0.368982
O O8 0.159474 0.486368 0.143094
O O9 0.829361 0.750000 0.250000
O O10 0.760482 0.767307 0.091343
O O11 0.823659 0.542122 0.083963
O O12 0.853119 0.796789 0.020975
O O13 0.464030 0.910273 0.204991
O O14 0.905164 0.027657 0.956592
O O15 0.819768 0.036840 0.096930
O O16 0.826730 0.217307 0.492166
O O17 0.000000 0.000000 0.000000
O O18 0.806691 0.250000 0.250000
#
# Coordination Sequence:
#
# PCOD9412863 Si02
#       8
#     8   8   8   4   8   8   8   8
#     4  11  27  49  74 110 143 192 247 302 377 451
#     4  12  28  45  73 107 151 199 249 302 365 443
#     4  11  24  41  68 106 144 193 243 301 365 439
#     4  10  26  50  82 100 154 178 246 314 376 440
#     4  12  25  44  73 103 149 193 247 300 377 442
#     4  12  26  45  71 104 148 188 248 298 365 442
#     4  10  25  47  76 106 140 190 239 306 376 441
#     4  11  24  45  72 102 147 190 244 303 366 439
#
# _framework density 22.298743000000002
#
# number of rings (size 3 to 8) (size 9 to 14) (size 15 to 20)
#    0.000    0.800    2.667    3.200    9.333    4.800 
#    0.000    0.000    0.000    0.000    0.000    0.000 
#    0.000    0.000    0.000    0.000    0.000    0.000 
#
# Total GULP energy -334737.619295 kJ/mol
# GULP energy per Si atom -5578.960322 kJ/mol
# Density = 2.224799 g / cm^3
# Si number density = 22.298743 Si / 1000 Ang^3
#
#
#
# Elastic Constant Matrix: (Units=GPa)
#
#
# Indices 1 2 3 4 5 6 
#
# 1 102.2263 63.2196 33.3263 0.0000 0.0000 0.0000
# 2 63.2196 102.3291 36.2861 0.0000 0.0000 0.0000
# 3 33.3263 36.2861 107.7314 0.0000 0.0000 0.0000
# 4 0.0000 0.0000 0.0000 30.7771 0.0000 0.0000
# 5 0.0000 0.0000 0.0000 0.0000 16.2826 0.0000
# 6 0.0000 0.0000 0.0000 0.0000 0.0000 29.0156
#
#
#
# Elastic Compliance Matrix: (Units=1/GPa)
#
#
# Indices 1 2 3 4 5 6 
#
# 1 0.016151 -0.009320 -0.001857 0.000000 0.000000 0.000000
# 2 -0.009320 0.016476 -0.002666 0.000000 0.000000 0.000000
# 3 -0.001857 -0.002666 0.010755 0.000000 0.000000 0.000000
# 4 0.000000 0.000000 0.000000 0.032492 0.000000 0.000000
# 5 0.000000 0.000000 0.000000 0.000000 0.061415 0.000000
# 6 0.000000 0.000000 0.000000 0.000000 0.000000 0.034464
#
#
# Mechanical properties :
#
#
# Convention : Reuss Voigt Hill
#
# Bulk Modulus (GPa) = 63.71354 64.21674 63.96514
# Shear Modulus (GPa) = 24.42938 27.17871 25.80404
#
# Velocity S-wave (km/s) = 3.31350 3.49498 3.40545
# Velocity P-wave (km/s) = 6.57828 6.71918 6.64911
#
# Compressibility (1/GPa) = 0.01569525
#
# Stress axis : x y z
#
# Youngs Moduli (GPa) = 61.91451 60.69548 92.98051
#
# Poissons Ratio (x) = 0.56567 0.17269
# Poissons Ratio (y) = 0.57703 0.24791
# Poissons Ratio (z) = 0.11499 0.16183
#
# Static dielectric constant tensor:
#      x y z
#    x 1.760050 0.000000 0.000000 
#    y 0.000000 1.898950 0.000000 
#    z 0.000000 0.000000 1.478450 
# 
# From -- ./inp_files/22904.got.cif
#   From: 2010.05.17/outbox.cif.g08.bks.cpg/sg52_12_cif.got.tgz:22904.got - 2010.06.03 12:15:38.
