data_PCOD9412282
_publ_section_title
;
Structure prediction by ZEFSAII (Michael W. Deem and Ramdas Pophale) SiO2 
 PCOD9412282
Probable space group: P N N A
;
_chemical_formula_sum "Si O2"
_cell_formula_units_Z 40
_cell_length_a 13.688593
_cell_length_b 21.279207
_cell_length_c 5.702804
_cell_angle_alpha 90.000000
_cell_angle_beta 90.000000
_cell_angle_gamma 90.000000
_cell_volume 1661.126459
_symmetry_space_group_name_H-M "P N N A"
_symmetry_group_IT_number 52
_symmetry_cell_setting 'orthorhombic'
loop_
_space_group_symop_operation_xyz
x,y,z
1/2-x,-y,z
x,1/2-y,1/2-z
1/2-x,1/2+y,1/2-z
-x,-y,-z
1/2+x,y,-z
-x,1/2+y,1/2+z
1/2+x,1/2-y,1/2+z
loop_
_atom_site_type_symbol
_atom_site_label
_atom_site_fract_x
_atom_site_fract_y
_atom_site_fract_z
Si Si1 0.852267 0.823878 0.270961
Si Si2 0.973448 0.052014 0.190811
Si Si3 0.859356 0.013589 0.581584
Si Si4 0.218862 0.320740 0.271087
Si Si5 0.567891 0.642408 0.678230
O O1 0.825809 0.750000 0.250000
O O2 0.802752 0.848749 0.511172
O O3 0.969259 0.831113 0.289112
O O4 0.820404 0.851318 0.014883
O O5 0.873722 0.029013 0.309156
O O6 0.064745 0.042526 0.364435
O O7 0.959501 0.120427 0.084719
O O8 0.000000 0.000000 0.000000
O O9 0.898225 0.077332 0.700938
O O10 0.750000 0.000000 0.653099
O O11 0.176277 0.250000 0.250000
O O12 0.335222 0.317011 0.308302
#
# Coordination Sequence:
#
# PCOD9412282 Si02
#       5
#     8   8   8   8   8
#     4  10  24  44  67  99 140 173 219 282 334 402
#     4   9  22  42  58  91 125 169 218 273 332 396
#     4  10  23  41  62  90 132 172 222 283 337 397
#     4  10  24  44  68 102 137 176 221 273 338 403
#     4  11  24  39  69  95 129 177 226 271 338 404
#
# _framework density 24.080045999999999
#
# number of rings (size 3 to 8) (size 9 to 14) (size 15 to 20)
#    0.000    2.000    0.000    0.600    8.400    6.400 
#    0.000    6.000    0.000    0.000    0.000    0.000 
#    0.000    0.000    0.000    0.000    0.000    0.000 
#
# Total GULP energy -223189.876820 kJ/mol
# GULP energy per Si atom -5579.746921 kJ/mol
# Density = 2.402524 g / cm^3
# Si number density = 24.080046 Si / 1000 Ang^3
#
#
#
# Elastic Constant Matrix: (Units=GPa)
#
#
# Indices 1 2 3 4 5 6 
#
# 1 130.7465 -1.9876 36.1907 0.0000 0.0000 0.0000
# 2 -1.9876 45.3208 12.2976 0.0000 0.0000 0.0000
# 3 36.1907 12.2976 133.1428 0.0000 0.0000 0.0000
# 4 0.0000 0.0000 0.0000 20.2592 0.0000 0.0000
# 5 0.0000 0.0000 0.0000 0.0000 23.6008 0.0000
# 6 0.0000 0.0000 0.0000 0.0000 0.0000 35.2927
#
#
#
# Elastic Compliance Matrix: (Units=1/GPa)
#
#
# Indices 1 2 3 4 5 6 
#
# 1 0.008315 0.001003 -0.002353 0.000000 0.000000 0.000000
# 2 0.001003 0.022753 -0.002374 0.000000 0.000000 0.000000
# 3 -0.002353 -0.002374 0.008370 0.000000 0.000000 0.000000
# 4 0.000000 0.000000 0.000000 0.049360 0.000000 0.000000
# 5 0.000000 0.000000 0.000000 0.000000 0.042371 0.000000
# 6 0.000000 0.000000 0.000000 0.000000 0.000000 0.028334
#
#
# Mechanical properties :
#
#
# Convention : Reuss Voigt Hill
#
# Bulk Modulus (GPa) = 31.26004 44.69015 37.97509
# Shear Modulus (GPa) = 28.15081 33.34452 30.74766
#
# Velocity S-wave (km/s) = 3.42285 3.72524 3.57724
# Velocity P-wave (km/s) = 5.35080 6.09118 5.73296
#
# Compressibility (1/GPa) = 0.03198973
#
# Stress axis : x y z
#
# Youngs Moduli (GPa) = 120.26617 43.94998 119.48064
#
# Poissons Ratio (x) = -0.04409 0.28111
# Poissons Ratio (y) = -0.12064 0.28367
# Poissons Ratio (z) = 0.28296 0.10435
#
# Static dielectric constant tensor:
#      x y z
#    x 1.912190 0.000000 0.000000 
#    y 0.000000 1.935060 0.000000 
#    z 0.000000 0.000000 2.122160 
# 
# From -- ./inp_files/1330.got.cif
#   From: 2010.05.17/outbox.cif.g08.bks.cpg/sg52_1_cif.got.tgz:1330.got - 2010.06.03 12:15:38.
