data_PCOD9412375
_publ_section_title
;
Structure prediction by ZEFSAII (Michael W. Deem and Ramdas Pophale) SiO2 
 PCOD9412375
Probable space group: P N N A
;
_chemical_formula_sum "Si O2"
_cell_formula_units_Z 56
_cell_length_a 13.330465
_cell_length_b 21.655072
_cell_length_c 8.665967
_cell_angle_alpha 90.000000
_cell_angle_beta 90.000000
_cell_angle_gamma 90.000000
_cell_volume 2501.623580
_symmetry_space_group_name_H-M "P N N A"
_symmetry_group_IT_number 52
_symmetry_cell_setting 'orthorhombic'
loop_
_space_group_symop_operation_xyz
x,y,z
1/2-x,-y,z
x,1/2-y,1/2-z
1/2-x,1/2+y,1/2-z
-x,-y,-z
1/2+x,y,-z
-x,1/2+y,1/2+z
1/2+x,1/2-y,1/2+z
loop_
_atom_site_type_symbol
_atom_site_label
_atom_site_fract_x
_atom_site_fract_y
_atom_site_fract_z
Si Si1 0.580021 0.858887 0.711659
Si Si2 0.195415 0.881699 0.691723
Si Si3 0.863824 0.479299 0.979836
Si Si4 0.261677 0.346924 0.482447
Si Si5 0.098410 0.383286 0.976970
Si Si6 0.077690 0.188161 0.201378
Si Si7 0.613514 0.761718 0.448529
O O1 0.611047 0.924480 0.637025
O O2 0.643668 0.856424 0.867499
O O3 0.461131 0.861995 0.677008
O O4 0.604524 0.798188 0.609845
O O5 0.136756 0.943024 0.642459
O O6 0.286330 0.875466 0.570176
O O7 0.132462 0.819093 0.667385
O O8 0.230894 0.888080 0.865840
O O9 0.750000 0.500000 0.945070
O O10 0.920230 0.544288 0.989569
O O11 0.154179 0.350954 0.401845
O O12 0.285806 0.278305 0.544015
O O13 0.067565 0.347582 0.133757
O O14 0.136681 0.250000 0.250000
O O15 0.984274 0.280732 0.398997
#
# Coordination Sequence:
#
# PCOD9412375 Si02
#       7
#     8   8   8   8   8   8   8
#     4  11  23  41  68 100 130 178 230 282 343 417
#     4  10  23  43  65  94 136 178 224 289 351 404
#     4   9  20  43  69  93 130 181 232 284 341 414
#     4  12  25  40  65  99 138 176 223 282 346 413
#     4  11  23  43  71  98 132 182 238 280 346 420
#     4  12  23  42  67  99 134 182 227 280 347 421
#     4  11  24  43  64  94 141 177 221 280 340 417
#
# _framework density 22.385462
#
# number of rings (size 3 to 8) (size 9 to 14) (size 15 to 20)
#    0.000    1.143    1.429    6.429    4.000    0.000 
#    0.000    7.143    0.000    0.000    0.000    0.000 
#    0.000    0.000    0.000    0.000    0.000    0.000 
#
# Total GULP energy -311850.814866 kJ/mol
# GULP energy per Si atom -5568.764551 kJ/mol
# Density = 2.233451 g / cm^3
# Si number density = 22.385462 Si / 1000 Ang^3
#
#
#
# Elastic Constant Matrix: (Units=GPa)
#
#
# Indices 1 2 3 4 5 6 
#
# 1 101.7774 25.4653 41.5301 0.0000 0.0000 0.0000
# 2 25.4653 100.6730 36.4642 0.0000 0.0000 0.0000
# 3 41.5301 36.4642 118.8983 0.0000 0.0000 0.0000
# 4 0.0000 0.0000 0.0000 13.1348 0.0000 0.0000
# 5 0.0000 0.0000 0.0000 0.0000 34.4017 0.0000
# 6 0.0000 0.0000 0.0000 0.0000 0.0000 37.5732
#
#
#
# Elastic Compliance Matrix: (Units=1/GPa)
#
#
# Indices 1 2 3 4 5 6 
#
# 1 0.011701 -0.001664 -0.003577 0.000000 0.000000 0.000000
# 2 -0.001664 0.011411 -0.002918 0.000000 0.000000 0.000000
# 3 -0.003577 -0.002918 0.010555 0.000000 0.000000 0.000000
# 4 0.000000 0.000000 0.000000 0.076134 0.000000 0.000000
# 5 0.000000 0.000000 0.000000 0.000000 0.029068 0.000000
# 6 0.000000 0.000000 0.000000 0.000000 0.000000 0.026615
#
#
# Mechanical properties :
#
#
# Convention : Reuss Voigt Hill
#
# Bulk Modulus (GPa) = 57.64155 58.69644 58.16899
# Shear Modulus (GPa) = 26.65449 31.54787 29.10118
#
# Velocity S-wave (km/s) = 3.45440 3.75814 3.60947
# Velocity P-wave (km/s) = 6.45879 6.71634 6.58882
#
# Compressibility (1/GPa) = 0.01734860
#
# Stress axis : x y z
#
# Youngs Moduli (GPa) = 85.46082 87.63352 94.74314
#
# Poissons Ratio (x) = 0.14585 0.33887
# Poissons Ratio (y) = 0.14224 0.27649
# Poissons Ratio (z) = 0.30567 0.25574
#
# Static dielectric constant tensor:
#      x y z
#    x 1.932530 0.000000 0.000000 
#    y 0.000000 1.834030 0.000000 
#    z 0.000000 0.000000 1.895820 
# 
# From -- ./inp_files/10803.got.cif
#   From: 2010.05.17/outbox.cif.g08.bks.cpg/sg52_6_cif.got.tgz:10803.got - 2010.06.03 12:15:38.
