data_PCOD9412265
_publ_section_title
;
Structure prediction by ZEFSAII (Michael W. Deem and Ramdas Pophale) SiO2 
 PCOD9412265
Probable space group: P N N A
;
_chemical_formula_sum "Si O2"
_cell_formula_units_Z 40
_cell_length_a 5.300180
_cell_length_b 13.106511
_cell_length_c 27.670126
_cell_angle_alpha 90.000000
_cell_angle_beta 90.000000
_cell_angle_gamma 90.000000
_cell_volume 1922.156976
_symmetry_space_group_name_H-M "P N N A"
_symmetry_group_IT_number 52
_symmetry_cell_setting 'orthorhombic'
loop_
_space_group_symop_operation_xyz
x,y,z
1/2-x,-y,z
x,1/2-y,1/2-z
1/2-x,1/2+y,1/2-z
-x,-y,-z
1/2+x,y,-z
-x,1/2+y,1/2+z
1/2+x,1/2-y,1/2+z
loop_
_atom_site_type_symbol
_atom_site_label
_atom_site_fract_x
_atom_site_fract_y
_atom_site_fract_z
Si Si1 0.220138 0.381296 0.161940
Si Si2 0.774434 0.619663 0.098546
Si Si3 0.250000 0.000000 0.895065
Si Si4 0.213745 0.814039 0.967911
Si Si5 0.868150 0.250000 0.750000
Si Si6 0.508327 0.445928 0.299029
O O1 0.250000 0.500000 0.174573
O O2 0.458984 0.361064 0.126010
O O3 0.221377 0.313905 0.209854
O O4 0.957087 0.365167 0.135170
O O5 0.750000 0.500000 0.082939
O O6 0.731716 0.702741 0.056883
O O7 0.312832 0.096772 0.928015
O O8 0.040734 0.038724 0.856641
O O9 0.473482 0.825502 0.997336
O O10 0.019532 0.330911 0.718295
O O11 0.250000 0.500000 0.285409
O O12 0.750000 0.500000 0.276142
#
# Coordination Sequence:
#
# PCOD9412265 Si02
#       6
#     8   8   4   8   4   8
#     4  10  23  40  64  94 131 176 217 268 331 395
#     4  10  23  45  66  93 133 174 214 276 349 394
#     4  10  26  46  66  92 144 176 216 266 352 386
#     4  12  26  41  70 101 127 171 226 277 330 410
#     4  12  24  42  68  98 136 170 236 282 314 392
#     4  10  26  42  66  97 131 183 219 272 334 397
#
# _framework density 20.809953
#
# number of rings (size 3 to 8) (size 9 to 14) (size 15 to 20)
#    0.600    0.800    0.000    3.600    5.600    6.400 
#    0.000    0.000    0.000    0.000    0.000    0.000 
#    0.000    0.000    0.000    0.000    0.000    0.000 
#
# Total GULP energy -223380.598938 kJ/mol
# GULP energy per Si atom -5584.514973 kJ/mol
# Density = 2.076259 g / cm^3
# Si number density = 20.809953 Si / 1000 Ang^3
#
#
#
# Elastic Constant Matrix: (Units=GPa)
#
#
# Indices 1 2 3 4 5 6 
#
# 1 105.9638 44.4076 30.7575 0.0000 0.0000 0.0000
# 2 44.4076 110.9273 43.8040 0.0000 0.0000 0.0000
# 3 30.7575 43.8040 63.6440 0.0000 0.0000 0.0000
# 4 0.0000 0.0000 0.0000 55.6062 0.0000 0.0000
# 5 0.0000 0.0000 0.0000 0.0000 -0.6542 0.0000
# 6 0.0000 0.0000 0.0000 0.0000 0.0000 16.9442
#
#
#
# Elastic Compliance Matrix: (Units=1/GPa)
#
#
# Indices 1 2 3 4 5 6 
#
# 1 0.011846 -0.003408 -0.003379 0.000000 0.000000 0.000000
# 2 -0.003408 0.013360 -0.007548 0.000000 0.000000 0.000000
# 3 -0.003379 -0.007548 0.022541 0.000000 0.000000 0.000000
# 4 0.000000 0.000000 0.000000 0.017984 0.000000 0.000000
# 5 0.000000 0.000000 0.000000 0.000000 -1.528591 0.000000
# 6 0.000000 0.000000 0.000000 0.000000 0.000000 0.059017
#
#
# Mechanical properties :
#
#
# Convention : Reuss Voigt Hill
#
# Bulk Modulus (GPa) = 52.42240 57.60816 55.01528
# Shear Modulus (GPa) = -3.65280 25.15031 10.74875
#
# Velocity S-wave (km/s) = -1.32632 3.48022 2.27517
# Velocity P-wave (km/s) = 4.78542 6.62513 5.77895
#
# Compressibility (1/GPa) = 0.01907582
#
# Stress axis : x y z
#
# Youngs Moduli (GPa) = 84.41431 74.85068 44.36401
#
# Poissons Ratio (x) = 0.25509 0.14993
# Poissons Ratio (y) = 0.28768 0.33487
# Poissons Ratio (z) = 0.28527 0.56499
#
# Static dielectric constant tensor:
#      x y z
#    x 1.736560 0.000000 0.000000 
#    y 0.000000 1.858530 0.000000 
#    z 0.000000 0.000000 1.746300 
# 
# From -- ./inp_files/41527.got.cif
#   From: 2010.05.17/outbox.cif.g08.bks.cpg/sg52_21_cif.got.tgz:41527.got - 2010.06.03 12:15:38.
