data_PCOD9412351
_publ_section_title
;
Structure prediction by ZEFSAII (Michael W. Deem and Ramdas Pophale) SiO2 
 PCOD9412351
Probable space group: P N N A
;
_chemical_formula_sum "Si O2"
_cell_formula_units_Z 36
_cell_length_a 14.802030
_cell_length_b 7.884781
_cell_length_c 15.428613
_cell_angle_alpha 90.000000
_cell_angle_beta 90.000000
_cell_angle_gamma 90.000000
_cell_volume 1800.685225
_symmetry_space_group_name_H-M "P N N A"
_symmetry_group_IT_number 52
_symmetry_cell_setting 'orthorhombic'
loop_
_space_group_symop_operation_xyz
x,y,z
1/2-x,-y,z
x,1/2-y,1/2-z
1/2-x,1/2+y,1/2-z
-x,-y,-z
1/2+x,y,-z
-x,1/2+y,1/2+z
1/2+x,1/2-y,1/2+z
loop_
_atom_site_type_symbol
_atom_site_label
_atom_site_fract_x
_atom_site_fract_y
_atom_site_fract_z
Si Si1 0.077214 0.055367 0.067543
Si Si2 0.857223 0.543496 0.753143
Si Si3 0.250000 0.500000 0.546988
Si Si4 0.511873 0.429928 0.903040
Si Si5 0.811143 0.168397 0.344669
O O1 0.096559 0.977947 0.163257
O O2 0.055844 0.248484 0.084866
O O3 0.167353 0.040007 0.014094
O O4 0.000000 0.000000 0.000000
O O5 0.750000 0.500000 0.759237
O O6 0.861125 0.750000 0.750000
O O7 0.919578 0.482149 0.834227
O O8 0.223402 0.672252 0.598075
O O9 0.412375 0.395224 0.865068
O O10 0.500000 0.500000 0.000000
O O11 0.809739 0.250000 0.250000
O O12 0.750000 0.000000 0.352143
#
# Coordination Sequence:
#
# PCOD9412351 Si02
#       5
#     8   8   4   8   8
#     4  11  22  42  68  98 136 184 230 287 351 421
#     4  10  23  42  68  96 133 180 229 283 354 416
#     4  12  24  42  76 104 144 188 244 292 360 432
#     4  11  25  44  67 100 139 181 235 301 349 420
#     4  12  25  45  71 104 142 187 239 296 359 432
#
# _framework density 19.992388999999999
#
# number of rings (size 3 to 8) (size 9 to 14) (size 15 to 20)
#    0.000    0.889    4.444    3.333    0.000    6.222 
#    0.000    1.111    0.000    0.000    0.000    0.000 
#    0.000    0.000    0.000    0.000    0.000    0.000 
#
# Total GULP energy -200656.466875 kJ/mol
# GULP energy per Si atom -5573.790747 kJ/mol
# Density = 1.994689 g / cm^3
# Si number density = 19.992389 Si / 1000 Ang^3
#
#
#
# Elastic Constant Matrix: (Units=GPa)
#
#
# Indices 1 2 3 4 5 6 
#
# 1 193.5290 51.8186 108.4122 0.0000 0.0000 0.0000
# 2 51.8186 70.1762 22.2304 0.0000 0.0000 0.0000
# 3 108.4122 22.2304 143.7805 0.0000 0.0000 0.0000
# 4 0.0000 0.0000 0.0000 26.3023 0.0000 0.0000
# 5 0.0000 0.0000 0.0000 0.0000 30.5758 0.0000
# 6 0.0000 0.0000 0.0000 0.0000 0.0000 42.1710
#
#
#
# Elastic Compliance Matrix: (Units=1/GPa)
#
#
# Indices 1 2 3 4 5 6 
#
# 1 0.010710 -0.005626 -0.007206 0.000000 0.000000 0.000000
# 2 -0.005626 0.017939 0.001468 0.000000 0.000000 0.000000
# 3 -0.007206 0.001468 0.012161 0.000000 0.000000 0.000000
# 4 0.000000 0.000000 0.000000 0.038019 0.000000 0.000000
# 5 0.000000 0.000000 0.000000 0.000000 0.032706 0.000000
# 6 0.000000 0.000000 0.000000 0.000000 0.000000 0.023713
#
#
# Mechanical properties :
#
#
# Convention : Reuss Voigt Hill
#
# Bulk Modulus (GPa) = 55.29813 85.82312 70.56062
# Shear Modulus (GPa) = 30.48740 34.81147 32.64944
#
# Velocity S-wave (km/s) = 3.90930 4.17734 4.04554
# Velocity P-wave (km/s) = 6.93516 8.14174 7.56255
#
# Compressibility (1/GPa) = 0.01808379
#
# Stress axis : x y z
#
# Youngs Moduli (GPa) = 93.37048 55.74503 82.22888
#
# Poissons Ratio (x) = 0.31361 0.59251
# Poissons Ratio (y) = 0.52528 -0.12074
# Poissons Ratio (z) = 0.67280 -0.08185
#
# Static dielectric constant tensor:
#      x y z
#    x 1.663350 0.000000 0.000000 
#    y 0.000000 1.733970 0.000000 
#    z 0.000000 0.000000 1.588490 
# 
# From -- ./inp_files/26751.got.cif
#   From: 2010.05.17/outbox.cif.g08.bks.cpg/sg52_14_cif.got.tgz:26751.got - 2010.06.03 12:15:38.
