data_PCOD9412775
_publ_section_title
;
Structure prediction by ZEFSAII (Michael W. Deem and Ramdas Pophale) SiO2 
 PCOD9412775
Probable space group: P N N A
;
_chemical_formula_sum "Si O2"
_cell_formula_units_Z 40
_cell_length_a 8.307093
_cell_length_b 15.345895
_cell_length_c 13.744300
_cell_angle_alpha 90.000000
_cell_angle_beta 90.000000
_cell_angle_gamma 90.000000
_cell_volume 1752.120298
_symmetry_space_group_name_H-M "P N N A"
_symmetry_group_IT_number 52
_symmetry_cell_setting 'orthorhombic'
loop_
_space_group_symop_operation_xyz
x,y,z
1/2-x,-y,z
x,1/2-y,1/2-z
1/2-x,1/2+y,1/2-z
-x,-y,-z
1/2+x,y,-z
-x,1/2+y,1/2+z
1/2+x,1/2-y,1/2+z
loop_
_atom_site_type_symbol
_atom_site_label
_atom_site_fract_x
_atom_site_fract_y
_atom_site_fract_z
Si Si1 0.385309 0.610432 0.425620
Si Si2 0.865109 0.931831 0.527298
Si Si3 0.292944 0.601535 0.805094
Si Si4 0.506132 0.219160 0.658463
Si Si5 0.476726 0.080457 0.132361
O O1 0.498855 0.693194 0.404251
O O2 0.446689 0.524321 0.368542
O O3 0.198164 0.620706 0.394840
O O4 0.402613 0.594249 0.541147
O O5 0.816298 0.894805 0.422072
O O6 0.912538 0.853968 0.594496
O O7 0.750000 0.000000 0.581064
O O8 0.000000 0.000000 0.500000
O O9 0.250000 0.500000 0.786344
O O10 0.441266 0.615878 0.731168
O O11 0.148066 0.670209 0.794361
O O12 0.610544 0.250000 0.750000
#
# Coordination Sequence:
#
# PCOD9412775 Si02
#       5
#     8   8   8   8   8
#     4  10  25  45  75 116 154 199 254 332 383 477
#     4  11  24  48  75 108 149 203 253 313 385 467
#     4  11  24  46  79 108 148 211 254 314 396 473
#     4  12  27  46  74 112 151 196 265 322 372 459
#     4  10  24  47  77 110 156 207 250 312 413 463
#
# _framework density 22.829483
#
# number of rings (size 3 to 8) (size 9 to 14) (size 15 to 20)
#    0.000    1.200    4.000    1.200   11.200    1.600 
#    0.000    1.000    0.000    0.000    0.000    0.000 
#    0.000    0.000    0.000    0.000    0.000    0.000 
#
# Total GULP energy -223066.612968 kJ/mol
# GULP energy per Si atom -5576.665324 kJ/mol
# Density = 2.277752 g / cm^3
# Si number density = 22.829483 Si / 1000 Ang^3
#
#
#
# Elastic Constant Matrix: (Units=GPa)
#
#
# Indices 1 2 3 4 5 6 
#
# 1 106.4881 57.8163 45.8318 0.0000 0.0000 0.0000
# 2 57.8163 145.6846 51.1128 0.0000 0.0000 0.0000
# 3 45.8318 51.1128 113.1922 0.0000 0.0000 0.0000
# 4 0.0000 0.0000 0.0000 41.6684 0.0000 0.0000
# 5 0.0000 0.0000 0.0000 0.0000 41.5191 0.0000
# 6 0.0000 0.0000 0.0000 0.0000 0.0000 13.1761
#
#
#
# Elastic Compliance Matrix: (Units=1/GPa)
#
#
# Indices 1 2 3 4 5 6 
#
# 1 0.013039 -0.003948 -0.003497 0.000000 0.000000 0.000000
# 2 -0.003948 0.009352 -0.002624 0.000000 0.000000 0.000000
# 3 -0.003497 -0.002624 0.011435 0.000000 0.000000 0.000000
# 4 0.000000 0.000000 0.000000 0.023999 0.000000 0.000000
# 5 0.000000 0.000000 0.000000 0.000000 0.024085 0.000000
# 6 0.000000 0.000000 0.000000 0.000000 0.000000 0.075895
#
#
# Mechanical properties :
#
#
# Convention : Reuss Voigt Hill
#
# Bulk Modulus (GPa) = 73.05596 74.98741 74.02168
# Shear Modulus (GPa) = 27.39633 33.31300 30.35466
#
# Velocity S-wave (km/s) = 3.46792 3.82410 3.65036
# Velocity P-wave (km/s) = 6.93581 7.23992 7.08949
#
# Compressibility (1/GPa) = 0.01368814
#
# Stress axis : x y z
#
# Youngs Moduli (GPa) = 76.69183 106.93351 87.44721
#
# Poissons Ratio (x) = 0.42216 0.30580
# Poissons Ratio (y) = 0.30277 0.22949
# Poissons Ratio (z) = 0.26819 0.28063
#
# Static dielectric constant tensor:
#      x y z
#    x 1.753120 0.000000 0.000000 
#    y 0.000000 1.927430 0.000000 
#    z 0.000000 0.000000 2.010310 
# 
# From -- ./inp_files/24423.got.cif
#   From: 2010.05.17/outbox.cif.g08.bks.cpg/sg52_13_cif.got.tgz:24423.got - 2010.06.03 12:15:38.
