data_PCOD9412539
_publ_section_title
;
Structure prediction by ZEFSAII (Michael W. Deem and Ramdas Pophale) SiO2 
 PCOD9412539
Probable space group: P N N A
;
_chemical_formula_sum "Si O2"
_cell_formula_units_Z 60
_cell_length_a 18.366322
_cell_length_b 6.443527
_cell_length_c 25.497483
_cell_angle_alpha 90.000000
_cell_angle_beta 90.000000
_cell_angle_gamma 90.000000
_cell_volume 3017.471367
_symmetry_space_group_name_H-M "P N N A"
_symmetry_group_IT_number 52
_symmetry_cell_setting 'orthorhombic'
loop_
_space_group_symop_operation_xyz
x,y,z
1/2-x,-y,z
x,1/2-y,1/2-z
1/2-x,1/2+y,1/2-z
-x,-y,-z
1/2+x,y,-z
-x,1/2+y,1/2+z
1/2+x,1/2-y,1/2+z
loop_
_atom_site_type_symbol
_atom_site_label
_atom_site_fract_x
_atom_site_fract_y
_atom_site_fract_z
Si Si1 0.933045 0.753989 0.094877
Si Si2 0.355064 0.750000 0.750000
Si Si3 0.920095 0.092490 0.178222
Si Si4 0.911935 0.707965 0.689608
Si Si5 0.066006 0.156369 0.020021
Si Si6 0.416267 0.033551 0.400204
Si Si7 0.324507 0.478661 0.842447
Si Si8 0.666251 0.570794 0.603577
O O1 0.889969 0.578149 0.125523
O O2 0.017269 0.695779 0.101302
O O3 0.919787 0.973305 0.122844
O O4 0.907348 0.760293 0.035538
O O5 0.403579 0.576991 0.722345
O O6 0.310045 0.636489 0.794499
O O7 0.856242 0.261740 0.177230
O O8 0.000832 0.173669 0.188341
O O9 0.889393 0.750000 0.750000
O O10 0.871691 0.521837 0.657162
O O11 0.902396 0.908887 0.653086
O O12 0.056467 0.362075 0.056811
O O13 0.123620 0.030891 0.054502
O O14 0.000000 0.000000 0.000000
O O15 0.346463 0.183519 0.405736
O O16 0.250000 0.500000 0.874358
O O17 0.750000 0.500000 0.604222
#
# Coordination Sequence:
#
# PCOD9412539 Si02
#       8
#     8   4   8   8   8   8   8   8
#     4  11  22  40  65 100 127 176 226 274 334 405
#     4  10  24  36  64  88 130 180 228 272 342 400
#     4  11  22  40  64  95 133 170 233 278 333 405
#     4  11  23  40  70 100 131 177 231 284 338 426
#     4  11  23  41  72 103 129 178 227 273 339 415
#     4  11  22  43  72  97 137 175 227 283 337 416
#     4  11  25  40  59  91 132 174 222 284 339 399
#     4  11  26  47  66 102 140 178 227 293 355 413
#
# _framework density 19.884198999999999
#
# number of rings (size 3 to 8) (size 9 to 14) (size 15 to 20)
#    0.000    1.067    4.000    2.400    3.733    4.267 
#    7.200    0.000    0.000    0.000    0.000    0.000 
#    0.000    0.000    0.000    0.000    0.000    0.000 
#
# Total GULP energy -334453.117482 kJ/mol
# GULP energy per Si atom -5574.218625 kJ/mol
# Density = 1.983894 g / cm^3
# Si number density = 19.884199 Si / 1000 Ang^3
#
#
#
# Elastic Constant Matrix: (Units=GPa)
#
#
# Indices 1 2 3 4 5 6 
#
# 1 104.8493 41.6376 10.8243 0.0000 0.0000 0.0000
# 2 41.6376 114.1373 33.3656 0.0000 0.0000 0.0000
# 3 10.8243 33.3656 130.0712 0.0000 0.0000 0.0000
# 4 0.0000 0.0000 0.0000 3.7843 0.0000 0.0000
# 5 0.0000 0.0000 0.0000 0.0000 20.2855 0.0000
# 6 0.0000 0.0000 0.0000 0.0000 0.0000 21.5681
#
#
#
# Elastic Compliance Matrix: (Units=1/GPa)
#
#
# Indices 1 2 3 4 5 6 
#
# 1 0.011155 -0.004106 0.000125 0.000000 0.000000 0.000000
# 2 -0.004106 0.010983 -0.002476 0.000000 0.000000 0.000000
# 3 0.000125 -0.002476 0.008313 0.000000 0.000000 0.000000
# 4 0.000000 0.000000 0.000000 0.264251 0.000000 0.000000
# 5 0.000000 0.000000 0.000000 0.000000 0.049296 0.000000
# 6 0.000000 0.000000 0.000000 0.000000 0.000000 0.046365
#
#
# Mechanical properties :
#
#
# Convention : Reuss Voigt Hill
#
# Bulk Modulus (GPa) = 57.02052 57.85696 57.43874
# Shear Modulus (GPa) = 12.22131 26.67628 19.44880
#
# Velocity S-wave (km/s) = 2.48185 3.66673 3.13086
# Velocity P-wave (km/s) = 6.07876 6.86198 6.48221
#
# Compressibility (1/GPa) = 0.01753755
#
# Stress axis : x y z
#
# Youngs Moduli (GPa) = 89.64475 91.05037 120.29722
#
# Poissons Ratio (x) = 0.37385 -0.01503
# Poissons Ratio (y) = 0.36808 0.29781
# Poissons Ratio (z) = -0.01120 0.22541
#
# Static dielectric constant tensor:
#      x y z
#    x 1.833410 0.000000 0.000000 
#    y 0.000000 1.758530 0.000000 
#    z 0.000000 0.000000 1.726270 
# 
# From -- ./inp_files/43203.got.cif
#   From: 2010.05.17/outbox.cif.g08.bks.cpg/sg52_22_cif.got.tgz:43203.got - 2010.06.03 12:15:38.
