data_PCOD9412676
_publ_section_title
;
Structure prediction by ZEFSAII (Michael W. Deem and Ramdas Pophale) SiO2 
 PCOD9412676
Probable space group: P N N A
;
_chemical_formula_sum "Si O2"
_cell_formula_units_Z 64
_cell_length_a 7.892957
_cell_length_b 27.158504
_cell_length_c 11.240821
_cell_angle_alpha 90.000000
_cell_angle_beta 90.000000
_cell_angle_gamma 90.000000
_cell_volume 2409.592554
_symmetry_space_group_name_H-M "P N N A"
_symmetry_group_IT_number 52
_symmetry_cell_setting 'orthorhombic'
loop_
_space_group_symop_operation_xyz
x,y,z
1/2-x,-y,z
x,1/2-y,1/2-z
1/2-x,1/2+y,1/2-z
-x,-y,-z
1/2+x,y,-z
-x,1/2+y,1/2+z
1/2+x,1/2-y,1/2+z
loop_
_atom_site_type_symbol
_atom_site_label
_atom_site_fract_x
_atom_site_fract_y
_atom_site_fract_z
Si Si1 0.428066 0.679974 0.084420
Si Si2 0.339518 0.198536 0.944844
Si Si3 0.307678 0.703831 0.839557
Si Si4 0.130137 0.381095 0.665546
Si Si5 0.700797 0.410163 0.827433
Si Si6 0.696971 0.312895 0.678774
Si Si7 0.136263 0.538390 0.784877
Si Si8 0.909812 0.467592 0.656909
O O1 0.619694 0.679257 0.135857
O O2 0.319272 0.629475 0.068485
O O3 0.322009 0.707512 0.187266
O O4 0.424670 0.703681 0.957731
O O5 0.245961 0.237172 0.854658
O O6 0.244480 0.147010 0.928610
O O7 0.525761 0.196748 0.893730
O O8 0.337765 0.204588 0.086421
O O9 0.410546 0.663774 0.757506
O O10 0.247742 0.417864 0.740151
O O11 0.991213 0.417294 0.606040
O O12 0.691792 0.371413 0.715509
O O13 0.530925 0.440869 0.843054
O O14 0.848885 0.446470 0.787606
O O15 0.250000 0.500000 0.857541
O O16 0.059491 0.506628 0.675135
O O17 0.750000 0.500000 0.610703
#
# Coordination Sequence:
#
# PCOD9412676 Si02
#       8
#     8   8   8   8   8   8   8   8
#     4  10  24  44  67  94 139 179 225 276 330 395
#     4  12  24  41  68  98 137 184 226 276 335 403
#     4  12  24  41  68  98 137 184 226 276 335 403
#     4  11  21  39  69 102 137 182 221 282 345 410
#     4   9  18  41  62  93 128 178 207 283 336 383
#     4  10  24  44  67  94 139 179 225 276 330 395
#     4   9  16  35  66  96 123 175 218 271 343 397
#     4   9  20  35  68 101 132 175 226 285 343 407
#
# _framework density 26.560506
#
# number of rings (size 3 to 8) (size 9 to 14) (size 15 to 20)
#    0.750    1.000    3.750    1.125    3.500    1.500 
#    0.000    0.000    0.000   30.000    0.000    0.000 
#    0.000    0.000    0.000    0.000    0.000    0.000 
#
# Total GULP energy -356397.250239 kJ/mol
# GULP energy per Si atom -5568.707035 kJ/mol
# Density = 2.650005 g / cm^3
# Si number density = 26.560506 Si / 1000 Ang^3
#
#
#
# Elastic Constant Matrix: (Units=GPa)
#
#
# Indices 1 2 3 4 5 6 
#
# 1 87.4391 41.9461 48.6135 0.0000 0.0000 0.0000
# 2 41.9461 155.0480 29.9461 0.0000 0.0000 0.0000
# 3 48.6135 29.9461 197.6767 0.0000 0.0000 0.0000
# 4 0.0000 0.0000 0.0000 13.9459 0.0000 0.0000
# 5 0.0000 0.0000 0.0000 0.0000 0.5227 0.0000
# 6 0.0000 0.0000 0.0000 0.0000 0.0000 51.0603
#
#
#
# Elastic Compliance Matrix: (Units=1/GPa)
#
#
# Indices 1 2 3 4 5 6 
#
# 1 0.014806 -0.003402 -0.003126 0.000000 0.000000 0.000000
# 2 -0.003402 0.007426 -0.000288 0.000000 0.000000 0.000000
# 3 -0.003126 -0.000288 0.005871 0.000000 0.000000 0.000000
# 4 0.000000 0.000000 0.000000 0.071706 0.000000 0.000000
# 5 0.000000 0.000000 0.000000 0.000000 1.913256 0.000000
# 6 0.000000 0.000000 0.000000 0.000000 0.000000 0.019585
#
#
# Mechanical properties :
#
#
# Convention : Reuss Voigt Hill
#
# Bulk Modulus (GPa) = 69.10386 75.68614 72.39500
# Shear Modulus (GPa) = 2.43771 34.41629 18.42700
#
# Velocity S-wave (km/s) = 0.95906 3.60359 2.63682
# Velocity P-wave (km/s) = 5.22498 6.77289 6.04865
#
# Compressibility (1/GPa) = 0.01447097
#
# Stress axis : x y z
#
# Youngs Moduli (GPa) = 67.53836 134.66845 170.32369
#
# Poissons Ratio (x) = 0.45813 0.53241
# Poissons Ratio (y) = 0.22976 0.04910
# Poissons Ratio (z) = 0.21112 0.03882
#
# Static dielectric constant tensor:
#      x y z
#    x 2.086900 0.000000 0.000000 
#    y 0.000000 2.555000 0.000000 
#    z 0.000000 0.000000 2.364620 
# 
# From -- ./inp_files/25141.got.cif
#   From: 2010.05.17/outbox.cif.g08.bks.cpg/sg52_13_cif.got.tgz:25141.got - 2010.06.03 12:15:38.
