data_PCOD9412558
_publ_section_title
;
Structure prediction by ZEFSAII (Michael W. Deem and Ramdas Pophale) SiO2 
 PCOD9412558
Probable space group: P N N A
;
_chemical_formula_sum "Si O2"
_cell_formula_units_Z 28
_cell_length_a 9.061634
_cell_length_b 26.088162
_cell_length_c 5.001121
_cell_angle_alpha 90.000000
_cell_angle_beta 90.000000
_cell_angle_gamma 90.000000
_cell_volume 1182.271885
_symmetry_space_group_name_H-M "P N N A"
_symmetry_group_IT_number 52
_symmetry_cell_setting 'orthorhombic'
loop_
_space_group_symop_operation_xyz
x,y,z
1/2-x,-y,z
x,1/2-y,1/2-z
1/2-x,1/2+y,1/2-z
-x,-y,-z
1/2+x,y,-z
-x,1/2+y,1/2+z
1/2+x,1/2-y,1/2+z
loop_
_atom_site_type_symbol
_atom_site_label
_atom_site_fract_x
_atom_site_fract_y
_atom_site_fract_z
Si Si1 0.428768 0.292546 0.946939
Si Si2 0.351477 0.750000 0.750000
Si Si3 0.701427 0.441935 0.772103
Si Si4 0.628392 0.595896 0.280442
O O1 0.501978 0.250000 0.750000
O O2 0.267770 0.267436 0.970569
O O3 0.408920 0.346645 0.809340
O O4 0.528432 0.295452 0.211465
O O5 0.750000 0.500000 0.715200
O O6 0.793912 0.406792 0.567197
O O7 0.526886 0.434303 0.732504
O O8 0.755464 0.427452 0.068552
#
# Coordination Sequence:
#
# PCOD9412558 Si02
#       4
#     8   4   8   8
#     4  10  26  40  68  95 138 176 228 282 343 425
#     4  10  24  40  64  90 138 170 226 272 348 396
#     4  12  26  47  72 105 143 186 242 300 354 420
#     4  12  26  44  75 102 142 186 238 288 368 418
#
# _framework density 23.683216999999999
#
# number of rings (size 3 to 8) (size 9 to 14) (size 15 to 20)
#    0.857    0.000    0.000    6.000   10.000    0.000 
#    0.000    0.000    0.000    0.000    0.000    0.000 
#    0.000    0.000    0.000    0.000    0.000    0.000 
#
# Total GULP energy -156108.647388 kJ/mol
# GULP energy per Si atom -5575.308835 kJ/mol
# Density = 2.362931 g / cm^3
# Si number density = 23.683217 Si / 1000 Ang^3
#
#
#
# Elastic Constant Matrix: (Units=GPa)
#
#
# Indices 1 2 3 4 5 6 
#
# 1 116.5858 -17.9387 1.4877 0.0000 0.0000 0.0000
# 2 -17.9387 52.0631 14.1540 0.0000 0.0000 0.0000
# 3 1.4877 14.1540 48.3119 0.0000 0.0000 0.0000
# 4 0.0000 0.0000 0.0000 28.2112 0.0000 0.0000
# 5 0.0000 0.0000 0.0000 0.0000 17.6495 0.0000
# 6 0.0000 0.0000 0.0000 0.0000 0.0000 7.0517
#
#
#
# Elastic Compliance Matrix: (Units=1/GPa)
#
#
# Indices 1 2 3 4 5 6 
#
# 1 0.009133 0.003502 -0.001307 0.000000 0.000000 0.000000
# 2 0.003502 0.022213 -0.006616 0.000000 0.000000 0.000000
# 3 -0.001307 -0.006616 0.022677 0.000000 0.000000 0.000000
# 4 0.000000 0.000000 0.000000 0.035447 0.000000 0.000000
# 5 0.000000 0.000000 0.000000 0.000000 0.056659 0.000000
# 6 0.000000 0.000000 0.000000 0.000000 0.000000 0.141809
#
#
# Mechanical properties :
#
#
# Convention : Reuss Voigt Hill
#
# Bulk Modulus (GPa) = 22.13288 23.59633 22.86461
# Shear Modulus (GPa) = 16.03391 25.19968 20.61679
#
# Velocity S-wave (km/s) = 2.60477 3.26549 2.95366
# Velocity P-wave (km/s) = 4.29094 4.91964 4.61600
#
# Compressibility (1/GPa) = 0.04518164
#
# Stress axis : x y z
#
# Youngs Moduli (GPa) = 109.49392 45.01933 44.09703
#
# Poissons Ratio (x) = -0.15767 0.05765
# Poissons Ratio (y) = -0.38347 0.29173
# Poissons Ratio (z) = 0.14314 0.29783
#
# Static dielectric constant tensor:
#      x y z
#    x 1.882990 0.000000 0.000000 
#    y 0.000000 1.897900 0.000000 
#    z 0.000000 0.000000 2.179610 
# 
# From -- ./inp_files/344.got.cif
#   From: 2010.05.17/outbox.cif.g08.bks.cpg/sg52_1_cif.got.tgz:344.got - 2010.06.03 12:15:38.
