data_PCOD9412225
_publ_section_title
;
Structure prediction by ZEFSAII (Michael W. Deem and Ramdas Pophale) SiO2 
 PCOD9412225
Probable space group: P N N A
;
_chemical_formula_sum "Si O2"
_cell_formula_units_Z 32
_cell_length_a 8.696905
_cell_length_b 25.393490
_cell_length_c 5.044789
_cell_angle_alpha 90.000000
_cell_angle_beta 90.000000
_cell_angle_gamma 90.000000
_cell_volume 1114.115267
_symmetry_space_group_name_H-M "P N N A"
_symmetry_group_IT_number 52
_symmetry_cell_setting 'orthorhombic'
loop_
_space_group_symop_operation_xyz
x,y,z
1/2-x,-y,z
x,1/2-y,1/2-z
1/2-x,1/2+y,1/2-z
-x,-y,-z
1/2+x,y,-z
-x,1/2+y,1/2+z
1/2+x,1/2-y,1/2+z
loop_
_atom_site_type_symbol
_atom_site_label
_atom_site_fract_x
_atom_site_fract_y
_atom_site_fract_z
Si Si1 0.250000 0.000000 0.361864
Si Si2 0.027153 0.750000 0.750000
Si Si3 0.972162 0.065553 0.253584
Si Si4 0.653256 0.338284 0.028778
Si Si5 0.410959 0.155524 0.107573
O O1 0.388383 0.974519 0.192051
O O2 0.154879 0.961310 0.559254
O O3 0.116998 0.705529 0.583465
O O4 0.920179 0.783164 0.556333
O O5 0.065303 0.111396 0.406437
O O6 0.889345 0.098458 0.023177
O O7 0.595192 0.343116 0.330868
O O8 0.814830 0.338877 0.877461
#
# Coordination Sequence:
#
# PCOD9412225 Si02
#       5
#     4   4   8   8   8
#     4  10  22  50  86 116 160 212 274 338 424 478
#     4  10  26  46  80 110 152 208 274 330 406 478
#     4  10  24  49  79 117 156 213 270 338 406 498
#     4  11  25  48  77 112 158 211 266 330 408 487
#     4  11  26  52  78 116 162 213 268 340 407 489
#
# _framework density 28.722339999999999
#
# number of rings (size 3 to 8) (size 9 to 14) (size 15 to 20)
#    0.000    1.500    0.000    2.250    3.500   12.000 
#    4.500   26.250    0.000    3.000    0.000    0.000 
#    0.000    0.000    0.000    0.000    0.000    0.000 
#
# Total GULP energy -179303.916295 kJ/mol
# GULP energy per Si atom -5603.247384 kJ/mol
# Density = 2.865697 g / cm^3
# Si number density = 28.722340 Si / 1000 Ang^3
#
#
#
# Elastic Constant Matrix: (Units=GPa)
#
#
# Indices 1 2 3 4 5 6 
#
# 1 197.5392 84.7910 66.8291 0.0000 0.0000 0.0000
# 2 84.7910 166.1317 52.7422 0.0000 0.0000 0.0000
# 3 66.8291 52.7422 90.7142 0.0000 0.0000 0.0000
# 4 0.0000 0.0000 0.0000 30.6972 0.0000 0.0000
# 5 0.0000 0.0000 0.0000 0.0000 34.9376 0.0000
# 6 0.0000 0.0000 0.0000 0.0000 0.0000 66.4241
#
#
#
# Elastic Compliance Matrix: (Units=1/GPa)
#
#
# Indices 1 2 3 4 5 6 
#
# 1 0.007534 -0.002555 -0.004065 0.000000 0.000000 0.000000
# 2 -0.002555 0.008248 -0.002913 0.000000 0.000000 0.000000
# 3 -0.004065 -0.002913 0.015712 0.000000 0.000000 0.000000
# 4 0.000000 0.000000 0.000000 0.032576 0.000000 0.000000
# 5 0.000000 0.000000 0.000000 0.000000 0.028622 0.000000
# 6 0.000000 0.000000 0.000000 0.000000 0.000000 0.015055
#
#
# Mechanical properties :
#
#
# Convention : Reuss Voigt Hill
#
# Bulk Modulus (GPa) = 80.46329 95.90108 88.18219
# Shear Modulus (GPa) = 38.18043 43.07999 40.63021
#
# Velocity S-wave (km/s) = 3.64990 3.87703 3.76518
# Velocity P-wave (km/s) = 6.77033 7.31459 7.04772
#
# Compressibility (1/GPa) = 0.01242803
#
# Stress axis : x y z
#
# Youngs Moduli (GPa) = 132.72971 121.23882 63.64465
#
# Poissons Ratio (x) = 0.30974 0.25872
# Poissons Ratio (y) = 0.33909 0.18543
# Poissons Ratio (z) = 0.53955 0.35323
#
# Static dielectric constant tensor:
#      x y z
#    x 2.314970 0.000000 0.000000 
#    y 0.000000 2.176100 0.000000 
#    z 0.000000 0.000000 2.266850 
# 
# From -- ./inp_files/420.got.cif
#   From: 2010.05.17/outbox.cif.g08.bks.cpg/sg52_1_cif.got.tgz:420.got - 2010.06.03 12:15:38.
