data_PCOD9412384
_publ_section_title
;
Structure prediction by ZEFSAII (Michael W. Deem and Ramdas Pophale) SiO2 
 PCOD9412384
Probable space group: P N N A
;
_chemical_formula_sum "Si O2"
_cell_formula_units_Z 40
_cell_length_a 9.699366
_cell_length_b 13.368632
_cell_length_c 14.502090
_cell_angle_alpha 90.000000
_cell_angle_beta 90.000000
_cell_angle_gamma 90.000000
_cell_volume 1880.446198
_symmetry_space_group_name_H-M "P N N A"
_symmetry_group_IT_number 52
_symmetry_cell_setting 'orthorhombic'
loop_
_space_group_symop_operation_xyz
x,y,z
1/2-x,-y,z
x,1/2-y,1/2-z
1/2-x,1/2+y,1/2-z
-x,-y,-z
1/2+x,y,-z
-x,1/2+y,1/2+z
1/2+x,1/2-y,1/2+z
loop_
_atom_site_type_symbol
_atom_site_label
_atom_site_fract_x
_atom_site_fract_y
_atom_site_fract_z
Si Si1 0.070141 0.800100 0.495147
Si Si2 0.246877 0.619672 0.493235
Si Si3 0.813449 0.888036 0.401757
Si Si4 0.232055 0.880753 0.801204
Si Si5 0.938628 0.711621 0.658646
O O1 0.104809 0.682404 0.475348
O O2 0.221434 0.842506 0.515330
O O3 0.971790 0.863311 0.428531
O O4 0.998133 0.800542 0.595507
O O5 0.250000 0.500000 0.494163
O O6 0.290204 0.651402 0.598003
O O7 0.344406 0.650779 0.410235
O O8 0.788211 0.846174 0.298098
O O9 0.750000 0.000000 0.397897
O O10 0.071395 0.850924 0.807956
O O11 0.250000 0.000000 0.800871
O O12 0.864538 0.750000 0.750000
#
# Coordination Sequence:
#
# PCOD9412384 Si02
#       5
#     8   8   8   8   8
#     4  11  22  41  68  96 131 176 222 284 340 416
#     4  10  23  43  67  99 134 180 227 289 348 413
#     4  11  22  42  68 102 135 180 231 282 344 418
#     4   9  21  39  66  94 126 175 227 281 340 414
#     4  11  21  41  64  85 136 172 220 273 351 398
#
# _framework density 21.271545
#
# number of rings (size 3 to 8) (size 9 to 14) (size 15 to 20)
#    0.000    1.600    4.000    0.600    0.000    7.200 
#    0.000    9.000    0.000    0.000    0.000    0.000 
#    0.000    0.000    0.000    0.000    0.000    0.000 
#
# Total GULP energy -222725.657652 kJ/mol
# GULP energy per Si atom -5568.141441 kJ/mol
# Density = 2.122313 g / cm^3
# Si number density = 21.271545 Si / 1000 Ang^3
#
#
#
# Elastic Constant Matrix: (Units=GPa)
#
#
# Indices 1 2 3 4 5 6 
#
# 1 86.4923 29.8861 64.7891 0.0000 0.0000 0.0000
# 2 29.8861 94.3784 45.2595 0.0000 0.0000 0.0000
# 3 64.7891 45.2595 157.9564 0.0000 0.0000 0.0000
# 4 0.0000 0.0000 0.0000 26.8481 0.0000 0.0000
# 5 0.0000 0.0000 0.0000 0.0000 20.9474 0.0000
# 6 0.0000 0.0000 0.0000 0.0000 0.0000 25.7146
#
#
#
# Elastic Compliance Matrix: (Units=1/GPa)
#
#
# Indices 1 2 3 4 5 6 
#
# 1 0.017140 -0.002384 -0.006347 0.000000 0.000000 0.000000
# 2 -0.002384 0.012615 -0.002637 0.000000 0.000000 0.000000
# 3 -0.006347 -0.002637 0.009690 0.000000 0.000000 0.000000
# 4 0.000000 0.000000 0.000000 0.037247 0.000000 0.000000
# 5 0.000000 0.000000 0.000000 0.000000 0.047739 0.000000
# 6 0.000000 0.000000 0.000000 0.000000 0.000000 0.038888
#
#
# Mechanical properties :
#
#
# Convention : Reuss Voigt Hill
#
# Bulk Modulus (GPa) = 59.84771 68.74408 64.29589
# Shear Modulus (GPa) = 26.09278 27.96152 27.02715
#
# Velocity S-wave (km/s) = 3.50616 3.62954 3.56838
# Velocity P-wave (km/s) = 6.67735 7.06769 6.87529
#
# Compressibility (1/GPa) = 0.01670908
#
# Stress axis : x y z
#
# Youngs Moduli (GPa) = 58.34313 79.27075 103.20040
#
# Poissons Ratio (x) = 0.18896 0.65504
# Poissons Ratio (y) = 0.13907 0.27213
# Poissons Ratio (z) = 0.37032 0.20903
#
# Static dielectric constant tensor:
#      x y z
#    x 1.809670 0.000000 0.000000 
#    y 0.000000 1.907150 0.000000 
#    z 0.000000 0.000000 1.775780 
# 
# From -- ./inp_files/24442.got.cif
#   From: 2010.05.17/outbox.cif.g08.bks.cpg/sg52_13_cif.got.tgz:24442.got - 2010.06.03 12:15:38.
