data_PCOD9412268
_publ_section_title
;
Structure prediction by ZEFSAII (Michael W. Deem and Ramdas Pophale) SiO2 
 PCOD9412268
Probable space group: P N N A
;
_chemical_formula_sum "Si O2"
_cell_formula_units_Z 48
_cell_length_a 20.129331
_cell_length_b 4.996938
_cell_length_c 20.808254
_cell_angle_alpha 90.000000
_cell_angle_beta 90.000000
_cell_angle_gamma 90.000000
_cell_volume 2092.998624
_symmetry_space_group_name_H-M "P N N A"
_symmetry_group_IT_number 52
_symmetry_cell_setting 'orthorhombic'
loop_
_space_group_symop_operation_xyz
x,y,z
1/2-x,-y,z
x,1/2-y,1/2-z
1/2-x,1/2+y,1/2-z
-x,-y,-z
1/2+x,y,-z
-x,1/2+y,1/2+z
1/2+x,1/2-y,1/2+z
loop_
_atom_site_type_symbol
_atom_site_label
_atom_site_fract_x
_atom_site_fract_y
_atom_site_fract_z
Si Si1 0.250000 0.000000 0.078158
Si Si2 0.094078 0.614395 0.130062
Si Si3 0.162563 0.149640 0.182281
Si Si4 0.250000 0.000000 0.792265
Si Si5 0.126695 0.779595 0.638472
Si Si6 0.456736 0.727343 0.676076
Si Si7 0.325339 0.127409 0.496005
O O1 0.218632 0.206781 0.128576
O O2 0.308535 0.078340 0.030855
O O3 0.101136 0.346113 0.171190
O O4 0.124199 0.540806 0.060224
O O5 0.018300 0.701948 0.130317
O O6 0.137098 0.849499 0.166035
O O7 0.190529 0.250000 0.250000
O O8 0.276249 0.750000 0.750000
O O9 0.193292 0.855350 0.833642
O O10 0.071340 0.557918 0.654299
O O11 0.141591 0.854832 0.564838
O O12 0.101337 0.052297 0.670211
O O13 0.480241 0.750000 0.750000
O O14 0.250000 0.000000 0.498199
#
# Coordination Sequence:
#
# PCOD9412268 Si02
#       7
#     4   8   8   4   8   8   8
#     4  10  23  40  66  94 145 176 232 294 340 406
#     4  11  25  45  73  98 144 187 231 292 347 414
#     4  11  22  39  66 102 133 184 232 282 350 408
#     4  12  25  46  72 108 143 176 236 292 356 420
#     4  12  28  43  75 103 140 187 229 293 357 415
#     4  12  26  48  70 106 142 182 235 291 351 424
#     4  11  25  46  69 102 144 185 241 289 347 422
#
# _framework density 22.933602
#
# number of rings (size 3 to 8) (size 9 to 14) (size 15 to 20)
#    0.000    0.667    1.667    6.000    5.833    4.000 
#    0.000    0.000    0.000    0.000    0.000    0.000 
#    0.000    0.000    0.000    0.000    0.000    0.000 
#
# Total GULP energy -267935.926253 kJ/mol
# GULP energy per Si atom -5581.998464 kJ/mol
# Density = 2.288140 g / cm^3
# Si number density = 22.933602 Si / 1000 Ang^3
#
#
#
# Elastic Constant Matrix: (Units=GPa)
#
#
# Indices 1 2 3 4 5 6 
#
# 1 77.4392 0.4318 29.9203 0.0000 0.0000 0.0000
# 2 0.4318 87.1170 25.0054 0.0000 0.0000 0.0000
# 3 29.9203 25.0054 110.7813 0.0000 0.0000 0.0000
# 4 0.0000 0.0000 0.0000 19.8686 0.0000 0.0000
# 5 0.0000 0.0000 0.0000 0.0000 131.1264 0.0000
# 6 0.0000 0.0000 0.0000 0.0000 0.0000 34.3163
#
#
#
# Elastic Compliance Matrix: (Units=1/GPa)
#
#
# Indices 1 2 3 4 5 6 
#
# 1 0.014521 0.001127 -0.004176 0.000000 0.000000 0.000000
# 2 0.001127 0.012361 -0.003095 0.000000 0.000000 0.000000
# 3 -0.004176 -0.003095 0.010853 0.000000 0.000000 0.000000
# 4 0.000000 0.000000 0.000000 0.050331 0.000000 0.000000
# 5 0.000000 0.000000 0.000000 0.000000 0.007626 0.000000
# 6 0.000000 0.000000 0.000000 0.000000 0.000000 0.029141
#
#
# Mechanical properties :
#
#
# Convention : Reuss Voigt Hill
#
# Bulk Modulus (GPa) = 39.29675 42.89474 41.09575
# Shear Modulus (GPa) = 34.33992 51.72759 43.03375
#
# Velocity S-wave (km/s) = 3.87377 4.75440 4.33650
# Velocity P-wave (km/s) = 6.09757 6.99168 6.55988
#
# Compressibility (1/GPa) = 0.02544740
#
# Stress axis : x y z
#
# Youngs Moduli (GPa) = 68.86768 80.89658 92.13883
#
# Poissons Ratio (x) = -0.09115 0.38478
# Poissons Ratio (y) = -0.07759 0.28513
# Poissons Ratio (z) = 0.28760 0.25034
#
# Static dielectric constant tensor:
#      x y z
#    x 1.919340 0.000000 0.000000 
#    y 0.000000 1.932200 0.000000 
#    z 0.000000 0.000000 1.846320 
# 
# From -- ./inp_files/37865.got.cif
#   From: 2010.05.17/outbox.cif.g08.bks.cpg/sg52_19_cif.got.tgz:37865.got - 2010.06.03 12:15:38.
