data_PCOD9412746
_publ_section_title
;
Structure prediction by ZEFSAII (Michael W. Deem and Ramdas Pophale) SiO2 
 PCOD9412746
Probable space group: P N N A
;
_chemical_formula_sum "Si O2"
_cell_formula_units_Z 36
_cell_length_a 11.283617
_cell_length_b 9.484654
_cell_length_c 13.780041
_cell_angle_alpha 90.000000
_cell_angle_beta 90.000000
_cell_angle_gamma 90.000000
_cell_volume 1474.756567
_symmetry_space_group_name_H-M "P N N A"
_symmetry_group_IT_number 52
_symmetry_cell_setting 'orthorhombic'
loop_
_space_group_symop_operation_xyz
x,y,z
1/2-x,-y,z
x,1/2-y,1/2-z
1/2-x,1/2+y,1/2-z
-x,-y,-z
1/2+x,y,-z
-x,1/2+y,1/2+z
1/2+x,1/2-y,1/2+z
loop_
_atom_site_type_symbol
_atom_site_label
_atom_site_fract_x
_atom_site_fract_y
_atom_site_fract_z
Si Si1 0.969914 0.038458 0.761978
Si Si2 0.132186 0.767147 0.967653
Si Si3 0.750000 0.500000 0.594775
Si Si4 0.945143 0.730897 0.113765
Si Si5 0.750000 0.500000 0.067007
Si Si6 0.418323 0.250000 0.750000
O O1 0.067950 0.124226 0.826077
O O2 0.951912 0.147229 0.673829
O O3 0.862466 0.003331 0.833544
O O4 0.011140 0.889633 0.721457
O O5 0.165028 0.605387 0.987586
O O6 0.140249 0.792297 0.852293
O O7 0.999342 0.778785 0.010834
O O8 0.221927 0.868268 0.024621
O O9 0.839049 0.616792 0.115016
#
# Coordination Sequence:
#
# PCOD9412746 Si02
#       6
#     8   8   4   8   4   4
#     4  10  24  46  73 105 146 187 247 314 369 458
#     4  11  27  44  69 108 144 191 247 308 370 463
#     4  10  26  48  78 104 142 198 240 310 392 446
#     4  10  24  48  67 104 149 189 248 312 371 448
#     4  12  24  42  72 100 142 206 232 310 384 438
#     4  12  26  42  68 104 148 184 242 302 374 436
#
# _framework density 24.410806999999998
#
# number of rings (size 3 to 8) (size 9 to 14) (size 15 to 20)
#    0.000    1.333    2.222    0.667    6.222    8.889 
#    0.000    0.000    0.000    0.000    0.000    0.000 
#    0.000    0.000    0.000    0.000    0.000    0.000 
#
# Total GULP energy -200602.896850 kJ/mol
# GULP energy per Si atom -5572.302690 kJ/mol
# Density = 2.435525 g / cm^3
# Si number density = 24.410807 Si / 1000 Ang^3
#
#
#
# Elastic Constant Matrix: (Units=GPa)
#
#
# Indices 1 2 3 4 5 6 
#
# 1 84.4710 30.1496 45.6096 0.0000 0.0000 0.0000
# 2 30.1496 138.2773 14.1151 0.0000 0.0000 0.0000
# 3 45.6096 14.1151 130.2896 0.0000 0.0000 0.0000
# 4 0.0000 0.0000 0.0000 42.3702 0.0000 0.0000
# 5 0.0000 0.0000 0.0000 0.0000 -15.8654 0.0000
# 6 0.0000 0.0000 0.0000 0.0000 0.0000 41.2086
#
#
#
# Elastic Compliance Matrix: (Units=1/GPa)
#
#
# Indices 1 2 3 4 5 6 
#
# 1 0.015660 -0.002887 -0.005169 0.000000 0.000000 0.000000
# 2 -0.002887 0.007845 0.000161 0.000000 0.000000 0.000000
# 3 -0.005169 0.000161 0.009467 0.000000 0.000000 0.000000
# 4 0.000000 0.000000 0.000000 0.023601 0.000000 0.000000
# 5 0.000000 0.000000 0.000000 0.000000 -0.063030 0.000000
# 6 0.000000 0.000000 0.000000 0.000000 0.000000 0.024267
#
#
# Mechanical properties :
#
#
# Convention : Reuss Voigt Hill
#
# Bulk Modulus (GPa) = 58.20226 59.19848 58.70037
# Shear Modulus (GPa) = 127.13675 31.08691 79.11183
#
# Velocity S-wave (km/s) = 7.22463 3.57247 5.69902
# Velocity P-wave (km/s) = 9.66893 6.42809 8.21001
#
# Compressibility (1/GPa) = 0.01718146
#
# Stress axis : x y z
#
# Youngs Moduli (GPa) = 63.85778 127.47187 105.62622
#
# Poissons Ratio (x) = 0.36798 0.54600
# Poissons Ratio (y) = 0.18434 -0.01697
# Poissons Ratio (z) = 0.33009 -0.02048
#
# Static dielectric constant tensor:
#      x y z
#    x 2.060660 0.000000 0.000000 
#    y 0.000000 1.895260 0.000000 
#    z 0.000000 0.000000 2.008230 
# 
# From -- ./inp_files/26813.got.cif
#   From: 2010.05.17/outbox.cif.g08.bks.cpg/sg52_14_cif.got.tgz:26813.got - 2010.06.03 12:15:38.
