data_PCOD9412966
_publ_section_title
;
Structure prediction by ZEFSAII (Michael W. Deem and Ramdas Pophale) SiO2 
 PCOD9412966
Probable space group: P N N A
;
_chemical_formula_sum "Si O2"
_cell_formula_units_Z 32
_cell_length_a 6.720364
_cell_length_b 13.290423
_cell_length_c 17.011237
_cell_angle_alpha 90.000000
_cell_angle_beta 90.000000
_cell_angle_gamma 90.000000
_cell_volume 1519.383814
_symmetry_space_group_name_H-M "P N N A"
_symmetry_group_IT_number 52
_symmetry_cell_setting 'orthorhombic'
loop_
_space_group_symop_operation_xyz
x,y,z
1/2-x,-y,z
x,1/2-y,1/2-z
1/2-x,1/2+y,1/2-z
-x,-y,-z
1/2+x,y,-z
-x,1/2+y,1/2+z
1/2+x,1/2-y,1/2+z
loop_
_atom_site_type_symbol
_atom_site_label
_atom_site_fract_x
_atom_site_fract_y
_atom_site_fract_z
Si Si1 0.117719 0.081149 0.987471
Si Si2 0.681853 0.383799 0.311000
Si Si3 0.802240 0.109195 0.715939
Si Si4 0.404150 0.698003 0.355953
O O1 0.085331 0.116549 0.897770
O O2 0.372799 0.050603 0.989186
O O3 0.124661 0.167713 0.054361
O O4 0.750000 0.500000 0.300648
O O5 0.530257 0.366815 0.239047
O O6 0.869163 0.310685 0.325214
O O7 0.701194 0.197775 0.666282
O O8 0.698077 0.113498 0.801448
O O9 0.750000 0.000000 0.682187
#
# Coordination Sequence:
#
# PCOD9412966 Si02
#       4
#     8   8   8   8
#     4  11  18  33  63  99 131 160 212 284 344 396
#     4  11  21  38  66  92 132 173 222 282 345 389
#     4  11  23  40  60  91 140 178 224 268 333 412
#     4  11  23  37  62  99 129 175 224 273 350 391
#
# _framework density 21.061170000000001
#
# number of rings (size 3 to 8) (size 9 to 14) (size 15 to 20)
#    0.000    1.000    7.500    2.250    0.000    4.000 
#    0.000    0.000    0.000    1.500    0.000    0.000 
#    0.000    2.000    0.000    0.000    0.000    0.000 
#
# Total GULP energy -178419.701414 kJ/mol
# GULP energy per Si atom -5575.615669 kJ/mol
# Density = 2.101323 g / cm^3
# Si number density = 21.061170 Si / 1000 Ang^3
#
#
#
# Elastic Constant Matrix: (Units=GPa)
#
#
# Indices 1 2 3 4 5 6 
#
# 1 153.7246 58.7715 35.7148 0.0000 0.0000 0.0000
# 2 58.7715 159.7299 62.5312 0.0000 0.0000 0.0000
# 3 35.7148 62.5312 86.3509 0.0000 0.0000 0.0000
# 4 0.0000 0.0000 0.0000 29.6177 0.0000 0.0000
# 5 0.0000 0.0000 0.0000 0.0000 31.0043 0.0000
# 6 0.0000 0.0000 0.0000 0.0000 0.0000 31.1430
#
#
#
# Elastic Compliance Matrix: (Units=1/GPa)
#
#
# Indices 1 2 3 4 5 6 
#
# 1 0.007723 -0.002221 -0.001586 0.000000 0.000000 0.000000
# 2 -0.002221 0.009376 -0.005871 0.000000 0.000000 0.000000
# 3 -0.001586 -0.005871 0.016488 0.000000 0.000000 0.000000
# 4 0.000000 0.000000 0.000000 0.033764 0.000000 0.000000
# 5 0.000000 0.000000 0.000000 0.000000 0.032254 0.000000
# 6 0.000000 0.000000 0.000000 0.000000 0.000000 0.032110
#
#
# Mechanical properties :
#
#
# Convention : Reuss Voigt Hill
#
# Bulk Modulus (GPa) = 70.26795 79.31559 74.79177
# Shear Modulus (GPa) = 32.08960 34.53887 33.31423
#
# Velocity S-wave (km/s) = 3.90762 4.05400 3.98148
# Velocity P-wave (km/s) = 7.33454 7.72364 7.53160
#
# Compressibility (1/GPa) = 0.01423124
#
# Stress axis : x y z
#
# Youngs Moduli (GPa) = 129.49029 106.65405 60.64883
#
# Poissons Ratio (x) = 0.23683 0.09619
# Poissons Ratio (y) = 0.28754 0.35609
# Poissons Ratio (z) = 0.20538 0.62620
#
# Static dielectric constant tensor:
#      x y z
#    x 2.019820 0.000000 0.000000 
#    y 0.000000 1.768000 0.000000 
#    z 0.000000 0.000000 1.682560 
# 
# From -- ./inp_files/30018.got.cif
#   From: 2010.05.17/outbox.cif.g08.bks.cpg/sg52_16_cif.got.tgz:30018.got - 2010.06.03 12:15:38.
