data_PCOD9412115
_publ_section_title
;
Structure prediction by ZEFSAII (Michael W. Deem and Ramdas Pophale) SiO2 
 PCOD9412115
Probable space group: P N N A
;
_chemical_formula_sum "Si O2"
_cell_formula_units_Z 40
_cell_length_a 20.370130
_cell_length_b 8.158619
_cell_length_c 9.535107
_cell_angle_alpha 90.000000
_cell_angle_beta 90.000000
_cell_angle_gamma 90.000000
_cell_volume 1584.659739
_symmetry_space_group_name_H-M "P N N A"
_symmetry_group_IT_number 52
_symmetry_cell_setting 'orthorhombic'
loop_
_space_group_symop_operation_xyz
x,y,z
1/2-x,-y,z
x,1/2-y,1/2-z
1/2-x,1/2+y,1/2-z
-x,-y,-z
1/2+x,y,-z
-x,1/2+y,1/2+z
1/2+x,1/2-y,1/2+z
loop_
_atom_site_type_symbol
_atom_site_label
_atom_site_fract_x
_atom_site_fract_y
_atom_site_fract_z
Si Si1 0.570589 0.985151 0.145581
Si Si2 0.297117 0.660630 0.599190
Si Si3 0.906901 0.373353 0.039772
Si Si4 0.686976 0.426986 0.864885
Si Si5 0.932341 0.436659 0.752904
O O1 0.585640 0.820046 0.060380
O O2 0.584963 0.946344 0.307779
O O3 0.625018 0.115304 0.102412
O O4 0.493593 0.031033 0.152995
O O5 0.250000 0.500000 0.591590
O O6 0.282377 0.750000 0.750000
O O7 0.293403 0.773450 0.460352
O O8 0.838051 0.439131 0.979861
O O9 0.954001 0.436270 0.915688
O O10 0.750000 0.500000 0.790314
O O11 0.873723 0.567604 0.755277
O O12 0.906011 0.250000 0.750000
#
# Coordination Sequence:
#
# PCOD9412115 Si02
#       5
#     8   8   8   8   8
#     4  11  21  39  67 104 141 175 228 287 352 417
#     4  12  23  35  68 107 143 175 221 291 367 425
#     4   9  22  38  67  97 136 178 227 278 348 403
#     4  10  22  44  67  95 140 182 233 286 343 416
#     4  10  23  41  70  93 137 190 230 287 335 406
#
# _framework density 25.242014000000001
#
# number of rings (size 3 to 8) (size 9 to 14) (size 15 to 20)
#    1.200    0.400    2.000    3.000    2.800    0.800 
#    0.000    2.000    8.800    0.000    0.000    0.000 
#    0.000    0.000    0.000    0.000    0.000    0.000 
#
# Total GULP energy -223159.586967 kJ/mol
# GULP energy per Si atom -5578.989674 kJ/mol
# Density = 2.518456 g / cm^3
# Si number density = 25.242014 Si / 1000 Ang^3
#
#
#
# Elastic Constant Matrix: (Units=GPa)
#
#
# Indices 1 2 3 4 5 6 
#
# 1 113.3194 99.3150 33.6927 0.0000 0.0000 0.0000
# 2 99.3150 100.8221 36.1292 0.0000 0.0000 0.0000
# 3 33.6927 36.1292 79.0869 0.0000 0.0000 0.0000
# 4 0.0000 0.0000 0.0000 -17.0506 0.0000 0.0000
# 5 0.0000 0.0000 0.0000 0.0000 15.0717 0.0000
# 6 0.0000 0.0000 0.0000 0.0000 0.0000 -92.4645
#
#
#
# Elastic Compliance Matrix: (Units=1/GPa)
#
#
# Indices 1 2 3 4 5 6 
#
# 1 0.064789 -0.064487 0.001858 0.000000 0.000000 0.000000
# 2 -0.064487 0.076045 -0.007267 0.000000 0.000000 0.000000
# 3 0.001858 -0.007267 0.015173 0.000000 0.000000 0.000000
# 4 0.000000 0.000000 0.000000 -0.058649 0.000000 0.000000
# 5 0.000000 0.000000 0.000000 0.000000 0.066350 0.000000
# 6 0.000000 0.000000 0.000000 0.000000 0.000000 -0.010815
#
#
# Mechanical properties :
#
#
# Convention : Reuss Voigt Hill
#
# Bulk Modulus (GPa) = 61.66951 70.16690 65.91821
# Shear Modulus (GPa) = 16.77349 -10.61592 3.07879
#
# Velocity S-wave (km/s) = 2.58060 -2.05299 1.10560
# Velocity P-wave (km/s) = 5.77613 4.71575 5.27266
#
# Compressibility (1/GPa) = 0.01621547
#
# Stress axis : x y z
#
# Youngs Moduli (GPa) = 15.43464 13.15009 65.90801
#
# Poissons Ratio (x) = 0.84800 -0.12243
# Poissons Ratio (y) = 0.99533 0.47895
# Poissons Ratio (z) = -0.02867 0.09556
#
# Static dielectric constant tensor:
#      x y z
#    x 2.045540 0.000000 0.000000 
#    y 0.000000 2.054880 0.000000 
#    z 0.000000 0.000000 2.017310 
# 
# From -- ./inp_files/20317.got.cif
#   From: 2010.05.17/outbox.cif.g08.bks.cpg/sg52_11_cif.got.tgz:20317.got - 2010.06.03 12:15:38.
