data_PCOD9412957
_publ_section_title
;
Structure prediction by ZEFSAII (Michael W. Deem and Ramdas Pophale) SiO2 
 PCOD9412957
Probable space group: P N N A
;
_chemical_formula_sum "Si O2"
_cell_formula_units_Z 64
_cell_length_a 14.655233
_cell_length_b 15.384742
_cell_length_c 17.795531
_cell_angle_alpha 90.000000
_cell_angle_beta 90.000000
_cell_angle_gamma 90.000000
_cell_volume 4012.304608
_symmetry_space_group_name_H-M "P N N A"
_symmetry_group_IT_number 52
_symmetry_cell_setting 'orthorhombic'
loop_
_space_group_symop_operation_xyz
x,y,z
1/2-x,-y,z
x,1/2-y,1/2-z
1/2-x,1/2+y,1/2-z
-x,-y,-z
1/2+x,y,-z
-x,1/2+y,1/2+z
1/2+x,1/2-y,1/2+z
loop_
_atom_site_type_symbol
_atom_site_label
_atom_site_fract_x
_atom_site_fract_y
_atom_site_fract_z
Si Si1 0.899815 0.881938 0.451068
Si Si2 0.287402 0.219135 0.576586
Si Si3 0.921915 0.214207 0.553199
Si Si4 0.490291 0.172344 0.189573
Si Si5 0.183719 0.569453 0.810534
Si Si6 0.801344 0.667941 0.306593
Si Si7 0.143132 0.982055 0.420983
Si Si8 0.494105 0.968598 0.692878
O O1 0.804840 0.830783 0.449022
O O2 0.937475 0.907725 0.367631
O O3 0.979834 0.817392 0.478036
O O4 0.888575 0.967196 0.503264
O O5 0.354888 0.245501 0.511217
O O6 0.332584 0.149486 0.633476
O O7 0.256625 0.302019 0.623239
O O8 0.938366 0.285645 0.618398
O O9 0.875444 0.121713 0.577085
O O10 0.489414 0.250000 0.250000
O O11 0.595335 0.150941 0.169348
O O12 0.464147 0.087830 0.239187
O O13 0.250000 0.500000 0.852547
O O14 0.248330 0.597544 0.741924
O O15 0.087008 0.532859 0.784108
O O16 0.806906 0.750000 0.250000
O O17 0.075123 0.012105 0.354677
O O18 0.250000 0.000000 0.409882
#
# Coordination Sequence:
#
# PCOD9412957 Si02
#       8
#     8   8   8   8   8   8   8   8
#     4  11  18  29  45  73 109 134 163 207 263 315
#     4  11  19  31  48  73 111 137 165 208 263 330
#     4  11  21  30  48  70 104 146 169 211 257 312
#     4  11  17  32  48  73 102 135 179 211 253 303
#     4  11  18  29  52  82 103 133 161 213 280 319
#     4   9  18  31  49  73 107 133 166 214 264 320
#     4  11  21  30  44  74 110 142 172 203 258 323
#     4  11  20  31  50  75 105 136 176 219 254 312
#
# _framework density 15.950932999999999
#
# number of rings (size 3 to 8) (size 9 to 14) (size 15 to 20)
#    0.000    1.250    7.500    3.750    0.000    0.000 
#    0.000    0.000    0.000    2.250    3.250    0.000 
#    0.000    0.000    0.000    0.000    0.000    0.000 
#
# Total GULP energy -356350.564030 kJ/mol
# GULP energy per Si atom -5567.977563 kJ/mol
# Density = 1.591463 g / cm^3
# Si number density = 15.950933 Si / 1000 Ang^3
#
#
#
# Elastic Constant Matrix: (Units=GPa)
#
#
# Indices 1 2 3 4 5 6 
#
# 1 88.8335 21.3558 47.5903 0.0000 0.0000 0.0000
# 2 21.3558 31.9618 33.6669 0.0000 0.0000 0.0000
# 3 47.5903 33.6669 91.8531 0.0000 0.0000 0.0000
# 4 0.0000 0.0000 0.0000 31.4227 0.0000 0.0000
# 5 0.0000 0.0000 0.0000 0.0000 12.5748 0.0000
# 6 0.0000 0.0000 0.0000 0.0000 0.0000 12.4772
#
#
#
# Elastic Compliance Matrix: (Units=1/GPa)
#
#
# Indices 1 2 3 4 5 6 
#
# 1 0.015774 -0.003145 -0.007020 0.000000 0.000000 0.000000
# 2 -0.003145 0.051591 -0.017280 0.000000 0.000000 0.000000
# 3 -0.007020 -0.017280 0.020858 0.000000 0.000000 0.000000
# 4 0.000000 0.000000 0.000000 0.031824 0.000000 0.000000
# 5 0.000000 0.000000 0.000000 0.000000 0.079524 0.000000
# 6 0.000000 0.000000 0.000000 0.000000 0.000000 0.080146
#
#
# Mechanical properties :
#
#
# Convention : Reuss Voigt Hill
#
# Bulk Modulus (GPa) = 30.00101 46.43048 38.21574
# Shear Modulus (GPa) = 14.46268 18.63062 16.54665
#
# Velocity S-wave (km/s) = 3.01441 3.42130 3.22428
# Velocity P-wave (km/s) = 5.56459 6.69168 6.15399
#
# Compressibility (1/GPa) = 0.03333221
#
# Stress axis : x y z
#
# Youngs Moduli (GPa) = 63.39617 19.38332 47.94410
#
# Poissons Ratio (x) = 0.06097 0.33656
# Poissons Ratio (y) = 0.19940 0.82847
# Poissons Ratio (z) = 0.44503 0.33494
#
# Static dielectric constant tensor:
#      x y z
#    x 1.555250 0.000000 0.000000 
#    y 0.000000 1.593210 0.000000 
#    z 0.000000 0.000000 1.562310 
# 
# From -- ./inp_files/33352.got.cif
#   From: 2010.05.17/outbox.cif.g08.bks.cpg/sg52_17_cif.got.tgz:33352.got - 2010.06.03 12:15:38.
