data_PCOD9412038
_publ_section_title
;
Structure prediction by ZEFSAII (Michael W. Deem and Ramdas Pophale) SiO2 
 PCOD9412038
Probable space group: P N N A
;
_chemical_formula_sum "Si O2"
_cell_formula_units_Z 36
_cell_length_a 11.238922
_cell_length_b 18.959423
_cell_length_c 8.228612
_cell_angle_alpha 90.000000
_cell_angle_beta 90.000000
_cell_angle_gamma 90.000000
_cell_volume 1753.381250
_symmetry_space_group_name_H-M "P N N A"
_symmetry_group_IT_number 52
_symmetry_cell_setting 'orthorhombic'
loop_
_space_group_symop_operation_xyz
x,y,z
1/2-x,-y,z
x,1/2-y,1/2-z
1/2-x,1/2+y,1/2-z
-x,-y,-z
1/2+x,y,-z
-x,1/2+y,1/2+z
1/2+x,1/2-y,1/2+z
loop_
_atom_site_type_symbol
_atom_site_label
_atom_site_fract_x
_atom_site_fract_y
_atom_site_fract_z
Si Si1 0.681551 0.750000 0.750000
Si Si2 0.848154 0.441903 0.447357
Si Si3 0.218294 0.207886 0.915135
Si Si4 0.115387 0.484945 0.891097
Si Si5 0.496571 0.868197 0.802293
O O1 0.754590 0.745887 0.583708
O O2 0.601521 0.820482 0.732641
O O3 0.750000 0.500000 0.500322
O O4 0.788536 0.365743 0.424244
O O5 0.889426 0.466945 0.270403
O O6 0.948252 0.428216 0.581898
O O7 0.247560 0.250000 0.750000
O O8 0.080828 0.186073 0.906530
O O9 0.250000 0.500000 0.958204
O O10 0.091447 0.405349 0.826239
O O11 0.000000 0.500000 0.000000
#
# Coordination Sequence:
#
# PCOD9412038 Si02
#       5
#     4   8   8   8   8
#     4  10  26  44  68 102 130 192 232 284 356 424
#     4  10  22  43  67  97 130 183 228 287 359 416
#     4  11  23  45  68  97 144 176 235 291 348 422
#     4  11  24  42  66 101 137 180 230 293 353 418
#     4  11  22  44  69  97 136 180 235 290 352 433
#
# _framework density 20.531756000000001
#
# number of rings (size 3 to 8) (size 9 to 14) (size 15 to 20)
#    0.000    1.333    5.556    0.667    3.111    0.889 
#   16.000    0.000    0.000    0.000    0.000    0.000 
#    0.000    0.000    0.000    0.000    0.000    0.000 
#
# Total GULP energy -200827.884013 kJ/mol
# GULP energy per Si atom -5578.552334 kJ/mol
# Density = 2.048502 g / cm^3
# Si number density = 20.531756 Si / 1000 Ang^3
#
#
#
# Elastic Constant Matrix: (Units=GPa)
#
#
# Indices 1 2 3 4 5 6 
#
# 1 131.6697 36.1820 68.2376 0.0000 0.0000 0.0000
# 2 36.1820 82.9960 49.0616 0.0000 0.0000 0.0000
# 3 68.2376 49.0616 101.5902 0.0000 0.0000 0.0000
# 4 0.0000 0.0000 0.0000 36.9252 0.0000 0.0000
# 5 0.0000 0.0000 0.0000 0.0000 45.1103 0.0000
# 6 0.0000 0.0000 0.0000 0.0000 0.0000 42.9500
#
#
#
# Elastic Compliance Matrix: (Units=1/GPa)
#
#
# Indices 1 2 3 4 5 6 
#
# 1 0.011674 -0.000635 -0.007535 0.000000 0.000000 0.000000
# 2 -0.000635 0.016897 -0.007734 0.000000 0.000000 0.000000
# 3 -0.007535 -0.007734 0.018639 0.000000 0.000000 0.000000
# 4 0.000000 0.000000 0.000000 0.027082 0.000000 0.000000
# 5 0.000000 0.000000 0.000000 0.000000 0.022168 0.000000
# 6 0.000000 0.000000 0.000000 0.000000 0.000000 0.023283
#
#
# Mechanical properties :
#
#
# Convention : Reuss Voigt Hill
#
# Bulk Modulus (GPa) = 64.91980 69.24650 67.08315
# Shear Modulus (GPa) = 31.91117 35.84874 33.87996
#
# Velocity S-wave (km/s) = 3.94666 4.18307 4.06658
# Velocity P-wave (km/s) = 7.24265 7.55847 7.40224
#
# Compressibility (1/GPa) = 0.01540362
#
# Stress axis : x y z
#
# Youngs Moduli (GPa) = 85.65927 59.18095 53.65026
#
# Poissons Ratio (x) = 0.03760 0.40423
# Poissons Ratio (y) = 0.05443 0.41491
# Poissons Ratio (z) = 0.64541 0.45768
#
# Static dielectric constant tensor:
#      x y z
#    x 1.864550 0.000000 0.000000 
#    y 0.000000 1.778020 0.000000 
#    z 0.000000 0.000000 1.755890 
# 
# From -- ./inp_files/8651.got.cif
#   From: 2010.05.17/outbox.cif.g08.bks.cpg/sg52_5_cif.got.tgz:8651.got - 2010.06.03 12:15:38.
