data_PCOD9412333
_publ_section_title
;
Structure prediction by ZEFSAII (Michael W. Deem and Ramdas Pophale) SiO2 
 PCOD9412333
Probable space group: P N N A
;
_chemical_formula_sum "Si O2"
_cell_formula_units_Z 48
_cell_length_a 11.574810
_cell_length_b 13.444853
_cell_length_c 15.376609
_cell_angle_alpha 90.000000
_cell_angle_beta 90.000000
_cell_angle_gamma 90.000000
_cell_volume 2392.932787
_symmetry_space_group_name_H-M "P N N A"
_symmetry_group_IT_number 52
_symmetry_cell_setting 'orthorhombic'
loop_
_space_group_symop_operation_xyz
x,y,z
1/2-x,-y,z
x,1/2-y,1/2-z
1/2-x,1/2+y,1/2-z
-x,-y,-z
1/2+x,y,-z
-x,1/2+y,1/2+z
1/2+x,1/2-y,1/2+z
loop_
_atom_site_type_symbol
_atom_site_label
_atom_site_fract_x
_atom_site_fract_y
_atom_site_fract_z
Si Si1 0.713955 0.369716 0.250000
Si Si2 0.573776 0.130871 0.424189
Si Si3 0.377750 0.522142 0.400134
Si Si4 0.122250 0.022142 0.400134
Si Si5 0.481648 0.369563 0.750000
Si Si6 0.426224 0.869129 0.924189
O O1 0.716951 0.250000 0.250000
O O2 0.646475 0.395649 0.161913
O O3 0.652768 0.598635 0.250000
O O4 0.646475 0.395649 0.338087
O O5 0.630109 0.081701 0.509219
O O6 0.566772 0.250000 0.431989
O O7 0.448544 0.079574 0.415627
O O8 0.250000 0.500000 0.366639
O O9 0.453045 0.586869 0.333581
O O10 0.369891 0.581701 0.490781
O O11 0.448544 0.420426 0.415627
O O12 0.046955 0.086869 0.333581
O O13 0.250000 0.000000 0.366639
O O14 0.486607 0.250000 0.750000
#
# Coordination Sequence:
#
# PCOD9412333 Si02
#       6
#     8   8   8   8   8   8
#     4   9  21  41  68  93 121 168 216 264 314 377
#     4  10  23  42  65  95 130 171 218 268 324 382
#     4  11  25  41  63  97 131 173 213 268 327 387
#     4  11  25  41  63  97 131 173 213 268 327 387
#     4  11  24  43  68  97 130 169 218 270 322 382
#     4  10  23  42  65  95 130 171 218 268 324 382
#
# _framework density 20.059066999999999
#
# number of rings (size 3 to 8) (size 9 to 14) (size 15 to 20)
#    0.000    1.667    0.000    2.500    9.333    4.000 
#    0.000    1.667    0.000    0.000    0.000    0.000 
#    0.000    0.000    0.000    0.000    0.000    0.000 
#
# Total GULP energy -268422.218956 kJ/mol
# GULP energy per Si atom -5592.129562 kJ/mol
# Density = 2.001341 g / cm^3
# Si number density = 20.059067 Si / 1000 Ang^3
#
#
#
# Elastic Constant Matrix: (Units=GPa)
#
#
# Indices 1 2 3 4 5 6 
#
# 1 132.9221 54.6791 52.8199 0.0000 0.0000 0.0000
# 2 54.6791 145.4928 50.3504 0.0000 0.0000 0.0000
# 3 52.8199 50.3504 160.2770 0.0000 0.0000 0.0000
# 4 0.0000 0.0000 0.0000 18.0850 0.0000 0.0000
# 5 0.0000 0.0000 0.0000 0.0000 -5.8834 0.0000
# 6 0.0000 0.0000 0.0000 0.0000 0.0000 24.2368
#
#
#
# Elastic Compliance Matrix: (Units=1/GPa)
#
#
# Indices 1 2 3 4 5 6 
#
# 1 0.009585 -0.002815 -0.002274 0.000000 0.000000 0.000000
# 2 -0.002815 0.008538 -0.001755 0.000000 0.000000 0.000000
# 3 -0.002274 -0.001755 0.007540 0.000000 0.000000 0.000000
# 4 0.000000 0.000000 0.000000 0.055294 0.000000 0.000000
# 5 0.000000 0.000000 0.000000 0.000000 -0.169970 0.000000
# 6 0.000000 0.000000 0.000000 0.000000 0.000000 0.041259
#
#
# Mechanical properties :
#
#
# Convention : Reuss Voigt Hill
#
# Bulk Modulus (GPa) = 83.50656 83.82117 83.66386
# Shear Modulus (GPa) = -166.26192 26.01053 -70.12570
#
# Velocity S-wave (km/s) = -9.11406 3.60487 -5.91908
# Velocity P-wave (km/s) = 8.30868 7.69446 2.21691
#
# Compressibility (1/GPa) = 0.01197511
#
# Stress axis : x y z
#
# Youngs Moduli (GPa) = 104.32920 117.11825 132.62726
#
# Poissons Ratio (x) = 0.32971 0.30165
# Poissons Ratio (y) = 0.29370 0.23270
# Poissons Ratio (z) = 0.23729 0.20549
#
# Static dielectric constant tensor:
#      x y z
#    x 1.672850 0.000000 0.000000 
#    y 0.000000 1.707590 0.000000 
#    z 0.000000 0.000000 1.689190 
# 
# From -- ./inp_files/32225.got.cif
#   From: 2010.05.17/outbox.cif.g08.bks.cpg/sg52_17_cif.got.tgz:32225.got - 2010.06.03 12:15:38.
