data_PCOD9412647
_publ_section_title
;
Structure prediction by ZEFSAII (Michael W. Deem and Ramdas Pophale) SiO2 
 PCOD9412647
Probable space group: P N N A
;
_chemical_formula_sum "Si O2"
_cell_formula_units_Z 32
_cell_length_a 18.511326
_cell_length_b 15.025359
_cell_length_c 5.013746
_cell_angle_alpha 90.000000
_cell_angle_beta 90.000000
_cell_angle_gamma 90.000000
_cell_volume 1394.519897
_symmetry_space_group_name_H-M "P N N A"
_symmetry_group_IT_number 52
_symmetry_cell_setting 'orthorhombic'
loop_
_space_group_symop_operation_xyz
x,y,z
1/2-x,-y,z
x,1/2-y,1/2-z
1/2-x,1/2+y,1/2-z
-x,-y,-z
1/2+x,y,-z
-x,1/2+y,1/2+z
1/2+x,1/2-y,1/2+z
loop_
_atom_site_type_symbol
_atom_site_label
_atom_site_fract_x
_atom_site_fract_y
_atom_site_fract_z
Si Si1 0.117841 0.667494 0.065828
Si Si2 0.834386 0.978916 0.512743
Si Si3 0.480038 0.750000 0.750000
Si Si4 0.143604 0.135228 0.997751
Si Si5 0.233854 0.750000 0.750000
O O1 0.145725 0.750000 0.250000
O O2 0.122197 0.563763 0.126925
O O3 0.034446 0.696128 0.053751
O O4 0.176301 0.674260 0.831399
O O5 0.847597 0.947418 0.209566
O O6 0.750000 0.000000 0.548904
O O7 0.854806 0.896654 0.700603
O O8 0.429225 0.814942 0.915820
O O9 0.210814 0.201463 0.948283
#
# Coordination Sequence:
#
# PCOD9412647 Si02
#       5
#     8   8   4   8   4
#     4  10  24  43  66  97 138 178 230 275 349 406
#     4  12  24  43  72 109 132 177 234 295 333 403
#     4   9  26  48  64 103 138 192 218 279 354 416
#     4  11  26  44  72 100 141 177 233 281 349 405
#     4  11  22  42  72  95 138 186 226 289 336 426
#
# _framework density 22.946967000000001
#
# number of rings (size 3 to 8) (size 9 to 14) (size 15 to 20)
#    0.750    0.500    2.500    2.250    3.500    7.000 
#    0.000    0.000    0.000    0.000    0.000    0.000 
#    0.000    0.000    0.000    0.000    0.000    0.000 
#
# Total GULP energy -178494.296026 kJ/mol
# GULP energy per Si atom -5577.946751 kJ/mol
# Density = 2.289474 g / cm^3
# Si number density = 22.946967 Si / 1000 Ang^3
#
#
#
# Elastic Constant Matrix: (Units=GPa)
#
#
# Indices 1 2 3 4 5 6 
#
# 1 175.7761 39.3864 5.9802 0.0000 0.0000 0.0000
# 2 39.3864 86.7898 -0.1409 0.0000 0.0000 0.0000
# 3 5.9802 -0.1409 50.5186 0.0000 0.0000 0.0000
# 4 0.0000 0.0000 0.0000 39.2888 0.0000 0.0000
# 5 0.0000 0.0000 0.0000 0.0000 8.6813 0.0000
# 6 0.0000 0.0000 0.0000 0.0000 0.0000 41.7914
#
#
#
# Elastic Compliance Matrix: (Units=1/GPa)
#
#
# Indices 1 2 3 4 5 6 
#
# 1 0.006362 -0.002888 -0.000761 0.000000 0.000000 0.000000
# 2 -0.002888 0.012834 0.000378 0.000000 0.000000 0.000000
# 3 -0.000761 0.000378 0.019886 0.000000 0.000000 0.000000
# 4 0.000000 0.000000 0.000000 0.025453 0.000000 0.000000
# 5 0.000000 0.000000 0.000000 0.000000 0.115190 0.000000
# 6 0.000000 0.000000 0.000000 0.000000 0.000000 0.023928
#
#
# Mechanical properties :
#
#
# Convention : Reuss Voigt Hill
#
# Bulk Modulus (GPa) = 30.73362 44.83733 37.78548
# Shear Modulus (GPa) = 22.62007 35.80954 29.21481
#
# Velocity S-wave (km/s) = 3.14308 3.95465 3.57199
# Velocity P-wave (km/s) = 5.15697 6.35879 5.78915
#
# Compressibility (1/GPa) = 0.03253765
#
# Stress axis : x y z
#
# Youngs Moduli (GPa) = 157.17890 77.92083 50.28705
#
# Poissons Ratio (x) = 0.22507 0.03828
# Poissons Ratio (y) = 0.45401 -0.01899
# Poissons Ratio (z) = 0.11964 -0.02943
#
# Static dielectric constant tensor:
#      x y z
#    x 1.788830 0.000000 0.000000 
#    y 0.000000 2.148260 0.000000 
#    z 0.000000 0.000000 1.672010 
# 
# From -- ./inp_files/3006.got.cif
#   From: 2010.05.17/outbox.cif.g08.bks.cpg/sg52_2_cif.got.tgz:3006.got - 2010.06.03 12:15:38.
