data_PCOD9412320
_publ_section_title
;
Structure prediction by ZEFSAII (Michael W. Deem and Ramdas Pophale) SiO2 
 PCOD9412320
Probable space group: P N N A
;
_chemical_formula_sum "Si O2"
_cell_formula_units_Z 64
_cell_length_a 9.248533
_cell_length_b 24.774380
_cell_length_c 11.445280
_cell_angle_alpha 90.000000
_cell_angle_beta 90.000000
_cell_angle_gamma 90.000000
_cell_volume 2622.418905
_symmetry_space_group_name_H-M "P N N A"
_symmetry_group_IT_number 52
_symmetry_cell_setting 'orthorhombic'
loop_
_space_group_symop_operation_xyz
x,y,z
1/2-x,-y,z
x,1/2-y,1/2-z
1/2-x,1/2+y,1/2-z
-x,-y,-z
1/2+x,y,-z
-x,1/2+y,1/2+z
1/2+x,1/2-y,1/2+z
loop_
_atom_site_type_symbol
_atom_site_label
_atom_site_fract_x
_atom_site_fract_y
_atom_site_fract_z
Si Si1 0.233322 0.804545 0.009088
Si Si2 0.413980 0.991842 0.166694
Si Si3 0.134277 0.139292 0.717218
Si Si4 0.447216 0.193546 0.675650
Si Si5 0.559355 0.895485 0.913735
Si Si6 0.908561 0.523423 0.108248
Si Si7 0.979261 0.764794 0.417638
Si Si8 0.351527 0.625460 0.316749
O O1 0.120921 0.772105 0.090535
O O2 0.360766 0.827155 0.089126
O O3 0.636127 0.858519 0.012899
O O4 0.323356 0.766494 0.922221
O O5 0.417789 0.929303 0.132227
O O6 0.250000 0.000000 0.212178
O O7 0.434796 0.040079 0.074427
O O8 0.523137 0.000827 0.272022
O O9 0.088293 0.122235 0.849618
O O10 0.035967 0.189353 0.677698
O O11 0.296745 0.162075 0.700544
O O12 0.104924 0.087806 0.633008
O O13 0.451113 0.250000 0.750000
O O14 0.486362 0.209304 0.543858
O O15 0.568997 0.149456 0.707796
O O16 0.680526 0.885578 0.809954
O O17 0.750000 0.500000 0.093705
O O18 0.000000 0.500000 0.000000
#
# Coordination Sequence:
#
# PCOD9412320 Si02
#       8
#     8   8   8   8   8   8   8   8
#     4  10  23  42  61  89 121 166 201 259 300 373
#     4   9  17  38  64  89 108 154 205 254 294 372
#     4  11  26  38  61  91 124 163 205 255 295 366
#     4  12  24  39  59  89 122 164 207 250 306 364
#     4   8  20  39  64  88 116 158 206 247 310 356
#     4  11  24  39  57  87 126 160 196 248 307 361
#     4  12  25  40  58  90 126 163 206 251 310 362
#     4   9  20  37  66  84 118 157 207 244 306 365
#
# _framework density 24.404948999999998
#
# number of rings (size 3 to 8) (size 9 to 14) (size 15 to 20)
#    0.750    1.000    2.500    1.125    7.000    1.000 
#    0.000    0.000    0.000    3.000    0.000    0.000 
#    0.000    0.000    0.000    0.000    0.000    0.000 
#
# Total GULP energy -357083.598275 kJ/mol
# GULP energy per Si atom -5579.431223 kJ/mol
# Density = 2.434940 g / cm^3
# Si number density = 24.404949 Si / 1000 Ang^3
#
#
#
# Elastic Constant Matrix: (Units=GPa)
#
#
# Indices 1 2 3 4 5 6 
#
# 1 145.2182 52.8147 32.6857 0.0000 0.0000 0.0000
# 2 52.8147 167.0629 19.9979 0.0000 0.0000 0.0000
# 3 32.6857 19.9979 47.6679 0.0000 0.0000 0.0000
# 4 0.0000 0.0000 0.0000 33.3204 0.0000 0.0000
# 5 0.0000 0.0000 0.0000 0.0000 31.6467 0.0000
# 6 0.0000 0.0000 0.0000 0.0000 0.0000 42.0505
#
#
#
# Elastic Compliance Matrix: (Units=1/GPa)
#
#
# Indices 1 2 3 4 5 6 
#
# 1 0.008836 -0.002178 -0.005145 0.000000 0.000000 0.000000
# 2 -0.002178 0.006839 -0.001376 0.000000 0.000000 0.000000
# 3 -0.005145 -0.001376 0.025084 0.000000 0.000000 0.000000
# 4 0.000000 0.000000 0.000000 0.030012 0.000000 0.000000
# 5 0.000000 0.000000 0.000000 0.000000 0.031599 0.000000
# 6 0.000000 0.000000 0.000000 0.000000 0.000000 0.023781
#
#
# Mechanical properties :
#
#
# Convention : Reuss Voigt Hill
#
# Bulk Modulus (GPa) = 42.80607 63.43838 53.12222
# Shear Modulus (GPa) = 33.03916 38.36689 35.70303
#
# Velocity S-wave (km/s) = 3.68338 3.96927 3.82899
# Velocity P-wave (km/s) = 5.97224 6.85983 6.43137
#
# Compressibility (1/GPa) = 0.02336117
#
# Stress axis : x y z
#
# Youngs Moduli (GPa) = 113.16968 146.22286 39.86616
#
# Poissons Ratio (x) = 0.31841 0.20513
# Poissons Ratio (y) = 0.24643 0.05485
# Poissons Ratio (z) = 0.58231 0.20119
#
# Static dielectric constant tensor:
#      x y z
#    x 1.900250 0.000000 0.000000 
#    y 0.000000 1.985300 0.000000 
#    z 0.000000 0.000000 2.131360 
# 
# From -- ./inp_files/25124.got.cif
#   From: 2010.05.17/outbox.cif.g08.bks.cpg/sg52_13_cif.got.tgz:25124.got - 2010.06.03 12:15:38.
