data_PCOD9412022
_publ_section_title
;
Structure prediction by ZEFSAII (Michael W. Deem and Ramdas Pophale) SiO2 
 PCOD9412022
Probable space group: P N N A
;
_chemical_formula_sum "Si O2"
_cell_formula_units_Z 40
_cell_length_a 5.647582
_cell_length_b 11.204762
_cell_length_c 30.744879
_cell_angle_alpha 90.000000
_cell_angle_beta 90.000000
_cell_angle_gamma 90.000000
_cell_volume 1945.530169
_symmetry_space_group_name_H-M "P N N A"
_symmetry_group_IT_number 52
_symmetry_cell_setting 'orthorhombic'
loop_
_space_group_symop_operation_xyz
x,y,z
1/2-x,-y,z
x,1/2-y,1/2-z
1/2-x,1/2+y,1/2-z
-x,-y,-z
1/2+x,y,-z
-x,1/2+y,1/2+z
1/2+x,1/2-y,1/2+z
loop_
_atom_site_type_symbol
_atom_site_label
_atom_site_fract_x
_atom_site_fract_y
_atom_site_fract_z
Si Si1 0.280749 0.639537 0.824544
Si Si2 0.603648 0.162191 0.821631
Si Si3 0.252417 0.359155 0.025104
Si Si4 0.612190 0.750000 0.750000
Si Si5 0.028905 0.720727 0.395846
Si Si6 0.250000 0.500000 0.627015
O O1 0.250000 0.500000 0.820508
O O2 0.453369 0.688790 0.786935
O O3 0.380795 0.674886 0.872160
O O4 0.041377 0.714437 0.819617
O O5 0.727729 0.153129 0.775155
O O6 0.797371 0.174774 0.858660
O O7 0.432549 0.060986 0.839505
O O8 0.250000 0.500000 0.037361
O O9 0.318940 0.273244 0.065007
O O10 0.485294 0.339630 0.993733
O O11 0.858383 0.606341 0.402350
#
# Coordination Sequence:
#
# PCOD9412022 Si02
#       6
#     8   8   8   4   8   4
#     4  10  23  41  62  94 125 171 221 276 336 399
#     4  10  22  43  62  91 128 171 223 271 335 393
#     4  10  24  43  71 108 140 176 220 280 346 414
#     4  10  22  44  56  96 124 172 218 282 334 394
#     4  10  23  41  70  93 133 175 218 273 336 407
#     4  10  22  44  66  94 124 182 226 272 330 414
#
# _framework density 20.559946
#
# number of rings (size 3 to 8) (size 9 to 14) (size 15 to 20)
#    0.000    2.000    0.000    1.200    8.400    3.200 
#   43.200    1.000    0.000    0.000    0.000    0.000 
#    0.000    0.000    0.000    0.000    0.000    0.000 
#
# Total GULP energy -223192.331234 kJ/mol
# GULP energy per Si atom -5579.808281 kJ/mol
# Density = 2.051315 g / cm^3
# Si number density = 20.559946 Si / 1000 Ang^3
#
#
#
# Elastic Constant Matrix: (Units=GPa)
#
#
# Indices 1 2 3 4 5 6 
#
# 1 75.9318 36.9258 12.9464 0.0000 0.0000 0.0000
# 2 36.9258 131.7625 37.5617 0.0000 0.0000 0.0000
# 3 12.9464 37.5617 60.6678 0.0000 0.0000 0.0000
# 4 0.0000 0.0000 0.0000 -1.2763 0.0000 0.0000
# 5 0.0000 0.0000 0.0000 0.0000 15.2878 0.0000
# 6 0.0000 0.0000 0.0000 0.0000 0.0000 7.6614
#
#
#
# Elastic Compliance Matrix: (Units=1/GPa)
#
#
# Indices 1 2 3 4 5 6 
#
# 1 0.015275 -0.004070 -0.000740 0.000000 0.000000 0.000000
# 2 -0.004070 0.010300 -0.005509 0.000000 0.000000 0.000000
# 3 -0.000740 -0.005509 0.020052 0.000000 0.000000 0.000000
# 4 0.000000 0.000000 0.000000 -0.783504 0.000000 0.000000
# 5 0.000000 0.000000 0.000000 0.000000 0.065411 0.000000
# 6 0.000000 0.000000 0.000000 0.000000 0.000000 0.130524
#
#
# Mechanical properties :
#
#
# Convention : Reuss Voigt Hill
#
# Bulk Modulus (GPa) = 40.01584 49.24776 44.63180
# Shear Modulus (GPa) = -9.74709 16.39647 3.32469
#
# Velocity S-wave (km/s) = -2.17970 2.82706 1.27302
# Velocity P-wave (km/s) = 3.62911 5.88741 4.89040
#
# Compressibility (1/GPa) = 0.02499010
#
# Stress axis : x y z
#
# Youngs Moduli (GPa) = 65.46631 97.08384 49.87080
#
# Poissons Ratio (x) = 0.39511 0.03690
# Poissons Ratio (y) = 0.26644 0.27473
# Poissons Ratio (z) = 0.04844 0.53482
#
# Static dielectric constant tensor:
#      x y z
#    x 1.801960 0.000000 0.000000 
#    y 0.000000 1.735320 0.000000 
#    z 0.000000 0.000000 1.706880 
# 
# From -- ./inp_files/43688.got.cif
#   From: 2010.05.17/outbox.cif.g08.bks.cpg/sg52_22_cif.got.tgz:43688.got - 2010.06.03 12:15:38.
