data_PCOD9412056
_publ_section_title
;
Structure prediction by ZEFSAII (Michael W. Deem and Ramdas Pophale) SiO2 
 PCOD9412056
Probable space group: P N N A
;
_chemical_formula_sum "Si O2"
_cell_formula_units_Z 60
_cell_length_a 5.523796
_cell_length_b 22.926560
_cell_length_c 20.935643
_cell_angle_alpha 90.000000
_cell_angle_beta 90.000000
_cell_angle_gamma 90.000000
_cell_volume 2651.324173
_symmetry_space_group_name_H-M "P N N A"
_symmetry_group_IT_number 52
_symmetry_cell_setting 'orthorhombic'
loop_
_space_group_symop_operation_xyz
x,y,z
1/2-x,-y,z
x,1/2-y,1/2-z
1/2-x,1/2+y,1/2-z
-x,-y,-z
1/2+x,y,-z
-x,1/2+y,1/2+z
1/2+x,1/2-y,1/2+z
loop_
_atom_site_type_symbol
_atom_site_label
_atom_site_fract_x
_atom_site_fract_y
_atom_site_fract_z
Si Si1 0.310851 0.119459 0.463281
Si Si2 0.867853 0.181305 0.252586
Si Si3 0.617224 0.413797 0.830410
Si Si4 0.510884 0.600454 0.722288
Si Si5 0.852561 0.641539 0.625516
Si Si6 0.999922 0.975804 0.927215
Si Si7 0.310799 0.259130 0.465502
Si Si8 0.250000 0.000000 0.714551
O O1 0.569524 0.104414 0.495246
O O2 0.273310 0.092489 0.393631
O O3 0.303590 0.189801 0.454942
O O4 0.901906 0.250000 0.250000
O O5 0.588298 0.161959 0.248796
O O6 0.976257 0.146928 0.313774
O O7 0.985820 0.155811 0.187473
O O8 0.778205 0.422012 0.767857
O O9 0.443256 0.469240 0.831408
O O10 0.609494 0.611492 0.652630
O O11 0.311438 0.552855 0.737766
O O12 0.771912 0.700984 0.592830
O O13 0.982224 0.594206 0.579999
O O14 0.250000 0.000000 0.899298
O O15 0.750000 0.000000 0.897658
O O16 0.000000 0.000000 0.000000
O O17 0.589961 0.272342 0.484591
#
# Coordination Sequence:
#
# PCOD9412056 Si02
#       8
#     8   8   8   8   8   8   8   4
#     4  10  23  43  69 107 138 179 223 272 341 421
#     4  10  23  41  66 101 133 172 226 290 351 415
#     4  10  22  43  69  93 137 175 220 282 345 413
#     4  10  24  42  67 101 130 177 226 290 344 418
#     4  11  25  42  68  95 132 178 240 283 351 410
#     4  10  25  43  64  90 130 180 229 288 340 393
#     4  10  24  41  68  96 138 181 226 281 343 414
#     4  10  22  44  70  96 132 174 224 276 364 396
#
# _framework density 22.630201
#
# number of rings (size 3 to 8) (size 9 to 14) (size 15 to 20)
#    0.000    1.867    0.000    1.200   11.200    6.400 
#    4.800    0.667    0.000    0.000    0.000    0.000 
#    0.000    0.000    0.000    0.000    0.000    0.000 
#
# Total GULP energy -334878.246392 kJ/mol
# GULP energy per Si atom -5581.304107 kJ/mol
# Density = 2.257869 g / cm^3
# Si number density = 22.630201 Si / 1000 Ang^3
#
#
#
# Elastic Constant Matrix: (Units=GPa)
#
#
# Indices 1 2 3 4 5 6 
#
# 1 66.3143 6.2587 -20.8358 0.0000 0.0000 0.0000
# 2 6.2587 72.4081 7.2281 0.0000 0.0000 0.0000
# 3 -20.8358 7.2281 39.3162 0.0000 0.0000 0.0000
# 4 0.0000 0.0000 0.0000 22.9833 0.0000 0.0000
# 5 0.0000 0.0000 0.0000 0.0000 15.8932 0.0000
# 6 0.0000 0.0000 0.0000 0.0000 0.0000 24.2974
#
#
#
# Elastic Compliance Matrix: (Units=1/GPa)
#
#
# Indices 1 2 3 4 5 6 
#
# 1 0.018573 -0.002636 0.010328 0.000000 0.000000 0.000000
# 2 -0.002636 0.014443 -0.004052 0.000000 0.000000 0.000000
# 3 0.010328 -0.004052 0.031653 0.000000 0.000000 0.000000
# 4 0.000000 0.000000 0.000000 0.043510 0.000000 0.000000
# 5 0.000000 0.000000 0.000000 0.000000 0.062920 0.000000
# 6 0.000000 0.000000 0.000000 0.000000 0.000000 0.041157
#
#
# Mechanical properties :
#
#
# Convention : Reuss Voigt Hill
#
# Bulk Modulus (GPa) = 13.89903 18.14896 16.02399
# Shear Modulus (GPa) = 21.83780 24.99394 23.41587
#
# Velocity S-wave (km/s) = 3.10979 3.32693 3.22019
# Velocity P-wave (km/s) = 4.36458 4.77443 4.57410
#
# Compressibility (1/GPa) = 0.07194748
#
# Stress axis : x y z
#
# Youngs Moduli (GPa) = 53.84020 69.23753 31.59248
#
# Poissons Ratio (x) = 0.18254 -0.32628
# Poissons Ratio (y) = 0.14194 0.12803
# Poissons Ratio (z) = -0.55605 0.28058
#
# Static dielectric constant tensor:
#      x y z
#    x 1.968330 0.000000 0.000000 
#    y 0.000000 1.843960 0.000000 
#    z 0.000000 0.000000 1.691560 
# 
# From -- ./inp_files/38881.got.cif
#   From: 2010.05.17/outbox.cif.g08.bks.cpg/sg52_20_cif.got.tgz:38881.got - 2010.06.03 12:15:38.
