data_PCOD9412869
_publ_section_title
;
Structure prediction by ZEFSAII (Michael W. Deem and Ramdas Pophale) SiO2 
 PCOD9412869
Probable space group: P N N A
;
_chemical_formula_sum "Si O2"
_cell_formula_units_Z 48
_cell_length_a 26.135203
_cell_length_b 15.051821
_cell_length_c 5.203474
_cell_angle_alpha 90.000000
_cell_angle_beta 90.000000
_cell_angle_gamma 90.000000
_cell_volume 2046.955077
_symmetry_space_group_name_H-M "P N N A"
_symmetry_group_IT_number 52
_symmetry_cell_setting 'orthorhombic'
loop_
_space_group_symop_operation_xyz
x,y,z
1/2-x,-y,z
x,1/2-y,1/2-z
1/2-x,1/2+y,1/2-z
-x,-y,-z
1/2+x,y,-z
-x,1/2+y,1/2+z
1/2+x,1/2-y,1/2+z
loop_
_atom_site_type_symbol
_atom_site_label
_atom_site_fract_x
_atom_site_fract_y
_atom_site_fract_z
Si Si1 0.349418 0.409735 0.985306
Si Si2 0.484267 0.193888 0.016863
Si Si3 0.598687 0.333054 0.549377
Si Si4 0.592706 0.962505 0.979328
Si Si5 0.787920 0.832648 0.947116
Si Si6 0.198009 0.750000 0.750000
Si Si7 0.250000 0.500000 0.136034
O O1 0.384392 0.454242 0.766193
O O2 0.338456 0.307484 0.927036
O O3 0.370584 0.417020 0.271379
O O4 0.294938 0.457706 0.973169
O O5 0.460691 0.250000 0.250000
O O6 0.479690 0.250000 0.750000
O O7 0.544210 0.181037 0.083417
O O8 0.458222 0.097325 0.007864
O O9 0.600913 0.250000 0.750000
O O10 0.591042 0.436527 0.627060
O O11 0.655593 0.333909 0.423943
O O12 0.788551 0.750000 0.750000
O O13 0.777605 0.924057 0.801839
O O14 0.738045 0.815398 0.114313
#
# Coordination Sequence:
#
# PCOD9412869 Si02
#       7
#     8   8   8   8   8   4   4
#     4  12  29  45  77 108 156 194 257 301 379 440
#     4  11  26  50  79 112 146 193 248 315 383 454
#     4  10  25  48  77 107 149 195 249 309 376 445
#     4  12  27  49  77 113 149 199 247 318 372 459
#     4  11  24  47  71 105 152 193 253 300 371 438
#     4  12  28  42  74 106 152 206 246 314 362 454
#     4  12  24  50  70 110 152 202 248 308 370 448
#
# _framework density 23.449463999999999
#
# number of rings (size 3 to 8) (size 9 to 14) (size 15 to 20)
#    0.000    0.667    3.333    2.500    7.000    3.333 
#    0.000    5.833    0.000    0.000    0.000    0.000 
#    0.000    0.000    0.000    0.000    0.000    0.000 
#
# Total GULP energy -268101.350842 kJ/mol
# GULP energy per Si atom -5585.444809 kJ/mol
# Density = 2.339609 g / cm^3
# Si number density = 23.449464 Si / 1000 Ang^3
#
#
#
# Elastic Constant Matrix: (Units=GPa)
#
#
# Indices 1 2 3 4 5 6 
#
# 1 85.0247 33.4418 -1.6053 0.0000 0.0000 0.0000
# 2 33.4418 163.7273 15.9300 0.0000 0.0000 0.0000
# 3 -1.6053 15.9300 43.0619 0.0000 0.0000 0.0000
# 4 0.0000 0.0000 0.0000 37.8416 0.0000 0.0000
# 5 0.0000 0.0000 0.0000 0.0000 7.5835 0.0000
# 6 0.0000 0.0000 0.0000 0.0000 0.0000 41.2654
#
#
#
# Elastic Compliance Matrix: (Units=1/GPa)
#
#
# Indices 1 2 3 4 5 6 
#
# 1 0.012882 -0.002778 0.001508 0.000000 0.000000 0.000000
# 2 -0.002778 0.006935 -0.002669 0.000000 0.000000 0.000000
# 3 0.001508 -0.002669 0.024266 0.000000 0.000000 0.000000
# 4 0.000000 0.000000 0.000000 0.026426 0.000000 0.000000
# 5 0.000000 0.000000 0.000000 0.000000 0.131866 0.000000
# 6 0.000000 0.000000 0.000000 0.000000 0.000000 0.024233
#
#
# Mechanical properties :
#
#
# Convention : Reuss Voigt Hill
#
# Bulk Modulus (GPa) = 27.62047 43.03853 35.32950
# Shear Modulus (GPa) = 20.27947 33.60792 26.94369
#
# Velocity S-wave (km/s) = 2.94397 3.78988 3.39338
# Velocity P-wave (km/s) = 4.83324 6.12736 5.51836
#
# Compressibility (1/GPa) = 0.03620503
#
# Stress axis : x y z
#
# Youngs Moduli (GPa) = 77.62533 144.20012 41.21008
#
# Poissons Ratio (x) = 0.40058 -0.06214
# Poissons Ratio (y) = 0.21564 0.10999
# Poissons Ratio (z) = -0.11705 0.38487
#
# Static dielectric constant tensor:
#      x y z
#    x 1.895980 0.000000 0.000000 
#    y 0.000000 2.103510 0.000000 
#    z 0.000000 0.000000 1.829100 
# 
# From -- ./inp_files/6386.got.cif
#   From: 2010.05.17/outbox.cif.g08.bks.cpg/sg52_4_cif.got.tgz:6386.got - 2010.06.03 12:15:38.
