data_PCOD9412264
_publ_section_title
;
Structure prediction by ZEFSAII (Michael W. Deem and Ramdas Pophale) SiO2 
 PCOD9412264
Probable space group: P N N A
;
_chemical_formula_sum "Si O2"
_cell_formula_units_Z 64
_cell_length_a 30.793604
_cell_length_b 10.881043
_cell_length_c 8.544847
_cell_angle_alpha 90.000000
_cell_angle_beta 90.000000
_cell_angle_gamma 90.000000
_cell_volume 2863.092227
_symmetry_space_group_name_H-M "P N N A"
_symmetry_group_IT_number 52
_symmetry_cell_setting 'orthorhombic'
loop_
_space_group_symop_operation_xyz
x,y,z
1/2-x,-y,z
x,1/2-y,1/2-z
1/2-x,1/2+y,1/2-z
-x,-y,-z
1/2+x,y,-z
-x,1/2+y,1/2+z
1/2+x,1/2-y,1/2+z
loop_
_atom_site_type_symbol
_atom_site_label
_atom_site_fract_x
_atom_site_fract_y
_atom_site_fract_z
Si Si1 0.986485 0.413282 0.641853
Si Si2 0.434122 0.280899 0.586772
Si Si3 0.368693 0.003023 0.920031
Si Si4 0.072872 0.296196 0.594561
Si Si5 0.956370 0.936265 0.572210
Si Si6 0.780572 0.389755 0.930958
Si Si7 0.218529 0.890733 0.056731
Si Si8 0.371101 0.053976 0.571723
O O1 0.961469 0.294063 0.571784
O O2 0.959663 0.500184 0.757715
O O3 0.000000 0.500000 0.500000
O O4 0.034274 0.368589 0.689342
O O5 0.458928 0.250000 0.750000
O O6 0.411005 0.410989 0.591309
O O7 0.394921 0.185345 0.586698
O O8 0.389910 0.878668 0.985440
O O9 0.355083 0.001592 0.737757
O O10 0.330249 0.064998 0.016718
O O11 0.097507 0.250000 0.750000
O O12 0.048479 0.208392 0.469254
O O13 0.910943 0.977645 0.496758
O O14 0.000000 0.000000 0.500000
O O15 0.750000 0.500000 0.991759
O O16 0.773847 0.250848 0.997874
O O17 0.774988 0.384426 0.743703
O O18 0.829886 0.428860 0.963410
O O19 0.250000 0.000000 0.996076
#
# Coordination Sequence:
#
# PCOD9412264 Si02
#       8
#     8   8   8   8   8   8   8   8
#     4  12  26  40  64  93 129 182 235 283 341 411
#     4  10  23  40  64  94 129 171 230 283 333 411
#     4  11  22  44  66  97 132 176 226 276 348 417
#     4  12  24  44  65  93 140 180 228 292 350 414
#     4  12  26  43  64  98 137 182 232 287 351 410
#     4  10  23  43  69 104 137 177 234 288 349 427
#     4  10  23  44  71  98 140 183 222 288 358 425
#     4  11  23  40  70  95 131 180 224 280 343 413
#
# _framework density 22.353452000000001
#
# number of rings (size 3 to 8) (size 9 to 14) (size 15 to 20)
#    0.000    1.000    5.000    0.750    5.250    1.500 
#    0.000    0.000    0.000    0.000    0.000    0.000 
#    0.000    0.000    0.000    0.000    0.000    0.000 
#
# Total GULP energy -356517.919451 kJ/mol
# GULP energy per Si atom -5570.592491 kJ/mol
# Density = 2.230257 g / cm^3
# Si number density = 22.353452 Si / 1000 Ang^3
#
#
#
# Elastic Constant Matrix: (Units=GPa)
#
#
# Indices 1 2 3 4 5 6 
#
# 1 91.8691 59.8081 11.0823 0.0000 0.0000 0.0000
# 2 59.8081 130.0959 23.4408 0.0000 0.0000 0.0000
# 3 11.0823 23.4408 53.3317 0.0000 0.0000 0.0000
# 4 0.0000 0.0000 0.0000 26.7313 0.0000 0.0000
# 5 0.0000 0.0000 0.0000 0.0000 27.7493 0.0000
# 6 0.0000 0.0000 0.0000 0.0000 0.0000 29.8047
#
#
#
# Elastic Compliance Matrix: (Units=1/GPa)
#
#
# Indices 1 2 3 4 5 6 
#
# 1 0.015535 -0.007124 -0.000097 0.000000 0.000000 0.000000
# 2 -0.007124 0.011615 -0.003625 0.000000 0.000000 0.000000
# 3 -0.000097 -0.003625 0.020364 0.000000 0.000000 0.000000
# 4 0.000000 0.000000 0.000000 0.037409 0.000000 0.000000
# 5 0.000000 0.000000 0.000000 0.000000 0.036037 0.000000
# 6 0.000000 0.000000 0.000000 0.000000 0.000000 0.033552
#
#
# Mechanical properties :
#
#
# Convention : Reuss Voigt Hill
#
# Bulk Modulus (GPa) = 38.72663 51.55101 45.13882
# Shear Modulus (GPa) = 27.05479 28.92143 27.98811
#
# Velocity S-wave (km/s) = 3.48274 3.60088 3.54230
# Velocity P-wave (km/s) = 5.79093 6.35612 6.08010
#
# Compressibility (1/GPa) = 0.02582203
#
# Stress axis : x y z
#
# Youngs Moduli (GPa) = 64.37207 86.09635 49.10670
#
# Poissons Ratio (x) = 0.61337 0.00475
# Poissons Ratio (y) = 0.45860 0.17800
# Poissons Ratio (z) = 0.00623 0.31207
#
# Static dielectric constant tensor:
#      x y z
#    x 1.817110 0.000000 0.000000 
#    y 0.000000 2.169700 0.000000 
#    z 0.000000 0.000000 1.819870 
# 
# From -- ./inp_files/15713.got.cif
#   From: 2010.05.17/outbox.cif.g08.bks.cpg/sg52_8_cif.got.tgz:15713.got - 2010.06.03 12:15:38.
