data_PCOD9412831
_publ_section_title
;
Structure prediction by ZEFSAII (Michael W. Deem and Ramdas Pophale) SiO2 
 PCOD9412831
Probable space group: P N N A
;
_chemical_formula_sum "Si O2"
_cell_formula_units_Z 60
_cell_length_a 17.452191
_cell_length_b 16.825866
_cell_length_c 8.654586
_cell_angle_alpha 90.000000
_cell_angle_beta 90.000000
_cell_angle_gamma 90.000000
_cell_volume 2541.403836
_symmetry_space_group_name_H-M "P N N A"
_symmetry_group_IT_number 52
_symmetry_cell_setting 'orthorhombic'
loop_
_space_group_symop_operation_xyz
x,y,z
1/2-x,-y,z
x,1/2-y,1/2-z
1/2-x,1/2+y,1/2-z
-x,-y,-z
1/2+x,y,-z
-x,1/2+y,1/2+z
1/2+x,1/2-y,1/2+z
loop_
_atom_site_type_symbol
_atom_site_label
_atom_site_fract_x
_atom_site_fract_y
_atom_site_fract_z
Si Si1 0.787838 0.679511 0.968142
Si Si2 0.049323 0.028863 0.855239
Si Si3 0.904197 0.750000 0.750000
Si Si4 0.794125 0.581853 0.267289
Si Si5 0.453911 0.144813 0.723917
Si Si6 0.799951 0.072338 0.767340
Si Si7 0.673291 0.814431 0.047335
Si Si8 0.048179 0.930198 0.413816
O O1 0.851028 0.738517 0.898935
O O2 0.760606 0.622542 0.831385
O O3 0.817160 0.626425 0.109548
O O4 0.713283 0.730964 0.012152
O O5 0.132729 0.065965 0.875520
O O6 0.000878 0.084943 0.740935
O O7 0.063948 0.945841 0.768419
O O8 0.000000 0.000000 0.000000
O O9 0.960143 0.825891 0.756091
O O10 0.750000 0.500000 0.230631
O O11 0.734577 0.638824 0.349573
O O12 0.402340 0.190463 0.849755
O O13 0.443854 0.140668 0.537963
O O14 0.868206 0.045560 0.651462
O O15 0.750000 0.000000 0.835474
O O16 0.835315 0.130888 0.895719
O O17 0.000000 0.000000 0.500000
#
# Coordination Sequence:
#
# PCOD9412831 Si02
#       8
#     8   8   4   8   8   8   8   8
#     4  12  28  50  76 112 155 210 265 326 402 486
#     4  11  25  44  73 110 151 193 258 325 387 466
#     4  12  28  50  76 108 158 206 258 320 412 476
#     4  12  26  46  79 112 153 201 266 322 399 469
#     4  11  26  45  75 105 151 201 258 315 395 480
#     4  12  27  45  80 109 154 200 265 329 392 477
#     4  12  26  49  74 114 152 210 258 334 400 477
#     4  10  25  44  71 112 149 196 249 322 394 456
#
# _framework density 23.608999000000001
#
# number of rings (size 3 to 8) (size 9 to 14) (size 15 to 20)
#    0.000    0.533    2.667    3.600   16.800    0.000 
#    0.000    0.000    0.000    0.000    0.000    0.000 
#    0.000    0.000    0.000    0.000    0.000    0.000 
#
# Total GULP energy -335624.848157 kJ/mol
# GULP energy per Si atom -5593.747469 kJ/mol
# Density = 2.355526 g / cm^3
# Si number density = 23.608999 Si / 1000 Ang^3
#
#
#
# Elastic Constant Matrix: (Units=GPa)
#
#
# Indices 1 2 3 4 5 6 
#
# 1 130.6150 12.0561 48.4780 0.0000 0.0000 0.0000
# 2 12.0561 62.1307 16.3636 0.0000 0.0000 0.0000
# 3 48.4780 16.3636 127.3907 0.0000 0.0000 0.0000
# 4 0.0000 0.0000 0.0000 40.4693 0.0000 0.0000
# 5 0.0000 0.0000 0.0000 0.0000 35.7315 0.0000
# 6 0.0000 0.0000 0.0000 0.0000 0.0000 35.9691
#
#
#
# Elastic Compliance Matrix: (Units=1/GPa)
#
#
# Indices 1 2 3 4 5 6 
#
# 1 0.008961 -0.000870 -0.003298 0.000000 0.000000 0.000000
# 2 -0.000870 0.016743 -0.001820 0.000000 0.000000 0.000000
# 3 -0.003298 -0.001820 0.009339 0.000000 0.000000 0.000000
# 4 0.000000 0.000000 0.000000 0.024710 0.000000 0.000000
# 5 0.000000 0.000000 0.000000 0.000000 0.027987 0.000000
# 6 0.000000 0.000000 0.000000 0.000000 0.000000 0.027802
#
#
# Mechanical properties :
#
#
# Convention : Reuss Voigt Hill
#
# Bulk Modulus (GPa) = 43.35240 52.65908 48.00574
# Shear Modulus (GPa) = 36.98085 38.64990 37.81538
#
# Velocity S-wave (km/s) = 3.96206 4.05048 4.00651
# Velocity P-wave (km/s) = 6.27161 6.65043 6.46379
#
# Compressibility (1/GPa) = 0.02306677
#
# Stress axis : x y z
#
# Youngs Moduli (GPa) = 111.60090 59.72580 107.08152
#
# Poissons Ratio (x) = 0.05197 0.35317
# Poissons Ratio (y) = 0.09710 0.19484
# Poissons Ratio (z) = 0.36807 0.10868
#
# Static dielectric constant tensor:
#      x y z
#    x 1.874030 0.000000 0.000000 
#    y 0.000000 1.984110 0.000000 
#    z 0.000000 0.000000 1.887230 
# 
# From -- ./inp_files/12460.got.cif
#   From: 2010.05.17/outbox.cif.g08.bks.cpg/sg52_7_cif.got.tgz:12460.got - 2010.06.03 12:15:38.
