data_PCOD9412708
_publ_section_title
;
Structure prediction by ZEFSAII (Michael W. Deem and Ramdas Pophale) SiO2 
 PCOD9412708
Probable space group: P N N A
;
_chemical_formula_sum "Si O2"
_cell_formula_units_Z 28
_cell_length_a 11.247352
_cell_length_b 13.435570
_cell_length_c 8.674900
_cell_angle_alpha 90.000000
_cell_angle_beta 90.000000
_cell_angle_gamma 90.000000
_cell_volume 1310.903914
_symmetry_space_group_name_H-M "P N N A"
_symmetry_group_IT_number 52
_symmetry_cell_setting 'orthorhombic'
loop_
_space_group_symop_operation_xyz
x,y,z
1/2-x,-y,z
x,1/2-y,1/2-z
1/2-x,1/2+y,1/2-z
-x,-y,-z
1/2+x,y,-z
-x,1/2+y,1/2+z
1/2+x,1/2-y,1/2+z
loop_
_atom_site_type_symbol
_atom_site_label
_atom_site_fract_x
_atom_site_fract_y
_atom_site_fract_z
Si Si1 0.094680 0.250000 0.250000
Si Si2 0.875587 0.042326 0.063022
Si Si3 0.323659 0.251482 0.423088
Si Si4 0.432503 0.421685 0.893286
O O1 0.185901 0.275455 0.388540
O O2 0.021713 0.342551 0.186356
O O3 0.875793 0.025456 0.246164
O O4 0.750000 0.000000 0.998617
O O5 0.875186 0.159624 0.023555
O O6 0.000000 0.000000 0.000000
O O7 0.378460 0.250000 0.250000
O O8 0.344120 0.146286 0.505220
O O9 0.500000 0.500000 0.000000
#
# Coordination Sequence:
#
# PCOD9412708 Si02
#       4
#     4   8   8   8
#     4  10  24  46  72  98 152 184 256 310 388 440
#     4  12  26  45  72 109 147 193 251 310 378 456
#     4  10  24  45  69  99 143 190 239 312 374 444
#     4  12  25  47  72 106 145 196 253 310 381 462
#
# _framework density 21.359310000000001
#
# number of rings (size 3 to 8) (size 9 to 14) (size 15 to 20)
#    0.857    0.000    2.857    3.429    4.000    0.000 
#    0.000    0.000    0.000    0.000    0.000    0.000 
#    0.000    0.000    0.000    0.000    0.000    0.000 
#
# Total GULP energy -156243.218780 kJ/mol
# GULP energy per Si atom -5580.114956 kJ/mol
# Density = 2.131070 g / cm^3
# Si number density = 21.359310 Si / 1000 Ang^3
#
#
#
# Elastic Constant Matrix: (Units=GPa)
#
#
# Indices 1 2 3 4 5 6 
#
# 1 123.0898 41.6121 37.8389 0.0000 0.0000 0.0000
# 2 41.6121 82.6009 16.8002 0.0000 0.0000 0.0000
# 3 37.8389 16.8002 112.3937 0.0000 0.0000 0.0000
# 4 0.0000 0.0000 0.0000 50.6990 0.0000 0.0000
# 5 0.0000 0.0000 0.0000 0.0000 37.2131 0.0000
# 6 0.0000 0.0000 0.0000 0.0000 0.0000 35.4155
#
#
#
# Elastic Compliance Matrix: (Units=1/GPa)
#
#
# Indices 1 2 3 4 5 6 
#
# 1 0.010615 -0.004765 -0.002861 0.000000 0.000000 0.000000
# 2 -0.004765 0.014625 -0.000582 0.000000 0.000000 0.000000
# 3 -0.002861 -0.000582 0.009948 0.000000 0.000000 0.000000
# 4 0.000000 0.000000 0.000000 0.019724 0.000000 0.000000
# 5 0.000000 0.000000 0.000000 0.000000 0.026872 0.000000
# 6 0.000000 0.000000 0.000000 0.000000 0.000000 0.028236
#
#
# Mechanical properties :
#
#
# Convention : Reuss Voigt Hill
#
# Bulk Modulus (GPa) = 53.27462 56.73186 55.00324
# Shear Modulus (GPa) = 37.68053 39.45439 38.56746
#
# Velocity S-wave (km/s) = 4.20471 4.30254 4.25391
# Velocity P-wave (km/s) = 6.96915 7.16246 7.06647
#
# Compressibility (1/GPa) = 0.01877066
#
# Stress axis : x y z
#
# Youngs Moduli (GPa) = 94.20838 68.37392 100.52724
#
# Poissons Ratio (x) = 0.32583 0.28764
# Poissons Ratio (y) = 0.44895 0.05849
# Poissons Ratio (z) = 0.26956 0.03978
#
# Static dielectric constant tensor:
#      x y z
#    x 1.820420 0.000000 0.000000 
#    y 0.000000 1.768430 0.000000 
#    z 0.000000 0.000000 1.758130 
# 
# From -- ./inp_files/8151.got.cif
#   From: 2010.05.17/outbox.cif.g08.bks.cpg/sg52_5_cif.got.tgz:8151.got - 2010.06.03 12:15:38.
