data_PCOD9412227
_publ_section_title
;
Structure prediction by ZEFSAII (Michael W. Deem and Ramdas Pophale) SiO2 
 PCOD9412227
Probable space group: P N N A
;
_chemical_formula_sum "Si O2"
_cell_formula_units_Z 44
_cell_length_a 7.576478
_cell_length_b 9.839023
_cell_length_c 29.154798
_cell_angle_alpha 90.000000
_cell_angle_beta 90.000000
_cell_angle_gamma 90.000000
_cell_volume 2173.348537
_symmetry_space_group_name_H-M "P N N A"
_symmetry_group_IT_number 52
_symmetry_cell_setting 'orthorhombic'
loop_
_space_group_symop_operation_xyz
x,y,z
1/2-x,-y,z
x,1/2-y,1/2-z
1/2-x,1/2+y,1/2-z
-x,-y,-z
1/2+x,y,-z
-x,1/2+y,1/2+z
1/2+x,1/2-y,1/2+z
loop_
_atom_site_type_symbol
_atom_site_label
_atom_site_fract_x
_atom_site_fract_y
_atom_site_fract_z
Si Si1 0.431936 0.769549 0.389447
Si Si2 0.541366 0.478150 0.552911
Si Si3 0.026150 0.770301 0.109541
Si Si4 0.250000 0.000000 0.753863
Si Si5 0.957906 0.979666 0.446836
Si Si6 0.263431 0.258421 0.816887
O O1 0.497078 0.672837 0.430701
O O2 0.446523 0.919032 0.411134
O O3 0.562765 0.740324 0.347637
O O4 0.231396 0.731903 0.376079
O O5 0.750000 0.500000 0.557034
O O6 0.500000 0.500000 0.500000
O O7 0.463990 0.584533 0.589770
O O8 0.013440 0.671307 0.066252
O O9 0.898468 0.712365 0.148651
O O10 0.200353 0.120687 0.790585
O O11 0.311932 0.114648 0.716220
O O12 0.750000 0.000000 0.439756
O O13 0.000000 0.000000 0.500000
#
# Coordination Sequence:
#
# PCOD9412227 Si02
#       6
#     8   8   8   4   8   8
#     4  11  23  41  63  91 124 169 207 253 313 372
#     4  10  23  36  57  90 126 165 216 251 293 357
#     4  11  23  41  63  91 124 169 207 253 313 372
#     4  10  24  42  68  96 118 156 206 272 310 404
#     4  12  23  38  58  92 128 171 216 256 294 355
#     4  11  22  44  66  90 126 158 208 256 334 363
#
# _framework density 20.245258
#
# number of rings (size 3 to 8) (size 9 to 14) (size 15 to 20)
#    0.000    1.091    1.818    4.909    2.545    2.909 
#    0.000    5.455    0.000    0.000    0.000    0.000 
#    0.000    0.000    0.000    0.000    0.000    0.000 
#
# Total GULP energy -244943.536817 kJ/mol
# GULP energy per Si atom -5566.898564 kJ/mol
# Density = 2.019918 g / cm^3
# Si number density = 20.245258 Si / 1000 Ang^3
#
#
#
# Elastic Constant Matrix: (Units=GPa)
#
#
# Indices 1 2 3 4 5 6 
#
# 1 92.5672 -2.7124 25.4252 0.0000 0.0000 0.0000
# 2 -2.7124 70.6507 -3.0045 0.0000 0.0000 0.0000
# 3 25.4252 -3.0045 90.6383 0.0000 0.0000 0.0000
# 4 0.0000 0.0000 0.0000 30.0552 0.0000 0.0000
# 5 0.0000 0.0000 0.0000 0.0000 41.0977 0.0000
# 6 0.0000 0.0000 0.0000 0.0000 0.0000 16.5223
#
#
#
# Elastic Compliance Matrix: (Units=1/GPa)
#
#
# Indices 1 2 3 4 5 6 
#
# 1 0.011712 0.000310 -0.003275 0.000000 0.000000 0.000000
# 2 0.000310 0.014182 0.000383 0.000000 0.000000 0.000000
# 3 -0.003275 0.000383 0.011964 0.000000 0.000000 0.000000
# 4 0.000000 0.000000 0.000000 0.033272 0.000000 0.000000
# 5 0.000000 0.000000 0.000000 0.000000 0.024332 0.000000
# 6 0.000000 0.000000 0.000000 0.000000 0.000000 0.060524
#
#
# Mechanical properties :
#
#
# Convention : Reuss Voigt Hill
#
# Bulk Modulus (GPa) = 30.58568 32.58589 31.58579
# Shear Modulus (GPa) = 29.06160 33.14489 31.10324
#
# Velocity S-wave (km/s) = 3.79288 4.05058 3.92385
# Velocity P-wave (km/s) = 5.85847 6.16497 6.01367
#
# Compressibility (1/GPa) = 0.03269504
#
# Stress axis : x y z
#
# Youngs Moduli (GPa) = 85.38557 70.51023 83.58251
#
# Poissons Ratio (x) = -0.02188 0.27373
# Poissons Ratio (y) = -0.02650 -0.03202
# Poissons Ratio (z) = 0.27963 -0.02701
#
# Static dielectric constant tensor:
#      x y z
#    x 1.733050 0.000000 0.000000 
#    y 0.000000 1.736230 0.000000 
#    z 0.000000 0.000000 1.717240 
# 
# From -- ./inp_files/44287.got.cif
#   From: 2010.05.17/outbox.cif.g08.bks.cpg/sg52_23_cif.got.tgz:44287.got - 2010.06.03 12:15:38.
