data_PCOD9412157
_publ_section_title
;
Structure prediction by ZEFSAII (Michael W. Deem and Ramdas Pophale) SiO2 
 PCOD9412157
Probable space group: P N N A
;
_chemical_formula_sum "Si O2"
_cell_formula_units_Z 56
_cell_length_a 14.127168
_cell_length_b 6.557170
_cell_length_c 29.277355
_cell_angle_alpha 90.000000
_cell_angle_beta 90.000000
_cell_angle_gamma 90.000000
_cell_volume 2712.085594
_symmetry_space_group_name_H-M "P N N A"
_symmetry_group_IT_number 52
_symmetry_cell_setting 'orthorhombic'
loop_
_space_group_symop_operation_xyz
x,y,z
1/2-x,-y,z
x,1/2-y,1/2-z
1/2-x,1/2+y,1/2-z
-x,-y,-z
1/2+x,y,-z
-x,1/2+y,1/2+z
1/2+x,1/2-y,1/2+z
loop_
_atom_site_type_symbol
_atom_site_label
_atom_site_fract_x
_atom_site_fract_y
_atom_site_fract_z
Si Si1 0.858923 0.750000 0.250000
Si Si2 0.021025 0.708484 0.974622
Si Si3 0.414970 0.253470 0.624910
Si Si4 0.007070 0.554317 0.192180
Si Si5 0.750000 0.500000 0.326376
Si Si6 0.592033 0.542718 0.646490
Si Si7 0.139806 0.981454 0.044681
Si Si8 0.190568 0.189133 0.298670
O O1 0.929523 0.581125 0.230910
O O2 0.801814 0.656622 0.291963
O O3 0.082488 0.701843 0.928461
O O4 0.920449 0.809013 0.959629
O O5 0.000000 0.500000 0.000000
O O6 0.080907 0.840231 0.010517
O O7 0.320421 0.361674 0.643347
O O8 0.496912 0.417309 0.635849
O O9 0.450071 0.051404 0.651043
O O10 0.058630 0.762841 0.175946
O O11 0.088918 0.410263 0.210542
O O12 0.632937 0.599468 0.596772
O O13 0.664159 0.385865 0.671199
O O14 0.250000 0.000000 0.032446
O O15 0.235546 0.250000 0.250000
O O16 0.250000 0.000000 0.319964
#
# Coordination Sequence:
#
# PCOD9412157 Si02
#       8
#     4   8   8   8   4   8   8   8
#     4  12  24  40  68  90 136 176 228 274 338 406
#     4  10  22  45  67  99 136 176 221 281 346 424
#     4  10  23  42  66  96 132 172 224 275 345 403
#     4  11  23  42  65  90 128 182 214 277 344 395
#     4  12  24  42  64 102 134 174 238 286 334 422
#     4  10  22  45  64  94 132 171 218 282 336 408
#     4  10  23  40  70  98 132 173 220 281 346 406
#     4  11  27  39  62  94 128 170 227 271 334 407
#
# _framework density 20.648313999999999
#
# number of rings (size 3 to 8) (size 9 to 14) (size 15 to 20)
#    0.000    1.429    1.429    2.571    8.000    0.571 
#    0.000    1.429    0.000    0.000    0.000    0.000 
#    0.000    0.000    0.000    0.000    0.000    0.000 
#
# Total GULP energy -312729.064221 kJ/mol
# GULP energy per Si atom -5584.447575 kJ/mol
# Density = 2.060132 g / cm^3
# Si number density = 20.648314 Si / 1000 Ang^3
#
#
#
# Elastic Constant Matrix: (Units=GPa)
#
#
# Indices 1 2 3 4 5 6 
#
# 1 130.8055 43.8750 45.0320 0.0000 0.0000 0.0000
# 2 43.8750 90.5776 46.9152 0.0000 0.0000 0.0000
# 3 45.0320 46.9152 118.4856 0.0000 0.0000 0.0000
# 4 0.0000 0.0000 0.0000 33.7645 0.0000 0.0000
# 5 0.0000 0.0000 0.0000 0.0000 37.5867 0.0000
# 6 0.0000 0.0000 0.0000 0.0000 0.0000 14.7840
#
#
#
# Elastic Compliance Matrix: (Units=1/GPa)
#
#
# Indices 1 2 3 4 5 6 
#
# 1 0.009591 -0.003469 -0.002271 0.000000 0.000000 0.000000
# 2 -0.003469 0.015144 -0.004678 0.000000 0.000000 0.000000
# 3 -0.002271 -0.004678 0.011155 0.000000 0.000000 0.000000
# 4 0.000000 0.000000 0.000000 0.029617 0.000000 0.000000
# 5 0.000000 0.000000 0.000000 0.000000 0.026605 0.000000
# 6 0.000000 0.000000 0.000000 0.000000 0.000000 0.067641
#
#
# Mechanical properties :
#
#
# Convention : Reuss Voigt Hill
#
# Bulk Modulus (GPa) = 66.43220 67.94588 67.18904
# Shear Modulus (GPa) = 26.93874 30.83011 28.88443
#
# Velocity S-wave (km/s) = 3.61591 3.86826 3.74421
# Velocity P-wave (km/s) = 7.04813 7.27523 7.16258
#
# Compressibility (1/GPa) = 0.01505294
#
# Stress axis : x y z
#
# Youngs Moduli (GPa) = 104.26975 66.03493 89.64356
#
# Poissons Ratio (x) = 0.22908 0.20362
# Poissons Ratio (y) = 0.36172 0.41933
# Poissons Ratio (z) = 0.23684 0.30889
#
# Static dielectric constant tensor:
#      x y z
#    x 1.745130 0.000000 0.000000 
#    y 0.000000 1.761770 0.000000 
#    z 0.000000 0.000000 1.765710 
# 
# From -- ./inp_files/45040.got.cif
#   From: 2010.05.17/outbox.cif.g08.bks.cpg/sg52_23_cif.got.tgz:45040.got - 2010.06.03 12:15:38.
