data_PCOD9412444
_publ_section_title
;
Structure prediction by ZEFSAII (Michael W. Deem and Ramdas Pophale) SiO2 
 PCOD9412444
Probable space group: P N N A
;
_chemical_formula_sum "Si O2"
_cell_formula_units_Z 40
_cell_length_a 16.673540
_cell_length_b 7.498821
_cell_length_c 14.713707
_cell_angle_alpha 90.000000
_cell_angle_beta 90.000000
_cell_angle_gamma 90.000000
_cell_volume 1839.682623
_symmetry_space_group_name_H-M "P N N A"
_symmetry_group_IT_number 52
_symmetry_cell_setting 'orthorhombic'
loop_
_space_group_symop_operation_xyz
x,y,z
1/2-x,-y,z
x,1/2-y,1/2-z
1/2-x,1/2+y,1/2-z
-x,-y,-z
1/2+x,y,-z
-x,1/2+y,1/2+z
1/2+x,1/2-y,1/2+z
loop_
_atom_site_type_symbol
_atom_site_label
_atom_site_fract_x
_atom_site_fract_y
_atom_site_fract_z
Si Si1 0.260004 0.787245 0.511988
Si Si2 0.899947 0.820306 0.348453
Si Si3 0.679390 0.115122 0.826868
Si Si4 0.512366 0.523510 0.606867
Si Si5 0.378346 0.239230 0.650655
O O1 0.336358 0.756363 0.576758
O O2 0.278471 0.703878 0.414779
O O3 0.182395 0.720290 0.568070
O O4 0.250000 0.000000 0.502693
O O5 0.872392 0.750000 0.250000
O O6 0.905513 0.033137 0.356818
O O7 0.982891 0.780286 0.133677
O O8 0.650379 0.250000 0.750000
O O9 0.602462 0.009497 0.862322
O O10 0.750000 0.000000 0.782638
O O11 0.500000 0.500000 0.500000
O O12 0.451853 0.377236 0.650241
O O13 0.337172 0.250000 0.750000
#
# Coordination Sequence:
#
# PCOD9412444 Si02
#       5
#     8   8   8   8   8
#     4  10  23  44  69 105 143 181 230 288 354 426
#     4  11  23  41  70 108 141 181 227 283 357 422
#     4  12  27  48  70  97 139 191 244 292 351 426
#     4  12  25  46  71 102 141 186 237 295 353 421
#     4  11  23  43  72 109 145 181 226 295 358 425
#
# _framework density 21.74288
#
# number of rings (size 3 to 8) (size 9 to 14) (size 15 to 20)
#    0.000    0.800    4.000    3.000    0.000    1.600 
#    3.600    0.000    0.000    0.000    0.000    0.000 
#    0.000    0.000    0.000    0.000    0.000    0.000 
#
# Total GULP energy -223797.836341 kJ/mol
# GULP energy per Si atom -5594.945909 kJ/mol
# Density = 2.169339 g / cm^3
# Si number density = 21.742880 Si / 1000 Ang^3
#
#
#
# Elastic Constant Matrix: (Units=GPa)
#
#
# Indices 1 2 3 4 5 6 
#
# 1 125.1462 37.2363 13.8875 0.0000 0.0000 0.0000
# 2 37.2363 71.5524 16.9290 0.0000 0.0000 0.0000
# 3 13.8875 16.9290 96.5108 0.0000 0.0000 0.0000
# 4 0.0000 0.0000 0.0000 17.6123 0.0000 0.0000
# 5 0.0000 0.0000 0.0000 0.0000 32.4520 0.0000
# 6 0.0000 0.0000 0.0000 0.0000 0.0000 36.3554
#
#
#
# Elastic Compliance Matrix: (Units=1/GPa)
#
#
# Indices 1 2 3 4 5 6 
#
# 1 0.009480 -0.004810 -0.000520 0.000000 0.000000 0.000000
# 2 -0.004810 0.017022 -0.002294 0.000000 0.000000 0.000000
# 3 -0.000520 -0.002294 0.010839 0.000000 0.000000 0.000000
# 4 0.000000 0.000000 0.000000 0.056778 0.000000 0.000000
# 5 0.000000 0.000000 0.000000 0.000000 0.030815 0.000000
# 6 0.000000 0.000000 0.000000 0.000000 0.000000 0.027506
#
#
# Mechanical properties :
#
#
# Convention : Reuss Voigt Hill
#
# Bulk Modulus (GPa) = 45.26560 47.70167 46.48364
# Shear Modulus (GPa) = 28.56300 32.29436 30.42868
#
# Velocity S-wave (km/s) = 3.62839 3.85812 3.74502
# Velocity P-wave (km/s) = 6.19818 6.46787 6.33446
#
# Compressibility (1/GPa) = 0.02209183
#
# Stress axis : x y z
#
# Youngs Moduli (GPa) = 105.48943 58.74866 92.26170
#
# Poissons Ratio (x) = 0.28259 0.04801
# Poissons Ratio (y) = 0.50742 0.21161
# Poissons Ratio (z) = 0.05489 0.13475
#
# Static dielectric constant tensor:
#      x y z
#    x 1.775490 0.000000 0.000000 
#    y 0.000000 1.794820 0.000000 
#    z 0.000000 0.000000 1.803570 
# 
# From -- ./inp_files/20315.got.cif
#   From: 2010.05.17/outbox.cif.g08.bks.cpg/sg52_11_cif.got.tgz:20315.got - 2010.06.03 12:15:38.
