data_PCOD9412206
_publ_section_title
;
Structure prediction by ZEFSAII (Michael W. Deem and Ramdas Pophale) SiO2 
 PCOD9412206
Probable space group: P N N A
;
_chemical_formula_sum "Si O2"
_cell_formula_units_Z 40
_cell_length_a 21.983499
_cell_length_b 9.525957
_cell_length_c 7.914370
_cell_angle_alpha 90.000000
_cell_angle_beta 90.000000
_cell_angle_gamma 90.000000
_cell_volume 1657.378820
_symmetry_space_group_name_H-M "P N N A"
_symmetry_group_IT_number 52
_symmetry_cell_setting 'orthorhombic'
loop_
_space_group_symop_operation_xyz
x,y,z
1/2-x,-y,z
x,1/2-y,1/2-z
1/2-x,1/2+y,1/2-z
-x,-y,-z
1/2+x,y,-z
-x,1/2+y,1/2+z
1/2+x,1/2-y,1/2+z
loop_
_atom_site_type_symbol
_atom_site_label
_atom_site_fract_x
_atom_site_fract_y
_atom_site_fract_z
Si Si1 0.640564 0.037527 0.974043
Si Si2 0.792053 0.750000 0.750000
Si Si3 0.084161 0.985430 0.576666
Si Si4 0.529831 0.414841 0.734954
Si Si5 0.370550 0.750000 0.750000
Si Si6 0.175654 0.729545 0.059079
O O1 0.670318 0.115454 0.811485
O O2 0.568423 0.035870 0.927892
O O3 0.665971 0.884827 0.011326
O O4 0.659260 0.137438 0.127840
O O5 0.746203 0.702654 0.898939
O O6 0.143003 0.889634 0.547445
O O7 0.042043 0.925682 0.726582
O O8 0.053743 0.991277 0.391771
O O9 0.093648 0.147778 0.623752
O O10 0.544317 0.250000 0.750000
O O11 0.148215 0.750000 0.250000
#
# Coordination Sequence:
#
# PCOD9412206 Si02
#       6
#     8   4   8   8   4   8
#     4  12  23  45  70 111 141 194 236 300 365 429
#     4  10  22  46  85 100 133 186 252 292 362 428
#     4  11  25  44  65 110 136 194 240 292 367 421
#     4  11  22  42  72  95 148 189 242 294 350 446
#     4  12  28  42  69 100 161 186 240 294 356 450
#     4  10  24  43  79 104 136 183 248 304 349 435
#
# _framework density 24.134495000000001
#
# number of rings (size 3 to 8) (size 9 to 14) (size 15 to 20)
#    0.600    0.400    5.000    0.600    2.800    4.000 
#    0.000    4.000    0.000    0.000    0.000    0.000 
#    0.000    0.000    0.000    0.000    0.000    0.000 
#
# Total GULP energy -223212.525380 kJ/mol
# GULP energy per Si atom -5580.313135 kJ/mol
# Density = 2.407956 g / cm^3
# Si number density = 24.134495 Si / 1000 Ang^3
#
#
#
# Elastic Constant Matrix: (Units=GPa)
#
#
# Indices 1 2 3 4 5 6 
#
# 1 74.0749 11.9692 26.4886 0.0000 0.0000 0.0000
# 2 11.9692 93.6412 23.0528 0.0000 0.0000 0.0000
# 3 26.4886 23.0528 98.6544 0.0000 0.0000 0.0000
# 4 0.0000 0.0000 0.0000 39.7129 0.0000 0.0000
# 5 0.0000 0.0000 0.0000 0.0000 -8.8310 0.0000
# 6 0.0000 0.0000 0.0000 0.0000 0.0000 -53.9129
#
#
#
# Elastic Compliance Matrix: (Units=1/GPa)
#
#
# Indices 1 2 3 4 5 6 
#
# 1 0.015019 -0.000984 -0.003803 0.000000 0.000000 0.000000
# 2 -0.000984 0.011395 -0.002399 0.000000 0.000000 0.000000
# 3 -0.003803 -0.002399 0.011718 0.000000 0.000000 0.000000
# 4 0.000000 0.000000 0.000000 0.025181 0.000000 0.000000
# 5 0.000000 0.000000 0.000000 0.000000 -0.113238 0.000000
# 6 0.000000 0.000000 0.000000 0.000000 0.000000 -0.018548
#
#
# Mechanical properties :
#
#
# Convention : Reuss Voigt Hill
#
# Bulk Modulus (GPa) = 42.08392 43.26574 42.67483
# Shear Modulus (GPa) = -108.26476 9.05113 -49.60681
#
# Velocity S-wave (km/s) = -6.70495 1.93867 -4.53861
# Velocity P-wave (km/s) = 6.51664 4.79344 3.12166
#
# Compressibility (1/GPa) = 0.02376205
#
# Stress axis : x y z
#
# Youngs Moduli (GPa) = 66.58426 87.75557 85.33943
#
# Poissons Ratio (x) = 0.08631 0.32452
# Poissons Ratio (y) = 0.06549 0.20470
# Poissons Ratio (z) = 0.25320 0.21050
#
# Static dielectric constant tensor:
#      x y z
#    x 2.011400 0.000000 0.000000 
#    y 0.000000 1.930670 0.000000 
#    z 0.000000 0.000000 2.042000 
# 
# From -- ./inp_files/14874.got.cif
#   From: 2010.05.17/outbox.cif.g08.bks.cpg/sg52_8_cif.got.tgz:14874.got - 2010.06.03 12:15:38.
