data_PCOD9412190
_publ_section_title
;
Structure prediction by ZEFSAII (Michael W. Deem and Ramdas Pophale) SiO2 
 PCOD9412190
Probable space group: P N N A
;
_chemical_formula_sum "Si O2"
_cell_formula_units_Z 28
_cell_length_a 10.927257
_cell_length_b 5.211769
_cell_length_c 20.614547
_cell_angle_alpha 90.000000
_cell_angle_beta 90.000000
_cell_angle_gamma 90.000000
_cell_volume 1174.005446
_symmetry_space_group_name_H-M "P N N A"
_symmetry_group_IT_number 52
_symmetry_cell_setting 'orthorhombic'
loop_
_space_group_symop_operation_xyz
x,y,z
1/2-x,-y,z
x,1/2-y,1/2-z
1/2-x,1/2+y,1/2-z
-x,-y,-z
1/2+x,y,-z
-x,1/2+y,1/2+z
1/2+x,1/2-y,1/2+z
loop_
_atom_site_type_symbol
_atom_site_label
_atom_site_fract_x
_atom_site_fract_y
_atom_site_fract_z
Si Si1 0.750000 0.500000 0.295245
Si Si2 0.750000 0.500000 0.519094
Si Si3 0.642648 0.686911 0.097570
Si Si4 0.830312 0.750000 0.750000
Si Si5 0.618334 0.140190 0.608566
O O1 0.722325 0.250000 0.250000
O O2 0.644537 0.591882 0.346620
O O3 0.687490 0.701153 0.470777
O O4 0.645002 0.389040 0.565455
O O5 0.750000 0.500000 0.119182
O O6 0.514339 0.542086 0.087898
O O7 0.750000 0.500000 0.734126
O O8 0.899850 0.814713 0.684826
O O9 0.750000 0.000000 0.603063
#
# Coordination Sequence:
#
# PCOD9412190 Si02
#       5
#     4   4   8   4   8
#     4  11  24  48  74 114 153 202 248 318 379 452
#     4  11  24  46  68 106 151 202 252 314 377 452
#     4  11  26  46  73 111 150 199 254 312 380 455
#     4  10  22  46  70 108 142 192 242 306 374 438
#     4  11  25  45  73 107 148 198 252 316 376 452
#
# _framework density 23.849975000000001
#
# number of rings (size 3 to 8) (size 9 to 14) (size 15 to 20)
#    0.000    1.143    2.857    1.714    2.000    9.143 
#    2.571    0.000    0.000    0.000    0.000    0.000 
#    0.000    0.000    0.000    0.000    0.000    0.000 
#
# Total GULP energy -156245.128109 kJ/mol
# GULP energy per Si atom -5580.183147 kJ/mol
# Density = 2.379569 g / cm^3
# Si number density = 23.849975 Si / 1000 Ang^3
#
#
#
# Elastic Constant Matrix: (Units=GPa)
#
#
# Indices 1 2 3 4 5 6 
#
# 1 163.1832 21.0837 5.2790 0.0000 0.0000 0.0000
# 2 21.0837 67.5155 6.5488 0.0000 0.0000 0.0000
# 3 5.2790 6.5488 127.4314 0.0000 0.0000 0.0000
# 4 0.0000 0.0000 0.0000 -31.0351 0.0000 0.0000
# 5 0.0000 0.0000 0.0000 0.0000 -170.2478 0.0000
# 6 0.0000 0.0000 0.0000 0.0000 0.0000 29.1325
#
#
#
# Elastic Compliance Matrix: (Units=1/GPa)
#
#
# Indices 1 2 3 4 5 6 
#
# 1 0.006389 -0.001979 -0.000163 0.000000 0.000000 0.000000
# 2 -0.001979 0.015499 -0.000714 0.000000 0.000000 0.000000
# 3 -0.000163 -0.000714 0.007891 0.000000 0.000000 0.000000
# 4 0.000000 0.000000 0.000000 -0.032222 0.000000 0.000000
# 5 0.000000 0.000000 0.000000 0.000000 -0.005874 0.000000
# 6 0.000000 0.000000 0.000000 0.000000 0.000000 0.034326
#
#
# Mechanical properties :
#
#
# Convention : Reuss Voigt Hill
#
# Bulk Modulus (GPa) = 41.55394 47.10589 44.32992
# Shear Modulus (GPa) = 125.80294 -12.74884 56.52705
#
# Velocity S-wave (km/s) = 7.27063 -2.31453 4.87366
# Velocity P-wave (km/s) = 9.37783 3.55684 7.09207
#
# Compressibility (1/GPa) = 0.02406511
#
# Stress axis : x y z
#
# Youngs Moduli (GPa) = 156.51671 64.52095 126.72945
#
# Poissons Ratio (x) = 0.12771 0.02065
# Poissons Ratio (y) = 0.30981 0.09055
# Poissons Ratio (z) = 0.02551 0.04610
#
# Static dielectric constant tensor:
#      x y z
#    x 1.878950 0.000000 0.000000 
#    y 0.000000 2.037310 0.000000 
#    z 0.000000 0.000000 1.884470 
# 
# From -- ./inp_files/36408.got.cif
#   From: 2010.05.17/outbox.cif.g08.bks.cpg/sg52_19_cif.got.tgz:36408.got - 2010.06.03 12:15:38.
