data_PCOD9412355
_publ_section_title
;
Structure prediction by ZEFSAII (Michael W. Deem and Ramdas Pophale) SiO2 
 PCOD9412355
Probable space group: P N N A
;
_chemical_formula_sum "Si O2"
_cell_formula_units_Z 40
_cell_length_a 22.502048
_cell_length_b 9.178932
_cell_length_c 8.306188
_cell_angle_alpha 90.000000
_cell_angle_beta 90.000000
_cell_angle_gamma 90.000000
_cell_volume 1715.599677
_symmetry_space_group_name_H-M "P N N A"
_symmetry_group_IT_number 52
_symmetry_cell_setting 'orthorhombic'
loop_
_space_group_symop_operation_xyz
x,y,z
1/2-x,-y,z
x,1/2-y,1/2-z
1/2-x,1/2+y,1/2-z
-x,-y,-z
1/2+x,y,-z
-x,1/2+y,1/2+z
1/2+x,1/2-y,1/2+z
loop_
_atom_site_type_symbol
_atom_site_label
_atom_site_fract_x
_atom_site_fract_y
_atom_site_fract_z
Si Si1 0.905427 0.977056 0.127154
Si Si2 0.651660 0.597711 0.888067
Si Si3 0.587177 0.344122 0.024306
Si Si4 0.542482 0.754073 0.436743
Si Si5 0.197555 0.882598 0.026844
O O1 0.893828 0.822608 0.044423
O O2 0.923728 0.927053 0.305666
O O3 0.950473 0.081859 0.031176
O O4 0.844593 0.067786 0.118551
O O5 0.700837 0.704937 0.970718
O O6 0.664395 0.596447 0.698972
O O7 0.640028 0.432821 0.941351
O O8 0.588420 0.667244 0.944537
O O9 0.522101 0.326286 0.945652
O O10 0.561253 0.750000 0.250000
O O11 0.250000 0.000000 0.028277
#
# Coordination Sequence:
#
# PCOD9412355 Si02
#       5
#     8   8   8   8   8
#     4  10  24  41  61  96 139 175 232 286 331 417
#     4  10  23  42  69  98 131 170 233 281 337 434
#     4  11  23  39  64 102 137 181 227 269 345 420
#     4  11  22  39  66  96 143 191 220 272 348 415
#     4  10  24  46  68  92 126 177 228 296 362 402
#
# _framework density 23.315463000000001
#
# number of rings (size 3 to 8) (size 9 to 14) (size 15 to 20)
#    0.000    1.600    2.000    1.200    2.800    9.600 
#    0.000    5.000    0.000    0.000    0.000    0.000 
#    0.000    0.000    0.000    0.000    0.000    0.000 
#
# Total GULP energy -222849.161609 kJ/mol
# GULP energy per Si atom -5571.229040 kJ/mol
# Density = 2.326240 g / cm^3
# Si number density = 23.315463 Si / 1000 Ang^3
#
#
#
# Elastic Constant Matrix: (Units=GPa)
#
#
# Indices 1 2 3 4 5 6 
#
# 1 84.7112 31.1893 41.4572 0.0000 0.0000 0.0000
# 2 31.1893 150.2003 26.4336 0.0000 0.0000 0.0000
# 3 41.4572 26.4336 41.7121 0.0000 0.0000 0.0000
# 4 0.0000 0.0000 0.0000 34.3689 0.0000 0.0000
# 5 0.0000 0.0000 0.0000 0.0000 -25.2436 0.0000
# 6 0.0000 0.0000 0.0000 0.0000 0.0000 23.5320
#
#
#
# Elastic Compliance Matrix: (Units=1/GPa)
#
#
# Indices 1 2 3 4 5 6 
#
# 1 0.023081 -0.000850 -0.022401 0.000000 0.000000 0.000000
# 2 -0.000850 0.007525 -0.003923 0.000000 0.000000 0.000000
# 3 -0.022401 -0.003923 0.048724 0.000000 0.000000 0.000000
# 4 0.000000 0.000000 0.000000 0.029096 0.000000 0.000000
# 5 0.000000 0.000000 0.000000 0.000000 -0.039614 0.000000
# 6 0.000000 0.000000 0.000000 0.000000 0.000000 0.042495
#
#
# Mechanical properties :
#
#
# Convention : Reuss Voigt Hill
#
# Bulk Modulus (GPa) = 40.03123 52.75374 46.39249
# Shear Modulus (GPa) = 28.73844 18.36769 23.55306
#
# Velocity S-wave (km/s) = 3.51464 2.80980 3.18180
# Velocity P-wave (km/s) = 5.80318 5.76211 5.78268
#
# Compressibility (1/GPa) = 0.02498049
#
# Stress axis : x y z
#
# Youngs Moduli (GPa) = 43.32615 132.89314 20.52375
#
# Poissons Ratio (x) = 0.11302 0.45975
# Poissons Ratio (y) = 0.03685 0.08052
# Poissons Ratio (z) = 0.97054 0.52139
#
# Static dielectric constant tensor:
#      x y z
#    x 1.894250 0.000000 0.000000 
#    y 0.000000 2.079270 0.000000 
#    z 0.000000 0.000000 1.894400 
# 
# From -- ./inp_files/13981.got.cif
#   From: 2010.05.17/outbox.cif.g08.bks.cpg/sg52_7_cif.got.tgz:13981.got - 2010.06.03 12:15:38.
