data_PCOD9412814
_publ_section_title
;
Structure prediction by ZEFSAII (Michael W. Deem and Ramdas Pophale) SiO2 
 PCOD9412814
Probable space group: P N N A
;
_chemical_formula_sum "Si O2"
_cell_formula_units_Z 48
_cell_length_a 12.007762
_cell_length_b 13.666808
_cell_length_c 12.361946
_cell_angle_alpha 90.000000
_cell_angle_beta 90.000000
_cell_angle_gamma 90.000000
_cell_volume 2028.691487
_symmetry_space_group_name_H-M "P N N A"
_symmetry_group_IT_number 52
_symmetry_cell_setting 'orthorhombic'
loop_
_space_group_symop_operation_xyz
x,y,z
1/2-x,-y,z
x,1/2-y,1/2-z
1/2-x,1/2+y,1/2-z
-x,-y,-z
1/2+x,y,-z
-x,1/2+y,1/2+z
1/2+x,1/2-y,1/2+z
loop_
_atom_site_type_symbol
_atom_site_label
_atom_site_fract_x
_atom_site_fract_y
_atom_site_fract_z
Si Si1 0.955628 0.659149 0.681434
Si Si2 0.347323 0.062101 0.572389
Si Si3 0.234168 0.108580 0.805629
Si Si4 0.290662 0.107445 0.179024
Si Si5 0.116975 0.778522 0.976443
Si Si6 0.008220 0.050918 0.723888
O O1 0.003811 0.750000 0.750000
O O2 0.826041 0.655371 0.707461
O O3 0.995514 0.684102 0.561333
O O4 0.999892 0.551639 0.709810
O O5 0.291789 0.098246 0.687292
O O6 0.382863 0.161764 0.516858
O O7 0.250000 0.000000 0.515037
O O8 0.444095 0.987700 0.609948
O O9 0.295216 0.184527 0.883638
O O10 0.102959 0.118149 0.779177
O O11 0.250000 0.000000 0.856011
O O12 0.385159 0.094542 0.269843
O O13 0.250000 0.000000 0.141434
O O14 0.346716 0.168740 0.084618
#
# Coordination Sequence:
#
# PCOD9412814 Si02
#       6
#     8   8   8   8   8   8
#     4  11  20  37  60  82 120 168 206 234 304 391
#     4   9  18  34  58  87 111 158 213 249 288 364
#     4   9  16  28  53  85 115 145 194 246 295 350
#     4  10  25  34  54  93 130 154 194 259 326 358
#     4  12  19  33  59  87 122 161 197 250 311 372
#     4   9  18  36  53  85 121 151 197 248 302 361
#
# _framework density 23.660571000000001
#
# number of rings (size 3 to 8) (size 9 to 14) (size 15 to 20)
#    0.000    2.333    5.000    1.000    2.333    1.333 
#    0.000    3.333    0.000    4.000    0.000    0.000 
#    0.000    0.000    0.000    0.000    0.000    0.000 
#
# Total GULP energy -268012.012242 kJ/mol
# GULP energy per Si atom -5583.583588 kJ/mol
# Density = 2.360672 g / cm^3
# Si number density = 23.660571 Si / 1000 Ang^3
#
#
#
# Elastic Constant Matrix: (Units=GPa)
#
#
# Indices 1 2 3 4 5 6 
#
# 1 157.9788 40.4072 14.3369 0.0000 0.0000 0.0000
# 2 40.4072 110.1966 24.6618 0.0000 0.0000 0.0000
# 3 14.3369 24.6618 40.6394 0.0000 0.0000 0.0000
# 4 0.0000 0.0000 0.0000 30.4481 0.0000 0.0000
# 5 0.0000 0.0000 0.0000 0.0000 2.6599 0.0000
# 6 0.0000 0.0000 0.0000 0.0000 0.0000 26.0891
#
#
#
# Elastic Compliance Matrix: (Units=1/GPa)
#
#
# Indices 1 2 3 4 5 6 
#
# 1 0.007024 -0.002339 -0.001059 0.000000 0.000000 0.000000
# 2 -0.002339 0.011279 -0.006020 0.000000 0.000000 0.000000
# 3 -0.001059 -0.006020 0.028633 0.000000 0.000000 0.000000
# 4 0.000000 0.000000 0.000000 0.032843 0.000000 0.000000
# 5 0.000000 0.000000 0.000000 0.000000 0.375958 0.000000
# 6 0.000000 0.000000 0.000000 0.000000 0.000000 0.038330
#
#
# Mechanical properties :
#
#
# Convention : Reuss Voigt Hill
#
# Bulk Modulus (GPa) = 35.58424 51.95850 43.77137
# Shear Modulus (GPa) = 9.57360 27.13336 18.35348
#
# Velocity S-wave (km/s) = 2.01371 3.39008 2.78816
# Velocity P-wave (km/s) = 4.52535 6.10992 5.37633
#
# Compressibility (1/GPa) = 0.02810233
#
# Stress axis : x y z
#
# Youngs Moduli (GPa) = 142.36423 88.65656 34.92438
#
# Poissons Ratio (x) = 0.20734 0.03698
# Poissons Ratio (y) = 0.33295 0.21024
# Poissons Ratio (z) = 0.15073 0.53370
#
# Static dielectric constant tensor:
#      x y z
#    x 1.968330 0.000000 0.000000 
#    y 0.000000 1.917230 0.000000 
#    z 0.000000 0.000000 1.904020 
# 
# From -- ./inp_files/26055.got.cif
#   From: 2010.05.17/outbox.cif.g08.bks.cpg/sg52_14_cif.got.tgz:26055.got - 2010.06.03 12:15:38.
