data_PCOD9412399
_publ_section_title
;
Structure prediction by ZEFSAII (Michael W. Deem and Ramdas Pophale) SiO2 
 PCOD9412399
Probable space group: P N N A
;
_chemical_formula_sum "Si O2"
_cell_formula_units_Z 32
_cell_length_a 8.408951
_cell_length_b 25.494347
_cell_length_c 5.153930
_cell_angle_alpha 90.000000
_cell_angle_beta 90.000000
_cell_angle_gamma 90.000000
_cell_volume 1104.903197
_symmetry_space_group_name_H-M "P N N A"
_symmetry_group_IT_number 52
_symmetry_cell_setting 'orthorhombic'
loop_
_space_group_symop_operation_xyz
x,y,z
1/2-x,-y,z
x,1/2-y,1/2-z
1/2-x,1/2+y,1/2-z
-x,-y,-z
1/2+x,y,-z
-x,1/2+y,1/2+z
1/2+x,1/2-y,1/2+z
loop_
_atom_site_type_symbol
_atom_site_label
_atom_site_fract_x
_atom_site_fract_y
_atom_site_fract_z
Si Si1 0.875904 0.038211 0.638077
Si Si2 0.846331 0.607197 0.227137
Si Si3 0.713389 0.802143 0.987437
Si Si4 0.981749 0.793305 0.511608
O O1 0.780735 0.070308 0.416097
O O2 0.992151 0.076424 0.793955
O O3 0.750000 0.000000 0.780889
O O4 0.000000 0.000000 0.500000
O O5 0.789278 0.641085 0.470963
O O6 0.886263 0.653104 0.020718
O O7 0.594018 0.798418 0.235037
O O8 0.602480 0.798459 0.734549
O O9 0.851004 0.755726 0.996736
#
# Coordination Sequence:
#
# PCOD9412399 Si02
#       4
#     8   8   8   8
#     4   9  20  40  77 119 157 207 278 347 409 471
#     4  11  20  43  76 116 157 218 260 339 406 484
#     4  10  23  43  71 111 154 204 257 309 385 474
#     4  10  23  43  69 113 154 204 256 313 383 478
#
# _framework density 28.961815999999999
#
# number of rings (size 3 to 8) (size 9 to 14) (size 15 to 20)
#    0.000    2.000    2.500    0.000    0.000    6.000 
#    0.000   10.000    0.000   19.500    0.000    0.000 
#    0.000    0.000    0.000    0.000    0.000    0.000 
#
# Total GULP energy -178917.123848 kJ/mol
# GULP energy per Si atom -5591.160120 kJ/mol
# Density = 2.889590 g / cm^3
# Si number density = 28.961816 Si / 1000 Ang^3
#
#
#
# Elastic Constant Matrix: (Units=GPa)
#
#
# Indices 1 2 3 4 5 6 
#
# 1 253.7107 129.9334 124.4893 0.0000 0.0000 0.0000
# 2 129.9334 205.4957 37.2116 0.0000 0.0000 0.0000
# 3 124.4893 37.2116 243.7180 0.0000 0.0000 0.0000
# 4 0.0000 0.0000 0.0000 12.5856 0.0000 0.0000
# 5 0.0000 0.0000 0.0000 0.0000 77.3694 0.0000
# 6 0.0000 0.0000 0.0000 0.0000 0.0000 131.3767
#
#
#
# Elastic Compliance Matrix: (Units=1/GPa)
#
#
# Indices 1 2 3 4 5 6 
#
# 1 0.007780 -0.004319 -0.003314 0.000000 0.000000 0.000000
# 2 -0.004319 0.007402 0.001076 0.000000 0.000000 0.000000
# 3 -0.003314 0.001076 0.005632 0.000000 0.000000 0.000000
# 4 0.000000 0.000000 0.000000 0.079456 0.000000 0.000000
# 5 0.000000 0.000000 0.000000 0.000000 0.012925 0.000000
# 6 0.000000 0.000000 0.000000 0.000000 0.000000 0.007612
#
#
# Mechanical properties :
#
#
# Convention : Reuss Voigt Hill
#
# Bulk Modulus (GPa) = 129.88821 142.91034 136.39927
# Shear Modulus (GPa) = 36.63348 71.68567 54.15957
#
# Velocity S-wave (km/s) = 3.56039 4.98051 4.32908
# Velocity P-wave (km/s) = 7.86430 9.08436 8.49626
#
# Compressibility (1/GPa) = 0.00769893
#
# Stress axis : x y z
#
# Youngs Moduli (GPa) = 128.54235 135.09485 177.56391
#
# Poissons Ratio (x) = 0.58344 0.58850
# Poissons Ratio (y) = 0.55515 -0.19102
# Poissons Ratio (z) = 0.42603 -0.14534
#
# Static dielectric constant tensor:
#      x y z
#    x 2.364750 0.000000 0.000000 
#    y 0.000000 2.374810 0.000000 
#    z 0.000000 0.000000 2.523760 
# 
# From -- ./inp_files/7219.got.cif
#   From: 2010.05.17/outbox.cif.g08.bks.cpg/sg52_4_cif.got.tgz:7219.got - 2010.06.03 12:15:38.
