data_PCOD9412990
_publ_section_title
;
Structure prediction by ZEFSAII (Michael W. Deem and Ramdas Pophale) SiO2 
 PCOD9412990
Probable space group: P N N A
;
_chemical_formula_sum "Si O2"
_cell_formula_units_Z 40
_cell_length_a 20.782563
_cell_length_b 10.056287
_cell_length_c 9.757889
_cell_angle_alpha 90.000000
_cell_angle_beta 90.000000
_cell_angle_gamma 90.000000
_cell_volume 2039.354092
_symmetry_space_group_name_H-M "P N N A"
_symmetry_group_IT_number 52
_symmetry_cell_setting 'orthorhombic'
loop_
_space_group_symop_operation_xyz
x,y,z
1/2-x,-y,z
x,1/2-y,1/2-z
1/2-x,1/2+y,1/2-z
-x,-y,-z
1/2+x,y,-z
-x,1/2+y,1/2+z
1/2+x,1/2-y,1/2+z
loop_
_atom_site_type_symbol
_atom_site_label
_atom_site_fract_x
_atom_site_fract_y
_atom_site_fract_z
Si Si1 0.250000 0.500000 0.431704
Si Si2 0.976575 0.018041 0.657470
Si Si3 0.750000 0.500000 0.035981
Si Si4 0.092863 0.250000 0.250000
Si Si5 0.164263 0.893605 0.297212
Si Si6 0.569974 0.250000 0.250000
Si Si7 0.823774 0.754786 0.029715
O O1 0.189454 0.518057 0.328742
O O2 0.229252 0.371141 0.517546
O O3 0.910089 0.098037 0.670301
O O4 0.028568 0.117211 0.722942
O O5 0.955214 0.878190 0.730636
O O6 0.000000 0.000000 0.500000
O O7 0.800063 0.429968 0.934982
O O8 0.790232 0.623015 0.095270
O O9 0.141957 0.234314 0.380275
O O10 0.185345 0.750000 0.250000
O O11 0.615948 0.214241 0.124149
#
# Coordination Sequence:
#
# PCOD9412990 Si02
#       7
#     4   8   4   4   8   4   8
#     4  11  22  39  66  98 128 164 234 290 332 406
#     4  12  24  44  67 100 142 182 228 288 345 413
#     4  11  20  37  66  96 134 162 224 284 350 388
#     4  12  22  42  71 101 134 178 230 280 346 402
#     4  11  19  34  66  97 123 166 226 283 326 399
#     4  12  28  46  65  95 146 190 228 276 358 422
#     4  12  24  43  67 100 134 178 227 293 346 410
#
# _framework density 19.614052000000001
#
# number of rings (size 3 to 8) (size 9 to 14) (size 15 to 20)
#    0.000    0.400    9.000    1.200    0.000    1.600 
#    3.600    0.000    0.000    0.000    0.000    0.000 
#    0.000    0.000    0.000    0.000    0.000    0.000 
#
# Total GULP energy -222810.230048 kJ/mol
# GULP energy per Si atom -5570.255751 kJ/mol
# Density = 1.956941 g / cm^3
# Si number density = 19.614052 Si / 1000 Ang^3
#
#
#
# Elastic Constant Matrix: (Units=GPa)
#
#
# Indices 1 2 3 4 5 6 
#
# 1 120.1286 32.8508 34.5025 0.0000 0.0000 0.0000
# 2 32.8508 109.7129 5.6109 0.0000 0.0000 0.0000
# 3 34.5025 5.6109 49.1857 0.0000 0.0000 0.0000
# 4 0.0000 0.0000 0.0000 28.5375 0.0000 0.0000
# 5 0.0000 0.0000 0.0000 0.0000 62.1469 0.0000
# 6 0.0000 0.0000 0.0000 0.0000 0.0000 39.1718
#
#
#
# Elastic Compliance Matrix: (Units=1/GPa)
#
#
# Indices 1 2 3 4 5 6 
#
# 1 0.011330 -0.003004 -0.007605 0.000000 0.000000 0.000000
# 2 -0.003004 0.009964 0.000970 0.000000 0.000000 0.000000
# 3 -0.007605 0.000970 0.025555 0.000000 0.000000 0.000000
# 4 0.000000 0.000000 0.000000 0.035042 0.000000 0.000000
# 5 0.000000 0.000000 0.000000 0.000000 0.016091 0.000000
# 6 0.000000 0.000000 0.000000 0.000000 0.000000 0.025529
#
#
# Mechanical properties :
#
#
# Convention : Reuss Voigt Hill
#
# Bulk Modulus (GPa) = 36.26763 47.21730 41.74246
# Shear Modulus (GPa) = 32.89936 39.70877 36.30407
#
# Velocity S-wave (km/s) = 4.09997 4.50433 4.30690
# Velocity P-wave (km/s) = 6.39874 7.15384 6.78680
#
# Compressibility (1/GPa) = 0.02757280
#
# Stress axis : x y z
#
# Youngs Moduli (GPa) = 88.26077 100.35706 39.13095
#
# Poissons Ratio (x) = 0.30143 0.29760
# Poissons Ratio (y) = 0.26510 -0.03797
# Poissons Ratio (z) = 0.67123 -0.09737
#
# Static dielectric constant tensor:
#      x y z
#    x 1.680640 0.000000 0.000000 
#    y 0.000000 1.757850 0.000000 
#    z 0.000000 0.000000 1.711020 
# 
# From -- ./inp_files/11716.got.cif
#   From: 2010.05.17/outbox.cif.g08.bks.cpg/sg52_6_cif.got.tgz:11716.got - 2010.06.03 12:15:38.
