data_PCOD9412683
_publ_section_title
;
Structure prediction by ZEFSAII (Michael W. Deem and Ramdas Pophale) SiO2 
 PCOD9412683
Probable space group: P N N A
;
_chemical_formula_sum "Si O2"
_cell_formula_units_Z 40
_cell_length_a 8.839189
_cell_length_b 14.336657
_cell_length_c 14.380323
_cell_angle_alpha 90.000000
_cell_angle_beta 90.000000
_cell_angle_gamma 90.000000
_cell_volume 1822.338104
_symmetry_space_group_name_H-M "P N N A"
_symmetry_group_IT_number 52
_symmetry_cell_setting 'orthorhombic'
loop_
_space_group_symop_operation_xyz
x,y,z
1/2-x,-y,z
x,1/2-y,1/2-z
1/2-x,1/2+y,1/2-z
-x,-y,-z
1/2+x,y,-z
-x,1/2+y,1/2+z
1/2+x,1/2-y,1/2+z
loop_
_atom_site_type_symbol
_atom_site_label
_atom_site_fract_x
_atom_site_fract_y
_atom_site_fract_z
Si Si1 0.138394 0.118691 0.369925
Si Si2 0.025217 0.750000 0.750000
Si Si3 0.730301 0.697310 0.399132
Si Si4 0.959590 0.094689 0.943676
Si Si5 0.674576 0.596710 0.040089
Si Si6 0.750000 0.000000 0.794160
O O1 0.288141 0.110900 0.430952
O O2 0.085379 0.218053 0.332227
O O3 0.001657 0.090257 0.436967
O O4 0.148123 0.059300 0.276473
O O5 0.139659 0.679752 0.697050
O O6 0.629434 0.660272 0.484492
O O7 0.739047 0.809800 0.410805
O O8 0.890417 0.646301 0.407252
O O9 0.850680 0.065203 0.859599
O O10 0.000000 0.000000 0.000000
O O11 0.750000 0.500000 0.070519
#
# Coordination Sequence:
#
# PCOD9412683 Si02
#       6
#     8   4   8   8   8   4
#     4  11  25  44  69  99 139 183 234 294 352 421
#     4  10  24  44  68 108 142 178 242 298 338 432
#     4  11  24  45  73 100 140 185 232 286 357 418
#     4  12  24  46  73 103 140 187 232 289 365 426
#     4  11  24  46  72  97 140 187 230 290 359 413
#     4  12  26  40  72 106 140 186 242 292 364 422
#
# _framework density 21.949825000000001
#
# number of rings (size 3 to 8) (size 9 to 14) (size 15 to 20)
#    0.000    0.800    3.000    4.200    2.800    3.200 
#    3.600    0.000    0.000    0.000    0.000    0.000 
#    0.000    0.000    0.000    0.000    0.000    0.000 
#
# Total GULP energy -223530.163086 kJ/mol
# GULP energy per Si atom -5588.254077 kJ/mol
# Density = 2.189987 g / cm^3
# Si number density = 21.949825 Si / 1000 Ang^3
#
#
#
# Elastic Constant Matrix: (Units=GPa)
#
#
# Indices 1 2 3 4 5 6 
#
# 1 124.0509 41.7676 66.9294 0.0000 0.0000 0.0000
# 2 41.7676 110.0967 28.8011 0.0000 0.0000 0.0000
# 3 66.9294 28.8011 139.9423 0.0000 0.0000 0.0000
# 4 0.0000 0.0000 0.0000 44.7564 0.0000 0.0000
# 5 0.0000 0.0000 0.0000 0.0000 37.5929 0.0000
# 6 0.0000 0.0000 0.0000 0.0000 0.0000 38.6761
#
#
#
# Elastic Compliance Matrix: (Units=1/GPa)
#
#
# Indices 1 2 3 4 5 6 
#
# 1 0.011832 -0.003179 -0.005004 0.000000 0.000000 0.000000
# 2 -0.003179 0.010454 -0.000631 0.000000 0.000000 0.000000
# 3 -0.005004 -0.000631 0.009669 0.000000 0.000000 0.000000
# 4 0.000000 0.000000 0.000000 0.022343 0.000000 0.000000
# 5 0.000000 0.000000 0.000000 0.000000 0.026601 0.000000
# 6 0.000000 0.000000 0.000000 0.000000 0.000000 0.025856
#
#
# Mechanical properties :
#
#
# Convention : Reuss Voigt Hill
#
# Bulk Modulus (GPa) = 69.80565 72.12065 70.96315
# Shear Modulus (GPa) = 38.71190 39.97787 39.34488
#
# Velocity S-wave (km/s) = 4.20414 4.27233 4.23838
# Velocity P-wave (km/s) = 7.44566 7.56740 7.50678
#
# Compressibility (1/GPa) = 0.01432549
#
# Stress axis : x y z
#
# Youngs Moduli (GPa) = 84.51851 95.65549 103.42294
#
# Poissons Ratio (x) = 0.30414 0.51756
# Poissons Ratio (y) = 0.26873 0.06525
# Poissons Ratio (z) = 0.42296 0.06035
#
# Static dielectric constant tensor:
#      x y z
#    x 1.822050 0.000000 0.000000 
#    y 0.000000 0.837780 0.000000 
#    z 0.000000 0.000000 1.799520 
# 
# From -- ./inp_files/24469.got.cif
#   From: 2010.05.17/outbox.cif.g08.bks.cpg/sg52_13_cif.got.tgz:24469.got - 2010.06.03 12:15:38.
