data_PCOD9412952
_publ_section_title
;
Structure prediction by ZEFSAII (Michael W. Deem and Ramdas Pophale) SiO2 
 PCOD9412952
Probable space group: P N N A
;
_chemical_formula_sum "Si O2"
_cell_formula_units_Z 36
_cell_length_a 11.840570
_cell_length_b 12.349365
_cell_length_c 12.779864
_cell_angle_alpha 90.000000
_cell_angle_beta 90.000000
_cell_angle_gamma 90.000000
_cell_volume 1868.716709
_symmetry_space_group_name_H-M "P N N A"
_symmetry_group_IT_number 52
_symmetry_cell_setting 'orthorhombic'
loop_
_space_group_symop_operation_xyz
x,y,z
1/2-x,-y,z
x,1/2-y,1/2-z
1/2-x,1/2+y,1/2-z
-x,-y,-z
1/2+x,y,-z
-x,1/2+y,1/2+z
1/2+x,1/2-y,1/2+z
loop_
_atom_site_type_symbol
_atom_site_label
_atom_site_fract_x
_atom_site_fract_y
_atom_site_fract_z
Si Si1 0.582368 0.715858 0.419458
Si Si2 0.112898 0.063722 0.112002
Si Si3 0.918680 0.750000 0.750000
Si Si4 0.557634 0.823233 0.846008
Si Si5 0.695233 0.111025 0.120932
O O1 0.518857 0.598468 0.407245
O O2 0.502491 0.786918 0.344486
O O3 0.575902 0.737070 0.542675
O O4 0.707938 0.702365 0.377651
O O5 0.171164 0.090279 0.002613
O O6 0.147080 0.149593 0.201168
O O7 0.117934 0.939889 0.144004
O O8 0.594189 0.750000 0.750000
O O9 0.424135 0.851611 0.833652
O O10 0.750000 0.000000 0.164611
#
# Coordination Sequence:
#
# PCOD9412952 Si02
#       5
#     8   8   4   8   8
#     4   9  18  34  53  77  99 139 180 219 254 307
#     4   9  18  34  52  78 103 137 178 214 264 301
#     4   8  18  34  56  72 108 138 176 220 266 312
#     4  11  21  32  51  85 111 135 176 219 267 313
#     4  11  16  32  59  75  98 134 195 227 236 297
#
# _framework density 19.264555999999999
#
# number of rings (size 3 to 8) (size 9 to 14) (size 15 to 20)
#    1.333    0.889    4.444    1.333    1.556    0.000 
#    2.000    1.111    0.000    0.000    0.000    0.000 
#    0.000    0.000    0.000    0.000    0.000    0.000 
#
# Total GULP energy -200437.897273 kJ/mol
# GULP energy per Si atom -5567.719369 kJ/mol
# Density = 1.922071 g / cm^3
# Si number density = 19.264556 Si / 1000 Ang^3
#
#
#
# Elastic Constant Matrix: (Units=GPa)
#
#
# Indices 1 2 3 4 5 6 
#
# 1 63.0597 2.8488 -12.6508 0.0000 0.0000 0.0000
# 2 2.8488 46.7189 41.8165 0.0000 0.0000 0.0000
# 3 -12.6508 41.8165 98.8614 0.0000 0.0000 0.0000
# 4 0.0000 0.0000 0.0000 31.6423 0.0000 0.0000
# 5 0.0000 0.0000 0.0000 0.0000 23.5673 0.0000
# 6 0.0000 0.0000 0.0000 0.0000 0.0000 22.8108
#
#
#
# Elastic Compliance Matrix: (Units=1/GPa)
#
#
# Indices 1 2 3 4 5 6 
#
# 1 0.016913 -0.004777 0.004185 0.000000 0.000000 0.000000
# 2 -0.004777 0.035795 -0.015752 0.000000 0.000000 0.000000
# 3 0.004185 -0.015752 0.017313 0.000000 0.000000 0.000000
# 4 0.000000 0.000000 0.000000 0.031603 0.000000 0.000000
# 5 0.000000 0.000000 0.000000 0.000000 0.042432 0.000000
# 6 0.000000 0.000000 0.000000 0.000000 0.000000 0.043839
#
#
# Mechanical properties :
#
#
# Convention : Reuss Voigt Hill
#
# Bulk Modulus (GPa) = 26.78554 30.29656 28.54105
# Shear Modulus (GPa) = 21.45664 27.37911 24.41787
#
# Velocity S-wave (km/s) = 3.34097 3.77399 3.56406
# Velocity P-wave (km/s) = 5.36815 5.89503 5.63775
#
# Compressibility (1/GPa) = 0.03733358
#
# Stress axis : x y z
#
# Youngs Moduli (GPa) = 59.12480 27.93699 57.75864
#
# Poissons Ratio (x) = 0.13346 -0.24172
# Poissons Ratio (y) = 0.28245 0.90980
# Poissons Ratio (z) = -0.24743 0.44006
#
# Static dielectric constant tensor:
#      x y z
#    x 1.764220 0.000000 0.000000 
#    y 0.000000 1.670780 0.000000 
#    z 0.000000 0.000000 1.668940 
# 
# From -- ./inp_files/19156.got.cif
#   From: 2010.05.17/outbox.cif.g08.bks.cpg/sg52_10_cif.got.tgz:19156.got - 2010.06.03 12:15:38.
