data_PCOD9412313
_publ_section_title
;
Structure prediction by ZEFSAII (Michael W. Deem and Ramdas Pophale) SiO2 
 PCOD9412313
Probable space group: P N N A
;
_chemical_formula_sum "Si O2"
_cell_formula_units_Z 32
_cell_length_a 16.136266
_cell_length_b 15.998729
_cell_length_c 4.959179
_cell_angle_alpha 90.000000
_cell_angle_beta 90.000000
_cell_angle_gamma 90.000000
_cell_volume 1280.260395
_symmetry_space_group_name_H-M "P N N A"
_symmetry_group_IT_number 52
_symmetry_cell_setting 'orthorhombic'
loop_
_space_group_symop_operation_xyz
x,y,z
1/2-x,-y,z
x,1/2-y,1/2-z
1/2-x,1/2+y,1/2-z
-x,-y,-z
1/2+x,y,-z
-x,1/2+y,1/2+z
1/2+x,1/2-y,1/2+z
loop_
_atom_site_type_symbol
_atom_site_label
_atom_site_fract_x
_atom_site_fract_y
_atom_site_fract_z
Si Si1 0.388789 0.090385 0.031138
Si Si2 0.598493 0.482476 0.018339
Si Si3 0.310985 0.750000 0.750000
Si Si4 0.564128 0.339050 0.633387
Si Si5 0.796983 0.250000 0.750000
O O1 0.370416 0.022624 0.796772
O O2 0.486745 0.111582 0.994017
O O3 0.363075 0.042869 0.297705
O O4 0.348151 0.180537 0.083602
O O5 0.601801 0.391668 0.880169
O O6 0.500000 0.500000 0.000000
O O7 0.368469 0.683004 0.593081
O O8 0.257013 0.785587 0.500139
O O9 0.534136 0.250000 0.750000
#
# Coordination Sequence:
#
# PCOD9412313 Si02
#       5
#     8   8   4   8   4
#     4  11  25  44  74 107 144 184 243 307 369 435
#     4  10  23  41  70 111 142 173 236 314 367 429
#     4  12  27  44  69 106 152 196 254 298 359 464
#     4  11  25  43  77 109 142 188 247 306 376 434
#     4  12  27  46  71 104 150 204 252 294 373 448
#
# _framework density 24.994913
#
# number of rings (size 3 to 8) (size 9 to 14) (size 15 to 20)
#    0.000    1.000    1.250    5.250   19.250    0.000 
#    0.000    1.250    5.500    0.000    0.000    0.000 
#    0.000    0.000    0.000    0.000    0.000    0.000 
#
# Total GULP energy -178616.664595 kJ/mol
# GULP energy per Si atom -5581.770769 kJ/mol
# Density = 2.493802 g / cm^3
# Si number density = 24.994913 Si / 1000 Ang^3
#
#
#
# Elastic Constant Matrix: (Units=GPa)
#
#
# Indices 1 2 3 4 5 6 
#
# 1 59.2879 36.3497 56.2071 0.0000 0.0000 0.0000
# 2 36.3497 145.8877 35.9607 0.0000 0.0000 0.0000
# 3 56.2071 35.9607 160.5184 0.0000 0.0000 0.0000
# 4 0.0000 0.0000 0.0000 54.5345 0.0000 0.0000
# 5 0.0000 0.0000 0.0000 0.0000 27.1758 0.0000
# 6 0.0000 0.0000 0.0000 0.0000 0.0000 -4.6847
#
#
#
# Elastic Compliance Matrix: (Units=1/GPa)
#
#
# Indices 1 2 3 4 5 6 
#
# 1 0.028160 -0.004854 -0.008773 0.000000 0.000000 0.000000
# 2 -0.004854 0.008092 -0.000113 0.000000 0.000000 0.000000
# 3 -0.008773 -0.000113 0.009327 0.000000 0.000000 0.000000
# 4 0.000000 0.000000 0.000000 0.018337 0.000000 0.000000
# 5 0.000000 0.000000 0.000000 0.000000 0.036797 0.000000
# 6 0.000000 0.000000 0.000000 0.000000 0.000000 -0.213459
#
#
# Mechanical properties :
#
#
# Convention : Reuss Voigt Hill
#
# Bulk Modulus (GPa) = 55.25245 69.19211 62.22228
# Shear Modulus (GPa) = -63.10529 31.21688 -15.94421
#
# Velocity S-wave (km/s) = -5.03012 3.53785 -2.52840
# Velocity P-wave (km/s) = 3.40332 6.66567 4.05268
#
# Compressibility (1/GPa) = 0.01809874
#
# Stress axis : x y z
#
# Youngs Moduli (GPa) = 35.51136 123.58056 107.21389
#
# Poissons Ratio (x) = 0.59985 0.94060
# Poissons Ratio (y) = 0.17237 0.01213
# Poissons Ratio (z) = 0.31154 0.01399
#
# Static dielectric constant tensor:
#      x y z
#    x 2.348610 0.000000 0.000000 
#    y 0.000000 1.995710 0.000000 
#    z 0.000000 0.000000 2.117980 
# 
# From -- ./inp_files/3096.got.cif
#   From: 2010.05.17/outbox.cif.g08.bks.cpg/sg52_2_cif.got.tgz:3096.got - 2010.06.03 12:15:38.
