data_PCOD9412477
_publ_section_title
;
Structure prediction by ZEFSAII (Michael W. Deem and Ramdas Pophale) SiO2 
 PCOD9412477
Probable space group: P N N A
;
_chemical_formula_sum "Si O2"
_cell_formula_units_Z 32
_cell_length_a 27.152272
_cell_length_b 5.083225
_cell_length_c 10.156533
_cell_angle_alpha 90.000000
_cell_angle_beta 90.000000
_cell_angle_gamma 90.000000
_cell_volume 1401.815936
_symmetry_space_group_name_H-M "P N N A"
_symmetry_group_IT_number 52
_symmetry_cell_setting 'orthorhombic'
loop_
_space_group_symop_operation_xyz
x,y,z
1/2-x,-y,z
x,1/2-y,1/2-z
1/2-x,1/2+y,1/2-z
-x,-y,-z
1/2+x,y,-z
-x,1/2+y,1/2+z
1/2+x,1/2-y,1/2+z
loop_
_atom_site_type_symbol
_atom_site_label
_atom_site_fract_x
_atom_site_fract_y
_atom_site_fract_z
Si Si1 0.809362 0.003845 0.661337
Si Si2 0.861110 0.344922 0.111943
Si Si3 0.425531 0.831750 0.939706
Si Si4 0.526913 0.003354 0.818164
O O1 0.823166 0.750000 0.750000
O O2 0.750000 0.000000 0.649220
O O3 0.824008 0.250000 0.750000
O O4 0.829602 0.053674 0.513242
O O5 0.835896 0.250000 0.250000
O O6 0.899548 0.584716 0.126242
O O7 0.893181 0.090051 0.078749
O O8 0.481578 0.858827 0.891153
O O9 0.433908 0.830919 0.096401
O O10 0.500444 0.250000 0.750000
O O11 0.551486 0.750000 0.750000
#
# Coordination Sequence:
#
# PCOD9412477 Si02
#       4
#     8   8   8   8
#     4  10  23  45  70  96 128 165 206 259 321 385
#     4  12  24  41  65  94 128 165 207 259 319 381
#     4  11  24  38  58  88 123 165 209 259 316 369
#     4  11  22  38  58  82 119 166 216 263 308 364
#
# _framework density 22.827534
#
# number of rings (size 3 to 8) (size 9 to 14) (size 15 to 20)
#    0.000    1.000    0.000    7.500    0.000   10.000 
#    0.000    6.250    0.000    0.000    0.000    0.000 
#    0.000    0.000    0.000    0.000    0.000    0.000 
#
# Total GULP energy -178392.189499 kJ/mol
# GULP energy per Si atom -5574.755922 kJ/mol
# Density = 2.277558 g / cm^3
# Si number density = 22.827534 Si / 1000 Ang^3
#
#
#
# Elastic Constant Matrix: (Units=GPa)
#
#
# Indices 1 2 3 4 5 6 
#
# 1 61.3749 25.4292 43.6439 0.0000 0.0000 0.0000
# 2 25.4292 173.1483 53.8929 0.0000 0.0000 0.0000
# 3 43.6439 53.8929 147.3206 0.0000 0.0000 0.0000
# 4 0.0000 0.0000 0.0000 43.0393 0.0000 0.0000
# 5 0.0000 0.0000 0.0000 0.0000 -407.2304 0.0000
# 6 0.0000 0.0000 0.0000 0.0000 0.0000 -9.1950
#
#
#
# Elastic Compliance Matrix: (Units=1/GPa)
#
#
# Indices 1 2 3 4 5 6 
#
# 1 0.020894 -0.001289 -0.005718 0.000000 0.000000 0.000000
# 2 -0.001289 0.006597 -0.002032 0.000000 0.000000 0.000000
# 3 -0.005718 -0.002032 0.009225 0.000000 0.000000 0.000000
# 4 0.000000 0.000000 0.000000 0.023235 0.000000 0.000000
# 5 0.000000 0.000000 0.000000 0.000000 -0.002456 0.000000
# 6 0.000000 0.000000 0.000000 0.000000 0.000000 -0.108755
#
#
# Mechanical properties :
#
#
# Convention : Reuss Voigt Hill
#
# Bulk Modulus (GPa) = 53.65202 69.75288 61.70245
# Shear Modulus (GPa) = -185.38762 -57.41869 -121.40315
#
# Velocity S-wave (km/s) = -9.02156 -5.02074 -7.30056
# Velocity P-wave (km/s) = 9.21759 1.72849 6.63142
#
# Compressibility (1/GPa) = 0.01863863
#
# Stress axis : x y z
#
# Youngs Moduli (GPa) = 47.86172 151.58453 108.39929
#
# Poissons Ratio (x) = 0.19534 0.61986
# Poissons Ratio (y) = 0.06168 0.22022
# Poissons Ratio (z) = 0.27369 0.30795
#
# Static dielectric constant tensor:
#      x y z
#    x 1.834970 0.000000 0.000000 
#    y 0.000000 1.480540 0.000000 
#    z 0.000000 0.000000 2.180830 
# 
# From -- ./inp_files/15278.got.cif
#   From: 2010.05.17/outbox.cif.g08.bks.cpg/sg52_8_cif.got.tgz:15278.got - 2010.06.03 12:15:38.
