data_PCOD9412550
_publ_section_title
;
Structure prediction by ZEFSAII (Michael W. Deem and Ramdas Pophale) SiO2 
 PCOD9412550
Probable space group: P N N A
;
_chemical_formula_sum "Si O2"
_cell_formula_units_Z 60
_cell_length_a 12.735881
_cell_length_b 22.483400
_cell_length_c 8.696730
_cell_angle_alpha 90.000000
_cell_angle_beta 90.000000
_cell_angle_gamma 90.000000
_cell_volume 2490.273039
_symmetry_space_group_name_H-M "P N N A"
_symmetry_group_IT_number 52
_symmetry_cell_setting 'orthorhombic'
loop_
_space_group_symop_operation_xyz
x,y,z
1/2-x,-y,z
x,1/2-y,1/2-z
1/2-x,1/2+y,1/2-z
-x,-y,-z
1/2+x,y,-z
-x,1/2+y,1/2+z
1/2+x,1/2-y,1/2+z
loop_
_atom_site_type_symbol
_atom_site_label
_atom_site_fract_x
_atom_site_fract_y
_atom_site_fract_z
Si Si1 0.054147 0.151694 0.520264
Si Si2 0.646944 0.750000 0.250000
Si Si3 0.961180 0.785049 0.971575
Si Si4 0.293305 0.613386 0.416146
Si Si5 0.109529 0.683472 0.257017
Si Si6 0.859590 0.023424 0.374334
Si Si7 0.244186 0.128723 0.726813
Si Si8 0.917270 0.960251 0.690261
O O1 0.132969 0.122723 0.643638
O O2 0.060067 0.104823 0.383389
O O3 0.087491 0.218847 0.475996
O O4 0.941529 0.162140 0.598704
O O5 0.566969 0.777735 0.127072
O O6 0.722708 0.803328 0.291582
O O7 0.880015 0.833798 0.913890
O O8 0.007343 0.806340 0.134598
O O9 0.192075 0.636767 0.322945
O O10 0.262095 0.609461 0.595298
O O11 0.343770 0.555238 0.334481
O O12 0.157961 0.750000 0.250000
O O13 0.832346 0.092280 0.362567
O O14 0.628140 0.000702 0.548568
O O15 0.967207 0.011978 0.282753
O O16 0.750000 0.000000 0.307413
#
# Coordination Sequence:
#
# PCOD9412550 Si02
#       8
#     8   4   8   8   8   8   8   8
#     4  11  23  41  68 100 145 202 238 305 362 460
#     4  12  24  40  70 114 152 204 240 304 388 462
#     4  11  22  39  61 106 156 195 249 291 371 462
#     4  12  25  44  70 112 148 195 248 320 376 457
#     4  10  24  39  62 103 156 195 242 297 370 446
#     4  11  25  51  76 103 138 197 253 316 379 453
#     4  12  24  44  77 105 152 194 249 310 393 446
#     4  11  27  46  77 102 142 190 265 313 376 452
#
# _framework density 24.093743
#
# number of rings (size 3 to 8) (size 9 to 14) (size 15 to 20)
#    0.000    0.800    4.000    3.200    5.600    1.067 
#    0.000    1.333    0.000    0.000    0.000    0.000 
#    0.000    0.000    0.000    0.000    0.000    0.000 
#
# Total GULP energy -335542.551868 kJ/mol
# GULP energy per Si atom -5592.375864 kJ/mol
# Density = 2.403890 g / cm^3
# Si number density = 24.093743 Si / 1000 Ang^3
#
#
#
# Elastic Constant Matrix: (Units=GPa)
#
#
# Indices 1 2 3 4 5 6 
#
# 1 94.3214 33.1442 28.1686 0.0000 0.0000 0.0000
# 2 33.1442 79.9288 36.4149 0.0000 0.0000 0.0000
# 3 28.1686 36.4149 50.2609 0.0000 0.0000 0.0000
# 4 0.0000 0.0000 0.0000 43.1820 0.0000 0.0000
# 5 0.0000 0.0000 0.0000 0.0000 64.8835 0.0000
# 6 0.0000 0.0000 0.0000 0.0000 0.0000 42.4045
#
#
#
# Elastic Compliance Matrix: (Units=1/GPa)
#
#
# Indices 1 2 3 4 5 6 
#
# 1 0.013244 -0.003150 -0.005140 0.000000 0.000000 0.000000
# 2 -0.003150 0.019425 -0.012308 0.000000 0.000000 0.000000
# 3 -0.005140 -0.012308 0.031695 0.000000 0.000000 0.000000
# 4 0.000000 0.000000 0.000000 0.023158 0.000000 0.000000
# 5 0.000000 0.000000 0.000000 0.000000 0.015412 0.000000
# 6 0.000000 0.000000 0.000000 0.000000 0.000000 0.023582
#
#
# Mechanical properties :
#
#
# Convention : Reuss Voigt Hill
#
# Bulk Modulus (GPa) = 43.16613 46.66296 44.91454
# Shear Modulus (GPa) = 28.50053 38.54624 33.52338
#
# Velocity S-wave (km/s) = 3.44306 4.00414 3.73416
# Velocity P-wave (km/s) = 5.81043 6.38646 6.10524
#
# Compressibility (1/GPa) = 0.02316631
#
# Stress axis : x y z
#
# Youngs Moduli (GPa) = 75.50522 51.48037 31.55115
#
# Poissons Ratio (x) = 0.16217 0.16218
# Poissons Ratio (y) = 0.23785 0.38834
# Poissons Ratio (z) = 0.38812 0.63363
#
# Static dielectric constant tensor:
#      x y z
#    x 1.941200 0.000000 0.000000 
#    y 0.000000 2.064070 0.000000 
#    z 0.000000 0.000000 2.016780 
# 
# From -- ./inp_files/9049.got.cif
#   From: 2010.05.17/outbox.cif.g08.bks.cpg/sg52_5_cif.got.tgz:9049.got - 2010.06.03 12:15:38.
