data_PCOD9412089
_publ_section_title
;
Structure prediction by ZEFSAII (Michael W. Deem and Ramdas Pophale) SiO2 
 PCOD9412089
Probable space group: P N N A
;
_chemical_formula_sum "Si O2"
_cell_formula_units_Z 40
_cell_length_a 14.131067
_cell_length_b 14.502593
_cell_length_c 8.171296
_cell_angle_alpha 90.000000
_cell_angle_beta 90.000000
_cell_angle_gamma 90.000000
_cell_volume 1674.601815
_symmetry_space_group_name_H-M "P N N A"
_symmetry_group_IT_number 52
_symmetry_cell_setting 'orthorhombic'
loop_
_space_group_symop_operation_xyz
x,y,z
1/2-x,-y,z
x,1/2-y,1/2-z
1/2-x,1/2+y,1/2-z
-x,-y,-z
1/2+x,y,-z
-x,1/2+y,1/2+z
1/2+x,1/2-y,1/2+z
loop_
_atom_site_type_symbol
_atom_site_label
_atom_site_fract_x
_atom_site_fract_y
_atom_site_fract_z
Si Si1 0.015045 0.608868 0.004586
Si Si2 0.342498 0.449258 0.538889
Si Si3 0.636832 0.270977 0.922546
Si Si4 0.720392 0.892726 0.377767
Si Si5 0.473158 0.880698 0.869722
O O1 0.983563 0.646062 0.181129
O O2 0.122623 0.627762 0.966728
O O3 0.000000 0.500000 0.000000
O O4 0.946818 0.657460 0.875538
O O5 0.250000 0.500000 0.461284
O O6 0.298607 0.387054 0.683371
O O7 0.410472 0.525644 0.624718
O O8 0.418640 0.397466 0.427799
O O9 0.686610 0.250000 0.750000
O O10 0.704064 0.323824 0.048107
O O11 0.584612 0.186652 0.011655
O O12 0.750000 0.000000 0.407032
#
# Coordination Sequence:
#
# PCOD9412089 Si02
#       5
#     8   8   8   8   8
#     4  12  23  45  75 103 146 199 247 309 392 459
#     4  10  22  43  74 108 147 197 244 300 387 468
#     4  12  28  46  72 112 156 195 259 326 376 457
#     4  11  23  45  75 102 145 200 248 304 389 461
#     4  11  25  44  73 109 151 193 248 322 382 452
#
# _framework density 23.886274
#
# number of rings (size 3 to 8) (size 9 to 14) (size 15 to 20)
#    0.000    0.800    4.000    3.000    2.800    5.600 
#    0.000    6.000    0.000    0.000    0.000    0.000 
#    0.000    0.000    0.000    0.000    0.000    0.000 
#
# Total GULP energy -223925.436197 kJ/mol
# GULP energy per Si atom -5598.135905 kJ/mol
# Density = 2.383191 g / cm^3
# Si number density = 23.886274 Si / 1000 Ang^3
#
#
#
# Elastic Constant Matrix: (Units=GPa)
#
#
# Indices 1 2 3 4 5 6 
#
# 1 180.3685 22.4655 41.0312 0.0000 0.0000 0.0000
# 2 22.4655 53.4163 33.3086 0.0000 0.0000 0.0000
# 3 41.0312 33.3086 98.7374 0.0000 0.0000 0.0000
# 4 0.0000 0.0000 0.0000 25.8655 0.0000 0.0000
# 5 0.0000 0.0000 0.0000 0.0000 42.6631 0.0000
# 6 0.0000 0.0000 0.0000 0.0000 0.0000 33.8113
#
#
#
# Elastic Compliance Matrix: (Units=1/GPa)
#
#
# Indices 1 2 3 4 5 6 
#
# 1 0.006190 -0.001266 -0.002145 0.000000 0.000000 0.000000
# 2 -0.001266 0.023967 -0.007559 0.000000 0.000000 0.000000
# 3 -0.002145 -0.007559 0.013569 0.000000 0.000000 0.000000
# 4 0.000000 0.000000 0.000000 0.038661 0.000000 0.000000
# 5 0.000000 0.000000 0.000000 0.000000 0.023439 0.000000
# 6 0.000000 0.000000 0.000000 0.000000 0.000000 0.029576
#
#
# Mechanical properties :
#
#
# Convention : Reuss Voigt Hill
#
# Bulk Modulus (GPa) = 45.90105 58.45919 52.18012
# Shear Modulus (GPa) = 30.37574 36.18244 33.27909
#
# Velocity S-wave (km/s) = 3.56993 3.89624 3.73665
# Velocity P-wave (km/s) = 6.02086 6.69089 6.36470
#
# Compressibility (1/GPa) = 0.02178600
#
# Stress axis : x y z
#
# Youngs Moduli (GPa) = 161.55439 41.72443 73.69499
#
# Poissons Ratio (x) = 0.05280 0.15810
# Poissons Ratio (y) = 0.20445 0.55707
# Poissons Ratio (z) = 0.34659 0.31540
#
# Static dielectric constant tensor:
#      x y z
#    x 1.894460 0.000000 0.000000 
#    y 0.000000 1.977480 0.000000 
#    z 0.000000 0.000000 1.877390 
# 
# From -- ./inp_files/10032.got.cif
#   From: 2010.05.17/outbox.cif.g08.bks.cpg/sg52_6_cif.got.tgz:10032.got - 2010.06.03 12:15:38.
