data_PCOD9412685
_publ_section_title
;
Structure prediction by ZEFSAII (Michael W. Deem and Ramdas Pophale) SiO2 
 PCOD9412685
Probable space group: P N N A
;
_chemical_formula_sum "Si O2"
_cell_formula_units_Z 48
_cell_length_a 9.495634
_cell_length_b 17.224239
_cell_length_c 14.982715
_cell_angle_alpha 90.000000
_cell_angle_beta 90.000000
_cell_angle_gamma 90.000000
_cell_volume 2450.498993
_symmetry_space_group_name_H-M "P N N A"
_symmetry_group_IT_number 52
_symmetry_cell_setting 'orthorhombic'
loop_
_space_group_symop_operation_xyz
x,y,z
1/2-x,-y,z
x,1/2-y,1/2-z
1/2-x,1/2+y,1/2-z
-x,-y,-z
1/2+x,y,-z
-x,1/2+y,1/2+z
1/2+x,1/2-y,1/2+z
loop_
_atom_site_type_symbol
_atom_site_label
_atom_site_fract_x
_atom_site_fract_y
_atom_site_fract_z
Si Si1 0.561864 0.741475 0.934667
Si Si2 0.437716 0.633292 0.228792
Si Si3 0.008632 0.565609 0.074785
Si Si4 0.377076 0.766381 0.101145
Si Si5 0.607411 0.250000 0.250000
Si Si6 0.750000 0.500000 0.797264
Si Si7 0.252566 0.586515 0.790573
O O1 0.560755 0.649623 0.958126
O O2 0.715145 0.778825 0.925025
O O3 0.486475 0.747532 0.838927
O O4 0.471330 0.777140 0.014324
O O5 0.376250 0.680265 0.144711
O O6 0.442573 0.685330 0.317157
O O7 0.330389 0.565944 0.255443
O O8 0.588270 0.603427 0.196062
O O9 0.857547 0.575623 0.124684
O O10 0.127137 0.538060 0.144018
O O11 0.000000 0.500000 0.000000
O O12 0.692183 0.332113 0.252651
O O13 0.250000 0.500000 0.745482
#
# Coordination Sequence:
#
# PCOD9412685 Si02
#       7
#     8   8   8   8   4   4   8
#     4  11  25  41  66  99 135 182 225 285 348 421
#     4  11  24  43  65  93 137 180 225 276 336 420
#     4  11  25  37  62 100 144 171 219 280 359 436
#     4  11  25  41  66  97 134 175 230 280 341 406
#     4  10  24  44  68  94 140 180 232 280 354 414
#     4  12  22  40  62  94 130 182 212 272 344 412
#     4  11  24  41  67  97 132 182 227 281 344 414
#
# _framework density 19.587845999999999
#
# number of rings (size 3 to 8) (size 9 to 14) (size 15 to 20)
#    0.000    1.000    3.333    3.000   10.500    0.000 
#    0.000    0.000    1.833    2.000    0.000    0.000 
#    0.000    0.000    0.000    0.000    0.000    0.000 
#
# Total GULP energy -267764.884023 kJ/mol
# GULP energy per Si atom -5578.435084 kJ/mol
# Density = 1.954326 g / cm^3
# Si number density = 19.587846 Si / 1000 Ang^3
#
#
#
# Elastic Constant Matrix: (Units=GPa)
#
#
# Indices 1 2 3 4 5 6 
#
# 1 130.8502 27.3063 42.5347 0.0000 0.0000 0.0000
# 2 27.3063 86.3356 18.6953 0.0000 0.0000 0.0000
# 3 42.5347 18.6953 97.7366 0.0000 0.0000 0.0000
# 4 0.0000 0.0000 0.0000 21.9250 0.0000 0.0000
# 5 0.0000 0.0000 0.0000 0.0000 -0.6559 0.0000
# 6 0.0000 0.0000 0.0000 0.0000 0.0000 28.1411
#
#
#
# Elastic Compliance Matrix: (Units=1/GPa)
#
#
# Indices 1 2 3 4 5 6 
#
# 1 0.009268 -0.002147 -0.003623 0.000000 0.000000 0.000000
# 2 -0.002147 0.012580 -0.001472 0.000000 0.000000 0.000000
# 3 -0.003623 -0.001472 0.012090 0.000000 0.000000 0.000000
# 4 0.000000 0.000000 0.000000 0.045610 0.000000 0.000000
# 5 0.000000 0.000000 0.000000 0.000000 -1.524602 0.000000
# 6 0.000000 0.000000 0.000000 0.000000 0.000000 0.035535
#
#
# Mechanical properties :
#
#
# Convention : Reuss Voigt Hill
#
# Bulk Modulus (GPa) = 51.40110 54.66613 53.03361
# Shear Modulus (GPa) = -3.60088 24.97446 10.68679
#
# Velocity S-wave (km/s) = -1.35732 3.57458 2.33831
# Velocity P-wave (km/s) = 4.88281 6.70862 5.86718
#
# Compressibility (1/GPa) = 0.01945484
#
# Stress axis : x y z
#
# Youngs Moduli (GPa) = 107.89874 79.48824 82.71446
#
# Poissons Ratio (x) = 0.17065 0.29965
# Poissons Ratio (y) = 0.23164 0.12177
# Poissons Ratio (z) = 0.39089 0.11702
#
# Static dielectric constant tensor:
#      x y z
#    x 1.685010 0.000000 0.000000 
#    y 0.000000 1.779030 0.000000 
#    z 0.000000 0.000000 1.654220 
# 
# From -- ./inp_files/24755.got.cif
#   From: 2010.05.17/outbox.cif.g08.bks.cpg/sg52_13_cif.got.tgz:24755.got - 2010.06.03 12:15:38.
