data_PCOD9412500
_publ_section_title
;
Structure prediction by ZEFSAII (Michael W. Deem and Ramdas Pophale) SiO2 
 PCOD9412500
Probable space group: P N N A
;
_chemical_formula_sum "Si O2"
_cell_formula_units_Z 48
_cell_length_a 24.091119
_cell_length_b 8.427349
_cell_length_c 11.595019
_cell_angle_alpha 90.000000
_cell_angle_beta 90.000000
_cell_angle_gamma 90.000000
_cell_volume 2354.070240
_symmetry_space_group_name_H-M "P N N A"
_symmetry_group_IT_number 52
_symmetry_cell_setting 'orthorhombic'
loop_
_space_group_symop_operation_xyz
x,y,z
1/2-x,-y,z
x,1/2-y,1/2-z
1/2-x,1/2+y,1/2-z
-x,-y,-z
1/2+x,y,-z
-x,1/2+y,1/2+z
1/2+x,1/2-y,1/2+z
loop_
_atom_site_type_symbol
_atom_site_label
_atom_site_fract_x
_atom_site_fract_y
_atom_site_fract_z
Si Si1 0.428794 0.750000 0.250000
Si Si2 0.364599 0.764602 0.613626
Si Si3 0.059610 0.046636 0.045076
Si Si4 0.239765 0.695074 0.877527
Si Si5 0.849222 0.538833 0.902211
Si Si6 0.164418 0.682490 0.413292
Si Si7 0.750000 0.000000 0.744745
O O1 0.457752 0.865833 0.162870
O O2 0.391358 0.642503 0.168774
O O3 0.376029 0.750000 0.750000
O O4 0.408738 0.659041 0.546281
O O5 0.299506 0.719886 0.601711
O O6 0.362224 0.927002 0.536936
O O7 0.108680 0.920010 0.070627
O O8 0.000000 0.000000 0.000000
O O9 0.250000 0.500000 0.882012
O O10 0.221949 0.750000 0.750000
O O11 0.197242 0.765698 0.970324
O O12 0.854093 0.355671 0.870816
O O13 0.789466 0.591504 0.848135
O O14 0.208549 0.594168 0.329960
#
# Coordination Sequence:
#
# PCOD9412500 Si02
#       7
#     4   8   8   8   8   8   4
#     4  10  24  48  66  98 140 170 230 296 346 408
#     4  10  23  46  70  98 143 186 230 288 354 423
#     4  11  26  50  71  98 138 188 243 298 349 406
#     4  11  24  40  66 100 146 183 226 287 358 433
#     4  11  23  40  67 103 140 178 221 284 353 423
#     4  12  25  41  69 102 139 183 238 280 355 428
#     4  12  24  34  68 112 146 178 216 290 364 436
#
# _framework density 20.390215000000001
#
# number of rings (size 3 to 8) (size 9 to 14) (size 15 to 20)
#    0.000    1.000    3.333    2.500   10.500    0.000 
#    7.500    1.667    0.000    0.000    0.000    0.000 
#    0.000    0.000    0.000    0.000    0.000    0.000 
#
# Total GULP energy -267363.417114 kJ/mol
# GULP energy per Si atom -5570.071190 kJ/mol
# Density = 2.034381 g / cm^3
# Si number density = 20.390215 Si / 1000 Ang^3
#
#
#
# Elastic Constant Matrix: (Units=GPa)
#
#
# Indices 1 2 3 4 5 6 
#
# 1 111.1600 61.9177 57.1676 0.0000 0.0000 0.0000
# 2 61.9177 101.6058 66.0310 0.0000 0.0000 0.0000
# 3 57.1676 66.0310 158.8797 0.0000 0.0000 0.0000
# 4 0.0000 0.0000 0.0000 26.3427 0.0000 0.0000
# 5 0.0000 0.0000 0.0000 0.0000 -1.5794 0.0000
# 6 0.0000 0.0000 0.0000 0.0000 0.0000 4.0546
#
#
#
# Elastic Compliance Matrix: (Units=1/GPa)
#
#
# Indices 1 2 3 4 5 6 
#
# 1 0.014093 -0.007251 -0.002057 0.000000 0.000000 0.000000
# 2 -0.007251 0.017215 -0.004545 0.000000 0.000000 0.000000
# 3 -0.002057 -0.004545 0.008923 0.000000 0.000000 0.000000
# 4 0.000000 0.000000 0.000000 0.037961 0.000000 0.000000
# 5 0.000000 0.000000 0.000000 0.000000 -0.633168 0.000000
# 6 0.000000 0.000000 0.000000 0.000000 0.000000 0.246636
#
#
# Mechanical properties :
#
#
# Convention : Reuss Voigt Hill
#
# Bulk Modulus (GPa) = 79.85055 82.43090 81.14072
# Shear Modulus (GPa) = -18.08601 18.19884 0.05642
#
# Velocity S-wave (km/s) = -2.98148 2.99076 0.16652
# Velocity P-wave (km/s) = 5.23392 7.24159 6.31801
#
# Compressibility (1/GPa) = 0.01252340
#
# Stress axis : x y z
#
# Youngs Moduli (GPa) = 70.95659 58.08976 112.06488
#
# Poissons Ratio (x) = 0.42122 0.23055
# Poissons Ratio (y) = 0.51452 0.50938
# Poissons Ratio (z) = 0.14598 0.26404
#
# Static dielectric constant tensor:
#      x y z
#    x 1.711240 0.000000 0.000000 
#    y 0.000000 1.803100 0.000000 
#    z 0.000000 0.000000 1.869250 
# 
# From -- ./inp_files/22359.got.cif
#   From: 2010.05.17/outbox.cif.g08.bks.cpg/sg52_12_cif.got.tgz:22359.got - 2010.06.03 12:15:38.
