data_PCOD9412169
_publ_section_title
;
Structure prediction by ZEFSAII (Michael W. Deem and Ramdas Pophale) SiO2 
 PCOD9412169
Probable space group: P N N A
;
_chemical_formula_sum "Si O2"
_cell_formula_units_Z 48
_cell_length_a 13.752174
_cell_length_b 17.707558
_cell_length_c 8.774068
_cell_angle_alpha 90.000000
_cell_angle_beta 90.000000
_cell_angle_gamma 90.000000
_cell_volume 2136.638391
_symmetry_space_group_name_H-M "P N N A"
_symmetry_group_IT_number 52
_symmetry_cell_setting 'orthorhombic'
loop_
_space_group_symop_operation_xyz
x,y,z
1/2-x,-y,z
x,1/2-y,1/2-z
1/2-x,1/2+y,1/2-z
-x,-y,-z
1/2+x,y,-z
-x,1/2+y,1/2+z
1/2+x,1/2-y,1/2+z
loop_
_atom_site_type_symbol
_atom_site_label
_atom_site_fract_x
_atom_site_fract_y
_atom_site_fract_z
Si Si1 0.250000 0.500000 0.518760
Si Si2 0.089624 0.603820 0.390676
Si Si3 0.676367 0.661352 0.905926
Si Si4 0.613768 0.430375 0.247117
Si Si5 0.250000 0.000000 0.518849
Si Si6 0.025989 0.735918 0.574168
Si Si7 0.161166 0.224369 0.591317
O O1 0.167125 0.539621 0.422927
O O2 0.304248 0.562665 0.622388
O O3 0.131777 0.659371 0.261388
O O4 0.076313 0.655471 0.540344
O O5 0.991075 0.566353 0.325171
O O6 0.721936 0.577198 0.932413
O O7 0.591178 0.693653 0.015441
O O8 0.765331 0.714850 0.953149
O O9 0.654310 0.490785 0.126061
O O10 0.618233 0.355036 0.147652
O O11 0.002485 0.750000 0.750000
O O12 0.930488 0.729272 0.467317
O O13 0.210465 0.250000 0.750000
#
# Coordination Sequence:
#
# PCOD9412169 Si02
#       7
#     4   8   8   8   4   8   8
#     4  11  27  42  72 110 136 192 238 292 362 434
#     4  12  25  47  70 104 147 184 241 300 358 424
#     4  11  24  44  70 104 139 186 234 293 351 427
#     4  10  22  45  70  98 143 183 226 293 356 424
#     4   9  23  42  72 106 136 186 238 280 368 432
#     4  12  27  43  70 103 136 189 242 293 357 424
#     4  11  22  46  71 100 139 184 231 293 359 414
#
# _framework density 22.465195999999999
#
# number of rings (size 3 to 8) (size 9 to 14) (size 15 to 20)
#    0.000    1.000    3.333    2.000    9.333    3.333 
#    3.000    0.000    0.000    0.000    0.000    0.000 
#    0.000    0.000    0.000    0.000    0.000    0.000 
#
# Total GULP energy -267866.279903 kJ/mol
# GULP energy per Si atom -5580.547498 kJ/mol
# Density = 2.241406 g / cm^3
# Si number density = 22.465196 Si / 1000 Ang^3
#
#
#
# Elastic Constant Matrix: (Units=GPa)
#
#
# Indices 1 2 3 4 5 6 
#
# 1 115.5227 17.4126 22.4116 0.0000 0.0000 0.0000
# 2 17.4126 46.6862 1.6769 0.0000 0.0000 0.0000
# 3 22.4116 1.6769 73.1420 0.0000 0.0000 0.0000
# 4 0.0000 0.0000 0.0000 13.9522 0.0000 0.0000
# 5 0.0000 0.0000 0.0000 0.0000 28.9086 0.0000
# 6 0.0000 0.0000 0.0000 0.0000 0.0000 33.1406
#
#
#
# Elastic Compliance Matrix: (Units=1/GPa)
#
#
# Indices 1 2 3 4 5 6 
#
# 1 0.009753 -0.003533 -0.002907 0.000000 0.000000 0.000000
# 2 -0.003533 0.022717 0.000562 0.000000 0.000000 0.000000
# 3 -0.002907 0.000562 0.014550 0.000000 0.000000 0.000000
# 4 0.000000 0.000000 0.000000 0.071673 0.000000 0.000000
# 5 0.000000 0.000000 0.000000 0.000000 0.034592 0.000000
# 6 0.000000 0.000000 0.000000 0.000000 0.000000 0.030174
#
#
# Mechanical properties :
#
#
# Convention : Reuss Voigt Hill
#
# Bulk Modulus (GPa) = 28.35867 35.37256 31.86561
# Shear Modulus (GPa) = 24.15795 28.12361 26.14078
#
# Velocity S-wave (km/s) = 3.28281 3.54202 3.41488
# Velocity P-wave (km/s) = 5.19807 5.70154 5.45562
#
# Compressibility (1/GPa) = 0.03526259
#
# Stress axis : x y z
#
# Youngs Moduli (GPa) = 102.53368 44.01951 68.72843
#
# Poissons Ratio (x) = 0.15553 0.19982
# Poissons Ratio (y) = 0.36226 -0.03861
# Poissons Ratio (z) = 0.29811 -0.02473
#
# Static dielectric constant tensor:
#      x y z
#    x 1.836950 0.000000 0.000000 
#    y 0.000000 1.877440 0.000000 
#    z 0.000000 0.000000 1.822660 
# 
# From -- ./inp_files/10669.got.cif
#   From: 2010.05.17/outbox.cif.g08.bks.cpg/sg52_6_cif.got.tgz:10669.got - 2010.06.03 12:15:38.
