data_PCOD9412864
_publ_section_title
;
Structure prediction by ZEFSAII (Michael W. Deem and Ramdas Pophale) SiO2 
 PCOD9412864
Probable space group: P N N A
;
_chemical_formula_sum "Si O2"
_cell_formula_units_Z 60
_cell_length_a 11.905517
_cell_length_b 24.863699
_cell_length_c 8.895961
_cell_angle_alpha 90.000000
_cell_angle_beta 90.000000
_cell_angle_gamma 90.000000
_cell_volume 2633.339596
_symmetry_space_group_name_H-M "P N N A"
_symmetry_group_IT_number 52
_symmetry_cell_setting 'orthorhombic'
loop_
_space_group_symop_operation_xyz
x,y,z
1/2-x,-y,z
x,1/2-y,1/2-z
1/2-x,1/2+y,1/2-z
-x,-y,-z
1/2+x,y,-z
-x,1/2+y,1/2+z
1/2+x,1/2-y,1/2+z
loop_
_atom_site_type_symbol
_atom_site_label
_atom_site_fract_x
_atom_site_fract_y
_atom_site_fract_z
Si Si1 0.204888 0.392283 0.601187
Si Si2 0.359091 0.750000 0.250000
Si Si3 0.616004 0.052843 0.802390
Si Si4 0.453786 0.305583 0.907871
Si Si5 0.657422 0.939235 0.665997
Si Si6 0.126205 0.578163 0.831898
Si Si7 0.999139 0.338736 0.764008
Si Si8 0.829100 0.291987 0.531175
O O1 0.145668 0.425510 0.467674
O O2 0.270963 0.429445 0.718861
O O3 0.113846 0.356672 0.688461
O O4 0.294346 0.349531 0.535220
O O5 0.443356 0.702110 0.205900
O O6 0.279118 0.732408 0.385234
O O7 0.713468 0.077405 0.694701
O O8 0.491345 0.065958 0.748640
O O9 0.631654 0.989186 0.774936
O O10 0.381130 0.358310 0.874008
O O11 0.508949 0.312801 0.072433
O O12 0.377618 0.252332 0.918253
O O13 0.639254 0.952492 0.490390
O O14 0.574599 0.891949 0.708742
O O15 0.926202 0.302701 0.652452
#
# Coordination Sequence:
#
# PCOD9412864 Si02
#       8
#     8   4   8   8   8   8   8   8
#     4  12  26  43  76 105 151 183 249 298 370 426
#     4  12  24  40  68  96 136 198 236 292 352 422
#     4  11  24  50  73 108 147 186 237 309 363 446
#     4  11  25  42  68  98 145 187 251 287 361 422
#     4  10  25  47  77 101 145 189 241 300 377 435
#     4  11  26  46  74 108 140 192 242 301 363 446
#     4  11  24  45  67 104 144 190 235 308 359 433
#     4  12  23  44  64 101 140 196 237 298 354 425
#
# _framework density 22.784756000000002
#
# number of rings (size 3 to 8) (size 9 to 14) (size 15 to 20)
#    0.000    0.800    2.667    3.600    5.600    0.533 
#    2.400    0.000    0.000    0.000    0.000    0.000 
#    0.000    0.000    0.000    0.000    0.000    0.000 
#
# Total GULP energy -335929.190662 kJ/mol
# GULP energy per Si atom -5598.819844 kJ/mol
# Density = 2.273290 g / cm^3
# Si number density = 22.784756 Si / 1000 Ang^3
#
#
#
# Elastic Constant Matrix: (Units=GPa)
#
#
# Indices 1 2 3 4 5 6 
#
# 1 95.5686 -0.2824 41.2389 0.0000 0.0000 0.0000
# 2 -0.2824 66.9075 18.7367 0.0000 0.0000 0.0000
# 3 41.2389 18.7367 115.9012 0.0000 0.0000 0.0000
# 4 0.0000 0.0000 0.0000 8.9446 0.0000 0.0000
# 5 0.0000 0.0000 0.0000 0.0000 -26.3147 0.0000
# 6 0.0000 0.0000 0.0000 0.0000 0.0000 28.2924
#
#
#
# Elastic Compliance Matrix: (Units=1/GPa)
#
#
# Indices 1 2 3 4 5 6 
#
# 1 0.012478 0.001357 -0.004659 0.000000 0.000000 0.000000
# 2 0.001357 0.015802 -0.003038 0.000000 0.000000 0.000000
# 3 -0.004659 -0.003038 0.010777 0.000000 0.000000 0.000000
# 4 0.000000 0.000000 0.000000 0.111799 0.000000 0.000000
# 5 0.000000 0.000000 0.000000 0.000000 -0.038002 0.000000
# 6 0.000000 0.000000 0.000000 0.000000 0.000000 0.035345
#
#
# Mechanical properties :
#
#
# Convention : Reuss Voigt Hill
#
# Bulk Modulus (GPa) = 37.90956 44.19596 41.05276
# Shear Modulus (GPa) = 29.46863 16.76341 23.11602
#
# Velocity S-wave (km/s) = 3.60022 2.71538 3.18864
# Velocity P-wave (km/s) = 5.82721 5.41020 5.62257
#
# Compressibility (1/GPa) = 0.02637857
#
# Stress axis : x y z
#
# Youngs Moduli (GPa) = 80.13943 63.28162 92.79065
#
# Poissons Ratio (x) = -0.08590 0.43234
# Poissons Ratio (y) = -0.10879 0.28186
# Poissons Ratio (z) = 0.37340 0.19223
#
# Static dielectric constant tensor:
#      x y z
#    x 1.807050 0.000000 0.000000 
#    y 0.000000 1.862460 0.000000 
#    z 0.000000 0.000000 1.875090 
# 
# From -- ./inp_files/9058.got.cif
#   From: 2010.05.17/outbox.cif.g08.bks.cpg/sg52_5_cif.got.tgz:9058.got - 2010.06.03 12:15:38.
