data_PCOD9412984
_publ_section_title
;
Structure prediction by ZEFSAII (Michael W. Deem and Ramdas Pophale) SiO2 
 PCOD9412984
Probable space group: P N N A
;
_chemical_formula_sum "Si O2"
_cell_formula_units_Z 40
_cell_length_a 9.398632
_cell_length_b 8.955806
_cell_length_c 26.533666
_cell_angle_alpha 90.000000
_cell_angle_beta 90.000000
_cell_angle_gamma 90.000000
_cell_volume 2233.400354
_symmetry_space_group_name_H-M "P N N A"
_symmetry_group_IT_number 52
_symmetry_cell_setting 'orthorhombic'
loop_
_space_group_symop_operation_xyz
x,y,z
1/2-x,-y,z
x,1/2-y,1/2-z
1/2-x,1/2+y,1/2-z
-x,-y,-z
1/2+x,y,-z
-x,1/2+y,1/2+z
1/2+x,1/2-y,1/2+z
loop_
_atom_site_type_symbol
_atom_site_label
_atom_site_fract_x
_atom_site_fract_y
_atom_site_fract_z
Si Si1 0.612022 0.411451 0.730668
Si Si2 0.389548 0.894098 0.712768
Si Si3 0.692858 0.339134 0.100588
Si Si4 0.891275 0.093134 0.142171
Si Si5 0.408746 0.932656 0.954972
O O1 0.750000 0.500000 0.712740
O O2 0.656994 0.250000 0.750000
O O3 0.527696 0.511278 0.771564
O O4 0.495751 0.384652 0.687614
O O5 0.377861 0.750000 0.750000
O O6 0.393393 0.851034 0.653513
O O7 0.250000 0.000000 0.718388
O O8 0.750000 0.500000 0.084497
O O9 0.830319 0.243267 0.117944
O O10 0.612755 0.242891 0.057574
O O11 0.750000 0.000000 0.157900
O O12 0.964152 0.999373 0.097839
O O13 0.250000 0.000000 0.960728
O O14 0.500000 0.000000 0.000000
#
# Coordination Sequence:
#
# PCOD9412984 Si02
#       5
#     8   8   8   8   8
#     4  12  24  35  49  76 114 148 179 218 266 315
#     4  11  19  32  55  80 105 141 181 219 260 314
#     4   9  17  31  56  82 103 130 176 226 260 304
#     4   9  19  36  56  77 101 137 181 216 256 319
#     4   9  19  36  56  77 101 134 175 215 263 320
#
# _framework density 17.90991
#
# number of rings (size 3 to 8) (size 9 to 14) (size 15 to 20)
#    0.000    2.400    0.000    7.800    0.000    1.600 
#    0.000    4.000    0.000    1.200    0.000    0.000 
#    0.000    0.000    0.000    0.000    0.000    0.000 
#
# Total GULP energy -222959.600664 kJ/mol
# GULP energy per Si atom -5573.990017 kJ/mol
# Density = 1.786915 g / cm^3
# Si number density = 17.909910 Si / 1000 Ang^3
#
#
#
# Elastic Constant Matrix: (Units=GPa)
#
#
# Indices 1 2 3 4 5 6 
#
# 1 39.2825 21.5150 10.9880 0.0000 0.0000 0.0000
# 2 21.5150 139.9706 26.8267 0.0000 0.0000 0.0000
# 3 10.9880 26.8267 70.3376 0.0000 0.0000 0.0000
# 4 0.0000 0.0000 0.0000 17.3778 0.0000 0.0000
# 5 0.0000 0.0000 0.0000 0.0000 14.9926 0.0000
# 6 0.0000 0.0000 0.0000 0.0000 0.0000 14.9858
#
#
#
# Elastic Compliance Matrix: (Units=1/GPa)
#
#
# Indices 1 2 3 4 5 6 
#
# 1 0.028367 -0.003788 -0.002987 0.000000 0.000000 0.000000
# 2 -0.003788 0.008214 -0.002541 0.000000 0.000000 0.000000
# 3 -0.002987 -0.002541 0.015653 0.000000 0.000000 0.000000
# 4 0.000000 0.000000 0.000000 0.057545 0.000000 0.000000
# 5 0.000000 0.000000 0.000000 0.000000 0.066699 0.000000
# 6 0.000000 0.000000 0.000000 0.000000 0.000000 0.066730
#
#
# Mechanical properties :
#
#
# Convention : Reuss Voigt Hill
#
# Bulk Modulus (GPa) = 29.76002 40.91670 35.33836
# Shear Modulus (GPa) = 18.31244 22.15533 20.23389
#
# Velocity S-wave (km/s) = 3.20109 3.52098 3.36484
# Velocity P-wave (km/s) = 5.50592 6.27895 5.90510
#
# Compressibility (1/GPa) = 0.03360213
#
# Stress axis : x y z
#
# Youngs Moduli (GPa) = 35.25268 121.74956 63.88626
#
# Poissons Ratio (x) = 0.46117 0.19081
# Poissons Ratio (y) = 0.13353 0.16233
# Poissons Ratio (z) = 0.10529 0.30936
#
# Static dielectric constant tensor:
#      x y z
#    x 1.600580 0.000000 0.000000 
#    y 0.000000 1.677440 0.000000 
#    z 0.000000 0.000000 1.646250 
# 
# From -- ./inp_files/42098.got.cif
#   From: 2010.05.17/outbox.cif.g08.bks.cpg/sg52_22_cif.got.tgz:42098.got - 2010.06.03 12:15:38.
