data_PCOD9412835
_publ_section_title
;
Structure prediction by ZEFSAII (Michael W. Deem and Ramdas Pophale) SiO2 
 PCOD9412835
Probable space group: P N N A
;
_chemical_formula_sum "Si O2"
_cell_formula_units_Z 36
_cell_length_a 9.620763
_cell_length_b 8.019928
_cell_length_c 23.605517
_cell_angle_alpha 90.000000
_cell_angle_beta 90.000000
_cell_angle_gamma 90.000000
_cell_volume 1821.350387
_symmetry_space_group_name_H-M "P N N A"
_symmetry_group_IT_number 52
_symmetry_cell_setting 'orthorhombic'
loop_
_space_group_symop_operation_xyz
x,y,z
1/2-x,-y,z
x,1/2-y,1/2-z
1/2-x,1/2+y,1/2-z
-x,-y,-z
1/2+x,y,-z
-x,1/2+y,1/2+z
1/2+x,1/2-y,1/2+z
loop_
_atom_site_type_symbol
_atom_site_label
_atom_site_fract_x
_atom_site_fract_y
_atom_site_fract_z
Si Si1 0.756006 0.802790 0.432581
Si Si2 0.051337 0.665214 0.470602
Si Si3 0.662487 0.831913 0.311567
Si Si4 0.250000 0.500000 0.380809
Si Si5 0.164965 0.173834 0.311455
O O1 0.650956 0.751966 0.483057
O O2 0.709797 0.737906 0.369861
O O3 0.913428 0.758456 0.449702
O O4 0.750000 0.000000 0.428447
O O5 0.138995 0.598081 0.418369
O O6 0.000000 0.500000 0.500000
O O7 0.685611 0.750000 0.250000
O O8 0.498159 0.868840 0.315377
O O9 0.750000 0.000000 0.310233
O O10 0.184594 0.341919 0.348386
O O11 0.202069 0.250000 0.250000
O O12 0.250000 0.000000 0.323042
#
# Coordination Sequence:
#
# PCOD9412835 Si02
#       5
#     8   8   8   4   8
#     4  11  25  44  69 102 138 188 238 296 355 428
#     4  12  24  45  67 100 141 182 237 290 362 425
#     4  10  25  45  68 105 138 185 238 293 359 421
#     4  12  26  42  74 110 140 190 238 296 362 426
#     4  11  25  46  72 104 147 190 239 295 355 428
#
# _framework density 19.765554999999999
#
# number of rings (size 3 to 8) (size 9 to 14) (size 15 to 20)
#    0.000    0.889    3.333    2.000    6.222    7.111 
#    0.000    0.000    0.000    0.000    0.000    0.000 
#    0.000    0.000    0.000    0.000    0.000    0.000 
#
# Total GULP energy -200640.154158 kJ/mol
# GULP energy per Si atom -5573.337616 kJ/mol
# Density = 1.972057 g / cm^3
# Si number density = 19.765555 Si / 1000 Ang^3
#
#
#
# Elastic Constant Matrix: (Units=GPa)
#
#
# Indices 1 2 3 4 5 6 
#
# 1 144.6502 72.4666 84.0464 0.0000 0.0000 0.0000
# 2 72.4666 122.0378 65.2604 0.0000 0.0000 0.0000
# 3 84.0464 65.2604 157.5060 0.0000 0.0000 0.0000
# 4 0.0000 0.0000 0.0000 29.7887 0.0000 0.0000
# 5 0.0000 0.0000 0.0000 0.0000 24.4270 0.0000
# 6 0.0000 0.0000 0.0000 0.0000 0.0000 33.2638
#
#
#
# Elastic Compliance Matrix: (Units=1/GPa)
#
#
# Indices 1 2 3 4 5 6 
#
# 1 0.011780 -0.004668 -0.004352 0.000000 0.000000 0.000000
# 2 -0.004668 0.012376 -0.002637 0.000000 0.000000 0.000000
# 3 -0.004352 -0.002637 0.009764 0.000000 0.000000 0.000000
# 4 0.000000 0.000000 0.000000 0.033570 0.000000 0.000000
# 5 0.000000 0.000000 0.000000 0.000000 0.040938 0.000000
# 6 0.000000 0.000000 0.000000 0.000000 0.000000 0.030063
#
#
# Mechanical properties :
#
#
# Convention : Reuss Voigt Hill
#
# Bulk Modulus (GPa) = 94.28254 96.41565 95.34910
# Shear Modulus (GPa) = 30.24054 30.99061 30.61558
#
# Velocity S-wave (km/s) = 3.91572 3.96398 3.93992
# Velocity P-wave (km/s) = 8.26122 8.35682 8.30916
#
# Compressibility (1/GPa) = 0.01060642
#
# Stress axis : x y z
#
# Youngs Moduli (GPa) = 84.88625 80.79992 102.41860
#
# Poissons Ratio (x) = 0.37718 0.44573
# Poissons Ratio (y) = 0.39625 0.27008
# Poissons Ratio (z) = 0.36943 0.21307
#
# Static dielectric constant tensor:
#      x y z
#    x 1.631580 0.000000 0.000000 
#    y 0.000000 1.565020 0.000000 
#    z 0.000000 0.000000 1.727830 
# 
# From -- ./inp_files/35545.got.cif
#   From: 2010.05.17/outbox.cif.g08.bks.cpg/sg52_18_cif.got.tgz:35545.got - 2010.06.03 12:15:38.
