data_PCOD9412610
_publ_section_title
;
Structure prediction by ZEFSAII (Michael W. Deem and Ramdas Pophale) SiO2 
 PCOD9412610
Probable space group: P N N A
;
_chemical_formula_sum "Si O2"
_cell_formula_units_Z 28
_cell_length_a 9.149590
_cell_length_b 26.605974
_cell_length_c 5.050650
_cell_angle_alpha 90.000000
_cell_angle_beta 90.000000
_cell_angle_gamma 90.000000
_cell_volume 1229.498688
_symmetry_space_group_name_H-M "P N N A"
_symmetry_group_IT_number 52
_symmetry_cell_setting 'orthorhombic'
loop_
_space_group_symop_operation_xyz
x,y,z
1/2-x,-y,z
x,1/2-y,1/2-z
1/2-x,1/2+y,1/2-z
-x,-y,-z
1/2+x,y,-z
-x,1/2+y,1/2+z
1/2+x,1/2-y,1/2+z
loop_
_atom_site_type_symbol
_atom_site_label
_atom_site_fract_x
_atom_site_fract_y
_atom_site_fract_z
Si Si1 0.820824 0.750000 0.750000
Si Si2 0.561375 0.902968 0.266042
Si Si3 0.101047 0.791521 0.944960
Si Si4 0.730676 0.941189 0.767831
O O1 0.940554 0.767196 0.967491
O O2 0.700273 0.705930 0.706858
O O3 0.584660 0.844861 0.191005
O O4 0.623748 0.916189 0.553117
O O5 0.390769 0.916340 0.242785
O O6 0.655578 0.934152 0.052608
O O7 0.174148 0.750000 0.750000
O O8 0.750000 0.000000 0.708147
#
# Coordination Sequence:
#
# PCOD9412610 Si02
#       4
#     4   8   8   8
#     4  10  24  42  66  94 142 180 230 284 346 406
#     4  12  26  44  76 106 143 189 237 294 366 424
#     4  10  26  41  68  97 142 179 234 283 347 425
#     4  12  26  49  74 107 144 187 243 301 357 423
#
# _framework density 22.773510000000002
#
# number of rings (size 3 to 8) (size 9 to 14) (size 15 to 20)
#    0.857    0.000    0.000    6.000   10.000    0.000 
#    0.000    0.000    0.000    0.000    0.000    0.000 
#    0.000    0.000    0.000    0.000    0.000    0.000 
#
# Total GULP energy -156061.786417 kJ/mol
# GULP energy per Si atom -5573.635229 kJ/mol
# Density = 2.272168 g / cm^3
# Si number density = 22.773510 Si / 1000 Ang^3
#
#
#
# Elastic Constant Matrix: (Units=GPa)
#
#
# Indices 1 2 3 4 5 6 
#
# 1 137.8543 -2.5165 -2.0860 0.0000 0.0000 0.0000
# 2 -2.5165 85.1662 16.8626 0.0000 0.0000 0.0000
# 3 -2.0860 16.8626 37.3942 0.0000 0.0000 0.0000
# 4 0.0000 0.0000 0.0000 31.5712 0.0000 0.0000
# 5 0.0000 0.0000 0.0000 0.0000 43.7311 0.0000
# 6 0.0000 0.0000 0.0000 0.0000 0.0000 11.4762
#
#
#
# Elastic Compliance Matrix: (Units=1/GPa)
#
#
# Indices 1 2 3 4 5 6 
#
# 1 0.007262 0.000148 0.000339 0.000000 0.000000 0.000000
# 2 0.000148 0.012896 -0.005807 0.000000 0.000000 0.000000
# 3 0.000339 -0.005807 0.029380 0.000000 0.000000 0.000000
# 4 0.000000 0.000000 0.000000 0.031674 0.000000 0.000000
# 5 0.000000 0.000000 0.000000 0.000000 0.022867 0.000000
# 6 0.000000 0.000000 0.000000 0.000000 0.000000 0.087137
#
#
# Mechanical properties :
#
#
# Convention : Reuss Voigt Hill
#
# Bulk Modulus (GPa) = 25.70994 31.65944 28.68469
# Shear Modulus (GPa) = 23.27502 33.89935 28.58719
#
# Velocity S-wave (km/s) = 3.20038 3.86235 3.54684
# Velocity P-wave (km/s) = 4.99704 5.81570 5.42185
#
# Compressibility (1/GPa) = 0.03889546
#
# Stress axis : x y z
#
# Youngs Moduli (GPa) = 137.70592 77.54420 34.03720
#
# Poissons Ratio (x) = -0.01144 -0.01152
# Poissons Ratio (y) = -0.02032 0.19766
# Poissons Ratio (z) = -0.04662 0.45030
#
# Static dielectric constant tensor:
#      x y z
#    x 1.807160 0.000000 0.000000 
#    y 0.000000 1.840520 0.000000 
#    z 0.000000 0.000000 2.039580 
# 
# From -- ./inp_files/353.got.cif
#   From: 2010.05.17/outbox.cif.g08.bks.cpg/sg52_1_cif.got.tgz:353.got - 2010.06.03 12:15:38.
