data_PCOD9412241
_publ_section_title
;
Structure prediction by ZEFSAII (Michael W. Deem and Ramdas Pophale) SiO2 
 PCOD9412241
Probable space group: P N N A
;
_chemical_formula_sum "Si O2"
_cell_formula_units_Z 40
_cell_length_a 5.216366
_cell_length_b 16.493325
_cell_length_c 25.514058
_cell_angle_alpha 90.000000
_cell_angle_beta 90.000000
_cell_angle_gamma 90.000000
_cell_volume 2195.107587
_symmetry_space_group_name_H-M "P N N A"
_symmetry_group_IT_number 52
_symmetry_cell_setting 'orthorhombic'
loop_
_space_group_symop_operation_xyz
x,y,z
1/2-x,-y,z
x,1/2-y,1/2-z
1/2-x,1/2+y,1/2-z
-x,-y,-z
1/2+x,y,-z
-x,1/2+y,1/2+z
1/2+x,1/2-y,1/2+z
loop_
_atom_site_type_symbol
_atom_site_label
_atom_site_fract_x
_atom_site_fract_y
_atom_site_fract_z
Si Si1 0.047426 0.093149 0.479542
Si Si2 0.761529 0.344616 0.869561
Si Si3 0.677784 0.410258 0.290468
Si Si4 0.316804 0.804997 0.196469
Si Si5 0.232218 0.912793 0.668798
O O1 0.263039 0.128904 0.518015
O O2 0.170923 0.113238 0.423461
O O3 0.000000 0.000000 0.500000
O O4 0.702743 0.252202 0.854695
O O5 0.564546 0.389024 0.829593
O O6 0.062071 0.357094 0.860152
O O7 0.750000 0.500000 0.310949
O O8 0.408319 0.371349 0.306501
O O9 0.665386 0.417969 0.227513
O O10 0.907862 0.347736 0.301512
O O11 0.281737 0.750000 0.250000
O O12 0.250000 0.000000 0.641846
#
# Coordination Sequence:
#
# PCOD9412241 Si02
#       5
#     8   8   8   8   8
#     4  10  23  39  54  75 110 152 199 247 283 330
#     4  12  23  35  57  80 107 157 200 246 293 333
#     4  11  22  38  54  80 119 157 187 239 293 355
#     4  12  21  37  56  84 118 148 199 250 292 348
#     4  11  22  32  51  80 111 149 202 232 278 347
#
# _framework density 18.222342000000001
#
# number of rings (size 3 to 8) (size 9 to 14) (size 15 to 20)
#    0.000    0.800    4.000    4.200    8.400    3.200 
#    0.000    0.000    0.000    0.000    0.000    0.000 
#    0.000   16.000    0.000    0.000    0.000    0.000 
#
# Total GULP energy -222810.591895 kJ/mol
# GULP energy per Si atom -5570.264797 kJ/mol
# Density = 1.818087 g / cm^3
# Si number density = 18.222342 Si / 1000 Ang^3
#
#
#
# Elastic Constant Matrix: (Units=GPa)
#
#
# Indices 1 2 3 4 5 6 
#
# 1 83.9865 -3.1113 2.1978 0.0000 0.0000 0.0000
# 2 -3.1113 52.9073 19.8051 0.0000 0.0000 0.0000
# 3 2.1978 19.8051 55.3695 0.0000 0.0000 0.0000
# 4 0.0000 0.0000 0.0000 21.3076 0.0000 0.0000
# 5 0.0000 0.0000 0.0000 0.0000 13.8923 0.0000
# 6 0.0000 0.0000 0.0000 0.0000 0.0000 33.3210
#
#
#
# Elastic Compliance Matrix: (Units=1/GPa)
#
#
# Indices 1 2 3 4 5 6 
#
# 1 0.011966 0.001018 -0.000839 0.000000 0.000000 0.000000
# 2 0.001018 0.021910 -0.007877 0.000000 0.000000 0.000000
# 3 -0.000839 -0.007877 0.020911 0.000000 0.000000 0.000000
# 4 0.000000 0.000000 0.000000 0.046932 0.000000 0.000000
# 5 0.000000 0.000000 0.000000 0.000000 0.071982 0.000000
# 6 0.000000 0.000000 0.000000 0.000000 0.000000 0.030011
#
#
# Mechanical properties :
#
#
# Convention : Reuss Voigt Hill
#
# Bulk Modulus (GPa) = 25.38695 25.56074 25.47385
# Shear Modulus (GPa) = 21.52950 25.26229 23.39590
#
# Velocity S-wave (km/s) = 3.44101 3.72739 3.58706
# Velocity P-wave (km/s) = 5.45430 5.70808 5.58263
#
# Compressibility (1/GPa) = 0.03939031
#
# Stress axis : x y z
#
# Youngs Moduli (GPa) = 83.56778 45.64215 47.82084
#
# Poissons Ratio (x) = -0.04645 0.04012
# Poissons Ratio (y) = -0.08505 0.37670
# Poissons Ratio (z) = 0.07012 0.35953
#
# Static dielectric constant tensor:
#      x y z
#    x 1.713970 0.000000 0.000000 
#    y 0.000000 1.704290 0.000000 
#    z 0.000000 0.000000 1.685100 
# 
# From -- ./inp_files/41591.got.cif
#   From: 2010.05.17/outbox.cif.g08.bks.cpg/sg52_21_cif.got.tgz:41591.got - 2010.06.03 12:15:38.
