data_PCOD9412797
_publ_section_title
;
Structure prediction by ZEFSAII (Michael W. Deem and Ramdas Pophale) SiO2 
 PCOD9412797
Probable space group: P N N A
;
_chemical_formula_sum "Si O2"
_cell_formula_units_Z 40
_cell_length_a 8.819613
_cell_length_b 15.997825
_cell_length_c 12.670146
_cell_angle_alpha 90.000000
_cell_angle_beta 90.000000
_cell_angle_gamma 90.000000
_cell_volume 1787.689503
_symmetry_space_group_name_H-M "P N N A"
_symmetry_group_IT_number 52
_symmetry_cell_setting 'orthorhombic'
loop_
_space_group_symop_operation_xyz
x,y,z
1/2-x,-y,z
x,1/2-y,1/2-z
1/2-x,1/2+y,1/2-z
-x,-y,-z
1/2+x,y,-z
-x,1/2+y,1/2+z
1/2+x,1/2-y,1/2+z
loop_
_atom_site_type_symbol
_atom_site_label
_atom_site_fract_x
_atom_site_fract_y
_atom_site_fract_z
Si Si1 0.320932 0.764483 0.422618
Si Si2 0.408042 0.250000 0.250000
Si Si3 0.750000 0.500000 0.205954
Si Si4 0.203334 0.908500 0.029632
Si Si5 0.663819 0.808812 0.356908
Si Si6 0.088980 0.102645 0.854284
O O1 0.197742 0.795457 0.337086
O O2 0.289917 0.664990 0.409694
O O3 0.490090 0.793281 0.395857
O O4 0.270644 0.783927 0.542840
O O5 0.518995 0.181634 0.201806
O O6 0.702936 0.591634 0.158280
O O7 0.897125 0.527247 0.273736
O O8 0.025560 0.906402 0.048863
O O9 0.250000 0.000000 0.063813
O O10 0.247308 0.894454 0.908330
O O11 0.678689 0.750000 0.250000
#
# Coordination Sequence:
#
# PCOD9412797 Si02
#       6
#     8   4   4   8   8   8
#     4  11  25  49  80 108 154 209 256 330 390 475
#     4  10  24  48  76 114 154 204 262 316 406 460
#     4  12  30  44  76 114 154 212 262 324 394 482
#     4  11  23  40  72 107 146 191 254 328 401 443
#     4  12  29  52  80 114 158 205 270 320 402 476
#     4  11  25  43  69 107 150 197 255 326 384 469
#
# _framework density 22.375250999999999
#
# number of rings (size 3 to 8) (size 9 to 14) (size 15 to 20)
#    0.000    0.800    2.000    4.200    9.800    0.800 
#    0.000    0.000    0.000    0.000    0.000    0.000 
#    0.000    0.000    0.000    0.000    0.000    0.000 
#
# Total GULP energy -222981.691209 kJ/mol
# GULP energy per Si atom -5574.542280 kJ/mol
# Density = 2.232432 g / cm^3
# Si number density = 22.375251 Si / 1000 Ang^3
#
#
#
# Elastic Constant Matrix: (Units=GPa)
#
#
# Indices 1 2 3 4 5 6 
#
# 1 152.1154 70.5885 77.3108 0.0000 0.0000 0.0000
# 2 70.5885 155.6140 65.1861 0.0000 0.0000 0.0000
# 3 77.3108 65.1861 136.5399 0.0000 0.0000 0.0000
# 4 0.0000 0.0000 0.0000 31.2302 0.0000 0.0000
# 5 0.0000 0.0000 0.0000 0.0000 31.0711 0.0000
# 6 0.0000 0.0000 0.0000 0.0000 0.0000 17.7633
#
#
#
# Elastic Compliance Matrix: (Units=1/GPa)
#
#
# Indices 1 2 3 4 5 6 
#
# 1 0.010078 -0.002726 -0.004405 0.000000 0.000000 0.000000
# 2 -0.002726 0.008770 -0.002643 0.000000 0.000000 0.000000
# 3 -0.004405 -0.002643 0.011080 0.000000 0.000000 0.000000
# 4 0.000000 0.000000 0.000000 0.032020 0.000000 0.000000
# 5 0.000000 0.000000 0.000000 0.000000 0.032184 0.000000
# 6 0.000000 0.000000 0.000000 0.000000 0.000000 0.056296
#
#
# Mechanical properties :
#
#
# Convention : Reuss Voigt Hill
#
# Bulk Modulus (GPa) = 96.34652 96.71558 96.53105
# Shear Modulus (GPa) = 28.82908 31.42516 30.12712
#
# Velocity S-wave (km/s) = 3.59337 3.75168 3.67338
# Velocity P-wave (km/s) = 7.76977 7.87940 7.82478
#
# Compressibility (1/GPa) = 0.01037920
#
# Stress axis : x y z
#
# Youngs Moduli (GPa) = 99.22970 114.02364 90.25495
#
# Poissons Ratio (x) = 0.31086 0.39753
# Poissons Ratio (y) = 0.27053 0.23857
# Poissons Ratio (z) = 0.43706 0.30140
#
# Static dielectric constant tensor:
#      x y z
#    x 1.883300 0.000000 0.000000 
#    y 0.000000 1.904310 0.000000 
#    z 0.000000 0.000000 1.912360 
# 
# From -- ./inp_files/16723.got.cif
#   From: 2010.05.17/outbox.cif.g08.bks.cpg/sg52_9_cif.got.tgz:16723.got - 2010.06.03 12:15:38.
