data_PCOD9412335
_publ_section_title
;
Structure prediction by ZEFSAII (Michael W. Deem and Ramdas Pophale) SiO2 
 PCOD9412335
Probable space group: P N N A
;
_chemical_formula_sum "Si O2"
_cell_formula_units_Z 24
_cell_length_a 11.805284
_cell_length_b 17.199722
_cell_length_c 4.858932
_cell_angle_alpha 90.000000
_cell_angle_beta 90.000000
_cell_angle_gamma 90.000000
_cell_volume 986.594495
_symmetry_space_group_name_H-M "P N N A"
_symmetry_group_IT_number 52
_symmetry_cell_setting 'orthorhombic'
loop_
_space_group_symop_operation_xyz
x,y,z
1/2-x,-y,z
x,1/2-y,1/2-z
1/2-x,1/2+y,1/2-z
-x,-y,-z
1/2+x,y,-z
-x,1/2+y,1/2+z
1/2+x,1/2-y,1/2+z
loop_
_atom_site_type_symbol
_atom_site_label
_atom_site_fract_x
_atom_site_fract_y
_atom_site_fract_z
Si Si1 0.180352 0.150956 0.417806
Si Si2 0.996322 0.750000 0.250000
Si Si3 0.175828 0.650203 0.570671
Si Si4 0.250000 0.000000 0.193893
O O1 0.215283 0.177852 0.112228
O O2 0.172806 0.057667 0.375366
O O3 0.076458 0.190911 0.563707
O O4 0.290175 0.161507 0.615246
O O5 0.070495 0.696326 0.453909
O O6 0.175586 0.559108 0.489448
#
# Coordination Sequence:
#
# PCOD9412335 Si02
#       4
#     8   4   8   4
#     4  10  23  42  66  92 132 166 210 266 312 379
#     4  12  24  40  70 100 124 170 218 258 328 370
#     4  10  23  42  66  92 132 166 210 266 312 379
#     4   8  22  46  62  88 140 166 198 278 306 380
#
# _framework density 24.326103
#
# number of rings (size 3 to 8) (size 9 to 14) (size 15 to 20)
#    2.000    0.000    0.000    3.000    0.000    6.667 
#    0.000    3.333    0.000    0.000    0.000    0.000 
#    0.000    0.000    0.000    0.000    0.000    0.000 
#
# Total GULP energy -134121.622229 kJ/mol
# GULP energy per Si atom -5588.400926 kJ/mol
# Density = 2.427074 g / cm^3
# Si number density = 24.326103 Si / 1000 Ang^3
#
#
#
# Elastic Constant Matrix: (Units=GPa)
#
#
# Indices 1 2 3 4 5 6 
#
# 1 85.9873 56.9243 23.0896 0.0000 0.0000 0.0000
# 2 56.9243 175.3559 37.0299 0.0000 0.0000 0.0000
# 3 23.0896 37.0299 118.1499 0.0000 0.0000 0.0000
# 4 0.0000 0.0000 0.0000 56.7591 0.0000 0.0000
# 5 0.0000 0.0000 0.0000 0.0000 106.2395 0.0000
# 6 0.0000 0.0000 0.0000 0.0000 0.0000 28.8663
#
#
#
# Elastic Compliance Matrix: (Units=1/GPa)
#
#
# Indices 1 2 3 4 5 6 
#
# 1 0.015061 -0.004570 -0.001511 0.000000 0.000000 0.000000
# 2 -0.004570 0.007494 -0.001455 0.000000 0.000000 0.000000
# 3 -0.001511 -0.001455 0.009215 0.000000 0.000000 0.000000
# 4 0.000000 0.000000 0.000000 0.017618 0.000000 0.000000
# 5 0.000000 0.000000 0.000000 0.000000 0.009413 0.000000
# 6 0.000000 0.000000 0.000000 0.000000 0.000000 0.034643
#
#
# Mechanical properties :
#
#
# Convention : Reuss Voigt Hill
#
# Bulk Modulus (GPa) = 59.89211 68.17563 64.03387
# Shear Modulus (GPa) = 43.82834 55.86961 49.84897
#
# Velocity S-wave (km/s) = 4.24925 4.79758 4.53172
# Velocity P-wave (km/s) = 6.98203 7.66653 7.33227
#
# Compressibility (1/GPa) = 0.01669669
#
# Stress axis : x y z
#
# Youngs Moduli (GPa) = 66.39800 133.44811 108.51540
#
# Poissons Ratio (x) = 0.60985 0.16396
# Poissons Ratio (y) = 0.30344 0.15794
# Poissons Ratio (z) = 0.10033 0.19423
#
# Static dielectric constant tensor:
#      x y z
#    x 1.936410 0.000000 0.000000 
#    y 0.000000 2.049330 0.000000 
#    z 0.000000 0.000000 1.902860 
# 
# From -- ./inp_files/824.got.cif
#   From: 2010.05.17/outbox.cif.g08.bks.cpg/sg52_1_cif.got.tgz:824.got - 2010.06.03 12:15:38.
