data_PCOD9412481
_publ_section_title
;
Structure prediction by ZEFSAII (Michael W. Deem and Ramdas Pophale) SiO2 
 PCOD9412481
Probable space group: P N N A
;
_chemical_formula_sum "Si O2"
_cell_formula_units_Z 56
_cell_length_a 19.914953
_cell_length_b 15.583046
_cell_length_c 8.921863
_cell_angle_alpha 90.000000
_cell_angle_beta 90.000000
_cell_angle_gamma 90.000000
_cell_volume 2768.771963
_symmetry_space_group_name_H-M "P N N A"
_symmetry_group_IT_number 52
_symmetry_cell_setting 'orthorhombic'
loop_
_space_group_symop_operation_xyz
x,y,z
1/2-x,-y,z
x,1/2-y,1/2-z
1/2-x,1/2+y,1/2-z
-x,-y,-z
1/2+x,y,-z
-x,1/2+y,1/2+z
1/2+x,1/2-y,1/2+z
loop_
_atom_site_type_symbol
_atom_site_label
_atom_site_fract_x
_atom_site_fract_y
_atom_site_fract_z
Si Si1 0.805733 0.167044 0.151392
Si Si2 0.561912 0.445414 0.936652
Si Si3 0.063894 0.500283 0.388532
Si Si4 0.839501 0.606181 0.423657
Si Si5 0.086173 0.805940 0.103413
Si Si6 0.442643 0.744479 0.930477
Si Si7 0.329293 0.492269 0.856699
O O1 0.786152 0.250000 0.250000
O O2 0.739148 0.126457 0.076492
O O3 0.837569 0.095845 0.263186
O O4 0.856629 0.193543 0.021508
O O5 0.553861 0.443741 0.758454
O O6 0.500000 0.500000 0.000000
O O7 0.565691 0.349877 0.003344
O O8 0.627507 0.496489 0.994624
O O9 0.130661 0.467863 0.471755
O O10 0.073643 0.597820 0.339937
O O11 0.000000 0.500000 0.500000
O O12 0.882947 0.689535 0.467190
O O13 0.851178 0.569237 0.255871
O O14 0.101369 0.750000 0.250000
O O15 0.016674 0.776674 0.025967
O O16 0.444423 0.750000 0.750000
O O17 0.250000 0.500000 0.886260
#
# Coordination Sequence:
#
# PCOD9412481 Si02
#       7
#     8   8   8   8   8   8   8
#     4  11  26  43  74 101 141 186 238 294 359 435
#     4  12  26  42  71 105 140 183 242 294 357 429
#     4  12  25  46  71 101 143 188 230 294 362 435
#     4  11  22  47  71  97 138 189 231 282 367 429
#     4  11  25  44  67 101 140 183 230 299 360 417
#     4  11  22  41  71 100 137 176 233 300 352 418
#     4  10  23  45  71 104 137 186 233 289 361 432
#
# _framework density 20.225574000000002
#
# number of rings (size 3 to 8) (size 9 to 14) (size 15 to 20)
#    0.000    0.857    4.286    3.000    6.000    0.571 
#    5.143    0.000    0.000    0.000    0.000    0.000 
#    0.000    0.000    0.000    0.000    0.000    0.000 
#
# Total GULP energy -312911.329544 kJ/mol
# GULP energy per Si atom -5587.702313 kJ/mol
# Density = 2.017954 g / cm^3
# Si number density = 20.225574 Si / 1000 Ang^3
#
#
#
# Elastic Constant Matrix: (Units=GPa)
#
#
# Indices 1 2 3 4 5 6 
#
# 1 87.5430 42.0359 49.0410 0.0000 0.0000 0.0000
# 2 42.0359 132.7492 38.5060 0.0000 0.0000 0.0000
# 3 49.0410 38.5060 98.7524 0.0000 0.0000 0.0000
# 4 0.0000 0.0000 0.0000 21.7238 0.0000 0.0000
# 5 0.0000 0.0000 0.0000 0.0000 31.6641 0.0000
# 6 0.0000 0.0000 0.0000 0.0000 0.0000 25.4829
#
#
#
# Elastic Compliance Matrix: (Units=1/GPa)
#
#
# Indices 1 2 3 4 5 6 
#
# 1 0.017027 -0.003314 -0.007164 0.000000 0.000000 0.000000
# 2 -0.003314 0.009139 -0.001918 0.000000 0.000000 0.000000
# 3 -0.007164 -0.001918 0.014432 0.000000 0.000000 0.000000
# 4 0.000000 0.000000 0.000000 0.046032 0.000000 0.000000
# 5 0.000000 0.000000 0.000000 0.000000 0.031581 0.000000
# 6 0.000000 0.000000 0.000000 0.000000 0.000000 0.039242
#
#
# Mechanical properties :
#
#
# Convention : Reuss Voigt Hill
#
# Bulk Modulus (GPa) = 63.26300 64.24561 63.75430
# Shear Modulus (GPa) = 26.66483 28.40492 27.53488
#
# Velocity S-wave (km/s) = 3.63488 3.75161 3.69370
# Velocity P-wave (km/s) = 6.99736 7.11334 7.05559
#
# Compressibility (1/GPa) = 0.01580703
#
# Stress axis : x y z
#
# Youngs Moduli (GPa) = 58.72944 109.42575 69.29226
#
# Poissons Ratio (x) = 0.36262 0.49639
# Poissons Ratio (y) = 0.19462 0.13288
# Poissons Ratio (z) = 0.42072 0.20985
#
# Static dielectric constant tensor:
#      x y z
#    x 1.718010 0.000000 0.000000 
#    y 0.000000 1.743050 0.000000 
#    z 0.000000 0.000000 1.712040 
# 
# From -- ./inp_files/13458.got.cif
#   From: 2010.05.17/outbox.cif.g08.bks.cpg/sg52_7_cif.got.tgz:13458.got - 2010.06.03 12:15:38.
