data_PCOD9412347
_publ_section_title
;
Structure prediction by ZEFSAII (Michael W. Deem and Ramdas Pophale) SiO2 
 PCOD9412347
Probable space group: P N N A
;
_chemical_formula_sum "Si O2"
_cell_formula_units_Z 60
_cell_length_a 26.771883
_cell_length_b 9.061550
_cell_length_c 12.385316
_cell_angle_alpha 90.000000
_cell_angle_beta 90.000000
_cell_angle_gamma 90.000000
_cell_volume 3004.612718
_symmetry_space_group_name_H-M "P N N A"
_symmetry_group_IT_number 52
_symmetry_cell_setting 'orthorhombic'
loop_
_space_group_symop_operation_xyz
x,y,z
1/2-x,-y,z
x,1/2-y,1/2-z
1/2-x,1/2+y,1/2-z
-x,-y,-z
1/2+x,y,-z
-x,1/2+y,1/2+z
1/2+x,1/2-y,1/2+z
loop_
_atom_site_type_symbol
_atom_site_label
_atom_site_fract_x
_atom_site_fract_y
_atom_site_fract_z
Si Si1 0.614999 0.068800 0.862058
Si Si2 0.998189 0.126097 0.654302
Si Si3 0.874333 0.209744 0.127577
Si Si4 0.826785 0.750000 0.250000
Si Si5 0.959088 0.125558 0.990552
Si Si6 0.411362 0.613563 0.141064
Si Si7 0.608991 0.463335 0.098274
Si Si8 0.195333 0.049684 0.952964
O O1 0.578281 0.211004 0.857709
O O2 0.627701 0.064577 0.735001
O O3 0.583357 0.930149 0.905554
O O4 0.660263 0.096649 0.945528
O O5 0.998248 0.250000 0.750000
O O6 0.983450 0.223510 0.549724
O O7 0.052261 0.053508 0.640422
O O8 0.957673 0.995907 0.661434
O O9 0.868497 0.250000 0.250000
O O10 0.873471 0.370560 0.075875
O O11 0.833343 0.094219 0.091387
O O12 0.928413 0.142248 0.100532
O O13 0.859006 0.626270 0.186362
O O14 0.800936 0.835924 0.148714
O O15 0.000000 0.000000 0.000000
O O16 0.390418 0.600838 0.021134
O O17 0.250000 0.000000 0.988611
#
# Coordination Sequence:
#
# PCOD9412347 Si02
#       8
#     8   8   8   4   8   8   8   8
#     4  10  23  42  67  94 131 177 220 276 335 386
#     4  12  24  38  58  96 138 190 229 268 315 383
#     4  11  25  41  63  95 128 171 220 280 336 396
#     4  12  24  42  72  96 132 172 206 286 340 396
#     4  11  24  38  57  89 136 176 224 263 320 384
#     4  11  22  41  66  93 134 185 230 266 318 393
#     4  12  24  41  61  95 141 176 228 266 327 391
#     4  11  26  48  74  99 129 166 217 286 356 413
#
# _framework density 19.969294999999999
#
# number of rings (size 3 to 8) (size 9 to 14) (size 15 to 20)
#    0.000    0.800    6.000    1.200    6.533    0.000 
#    0.000    0.000    5.867    0.000    0.000    0.000 
#    0.000    0.000    0.000    0.000    0.000    0.000 
#
# Total GULP energy -334539.388236 kJ/mol
# GULP energy per Si atom -5575.656471 kJ/mol
# Density = 1.992384 g / cm^3
# Si number density = 19.969295 Si / 1000 Ang^3
#
#
#
# Elastic Constant Matrix: (Units=GPa)
#
#
# Indices 1 2 3 4 5 6 
#
# 1 63.4532 30.0584 20.6558 0.0000 0.0000 0.0000
# 2 30.0584 91.9266 -0.7332 0.0000 0.0000 0.0000
# 3 20.6558 -0.7332 92.4802 0.0000 0.0000 0.0000
# 4 0.0000 0.0000 0.0000 33.5445 0.0000 0.0000
# 5 0.0000 0.0000 0.0000 0.0000 8.8222 0.0000
# 6 0.0000 0.0000 0.0000 0.0000 0.0000 16.3413
#
#
#
# Elastic Compliance Matrix: (Units=1/GPa)
#
#
# Indices 1 2 3 4 5 6 
#
# 1 0.020449 -0.006723 -0.004621 0.000000 0.000000 0.000000
# 2 -0.006723 0.013089 0.001605 0.000000 0.000000 0.000000
# 3 -0.004621 0.001605 0.011858 0.000000 0.000000 0.000000
# 4 0.000000 0.000000 0.000000 0.029811 0.000000 0.000000
# 5 0.000000 0.000000 0.000000 0.000000 0.113350 0.000000
# 6 0.000000 0.000000 0.000000 0.000000 0.000000 0.061195
#
#
# Mechanical properties :
#
#
# Convention : Reuss Voigt Hill
#
# Bulk Modulus (GPa) = 38.58139 38.64687 38.61413
# Shear Modulus (GPa) = 17.99416 24.93356 21.46386
#
# Velocity S-wave (km/s) = 3.00507 3.53738 3.28204
# Velocity P-wave (km/s) = 5.60383 6.00660 5.80871
#
# Compressibility (1/GPa) = 0.02591923
#
# Stress axis : x y z
#
# Youngs Moduli (GPa) = 48.90310 76.39769 84.33212
#
# Poissons Ratio (x) = 0.51364 0.38966
# Poissons Ratio (y) = 0.32878 -0.13539
# Poissons Ratio (z) = 0.22596 -0.12265
#
# Static dielectric constant tensor:
#      x y z
#    x 1.668810 0.000000 0.000000 
#    y 0.000000 1.667940 0.000000 
#    z 0.000000 0.000000 1.769150 
# 
# From -- ./inp_files/22910.got.cif
#   From: 2010.05.17/outbox.cif.g08.bks.cpg/sg52_12_cif.got.tgz:22910.got - 2010.06.03 12:15:38.
