data_PCOD9412215
_publ_section_title
;
Structure prediction by ZEFSAII (Michael W. Deem and Ramdas Pophale) SiO2 
 PCOD9412215
Probable space group: P N N A
;
_chemical_formula_sum "Si O2"
_cell_formula_units_Z 60
_cell_length_a 17.528185
_cell_length_b 10.195838
_cell_length_c 15.663995
_cell_angle_alpha 90.000000
_cell_angle_beta 90.000000
_cell_angle_gamma 90.000000
_cell_volume 2799.383578
_symmetry_space_group_name_H-M "P N N A"
_symmetry_group_IT_number 52
_symmetry_cell_setting 'orthorhombic'
loop_
_space_group_symop_operation_xyz
x,y,z
1/2-x,-y,z
x,1/2-y,1/2-z
1/2-x,1/2+y,1/2-z
-x,-y,-z
1/2+x,y,-z
-x,1/2+y,1/2+z
1/2+x,1/2-y,1/2+z
loop_
_atom_site_type_symbol
_atom_site_label
_atom_site_fract_x
_atom_site_fract_y
_atom_site_fract_z
Si Si1 0.815971 0.153089 0.130093
Si Si2 0.833238 0.684680 0.489076
Si Si3 0.898355 0.198910 0.623793
Si Si4 0.326916 0.061149 0.677186
Si Si5 0.583815 0.941826 0.997603
Si Si6 0.426407 0.688650 0.836553
Si Si7 0.321692 0.922916 0.380266
Si Si8 0.761227 0.250000 0.750000
O O1 0.743558 0.154705 0.065830
O O2 0.804712 0.100932 0.225600
O O3 0.843678 0.301843 0.134000
O O4 0.884051 0.068499 0.092698
O O5 0.860933 0.554747 0.538777
O O6 0.892833 0.735379 0.417748
O O7 0.832454 0.799540 0.558696
O O8 0.907075 0.299578 0.544726
O O9 0.824510 0.259102 0.673661
O O10 0.982704 0.202544 0.663967
O O11 0.882624 0.041531 0.618012
O O12 0.250000 0.000000 0.638658
O O13 0.394831 0.959249 0.665045
O O14 0.500000 0.000000 0.000000
O O15 0.393122 0.750000 0.750000
O O16 0.294368 0.864589 0.287551
O O17 0.250000 0.000000 0.417361
#
# Coordination Sequence:
#
# PCOD9412215 Si02
#       8
#     8   8   8   8   8   8   8   4
#     4  11  24  41  64  98 136 182 231 285 347 426
#     4  12  25  44  70 104 143 183 238 291 365 437
#     4  11  25  45  75 102 141 189 238 299 369 436
#     4  11  23  39  66  98 134 180 232 288 342 423
#     4  12  26  43  65  97 142 188 231 298 353 430
#     4  12  24  42  69 100 140 190 232 293 363 429
#     4  10  25  45  74 108 135 185 241 303 361 430
#     4  10  22  48  72 104 140 180 246 308 358 432
#
# _framework density 21.43329
#
# number of rings (size 3 to 8) (size 9 to 14) (size 15 to 20)
#    0.000    0.800    3.333    4.400    3.733    4.800 
#    0.000    1.333    0.000    0.000    0.000    0.000 
#    0.000    0.000    0.000    0.000    0.000    0.000 
#
# Total GULP energy -334371.477125 kJ/mol
# GULP energy per Si atom -5572.857952 kJ/mol
# Density = 2.138451 g / cm^3
# Si number density = 21.433290 Si / 1000 Ang^3
#
#
#
# Elastic Constant Matrix: (Units=GPa)
#
#
# Indices 1 2 3 4 5 6 
#
# 1 91.4815 44.3110 36.1163 0.0000 0.0000 0.0000
# 2 44.3110 156.3051 44.7296 0.0000 0.0000 0.0000
# 3 36.1163 44.7296 61.3954 0.0000 0.0000 0.0000
# 4 0.0000 0.0000 0.0000 32.6501 0.0000 0.0000
# 5 0.0000 0.0000 0.0000 0.0000 15.3536 0.0000
# 6 0.0000 0.0000 0.0000 0.0000 0.0000 39.4185
#
#
#
# Elastic Compliance Matrix: (Units=1/GPa)
#
#
# Indices 1 2 3 4 5 6 
#
# 1 0.014789 -0.002152 -0.007132 0.000000 0.000000 0.000000
# 2 -0.002152 0.008396 -0.004851 0.000000 0.000000 0.000000
# 3 -0.007132 -0.004851 0.024018 0.000000 0.000000 0.000000
# 4 0.000000 0.000000 0.000000 0.030628 0.000000 0.000000
# 5 0.000000 0.000000 0.000000 0.000000 0.065131 0.000000
# 6 0.000000 0.000000 0.000000 0.000000 0.000000 0.025369
#
#
# Mechanical properties :
#
#
# Convention : Reuss Voigt Hill
#
# Bulk Modulus (GPa) = 52.81836 62.16621 57.49228
# Shear Modulus (GPa) = 24.64124 29.75278 27.19701
#
# Velocity S-wave (km/s) = 3.39436 3.72984 3.56605
# Velocity P-wave (km/s) = 6.32921 6.90047 6.62100
#
# Compressibility (1/GPa) = 0.01893281
#
# Stress axis : x y z
#
# Youngs Moduli (GPa) = 67.61741 119.10510 41.63569
#
# Poissons Ratio (x) = 0.25626 0.29696
# Poissons Ratio (y) = 0.14548 0.20198
# Poissons Ratio (z) = 0.48227 0.57780
#
# Static dielectric constant tensor:
#      x y z
#    x 1.784790 0.000000 0.000000 
#    y 0.000000 1.885520 0.000000 
#    z 0.000000 0.000000 1.806910 
# 
# From -- ./inp_files/33783.got.cif
#   From: 2010.05.17/outbox.cif.g08.bks.cpg/sg52_17_cif.got.tgz:33783.got - 2010.06.03 12:15:38.
