data_PCOD9412301
_publ_section_title
;
Structure prediction by ZEFSAII (Michael W. Deem and Ramdas Pophale) SiO2 
 PCOD9412301
Probable space group: P N N A
;
_chemical_formula_sum "Si O2"
_cell_formula_units_Z 24
_cell_length_a 8.923987
_cell_length_b 5.126767
_cell_length_c 23.483534
_cell_angle_alpha 90.000000
_cell_angle_beta 90.000000
_cell_angle_gamma 90.000000
_cell_volume 1074.399909
_symmetry_space_group_name_H-M "P N N A"
_symmetry_group_IT_number 52
_symmetry_cell_setting 'orthorhombic'
loop_
_space_group_symop_operation_xyz
x,y,z
1/2-x,-y,z
x,1/2-y,1/2-z
1/2-x,1/2+y,1/2-z
-x,-y,-z
1/2+x,y,-z
-x,1/2+y,1/2+z
1/2+x,1/2-y,1/2+z
loop_
_atom_site_type_symbol
_atom_site_label
_atom_site_fract_x
_atom_site_fract_y
_atom_site_fract_z
Si Si1 0.854880 0.255537 0.531711
Si Si2 0.644300 0.250663 0.684217
Si Si3 0.082266 0.582416 0.908792
O O1 0.750000 0.500000 0.544365
O O2 0.911343 0.257095 0.466359
O O3 0.750000 0.000000 0.534662
O O4 0.991284 0.177905 0.572485
O O5 0.750000 0.500000 0.675437
O O6 0.592754 0.250000 0.750000
O O7 0.507877 0.224434 0.640791
O O8 0.750000 0.000000 0.675945
O O9 0.250000 0.500000 0.893157
#
# Coordination Sequence:
#
# PCOD9412301 Si02
#       3
#     8   8   8
#     4  10  23  42  63  93 136 181 215 253 325 405
#     4  10  23  45  70  94 126 175 225 268 328 399
#     4  10  23  41  68 100 132 169 220 278 325 378
#
# _framework density 22.338052999999999
#
# number of rings (size 3 to 8) (size 9 to 14) (size 15 to 20)
#    0.000    2.000    0.000    1.000    0.000   24.000 
#    0.000    6.667    0.000    0.000    0.000    0.000 
#    0.000    0.000    0.000    0.000    0.000    0.000 
#
# Total GULP energy -134520.698294 kJ/mol
# GULP energy per Si atom -5605.029096 kJ/mol
# Density = 2.228721 g / cm^3
# Si number density = 22.338053 Si / 1000 Ang^3
#
#
#
# Elastic Constant Matrix: (Units=GPa)
#
#
# Indices 1 2 3 4 5 6 
#
# 1 200.2230 74.7393 109.9033 0.0000 0.0000 0.0000
# 2 74.7393 172.4421 52.3705 0.0000 0.0000 0.0000
# 3 109.9033 52.3705 190.1439 0.0000 0.0000 0.0000
# 4 0.0000 0.0000 0.0000 70.3053 0.0000 0.0000
# 5 0.0000 0.0000 0.0000 0.0000 83.4932 0.0000
# 6 0.0000 0.0000 0.0000 0.0000 0.0000 37.7555
#
#
#
# Elastic Compliance Matrix: (Units=1/GPa)
#
#
# Indices 1 2 3 4 5 6 
#
# 1 0.008053 -0.002266 -0.004030 0.000000 0.000000 0.000000
# 2 -0.002266 0.006966 -0.000609 0.000000 0.000000 0.000000
# 3 -0.004030 -0.000609 0.007756 0.000000 0.000000 0.000000
# 4 0.000000 0.000000 0.000000 0.014224 0.000000 0.000000
# 5 0.000000 0.000000 0.000000 0.000000 0.011977 0.000000
# 6 0.000000 0.000000 0.000000 0.000000 0.000000 0.026486
#
#
# Mechanical properties :
#
#
# Convention : Reuss Voigt Hill
#
# Bulk Modulus (GPa) = 111.54936 115.20392 113.37664
# Shear Modulus (GPa) = 54.19441 60.03054 57.11247
#
# Velocity S-wave (km/s) = 4.93089 5.18961 5.06190
# Velocity P-wave (km/s) = 9.08095 9.35918 9.22111
#
# Compressibility (1/GPa) = 0.00896464
#
# Stress axis : x y z
#
# Youngs Moduli (GPa) = 124.18444 143.55172 128.92699
#
# Poissons Ratio (x) = 0.32531 0.51960
# Poissons Ratio (y) = 0.28142 0.07849
# Poissons Ratio (z) = 0.50049 0.08740
#
# Static dielectric constant tensor:
#      x y z
#    x 1.818650 0.000000 0.000000 
#    y 0.000000 1.842300 0.000000 
#    z 0.000000 0.000000 1.877020 
# 
# From -- ./inp_files/41905.got.cif
#   From: 2010.05.17/outbox.cif.g08.bks.cpg/sg52_21_cif.got.tgz:41905.got - 2010.06.03 12:15:38.
