data_PCOD9412776
_publ_section_title
;
Structure prediction by ZEFSAII (Michael W. Deem and Ramdas Pophale) SiO2 
 PCOD9412776
Probable space group: P N N A
;
_chemical_formula_sum "Si O2"
_cell_formula_units_Z 40
_cell_length_a 25.352220
_cell_length_b 11.667992
_cell_length_c 5.898187
_cell_angle_alpha 90.000000
_cell_angle_beta 90.000000
_cell_angle_gamma 90.000000
_cell_volume 1744.739748
_symmetry_space_group_name_H-M "P N N A"
_symmetry_group_IT_number 52
_symmetry_cell_setting 'orthorhombic'
loop_
_space_group_symop_operation_xyz
x,y,z
1/2-x,-y,z
x,1/2-y,1/2-z
1/2-x,1/2+y,1/2-z
-x,-y,-z
1/2+x,y,-z
-x,1/2+y,1/2+z
1/2+x,1/2-y,1/2+z
loop_
_atom_site_type_symbol
_atom_site_label
_atom_site_fract_x
_atom_site_fract_y
_atom_site_fract_z
Si Si1 0.895562 0.750000 0.250000
Si Si2 0.364941 0.250000 0.250000
Si Si3 0.250000 0.000000 0.763465
Si Si4 0.299813 0.821572 0.452784
Si Si5 0.661196 0.516207 0.636213
Si Si6 0.055245 0.005569 0.871390
Si Si7 0.920307 0.250000 0.250000
O O1 0.851477 0.755109 0.450837
O O2 0.930372 0.868737 0.244311
O O3 0.331607 0.362988 0.249159
O O4 0.394192 0.253637 0.496560
O O5 0.239346 0.119454 0.631547
O O6 0.301229 0.009876 0.920035
O O7 0.275006 0.750000 0.250000
O O8 0.324087 0.929331 0.327945
O O9 0.601806 0.500859 0.555320
O O10 0.056416 0.882138 0.739360
O O11 0.000000 0.000000 0.000000
#
# Coordination Sequence:
#
# PCOD9412776 Si02
#       7
#     4   4   4   8   8   8   4
#     4  12  24  49  81 114 166 205 277 350 416 528
#     4  10  24  47  78 103 158 207 265 334 412 502
#     4  12  26  50  74 114 156 206 272 340 432 504
#     4  12  24  48  78 111 156 209 274 344 424 517
#     4  11  25  50  70 111 151 211 263 337 419 507
#     4  11  25  48  82 118 158 220 278 354 429 507
#     4  10  24  50  77 115 162 212 276 350 424 502
#
# _framework density 22.926058000000001
#
# number of rings (size 3 to 8) (size 9 to 14) (size 15 to 20)
#    0.000    0.800    4.000    1.800    2.800    4.800 
#   18.000    6.000    0.000    0.000    0.000    0.000 
#    0.000    0.000    0.000    0.000    0.000    0.000 
#
# Total GULP energy -222787.452502 kJ/mol
# GULP energy per Si atom -5569.686313 kJ/mol
# Density = 2.287388 g / cm^3
# Si number density = 22.926058 Si / 1000 Ang^3
#
#
#
# Elastic Constant Matrix: (Units=GPa)
#
#
# Indices 1 2 3 4 5 6 
#
# 1 134.6483 26.6760 38.8251 0.0000 0.0000 0.0000
# 2 26.6760 177.0300 30.3515 0.0000 0.0000 0.0000
# 3 38.8251 30.3515 100.7936 0.0000 0.0000 0.0000
# 4 0.0000 0.0000 0.0000 66.7382 0.0000 0.0000
# 5 0.0000 0.0000 0.0000 0.0000 32.2325 0.0000
# 6 0.0000 0.0000 0.0000 0.0000 0.0000 26.0354
#
#
#
# Elastic Compliance Matrix: (Units=1/GPa)
#
#
# Indices 1 2 3 4 5 6 
#
# 1 0.008449 -0.000754 -0.003027 0.000000 0.000000 0.000000
# 2 -0.000754 0.006024 -0.001523 0.000000 0.000000 0.000000
# 3 -0.003027 -0.001523 0.011546 0.000000 0.000000 0.000000
# 4 0.000000 0.000000 0.000000 0.014984 0.000000 0.000000
# 5 0.000000 0.000000 0.000000 0.000000 0.031025 0.000000
# 6 0.000000 0.000000 0.000000 0.000000 0.000000 0.038409
#
#
# Mechanical properties :
#
#
# Convention : Reuss Voigt Hill
#
# Bulk Modulus (GPa) = 64.89738 67.13078 66.01408
# Shear Modulus (GPa) = 39.62507 46.10918 42.86712
#
# Velocity S-wave (km/s) = 4.16190 4.48952 4.32881
# Velocity P-wave (km/s) = 7.17383 7.49796 7.33769
#
# Compressibility (1/GPa) = 0.01540894
#
# Stress axis : x y z
#
# Youngs Moduli (GPa) = 118.35566 166.01445 86.60889
#
# Poissons Ratio (x) = 0.12519 0.26221
# Poissons Ratio (y) = 0.08925 0.13194
# Poissons Ratio (z) = 0.35832 0.25290
#
# Static dielectric constant tensor:
#      x y z
#    x 1.818380 0.000000 0.000000 
#    y 0.000000 1.944090 0.000000 
#    z 0.000000 0.000000 1.919670 
# 
# From -- ./inp_files/5670.got.cif
#   From: 2010.05.17/outbox.cif.g08.bks.cpg/sg52_3_cif.got.tgz:5670.got - 2010.06.03 12:15:38.
