data_PCOD9412541
_publ_section_title
;
Structure prediction by ZEFSAII (Michael W. Deem and Ramdas Pophale) SiO2 
 PCOD9412541
Probable space group: P N N A
;
_chemical_formula_sum "Si O2"
_cell_formula_units_Z 28
_cell_length_a 8.892764
_cell_length_b 9.048969
_cell_length_c 16.793194
_cell_angle_alpha 90.000000
_cell_angle_beta 90.000000
_cell_angle_gamma 90.000000
_cell_volume 1351.354128
_symmetry_space_group_name_H-M "P N N A"
_symmetry_group_IT_number 52
_symmetry_cell_setting 'orthorhombic'
loop_
_space_group_symop_operation_xyz
x,y,z
1/2-x,-y,z
x,1/2-y,1/2-z
1/2-x,1/2+y,1/2-z
-x,-y,-z
1/2+x,y,-z
-x,1/2+y,1/2+z
1/2+x,1/2-y,1/2+z
loop_
_atom_site_type_symbol
_atom_site_label
_atom_site_fract_x
_atom_site_fract_y
_atom_site_fract_z
Si Si1 0.073731 0.961741 0.415798
Si Si2 0.000726 0.125936 0.891771
Si Si3 0.415798 0.925658 0.255579
Si Si4 0.250000 0.500000 0.510593
O O1 0.046724 0.795522 0.384157
O O2 0.250000 0.000000 0.424298
O O3 0.010017 0.054793 0.342051
O O4 0.000000 0.000000 0.500000
O O5 0.163174 0.115201 0.933386
O O6 0.995827 0.017568 0.815235
O O7 0.875980 0.066398 0.953466
O O8 0.398982 0.750000 0.250000
O O9 0.250000 0.000000 0.256765
#
# Coordination Sequence:
#
# PCOD9412541 Si02
#       4
#     8   8   8   4
#     4  11  24  41  67  96 129 169 216 269 326 388
#     4  11  22  43  64  98 127 171 214 269 323 395
#     4  11  23  40  64  94 128 170 215 263 323 391
#     4  10  24  36  72  90 132 162 218 262 330 374
#
# _framework density 20.719957999999998
#
# number of rings (size 3 to 8) (size 9 to 14) (size 15 to 20)
#    0.000    1.143    1.429    6.000    8.000    0.000 
#    2.571    0.000    0.000    0.000    0.000    0.000 
#    0.000    0.000    0.000    0.000    0.000    0.000 
#
# Total GULP energy -156183.187069 kJ/mol
# GULP energy per Si atom -5577.970967 kJ/mol
# Density = 2.067280 g / cm^3
# Si number density = 20.719958 Si / 1000 Ang^3
#
#
#
# Elastic Constant Matrix: (Units=GPa)
#
#
# Indices 1 2 3 4 5 6 
#
# 1 54.6754 11.2408 36.4148 0.0000 0.0000 0.0000
# 2 11.2408 176.7228 67.3529 0.0000 0.0000 0.0000
# 3 36.4148 67.3529 174.4541 0.0000 0.0000 0.0000
# 4 0.0000 0.0000 0.0000 42.2481 0.0000 0.0000
# 5 0.0000 0.0000 0.0000 0.0000 18.2616 0.0000
# 6 0.0000 0.0000 0.0000 0.0000 0.0000 25.5029
#
#
#
# Elastic Compliance Matrix: (Units=1/GPa)
#
#
# Indices 1 2 3 4 5 6 
#
# 1 0.021267 0.000398 -0.004593 0.000000 0.000000 0.000000
# 2 0.000398 0.006642 -0.002647 0.000000 0.000000 0.000000
# 3 -0.004593 -0.002647 0.007713 0.000000 0.000000 0.000000
# 4 0.000000 0.000000 0.000000 0.023670 0.000000 0.000000
# 5 0.000000 0.000000 0.000000 0.000000 0.054760 0.000000
# 6 0.000000 0.000000 0.000000 0.000000 0.000000 0.039211
#
#
# Mechanical properties :
#
#
# Convention : Reuss Voigt Hill
#
# Bulk Modulus (GPa) = 45.58488 70.65215 58.11852
# Shear Modulus (GPa) = 28.69279 36.59212 32.64245
#
# Velocity S-wave (km/s) = 3.72531 4.20698 3.97345
# Velocity P-wave (km/s) = 6.36806 7.60071 7.01153
#
# Compressibility (1/GPa) = 0.02193710
#
# Stress axis : x y z
#
# Youngs Moduli (GPa) = 47.02169 150.55061 129.65228
#
# Poissons Ratio (x) = -0.05987 0.59545
# Poissons Ratio (y) = -0.01870 0.34325
# Poissons Ratio (z) = 0.21595 0.39857
#
# Static dielectric constant tensor:
#      x y z
#    x 1.632720 0.000000 0.000000 
#    y 0.000000 1.843300 0.000000 
#    z 0.000000 0.000000 1.805990 
# 
# From -- ./inp_files/30648.got.cif
#   From: 2010.05.17/outbox.cif.g08.bks.cpg/sg52_16_cif.got.tgz:30648.got - 2010.06.03 12:15:38.
