data_PCOD9412405
_publ_section_title
;
Structure prediction by ZEFSAII (Michael W. Deem and Ramdas Pophale) SiO2 
 PCOD9412405
Probable space group: P N N A
;
_chemical_formula_sum "Si O2"
_cell_formula_units_Z 32
_cell_length_a 10.928034
_cell_length_b 12.036520
_cell_length_c 10.378684
_cell_angle_alpha 90.000000
_cell_angle_beta 90.000000
_cell_angle_gamma 90.000000
_cell_volume 1365.165387
_symmetry_space_group_name_H-M "P N N A"
_symmetry_group_IT_number 52
_symmetry_cell_setting 'orthorhombic'
loop_
_space_group_symop_operation_xyz
x,y,z
1/2-x,-y,z
x,1/2-y,1/2-z
1/2-x,1/2+y,1/2-z
-x,-y,-z
1/2+x,y,-z
-x,1/2+y,1/2+z
1/2+x,1/2-y,1/2+z
loop_
_atom_site_type_symbol
_atom_site_label
_atom_site_fract_x
_atom_site_fract_y
_atom_site_fract_z
Si Si1 0.984383 0.121042 0.226725
Si Si2 0.250000 0.000000 0.818725
Si Si3 0.300080 0.615792 0.076257
Si Si4 0.085641 0.327108 0.549950
Si Si5 0.106639 0.750000 0.250000
O O1 0.953190 0.250000 0.250000
O O2 0.095856 0.089341 0.318346
O O3 0.867240 0.046956 0.253690
O O4 0.028844 0.119934 0.079045
O O5 0.199219 0.099953 0.905102
O O6 0.250000 0.500000 0.023432
O O7 0.193422 0.680125 0.154369
O O8 0.363461 0.703421 0.980016
O O9 0.982496 0.321960 0.659450
#
# Coordination Sequence:
#
# PCOD9412405 Si02
#       5
#     8   4   8   8   4
#     4  10  23  43  70 108 142 188 233 300 359 422
#     4  12  24  42  72 104 146 172 248 290 348 438
#     4  11  24  48  75 103 150 187 239 299 359 429
#     4  11  25  44  72 108 140 195 239 293 363 424
#     4  12  24  48  72 106 146 192 240 290 366 428
#
# _framework density 23.440383000000001
#
# number of rings (size 3 to 8) (size 9 to 14) (size 15 to 20)
#    0.000    1.000    3.750    3.750    3.500    1.000 
#    2.250    0.000    0.000    0.000    0.000    0.000 
#    0.000    0.000    0.000    0.000    0.000    0.000 
#
# Total GULP energy -179355.242027 kJ/mol
# GULP energy per Si atom -5604.851313 kJ/mol
# Density = 2.338703 g / cm^3
# Si number density = 23.440383 Si / 1000 Ang^3
#
#
#
# Elastic Constant Matrix: (Units=GPa)
#
#
# Indices 1 2 3 4 5 6 
#
# 1 147.3547 42.4438 39.5696 0.0000 0.0000 0.0000
# 2 42.4438 70.0461 8.4698 0.0000 0.0000 0.0000
# 3 39.5696 8.4698 66.1321 0.0000 0.0000 0.0000
# 4 0.0000 0.0000 0.0000 6.2077 0.0000 0.0000
# 5 0.0000 0.0000 0.0000 0.0000 38.1452 0.0000
# 6 0.0000 0.0000 0.0000 0.0000 0.0000 65.3273
#
#
#
# Elastic Compliance Matrix: (Units=1/GPa)
#
#
# Indices 1 2 3 4 5 6 
#
# 1 0.009669 -0.005241 -0.005114 0.000000 0.000000 0.000000
# 2 -0.005241 0.017341 0.000915 0.000000 0.000000 0.000000
# 3 -0.005114 0.000915 0.018064 0.000000 0.000000 0.000000
# 4 0.000000 0.000000 0.000000 0.161091 0.000000 0.000000
# 5 0.000000 0.000000 0.000000 0.000000 0.026216 0.000000
# 6 0.000000 0.000000 0.000000 0.000000 0.000000 0.015308
#
#
# Mechanical properties :
#
#
# Convention : Reuss Voigt Hill
#
# Bulk Modulus (GPa) = 38.17633 51.61103 44.89368
# Shear Modulus (GPa) = 18.16200 34.80602 26.48401
#
# Velocity S-wave (km/s) = 2.78657 3.85759 3.36496
# Velocity P-wave (km/s) = 5.16481 6.47357 5.85587
#
# Compressibility (1/GPa) = 0.02619424
#
# Stress axis : x y z
#
# Youngs Moduli (GPa) = 103.42133 57.66619 55.35816
#
# Poissons Ratio (x) = 0.30220 0.28312
# Poissons Ratio (y) = 0.54199 -0.05064
# Poissons Ratio (z) = 0.52893 -0.05275
#
# Static dielectric constant tensor:
#      x y z
#    x 1.843240 0.000000 0.000000 
#    y 0.000000 1.907350 0.000000 
#    z 0.000000 0.000000 1.900820 
# 
# From -- ./inp_files/17664.got.cif
#   From: 2010.05.17/outbox.cif.g08.bks.cpg/sg52_9_cif.got.tgz:17664.got - 2010.06.03 12:15:38.
