data_PCOD9412339
_publ_section_title
;
Structure prediction by ZEFSAII (Michael W. Deem and Ramdas Pophale) SiO2 
 PCOD9412339
Probable space group: P N N A
;
_chemical_formula_sum "Si O2"
_cell_formula_units_Z 48
_cell_length_a 11.706935
_cell_length_b 24.178036
_cell_length_c 7.741903
_cell_angle_alpha 90.000000
_cell_angle_beta 90.000000
_cell_angle_gamma 90.000000
_cell_volume 2191.351032
_symmetry_space_group_name_H-M "P N N A"
_symmetry_group_IT_number 52
_symmetry_cell_setting 'orthorhombic'
loop_
_space_group_symop_operation_xyz
x,y,z
1/2-x,-y,z
x,1/2-y,1/2-z
1/2-x,1/2+y,1/2-z
-x,-y,-z
1/2+x,y,-z
-x,1/2+y,1/2+z
1/2+x,1/2-y,1/2+z
loop_
_atom_site_type_symbol
_atom_site_label
_atom_site_fract_x
_atom_site_fract_y
_atom_site_fract_z
Si Si1 0.619491 0.655691 0.744181
Si Si2 0.059171 0.801007 0.876714
Si Si3 0.967823 0.032332 0.327963
Si Si4 0.640224 0.392183 0.637076
Si Si5 0.690102 0.638058 0.106540
Si Si6 0.892842 0.582891 0.256196
O O1 0.588700 0.696977 0.583899
O O2 0.738667 0.624927 0.710793
O O3 0.517219 0.611064 0.747373
O O4 0.643386 0.673265 0.943240
O O5 0.029009 0.750000 0.750000
O O6 0.169003 0.825921 0.777288
O O7 0.952697 0.842894 0.854822
O O8 0.889101 0.084126 0.373274
O O9 0.077043 0.055912 0.226519
O O10 0.900752 0.983200 0.235506
O O11 0.000000 0.000000 0.500000
O O12 0.662222 0.402617 0.437402
O O13 0.817609 0.612587 0.107485
#
# Coordination Sequence:
#
# PCOD9412339 Si02
#       6
#     8   8   8   8   8   8
#     4  11  23  43  70  97 134 175 225 283 339 414
#     4  10  24  48  69  95 128 171 226 288 349 407
#     4  11  21  39  63  97 139 189 229 278 338 411
#     4  10  23  42  66  96 136 178 230 286 341 415
#     4  11  23  42  67  96 138 178 229 281 338 411
#     4  11  22  41  64 100 138 185 229 274 343 412
#
# _framework density 21.904294
#
# number of rings (size 3 to 8) (size 9 to 14) (size 15 to 20)
#    0.000    1.333    3.333    2.000    2.333    1.333 
#    6.000    0.000    0.000    0.000    0.000    0.000 
#    0.000    0.000    0.000    0.000    0.000    0.000 
#
# Total GULP energy -267540.940972 kJ/mol
# GULP energy per Si atom -5573.769604 kJ/mol
# Density = 2.185444 g / cm^3
# Si number density = 21.904294 Si / 1000 Ang^3
#
#
#
# Elastic Constant Matrix: (Units=GPa)
#
#
# Indices 1 2 3 4 5 6 
#
# 1 69.6526 -11.2782 14.5340 0.0000 0.0000 0.0000
# 2 -11.2782 73.5129 31.1475 0.0000 0.0000 0.0000
# 3 14.5340 31.1475 126.0718 0.0000 0.0000 0.0000
# 4 0.0000 0.0000 0.0000 36.6037 0.0000 0.0000
# 5 0.0000 0.0000 0.0000 0.0000 28.5022 0.0000
# 6 0.0000 0.0000 0.0000 0.0000 0.0000 7.3103
#
#
#
# Elastic Compliance Matrix: (Units=1/GPa)
#
#
# Indices 1 2 3 4 5 6 
#
# 1 0.015476 0.003496 -0.002648 0.000000 0.000000 0.000000
# 2 0.003496 0.015983 -0.004352 0.000000 0.000000 0.000000
# 3 -0.002648 -0.004352 0.009312 0.000000 0.000000 0.000000
# 4 0.000000 0.000000 0.000000 0.027320 0.000000 0.000000
# 5 0.000000 0.000000 0.000000 0.000000 0.035085 0.000000
# 6 0.000000 0.000000 0.000000 0.000000 0.000000 0.136793
#
#
# Mechanical properties :
#
#
# Convention : Reuss Voigt Hill
#
# Bulk Modulus (GPa) = 29.61729 37.56044 33.58887
# Shear Modulus (GPa) = 19.36255 30.13886 24.75071
#
# Velocity S-wave (km/s) = 2.97637 3.71338 3.36512
# Velocity P-wave (km/s) = 5.03610 5.96409 5.51963
#
# Compressibility (1/GPa) = 0.03376406
#
# Stress axis : x y z
#
# Youngs Moduli (GPa) = 64.61804 62.56514 107.38338
#
# Poissons Ratio (x) = -0.21873 0.28433
# Poissons Ratio (y) = -0.22591 0.46732
# Poissons Ratio (z) = 0.17110 0.27228
#
# Static dielectric constant tensor:
#      x y z
#    x 1.930720 0.000000 0.000000 
#    y 0.000000 2.181900 0.000000 
#    z 0.000000 0.000000 2.422850 
# 
# From -- ./inp_files/8860.got.cif
#   From: 2010.05.17/outbox.cif.g08.bks.cpg/sg52_5_cif.got.tgz:8860.got - 2010.06.03 12:15:38.
