data_PCOD9412596
_publ_section_title
;
Structure prediction by ZEFSAII (Michael W. Deem and Ramdas Pophale) SiO2 
 PCOD9412596
Probable space group: P N N A
;
_chemical_formula_sum "Si O2"
_cell_formula_units_Z 48
_cell_length_a 8.254746
_cell_length_b 14.744660
_cell_length_c 18.847292
_cell_angle_alpha 90.000000
_cell_angle_beta 90.000000
_cell_angle_gamma 90.000000
_cell_volume 2293.968427
_symmetry_space_group_name_H-M "P N N A"
_symmetry_group_IT_number 52
_symmetry_cell_setting 'orthorhombic'
loop_
_space_group_symop_operation_xyz
x,y,z
1/2-x,-y,z
x,1/2-y,1/2-z
1/2-x,1/2+y,1/2-z
-x,-y,-z
1/2+x,y,-z
-x,1/2+y,1/2+z
1/2+x,1/2-y,1/2+z
loop_
_atom_site_type_symbol
_atom_site_label
_atom_site_fract_x
_atom_site_fract_y
_atom_site_fract_z
Si Si1 0.350080 0.300021 0.040715
Si Si2 0.750000 0.500000 0.494438
Si Si3 0.628410 0.083295 0.234290
Si Si4 0.133384 0.750000 0.750000
Si Si5 0.491958 0.323151 0.896945
Si Si6 0.998319 0.613325 0.413659
Si Si7 0.065290 0.528039 0.128060
O O1 0.167729 0.297523 0.070929
O O2 0.453212 0.216766 0.071973
O O3 0.422524 0.396948 0.066199
O O4 0.361287 0.293957 0.955734
O O5 0.828727 0.578468 0.446111
O O6 0.623932 0.550032 0.544963
O O7 0.746784 0.168282 0.233000
O O8 0.505876 0.092084 0.169182
O O9 0.530103 0.072209 0.306850
O O10 0.750000 0.000000 0.225389
O O11 0.033251 0.721738 0.820064
O O12 0.482965 0.432316 0.890546
O O13 0.250000 0.500000 0.147479
#
# Coordination Sequence:
#
# PCOD9412596 Si02
#       7
#     8   4   8   4   8   8   8
#     4  11  25  43  75 105 139 185 241 302 361 435
#     4  10  24  42  64  96 140 184 242 302 356 426
#     4  12  25  43  71  98 139 188 235 291 357 427
#     4  12  28  46  72 102 144 188 238 292 356 434
#     4  11  26  46  73 103 147 185 240 298 362 429
#     4  11  24  43  66 101 136 185 239 293 361 428
#     4  10  24  47  69 107 141 186 234 299 366 426
#
# _framework density 20.924437000000001
#
# number of rings (size 3 to 8) (size 9 to 14) (size 15 to 20)
#    0.000    1.000    2.500    2.500    8.167    4.000 
#    0.000    0.000    0.000    0.000    0.000    0.000 
#    0.000    0.000    0.000    0.000    0.000    0.000 
#
# Total GULP energy -268463.961622 kJ/mol
# GULP energy per Si atom -5592.999200 kJ/mol
# Density = 2.087681 g / cm^3
# Si number density = 20.924437 Si / 1000 Ang^3
#
#
#
# Elastic Constant Matrix: (Units=GPa)
#
#
# Indices 1 2 3 4 5 6 
#
# 1 44.4195 27.8552 32.6411 0.0000 0.0000 0.0000
# 2 27.8552 127.2321 26.4929 0.0000 0.0000 0.0000
# 3 32.6411 26.4929 136.1162 0.0000 0.0000 0.0000
# 4 0.0000 0.0000 0.0000 23.4254 0.0000 0.0000
# 5 0.0000 0.0000 0.0000 0.0000 37.3798 0.0000
# 6 0.0000 0.0000 0.0000 0.0000 0.0000 57.2294
#
#
#
# Elastic Compliance Matrix: (Units=1/GPa)
#
#
# Indices 1 2 3 4 5 6 
#
# 1 0.030483 -0.005369 -0.006265 0.000000 0.000000 0.000000
# 2 -0.005369 0.009137 -0.000491 0.000000 0.000000 0.000000
# 3 -0.006265 -0.000491 0.008945 0.000000 0.000000 0.000000
# 4 0.000000 0.000000 0.000000 0.042689 0.000000 0.000000
# 5 0.000000 0.000000 0.000000 0.000000 0.026752 0.000000
# 6 0.000000 0.000000 0.000000 0.000000 0.000000 0.017474
#
#
# Mechanical properties :
#
#
# Convention : Reuss Voigt Hill
#
# Bulk Modulus (GPa) = 41.12672 53.52735 47.32704
# Shear Modulus (GPa) = 29.79112 38.32550 34.05831
#
# Velocity S-wave (km/s) = 3.77735 4.28438 4.03883
# Velocity P-wave (km/s) = 6.22271 7.07894 6.66459
#
# Compressibility (1/GPa) = 0.02431509
#
# Stress axis : x y z
#
# Youngs Moduli (GPa) = 32.80474 109.44064 111.79972
#
# Poissons Ratio (x) = 0.58762 0.70042
# Poissons Ratio (y) = 0.17614 0.05488
# Poissons Ratio (z) = 0.20552 0.05372
#
# Static dielectric constant tensor:
#      x y z
#    x 1.767760 0.000000 0.000000 
#    y 0.000000 1.721280 0.000000 
#    z 0.000000 0.000000 1.722940 
# 
# From -- ./inp_files/31273.got.cif
#   From: 2010.05.17/outbox.cif.g08.bks.cpg/sg52_16_cif.got.tgz:31273.got - 2010.06.03 12:15:38.
