data_PCOD9412936
_publ_section_title
;
Structure prediction by ZEFSAII (Michael W. Deem and Ramdas Pophale) SiO2 
 PCOD9412936
Probable space group: P N N A
;
_chemical_formula_sum "Si O2"
_cell_formula_units_Z 24
_cell_length_a 26.322796
_cell_length_b 4.749169
_cell_length_c 7.768812
_cell_angle_alpha 90.000000
_cell_angle_beta 90.000000
_cell_angle_gamma 90.000000
_cell_volume 971.190117
_symmetry_space_group_name_H-M "P N N A"
_symmetry_group_IT_number 52
_symmetry_cell_setting 'orthorhombic'
loop_
_space_group_symop_operation_xyz
x,y,z
1/2-x,-y,z
x,1/2-y,1/2-z
1/2-x,1/2+y,1/2-z
-x,-y,-z
1/2+x,y,-z
-x,1/2+y,1/2+z
1/2+x,1/2-y,1/2+z
loop_
_atom_site_type_symbol
_atom_site_label
_atom_site_fract_x
_atom_site_fract_y
_atom_site_fract_z
Si Si1 0.750000 0.500000 0.120447
Si Si2 0.079926 0.250000 0.750000
Si Si3 0.644870 0.123407 0.560301
Si Si4 0.928723 0.250000 0.750000
Si Si5 0.503549 0.750000 0.250000
O O1 0.738282 0.750000 0.250000
O O2 0.700366 0.449071 0.007108
O O3 0.116981 0.301802 0.588715
O O4 0.043529 0.508539 0.809229
O O5 0.650009 0.250000 0.750000
O O6 0.607474 0.863829 0.600909
O O7 0.962862 0.513839 0.680547
#
# Coordination Sequence:
#
# PCOD9412936 Si02
#       5
#     4   4   8   4   4
#     4  12  32  56  88 118 158 216 274 334 424 488
#     4  11  28  50  83 112 175 212 270 323 406 468
#     4  12  30  53  84 122 164 211 272 341 406 482
#     4  11  26  48  81 122 165 208 278 319 412 468
#     4  10  26  50  80 120 162 226 262 330 388 492
#
# _framework density 24.711949000000001
#
# number of rings (size 3 to 8) (size 9 to 14) (size 15 to 20)
#    0.000    0.667    3.333    0.000   14.000    8.000 
#    0.000    0.000    0.000    0.000    0.000    0.000 
#    0.000    0.000    0.000    0.000    0.000    0.000 
#
# Total GULP energy -133809.330335 kJ/mol
# GULP energy per Si atom -5575.388764 kJ/mol
# Density = 2.465570 g / cm^3
# Si number density = 24.711949 Si / 1000 Ang^3
#
#
#
# Elastic Constant Matrix: (Units=GPa)
#
#
# Indices 1 2 3 4 5 6 
#
# 1 240.1550 57.8320 110.9333 0.0000 0.0000 0.0000
# 2 57.8320 135.4334 49.6655 0.0000 0.0000 0.0000
# 3 110.9333 49.6655 178.9358 0.0000 0.0000 0.0000
# 4 0.0000 0.0000 0.0000 36.6651 0.0000 0.0000
# 5 0.0000 0.0000 0.0000 0.0000 328.4166 0.0000
# 6 0.0000 0.0000 0.0000 0.0000 0.0000 48.1391
#
#
#
# Elastic Compliance Matrix: (Units=1/GPa)
#
#
# Indices 1 2 3 4 5 6 
#
# 1 0.006047 -0.001344 -0.003376 0.000000 0.000000 0.000000
# 2 -0.001344 0.008519 -0.001531 0.000000 0.000000 0.000000
# 3 -0.003376 -0.001531 0.008107 0.000000 0.000000 0.000000
# 4 0.000000 0.000000 0.000000 0.027274 0.000000 0.000000
# 5 0.000000 0.000000 0.000000 0.000000 0.003045 0.000000
# 6 0.000000 0.000000 0.000000 0.000000 0.000000 0.020773
#
#
# Mechanical properties :
#
#
# Convention : Reuss Voigt Hill
#
# Bulk Modulus (GPa) = 98.32650 110.15399 104.24025
# Shear Modulus (GPa) = 55.76784 105.05038 80.40911
#
# Velocity S-wave (km/s) = 4.75564 6.52704 5.71045
# Velocity P-wave (km/s) = 8.36841 10.07348 9.26027
#
# Compressibility (1/GPa) = 0.01017020
#
# Stress axis : x y z
#
# Youngs Moduli (GPa) = 165.36951 117.38149 123.35774
#
# Poissons Ratio (x) = 0.15779 0.41644
# Poissons Ratio (y) = 0.22229 0.18889
# Poissons Ratio (z) = 0.55826 0.17974
#
# Static dielectric constant tensor:
#      x y z
#    x 1.920230 0.000000 0.000000 
#    y 0.000000 2.003120 0.000000 
#    z 0.000000 0.000000 2.092530 
# 
# From -- ./inp_files/13815.got.cif
#   From: 2010.05.17/outbox.cif.g08.bks.cpg/sg52_7_cif.got.tgz:13815.got - 2010.06.03 12:15:38.
