data_PCOD9413408
_publ_section_title
;
Structure prediction by ZEFSAII (Michael W. Deem and Ramdas Pophale) SiO2 
 PCOD9413408
Probable space group: P N N A
;
_chemical_formula_sum "Si O2"
_cell_formula_units_Z 32
_cell_length_a 13.113278
_cell_length_b 17.592539
_cell_length_c 6.682887
_cell_angle_alpha 90.000000
_cell_angle_beta 90.000000
_cell_angle_gamma 90.000000
_cell_volume 1541.714328
_symmetry_space_group_name_H-M "P N N A"
_symmetry_group_IT_number 52
_symmetry_cell_setting 'orthorhombic'
loop_
_space_group_symop_operation_xyz
x,y,z
1/2-x,-y,z
x,1/2-y,1/2-z
1/2-x,1/2+y,1/2-z
-x,-y,-z
1/2+x,y,-z
-x,1/2+y,1/2+z
1/2+x,1/2-y,1/2+z
loop_
_atom_site_type_symbol
_atom_site_label
_atom_site_fract_x
_atom_site_fract_y
_atom_site_fract_z
Si Si1 0.191836 0.171566 0.233805
Si Si2 0.222681 0.415456 0.865111
Si Si3 0.135155 0.680643 0.591296
Si Si4 0.950090 0.918165 0.040732
O O1 0.128772 0.250000 0.250000
O O2 0.220864 0.141097 0.449578
O O3 0.283714 0.194967 0.085819
O O4 0.130950 0.103538 0.129949
O O5 0.250000 0.500000 0.931739
O O6 0.311363 0.386838 0.717420
O O7 0.115143 0.414978 0.745431
O O8 0.122345 0.750000 0.750000
O O9 0.035321 0.647035 0.484559
O O10 0.000000 0.000000 0.000000
#
# Coordination Sequence:
#
# PCOD9413408 Si02
#       4
#     8   8   8   8
#     4  11  25  44  67  98 135 183 229 284 347 409
#     4  11  24  43  71  99 141 180 228 284 346 410
#     4  11  23  46  68  98 137 180 230 282 347 411
#     4  11  25  42  67 103 136 175 233 284 337 417
#
# _framework density 20.756115000000001
#
# number of rings (size 3 to 8) (size 9 to 14) (size 15 to 20)
#    0.000    1.000    5.000    0.750    3.500    3.000 
#    4.500    0.000    0.000    0.000    0.000    0.000 
#    0.000    0.000    0.000    0.000    0.000    0.000 
#
# Total GULP energy -178617.780767 kJ/mol
# GULP energy per Si atom -5581.805649 kJ/mol
# Density = 2.070887 g / cm^3
# Si number density = 20.756115 Si / 1000 Ang^3
#
#
#
# Elastic Constant Matrix: (Units=GPa)
#
#
# Indices 1 2 3 4 5 6 
#
# 1 102.1303 38.3166 35.5743 0.0000 0.0000 0.0000
# 2 38.3166 135.0141 47.7472 0.0000 0.0000 0.0000
# 3 35.5743 47.7472 110.7972 0.0000 0.0000 0.0000
# 4 0.0000 0.0000 0.0000 38.2059 0.0000 0.0000
# 5 0.0000 0.0000 0.0000 0.0000 -0.4697 0.0000
# 6 0.0000 0.0000 0.0000 0.0000 0.0000 32.0796
#
#
#
# Elastic Compliance Matrix: (Units=1/GPa)
#
#
# Indices 1 2 3 4 5 6 
#
# 1 0.011616 -0.002333 -0.002724 0.000000 0.000000 0.000000
# 2 -0.002333 0.009207 -0.003219 0.000000 0.000000 0.000000
# 3 -0.002724 -0.003219 0.011287 0.000000 0.000000 0.000000
# 4 0.000000 0.000000 0.000000 0.026174 0.000000 0.000000
# 5 0.000000 0.000000 0.000000 0.000000 -2.129097 0.000000
# 6 0.000000 0.000000 0.000000 0.000000 0.000000 0.031172
#
#
# Mechanical properties :
#
#
# Convention : Reuss Voigt Hill
#
# Bulk Modulus (GPa) = 64.27459 65.69087 64.98273
# Shear Modulus (GPa) = -2.47782 29.05006 13.28612
#
# Velocity S-wave (km/s) = -1.09379 3.74517 2.53278
# Velocity P-wave (km/s) = 5.42574 7.10066 6.31894
#
# Compressibility (1/GPa) = 0.01555825
#
# Stress axis : x y z
#
# Youngs Moduli (GPa) = 86.09128 108.61299 88.59639
#
# Poissons Ratio (x) = 0.25341 0.24134
# Poissons Ratio (y) = 0.20086 0.28515
# Poissons Ratio (z) = 0.23452 0.34958
#
# Static dielectric constant tensor:
#      x y z
#    x 1.773590 0.000000 0.000000 
#    y 0.000000 1.780260 0.000000 
#    z 0.000000 0.000000 1.720490 
# 
# From -- ./inp_files/1018.got.cif
#   From: 2010.05.17/outbox.cif.g08.bks.cpg/sg52_1_cif.got.tgz:1018.got - 2010.06.03 12:15:38.
