data_PCOD9413723
_publ_section_title
;
Structure prediction by ZEFSAII (Michael W. Deem and Ramdas Pophale) SiO2 
 PCOD9413723
Probable space group: P N N A
;
_chemical_formula_sum "Si O2"
_cell_formula_units_Z 24
_cell_length_a 12.898447
_cell_length_b 12.507008
_cell_length_c 6.424784
_cell_angle_alpha 90.000000
_cell_angle_beta 90.000000
_cell_angle_gamma 90.000000
_cell_volume 1036.452450
_symmetry_space_group_name_H-M "P N N A"
_symmetry_group_IT_number 52
_symmetry_cell_setting 'orthorhombic'
loop_
_space_group_symop_operation_xyz
x,y,z
1/2-x,-y,z
x,1/2-y,1/2-z
1/2-x,1/2+y,1/2-z
-x,-y,-z
1/2+x,y,-z
-x,1/2+y,1/2+z
1/2+x,1/2-y,1/2+z
loop_
_atom_site_type_symbol
_atom_site_label
_atom_site_fract_x
_atom_site_fract_y
_atom_site_fract_z
Si Si1 0.619833 0.426802 0.229055
Si Si2 0.323340 0.368003 0.532817
Si Si3 0.250000 0.500000 0.148713
Si Si4 0.552913 0.750000 0.750000
O O1 0.611262 0.539779 0.350761
O O2 0.715888 0.365513 0.342151
O O3 0.520237 0.353676 0.237216
O O4 0.660870 0.453706 0.999592
O O5 0.293619 0.411577 0.304273
O O6 0.384396 0.262531 0.468260
#
# Coordination Sequence:
#
# PCOD9413723 Si02
#       4
#     8   8   4   4
#     4   9  21  41  58  89 128 154 201 258 294 361
#     4   9  21  41  58  89 128 154 201 258 294 361
#     4   8  18  42  64  74 128 168 182 254 320 334
#     4  12  22  34  70  90 116 164 206 242 312 368
#
# _framework density 23.155911
#
# number of rings (size 3 to 8) (size 9 to 14) (size 15 to 20)
#    0.000    3.333    0.000    1.000    4.667    1.333 
#    0.000   16.667    0.000    0.000    0.000    0.000 
#    0.000    0.000    0.000    0.000    0.000    0.000 
#
# Total GULP energy -134132.983256 kJ/mol
# GULP energy per Si atom -5588.874302 kJ/mol
# Density = 2.310321 g / cm^3
# Si number density = 23.155911 Si / 1000 Ang^3
#
#
#
# Elastic Constant Matrix: (Units=GPa)
#
#
# Indices 1 2 3 4 5 6 
#
# 1 56.2909 29.9413 8.6042 0.0000 0.0000 0.0000
# 2 29.9413 81.8828 28.6714 0.0000 0.0000 0.0000
# 3 8.6042 28.6714 122.7447 0.0000 0.0000 0.0000
# 4 0.0000 0.0000 0.0000 33.5810 0.0000 0.0000
# 5 0.0000 0.0000 0.0000 0.0000 9.0129 0.0000
# 6 0.0000 0.0000 0.0000 0.0000 0.0000 21.1996
#
#
#
# Elastic Compliance Matrix: (Units=1/GPa)
#
#
# Indices 1 2 3 4 5 6 
#
# 1 0.022070 -0.008199 0.000368 0.000000 0.000000 0.000000
# 2 -0.008199 0.016346 -0.003244 0.000000 0.000000 0.000000
# 3 0.000368 -0.003244 0.008879 0.000000 0.000000 0.000000
# 4 0.000000 0.000000 0.000000 0.029779 0.000000 0.000000
# 5 0.000000 0.000000 0.000000 0.000000 0.110953 0.000000
# 6 0.000000 0.000000 0.000000 0.000000 0.000000 0.047171
#
#
# Mechanical properties :
#
#
# Convention : Reuss Voigt Hill
#
# Bulk Modulus (GPa) = 39.76755 43.92801 41.84778
# Shear Modulus (GPa) = 18.81626 25.67211 22.24419
#
# Velocity S-wave (km/s) = 2.85369 3.33327 3.10276
# Velocity P-wave (km/s) = 5.29803 5.81601 5.56305
#
# Compressibility (1/GPa) = 0.02514613
#
# Stress axis : x y z
#
# Youngs Moduli (GPa) = 45.31115 61.17584 112.62742
#
# Poissons Ratio (x) = 0.50157 -0.04146
# Poissons Ratio (y) = 0.37150 0.36531
# Poissons Ratio (z) = -0.01668 0.19843
#
# Static dielectric constant tensor:
#      x y z
#    x 1.960850 0.000000 0.000000 
#    y 0.000000 1.965990 0.000000 
#    z 0.000000 0.000000 1.848400 
# 
# From -- ./inp_files/818.got.cif
#   From: 2010.05.17/outbox.cif.g08.bks.cpg/sg52_1_cif.got.tgz:818.got - 2010.06.03 12:15:38.
