data_PCOD9413189
_publ_section_title
;
Structure prediction by ZEFSAII (Michael W. Deem and Ramdas Pophale) SiO2 
 PCOD9413189
Probable space group: P N N A
;
_chemical_formula_sum "Si O2"
_cell_formula_units_Z 32
_cell_length_a 5.040729
_cell_length_b 7.689836
_cell_length_c 37.622691
_cell_angle_alpha 90.000000
_cell_angle_beta 90.000000
_cell_angle_gamma 90.000000
_cell_volume 1458.345020
_symmetry_space_group_name_H-M "P N N A"
_symmetry_group_IT_number 52
_symmetry_cell_setting 'orthorhombic'
loop_
_space_group_symop_operation_xyz
x,y,z
1/2-x,-y,z
x,1/2-y,1/2-z
1/2-x,1/2+y,1/2-z
-x,-y,-z
1/2+x,y,-z
-x,1/2+y,1/2+z
1/2+x,1/2-y,1/2+z
loop_
_atom_site_type_symbol
_atom_site_label
_atom_site_fract_x
_atom_site_fract_y
_atom_site_fract_z
Si Si1 0.271432 0.788203 0.479823
Si Si2 0.499280 0.624104 0.717354
Si Si3 0.868339 0.693952 0.900092
Si Si4 0.869472 0.692516 0.359034
O O1 0.479479 0.728019 0.509548
O O2 0.374900 0.742408 0.440780
O O3 0.250000 0.000000 0.480833
O O4 0.250000 0.500000 0.726168
O O5 0.561448 0.750000 0.750000
O O6 0.420489 0.734108 0.682285
O O7 0.750000 0.500000 0.709055
O O8 0.750000 0.500000 0.900718
O O9 0.649389 0.800681 0.878587
O O10 0.149722 0.698708 0.880438
O O11 0.750000 0.500000 0.358996
#
# Coordination Sequence:
#
# PCOD9413189 Si02
#       4
#     8   8   8   8
#     4   9  17  31  53  82 115 149 192 250 304 342
#     4  11  24  43  65  91 121 158 200 242 295 355
#     4  11  22  37  62  92 117 154 209 255 290 346
#     4  11  23  41  60  85 125 164 192 235 307 368
#
# _framework density 21.942679999999999
#
# number of rings (size 3 to 8) (size 9 to 14) (size 15 to 20)
#    0.000    1.500    0.000    6.750    0.000    7.000 
#    0.000    0.000    0.000   15.000    0.000    0.000 
#    0.000    0.000    0.000    0.000    0.000    0.000 
#
# Total GULP energy -178899.815069 kJ/mol
# GULP energy per Si atom -5590.619221 kJ/mol
# Density = 2.189274 g / cm^3
# Si number density = 21.942680 Si / 1000 Ang^3
#
#
#
# Elastic Constant Matrix: (Units=GPa)
#
#
# Indices 1 2 3 4 5 6 
#
# 1 130.6625 6.9576 44.6274 0.0000 0.0000 0.0000
# 2 6.9576 23.1924 24.6748 0.0000 0.0000 0.0000
# 3 44.6274 24.6748 164.2723 0.0000 0.0000 0.0000
# 4 0.0000 0.0000 0.0000 55.3514 0.0000 0.0000
# 5 0.0000 0.0000 0.0000 0.0000 47.7469 0.0000
# 6 0.0000 0.0000 0.0000 0.0000 0.0000 35.2739
#
#
#
# Elastic Compliance Matrix: (Units=1/GPa)
#
#
# Indices 1 2 3 4 5 6 
#
# 1 0.008436 -0.000110 -0.002275 0.000000 0.000000 0.000000
# 2 -0.000110 0.051320 -0.007679 0.000000 0.000000 0.000000
# 3 -0.002275 -0.007679 0.007859 0.000000 0.000000 0.000000
# 4 0.000000 0.000000 0.000000 0.018066 0.000000 0.000000
# 5 0.000000 0.000000 0.000000 0.000000 0.020944 0.000000
# 6 0.000000 0.000000 0.000000 0.000000 0.000000 0.028350
#
#
# Mechanical properties :
#
#
# Convention : Reuss Voigt Hill
#
# Bulk Modulus (GPa) = 21.05831 52.29408 36.67620
# Shear Modulus (GPa) = 29.25131 43.79893 36.52512
#
# Velocity S-wave (km/s) = 3.65510 4.47258 4.08434
# Velocity P-wave (km/s) = 5.23744 7.11026 6.24446
#
# Compressibility (1/GPa) = 0.04748718
#
# Stress axis : x y z
#
# Youngs Moduli (GPa) = 118.53539 19.48552 127.24297
#
# Poissons Ratio (x) = 0.00214 0.28952
# Poissons Ratio (y) = 0.01305 0.97706
# Poissons Ratio (z) = 0.26971 0.14962
#
# Static dielectric constant tensor:
#      x y z
#    x 1.747900 0.000000 0.000000 
#    y 0.000000 1.841820 0.000000 
#    z 0.000000 0.000000 1.803600 
# 
# From -- ./inp_files/43552.got.cif
#   From: 2010.05.17/outbox.cif.g08.bks.cpg/sg52_22_cif.got.tgz:43552.got - 2010.06.03 12:15:38.
