data_PCOD9413333
_publ_section_title
;
Structure prediction by ZEFSAII (Michael W. Deem and Ramdas Pophale) SiO2 
 PCOD9413333
Probable space group: P N N A
;
_chemical_formula_sum "Si O2"
_cell_formula_units_Z 32
_cell_length_a 25.184596
_cell_length_b 12.297794
_cell_length_c 4.896647
_cell_angle_alpha 90.000000
_cell_angle_beta 90.000000
_cell_angle_gamma 90.000000
_cell_volume 1516.564896
_symmetry_space_group_name_H-M "P N N A"
_symmetry_group_IT_number 52
_symmetry_cell_setting 'orthorhombic'
loop_
_space_group_symop_operation_xyz
x,y,z
1/2-x,-y,z
x,1/2-y,1/2-z
1/2-x,1/2+y,1/2-z
-x,-y,-z
1/2+x,y,-z
-x,1/2+y,1/2+z
1/2+x,1/2-y,1/2+z
loop_
_atom_site_type_symbol
_atom_site_label
_atom_site_fract_x
_atom_site_fract_y
_atom_site_fract_z
Si Si1 0.619183 0.319512 0.502611
Si Si2 0.960281 0.995910 0.753439
Si Si3 0.812713 0.495205 0.214480
Si Si4 0.142896 0.624444 0.293924
O O1 0.645023 0.250000 0.750000
O O2 0.576801 0.391844 0.672684
O O3 0.659864 0.396195 0.334804
O O4 0.594704 0.250000 0.250000
O O5 0.918644 0.094941 0.745549
O O6 0.000000 0.000000 0.500000
O O7 0.000000 0.000000 0.000000
O O8 0.750000 0.500000 0.250629
O O9 0.839979 0.403670 0.400523
O O10 0.826260 0.459244 0.906681
O O11 0.154485 0.750000 0.250000
#
# Coordination Sequence:
#
# PCOD9413333 Si02
#       4
#     8   8   8   8
#     4  11  23  41  64  94 127 164 210 261 312 374
#     4  11  23  41  64  92 127 166 210 260 313 372
#     4  11  24  43  65  93 129 165 208 262 314 373
#     4  11  24  43  64  93 127 165 211 261 312 375
#
# _framework density 21.100315999999999
#
# number of rings (size 3 to 8) (size 9 to 14) (size 15 to 20)
#    0.000    1.000    0.000    9.000    0.000    6.000 
#    0.000    0.000    0.000    0.000    0.000    0.000 
#    0.000    0.000    0.000    0.000    0.000    0.000 
#
# Total GULP energy -178589.157866 kJ/mol
# GULP energy per Si atom -5580.911183 kJ/mol
# Density = 2.105229 g / cm^3
# Si number density = 21.100316 Si / 1000 Ang^3
#
#
#
# Elastic Constant Matrix: (Units=GPa)
#
#
# Indices 1 2 3 4 5 6 
#
# 1 119.9904 8.5747 13.1157 0.0000 0.0000 0.0000
# 2 8.5747 78.3063 9.2655 0.0000 0.0000 0.0000
# 3 13.1157 9.2655 112.2881 0.0000 0.0000 0.0000
# 4 0.0000 0.0000 0.0000 34.3774 0.0000 0.0000
# 5 0.0000 0.0000 0.0000 0.0000 34.0151 0.0000
# 6 0.0000 0.0000 0.0000 0.0000 0.0000 -1.7492
#
#
#
# Elastic Compliance Matrix: (Units=1/GPa)
#
#
# Indices 1 2 3 4 5 6 
#
# 1 0.008494 -0.000821 -0.000924 0.000000 0.000000 0.000000
# 2 -0.000821 0.012976 -0.000975 0.000000 0.000000 0.000000
# 3 -0.000924 -0.000975 0.009094 0.000000 0.000000 0.000000
# 4 0.000000 0.000000 0.000000 0.029089 0.000000 0.000000
# 5 0.000000 0.000000 0.000000 0.000000 0.029399 0.000000
# 6 0.000000 0.000000 0.000000 0.000000 0.000000 -0.571678
#
#
# Mechanical properties :
#
#
# Convention : Reuss Voigt Hill
#
# Bulk Modulus (GPa) = 39.80331 41.38850 40.59591
# Shear Modulus (GPa) = -10.66524 31.97059 10.65267
#
# Velocity S-wave (km/s) = -2.25067 3.89674 2.24934
# Velocity P-wave (km/s) = 3.48580 6.31695 5.10170
#
# Compressibility (1/GPa) = 0.02512354
#
# Stress axis : x y z
#
# Youngs Moduli (GPa) = 117.73444 77.06789 109.96175
#
# Poissons Ratio (x) = 0.06325 0.10165
# Poissons Ratio (y) = 0.09662 0.10719
# Poissons Ratio (z) = 0.10883 0.07513
#
# Static dielectric constant tensor:
#      x y z
#    x 1.702040 0.000000 0.000000 
#    y 0.000000 1.851260 0.000000 
#    z 0.000000 0.000000 1.719020 
# 
# From -- ./inp_files/4794.got.cif
#   From: 2010.05.17/outbox.cif.g08.bks.cpg/sg52_3_cif.got.tgz:4794.got - 2010.06.03 12:15:38.
