data_PCOD9413027
_publ_section_title
;
Structure prediction by ZEFSAII (Michael W. Deem and Ramdas Pophale) SiO2 
 PCOD9413027
Probable space group: P N N A
;
_chemical_formula_sum "Si O2"
_cell_formula_units_Z 48
_cell_length_a 13.599332
_cell_length_b 19.468672
_cell_length_c 9.813615
_cell_angle_alpha 90.000000
_cell_angle_beta 90.000000
_cell_angle_gamma 90.000000
_cell_volume 2598.261875
_symmetry_space_group_name_H-M "P N N A"
_symmetry_group_IT_number 52
_symmetry_cell_setting 'orthorhombic'
loop_
_space_group_symop_operation_xyz
x,y,z
1/2-x,-y,z
x,1/2-y,1/2-z
1/2-x,1/2+y,1/2-z
-x,-y,-z
1/2+x,y,-z
-x,1/2+y,1/2+z
1/2+x,1/2-y,1/2+z
loop_
_atom_site_type_symbol
_atom_site_label
_atom_site_fract_x
_atom_site_fract_y
_atom_site_fract_z
Si Si1 0.025654 0.216445 0.486900
Si Si2 0.763811 0.580548 0.627227
Si Si3 0.738828 0.299566 0.084541
Si Si4 0.473875 0.854802 0.195283
Si Si5 0.158983 0.679118 0.176713
Si Si6 0.808980 0.146960 0.139358
O O1 0.125400 0.217586 0.572956
O O2 0.022190 0.166237 0.355119
O O3 0.026551 0.289151 0.406996
O O4 0.942205 0.194896 0.596239
O O5 0.750000 0.500000 0.643331
O O6 0.873134 0.604244 0.671874
O O7 0.678322 0.620747 0.711851
O O8 0.749390 0.604397 0.471719
O O9 0.802162 0.228378 0.094265
O O10 0.762060 0.346849 0.212052
O O11 0.766439 0.335895 0.944963
O O12 0.581620 0.883392 0.157047
O O13 0.188632 0.750000 0.250000
#
# Coordination Sequence:
#
# PCOD9413027 Si02
#       6
#     8   8   8   8   8   8
#     4  11  20  34  67 101 126 161 217 279 334 376
#     4  12  27  44  64  94 139 183 217 270 340 405
#     4  11  20  36  64  99 125 157 216 277 330 377
#     4  11  20  39  65  93 129 174 208 274 341 377
#     4  12  21  39  65 100 129 163 225 280 327 391
#     4  11  22  39  61  95 129 164 217 271 323 403
#
# _framework density 18.473890000000001
#
# number of rings (size 3 to 8) (size 9 to 14) (size 15 to 20)
#    0.000    0.667    8.333    1.000    2.333    2.000 
#    0.000    1.667    0.000    0.000    0.000    0.000 
#    0.000    0.000    0.000    0.000    0.000    0.000 
#
# Total GULP energy -267447.023214 kJ/mol
# GULP energy per Si atom -5571.812984 kJ/mol
# Density = 1.843184 g / cm^3
# Si number density = 18.473890 Si / 1000 Ang^3
#
#
#
# Elastic Constant Matrix: (Units=GPa)
#
#
# Indices 1 2 3 4 5 6 
#
# 1 77.6898 12.7028 34.9950 0.0000 0.0000 0.0000
# 2 12.7028 82.8529 37.0015 0.0000 0.0000 0.0000
# 3 34.9950 37.0015 110.5298 0.0000 0.0000 0.0000
# 4 0.0000 0.0000 0.0000 12.3650 0.0000 0.0000
# 5 0.0000 0.0000 0.0000 0.0000 24.9172 0.0000
# 6 0.0000 0.0000 0.0000 0.0000 0.0000 7.7215
#
#
#
# Elastic Compliance Matrix: (Units=1/GPa)
#
#
# Indices 1 2 3 4 5 6 
#
# 1 0.015016 -0.000210 -0.004684 0.000000 0.000000 0.000000
# 2 -0.000210 0.014194 -0.004685 0.000000 0.000000 0.000000
# 3 -0.004684 -0.004685 0.012099 0.000000 0.000000 0.000000
# 4 0.000000 0.000000 0.000000 0.080873 0.000000 0.000000
# 5 0.000000 0.000000 0.000000 0.000000 0.040133 0.000000
# 6 0.000000 0.000000 0.000000 0.000000 0.000000 0.129509
#
#
# Mechanical properties :
#
#
# Convention : Reuss Voigt Hill
#
# Bulk Modulus (GPa) = 45.14644 48.94124 47.04384
# Shear Modulus (GPa) = 15.70519 21.42561 18.56540
#
# Velocity S-wave (km/s) = 2.91886 3.40925 3.17354
# Velocity P-wave (km/s) = 5.98754 6.48436 6.24090
#
# Compressibility (1/GPa) = 0.02215014
#
# Stress axis : x y z
#
# Youngs Moduli (GPa) = 66.59607 70.45148 82.65375
#
# Poissons Ratio (x) = 0.01483 0.38713
# Poissons Ratio (y) = 0.01402 0.38724
# Poissons Ratio (z) = 0.31192 0.33007
#
# Static dielectric constant tensor:
#      x y z
#    x 1.692860 0.000000 0.000000 
#    y 0.000000 1.621130 0.000000 
#    z 0.000000 0.000000 1.640360 
# 
# From -- ./inp_files/10508.got.cif
#   From: 2010.05.17/outbox.cif.g08.bks.cpg/sg52_6_cif.got.tgz:10508.got - 2010.06.03 12:15:38.
