data_PCOD9413919
_publ_section_title
;
Structure prediction by ZEFSAII (Michael W. Deem and Ramdas Pophale) SiO2 
 PCOD9413919
Probable space group: P N N A
;
_chemical_formula_sum "Si O2"
_cell_formula_units_Z 32
_cell_length_a 9.582800
_cell_length_b 11.747036
_cell_length_c 11.196175
_cell_angle_alpha 90.000000
_cell_angle_beta 90.000000
_cell_angle_gamma 90.000000
_cell_volume 1260.347783
_symmetry_space_group_name_H-M "P N N A"
_symmetry_group_IT_number 52
_symmetry_cell_setting 'orthorhombic'
loop_
_space_group_symop_operation_xyz
x,y,z
1/2-x,-y,z
x,1/2-y,1/2-z
1/2-x,1/2+y,1/2-z
-x,-y,-z
1/2+x,y,-z
-x,1/2+y,1/2+z
1/2+x,1/2-y,1/2+z
loop_
_atom_site_type_symbol
_atom_site_label
_atom_site_fract_x
_atom_site_fract_y
_atom_site_fract_z
Si Si1 0.481834 0.480136 0.354856
Si Si2 0.676850 0.766742 0.391151
Si Si3 0.651374 0.750000 0.750000
Si Si4 0.134910 0.201249 0.076879
Si Si5 0.750000 0.500000 0.187103
O O1 0.500000 0.500000 0.500000
O O2 0.430779 0.357342 0.306763
O O3 0.378604 0.588382 0.341765
O O4 0.616044 0.503901 0.273574
O O5 0.669409 0.750000 0.250000
O O6 0.519409 0.751443 0.437448
O O7 0.784469 0.680075 0.453131
O O8 0.743859 0.890696 0.397642
O O9 0.755684 0.716905 0.857265
#
# Coordination Sequence:
#
# PCOD9413919 Si02
#       5
#     8   8   4   8   4
#     4  12  28  48  83 128 168 231 291 363 438 523
#     4  12  27  53  81 122 168 230 287 362 438 526
#     4  12  28  48  84 126 166 226 302 352 440 524
#     4  12  27  53  81 119 177 220 289 364 438 517
#     4  12  28  50  82 116 174 220 292 360 438 520
#
# _framework density 25.389816
#
# number of rings (size 3 to 8) (size 9 to 14) (size 15 to 20)
#    0.000    0.000    3.750    3.750   12.250    1.000 
#    4.500    0.000    0.000    0.000    0.000    0.000 
#    0.000    0.000    0.000    0.000    0.000    0.000 
#
# Total GULP energy -178832.228950 kJ/mol
# GULP energy per Si atom -5588.507155 kJ/mol
# Density = 2.533203 g / cm^3
# Si number density = 25.389816 Si / 1000 Ang^3
#
#
#
# Elastic Constant Matrix: (Units=GPa)
#
#
# Indices 1 2 3 4 5 6 
#
# 1 177.8628 68.0637 78.8103 0.0000 0.0000 0.0000
# 2 68.0637 171.3522 49.8045 0.0000 0.0000 0.0000
# 3 78.8103 49.8045 122.1605 0.0000 0.0000 0.0000
# 4 0.0000 0.0000 0.0000 36.9744 0.0000 0.0000
# 5 0.0000 0.0000 0.0000 0.0000 49.3927 0.0000
# 6 0.0000 0.0000 0.0000 0.0000 0.0000 45.9629
#
#
#
# Elastic Compliance Matrix: (Units=1/GPa)
#
#
# Indices 1 2 3 4 5 6 
#
# 1 0.008441 -0.002008 -0.004627 0.000000 0.000000 0.000000
# 2 -0.002008 0.007098 -0.001598 0.000000 0.000000 0.000000
# 3 -0.004627 -0.001598 0.011823 0.000000 0.000000 0.000000
# 4 0.000000 0.000000 0.000000 0.027046 0.000000 0.000000
# 5 0.000000 0.000000 0.000000 0.000000 0.020246 0.000000
# 6 0.000000 0.000000 0.000000 0.000000 0.000000 0.021757
#
#
# Mechanical properties :
#
#
# Convention : Reuss Voigt Hill
#
# Bulk Modulus (GPa) = 91.78553 96.08139 93.93346
# Shear Modulus (GPa) = 42.91541 44.77912 43.84726
#
# Velocity S-wave (km/s) = 4.11574 4.20416 4.16018
# Velocity P-wave (km/s) = 7.66908 7.84163 7.75584
#
# Compressibility (1/GPa) = 0.01089496
#
# Stress axis : x y z
#
# Youngs Moduli (GPa) = 118.47113 140.88186 84.58379
#
# Poissons Ratio (x) = 0.28289 0.39136
# Poissons Ratio (y) = 0.23789 0.13520
# Poissons Ratio (z) = 0.54815 0.22519
#
# Static dielectric constant tensor:
#      x y z
#    x 2.071530 0.000000 0.000000 
#    y 0.000000 2.223730 0.000000 
#    z 0.000000 0.000000 2.174480 
# 
# From -- ./inp_files/16475.got.cif
#   From: 2010.05.17/outbox.cif.g08.bks.cpg/sg52_9_cif.got.tgz:16475.got - 2010.06.03 12:15:38.
