data_PCOD9413628
_publ_section_title
;
Structure prediction by ZEFSAII (Michael W. Deem and Ramdas Pophale) SiO2 
 PCOD9413628
Probable space group: P N N A
;
_chemical_formula_sum "Si O2"
_cell_formula_units_Z 32
_cell_length_a 32.901043
_cell_length_b 5.369299
_cell_length_c 7.968337
_cell_angle_alpha 90.000000
_cell_angle_beta 90.000000
_cell_angle_gamma 90.000000
_cell_volume 1407.650854
_symmetry_space_group_name_H-M "P N N A"
_symmetry_group_IT_number 52
_symmetry_cell_setting 'orthorhombic'
loop_
_space_group_symop_operation_xyz
x,y,z
1/2-x,-y,z
x,1/2-y,1/2-z
1/2-x,1/2+y,1/2-z
-x,-y,-z
1/2+x,y,-z
-x,1/2+y,1/2+z
1/2+x,1/2-y,1/2+z
loop_
_atom_site_type_symbol
_atom_site_label
_atom_site_fract_x
_atom_site_fract_y
_atom_site_fract_z
Si Si1 0.250000 0.500000 0.125171
Si Si2 0.373715 0.605653 0.929161
Si Si3 0.174933 0.250000 0.250000
Si Si4 0.250000 0.500000 0.588570
Si Si5 0.464556 0.997347 0.636774
Si Si6 0.820581 0.250000 0.250000
O O1 0.207670 0.474023 0.226352
O O2 0.250548 0.744815 0.013021
O O3 0.371923 0.750000 0.750000
O O4 0.420719 0.535374 0.952629
O O5 0.348465 0.353119 0.897659
O O6 0.353077 0.748549 0.084504
O O7 0.209362 0.529528 0.695680
O O8 0.469909 0.750000 0.750000
O O9 0.464283 0.250000 0.750000
O O10 0.500000 0.000000 0.500000
#
# Coordination Sequence:
#
# PCOD9413628 Si02
#       6
#     4   8   4   4   8   4
#     4  12  26  48  66 107 147 194 269 329 376 453
#     4  11  26  50  77 110 158 203 271 326 395 476
#     4  12  26  50  73 106 152 210 261 330 396 460
#     4  12  26  44  72 103 147 202 261 323 386 457
#     4  11  25  50  82 122 163 204 255 327 400 483
#     4  12  24  46  75 110 152 216 261 328 402 460
#
# _framework density 22.73291
#
# number of rings (size 3 to 8) (size 9 to 14) (size 15 to 20)
#    0.000    0.500    3.750    3.750    3.500    0.000 
#    4.500    0.000    0.000    0.000    0.000    0.000 
#    0.000    0.000    0.000    0.000    0.000    0.000 
#
# Total GULP energy -179001.208727 kJ/mol
# GULP energy per Si atom -5593.787773 kJ/mol
# Density = 2.268117 g / cm^3
# Si number density = 22.732910 Si / 1000 Ang^3
#
#
#
# Elastic Constant Matrix: (Units=GPa)
#
#
# Indices 1 2 3 4 5 6 
#
# 1 247.4723 66.7643 106.3082 0.0000 0.0000 0.0000
# 2 66.7643 166.0781 64.8712 0.0000 0.0000 0.0000
# 3 106.3082 64.8712 141.0128 0.0000 0.0000 0.0000
# 4 0.0000 0.0000 0.0000 54.2210 0.0000 0.0000
# 5 0.0000 0.0000 0.0000 0.0000 -70.1530 0.0000
# 6 0.0000 0.0000 0.0000 0.0000 0.0000 29.3991
#
#
#
# Elastic Compliance Matrix: (Units=1/GPa)
#
#
# Indices 1 2 3 4 5 6 
#
# 1 0.006061 -0.000795 -0.004204 0.000000 0.000000 0.000000
# 2 -0.000795 0.007444 -0.002826 0.000000 0.000000 0.000000
# 3 -0.004204 -0.002826 0.011561 0.000000 0.000000 0.000000
# 4 0.000000 0.000000 0.000000 0.018443 0.000000 0.000000
# 5 0.000000 0.000000 0.000000 0.000000 -0.014255 0.000000
# 6 0.000000 0.000000 0.000000 0.000000 0.000000 0.034015
#
#
# Mechanical properties :
#
#
# Convention : Reuss Voigt Hill
#
# Bulk Modulus (GPa) = 106.17971 114.49450 110.33711
# Shear Modulus (GPa) = 60.93325 23.80139 42.36732
#
# Velocity S-wave (km/s) = 5.18287 3.23925 4.32174
# Velocity P-wave (km/s) = 9.08984 8.02899 8.57583
#
# Compressibility (1/GPa) = 0.00941799
#
# Stress axis : x y z
#
# Youngs Moduli (GPa) = 164.98650 134.32884 86.49936
#
# Poissons Ratio (x) = 0.10673 0.36363
# Poissons Ratio (y) = 0.13109 0.24442
# Poissons Ratio (z) = 0.69359 0.37958
#
# Static dielectric constant tensor:
#      x y z
#    x 1.833160 0.000000 0.000000 
#    y 0.000000 1.888770 0.000000 
#    z 0.000000 0.000000 1.981660 
# 
# From -- ./inp_files/15249.got.cif
#   From: 2010.05.17/outbox.cif.g08.bks.cpg/sg52_8_cif.got.tgz:15249.got - 2010.06.03 12:15:38.
