data_PCOD9413981
_publ_section_title
;
Structure prediction by ZEFSAII (Michael W. Deem and Ramdas Pophale) SiO2 
 PCOD9413981
Probable space group: P N N A
;
_chemical_formula_sum "Si O2"
_cell_formula_units_Z 40
_cell_length_a 18.000000
_cell_length_b 12.000000
_cell_length_c 9.000000
_cell_angle_alpha 90.000000
_cell_angle_beta 90.000000
_cell_angle_gamma 90.000000
_cell_volume 1944.000000
_symmetry_space_group_name_H-M "P N N A"
_symmetry_group_IT_number 52
_symmetry_cell_setting 'orthorhombic'
loop_
_space_group_symop_operation_xyz
x,y,z
1/2-x,-y,z
x,1/2-y,1/2-z
1/2-x,1/2+y,1/2-z
-x,-y,-z
1/2+x,y,-z
-x,1/2+y,1/2+z
1/2+x,1/2-y,1/2+z
loop_
_atom_site_type_symbol
_atom_site_label
_atom_site_fract_x
_atom_site_fract_y
_atom_site_fract_z
Si Si1 0.047451 0.139851 0.321329
Si Si2 0.637389 0.424753 0.115398
Si Si3 0.705280 0.827543 0.388098
Si Si4 0.005579 0.915789 0.200279
Si Si5 0.570816 0.728169 0.968034
O O1 0.082337 0.250000 0.250000
O O2 0.091430 0.093508 0.463982
O O3 0.967614 0.176164 0.387090
O O4 0.034671 0.040534 0.207346
O O5 0.671532 0.548276 0.123657
O O6 0.706641 0.341478 0.105468
O O7 0.580829 0.407985 0.252923
O O8 0.687578 0.750000 0.250000
O O9 0.659183 0.770732 0.520657
O O10 0.031785 0.845979 0.059954
O O11 0.046823 0.851819 0.334799
#
# Coordination Sequence:
#
# PCOD9413981 Si02
#       5
#     8   8   8   8   8
#     4  11  21  39  60  91 124 162 208 254 304 375
#     4  10  22  41  59  88 126 161 204 258 313 374
#     4  11  22  39  62  89 124 162 202 262 320 363
#     4  10  20  38  65  90 119 165 213 251 309 369
#     4  10  20  37  63  89 121 158 208 255 303 368
#
# _framework density 20.576132000000001
#
# number of rings (size 3 to 8) (size 9 to 14) (size 15 to 20)
#    0.000    1.600    4.000    1.800    5.600    0.800 
#    3.600    0.000    0.000    0.000    0.000    0.000 
#    0.000    0.000    0.000    0.000    0.000    0.000 
#
# Total GULP energy -223017.537149 kJ/mol
# GULP energy per Si atom -5575.438429 kJ/mol
# Density = 2.052930 g / cm^3
# Si number density = 20.576132 Si / 1000 Ang^3
#
#
#
# Elastic Constant Matrix: (Units=GPa)
#
#
# Indices 1 2 3 4 5 6 
#
# 1 135.3880 39.7447 20.3452 0.0000 0.0000 0.0000
# 2 39.7447 131.2169 35.6454 0.0000 0.0000 0.0000
# 3 20.3452 35.6454 14.2681 0.0000 0.0000 0.0000
# 4 0.0000 0.0000 0.0000 31.5623 0.0000 0.0000
# 5 0.0000 0.0000 0.0000 0.0000 -36.8784 0.0000
# 6 0.0000 0.0000 0.0000 0.0000 0.0000 16.3923
#
#
#
# Elastic Compliance Matrix: (Units=1/GPa)
#
#
# Indices 1 2 3 4 5 6 
#
# 1 0.009665 0.002540 -0.020128 0.000000 0.000000 0.000000
# 2 0.002540 0.024384 -0.064539 0.000000 0.000000 0.000000
# 3 -0.020128 -0.064539 0.260024 0.000000 0.000000 0.000000
# 4 0.000000 0.000000 0.000000 0.031683 0.000000 0.000000
# 5 0.000000 0.000000 0.000000 0.000000 -0.027116 0.000000
# 6 0.000000 0.000000 0.000000 0.000000 0.000000 0.061004
#
#
# Mechanical properties :
#
#
# Convention : Reuss Voigt Hill
#
# Bulk Modulus (GPa) = 7.70306 52.48262 30.09284
# Shear Modulus (GPa) = 8.81566 14.55775 11.68670
#
# Velocity S-wave (km/s) = 2.07213 2.66279 2.38581
# Velocity P-wave (km/s) = 3.07844 5.91742 4.71660
#
# Compressibility (1/GPa) = 0.12981849
#
# Stress axis : x y z
#
# Youngs Moduli (GPa) = 103.46422 41.01091 3.84579
#
# Poissons Ratio (x) = -0.10418 0.07741
# Poissons Ratio (y) = -0.26284 0.24821
# Poissons Ratio (z) = 2.08257 2.64682
#
# Static dielectric constant tensor:
#      x y z
#    x 1.763470 0.000000 0.000000 
#    y 0.000000 1.821570 0.000000 
#    z 0.000000 0.000000 1.854950 
# 
# From -- ./inp_files/11590.got.cif
#   From: 2010.05.17/outbox.ucp.g08.bks.cvg/sg52_6_cif.got.tgz:11590.got - 2010.06.11 16:30:12.
