data_PCOD9413907
_publ_section_title
;
Structure prediction by ZEFSAII (Michael W. Deem and Ramdas Pophale) SiO2 
 PCOD9413907
Probable space group: P N N A
;
_chemical_formula_sum "Si O2"
_cell_formula_units_Z 20
_cell_length_a 4.938110
_cell_length_b 5.403538
_cell_length_c 26.559815
_cell_angle_alpha 90.000000
_cell_angle_beta 90.000000
_cell_angle_gamma 90.000000
_cell_volume 708.702583
_symmetry_space_group_name_H-M "P N N A"
_symmetry_group_IT_number 52
_symmetry_cell_setting 'orthorhombic'
loop_
_space_group_symop_operation_xyz
x,y,z
1/2-x,-y,z
x,1/2-y,1/2-z
1/2-x,1/2+y,1/2-z
-x,-y,-z
1/2+x,y,-z
-x,1/2+y,1/2+z
1/2+x,1/2-y,1/2+z
loop_
_atom_site_type_symbol
_atom_site_label
_atom_site_fract_x
_atom_site_fract_y
_atom_site_fract_z
Si Si1 0.750000 0.500000 0.165830
Si Si2 0.500000 0.000000 0.500000
Si Si3 0.576683 0.750000 0.750000
Si Si4 0.014082 0.173011 0.085255
O O1 0.609602 0.300750 0.201715
O O2 0.959198 0.363963 0.129492
O O3 0.337957 0.788077 0.466232
O O4 0.250000 0.000000 0.539746
O O5 0.750000 0.500000 0.743932
O O6 0.750000 0.000000 0.074601
O O7 0.250000 0.000000 0.105045
#
# Coordination Sequence:
#
# PCOD9413907 Si02
#       4
#     4   4   4   8
#     4  12  32  58  80 144 174 234 318 386 458 572
#     4  12  26  54  78 130 166 228 302 356 440 544
#     4  12  32  56  96 128 184 246 310 388 480 556
#     4  12  31  54  89 125 180 242 297 380 461 544
#
# _framework density 28.220585
#
# number of rings (size 3 to 8) (size 9 to 14) (size 15 to 20)
#    0.000    0.000    2.000    3.600   14.000    4.800 
#    0.000    0.000    0.000    0.000    0.000    0.000 
#    0.000    0.000    0.000    0.000    0.000    0.000 
#
# Total GULP energy -111688.027717 kJ/mol
# GULP energy per Si atom -5584.401386 kJ/mol
# Density = 2.815635 g / cm^3
# Si number density = 28.220585 Si / 1000 Ang^3
#
#
#
# Elastic Constant Matrix: (Units=GPa)
#
#
# Indices 1 2 3 4 5 6 
#
# 1 122.7417 50.9222 44.7657 0.0000 0.0000 0.0000
# 2 50.9222 182.7741 89.7095 0.0000 0.0000 0.0000
# 3 44.7657 89.7095 223.7676 0.0000 0.0000 0.0000
# 4 0.0000 0.0000 0.0000 50.2471 0.0000 0.0000
# 5 0.0000 0.0000 0.0000 0.0000 -26.0008 0.0000
# 6 0.0000 0.0000 0.0000 0.0000 0.0000 80.7050
#
#
#
# Elastic Compliance Matrix: (Units=1/GPa)
#
#
# Indices 1 2 3 4 5 6 
#
# 1 0.009400 -0.002111 -0.001034 0.000000 0.000000 0.000000
# 2 -0.002111 0.007286 -0.002499 0.000000 0.000000 0.000000
# 3 -0.001034 -0.002499 0.005677 0.000000 0.000000 0.000000
# 4 0.000000 0.000000 0.000000 0.019902 0.000000 0.000000
# 5 0.000000 0.000000 0.000000 0.000000 -0.038460 0.000000
# 6 0.000000 0.000000 0.000000 0.000000 0.000000 0.012391
#
#
# Mechanical properties :
#
#
# Convention : Reuss Voigt Hill
#
# Bulk Modulus (GPa) = 90.28933 100.00869 95.14901
# Shear Modulus (GPa) = 160.38142 43.91599 102.14870
#
# Velocity S-wave (km/s) = 7.54684 3.94911 6.02288
# Velocity P-wave (km/s) = 10.39246 7.50394 9.06400
#
# Compressibility (1/GPa) = 0.01107551
#
# Stress axis : x y z
#
# Youngs Moduli (GPa) = 106.37937 137.25282 176.13499
#
# Poissons Ratio (x) = 0.28980 0.18214
# Poissons Ratio (y) = 0.22461 0.44008
# Poissons Ratio (z) = 0.11001 0.34293
#
# Static dielectric constant tensor:
#      x y z
#    x 0.756060 0.000000 0.000000 
#    y 0.000000 2.370620 0.000000 
#    z 0.000000 0.000000 1.808820 
# 
# From -- ./inp_files/41294.got.cif
#   From: 2010.05.17/outbox.cif.g08.bks.cpg/sg52_21_cif.got.tgz:41294.got - 2010.06.03 12:15:38.
