data_PCOD9413413
_publ_section_title
;
Structure prediction by ZEFSAII (Michael W. Deem and Ramdas Pophale) SiO2 
 PCOD9413413
Probable space group: P N N A
;
_chemical_formula_sum "Si O2"
_cell_formula_units_Z 40
_cell_length_a 9.599245
_cell_length_b 8.355767
_cell_length_c 21.443606
_cell_angle_alpha 90.000000
_cell_angle_beta 90.000000
_cell_angle_gamma 90.000000
_cell_volume 1719.971364
_symmetry_space_group_name_H-M "P N N A"
_symmetry_group_IT_number 52
_symmetry_cell_setting 'orthorhombic'
loop_
_space_group_symop_operation_xyz
x,y,z
1/2-x,-y,z
x,1/2-y,1/2-z
1/2-x,1/2+y,1/2-z
-x,-y,-z
1/2+x,y,-z
-x,1/2+y,1/2+z
1/2+x,1/2-y,1/2+z
loop_
_atom_site_type_symbol
_atom_site_label
_atom_site_fract_x
_atom_site_fract_y
_atom_site_fract_z
Si Si1 0.319991 0.340169 0.506801
Si Si2 0.097598 0.568608 0.725143
Si Si3 0.399379 0.079981 0.128030
Si Si4 0.394443 0.058031 0.325816
Si Si5 0.058854 0.134355 0.453171
O O1 0.250000 0.500000 0.532931
O O2 0.410668 0.393148 0.446226
O O3 0.195795 0.223590 0.481022
O O4 0.427163 0.252428 0.551757
O O5 0.250000 0.500000 0.715776
O O6 0.099049 0.750000 0.750000
O O7 0.009038 0.530411 0.663354
O O8 0.020722 0.473136 0.780105
O O9 0.395101 0.256562 0.156944
O O10 0.250000 0.000000 0.136130
O O11 0.406805 0.950518 0.388168
O O12 0.250000 0.000000 0.294993
O O13 0.000000 0.000000 0.500000
#
# Coordination Sequence:
#
# PCOD9413413 Si02
#       5
#     8   8   8   8   8
#     4  11  25  45  73 108 150 201 247 304 364 444
#     4  12  28  49  73 110 145 185 243 312 383 440
#     4  11  23  46  74 104 143 192 248 299 360 444
#     4  12  23  45  75 105 144 195 246 297 363 447
#     4  12  23  46  72 110 150 194 248 300 369 439
#
# _framework density 23.256201999999998
#
# number of rings (size 3 to 8) (size 9 to 14) (size 15 to 20)
#    0.000    0.400    4.000    4.800    2.800    1.600 
#    3.600    0.000    0.000    0.000    0.000    0.000 
#    0.000    0.000    0.000    0.000    0.000    0.000 
#
# Total GULP energy -224301.076755 kJ/mol
# GULP energy per Si atom -5607.526919 kJ/mol
# Density = 2.320327 g / cm^3
# Si number density = 23.256202 Si / 1000 Ang^3
#
#
#
# Elastic Constant Matrix: (Units=GPa)
#
#
# Indices 1 2 3 4 5 6 
#
# 1 122.3367 39.2285 42.2765 0.0000 0.0000 0.0000
# 2 39.2285 160.0047 36.8329 0.0000 0.0000 0.0000
# 3 42.2765 36.8329 70.2964 0.0000 0.0000 0.0000
# 4 0.0000 0.0000 0.0000 17.4129 0.0000 0.0000
# 5 0.0000 0.0000 0.0000 0.0000 152.6479 0.0000
# 6 0.0000 0.0000 0.0000 0.0000 0.0000 47.0672
#
#
#
# Elastic Compliance Matrix: (Units=1/GPa)
#
#
# Indices 1 2 3 4 5 6 
#
# 1 0.010544 -0.001280 -0.005671 0.000000 0.000000 0.000000
# 2 -0.001280 0.007262 -0.003036 0.000000 0.000000 0.000000
# 3 -0.005671 -0.003036 0.019226 0.000000 0.000000 0.000000
# 4 0.000000 0.000000 0.000000 0.057429 0.000000 0.000000
# 5 0.000000 0.000000 0.000000 0.000000 0.006551 0.000000
# 6 0.000000 0.000000 0.000000 0.000000 0.000000 0.021246
#
#
# Mechanical properties :
#
#
# Convention : Reuss Voigt Hill
#
# Bulk Modulus (GPa) = 58.61390 65.47929 62.04660
# Shear Modulus (GPa) = 33.80253 59.04561 46.42407
#
# Velocity S-wave (km/s) = 3.81660 5.04423 4.47273
# Velocity P-wave (km/s) = 6.68432 7.88305 7.30830
#
# Compressibility (1/GPa) = 0.01706080
#
# Stress axis : x y z
#
# Youngs Moduli (GPa) = 94.83893 137.69634 52.01171
#
# Poissons Ratio (x) = 0.17621 0.29495
# Poissons Ratio (y) = 0.12137 0.15789
# Poissons Ratio (z) = 0.53781 0.41799
#
# Static dielectric constant tensor:
#      x y z
#    x 1.783370 0.000000 0.000000 
#    y 0.000000 1.914900 0.000000 
#    z 0.000000 0.000000 1.867440 
# 
# From -- ./inp_files/39208.got.cif
#   From: 2010.05.17/outbox.cif.g08.bks.cpg/sg52_20_cif.got.tgz:39208.got - 2010.06.03 12:15:38.
