data_PCOD9413748
_publ_section_title
;
Structure prediction by ZEFSAII (Michael W. Deem and Ramdas Pophale) SiO2 
 PCOD9413748
Probable space group: P N N A
;
_chemical_formula_sum "Si O2"
_cell_formula_units_Z 32
_cell_length_a 5.461795
_cell_length_b 15.615182
_cell_length_c 17.030736
_cell_angle_alpha 90.000000
_cell_angle_beta 90.000000
_cell_angle_gamma 90.000000
_cell_volume 1452.499069
_symmetry_space_group_name_H-M "P N N A"
_symmetry_group_IT_number 52
_symmetry_cell_setting 'orthorhombic'
loop_
_space_group_symop_operation_xyz
x,y,z
1/2-x,-y,z
x,1/2-y,1/2-z
1/2-x,1/2+y,1/2-z
-x,-y,-z
1/2+x,y,-z
-x,1/2+y,1/2+z
1/2+x,1/2-y,1/2+z
loop_
_atom_site_type_symbol
_atom_site_label
_atom_site_fract_x
_atom_site_fract_y
_atom_site_fract_z
Si Si1 0.972209 0.750000 0.250000
Si Si2 0.250000 0.000000 0.951844
Si Si3 0.828919 0.598554 0.801449
Si Si4 0.616520 0.845638 0.152614
Si Si5 0.116406 0.212344 0.449391
O O1 0.800872 0.771116 0.176639
O O2 0.125625 0.666052 0.229055
O O3 0.253748 0.084111 0.899134
O O4 0.500000 0.000000 0.000000
O O5 0.750000 0.500000 0.803626
O O6 0.896932 0.634084 0.887320
O O7 0.031721 0.611496 0.733900
O O8 0.403260 0.799288 0.103108
O O9 0.373444 0.210988 0.495995
#
# Coordination Sequence:
#
# PCOD9413748 Si02
#       5
#     4   4   8   8   8
#     4  12  22  48  80 110 154 198 278 310 386 456
#     4  12  30  48  76 122 162 198 256 330 410 476
#     4  12  27  47  80 110 149 207 265 323 383 469
#     4  12  25  49  76 112 150 212 258 323 389 477
#     4  12  26  48  76 108 157 204 250 319 390 455
#
# _framework density 22.030992999999999
#
# number of rings (size 3 to 8) (size 9 to 14) (size 15 to 20)
#    0.000    0.000    5.000    4.500    5.250    1.000 
#    0.000    0.000    0.000    0.000    0.000    0.000 
#    0.000    0.000    0.000    0.000    0.000    0.000 
#
# Total GULP energy -179159.184784 kJ/mol
# GULP energy per Si atom -5598.724525 kJ/mol
# Density = 2.198085 g / cm^3
# Si number density = 22.030993 Si / 1000 Ang^3
#
#
#
# Elastic Constant Matrix: (Units=GPa)
#
#
# Indices 1 2 3 4 5 6 
#
# 1 117.8520 34.1739 64.6917 0.0000 0.0000 0.0000
# 2 34.1739 157.4885 51.6293 0.0000 0.0000 0.0000
# 3 64.6917 51.6293 138.7408 0.0000 0.0000 0.0000
# 4 0.0000 0.0000 0.0000 41.9742 0.0000 0.0000
# 5 0.0000 0.0000 0.0000 0.0000 35.5818 0.0000
# 6 0.0000 0.0000 0.0000 0.0000 0.0000 29.8855
#
#
#
# Elastic Compliance Matrix: (Units=1/GPa)
#
#
# Indices 1 2 3 4 5 6 
#
# 1 0.011501 -0.000840 -0.005050 0.000000 0.000000 0.000000
# 2 -0.000840 0.007293 -0.002322 0.000000 0.000000 0.000000
# 3 -0.005050 -0.002322 0.010427 0.000000 0.000000 0.000000
# 4 0.000000 0.000000 0.000000 0.023824 0.000000 0.000000
# 5 0.000000 0.000000 0.000000 0.000000 0.028104 0.000000
# 6 0.000000 0.000000 0.000000 0.000000 0.000000 0.033461
#
#
# Mechanical properties :
#
#
# Convention : Reuss Voigt Hill
#
# Bulk Modulus (GPa) = 78.14960 79.45233 78.80096
# Shear Modulus (GPa) = 36.95484 39.06072 38.00778
#
# Velocity S-wave (km/s) = 4.10005 4.21526 4.15805
# Velocity P-wave (km/s) = 7.61338 7.73520 7.67453
#
# Compressibility (1/GPa) = 0.01279597
#
# Stress axis : x y z
#
# Youngs Moduli (GPa) = 86.94991 137.11237 95.90871
#
# Poissons Ratio (x) = 0.11519 0.48434
# Poissons Ratio (y) = 0.07304 0.22273
# Poissons Ratio (z) = 0.43910 0.31842
#
# Static dielectric constant tensor:
#      x y z
#    x 1.851360 0.000000 0.000000 
#    y 0.000000 1.777190 0.000000 
#    z 0.000000 0.000000 1.835800 
# 
# From -- ./inp_files/23470.got.cif
#   From: 2010.05.17/outbox.cif.g08.bks.cpg/sg52_12_cif.got.tgz:23470.got - 2010.06.03 12:15:38.
