data_PCOD9413444
_publ_section_title
;
Structure prediction by ZEFSAII (Michael W. Deem and Ramdas Pophale) SiO2 
 PCOD9413444
Probable space group: P N N A
;
_chemical_formula_sum "Si O2"
_cell_formula_units_Z 24
_cell_length_a 7.610194
_cell_length_b 5.120861
_cell_length_c 28.338863
_cell_angle_alpha 90.000000
_cell_angle_beta 90.000000
_cell_angle_gamma 90.000000
_cell_volume 1104.386622
_symmetry_space_group_name_H-M "P N N A"
_symmetry_group_IT_number 52
_symmetry_cell_setting 'orthorhombic'
loop_
_space_group_symop_operation_xyz
x,y,z
1/2-x,-y,z
x,1/2-y,1/2-z
1/2-x,1/2+y,1/2-z
-x,-y,-z
1/2+x,y,-z
-x,1/2+y,1/2+z
1/2+x,1/2-y,1/2+z
loop_
_atom_site_type_symbol
_atom_site_label
_atom_site_fract_x
_atom_site_fract_y
_atom_site_fract_z
Si Si1 0.877452 0.250562 0.301102
Si Si2 0.750000 0.500000 0.030867
Si Si3 0.562614 0.650874 0.402902
Si Si4 0.750000 0.500000 0.535863
O O1 0.750000 0.500000 0.298620
O O2 0.970963 0.250000 0.250000
O O3 0.986050 0.279761 0.349204
O O4 0.750000 0.000000 0.306270
O O5 0.595849 0.588978 0.066285
O O6 0.774771 0.749896 0.997612
O O7 0.750000 0.500000 0.401777
O O8 0.418451 0.486014 0.430478
#
# Coordination Sequence:
#
# PCOD9413444 Si02
#       4
#     8   4   8   4
#     4   9  18  34  60  88 112 150 200 248 302 364
#     4  12  24  42  60  90 124 168 204 248 304 368
#     4  11  24  41  64  88 124 162 205 254 309 363
#     4  12  28  38  60  92 126 160 210 250 296 368
#
# _framework density 21.731521999999998
#
# number of rings (size 3 to 8) (size 9 to 14) (size 15 to 20)
#    0.000    1.333    3.333    2.000    4.667    0.000 
#    0.000    0.000    0.000   18.000    0.000    0.000 
#    0.000    0.000    0.000    0.000    0.000    0.000 
#
# Total GULP energy -134053.528971 kJ/mol
# GULP energy per Si atom -5585.563707 kJ/mol
# Density = 2.168206 g / cm^3
# Si number density = 21.731522 Si / 1000 Ang^3
#
#
#
# Elastic Constant Matrix: (Units=GPa)
#
#
# Indices 1 2 3 4 5 6 
#
# 1 58.6894 10.6717 45.7304 0.0000 0.0000 0.0000
# 2 10.6717 140.4346 42.6024 0.0000 0.0000 0.0000
# 3 45.7304 42.6024 247.4391 0.0000 0.0000 0.0000
# 4 0.0000 0.0000 0.0000 4.1936 0.0000 0.0000
# 5 0.0000 0.0000 0.0000 0.0000 -16.4259 0.0000
# 6 0.0000 0.0000 0.0000 0.0000 0.0000 13.2564
#
#
#
# Elastic Compliance Matrix: (Units=1/GPa)
#
#
# Indices 1 2 3 4 5 6 
#
# 1 0.019929 -0.000419 -0.003611 0.000000 0.000000 0.000000
# 2 -0.000419 0.007522 -0.001218 0.000000 0.000000 0.000000
# 3 -0.003611 -0.001218 0.004918 0.000000 0.000000 0.000000
# 4 0.000000 0.000000 0.000000 0.238458 0.000000 0.000000
# 5 0.000000 0.000000 0.000000 0.000000 -0.060880 0.000000
# 6 0.000000 0.000000 0.000000 0.000000 0.000000 0.075435
#
#
# Mechanical properties :
#
#
# Convention : Reuss Voigt Hill
#
# Bulk Modulus (GPa) = 45.71663 71.61914 58.66788
# Shear Modulus (GPa) = 16.49245 23.37540 19.93393
#
# Velocity S-wave (km/s) = 2.75784 3.28326 3.03195
# Velocity P-wave (km/s) = 5.58780 6.88483 6.26995
#
# Compressibility (1/GPa) = 0.02187388
#
# Stress axis : x y z
#
# Youngs Moduli (GPa) = 50.17893 132.94369 203.31779
#
# Poissons Ratio (x) = 0.05570 0.73418
# Poissons Ratio (y) = 0.02102 0.24757
# Poissons Ratio (z) = 0.18120 0.16188
#
# Static dielectric constant tensor:
#      x y z
#    x 1.778420 0.000000 0.000000 
#    y 0.000000 1.809980 0.000000 
#    z 0.000000 0.000000 1.871120 
# 
# From -- ./inp_files/39049.got.cif
#   From: 2010.05.17/outbox.cif.g08.bks.cpg/sg52_20_cif.got.tgz:39049.got - 2010.06.03 12:15:38.
