data_PCOD9413918
_publ_section_title
;
Structure prediction by ZEFSAII (Michael W. Deem and Ramdas Pophale) SiO2 
 PCOD9413918
Probable space group: P N N A
;
_chemical_formula_sum "Si O2"
_cell_formula_units_Z 20
_cell_length_a 10.490219
_cell_length_b 5.246773
_cell_length_c 14.265308
_cell_angle_alpha 90.000000
_cell_angle_beta 90.000000
_cell_angle_gamma 90.000000
_cell_volume 785.159668
_symmetry_space_group_name_H-M "P N N A"
_symmetry_group_IT_number 52
_symmetry_cell_setting 'orthorhombic'
loop_
_space_group_symop_operation_xyz
x,y,z
1/2-x,-y,z
x,1/2-y,1/2-z
1/2-x,1/2+y,1/2-z
-x,-y,-z
1/2+x,y,-z
-x,1/2+y,1/2+z
1/2+x,1/2-y,1/2+z
loop_
_atom_site_type_symbol
_atom_site_label
_atom_site_fract_x
_atom_site_fract_y
_atom_site_fract_z
Si Si1 0.750000 0.000000 0.083935
Si Si2 0.618338 0.160138 0.542652
Si Si3 0.645111 0.250000 0.250000
Si Si4 0.028356 0.250000 0.250000
O O1 0.765915 0.771739 0.158602
O O2 0.862891 0.924318 0.014277
O O3 0.602325 0.222393 0.652153
O O4 0.750000 0.000000 0.531015
O O5 0.500000 0.000000 0.500000
O O6 0.554407 0.492908 0.254924
#
# Coordination Sequence:
#
# PCOD9413918 Si02
#       4
#     4   8   4   4
#     4  12  28  50  90 120 184 232 304 364 458 546
#     4  12  29  54  86 132 182 243 298 380 463 552
#     4  12  27  51  86 126 170 247 295 366 440 557
#     4  12  29  51  84 128 180 223 309 370 450 531
#
# _framework density 25.472525999999998
#
# number of rings (size 3 to 8) (size 9 to 14) (size 15 to 20)
#    0.000    0.000    4.000    3.600   11.200    3.200 
#    0.000    0.000    0.000    0.000    0.000    0.000 
#    0.000    0.000    0.000    0.000    0.000    0.000 
#
# Total GULP energy -111833.409864 kJ/mol
# GULP energy per Si atom -5591.670493 kJ/mol
# Density = 2.541455 g / cm^3
# Si number density = 25.472526 Si / 1000 Ang^3
#
#
#
# Elastic Constant Matrix: (Units=GPa)
#
#
# Indices 1 2 3 4 5 6 
#
# 1 174.1988 81.4960 89.8058 0.0000 0.0000 0.0000
# 2 81.4960 166.6963 57.1043 0.0000 0.0000 0.0000
# 3 89.8058 57.1043 284.8625 0.0000 0.0000 0.0000
# 4 0.0000 0.0000 0.0000 48.7272 0.0000 0.0000
# 5 0.0000 0.0000 0.0000 0.0000 -33.2225 0.0000
# 6 0.0000 0.0000 0.0000 0.0000 0.0000 65.6274
#
#
#
# Elastic Compliance Matrix: (Units=1/GPa)
#
#
# Indices 1 2 3 4 5 6 
#
# 1 0.008339 -0.003410 -0.001945 0.000000 0.000000 0.000000
# 2 -0.003410 0.007836 -0.000496 0.000000 0.000000 0.000000
# 3 -0.001945 -0.000496 0.004223 0.000000 0.000000 0.000000
# 4 0.000000 0.000000 0.000000 0.020522 0.000000 0.000000
# 5 0.000000 0.000000 0.000000 0.000000 -0.030100 0.000000
# 6 0.000000 0.000000 0.000000 0.000000 0.000000 0.015238
#
#
# Mechanical properties :
#
#
# Convention : Reuss Voigt Hill
#
# Bulk Modulus (GPa) = 115.00394 120.28551 117.64473
# Shear Modulus (GPa) = 122.97358 42.71652 82.84505
#
# Velocity S-wave (km/s) = 6.95570 4.09952 5.70911
# Velocity P-wave (km/s) = 10.47641 8.35058 9.47332
#
# Compressibility (1/GPa) = 0.00869535
#
# Stress axis : x y z
#
# Youngs Moduli (GPa) = 119.91941 127.61528 236.79325
#
# Poissons Ratio (x) = 0.43522 0.46063
# Poissons Ratio (y) = 0.40898 0.11737
# Poissons Ratio (z) = 0.23328 0.06325
#
# Static dielectric constant tensor:
#      x y z
#    x 2.069380 0.000000 0.000000 
#    y 0.000000 1.968130 0.000000 
#    z 0.000000 0.000000 2.033220 
# 
# From -- ./inp_files/25245.got.cif
#   From: 2010.05.17/outbox.cif.g08.bks.cpg/sg52_13_cif.got.tgz:25245.got - 2010.06.03 12:15:38.
