data_PCOD9413345
_publ_section_title
;
Structure prediction by ZEFSAII (Michael W. Deem and Ramdas Pophale) SiO2 
 PCOD9413345
Probable space group: P N N A
;
_chemical_formula_sum "Si O2"
_cell_formula_units_Z 40
_cell_length_a 25.455663
_cell_length_b 8.528180
_cell_length_c 8.344619
_cell_angle_alpha 90.000000
_cell_angle_beta 90.000000
_cell_angle_gamma 90.000000
_cell_volume 1811.537311
_symmetry_space_group_name_H-M "P N N A"
_symmetry_group_IT_number 52
_symmetry_cell_setting 'orthorhombic'
loop_
_space_group_symop_operation_xyz
x,y,z
1/2-x,-y,z
x,1/2-y,1/2-z
1/2-x,1/2+y,1/2-z
-x,-y,-z
1/2+x,y,-z
-x,1/2+y,1/2+z
1/2+x,1/2-y,1/2+z
loop_
_atom_site_type_symbol
_atom_site_label
_atom_site_fract_x
_atom_site_fract_y
_atom_site_fract_z
Si Si1 0.661697 0.578585 0.279212
Si Si2 0.795032 0.750000 0.750000
Si Si3 0.250000 0.000000 0.019106
Si Si4 0.538048 0.932622 0.747799
Si Si5 0.381010 0.608075 0.020069
Si Si6 0.931269 0.933172 0.088806
O O1 0.683315 0.750000 0.250000
O O2 0.700746 0.496229 0.400751
O O3 0.606121 0.577998 0.368424
O O4 0.647976 0.492341 0.115483
O O5 0.758304 0.649046 0.633261
O O6 0.835998 0.642304 0.848626
O O7 0.555272 0.750000 0.750000
O O8 0.474637 0.926097 0.769723
O O9 0.569191 0.021823 0.606015
O O10 0.549546 0.027208 0.910702
O O11 0.400288 0.770340 0.938127
#
# Coordination Sequence:
#
# PCOD9413345 Si02
#       6
#     8   4   4   8   8   8
#     4  12  28  45  73 107 149 187 257 317 378 449
#     4  12  28  50  78 106 148 194 256 314 390 466
#     4  12  30  50  76 110 138 200 254 322 400 454
#     4  11  23  41  72 106 150 200 254 295 374 450
#     4  12  24  48  74 105 154 202 242 324 374 455
#     4  11  24  45  68 107 151 200 253 306 367 452
#
# _framework density 22.080694000000001
#
# number of rings (size 3 to 8) (size 9 to 14) (size 15 to 20)
#    0.000    0.400    4.000    3.000    5.600    6.400 
#    1.800    0.000    0.000    0.000    0.000    0.000 
#    0.000    0.000    0.000    0.000    0.000    0.000 
#
# Total GULP energy -223315.386873 kJ/mol
# GULP energy per Si atom -5582.884672 kJ/mol
# Density = 2.203044 g / cm^3
# Si number density = 22.080694 Si / 1000 Ang^3
#
#
#
# Elastic Constant Matrix: (Units=GPa)
#
#
# Indices 1 2 3 4 5 6 
#
# 1 77.1711 13.4385 49.1306 0.0000 0.0000 0.0000
# 2 13.4385 72.5252 32.7843 0.0000 0.0000 0.0000
# 3 49.1306 32.7843 131.7341 0.0000 0.0000 0.0000
# 4 0.0000 0.0000 0.0000 -42.8708 0.0000 0.0000
# 5 0.0000 0.0000 0.0000 0.0000 19.0695 0.0000
# 6 0.0000 0.0000 0.0000 0.0000 0.0000 58.3375
#
#
#
# Elastic Compliance Matrix: (Units=1/GPa)
#
#
# Indices 1 2 3 4 5 6 
#
# 1 0.017000 -0.000320 -0.006260 0.000000 0.000000 0.000000
# 2 -0.000320 0.015542 -0.003749 0.000000 0.000000 0.000000
# 3 -0.006260 -0.003749 0.010859 0.000000 0.000000 0.000000
# 4 0.000000 0.000000 0.000000 -0.023326 0.000000 0.000000
# 5 0.000000 0.000000 0.000000 0.000000 0.052440 0.000000
# 6 0.000000 0.000000 0.000000 0.000000 0.000000 0.017142
#
#
# Mechanical properties :
#
#
# Convention : Reuss Voigt Hill
#
# Bulk Modulus (GPa) = 43.97045 52.45970 48.21508
# Shear Modulus (GPa) = 42.41075 19.31238 30.86156
#
# Velocity S-wave (km/s) = 4.38735 2.96062 3.74260
# Velocity P-wave (km/s) = 6.75440 5.95792 6.36862
#
# Compressibility (1/GPa) = 0.02274254
#
# Stress axis : x y z
#
# Youngs Moduli (GPa) = 58.82492 64.34138 92.09133
#
# Poissons Ratio (x) = 0.02059 0.57653
# Poissons Ratio (y) = 0.01882 0.34521
# Poissons Ratio (z) = 0.36827 0.24119
#
# Static dielectric constant tensor:
#      x y z
#    x 1.855970 0.000000 0.000000 
#    y 0.000000 2.155700 0.000000 
#    z 0.000000 0.000000 1.857700 
# 
# From -- ./inp_files/14072.got.cif
#   From: 2010.05.17/outbox.cif.g08.bks.cpg/sg52_8_cif.got.tgz:14072.got - 2010.06.03 12:15:38.
