data_PCOD9413411
_publ_section_title
;
Structure prediction by ZEFSAII (Michael W. Deem and Ramdas Pophale) SiO2 
 PCOD9413411
Probable space group: P N N A
;
_chemical_formula_sum "Si O2"
_cell_formula_units_Z 24
_cell_length_a 12.033506
_cell_length_b 7.924506
_cell_length_c 9.934807
_cell_angle_alpha 90.000000
_cell_angle_beta 90.000000
_cell_angle_gamma 90.000000
_cell_volume 947.379127
_symmetry_space_group_name_H-M "P N N A"
_symmetry_group_IT_number 52
_symmetry_cell_setting 'orthorhombic'
loop_
_space_group_symop_operation_xyz
x,y,z
1/2-x,-y,z
x,1/2-y,1/2-z
1/2-x,1/2+y,1/2-z
-x,-y,-z
1/2+x,y,-z
-x,1/2+y,1/2+z
1/2+x,1/2-y,1/2+z
loop_
_atom_site_type_symbol
_atom_site_label
_atom_site_fract_x
_atom_site_fract_y
_atom_site_fract_z
Si Si1 0.128212 0.925418 0.020112
Si Si2 0.862491 0.049159 0.409780
Si Si3 0.907556 0.557280 0.796609
O O1 0.250000 0.000000 0.976058
O O2 0.138810 0.934606 0.182760
O O3 0.124756 0.742423 0.953164
O O4 0.000000 0.000000 0.000000
O O5 0.964922 0.004819 0.317108
O O6 0.750000 0.000000 0.338745
O O7 0.863189 0.949838 0.551401
O O8 0.897923 0.750000 0.750000
#
# Coordination Sequence:
#
# PCOD9413411 Si02
#       3
#     8   8   8
#     4  12  26  47  76 106 147 192 244 302 369 441
#     4  11  25  45  74 104 145 193 246 303 367 441
#     4  11  23  46  71 105 142 187 248 299 366 432
#
# _framework density 25.333044999999998
#
# number of rings (size 3 to 8) (size 9 to 14) (size 15 to 20)
#    0.000    0.667    3.333    4.000    4.667    1.333 
#    0.000    0.000    0.000    0.000    0.000    0.000 
#    0.000    0.000    0.000    0.000    0.000    0.000 
#
# Total GULP energy -134153.133990 kJ/mol
# GULP energy per Si atom -5589.713916 kJ/mol
# Density = 2.527539 g / cm^3
# Si number density = 25.333045 Si / 1000 Ang^3
#
#
#
# Elastic Constant Matrix: (Units=GPa)
#
#
# Indices 1 2 3 4 5 6 
#
# 1 222.9155 37.6573 28.1576 0.0000 0.0000 0.0000
# 2 37.6573 53.0324 23.6472 0.0000 0.0000 0.0000
# 3 28.1576 23.6472 116.8549 0.0000 0.0000 0.0000
# 4 0.0000 0.0000 0.0000 27.8708 0.0000 0.0000
# 5 0.0000 0.0000 0.0000 0.0000 -100.8601 0.0000
# 6 0.0000 0.0000 0.0000 0.0000 0.0000 36.9780
#
#
#
# Elastic Compliance Matrix: (Units=1/GPa)
#
#
# Indices 1 2 3 4 5 6 
#
# 1 0.005129 -0.003398 -0.000548 0.000000 0.000000 0.000000
# 2 -0.003398 0.022977 -0.003831 0.000000 0.000000 0.000000
# 3 -0.000548 -0.003831 0.009465 0.000000 0.000000 0.000000
# 4 0.000000 0.000000 0.000000 0.035880 0.000000 0.000000
# 5 0.000000 0.000000 0.000000 0.000000 -0.009915 0.000000
# 6 0.000000 0.000000 0.000000 0.000000 0.000000 0.027043
#
#
# Mechanical properties :
#
#
# Convention : Reuss Voigt Hill
#
# Bulk Modulus (GPa) = 45.41877 63.52523 54.47200
# Shear Modulus (GPa) = 44.06332 13.02046 28.54189
#
# Velocity S-wave (km/s) = 4.17509 2.26955 3.36023
# Velocity P-wave (km/s) = 6.41946 5.65670 6.05011
#
# Compressibility (1/GPa) = 0.02201733
#
# Stress axis : x y z
#
# Youngs Moduli (GPa) = 194.96065 43.52129 105.65207
#
# Poissons Ratio (x) = 0.14787 0.05794
# Poissons Ratio (y) = 0.66241 0.40476
# Poissons Ratio (z) = 0.10691 0.16673
#
# Static dielectric constant tensor:
#      x y z
#    x 1.638900 0.000000 0.000000 
#    y 0.000000 1.961800 0.000000 
#    z 0.000000 0.000000 1.986780 
# 
# From -- ./inp_files/17395.got.cif
#   From: 2010.05.17/outbox.cif.g08.bks.cpg/sg52_9_cif.got.tgz:17395.got - 2010.06.03 12:15:38.
