data_PCOD9413267
_publ_section_title
;
Structure prediction by ZEFSAII (Michael W. Deem and Ramdas Pophale) SiO2 
 PCOD9413267
Probable space group: P N N A
;
_chemical_formula_sum "Si O2"
_cell_formula_units_Z 40
_cell_length_a 9.539104
_cell_length_b 11.021397
_cell_length_c 17.822655
_cell_angle_alpha 90.000000
_cell_angle_beta 90.000000
_cell_angle_gamma 90.000000
_cell_volume 1873.771506
_symmetry_space_group_name_H-M "P N N A"
_symmetry_group_IT_number 52
_symmetry_cell_setting 'orthorhombic'
loop_
_space_group_symop_operation_xyz
x,y,z
1/2-x,-y,z
x,1/2-y,1/2-z
1/2-x,1/2+y,1/2-z
-x,-y,-z
1/2+x,y,-z
-x,1/2+y,1/2+z
1/2+x,1/2-y,1/2+z
loop_
_atom_site_type_symbol
_atom_site_label
_atom_site_fract_x
_atom_site_fract_y
_atom_site_fract_z
Si Si1 0.559537 0.315520 0.508389
Si Si2 0.750000 0.000000 0.642200
Si Si3 0.010659 0.606144 0.772435
Si Si4 0.250000 0.500000 0.881757
Si Si5 0.918589 0.988743 0.116892
Si Si6 0.310196 0.168873 0.490880
O O1 0.547771 0.361006 0.422651
O O2 0.492777 0.414527 0.562698
O O3 0.462821 0.199084 0.521393
O O4 0.720398 0.288779 0.526822
O O5 0.675718 0.909132 0.583742
O O6 0.861124 0.924363 0.690553
O O7 0.025445 0.750000 0.750000
O O8 0.130167 0.557127 0.829330
O O9 0.028857 0.522430 0.698909
O O10 0.220495 0.394144 0.942784
O O11 0.750000 0.000000 0.115637
#
# Coordination Sequence:
#
# PCOD9413267 Si02
#       6
#     8   4   8   4   8   8
#     4  11  23  40  71  95 127 175 219 278 337 389
#     4  11  26  44  64  99 136 174 224 279 332 400
#     4  12  26  45  69  98 142 182 221 279 338 394
#     4  11  24  42  72  99 132 180 226 273 330 412
#     4  11  23  43  64  97 133 171 225 275 328 406
#     4  11  22  43  67  98 132 172 227 275 333 395
#
# _framework density 21.34732
#
# number of rings (size 3 to 8) (size 9 to 14) (size 15 to 20)
#    0.000    0.800    3.000    4.800    0.000    6.400 
#    0.000    3.000    0.000    0.000    0.000    0.000 
#    0.000    0.000    0.000    0.000    0.000    0.000 
#
# Total GULP energy -223225.264772 kJ/mol
# GULP energy per Si atom -5580.631619 kJ/mol
# Density = 2.129873 g / cm^3
# Si number density = 21.347320 Si / 1000 Ang^3
#
#
#
# Elastic Constant Matrix: (Units=GPa)
#
#
# Indices 1 2 3 4 5 6 
#
# 1 74.8963 15.6466 25.2063 0.0000 0.0000 0.0000
# 2 15.6466 62.3015 33.0438 0.0000 0.0000 0.0000
# 3 25.2063 33.0438 122.6697 0.0000 0.0000 0.0000
# 4 0.0000 0.0000 0.0000 27.0452 0.0000 0.0000
# 5 0.0000 0.0000 0.0000 0.0000 16.7403 0.0000
# 6 0.0000 0.0000 0.0000 0.0000 0.0000 32.2807
#
#
#
# Elastic Compliance Matrix: (Units=1/GPa)
#
#
# Indices 1 2 3 4 5 6 
#
# 1 0.014652 -0.002430 -0.002356 0.000000 0.000000 0.000000
# 2 -0.002430 0.019130 -0.004654 0.000000 0.000000 0.000000
# 3 -0.002356 -0.004654 0.009890 0.000000 0.000000 0.000000
# 4 0.000000 0.000000 0.000000 0.036975 0.000000 0.000000
# 5 0.000000 0.000000 0.000000 0.000000 0.059736 0.000000
# 6 0.000000 0.000000 0.000000 0.000000 0.000000 0.030978
#
#
# Mechanical properties :
#
#
# Convention : Reuss Voigt Hill
#
# Bulk Modulus (GPa) = 40.33606 45.29565 42.81585
# Shear Modulus (GPa) = 25.18830 27.61130 26.39980
#
# Velocity S-wave (km/s) = 3.43873 3.60033 3.52046
# Velocity P-wave (km/s) = 5.89090 6.20868 6.05187
#
# Compressibility (1/GPa) = 0.02479171
#
# Stress axis : x y z
#
# Youngs Moduli (GPa) = 68.24798 52.27525 101.11557
#
# Poissons Ratio (x) = 0.12704 0.23825
# Poissons Ratio (y) = 0.16586 0.47055
# Poissons Ratio (z) = 0.16080 0.24327
#
# Static dielectric constant tensor:
#      x y z
#    x 1.745300 0.000000 0.000000 
#    y 0.000000 1.854250 0.000000 
#    z 0.000000 0.000000 1.754420 
# 
# From -- ./inp_files/30903.got.cif
#   From: 2010.05.17/outbox.cif.g08.bks.cpg/sg52_16_cif.got.tgz:30903.got - 2010.06.03 12:15:38.
