data_PCOD9413006
_publ_section_title
;
Structure prediction by ZEFSAII (Michael W. Deem and Ramdas Pophale) SiO2 
 PCOD9413006
Probable space group: P N N A
;
_chemical_formula_sum "Si O2"
_cell_formula_units_Z 40
_cell_length_a 11.416060
_cell_length_b 7.028574
_cell_length_c 18.285882
_cell_angle_alpha 90.000000
_cell_angle_beta 90.000000
_cell_angle_gamma 90.000000
_cell_volume 1467.233983
_symmetry_space_group_name_H-M "P N N A"
_symmetry_group_IT_number 52
_symmetry_cell_setting 'orthorhombic'
loop_
_space_group_symop_operation_xyz
x,y,z
1/2-x,-y,z
x,1/2-y,1/2-z
1/2-x,1/2+y,1/2-z
-x,-y,-z
1/2+x,y,-z
-x,1/2+y,1/2+z
1/2+x,1/2-y,1/2+z
loop_
_atom_site_type_symbol
_atom_site_label
_atom_site_fract_x
_atom_site_fract_y
_atom_site_fract_z
Si Si1 0.342550 0.375390 0.467411
Si Si2 0.045706 0.351241 0.189046
Si Si3 0.866331 0.876837 0.362017
Si Si4 0.836613 0.623282 0.968153
Si Si5 0.440802 0.491958 0.621166
O O1 0.306304 0.626340 0.468203
O O2 0.400855 0.385704 0.547579
O O3 0.437071 0.401340 0.401514
O O4 0.312221 0.128051 0.465924
O O5 0.128146 0.250000 0.250000
O O6 0.969115 0.541270 0.188475
O O7 0.108862 0.368006 0.111780
O O8 0.959588 0.170986 0.179503
O O9 0.892521 0.885895 0.450332
O O10 0.852926 0.652989 0.351862
O O11 0.750000 0.000000 0.351946
#
# Coordination Sequence:
#
# PCOD9413006 Si02
#       5
#     8   8   8   8   8
#     4  11  19  37  69 106 126 170 217 282 353 389
#     4  12  27  45  62 100 141 185 228 274 348 428
#     4  11  24  43  72 102 125 178 236 294 348 396
#     4  11  21  41  71 103 136 169 234 287 342 407
#     4  11  22  41  69  97 143 167 222 286 337 413
#
# _framework density 27.262183
#
# number of rings (size 3 to 8) (size 9 to 14) (size 15 to 20)
#    0.000    0.800    4.000    5.400    0.000    0.800 
#    7.200    0.000    0.000    0.000    0.000    0.000 
#    0.000    0.000    0.000    0.000    0.000    0.000 
#
# Total GULP energy -223280.186493 kJ/mol
# GULP energy per Si atom -5582.004662 kJ/mol
# Density = 2.720013 g / cm^3
# Si number density = 27.262183 Si / 1000 Ang^3
#
#
#
# Elastic Constant Matrix: (Units=GPa)
#
#
# Indices 1 2 3 4 5 6 
#
# 1 57.5293 32.6241 12.1107 0.0000 0.0000 0.0000
# 2 32.6241 222.1691 34.2813 0.0000 0.0000 0.0000
# 3 12.1107 34.2813 85.2732 0.0000 0.0000 0.0000
# 4 0.0000 0.0000 0.0000 60.7138 0.0000 0.0000
# 5 0.0000 0.0000 0.0000 0.0000 -1.0921 0.0000
# 6 0.0000 0.0000 0.0000 0.0000 0.0000 70.5598
#
#
#
# Elastic Compliance Matrix: (Units=1/GPa)
#
#
# Indices 1 2 3 4 5 6 
#
# 1 0.019189 -0.002556 -0.001698 0.000000 0.000000 0.000000
# 2 -0.002556 0.005139 -0.001703 0.000000 0.000000 0.000000
# 3 -0.001698 -0.001703 0.012653 0.000000 0.000000 0.000000
# 4 0.000000 0.000000 0.000000 0.016471 0.000000 0.000000
# 5 0.000000 0.000000 0.000000 0.000000 -0.915667 0.000000
# 6 0.000000 0.000000 0.000000 0.000000 0.000000 0.014172
#
#
# Mechanical properties :
#
#
# Convention : Reuss Voigt Hill
#
# Bulk Modulus (GPa) = 39.89179 58.11153 49.00166
# Shear Modulus (GPa) = -6.04030 45.09999 19.52985
#
# Velocity S-wave (km/s) = -1.49011 4.07173 2.67942
# Velocity P-wave (km/s) = 3.42109 6.59298 5.25220
#
# Compressibility (1/GPa) = 0.02506781
#
# Stress axis : x y z
#
# Youngs Moduli (GPa) = 52.11249 194.58398 79.03388
#
# Poissons Ratio (x) = 0.49732 0.13419
# Poissons Ratio (y) = 0.13319 0.13460
# Poissons Ratio (z) = 0.08848 0.33139
#
# Static dielectric constant tensor:
#      x y z
#    x 2.183460 0.000000 0.000000 
#    y 0.000000 2.609480 0.000000 
#    z 0.000000 0.000000 2.146610 
# 
# From -- ./inp_files/33473.got.cif
#   From: 2010.05.17/outbox.cif.g08.bks.cpg/sg52_17_cif.got.tgz:33473.got - 2010.06.03 12:15:38.
