data_PCOD9413127
_publ_section_title
;
Structure prediction by ZEFSAII (Michael W. Deem and Ramdas Pophale) SiO2 
 PCOD9413127
Probable space group: P N N A
;
_chemical_formula_sum "Si O2"
_cell_formula_units_Z 36
_cell_length_a 18.791482
_cell_length_b 10.094829
_cell_length_c 10.065032
_cell_angle_alpha 90.000000
_cell_angle_beta 90.000000
_cell_angle_gamma 90.000000
_cell_volume 1909.304337
_symmetry_space_group_name_H-M "P N N A"
_symmetry_group_IT_number 52
_symmetry_cell_setting 'orthorhombic'
loop_
_space_group_symop_operation_xyz
x,y,z
1/2-x,-y,z
x,1/2-y,1/2-z
1/2-x,1/2+y,1/2-z
-x,-y,-z
1/2+x,y,-z
-x,1/2+y,1/2+z
1/2+x,1/2-y,1/2+z
loop_
_atom_site_type_symbol
_atom_site_label
_atom_site_fract_x
_atom_site_fract_y
_atom_site_fract_z
Si Si1 0.469324 0.598849 0.607644
Si Si2 0.944525 0.680469 0.895026
Si Si3 0.670782 0.545079 0.934237
Si Si4 0.905251 0.250000 0.750000
Si Si5 0.903346 0.396631 0.189474
O O1 0.500000 0.500000 0.500000
O O2 0.437860 0.720357 0.520962
O O3 0.538951 0.648088 0.685498
O O4 0.418381 0.513276 0.704030
O O5 0.940761 0.750000 0.750000
O O6 0.883788 0.572065 0.900439
O O7 0.023548 0.617156 0.896183
O O8 0.750000 0.500000 0.900814
O O9 0.644008 0.674084 0.854975
O O10 0.660210 0.571320 0.090470
O O11 0.893344 0.250000 0.250000
#
# Coordination Sequence:
#
# PCOD9413127 Si02
#       5
#     8   8   8   4   8
#     4  12  20  36  70  98 117 155 207 272 314 363
#     4  11  21  39  66  96 125 156 215 262 313 372
#     4  12  26  42  60  89 131 170 205 257 316 388
#     4  12  22  38  66  90 120 162 210 252 320 374
#     4  11  21  41  66  92 127 158 213 261 317 371
#
# _framework density 18.855034
#
# number of rings (size 3 to 8) (size 9 to 14) (size 15 to 20)
#    0.000    0.444    8.889    2.000    1.556    0.000 
#    4.000    0.000    0.000    0.000    0.000    0.000 
#    0.000    0.000    0.000    0.000    0.000    0.000 
#
# Total GULP energy -201043.591564 kJ/mol
# GULP energy per Si atom -5584.544210 kJ/mol
# Density = 1.881212 g / cm^3
# Si number density = 18.855034 Si / 1000 Ang^3
#
#
#
# Elastic Constant Matrix: (Units=GPa)
#
#
# Indices 1 2 3 4 5 6 
#
# 1 49.8353 15.2733 10.8513 0.0000 0.0000 0.0000
# 2 15.2733 61.8195 31.7535 0.0000 0.0000 0.0000
# 3 10.8513 31.7535 95.0583 0.0000 0.0000 0.0000
# 4 0.0000 0.0000 0.0000 61.5324 0.0000 0.0000
# 5 0.0000 0.0000 0.0000 0.0000 16.5906 0.0000
# 6 0.0000 0.0000 0.0000 0.0000 0.0000 13.1734
#
#
#
# Elastic Compliance Matrix: (Units=1/GPa)
#
#
# Indices 1 2 3 4 5 6 
#
# 1 0.021764 -0.004950 -0.000831 0.000000 0.000000 0.000000
# 2 -0.004950 0.020652 -0.006334 0.000000 0.000000 0.000000
# 3 -0.000831 -0.006334 0.012730 0.000000 0.000000 0.000000
# 4 0.000000 0.000000 0.000000 0.016252 0.000000 0.000000
# 5 0.000000 0.000000 0.000000 0.000000 0.060275 0.000000
# 6 0.000000 0.000000 0.000000 0.000000 0.000000 0.075911
#
#
# Mechanical properties :
#
#
# Convention : Reuss Voigt Hill
#
# Bulk Modulus (GPa) = 32.34436 35.82992 34.08714
# Shear Modulus (GPa) = 20.65092 28.18160 24.41626
#
# Velocity S-wave (km/s) = 3.31304 3.87026 3.60244
# Velocity P-wave (km/s) = 5.64150 6.24628 5.95157
#
# Compressibility (1/GPa) = 0.03091729
#
# Stress axis : x y z
#
# Youngs Moduli (GPa) = 45.94706 48.42037 78.55188
#
# Poissons Ratio (x) = 0.23970 0.06527
# Poissons Ratio (y) = 0.22745 0.49752
# Poissons Ratio (z) = 0.03818 0.30668
#
# Static dielectric constant tensor:
#      x y z
#    x 1.596520 0.000000 0.000000 
#    y 0.000000 1.824610 0.000000 
#    z 0.000000 0.000000 1.744360 
# 
# From -- ./inp_files/13062.got.cif
#   From: 2010.05.17/outbox.cif.g08.bks.cpg/sg52_7_cif.got.tgz:13062.got - 2010.06.03 12:15:38.
