data_PCOD9413763
_publ_section_title
;
Structure prediction by ZEFSAII (Michael W. Deem and Ramdas Pophale) SiO2 
 PCOD9413763
Probable space group: P N N A
;
_chemical_formula_sum "Si O2"
_cell_formula_units_Z 40
_cell_length_a 10.874803
_cell_length_b 8.608231
_cell_length_c 20.991151
_cell_angle_alpha 90.000000
_cell_angle_beta 90.000000
_cell_angle_gamma 90.000000
_cell_volume 1965.040763
_symmetry_space_group_name_H-M "P N N A"
_symmetry_group_IT_number 52
_symmetry_cell_setting 'orthorhombic'
loop_
_space_group_symop_operation_xyz
x,y,z
1/2-x,-y,z
x,1/2-y,1/2-z
1/2-x,1/2+y,1/2-z
-x,-y,-z
1/2+x,y,-z
-x,1/2+y,1/2+z
1/2+x,1/2-y,1/2+z
loop_
_atom_site_type_symbol
_atom_site_label
_atom_site_fract_x
_atom_site_fract_y
_atom_site_fract_z
Si Si1 0.250000 0.500000 0.449325
Si Si2 0.002485 0.518558 0.626824
Si Si3 0.331156 0.773840 0.950110
Si Si4 0.374614 0.566923 0.744456
Si Si5 0.500000 0.500000 0.000000
Si Si6 0.610675 0.862169 0.372687
O O1 0.128685 0.488733 0.406906
O O2 0.244272 0.648089 0.496413
O O3 0.094485 0.410432 0.585296
O O4 0.009792 0.452523 0.698152
O O5 0.049294 0.693749 0.634784
O O6 0.424175 0.663596 0.987603
O O7 0.246041 0.677983 0.901210
O O8 0.250000 0.500000 0.712522
O O9 0.354170 0.750000 0.750000
O O10 0.388169 0.464406 0.808424
O O11 0.464574 0.448824 0.927264
#
# Coordination Sequence:
#
# PCOD9413763 Si02
#       6
#     4   8   8   8   4   8
#     4  12  24  44  70 100 142 194 228 290 364 438
#     4  12  24  44  71  98 138 187 235 292 356 431
#     4  12  23  43  72 104 142 179 239 295 361 425
#     4  12  25  44  69 102 137 179 238 302 363 427
#     4  12  24  38  64 110 142 174 224 290 362 426
#     4  12  24  43  71 103 138 183 234 302 356 422
#
# _framework density 20.355813000000001
#
# number of rings (size 3 to 8) (size 9 to 14) (size 15 to 20)
#    0.000    0.000    4.000    9.000    0.000    0.000 
#    0.000    2.000    4.400    0.000    0.000    0.000 
#    0.000    0.000    0.000    0.000    0.000    0.000 
#
# Total GULP energy -222687.343463 kJ/mol
# GULP energy per Si atom -5567.183587 kJ/mol
# Density = 2.030948 g / cm^3
# Si number density = 20.355813 Si / 1000 Ang^3
#
#
#
# Elastic Constant Matrix: (Units=GPa)
#
#
# Indices 1 2 3 4 5 6 
#
# 1 79.2328 41.7232 71.1373 0.0000 0.0000 0.0000
# 2 41.7232 127.7057 51.8177 0.0000 0.0000 0.0000
# 3 71.1373 51.8177 129.8795 0.0000 0.0000 0.0000
# 4 0.0000 0.0000 0.0000 30.8866 0.0000 0.0000
# 5 0.0000 0.0000 0.0000 0.0000 40.5419 0.0000
# 6 0.0000 0.0000 0.0000 0.0000 0.0000 27.4808
#
#
#
# Elastic Compliance Matrix: (Units=1/GPa)
#
#
# Indices 1 2 3 4 5 6 
#
# 1 0.025902 -0.003229 -0.012899 0.000000 0.000000 0.000000
# 2 -0.003229 0.009745 -0.002120 0.000000 0.000000 0.000000
# 3 -0.012899 -0.002120 0.015610 0.000000 0.000000 0.000000
# 4 0.000000 0.000000 0.000000 0.032377 0.000000 0.000000
# 5 0.000000 0.000000 0.000000 0.000000 0.024666 0.000000
# 6 0.000000 0.000000 0.000000 0.000000 0.000000 0.036389
#
#
# Mechanical properties :
#
#
# Convention : Reuss Voigt Hill
#
# Bulk Modulus (GPa) = 67.73660 74.01937 70.87798
# Shear Modulus (GPa) = 26.86653 31.25786 29.06219
#
# Velocity S-wave (km/s) = 3.63691 3.92289 3.78260
# Velocity P-wave (km/s) = 7.14036 7.54722 7.34660
#
# Compressibility (1/GPa) = 0.01476307
#
# Stress axis : x y z
#
# Youngs Moduli (GPa) = 38.60652 102.61186 64.06095
#
# Poissons Ratio (x) = 0.33131 0.82632
# Poissons Ratio (y) = 0.12465 0.13579
# Poissons Ratio (z) = 0.49799 0.21750
#
# Static dielectric constant tensor:
#      x y z
#    x 1.719050 0.000000 0.000000 
#    y 0.000000 1.774210 0.000000 
#    z 0.000000 0.000000 1.736920 
# 
# From -- ./inp_files/32020.got.cif
#   From: 2010.05.17/outbox.cif.g08.bks.cpg/sg52_17_cif.got.tgz:32020.got - 2010.06.03 12:15:38.
