data_PCOD9413968
_publ_section_title
;
Structure prediction by ZEFSAII (Michael W. Deem and Ramdas Pophale) SiO2 
 PCOD9413968
Probable space group: P N N A
;
_chemical_formula_sum "Si O2"
_cell_formula_units_Z 56
_cell_length_a 15.000000
_cell_length_b 9.000000
_cell_length_c 21.000000
_cell_angle_alpha 90.000000
_cell_angle_beta 90.000000
_cell_angle_gamma 90.000000
_cell_volume 2835.000000
_symmetry_space_group_name_H-M "P N N A"
_symmetry_group_IT_number 52
_symmetry_cell_setting 'orthorhombic'
loop_
_space_group_symop_operation_xyz
x,y,z
1/2-x,-y,z
x,1/2-y,1/2-z
1/2-x,1/2+y,1/2-z
-x,-y,-z
1/2+x,y,-z
-x,1/2+y,1/2+z
1/2+x,1/2-y,1/2+z
loop_
_atom_site_type_symbol
_atom_site_label
_atom_site_fract_x
_atom_site_fract_y
_atom_site_fract_z
Si Si1 0.525214 0.279925 0.436293
Si Si2 0.055425 0.789052 0.933771
Si Si3 0.058455 0.492503 0.093749
Si Si4 0.153209 0.076497 0.270972
Si Si5 0.322790 0.879005 0.025613
Si Si6 0.555968 0.008950 0.857468
Si Si7 0.800402 0.133968 0.496395
O O1 0.461306 0.342188 0.493754
O O2 0.523128 0.107208 0.418945
O O3 0.617253 0.340886 0.464016
O O4 0.477968 0.347352 0.374886
O O5 0.981167 0.660783 0.930807
O O6 0.030958 0.892907 0.875559
O O7 0.153049 0.726355 0.940762
O O8 0.100627 0.458418 0.163002
O O9 0.130056 0.564298 0.046212
O O10 0.163393 0.250000 0.250000
O O11 0.096238 0.015284 0.211733
O O12 0.250000 0.000000 0.274556
O O13 0.373604 0.932562 0.089220
O O14 0.266815 0.730834 0.038357
O O15 0.250000 0.000000 0.008554
O O16 0.750000 0.000000 0.464818
#
# Coordination Sequence:
#
# PCOD9413968 Si02
#       7
#     8   8   8   8   8   8   8
#     4  10  21  35  58  82 113 158 190 241 291 346
#     4  10  19  37  56  80 118 154 194 235 291 352
#     4  11  22  39  57  81 123 159 196 232 281 350
#     4  12  28  41  61  86 119 160 200 235 279 348
#     4  11  20  34  57  89 121 147 190 241 300 342
#     4  11  22  39  55  83 121 159 194 226 288 350
#     4  11  20  31  57  88 114 149 188 246 296 333
#
# _framework density 19.753086
#
# number of rings (size 3 to 8) (size 9 to 14) (size 15 to 20)
#    0.000    1.143    1.429    9.429    4.000    0.000 
#    0.000    0.000    0.000    0.000    0.000   15.000 
#    0.000    0.000    0.000    0.000    0.000    0.000 
#
# Total GULP energy -311775.967132 kJ/mol
# GULP energy per Si atom -5567.427984 kJ/mol
# Density = 1.970813 g / cm^3
# Si number density = 19.753086 Si / 1000 Ang^3
#
#
#
# Elastic Constant Matrix: (Units=GPa)
#
#
# Indices 1 2 3 4 5 6 
#
# 1 62.8569 9.6888 33.9672 0.0000 0.0000 0.0000
# 2 9.6888 46.2644 9.2129 0.0000 0.0000 0.0000
# 3 33.9672 9.2129 100.9447 0.0000 0.0000 0.0000
# 4 0.0000 0.0000 0.0000 10.9205 0.0000 0.0000
# 5 0.0000 0.0000 0.0000 0.0000 307.7768 0.0000
# 6 0.0000 0.0000 0.0000 0.0000 0.0000 20.3047
#
#
#
# Elastic Compliance Matrix: (Units=1/GPa)
#
#
# Indices 1 2 3 4 5 6 
#
# 1 0.019813 -0.002874 -0.006405 0.000000 0.000000 0.000000
# 2 -0.002874 0.022432 -0.001080 0.000000 0.000000 0.000000
# 3 -0.006405 -0.001080 0.012160 0.000000 0.000000 0.000000
# 4 0.000000 0.000000 0.000000 0.091571 0.000000 0.000000
# 5 0.000000 0.000000 0.000000 0.000000 0.003249 0.000000
# 6 0.000000 0.000000 0.000000 0.000000 0.000000 0.049250
#
#
# Mechanical properties :
#
#
# Convention : Reuss Voigt Hill
#
# Bulk Modulus (GPa) = 29.68460 35.08929 32.38694
# Shear Modulus (GPa) = 21.69936 78.28021 49.98978
#
# Velocity S-wave (km/s) = 3.31800 6.30201 5.03610
# Velocity P-wave (km/s) = 5.45338 8.41168 7.08857
#
# Compressibility (1/GPa) = 0.03368750
#
# Stress axis : x y z
#
# Youngs Moduli (GPa) = 50.47148 44.57946 82.23591
#
# Poissons Ratio (x) = 0.12812 0.52670
# Poissons Ratio (y) = 0.14505 0.08883
# Poissons Ratio (z) = 0.32325 0.04816
#
# Static dielectric constant tensor:
#      x y z
#    x 1.789940 0.000000 0.000000 
#    y 0.000000 1.851660 0.000000 
#    z 0.000000 0.000000 1.545250 
# 
# From -- ./inp_files/37351.got.cif
#   From: 2010.05.17/outbox.ucp.g08.bks.cvg/sg52_19_cif.got.tgz:37351.got - 2010.06.11 16:30:12.
