data_PCOD9413836
_publ_section_title
;
Structure prediction by ZEFSAII (Michael W. Deem and Ramdas Pophale) SiO2 
 PCOD9413836
Probable space group: P N N A
;
_chemical_formula_sum "Si O2"
_cell_formula_units_Z 32
_cell_length_a 15.122623
_cell_length_b 12.248073
_cell_length_c 6.165085
_cell_angle_alpha 90.000000
_cell_angle_beta 90.000000
_cell_angle_gamma 90.000000
_cell_volume 1141.915480
_symmetry_space_group_name_H-M "P N N A"
_symmetry_group_IT_number 52
_symmetry_cell_setting 'orthorhombic'
loop_
_space_group_symop_operation_xyz
x,y,z
1/2-x,-y,z
x,1/2-y,1/2-z
1/2-x,1/2+y,1/2-z
-x,-y,-z
1/2+x,y,-z
-x,1/2+y,1/2+z
1/2+x,1/2-y,1/2+z
loop_
_atom_site_type_symbol
_atom_site_label
_atom_site_fract_x
_atom_site_fract_y
_atom_site_fract_z
Si Si1 0.210034 0.372377 0.311507
Si Si2 0.357810 0.141116 0.870231
Si Si3 0.920499 0.960981 0.460532
Si Si4 0.456243 0.688834 0.591141
O O1 0.238383 0.250000 0.250000
O O2 0.296274 0.407659 0.442514
O O3 0.126765 0.356305 0.474846
O O4 0.477656 0.009953 0.333331
O O5 0.321176 0.250000 0.750000
O O6 0.371452 0.049748 0.692873
O O7 0.451955 0.178119 0.976696
O O8 0.832693 0.919620 0.597340
O O9 0.942965 0.824017 0.358058
#
# Coordination Sequence:
#
# PCOD9413836 Si02
#       4
#     8   8   8   8
#     4  12  27  54  80 117 170 216 272 348 411 493
#     4  12  28  53  82 125 163 217 283 343 417 498
#     4  12  27  53  83 115 162 221 277 341 417 495
#     4  12  24  51  81 117 162 212 276 338 413 499
#
# _framework density 28.023091000000001
#
# number of rings (size 3 to 8) (size 9 to 14) (size 15 to 20)
#    0.000    0.000    5.000    4.500    0.000    1.000 
#    9.000    0.000    0.000    0.000    0.000    0.000 
#    0.000    0.000    0.000    0.000    0.000    0.000 
#
# Total GULP energy -178230.957519 kJ/mol
# GULP energy per Si atom -5569.717422 kJ/mol
# Density = 2.795931 g / cm^3
# Si number density = 28.023091 Si / 1000 Ang^3
#
#
#
# Elastic Constant Matrix: (Units=GPa)
#
#
# Indices 1 2 3 4 5 6 
#
# 1 148.3940 67.7402 77.4040 0.0000 0.0000 0.0000
# 2 67.7402 178.3324 91.7859 0.0000 0.0000 0.0000
# 3 77.4040 91.7859 151.1763 0.0000 0.0000 0.0000
# 4 0.0000 0.0000 0.0000 -11.3675 0.0000 0.0000
# 5 0.0000 0.0000 0.0000 0.0000 32.8100 0.0000
# 6 0.0000 0.0000 0.0000 0.0000 0.0000 38.0187
#
#
#
# Elastic Compliance Matrix: (Units=1/GPa)
#
#
# Indices 1 2 3 4 5 6 
#
# 1 0.009501 -0.001608 -0.003889 0.000000 0.000000 0.000000
# 2 -0.001608 0.008428 -0.004294 0.000000 0.000000 0.000000
# 3 -0.003889 -0.004294 0.011213 0.000000 0.000000 0.000000
# 4 0.000000 0.000000 0.000000 -0.087970 0.000000 0.000000
# 5 0.000000 0.000000 0.000000 0.000000 0.030478 0.000000
# 6 0.000000 0.000000 0.000000 0.000000 0.000000 0.026303
#
#
# Mechanical properties :
#
#
# Convention : Reuss Voigt Hill
#
# Bulk Modulus (GPa) = 104.58392 105.75143 105.16768
# Shear Modulus (GPa) = 241.30311 27.95710 134.63010
#
# Velocity S-wave (km/s) = 9.28954 3.16198 6.93879
# Velocity P-wave (km/s) = 12.34757 7.15192 10.08991
#
# Compressibility (1/GPa) = 0.00956170
#
# Stress axis : x y z
#
# Youngs Moduli (GPa) = 105.25232 118.64826 89.18274
#
# Poissons Ratio (x) = 0.19073 0.34679
# Poissons Ratio (y) = 0.16920 0.38296
# Poissons Ratio (z) = 0.40928 0.50949
#
# Static dielectric constant tensor:
#      x y z
#    x 2.155940 0.000000 0.000000 
#    y 0.000000 2.657840 0.000000 
#    z 0.000000 0.000000 2.196600 
# 
# From -- ./inp_files/9663.got.cif
#   From: 2010.05.17/outbox.cif.g08.bks.cpg/sg52_5_cif.got.tgz:9663.got - 2010.06.03 12:15:38.
