data_PCOD9413882
_publ_section_title
;
Structure prediction by ZEFSAII (Michael W. Deem and Ramdas Pophale) SiO2 
 PCOD9413882
Probable space group: P N N A
;
_chemical_formula_sum "Si O2"
_cell_formula_units_Z 20
_cell_length_a 14.092894
_cell_length_b 4.814420
_cell_length_c 9.326383
_cell_angle_alpha 90.000000
_cell_angle_beta 90.000000
_cell_angle_gamma 90.000000
_cell_volume 632.786793
_symmetry_space_group_name_H-M "P N N A"
_symmetry_group_IT_number 52
_symmetry_cell_setting 'orthorhombic'
loop_
_space_group_symop_operation_xyz
x,y,z
1/2-x,-y,z
x,1/2-y,1/2-z
1/2-x,1/2+y,1/2-z
-x,-y,-z
1/2+x,y,-z
-x,1/2+y,1/2+z
1/2+x,1/2-y,1/2+z
loop_
_atom_site_type_symbol
_atom_site_label
_atom_site_fract_x
_atom_site_fract_y
_atom_site_fract_z
Si Si1 0.750000 0.000000 0.854836
Si Si2 0.171253 0.274119 0.919741
Si Si3 0.023390 0.217841 0.415079
O O1 0.790889 0.250000 0.750000
O O2 0.646002 0.174001 0.904706
O O3 0.250000 0.500000 0.939671
O O4 0.149689 0.250000 0.750000
O O5 0.250000 0.000000 0.946448
O O6 0.070083 0.485283 0.955261
O O7 0.001800 0.250000 0.250000
O O8 0.000000 0.500000 0.500000
#
# Coordination Sequence:
#
# PCOD9413882 Si02
#       3
#     4   8   8
#     4  12  26  44  72 110 150 194 250 314 382 450
#     4  12  27  48  80 115 158 202 261 321 390 460
#     4  12  29  53  81 112 156 207 261 319 390 470
#
# _framework density 31.606223
#
# number of rings (size 3 to 8) (size 9 to 14) (size 15 to 20)
#    0.000    0.000    4.000    4.800    5.600    1.600 
#    0.000    0.000    0.000    0.000    0.000    0.000 
#    0.000    0.000    0.000    0.000    0.000    0.000 
#
# Total GULP energy -111599.196718 kJ/mol
# GULP energy per Si atom -5579.959836 kJ/mol
# Density = 3.153429 g / cm^3
# Si number density = 31.606223 Si / 1000 Ang^3
#
#
#
# Elastic Constant Matrix: (Units=GPa)
#
#
# Indices 1 2 3 4 5 6 
#
# 1 278.9430 111.2293 160.7230 0.0000 0.0000 0.0000
# 2 111.2293 352.5513 183.7876 0.0000 0.0000 0.0000
# 3 160.7230 183.7876 426.0035 0.0000 0.0000 0.0000
# 4 0.0000 0.0000 0.0000 121.6352 0.0000 0.0000
# 5 0.0000 0.0000 0.0000 0.0000 92.0502 0.0000
# 6 0.0000 0.0000 0.0000 0.0000 0.0000 73.0872
#
#
#
# Elastic Compliance Matrix: (Units=1/GPa)
#
#
# Indices 1 2 3 4 5 6 
#
# 1 0.004720 -0.000723 -0.001468 0.000000 0.000000 0.000000
# 2 -0.000723 0.003770 -0.001354 0.000000 0.000000 0.000000
# 3 -0.001468 -0.001354 0.003485 0.000000 0.000000 0.000000
# 4 0.000000 0.000000 0.000000 0.008221 0.000000 0.000000
# 5 0.000000 0.000000 0.000000 0.000000 0.010864 0.000000
# 6 0.000000 0.000000 0.000000 0.000000 0.000000 0.013682
#
#
# Mechanical properties :
#
#
# Convention : Reuss Voigt Hill
#
# Bulk Modulus (GPa) = 204.74501 218.77530 211.76015
# Shear Modulus (GPa) = 93.52441 97.47171 95.49806
#
# Velocity S-wave (km/s) = 5.44562 5.55935 5.50278
# Velocity P-wave (km/s) = 10.22058 10.51560 10.36914
#
# Compressibility (1/GPa) = 0.00488412
#
# Stress axis : x y z
#
# Youngs Moduli (GPa) = 211.88374 265.22311 286.90824
#
# Poissons Ratio (x) = 0.19189 0.42132
# Poissons Ratio (y) = 0.15330 0.38838
# Poissons Ratio (z) = 0.31115 0.35903
#
# Static dielectric constant tensor:
#      x y z
#    x 2.864880 0.000000 0.000000 
#    y 0.000000 2.385030 0.000000 
#    z 0.000000 0.000000 2.483530 
# 
# From -- ./inp_files/18690.got.cif
#   From: 2010.05.17/outbox.cif.g08.bks.cpg/sg52_10_cif.got.tgz:18690.got - 2010.06.03 12:15:38.
