data_PCOD9413847
_publ_section_title
;
Structure prediction by ZEFSAII (Michael W. Deem and Ramdas Pophale) SiO2 
 PCOD9413847
Probable space group: P N N A
;
_chemical_formula_sum "Si O2"
_cell_formula_units_Z 24
_cell_length_a 27.655205
_cell_length_b 4.985328
_cell_length_c 7.807897
_cell_angle_alpha 90.000000
_cell_angle_beta 90.000000
_cell_angle_gamma 90.000000
_cell_volume 1076.476851
_symmetry_space_group_name_H-M "P N N A"
_symmetry_group_IT_number 52
_symmetry_cell_setting 'orthorhombic'
loop_
_space_group_symop_operation_xyz
x,y,z
1/2-x,-y,z
x,1/2-y,1/2-z
1/2-x,1/2+y,1/2-z
-x,-y,-z
1/2+x,y,-z
-x,1/2+y,1/2+z
1/2+x,1/2-y,1/2+z
loop_
_atom_site_type_symbol
_atom_site_label
_atom_site_fract_x
_atom_site_fract_y
_atom_site_fract_z
Si Si1 0.644656 0.142357 0.441873
Si Si2 0.200815 0.859757 0.057621
Si Si3 0.545909 0.001338 0.624311
O O1 0.639683 0.250000 0.250000
O O2 0.662028 0.399388 0.551831
O O3 0.682772 0.898123 0.452997
O O4 0.594626 0.028922 0.514164
O O5 0.208038 0.750000 0.250000
O O6 0.250000 0.000000 0.995500
O O7 0.547888 0.750000 0.750000
O O8 0.541852 0.250000 0.750000
O O9 0.500000 0.000000 0.500000
#
# Coordination Sequence:
#
# PCOD9413847 Si02
#       3
#     8   8   8
#     4  12  26  45  70 102 139 179 227 282 341 404
#     4  12  25  45  71  99 135 181 230 281 340 406
#     4  12  26  46  73 103 139 180 228 281 342 408
#
# _framework density 22.29495
#
# number of rings (size 3 to 8) (size 9 to 14) (size 15 to 20)
#    0.000    0.000    0.000   12.000    0.000    5.333 
#    0.000    1.667    0.000    0.000    0.000    0.000 
#    0.000    0.000    0.000    0.000    0.000    0.000 
#
# Total GULP energy -134606.204825 kJ/mol
# GULP energy per Si atom -5608.591868 kJ/mol
# Density = 2.224421 g / cm^3
# Si number density = 22.294950 Si / 1000 Ang^3
#
#
#
# Elastic Constant Matrix: (Units=GPa)
#
#
# Indices 1 2 3 4 5 6 
#
# 1 151.4062 81.7412 78.0038 0.0000 0.0000 0.0000
# 2 81.7412 219.6886 87.1985 0.0000 0.0000 0.0000
# 3 78.0038 87.1985 137.7423 0.0000 0.0000 0.0000
# 4 0.0000 0.0000 0.0000 47.4665 0.0000 0.0000
# 5 0.0000 0.0000 0.0000 0.0000 36.7004 0.0000
# 6 0.0000 0.0000 0.0000 0.0000 0.0000 42.1951
#
#
#
# Elastic Compliance Matrix: (Units=1/GPa)
#
#
# Indices 1 2 3 4 5 6 
#
# 1 0.009914 -0.001950 -0.004380 0.000000 0.000000 0.000000
# 2 -0.001950 0.006463 -0.002987 0.000000 0.000000 0.000000
# 3 -0.004380 -0.002987 0.011631 0.000000 0.000000 0.000000
# 4 0.000000 0.000000 0.000000 0.021067 0.000000 0.000000
# 5 0.000000 0.000000 0.000000 0.000000 0.027248 0.000000
# 6 0.000000 0.000000 0.000000 0.000000 0.000000 0.023699
#
#
# Mechanical properties :
#
#
# Convention : Reuss Voigt Hill
#
# Bulk Modulus (GPa) = 106.67604 111.41381 109.04492
# Shear Modulus (GPa) = 41.05694 42.73197 41.89446
#
# Velocity S-wave (km/s) = 4.29597 4.38272 4.33956
# Velocity P-wave (km/s) = 8.51813 8.70013 8.60961
#
# Compressibility (1/GPa) = 0.00937418
#
# Stress axis : x y z
#
# Youngs Moduli (GPa) = 100.86600 154.72149 85.97642
#
# Poissons Ratio (x) = 0.30178 0.37655
# Poissons Ratio (y) = 0.19674 0.25681
# Poissons Ratio (z) = 0.44176 0.46216
#
# Static dielectric constant tensor:
#      x y z
#    x 1.865590 0.000000 0.000000 
#    y 0.000000 1.766530 0.000000 
#    z 0.000000 0.000000 1.793500 
# 
# From -- ./inp_files/14592.got.cif
#   From: 2010.05.17/outbox.cif.g08.bks.cpg/sg52_8_cif.got.tgz:14592.got - 2010.06.03 12:15:38.
