data_PCOD9413965
_publ_section_title
;
Structure prediction by ZEFSAII (Michael W. Deem and Ramdas Pophale) SiO2 
 PCOD9413965
Probable space group: P N N A
;
_chemical_formula_sum "Si O2"
_cell_formula_units_Z 40
_cell_length_a 24.000000
_cell_length_b 15.000000
_cell_length_c 6.000000
_cell_angle_alpha 90.000000
_cell_angle_beta 90.000000
_cell_angle_gamma 90.000000
_cell_volume 2160.000000
_symmetry_space_group_name_H-M "P N N A"
_symmetry_group_IT_number 52
_symmetry_cell_setting 'orthorhombic'
loop_
_space_group_symop_operation_xyz
x,y,z
1/2-x,-y,z
x,1/2-y,1/2-z
1/2-x,1/2+y,1/2-z
-x,-y,-z
1/2+x,y,-z
-x,1/2+y,1/2+z
1/2+x,1/2-y,1/2+z
loop_
_atom_site_type_symbol
_atom_site_label
_atom_site_fract_x
_atom_site_fract_y
_atom_site_fract_z
Si Si1 0.896972 0.141916 0.731011
Si Si2 0.880676 0.648954 0.790116
Si Si3 0.521052 0.350687 0.136923
Si Si4 0.682806 0.504801 0.024813
Si Si5 0.594413 0.490351 0.406709
O O1 0.885357 0.250000 0.750000
O O2 0.845604 0.085161 0.623421
O O3 0.955169 0.136885 0.592417
O O4 0.913939 0.082553 0.952224
O O5 0.862397 0.750000 0.750000
O O6 0.889739 0.589899 0.572528
O O7 0.939096 0.652824 0.923011
O O8 0.836895 0.590481 0.927932
O O9 0.526464 0.250000 0.250000
O O10 0.544718 0.439360 0.268995
O O11 0.750000 0.500000 0.040917
O O12 0.647925 0.510730 0.253206
#
# Coordination Sequence:
#
# PCOD9413965 Si02
#       5
#     8   8   8   8   8
#     4  10  23  40  60  91 123 159 201 244 306 371
#     4  10  20  37  63  92 119 153 196 243 302 364
#     4  10  19  35  61  95 127 153 191 240 311 379
#     4  10  24  42  59  84 119 160 211 254 294 347
#     4  10  21  37  60  86 125 159 199 244 303 354
#
# _framework density 18.518519000000001
#
# number of rings (size 3 to 8) (size 9 to 14) (size 15 to 20)
#    0.000    2.000    2.000    0.600    0.000   13.600 
#    0.000    2.000    0.000    0.000    0.000    0.000 
#    0.000    0.000    0.000    0.000    0.000    0.000 
#
# Total GULP energy -222682.547521 kJ/mol
# GULP energy per Si atom -5567.063688 kJ/mol
# Density = 1.847637 g / cm^3
# Si number density = 18.518519 Si / 1000 Ang^3
#
#
#
# Elastic Constant Matrix: (Units=GPa)
#
#
# Indices 1 2 3 4 5 6 
#
# 1 152.4743 36.6417 22.7930 0.0000 0.0000 0.0000
# 2 36.6417 171.3366 28.3957 0.0000 0.0000 0.0000
# 3 22.7930 28.3957 47.6084 0.0000 0.0000 0.0000
# 4 0.0000 0.0000 0.0000 26.8248 0.0000 0.0000
# 5 0.0000 0.0000 0.0000 0.0000 11.3245 0.0000
# 6 0.0000 0.0000 0.0000 0.0000 0.0000 21.7224
#
#
#
# Elastic Compliance Matrix: (Units=1/GPa)
#
#
# Indices 1 2 3 4 5 6 
#
# 1 0.007240 -0.001081 -0.002822 0.000000 0.000000 0.000000
# 2 -0.001081 0.006638 -0.003442 0.000000 0.000000 0.000000
# 3 -0.002822 -0.003442 0.024408 0.000000 0.000000 0.000000
# 4 0.000000 0.000000 0.000000 0.037279 0.000000 0.000000
# 5 0.000000 0.000000 0.000000 0.000000 0.088304 0.000000
# 6 0.000000 0.000000 0.000000 0.000000 0.000000 0.046035
#
#
# Mechanical properties :
#
#
# Convention : Reuss Voigt Hill
#
# Bulk Modulus (GPa) = 42.37622 60.78667 51.58145
# Shear Modulus (GPa) = 21.50915 30.88026 26.19470
#
# Velocity S-wave (km/s) = 3.41177 4.08798 3.76508
# Velocity P-wave (km/s) = 6.20105 7.42820 6.84219
#
# Compressibility (1/GPa) = 0.02359814
#
# Stress axis : x y z
#
# Youngs Moduli (GPa) = 138.12172 150.64798 40.96945
#
# Poissons Ratio (x) = 0.16280 0.11560
# Poissons Ratio (y) = 0.14927 0.14101
# Poissons Ratio (z) = 0.38973 0.51850
#
# Static dielectric constant tensor:
#      x y z
#    x 1.613060 0.000000 0.000000 
#    y 0.000000 1.653690 0.000000 
#    z 0.000000 0.000000 1.733810 
# 
# From -- ./inp_files/5009.got.cif
#   From: 2010.05.17/outbox.ucp.g08.bks.cvg/sg52_3_cif.got.tgz:5009.got - 2010.06.11 16:30:12.
