data_PCOD9413001
_publ_section_title
;
Structure prediction by ZEFSAII (Michael W. Deem and Ramdas Pophale) SiO2 
 PCOD9413001
Probable space group: P N N A
;
_chemical_formula_sum "Si O2"
_cell_formula_units_Z 64
_cell_length_a 10.599849
_cell_length_b 22.758652
_cell_length_c 11.138597
_cell_angle_alpha 90.000000
_cell_angle_beta 90.000000
_cell_angle_gamma 90.000000
_cell_volume 2687.055922
_symmetry_space_group_name_H-M "P N N A"
_symmetry_group_IT_number 52
_symmetry_cell_setting 'orthorhombic'
loop_
_space_group_symop_operation_xyz
x,y,z
1/2-x,-y,z
x,1/2-y,1/2-z
1/2-x,1/2+y,1/2-z
-x,-y,-z
1/2+x,y,-z
-x,1/2+y,1/2+z
1/2+x,1/2-y,1/2+z
loop_
_atom_site_type_symbol
_atom_site_label
_atom_site_fract_x
_atom_site_fract_y
_atom_site_fract_z
Si Si1 0.629028 0.530548 0.960569
Si Si2 0.808714 0.064063 0.177710
Si Si3 0.153086 0.671681 0.047422
Si Si4 0.832800 0.851645 0.044396
Si Si5 0.549375 0.935208 0.934216
Si Si6 0.782708 0.358478 0.700951
Si Si7 0.117497 0.228565 0.609145
Si Si8 0.072507 0.458026 0.267744
O O1 0.750000 0.500000 0.021391
O O2 0.644680 0.600474 0.969294
O O3 0.623563 0.504678 0.826472
O O4 0.500000 0.500000 0.000000
O O5 0.726404 0.123545 0.170237
O O6 0.934661 0.069900 0.256016
O O7 0.750000 0.000000 0.202603
O O8 0.843627 0.064134 0.035237
O O9 0.211183 0.680787 0.181563
O O10 0.006741 0.692149 0.066424
O O11 0.252246 0.700561 0.950206
O O12 0.910170 0.792719 0.055650
O O13 0.926758 0.904486 0.013351
O O14 0.744528 0.834278 0.931758
O O15 0.587621 0.892952 0.823534
O O16 0.540964 0.999413 0.879601
O O17 0.674407 0.407163 0.722701
O O18 0.130272 0.250000 0.750000
#
# Coordination Sequence:
#
# PCOD9413001 Si02
#       8
#     8   8   8   8   8   8   8   8
#     4  12  26  48  78 111 151 196 255 317 398 487
#     4  11  22  34  63 106 155 196 245 316 391 460
#     4  12  28  56  83 117 157 209 269 340 403 489
#     4  11  25  44  71 113 153 210 268 327 394 475
#     4  11  19  37  64 104 156 194 254 309 391 469
#     4  11  23  42  76 107 151 204 256 317 407 476
#     4  12  32  55  83 112 158 214 281 338 403 478
#     4  12  21  39  67 110 153 200 247 307 399 483
#
# _framework density 23.817889000000001
#
# number of rings (size 3 to 8) (size 9 to 14) (size 15 to 20)
#    0.000    0.500    5.000    3.750    5.250    1.500 
#    2.250    0.000    0.000    0.000    0.000    0.000 
#    0.000    0.000    0.000    0.000    0.000    0.000 
#
# Total GULP energy -356426.904135 kJ/mol
# GULP energy per Si atom -5569.170377 kJ/mol
# Density = 2.376368 g / cm^3
# Si number density = 23.817889 Si / 1000 Ang^3
#
#
#
# Elastic Constant Matrix: (Units=GPa)
#
#
# Indices 1 2 3 4 5 6 
#
# 1 150.0874 54.1895 30.6578 0.0000 0.0000 0.0000
# 2 54.1895 122.6896 17.8723 0.0000 0.0000 0.0000
# 3 30.6578 17.8723 89.0731 0.0000 0.0000 0.0000
# 4 0.0000 0.0000 0.0000 25.3653 0.0000 0.0000
# 5 0.0000 0.0000 0.0000 0.0000 22.4528 0.0000
# 6 0.0000 0.0000 0.0000 0.0000 0.0000 42.5669
#
#
#
# Elastic Compliance Matrix: (Units=1/GPa)
#
#
# Indices 1 2 3 4 5 6 
#
# 1 0.008322 -0.003357 -0.002191 0.000000 0.000000 0.000000
# 2 -0.003357 0.009750 -0.000801 0.000000 0.000000 0.000000
# 3 -0.002191 -0.000801 0.012142 0.000000 0.000000 0.000000
# 4 0.000000 0.000000 0.000000 0.039424 0.000000 0.000000
# 5 0.000000 0.000000 0.000000 0.000000 0.044538 0.000000
# 6 0.000000 0.000000 0.000000 0.000000 0.000000 0.023492
#
#
# Mechanical properties :
#
#
# Convention : Reuss Voigt Hill
#
# Bulk Modulus (GPa) = 57.08861 63.03216 60.06039
# Shear Modulus (GPa) = 32.00945 35.35235 33.68090
#
# Velocity S-wave (km/s) = 3.66994 3.85681 3.76453
# Velocity P-wave (km/s) = 6.47910 6.80845 6.64582
#
# Compressibility (1/GPa) = 0.01751663
#
# Stress axis : x y z
#
# Youngs Moduli (GPa) = 120.16017 102.56540 82.36188
#
# Poissons Ratio (x) = 0.34427 0.18045
# Poissons Ratio (y) = 0.40333 0.06597
# Poissons Ratio (z) = 0.26326 0.08215
#
# Static dielectric constant tensor:
#      x y z
#    x 2.048450 0.000000 0.000000 
#    y 0.000000 1.737590 0.000000 
#    z 0.000000 0.000000 2.142200 
# 
# From -- ./inp_files/18507.got.cif
#   From: 2010.05.17/outbox.cif.g08.bks.cpg/sg52_10_cif.got.tgz:18507.got - 2010.06.03 12:15:38.
