data_PCOD9413173
_publ_section_title
;
Structure prediction by ZEFSAII (Michael W. Deem and Ramdas Pophale) SiO2 
 PCOD9413173
Probable space group: P N N A
;
_chemical_formula_sum "Si O2"
_cell_formula_units_Z 28
_cell_length_a 15.746223
_cell_length_b 11.603174
_cell_length_c 6.635243
_cell_angle_alpha 90.000000
_cell_angle_beta 90.000000
_cell_angle_gamma 90.000000
_cell_volume 1212.299804
_symmetry_space_group_name_H-M "P N N A"
_symmetry_group_IT_number 52
_symmetry_cell_setting 'orthorhombic'
loop_
_space_group_symop_operation_xyz
x,y,z
1/2-x,-y,z
x,1/2-y,1/2-z
1/2-x,1/2+y,1/2-z
-x,-y,-z
1/2+x,y,-z
-x,1/2+y,1/2+z
1/2+x,1/2-y,1/2+z
loop_
_atom_site_type_symbol
_atom_site_label
_atom_site_fract_x
_atom_site_fract_y
_atom_site_fract_z
Si Si1 0.250000 0.500000 0.364011
Si Si2 0.445309 0.750000 0.750000
Si Si3 0.589372 0.016229 0.119115
Si Si4 0.917218 0.330265 0.059562
Si Si5 0.274984 0.250000 0.250000
O O1 0.333625 0.467878 0.489309
O O2 0.227869 0.374674 0.265934
O O3 0.393494 0.848403 0.858241
O O4 0.506398 0.817866 0.596847
O O5 0.591112 0.954356 0.336386
O O6 0.500000 0.000000 0.000000
O O7 0.935823 0.250000 0.250000
O O8 0.836113 0.282397 0.939684
#
# Coordination Sequence:
#
# PCOD9413173 Si02
#       5
#     4   4   8   8   4
#     4  12  28  46  74 106 144 192 246 294 368 434
#     4  11  24  40  74 109 132 192 246 293 352 443
#     4  12  25  45  72 105 143 188 241 294 363 431
#     4  11  21  46  75  99 148 185 229 302 372 413
#     4  11  26  48  70 107 144 194 240 301 362 431
#
# _framework density 23.096598
#
# number of rings (size 3 to 8) (size 9 to 14) (size 15 to 20)
#    0.000    0.571    5.714    2.571    0.000    8.000 
#    0.000    0.000    0.000    0.000    0.000    0.000 
#    0.000    0.000    0.000    0.000    0.000    0.000 
#
# Total GULP energy -156266.889266 kJ/mol
# GULP energy per Si atom -5580.960331 kJ/mol
# Density = 2.304403 g / cm^3
# Si number density = 23.096598 Si / 1000 Ang^3
#
#
#
# Elastic Constant Matrix: (Units=GPa)
#
#
# Indices 1 2 3 4 5 6 
#
# 1 54.9151 7.6921 19.9200 0.0000 0.0000 0.0000
# 2 7.6921 189.1227 22.8123 0.0000 0.0000 0.0000
# 3 19.9200 22.8123 71.6004 0.0000 0.0000 0.0000
# 4 0.0000 0.0000 0.0000 57.0906 0.0000 0.0000
# 5 0.0000 0.0000 0.0000 0.0000 13.7218 0.0000
# 6 0.0000 0.0000 0.0000 0.0000 0.0000 25.4715
#
#
#
# Elastic Compliance Matrix: (Units=1/GPa)
#
#
# Indices 1 2 3 4 5 6 
#
# 1 0.020258 -0.000150 -0.005588 0.000000 0.000000 0.000000
# 2 -0.000150 0.005500 -0.001711 0.000000 0.000000 0.000000
# 3 -0.005588 -0.001711 0.016066 0.000000 0.000000 0.000000
# 4 0.000000 0.000000 0.000000 0.017516 0.000000 0.000000
# 5 0.000000 0.000000 0.000000 0.000000 0.072877 0.000000
# 6 0.000000 0.000000 0.000000 0.000000 0.000000 0.039260
#
#
# Mechanical properties :
#
#
# Convention : Reuss Voigt Hill
#
# Bulk Modulus (GPa) = 37.13794 46.27631 41.70713
# Shear Modulus (GPa) = 25.59513 36.93769 31.26641
#
# Velocity S-wave (km/s) = 3.33254 4.00343 3.68329
# Velocity P-wave (km/s) = 5.56076 6.43812 6.01546
#
# Compressibility (1/GPa) = 0.02692664
#
# Stress axis : x y z
#
# Youngs Moduli (GPa) = 49.36319 181.81790 62.24277
#
# Poissons Ratio (x) = 0.02725 0.34783
# Poissons Ratio (y) = 0.00740 0.10647
# Poissons Ratio (z) = 0.27585 0.31102
#
# Static dielectric constant tensor:
#      x y z
#    x 1.755010 0.000000 0.000000 
#    y 0.000000 1.907400 0.000000 
#    z 0.000000 0.000000 1.868520 
# 
# From -- ./inp_files/2896.got.cif
#   From: 2010.05.17/outbox.cif.g08.bks.cpg/sg52_2_cif.got.tgz:2896.got - 2010.06.03 12:15:38.
