data_PCOD9413328
_publ_section_title
;
Structure prediction by ZEFSAII (Michael W. Deem and Ramdas Pophale) SiO2 
 PCOD9413328
Probable space group: P N N A
;
_chemical_formula_sum "Si O2"
_cell_formula_units_Z 32
_cell_length_a 19.483444
_cell_length_b 15.703947
_cell_length_c 4.948361
_cell_angle_alpha 90.000000
_cell_angle_beta 90.000000
_cell_angle_gamma 90.000000
_cell_volume 1514.035031
_symmetry_space_group_name_H-M "P N N A"
_symmetry_group_IT_number 52
_symmetry_cell_setting 'orthorhombic'
loop_
_space_group_symop_operation_xyz
x,y,z
1/2-x,-y,z
x,1/2-y,1/2-z
1/2-x,1/2+y,1/2-z
-x,-y,-z
1/2+x,y,-z
-x,1/2+y,1/2+z
1/2+x,1/2-y,1/2+z
loop_
_atom_site_type_symbol
_atom_site_label
_atom_site_fract_x
_atom_site_fract_y
_atom_site_fract_z
Si Si1 0.733415 0.656013 0.132832
Si Si2 0.454777 0.530653 0.246050
Si Si3 0.617390 0.308676 0.996154
Si Si4 0.687765 0.562875 0.646810
O O1 0.724956 0.750000 0.250000
O O2 0.697787 0.591307 0.339336
O O3 0.815901 0.642299 0.112666
O O4 0.699539 0.642703 0.842994
O O5 0.500000 0.500000 0.500000
O O6 0.434782 0.627504 0.156106
O O7 0.382798 0.483337 0.290539
O O8 0.500000 0.500000 0.000000
O O9 0.644066 0.250000 0.750000
O O10 0.591832 0.250000 0.250000
O O11 0.750000 0.500000 0.714929
#
# Coordination Sequence:
#
# PCOD9413328 Si02
#       4
#     8   8   8   8
#     4  11  23  40  69 104 135 171 229 295 346 398
#     4  12  27  46  68 103 146 187 232 283 352 425
#     4  11  23  43  72 100 135 183 239 289 348 425
#     4  12  24  42  70 100 134 175 231 285 345 401
#
# _framework density 21.135573999999998
#
# number of rings (size 3 to 8) (size 9 to 14) (size 15 to 20)
#    0.000    0.500    2.500    7.500    3.500    0.000 
#    0.000   12.500    0.000    0.000    0.000    0.000 
#    0.000    0.000    0.000    0.000    0.000    0.000 
#
# Total GULP energy -178711.258566 kJ/mol
# GULP energy per Si atom -5584.726830 kJ/mol
# Density = 2.108747 g / cm^3
# Si number density = 21.135574 Si / 1000 Ang^3
#
#
#
# Elastic Constant Matrix: (Units=GPa)
#
#
# Indices 1 2 3 4 5 6 
#
# 1 138.3574 43.0208 47.1157 0.0000 0.0000 0.0000
# 2 43.0208 73.9580 34.6450 0.0000 0.0000 0.0000
# 3 47.1157 34.6450 151.8953 0.0000 0.0000 0.0000
# 4 0.0000 0.0000 0.0000 31.9512 0.0000 0.0000
# 5 0.0000 0.0000 0.0000 0.0000 44.1860 0.0000
# 6 0.0000 0.0000 0.0000 0.0000 0.0000 20.1756
#
#
#
# Elastic Compliance Matrix: (Units=1/GPa)
#
#
# Indices 1 2 3 4 5 6 
#
# 1 0.009262 -0.004525 -0.001841 0.000000 0.000000 0.000000
# 2 -0.004525 0.017350 -0.002554 0.000000 0.000000 0.000000
# 3 -0.001841 -0.002554 0.007737 0.000000 0.000000 0.000000
# 4 0.000000 0.000000 0.000000 0.031298 0.000000 0.000000
# 5 0.000000 0.000000 0.000000 0.000000 0.022632 0.000000
# 6 0.000000 0.000000 0.000000 0.000000 0.000000 0.049565
#
#
# Mechanical properties :
#
#
# Convention : Reuss Voigt Hill
#
# Bulk Modulus (GPa) = 60.57192 68.19706 64.38449
# Shear Modulus (GPa) = 31.02046 35.22450 33.12248
#
# Velocity S-wave (km/s) = 3.83520 4.08683 3.96301
# Velocity P-wave (km/s) = 6.95217 7.38959 7.17422
#
# Compressibility (1/GPa) = 0.01650930
#
# Stress axis : x y z
#
# Youngs Moduli (GPa) = 107.97376 57.63824 129.25135
#
# Poissons Ratio (x) = 0.26082 0.23791
# Poissons Ratio (y) = 0.48859 0.33005
# Poissons Ratio (z) = 0.19875 0.14718
#
# Static dielectric constant tensor:
#      x y z
#    x 1.746830 0.000000 0.000000 
#    y 0.000000 1.764570 0.000000 
#    z 0.000000 0.000000 1.790410 
# 
# From -- ./inp_files/2990.got.cif
#   From: 2010.05.17/outbox.cif.g08.bks.cpg/sg52_2_cif.got.tgz:2990.got - 2010.06.03 12:15:38.
