data_PCOD9413687
_publ_section_title
;
Structure prediction by ZEFSAII (Michael W. Deem and Ramdas Pophale) SiO2 
 PCOD9413687
Probable space group: P N N A
;
_chemical_formula_sum "Si O2"
_cell_formula_units_Z 24
_cell_length_a 13.345134
_cell_length_b 5.076526
_cell_length_c 13.688731
_cell_angle_alpha 90.000000
_cell_angle_beta 90.000000
_cell_angle_gamma 90.000000
_cell_volume 927.369360
_symmetry_space_group_name_H-M "P N N A"
_symmetry_group_IT_number 52
_symmetry_cell_setting 'orthorhombic'
loop_
_space_group_symop_operation_xyz
x,y,z
1/2-x,-y,z
x,1/2-y,1/2-z
1/2-x,1/2+y,1/2-z
-x,-y,-z
1/2+x,y,-z
-x,1/2+y,1/2+z
1/2+x,1/2-y,1/2+z
loop_
_atom_site_type_symbol
_atom_site_label
_atom_site_fract_x
_atom_site_fract_y
_atom_site_fract_z
Si Si1 0.145675 0.159463 0.040446
Si Si2 0.250000 0.000000 0.316212
Si Si3 0.820343 0.250000 0.250000
Si Si4 0.537083 0.109002 0.145380
O O1 0.163154 0.401665 0.113009
O O2 0.250000 0.000000 0.028361
O O3 0.101016 0.254390 0.937978
O O4 0.065730 0.976363 0.095614
O O5 0.224775 0.750000 0.250000
O O6 0.750000 0.500000 0.226943
O O7 0.894655 0.350806 0.333996
O O8 0.526572 0.250000 0.250000
#
# Coordination Sequence:
#
# PCOD9413687 Si02
#       4
#     8   4   4   8
#     4  11  28  52  89 130 170 231 292 356 440 531
#     4  12  28  54  90 122 172 228 286 362 434 506
#     4  12  26  50  84 118 170 230 282 352 438 510
#     4  11  28  53  88 129 177 226 289 362 438 526
#
# _framework density 25.879659
#
# number of rings (size 3 to 8) (size 9 to 14) (size 15 to 20)
#    0.000    0.667    3.333    1.000    7.000    5.333 
#    3.000    6.667    0.000    2.000    0.000    0.000 
#    0.000    0.000    0.000    0.000    0.000    0.000 
#
# Total GULP energy -134626.524885 kJ/mol
# GULP energy per Si atom -5609.438537 kJ/mol
# Density = 2.582076 g / cm^3
# Si number density = 25.879659 Si / 1000 Ang^3
#
#
#
# Elastic Constant Matrix: (Units=GPa)
#
#
# Indices 1 2 3 4 5 6 
#
# 1 177.3624 51.5380 79.9373 0.0000 0.0000 0.0000
# 2 51.5380 144.6185 74.7241 0.0000 0.0000 0.0000
# 3 79.9373 74.7241 234.4787 0.0000 0.0000 0.0000
# 4 0.0000 0.0000 0.0000 24.5017 0.0000 0.0000
# 5 0.0000 0.0000 0.0000 0.0000 -391.7578 0.0000
# 6 0.0000 0.0000 0.0000 0.0000 0.0000 27.5490
#
#
#
# Elastic Compliance Matrix: (Units=1/GPa)
#
#
# Indices 1 2 3 4 5 6 
#
# 1 0.006921 -0.001493 -0.001884 0.000000 0.000000 0.000000
# 2 -0.001493 0.008600 -0.002232 0.000000 0.000000 0.000000
# 3 -0.001884 -0.002232 0.005618 0.000000 0.000000 0.000000
# 4 0.000000 0.000000 0.000000 0.040814 0.000000 0.000000
# 5 0.000000 0.000000 0.000000 0.000000 -0.002553 0.000000
# 6 0.000000 0.000000 0.000000 0.000000 0.000000 0.036299
#
#
# Mechanical properties :
#
#
# Convention : Reuss Voigt Hill
#
# Bulk Modulus (GPa) = 100.78372 107.65095 104.21734
# Shear Modulus (GPa) = 45.36251 -44.59074 0.38588
#
# Velocity S-wave (km/s) = 4.19122 -4.15541 0.38656
# Velocity P-wave (km/s) = 7.90250 4.32016 6.36841
#
# Compressibility (1/GPa) = 0.00992224
#
# Stress axis : x y z
#
# Youngs Moduli (GPa) = 144.48744 116.27990 177.99601
#
# Poissons Ratio (x) = 0.17363 0.33528
# Poissons Ratio (y) = 0.21575 0.39721
# Poissons Ratio (z) = 0.27216 0.25949
#
# Static dielectric constant tensor:
#      x y z
#    x 2.060690 0.000000 0.000000 
#    y 0.000000 2.082930 0.000000 
#    z 0.000000 0.000000 2.040630 
# 
# From -- ./inp_files/26502.got.cif
#   From: 2010.05.17/outbox.cif.g08.bks.cpg/sg52_14_cif.got.tgz:26502.got - 2010.06.03 12:15:38.
