data_PCOD9413974
_publ_section_title
;
Structure prediction by ZEFSAII (Michael W. Deem and Ramdas Pophale) SiO2 
 PCOD9413974
Probable space group: P N N A
;
_chemical_formula_sum "Si O2"
_cell_formula_units_Z 64
_cell_length_a 9.000000
_cell_length_b 18.000000
_cell_length_c 21.000000
_cell_angle_alpha 90.000000
_cell_angle_beta 90.000000
_cell_angle_gamma 90.000000
_cell_volume 3402.000000
_symmetry_space_group_name_H-M "P N N A"
_symmetry_group_IT_number 52
_symmetry_cell_setting 'orthorhombic'
loop_
_space_group_symop_operation_xyz
x,y,z
1/2-x,-y,z
x,1/2-y,1/2-z
1/2-x,1/2+y,1/2-z
-x,-y,-z
1/2+x,y,-z
-x,1/2+y,1/2+z
1/2+x,1/2-y,1/2+z
loop_
_atom_site_type_symbol
_atom_site_label
_atom_site_fract_x
_atom_site_fract_y
_atom_site_fract_z
Si Si1 0.650872 0.072178 0.158353
Si Si2 0.588660 0.671585 0.291239
Si Si3 0.415667 0.796824 0.941164
Si Si4 0.074966 0.765683 0.931095
Si Si5 0.943572 0.145121 0.579815
Si Si6 0.572473 0.491537 0.132186
Si Si7 0.922890 0.974307 0.763338
Si Si8 0.407058 0.615170 0.053575
O O1 0.756829 0.121931 0.206286
O O2 0.602713 0.129469 0.102048
O O3 0.750000 0.000000 0.137526
O O4 0.507590 0.032492 0.189924
O O5 0.594037 0.750000 0.250000
O O6 0.568773 0.693841 0.364453
O O7 0.453997 0.612886 0.279429
O O8 0.249545 0.762797 0.948972
O O9 0.520086 0.732095 0.910759
O O10 0.487013 0.805683 0.011323
O O11 0.000699 0.685321 0.920201
O O12 0.769130 0.127201 0.566684
O O13 0.012336 0.092728 0.633200
O O14 0.045766 0.119671 0.520000
O O15 0.750000 0.500000 0.121946
O O16 0.519130 0.522010 0.199188
O O17 0.475548 0.539753 0.081974
O O18 0.750000 0.000000 0.756630
#
# Coordination Sequence:
#
# PCOD9413974 Si02
#       8
#     8   8   8   8   8   8   8   8
#     4   9  21  42  63  85 117 156 199 246 301 364
#     4  10  21  40  64  88 117 159 203 244 296 359
#     4  10  20  37  59  87 120 152 195 243 296 355
#     4  10  20  35  59  88 117 154 197 246 301 355
#     4  11  22  35  55  84 116 152 195 241 293 352
#     4  12  23  38  57  78 113 157 196 238 292 354
#     4  11  24  41  60  87 119 152 194 247 300 356
#     4  11  21  36  55  83 119 152 193 241 293 351
#
# _framework density 18.812463000000001
#
# number of rings (size 3 to 8) (size 9 to 14) (size 15 to 20)
#    0.000    1.500    0.000    7.875    0.000    5.000 
#    0.000    6.875    0.000    0.000    0.000    0.000 
#    0.000    0.000    0.000    0.000    0.000    0.000 
#
# Total GULP energy -356656.695606 kJ/mol
# GULP energy per Si atom -5572.760869 kJ/mol
# Density = 1.876965 g / cm^3
# Si number density = 18.812463 Si / 1000 Ang^3
#
#
#
# Elastic Constant Matrix: (Units=GPa)
#
#
# Indices 1 2 3 4 5 6 
#
# 1 141.5617 36.1534 7.7936 0.0000 0.0000 0.0000
# 2 36.1534 116.0372 34.2758 0.0000 0.0000 0.0000
# 3 7.7936 34.2758 43.6808 0.0000 0.0000 0.0000
# 4 0.0000 0.0000 0.0000 41.6979 0.0000 0.0000
# 5 0.0000 0.0000 0.0000 0.0000 21.9545 0.0000
# 6 0.0000 0.0000 0.0000 0.0000 0.0000 35.6374
#
#
#
# Elastic Compliance Matrix: (Units=1/GPa)
#
#
# Indices 1 2 3 4 5 6 
#
# 1 0.007689 -0.002591 0.000661 0.000000 0.000000 0.000000
# 2 -0.002591 0.012091 -0.009026 0.000000 0.000000 0.000000
# 3 0.000661 -0.009026 0.029858 0.000000 0.000000 0.000000
# 4 0.000000 0.000000 0.000000 0.023982 0.000000 0.000000
# 5 0.000000 0.000000 0.000000 0.000000 0.045549 0.000000
# 6 0.000000 0.000000 0.000000 0.000000 0.000000 0.028060
#
#
# Mechanical properties :
#
#
# Convention : Reuss Voigt Hill
#
# Bulk Modulus (GPa) = 36.06534 50.85836 43.46185
# Shear Modulus (GPa) = 28.02963 34.72842 31.37902
#
# Velocity S-wave (km/s) = 3.86417 4.30121 4.08854
# Velocity P-wave (km/s) = 6.25474 7.19446 6.74099
#
# Compressibility (1/GPa) = 0.02772745
#
# Stress axis : x y z
#
# Youngs Moduli (GPa) = 130.04941 82.70448 33.49230
#
# Poissons Ratio (x) = 0.21429 -0.02215
# Poissons Ratio (y) = 0.33697 0.30229
# Poissons Ratio (z) = -0.08599 0.74645
#
# Static dielectric constant tensor:
#      x y z
#    x 1.648850 0.000000 0.000000 
#    y 0.000000 1.808090 0.000000 
#    z 0.000000 0.000000 1.741610 
# 
# From -- ./inp_files/36173.got.cif
#   From: 2010.05.17/outbox.ucp.g08.bks.cvg/sg52_19_cif.got.tgz:36173.got - 2010.06.11 16:30:12.
