data_PCOD9413622
_publ_section_title
;
Structure prediction by ZEFSAII (Michael W. Deem and Ramdas Pophale) SiO2 
 PCOD9413622
Probable space group: P N N A
;
_chemical_formula_sum "Si O2"
_cell_formula_units_Z 56
_cell_length_a 18.911905
_cell_length_b 21.867383
_cell_length_c 5.092819
_cell_angle_alpha 90.000000
_cell_angle_beta 90.000000
_cell_angle_gamma 90.000000
_cell_volume 2106.155006
_symmetry_space_group_name_H-M "P N N A"
_symmetry_group_IT_number 52
_symmetry_cell_setting 'orthorhombic'
loop_
_space_group_symop_operation_xyz
x,y,z
1/2-x,-y,z
x,1/2-y,1/2-z
1/2-x,1/2+y,1/2-z
-x,-y,-z
1/2+x,y,-z
-x,1/2+y,1/2+z
1/2+x,1/2-y,1/2+z
loop_
_atom_site_type_symbol
_atom_site_label
_atom_site_fract_x
_atom_site_fract_y
_atom_site_fract_z
Si Si1 0.437508 0.750000 0.750000
Si Si2 0.573853 0.034846 0.279579
Si Si3 0.151652 0.139952 0.018471
Si Si4 0.760844 0.850968 0.465834
Si Si5 0.049152 0.579814 0.472725
Si Si6 0.681844 0.750000 0.750000
Si Si7 0.938012 0.288426 0.458026
Si Si8 0.678815 0.966431 0.670198
O O1 0.392728 0.804243 0.882136
O O2 0.498045 0.758354 0.526664
O O3 0.616764 0.075185 0.062615
O O4 0.503069 0.077015 0.280255
O O5 0.630599 0.012675 0.494354
O O6 0.536246 0.972436 0.186491
O O7 0.221310 0.144876 0.840064
O O8 0.172174 0.143538 0.325836
O O9 0.730904 0.785432 0.548003
O O10 0.708920 0.907679 0.516280
O O11 0.036057 0.644823 0.602910
O O12 0.127497 0.561178 0.387499
O O13 0.623169 0.699495 0.669987
O O14 0.895364 0.250000 0.250000
O O15 0.750000 0.000000 0.767350
#
# Coordination Sequence:
#
# PCOD9413622 Si02
#       8
#     4   8   8   8   8   4   8   8
#     4  11  26  48  76 106 152 201 268 324 388 465
#     4  11  26  45  76 108 150 204 257 323 392 479
#     4  12  27  50  75 115 151 207 257 325 393 470
#     4  12  28  46  78 109 157 201 258 321 395 473
#     4  11  25  49  72 107 152 203 262 320 398 469
#     4  11  26  46  68 112 144 209 256 326 394 475
#     4  11  26  45  76 107 150 206 261 328 393 473
#     4  12  25  45  72 112 148 201 250 326 388 478
#
# _framework density 26.588739
#
# number of rings (size 3 to 8) (size 9 to 14) (size 15 to 20)
#    0.000    0.571    4.286    2.143    8.000    0.571 
#    2.571    0.000    0.000    0.000    0.000    0.000 
#    0.000    0.000    0.000    0.000    0.000    0.000 
#
# Total GULP energy -312219.347884 kJ/mol
# GULP energy per Si atom -5575.345498 kJ/mol
# Density = 2.652822 g / cm^3
# Si number density = 26.588739 Si / 1000 Ang^3
#
#
#
# Elastic Constant Matrix: (Units=GPa)
#
#
# Indices 1 2 3 4 5 6 
#
# 1 75.7659 43.0676 13.2680 0.0000 0.0000 0.0000
# 2 43.0676 145.2107 16.0615 0.0000 0.0000 0.0000
# 3 13.2680 16.0615 60.7594 0.0000 0.0000 0.0000
# 4 0.0000 0.0000 0.0000 30.0345 0.0000 0.0000
# 5 0.0000 0.0000 0.0000 0.0000 11.4089 0.0000
# 6 0.0000 0.0000 0.0000 0.0000 0.0000 32.7527
#
#
#
# Elastic Compliance Matrix: (Units=1/GPa)
#
#
# Indices 1 2 3 4 5 6 
#
# 1 0.016190 -0.004544 -0.002334 0.000000 0.000000 0.000000
# 2 -0.004544 0.008369 -0.001220 0.000000 0.000000 0.000000
# 3 -0.002334 -0.001220 0.017291 0.000000 0.000000 0.000000
# 4 0.000000 0.000000 0.000000 0.033295 0.000000 0.000000
# 5 0.000000 0.000000 0.000000 0.000000 0.087651 0.000000
# 6 0.000000 0.000000 0.000000 0.000000 0.000000 0.030532
#
#
# Mechanical properties :
#
#
# Convention : Reuss Voigt Hill
#
# Bulk Modulus (GPa) = 38.98081 47.39225 43.18653
# Shear Modulus (GPa) = 22.92791 28.79514 25.86152
#
# Velocity S-wave (km/s) = 2.93971 3.29444 3.12212
# Velocity P-wave (km/s) = 5.12006 5.68630 5.41059
#
# Compressibility (1/GPa) = 0.02565365
#
# Stress axis : x y z
#
# Youngs Moduli (GPa) = 61.76643 119.48769 57.83472
#
# Poissons Ratio (x) = 0.54290 0.13501
# Poissons Ratio (y) = 0.28064 0.07057
# Poissons Ratio (z) = 0.14418 0.14579
#
# Static dielectric constant tensor:
#      x y z
#    x 2.101480 0.000000 0.000000 
#    y 0.000000 2.145060 0.000000 
#    z 0.000000 0.000000 2.533270 
# 
# From -- ./inp_files/4540.got.cif
#   From: 2010.05.17/outbox.cif.g08.bks.cpg/sg52_3_cif.got.tgz:4540.got - 2010.06.03 12:15:38.
