data_PCOD9413644
_publ_section_title
;
Structure prediction by ZEFSAII (Michael W. Deem and Ramdas Pophale) SiO2 
 PCOD9413644
Probable space group: P N N A
;
_chemical_formula_sum "Si O2"
_cell_formula_units_Z 36
_cell_length_a 10.438547
_cell_length_b 11.342616
_cell_length_c 13.139786
_cell_angle_alpha 90.000000
_cell_angle_beta 90.000000
_cell_angle_gamma 90.000000
_cell_volume 1555.756315
_symmetry_space_group_name_H-M "P N N A"
_symmetry_group_IT_number 52
_symmetry_cell_setting 'orthorhombic'
loop_
_space_group_symop_operation_xyz
x,y,z
1/2-x,-y,z
x,1/2-y,1/2-z
1/2-x,1/2+y,1/2-z
-x,-y,-z
1/2+x,y,-z
-x,1/2+y,1/2+z
1/2+x,1/2-y,1/2+z
loop_
_atom_site_type_symbol
_atom_site_label
_atom_site_fract_x
_atom_site_fract_y
_atom_site_fract_z
Si Si1 0.465577 0.529689 0.334674
Si Si2 0.341034 0.314338 0.995898
Si Si3 0.750000 0.000000 0.664111
Si Si4 0.091494 0.338081 0.535323
Si Si5 0.812007 0.374284 0.227018
O O1 0.368639 0.515433 0.241581
O O2 0.403195 0.574215 0.438692
O O3 0.542876 0.412986 0.368086
O O4 0.565451 0.628754 0.300060
O O5 0.286419 0.392231 0.088934
O O6 0.478298 0.257611 0.020644
O O7 0.230886 0.219751 0.968085
O O8 0.352884 0.385187 0.890662
O O9 0.750000 0.500000 0.250072
O O10 0.741730 0.250000 0.250000
#
# Coordination Sequence:
#
# PCOD9413644 Si02
#       5
#     8   8   4   8   8
#     4  11  26  46  74 103 150 198 252 309 390 460
#     4  12  26  46  73 107 150 196 253 317 383 463
#     4  12  28  46  70 110 154 196 248 330 406 448
#     4  11  26  48  74 106 146 199 257 310 380 471
#     4  12  25  46  75 110 149 200 252 313 376 459
#
# _framework density 23.139869999999998
#
# number of rings (size 3 to 8) (size 9 to 14) (size 15 to 20)
#    0.000    0.444    3.333    4.000    3.111    6.222 
#    0.000    0.000    0.000    0.000    0.000    0.000 
#    0.000    0.000    0.000    0.000    0.000    0.000 
#
# Total GULP energy -201185.794902 kJ/mol
# GULP energy per Si atom -5588.494303 kJ/mol
# Density = 2.308720 g / cm^3
# Si number density = 23.139870 Si / 1000 Ang^3
#
#
#
# Elastic Constant Matrix: (Units=GPa)
#
#
# Indices 1 2 3 4 5 6 
#
# 1 63.3150 12.1162 25.1818 0.0000 0.0000 0.0000
# 2 12.1162 80.2777 23.8446 0.0000 0.0000 0.0000
# 3 25.1818 23.8446 131.4047 0.0000 0.0000 0.0000
# 4 0.0000 0.0000 0.0000 50.6216 0.0000 0.0000
# 5 0.0000 0.0000 0.0000 0.0000 39.8165 0.0000
# 6 0.0000 0.0000 0.0000 0.0000 0.0000 31.8633
#
#
#
# Elastic Compliance Matrix: (Units=1/GPa)
#
#
# Indices 1 2 3 4 5 6 
#
# 1 0.017319 -0.001721 -0.003007 0.000000 0.000000 0.000000
# 2 -0.001721 0.013337 -0.002090 0.000000 0.000000 0.000000
# 3 -0.003007 -0.002090 0.008566 0.000000 0.000000 0.000000
# 4 0.000000 0.000000 0.000000 0.019754 0.000000 0.000000
# 5 0.000000 0.000000 0.000000 0.000000 0.025115 0.000000
# 6 0.000000 0.000000 0.000000 0.000000 0.000000 0.031384
#
#
# Mechanical properties :
#
#
# Convention : Reuss Voigt Hill
#
# Bulk Modulus (GPa) = 39.08361 44.14252 41.61306
# Shear Modulus (GPa) = 36.32648 38.71726 37.52187
#
# Velocity S-wave (km/s) = 3.96645 4.09489 4.03118
# Velocity P-wave (km/s) = 6.15661 6.44014 6.29997
#
# Compressibility (1/GPa) = 0.02558617
#
# Stress axis : x y z
#
# Youngs Moduli (GPa) = 57.73941 74.97714 116.74620
#
# Poissons Ratio (x) = 0.12903 0.35102
# Poissons Ratio (y) = 0.09936 0.24405
# Poissons Ratio (z) = 0.17360 0.15673
#
# Static dielectric constant tensor:
#      x y z
#    x 1.460840 0.000000 0.000000 
#    y 0.000000 1.914170 0.000000 
#    z 0.000000 0.000000 1.863250 
# 
# From -- ./inp_files/17781.got.cif
#   From: 2010.05.17/outbox.cif.g08.bks.cpg/sg52_9_cif.got.tgz:17781.got - 2010.06.03 12:15:38.
