data_PCOD9413577
_publ_section_title
;
Structure prediction by ZEFSAII (Michael W. Deem and Ramdas Pophale) SiO2 
 PCOD9413577
Probable space group: P N N A
;
_chemical_formula_sum "Si O2"
_cell_formula_units_Z 40
_cell_length_a 11.801294
_cell_length_b 8.786978
_cell_length_c 16.098217
_cell_angle_alpha 90.000000
_cell_angle_beta 90.000000
_cell_angle_gamma 90.000000
_cell_volume 1669.348250
_symmetry_space_group_name_H-M "P N N A"
_symmetry_group_IT_number 52
_symmetry_cell_setting 'orthorhombic'
loop_
_space_group_symop_operation_xyz
x,y,z
1/2-x,-y,z
x,1/2-y,1/2-z
1/2-x,1/2+y,1/2-z
-x,-y,-z
1/2+x,y,-z
-x,1/2+y,1/2+z
1/2+x,1/2-y,1/2+z
loop_
_atom_site_type_symbol
_atom_site_label
_atom_site_fract_x
_atom_site_fract_y
_atom_site_fract_z
Si Si1 0.354497 0.893608 0.910065
Si Si2 0.571896 0.743760 0.844710
Si Si3 0.478616 0.921984 0.409546
Si Si4 0.206244 0.156519 0.089335
Si Si5 0.293099 0.335661 0.836544
O O1 0.474068 0.870955 0.863921
O O2 0.300222 0.728627 0.898684
O O3 0.250000 0.000000 0.879222
O O4 0.356512 0.915962 0.008665
O O5 0.614282 0.750000 0.750000
O O6 0.529066 0.571029 0.852418
O O7 0.671572 0.761852 0.911896
O O8 0.377472 0.800146 0.393257
O O9 0.589408 0.829986 0.383477
O O10 0.500000 0.000000 0.500000
O O11 0.250000 0.000000 0.137325
O O12 0.250000 0.500000 0.815320
O O13 0.298587 0.250000 0.750000
#
# Coordination Sequence:
#
# PCOD9413577 Si02
#       5
#     8   8   8   8   8
#     4  11  25  44  75 105 150 195 257 323 391 476
#     4  12  27  47  75 110 157 202 263 333 402 471
#     4  12  25  49  77 108 154 213 263 318 403 494
#     4  11  27  47  75 108 147 205 262 320 394 478
#     4  12  25  42  70 107 147 190 254 323 399 466
#
# _framework density 23.961447
#
# number of rings (size 3 to 8) (size 9 to 14) (size 15 to 20)
#    0.000    0.400    4.000    3.000    5.600    4.000 
#    0.000    0.000    0.000    0.000    0.000    0.000 
#    0.000    0.000    0.000    0.000    0.000    0.000 
#
# Total GULP energy -222710.898668 kJ/mol
# GULP energy per Si atom -5567.772467 kJ/mol
# Density = 2.390691 g / cm^3
# Si number density = 23.961447 Si / 1000 Ang^3
#
#
#
# Elastic Constant Matrix: (Units=GPa)
#
#
# Indices 1 2 3 4 5 6 
#
# 1 154.2810 32.9258 3.2892 0.0000 0.0000 0.0000
# 2 32.9258 101.0088 12.4340 0.0000 0.0000 0.0000
# 3 3.2892 12.4340 63.0070 0.0000 0.0000 0.0000
# 4 0.0000 0.0000 0.0000 18.7753 0.0000 0.0000
# 5 0.0000 0.0000 0.0000 0.0000 9.0392 0.0000
# 6 0.0000 0.0000 0.0000 0.0000 0.0000 55.1191
#
#
#
# Elastic Compliance Matrix: (Units=1/GPa)
#
#
# Indices 1 2 3 4 5 6 
#
# 1 0.006967 -0.002282 0.000087 0.000000 0.000000 0.000000
# 2 -0.002282 0.010894 -0.002031 0.000000 0.000000 0.000000
# 3 0.000087 -0.002031 0.016267 0.000000 0.000000 0.000000
# 4 0.000000 0.000000 0.000000 0.053262 0.000000 0.000000
# 5 0.000000 0.000000 0.000000 0.000000 0.110629 0.000000
# 6 0.000000 0.000000 0.000000 0.000000 0.000000 0.018143
#
#
# Mechanical properties :
#
#
# Convention : Reuss Voigt Hill
#
# Bulk Modulus (GPa) = 38.94603 46.17722 42.56162
# Shear Modulus (GPa) = 21.44344 34.56323 28.00333
#
# Velocity S-wave (km/s) = 2.99476 3.80208 3.42231
# Velocity P-wave (km/s) = 5.31479 6.21190 5.78078
#
# Compressibility (1/GPa) = 0.02567656
#
# Stress axis : x y z
#
# Youngs Moduli (GPa) = 143.53865 91.79501 61.47234
#
# Poissons Ratio (x) = 0.20944 -0.00532
# Poissons Ratio (y) = 0.32750 0.12483
# Poissons Ratio (z) = -0.01243 0.18641
#
# Static dielectric constant tensor:
#      x y z
#    x 1.935840 0.000000 0.000000 
#    y 0.000000 1.939510 0.000000 
#    z 0.000000 0.000000 1.996640 
# 
# From -- ./inp_files/31991.got.cif
#   From: 2010.05.17/outbox.cif.g08.bks.cpg/sg52_16_cif.got.tgz:31991.got - 2010.06.03 12:15:38.
