data_PCOD9413047
_publ_section_title
;
Structure prediction by ZEFSAII (Michael W. Deem and Ramdas Pophale) SiO2 
 PCOD9413047
Probable space group: P N N A
;
_chemical_formula_sum "Si O2"
_cell_formula_units_Z 40
_cell_length_a 10.295916
_cell_length_b 18.299659
_cell_length_c 10.902051
_cell_angle_alpha 90.000000
_cell_angle_beta 90.000000
_cell_angle_gamma 90.000000
_cell_volume 2054.074528
_symmetry_space_group_name_H-M "P N N A"
_symmetry_group_IT_number 52
_symmetry_cell_setting 'orthorhombic'
loop_
_space_group_symop_operation_xyz
x,y,z
1/2-x,-y,z
x,1/2-y,1/2-z
1/2-x,1/2+y,1/2-z
-x,-y,-z
1/2+x,y,-z
-x,1/2+y,1/2+z
1/2+x,1/2-y,1/2+z
loop_
_atom_site_type_symbol
_atom_site_label
_atom_site_fract_x
_atom_site_fract_y
_atom_site_fract_z
Si Si1 0.100347 0.163457 0.245016
Si Si2 0.358648 0.413077 0.638636
Si Si3 0.897728 0.927402 0.251905
Si Si4 0.173536 0.925504 0.144015
Si Si5 0.874223 0.551994 0.975040
O O1 0.110031 0.250000 0.250000
O O2 0.219746 0.135976 0.162661
O O3 0.108254 0.113656 0.370032
O O4 0.964662 0.143824 0.181216
O O5 0.210206 0.390927 0.665218
O O6 0.386266 0.486409 0.717620
O O7 0.372417 0.431745 0.496117
O O8 0.856022 0.912629 0.390839
O O9 0.047176 0.910164 0.225660
O O10 0.250000 0.000000 0.174666
O O11 0.750000 0.500000 0.949397
O O12 0.000000 0.500000 0.000000
#
# Coordination Sequence:
#
# PCOD9413047 Si02
#       5
#     8   8   8   8   8
#     4  12  27  45  61  98 139 181 218 276 355 402
#     4  11  21  40  67  97 131 164 217 284 331 392
#     4  11  20  37  69 105 120 164 234 280 325 387
#     4  12  21  40  71  97 132 172 225 278 332 409
#     4  12  21  41  70  94 129 170 226 282 322 398
#
# _framework density 19.473490000000002
#
# number of rings (size 3 to 8) (size 9 to 14) (size 15 to 20)
#    0.000    0.400    8.000    3.600    0.000    0.000 
#   10.800    1.000    0.000    0.000    0.000    0.000 
#    0.000    0.000    0.000    0.000    0.000    0.000 
#
# Total GULP energy -223353.267277 kJ/mol
# GULP energy per Si atom -5583.831682 kJ/mol
# Density = 1.942917 g / cm^3
# Si number density = 19.473490 Si / 1000 Ang^3
#
#
#
# Elastic Constant Matrix: (Units=GPa)
#
#
# Indices 1 2 3 4 5 6 
#
# 1 138.1299 62.8875 12.5930 0.0000 0.0000 0.0000
# 2 62.8875 94.6252 17.7731 0.0000 0.0000 0.0000
# 3 12.5930 17.7731 119.6650 0.0000 0.0000 0.0000
# 4 0.0000 0.0000 0.0000 11.4175 0.0000 0.0000
# 5 0.0000 0.0000 0.0000 0.0000 34.4435 0.0000
# 6 0.0000 0.0000 0.0000 0.0000 0.0000 17.3720
#
#
#
# Elastic Compliance Matrix: (Units=1/GPa)
#
#
# Indices 1 2 3 4 5 6 
#
# 1 0.010381 -0.006886 -0.000070 0.000000 0.000000 0.000000
# 2 -0.006886 0.015439 -0.001568 0.000000 0.000000 0.000000
# 3 -0.000070 -0.001568 0.008597 0.000000 0.000000 0.000000
# 4 0.000000 0.000000 0.000000 0.087585 0.000000 0.000000
# 5 0.000000 0.000000 0.000000 0.000000 0.029033 0.000000
# 6 0.000000 0.000000 0.000000 0.000000 0.000000 0.057564
#
#
# Mechanical properties :
#
#
# Convention : Reuss Voigt Hill
#
# Bulk Modulus (GPa) = 57.57506 59.88079 58.72793
# Shear Modulus (GPa) = 21.60418 29.92436 25.76427
#
# Velocity S-wave (km/s) = 3.33440 3.92429 3.64131
# Velocity P-wave (km/s) = 6.66741 7.16590 6.92114
#
# Compressibility (1/GPa) = 0.01736863
#
# Stress axis : x y z
#
# Youngs Moduli (GPa) = 96.32982 64.77077 116.32040
#
# Poissons Ratio (x) = 0.44602 0.00811
# Poissons Ratio (y) = 0.66334 0.18244
# Poissons Ratio (z) = 0.00671 0.10159
#
# Static dielectric constant tensor:
#      x y z
#    x 1.751950 0.000000 0.000000 
#    y 0.000000 1.650120 0.000000 
#    z 0.000000 0.000000 1.733760 
# 
# From -- ./inp_files/16655.got.cif
#   From: 2010.05.17/outbox.cif.g08.bks.cpg/sg52_9_cif.got.tgz:16655.got - 2010.06.03 12:15:38.
