data_PCOD9413070
_publ_section_title
;
Structure prediction by ZEFSAII (Michael W. Deem and Ramdas Pophale) SiO2 
 PCOD9413070
Probable space group: P N N A
;
_chemical_formula_sum "Si O2"
_cell_formula_units_Z 32
_cell_length_a 8.302314
_cell_length_b 6.145796
_cell_length_c 27.978093
_cell_angle_alpha 90.000000
_cell_angle_beta 90.000000
_cell_angle_gamma 90.000000
_cell_volume 1427.563399
_symmetry_space_group_name_H-M "P N N A"
_symmetry_group_IT_number 52
_symmetry_cell_setting 'orthorhombic'
loop_
_space_group_symop_operation_xyz
x,y,z
1/2-x,-y,z
x,1/2-y,1/2-z
1/2-x,1/2+y,1/2-z
-x,-y,-z
1/2+x,y,-z
-x,1/2+y,1/2+z
1/2+x,1/2-y,1/2+z
loop_
_atom_site_type_symbol
_atom_site_label
_atom_site_fract_x
_atom_site_fract_y
_atom_site_fract_z
Si Si1 0.939444 0.459527 0.446948
Si Si2 0.604454 0.678985 0.642453
Si Si3 0.922341 0.083344 0.212174
Si Si4 0.928667 0.098236 0.377668
O O1 0.750000 0.500000 0.445666
O O2 0.975324 0.219184 0.426558
O O3 0.000000 0.500000 0.500000
O O4 0.016838 0.615645 0.407307
O O5 0.750000 0.500000 0.642305
O O6 0.520995 0.620391 0.692989
O O7 0.572180 0.938858 0.639077
O O8 0.996433 0.250000 0.250000
O O9 0.902056 0.220920 0.163386
O O10 0.750000 0.000000 0.230688
O O11 0.750000 0.000000 0.383362
#
# Coordination Sequence:
#
# PCOD9413070 Si02
#       4
#     8   8   8   8
#     4  11  23  41  66 100 135 171 229 283 343 424
#     4  11  24  44  65  97 139 177 227 292 349 417
#     4  11  23  39  66 100 130 176 232 281 339 423
#     4  11  20  43  70  91 132 181 223 281 345 411
#
# _framework density 22.415818000000002
#
# number of rings (size 3 to 8) (size 9 to 14) (size 15 to 20)
#    0.000    1.000    5.000    3.000    0.000    5.000 
#    4.500    0.000    0.000    0.000    0.000    0.000 
#    0.000    0.000    0.000    0.000    0.000    0.000 
#
# Total GULP energy -178333.511296 kJ/mol
# GULP energy per Si atom -5572.922228 kJ/mol
# Density = 2.236480 g / cm^3
# Si number density = 22.415818 Si / 1000 Ang^3
#
#
#
# Elastic Constant Matrix: (Units=GPa)
#
#
# Indices 1 2 3 4 5 6 
#
# 1 59.4074 2.9567 -16.5922 0.0000 0.0000 0.0000
# 2 2.9567 101.1000 9.2163 0.0000 0.0000 0.0000
# 3 -16.5922 9.2163 104.5458 0.0000 0.0000 0.0000
# 4 0.0000 0.0000 0.0000 36.0272 0.0000 0.0000
# 5 0.0000 0.0000 0.0000 0.0000 13.2062 0.0000
# 6 0.0000 0.0000 0.0000 0.0000 0.0000 29.0568
#
#
#
# Elastic Compliance Matrix: (Units=1/GPa)
#
#
# Indices 1 2 3 4 5 6 
#
# 1 0.017674 -0.000779 0.002874 0.000000 0.000000 0.000000
# 2 -0.000779 0.010006 -0.001006 0.000000 0.000000 0.000000
# 3 0.002874 -0.001006 0.010110 0.000000 0.000000 0.000000
# 4 0.000000 0.000000 0.000000 0.027757 0.000000 0.000000
# 5 0.000000 0.000000 0.000000 0.000000 0.075722 0.000000
# 6 0.000000 0.000000 0.000000 0.000000 0.000000 0.034415
#
#
# Mechanical properties :
#
#
# Convention : Reuss Voigt Hill
#
# Bulk Modulus (GPa) = 25.01987 28.46831 26.74409
# Shear Modulus (GPa) = 26.76257 33.62288 30.19272
#
# Velocity S-wave (km/s) = 3.45906 3.87714 3.67405
# Velocity P-wave (km/s) = 5.20954 5.72456 5.47311
#
# Compressibility (1/GPa) = 0.03996823
#
# Stress axis : x y z
#
# Youngs Moduli (GPa) = 56.57936 99.94346 98.91270
#
# Poissons Ratio (x) = 0.07784 -0.28425
# Poissons Ratio (y) = 0.04407 0.09947
# Poissons Ratio (z) = -0.16259 0.10051
#
# Static dielectric constant tensor:
#      x y z
#    x 1.927620 0.000000 0.000000 
#    y 0.000000 1.974830 0.000000 
#    z 0.000000 0.000000 1.778440 
# 
# From -- ./inp_files/44018.got.cif
#   From: 2010.05.17/outbox.cif.g08.bks.cpg/sg52_23_cif.got.tgz:44018.got - 2010.06.03 12:15:38.
