data_PCOD9413788
_publ_section_title
;
Structure prediction by ZEFSAII (Michael W. Deem and Ramdas Pophale) SiO2 
 PCOD9413788
Probable space group: P N N A
;
_chemical_formula_sum "Si O2"
_cell_formula_units_Z 32
_cell_length_a 15.500756
_cell_length_b 5.105665
_cell_length_c 16.898764
_cell_angle_alpha 90.000000
_cell_angle_beta 90.000000
_cell_angle_gamma 90.000000
_cell_volume 1337.396360
_symmetry_space_group_name_H-M "P N N A"
_symmetry_group_IT_number 52
_symmetry_cell_setting 'orthorhombic'
loop_
_space_group_symop_operation_xyz
x,y,z
1/2-x,-y,z
x,1/2-y,1/2-z
1/2-x,1/2+y,1/2-z
-x,-y,-z
1/2+x,y,-z
-x,1/2+y,1/2+z
1/2+x,1/2-y,1/2+z
loop_
_atom_site_type_symbol
_atom_site_label
_atom_site_fract_x
_atom_site_fract_y
_atom_site_fract_z
Si Si1 0.657121 0.750000 0.750000
Si Si2 0.750000 0.500000 0.888271
Si Si3 0.534372 0.250000 0.750000
Si Si4 0.902672 0.614205 0.010868
Si Si5 0.250000 0.000000 0.799727
Si Si6 0.594405 0.623142 0.394294
O O1 0.715379 0.722958 0.828298
O O2 0.595014 0.501154 0.755455
O O3 0.831739 0.594540 0.940998
O O4 0.477781 0.300690 0.670550
O O5 0.868606 0.397658 0.073896
O O6 0.920166 0.913973 0.035587
O O7 0.000000 0.500000 0.000000
O O8 0.228207 0.750000 0.750000
O O9 0.166033 0.046974 0.849845
#
# Coordination Sequence:
#
# PCOD9413788 Si02
#       6
#     4   4   4   8   4   8
#     4  12  29  48  81 110 148 208 259 340 390 452
#     4  12  28  53  77 114 156 202 280 322 396 479
#     4  12  25  48  75 118 156 200 267 320 394 468
#     4  12  27  47  75 110 154 206 253 320 394 465
#     4  12  24  41  67 106 146 196 248 304 380 443
#     4  12  25  45  73 109 156 201 252 320 384 467
#
# _framework density 23.927088999999999
#
# number of rings (size 3 to 8) (size 9 to 14) (size 15 to 20)
#    0.000    0.000    1.250    9.000    1.750    6.000 
#    0.000    0.000    0.000    0.000    0.000    0.000 
#    0.000    0.000    0.000    0.000    0.000    0.000 
#
# Total GULP energy -178802.873586 kJ/mol
# GULP energy per Si atom -5587.589800 kJ/mol
# Density = 2.387263 g / cm^3
# Si number density = 23.927089 Si / 1000 Ang^3
#
#
#
# Elastic Constant Matrix: (Units=GPa)
#
#
# Indices 1 2 3 4 5 6 
#
# 1 156.9268 50.6947 87.3982 0.0000 0.0000 0.0000
# 2 50.6947 182.9078 65.7819 0.0000 0.0000 0.0000
# 3 87.3982 65.7819 147.4515 0.0000 0.0000 0.0000
# 4 0.0000 0.0000 0.0000 88.2388 0.0000 0.0000
# 5 0.0000 0.0000 0.0000 0.0000 107.5268 0.0000
# 6 0.0000 0.0000 0.0000 0.0000 0.0000 47.0028
#
#
#
# Elastic Compliance Matrix: (Units=1/GPa)
#
#
# Indices 1 2 3 4 5 6 
#
# 1 0.009594 -0.000731 -0.005360 0.000000 0.000000 0.000000
# 2 -0.000731 0.006568 -0.002497 0.000000 0.000000 0.000000
# 3 -0.005360 -0.002497 0.011073 0.000000 0.000000 0.000000
# 4 0.000000 0.000000 0.000000 0.011333 0.000000 0.000000
# 5 0.000000 0.000000 0.000000 0.000000 0.009300 0.000000
# 6 0.000000 0.000000 0.000000 0.000000 0.000000 0.021275
#
#
# Mechanical properties :
#
#
# Convention : Reuss Voigt Hill
#
# Bulk Modulus (GPa) = 99.42113 99.44843 99.43478
# Shear Modulus (GPa) = 55.75857 67.44776 61.60316
#
# Velocity S-wave (km/s) = 4.83261 5.31508 5.07958
# Velocity P-wave (km/s) = 8.53116 8.90618 8.72069
#
# Compressibility (1/GPa) = 0.01005822
#
# Stress axis : x y z
#
# Youngs Moduli (GPa) = 104.23162 152.25768 90.31020
#
# Poissons Ratio (x) = 0.11134 0.48410
# Poissons Ratio (y) = 0.07622 0.22547
# Poissons Ratio (z) = 0.55872 0.38013
#
# Static dielectric constant tensor:
#      x y z
#    x 1.936140 0.000000 0.000000 
#    y 0.000000 1.918550 0.000000 
#    z 0.000000 0.000000 2.014500 
# 
# From -- ./inp_files/32676.got.cif
#   From: 2010.05.17/outbox.cif.g08.bks.cpg/sg52_17_cif.got.tgz:32676.got - 2010.06.03 12:15:38.
