data_PCOD9413060
_publ_section_title
;
Structure prediction by ZEFSAII (Michael W. Deem and Ramdas Pophale) SiO2 
 PCOD9413060
Probable space group: P N N A
;
_chemical_formula_sum "Si O2"
_cell_formula_units_Z 40
_cell_length_a 14.460519
_cell_length_b 16.783814
_cell_length_c 7.664391
_cell_angle_alpha 90.000000
_cell_angle_beta 90.000000
_cell_angle_gamma 90.000000
_cell_volume 1860.168092
_symmetry_space_group_name_H-M "P N N A"
_symmetry_group_IT_number 52
_symmetry_cell_setting 'orthorhombic'
loop_
_space_group_symop_operation_xyz
x,y,z
1/2-x,-y,z
x,1/2-y,1/2-z
1/2-x,1/2+y,1/2-z
-x,-y,-z
1/2+x,y,-z
-x,1/2+y,1/2+z
1/2+x,1/2-y,1/2+z
loop_
_atom_site_type_symbol
_atom_site_label
_atom_site_fract_x
_atom_site_fract_y
_atom_site_fract_z
Si Si1 0.092554 0.910952 0.480779
Si Si2 0.145202 0.467417 0.726928
Si Si3 0.639663 0.481659 0.668984
Si Si4 0.229648 0.315386 0.885913
Si Si5 0.924705 0.821016 0.636474
O O1 0.185997 0.861984 0.524469
O O2 0.005092 0.855916 0.515160
O O3 0.093656 0.982579 0.623699
O O4 0.096646 0.949614 0.290200
O O5 0.250000 0.500000 0.725100
O O6 0.108744 0.480177 0.532258
O O7 0.163235 0.376968 0.782133
O O8 0.750000 0.500000 0.674647
O O9 0.615109 0.396680 0.755935
O O10 0.263830 0.250000 0.750000
O O11 0.161453 0.282777 0.033410
O O12 0.966075 0.750000 0.750000
#
# Coordination Sequence:
#
# PCOD9413060 Si02
#       5
#     8   8   8   8   8
#     4  11  22  44  66  95 129 179 219 272 329 397
#     4   9  20  37  66  95 122 169 224 260 319 393
#     4  11  20  41  70  96 127 177 226 266 322 399
#     4  11  22  43  65  92 140 175 217 282 339 388
#     4  12  25  41  64  99 136 170 222 276 332 389
#
# _framework density 21.503432
#
# number of rings (size 3 to 8) (size 9 to 14) (size 15 to 20)
#    0.000    1.200    4.000    3.000    0.000    0.800 
#    3.600    1.000    0.000    0.000    0.000    0.000 
#    0.000    0.000    0.000    0.000    0.000    0.000 
#
# Total GULP energy -223611.101697 kJ/mol
# GULP energy per Si atom -5590.277542 kJ/mol
# Density = 2.145449 g / cm^3
# Si number density = 21.503432 Si / 1000 Ang^3
#
#
#
# Elastic Constant Matrix: (Units=GPa)
#
#
# Indices 1 2 3 4 5 6 
#
# 1 86.0634 11.0529 17.1643 0.0000 0.0000 0.0000
# 2 11.0529 63.9244 3.0106 0.0000 0.0000 0.0000
# 3 17.1643 3.0106 90.3652 0.0000 0.0000 0.0000
# 4 0.0000 0.0000 0.0000 35.5525 0.0000 0.0000
# 5 0.0000 0.0000 0.0000 0.0000 8.8945 0.0000
# 6 0.0000 0.0000 0.0000 0.0000 0.0000 19.9851
#
#
#
# Elastic Compliance Matrix: (Units=1/GPa)
#
#
# Indices 1 2 3 4 5 6 
#
# 1 0.012333 -0.002025 -0.002275 0.000000 0.000000 0.000000
# 2 -0.002025 0.016001 -0.000148 0.000000 0.000000 0.000000
# 3 -0.002275 -0.000148 0.011503 0.000000 0.000000 0.000000
# 4 0.000000 0.000000 0.000000 0.028127 0.000000 0.000000
# 5 0.000000 0.000000 0.000000 0.000000 0.112428 0.000000
# 6 0.000000 0.000000 0.000000 0.000000 0.000000 0.050037
#
#
# Mechanical properties :
#
#
# Convention : Reuss Voigt Hill
#
# Bulk Modulus (GPa) = 32.32120 33.64541 32.98331
# Shear Modulus (GPa) = 20.02876 26.82812 23.42844
#
# Velocity S-wave (km/s) = 3.05523 3.53600 3.30437
# Velocity P-wave (km/s) = 5.24493 5.68784 5.47087
#
# Compressibility (1/GPa) = 0.03093945
#
# Stress axis : x y z
#
# Youngs Moduli (GPa) = 81.08197 62.49742 86.93161
#
# Poissons Ratio (x) = 0.12658 0.19778
# Poissons Ratio (y) = 0.16422 0.01290
# Poissons Ratio (z) = 0.18447 0.00927
#
# Static dielectric constant tensor:
#      x y z
#    x 1.776290 0.000000 0.000000 
#    y 0.000000 1.770280 0.000000 
#    z 0.000000 0.000000 1.791310 
# 
# From -- ./inp_files/10076.got.cif
#   From: 2010.05.17/outbox.cif.g08.bks.cpg/sg52_6_cif.got.tgz:10076.got - 2010.06.03 12:15:38.
