data_PCOD9413396
_publ_section_title
;
Structure prediction by ZEFSAII (Michael W. Deem and Ramdas Pophale) SiO2 
 PCOD9413396
Probable space group: P N N A
;
_chemical_formula_sum "Si O2"
_cell_formula_units_Z 56
_cell_length_a 14.707971
_cell_length_b 5.421303
_cell_length_c 30.458390
_cell_angle_alpha 90.000000
_cell_angle_beta 90.000000
_cell_angle_gamma 90.000000
_cell_volume 2428.641373
_symmetry_space_group_name_H-M "P N N A"
_symmetry_group_IT_number 52
_symmetry_cell_setting 'orthorhombic'
loop_
_space_group_symop_operation_xyz
x,y,z
1/2-x,-y,z
x,1/2-y,1/2-z
1/2-x,1/2+y,1/2-z
-x,-y,-z
1/2+x,y,-z
-x,1/2+y,1/2+z
1/2+x,1/2-y,1/2+z
loop_
_atom_site_type_symbol
_atom_site_label
_atom_site_fract_x
_atom_site_fract_y
_atom_site_fract_z
Si Si1 0.304356 0.244758 0.821590
Si Si2 0.494046 0.662382 0.298318
Si Si3 0.998481 0.653820 0.543866
Si Si4 0.702031 0.245429 0.550122
Si Si5 0.500363 0.289522 0.372861
Si Si6 0.658493 0.081295 0.643824
Si Si7 0.650951 0.578249 0.088072
O O1 0.250000 0.500000 0.814780
O O2 0.404188 0.269320 0.801642
O O3 0.324673 0.225075 0.873805
O O4 0.250000 0.000000 0.806983
O O5 0.465161 0.750000 0.250000
O O6 0.508160 0.396424 0.323044
O O7 0.414050 0.768754 0.328420
O O8 0.086549 0.819543 0.550496
O O9 0.000000 0.500000 0.500000
O O10 0.903229 0.787987 0.539408
O O11 0.994720 0.494550 0.588921
O O12 0.750000 0.500000 0.535855
O O13 0.699761 0.233935 0.603257
O O14 0.750000 0.000000 0.534165
O O15 0.406371 0.136785 0.374451
O O16 0.587796 0.123532 0.386493
O O17 0.750000 0.000000 0.668995
O O18 0.750000 0.500000 0.072082
#
# Coordination Sequence:
#
# PCOD9413396 Si02
#       7
#     8   8   8   8   8   8   8
#     4  11  23  44  77 107 146 199 252 306 380 461
#     4  12  26  44  70 109 149 197 252 323 385 459
#     4  12  26  46  73 111 148 195 252 321 385 467
#     4  11  23  46  78 105 146 201 255 313 383 462
#     4  12  22  50  74  98 155 195 254 315 387 459
#     4  11  24  44  72 102 138 202 250 309 381 453
#     4  11  24  44  74 105 147 205 250 310 392 470
#
# _framework density 23.058160999999998
#
# number of rings (size 3 to 8) (size 9 to 14) (size 15 to 20)
#    0.000    0.571    5.714    3.429    0.000    1.714 
#    5.143    0.714    0.000    0.000    0.000    0.000 
#    0.000    0.000    0.000    0.000    0.000    0.000 
#
# Total GULP energy -312664.838303 kJ/mol
# GULP energy per Si atom -5583.300684 kJ/mol
# Density = 2.300568 g / cm^3
# Si number density = 23.058161 Si / 1000 Ang^3
#
#
#
# Elastic Constant Matrix: (Units=GPa)
#
#
# Indices 1 2 3 4 5 6 
#
# 1 211.5435 69.4591 17.0846 0.0000 0.0000 0.0000
# 2 69.4591 105.6112 30.7937 0.0000 0.0000 0.0000
# 3 17.0846 30.7937 91.3779 0.0000 0.0000 0.0000
# 4 0.0000 0.0000 0.0000 17.9930 0.0000 0.0000
# 5 0.0000 0.0000 0.0000 0.0000 -33.1590 0.0000
# 6 0.0000 0.0000 0.0000 0.0000 0.0000 50.1074
#
#
#
# Elastic Compliance Matrix: (Units=1/GPa)
#
#
# Indices 1 2 3 4 5 6 
#
# 1 0.006034 -0.004036 0.000232 0.000000 0.000000 0.000000
# 2 -0.004036 0.013200 -0.003694 0.000000 0.000000 0.000000
# 3 0.000232 -0.003694 0.012145 0.000000 0.000000 0.000000
# 4 0.000000 0.000000 0.000000 0.055577 0.000000 0.000000
# 5 0.000000 0.000000 0.000000 0.000000 -0.030158 0.000000
# 6 0.000000 0.000000 0.000000 0.000000 0.000000 0.019957
#
#
# Mechanical properties :
#
#
# Convention : Reuss Voigt Hill
#
# Bulk Modulus (GPa) = 61.03764 71.46748 66.25256
# Shear Modulus (GPa) = 51.43423 26.40130 38.91777
#
# Velocity S-wave (km/s) = 4.72808 3.38744 4.11275
# Velocity P-wave (km/s) = 7.50566 6.80892 7.16576
#
# Compressibility (1/GPa) = 0.01638333
#
# Stress axis : x y z
#
# Youngs Moduli (GPa) = 165.73929 75.75741 82.33864
#
# Poissons Ratio (x) = 0.30575 -0.01910
# Poissons Ratio (y) = 0.66890 0.30414
# Poissons Ratio (z) = -0.03845 0.27983
#
# Static dielectric constant tensor:
#      x y z
#    x 1.753760 0.000000 0.000000 
#    y 0.000000 -5.030360 0.000000 
#    z 0.000000 0.000000 2.037340 
# 
# From -- ./inp_files/44997.got.cif
#   From: 2010.05.17/outbox.cif.g08.bks.cpg/sg52_23_cif.got.tgz:44997.got - 2010.06.03 12:15:38.
