data_PCOD9413802
_publ_section_title
;
Structure prediction by ZEFSAII (Michael W. Deem and Ramdas Pophale) SiO2 
 PCOD9413802
Probable space group: P N N A
;
_chemical_formula_sum "Si O2"
_cell_formula_units_Z 32
_cell_length_a 9.080223
_cell_length_b 14.569086
_cell_length_c 9.050110
_cell_angle_alpha 90.000000
_cell_angle_beta 90.000000
_cell_angle_gamma 90.000000
_cell_volume 1197.244028
_symmetry_space_group_name_H-M "P N N A"
_symmetry_group_IT_number 52
_symmetry_cell_setting 'orthorhombic'
loop_
_space_group_symop_operation_xyz
x,y,z
1/2-x,-y,z
x,1/2-y,1/2-z
1/2-x,1/2+y,1/2-z
-x,-y,-z
1/2+x,y,-z
-x,1/2+y,1/2+z
1/2+x,1/2-y,1/2+z
loop_
_atom_site_type_symbol
_atom_site_label
_atom_site_fract_x
_atom_site_fract_y
_atom_site_fract_z
Si Si1 0.871044 0.817566 0.537210
Si Si2 0.021307 0.585333 0.701278
Si Si3 0.283880 0.128879 0.082366
Si Si4 0.958823 0.250000 0.750000
Si Si5 0.750000 0.000000 0.402595
O O1 0.763941 0.736317 0.583851
O O2 0.980777 0.840313 0.671955
O O3 0.946466 0.773446 0.395196
O O4 0.784608 0.910256 0.498033
O O5 0.134877 0.610173 0.570925
O O6 0.108018 0.511940 0.798384
O O7 0.862817 0.570787 0.620709
O O8 0.396755 0.145410 0.214494
#
# Coordination Sequence:
#
# PCOD9413802 Si02
#       5
#     8   8   8   4   4
#     4  12  26  50  81 119 158 212 267 339 408 489
#     4  12  28  52  78 117 160 214 264 342 399 489
#     4  12  26  49  83 113 155 211 284 324 391 484
#     4  12  24  44  80 120 148 204 272 338 392 484
#     4  12  30  48  82 122 168 208 262 342 434 472
#
# _framework density 26.728051000000001
#
# number of rings (size 3 to 8) (size 9 to 14) (size 15 to 20)
#    0.000    0.000    5.000    3.750    3.500    1.000 
#    0.000    0.000    0.000    0.000    0.000    0.000 
#    0.000    0.000    0.000    0.000    0.000    0.000 
#
# Total GULP energy -179055.817565 kJ/mol
# GULP energy per Si atom -5595.494299 kJ/mol
# Density = 2.666722 g / cm^3
# Si number density = 26.728051 Si / 1000 Ang^3
#
#
#
# Elastic Constant Matrix: (Units=GPa)
#
#
# Indices 1 2 3 4 5 6 
#
# 1 94.8560 54.1048 39.0557 0.0000 0.0000 0.0000
# 2 54.1048 83.3927 27.4238 0.0000 0.0000 0.0000
# 3 39.0557 27.4238 161.1311 0.0000 0.0000 0.0000
# 4 0.0000 0.0000 0.0000 43.0765 0.0000 0.0000
# 5 0.0000 0.0000 0.0000 0.0000 -384.4582 0.0000
# 6 0.0000 0.0000 0.0000 0.0000 0.0000 19.1284
#
#
#
# Elastic Compliance Matrix: (Units=1/GPa)
#
#
# Indices 1 2 3 4 5 6 
#
# 1 0.017612 -0.010617 -0.002462 0.000000 0.000000 0.000000
# 2 -0.010617 0.019102 -0.000678 0.000000 0.000000 0.000000
# 3 -0.002462 -0.000678 0.006918 0.000000 0.000000 0.000000
# 4 0.000000 0.000000 0.000000 0.023215 0.000000 0.000000
# 5 0.000000 0.000000 0.000000 0.000000 -0.002601 0.000000
# 6 0.000000 0.000000 0.000000 0.000000 0.000000 0.052278
#
#
# Mechanical properties :
#
#
# Convention : Reuss Voigt Hill
#
# Bulk Modulus (GPa) = 62.03696 64.50537 63.27116
# Shear Modulus (GPa) = 33.46498 -49.86429 -8.19965
#
# Velocity S-wave (km/s) = 3.54228 -4.32396 -1.75342
# Velocity P-wave (km/s) = 6.32385 0.86170 4.42993
#
# Compressibility (1/GPa) = 0.01611942
#
# Stress axis : x y z
#
# Youngs Moduli (GPa) = 56.78070 52.34931 144.54613
#
# Poissons Ratio (x) = 0.55578 0.35585
# Poissons Ratio (y) = 0.60283 0.09798
# Poissons Ratio (z) = 0.13979 0.03548
#
# Static dielectric constant tensor:
#      x y z
#    x 2.224450 0.000000 0.000000 
#    y 0.000000 2.172520 0.000000 
#    z 0.000000 0.000000 2.059910 
# 
# From -- ./inp_files/8284.got.cif
#   From: 2010.05.17/outbox.cif.g08.bks.cpg/sg52_5_cif.got.tgz:8284.got - 2010.06.03 12:15:38.
