data_PCOD9413676
_publ_section_title
;
Structure prediction by ZEFSAII (Michael W. Deem and Ramdas Pophale) SiO2 
 PCOD9413676
Probable space group: P N N A
;
_chemical_formula_sum "Si O2"
_cell_formula_units_Z 28
_cell_length_a 9.160612
_cell_length_b 15.997055
_cell_length_c 7.185104
_cell_angle_alpha 90.000000
_cell_angle_beta 90.000000
_cell_angle_gamma 90.000000
_cell_volume 1052.925359
_symmetry_space_group_name_H-M "P N N A"
_symmetry_group_IT_number 52
_symmetry_cell_setting 'orthorhombic'
loop_
_space_group_symop_operation_xyz
x,y,z
1/2-x,-y,z
x,1/2-y,1/2-z
1/2-x,1/2+y,1/2-z
-x,-y,-z
1/2+x,y,-z
-x,1/2+y,1/2+z
1/2+x,1/2-y,1/2+z
loop_
_atom_site_type_symbol
_atom_site_label
_atom_site_fract_x
_atom_site_fract_y
_atom_site_fract_z
Si Si1 0.337451 0.584556 0.210300
Si Si2 0.053840 0.644290 0.056432
Si Si3 0.615201 0.750000 0.250000
Si Si4 0.181243 0.093201 0.852925
O O1 0.250000 0.500000 0.179377
O O2 0.488350 0.582721 0.101065
O O3 0.854120 0.595998 0.571478
O O4 0.222682 0.647805 0.114681
O O5 0.026473 0.729106 0.938464
O O6 0.962589 0.616384 0.235234
O O7 0.710364 0.831481 0.202216
O O8 0.250000 0.000000 0.817074
#
# Coordination Sequence:
#
# PCOD9413676 Si02
#       4
#     8   8   4   8
#     4  11  27  48  84 119 161 215 269 331 409 482
#     4  12  27  50  81 114 167 204 273 331 405 478
#     4  12  30  48  78 120 160 216 262 332 412 478
#     4  11  29  52  82 122 163 212 272 336 407 484
#
# _framework density 26.592576000000001
#
# number of rings (size 3 to 8) (size 9 to 14) (size 15 to 20)
#    0.000    0.571    2.857    1.714   12.000    3.429 
#    0.000    0.000    0.000    0.000    0.000    0.000 
#    0.000    0.000    0.000    0.000    0.000    0.000 
#
# Total GULP energy -156670.453054 kJ/mol
# GULP energy per Si atom -5595.373323 kJ/mol
# Density = 2.653205 g / cm^3
# Si number density = 26.592576 Si / 1000 Ang^3
#
#
#
# Elastic Constant Matrix: (Units=GPa)
#
#
# Indices 1 2 3 4 5 6 
#
# 1 117.0343 39.1116 67.6089 0.0000 0.0000 0.0000
# 2 39.1116 140.7219 33.0975 0.0000 0.0000 0.0000
# 3 67.6089 33.0975 210.2375 0.0000 0.0000 0.0000
# 4 0.0000 0.0000 0.0000 51.7059 0.0000 0.0000
# 5 0.0000 0.0000 0.0000 0.0000 -2.0095 0.0000
# 6 0.0000 0.0000 0.0000 0.0000 0.0000 44.7385
#
#
#
# Elastic Compliance Matrix: (Units=1/GPa)
#
#
# Indices 1 2 3 4 5 6 
#
# 1 0.011197 -0.002352 -0.003230 0.000000 0.000000 0.000000
# 2 -0.002352 0.007874 -0.000483 0.000000 0.000000 0.000000
# 3 -0.003230 -0.000483 0.005871 0.000000 0.000000 0.000000
# 4 0.000000 0.000000 0.000000 0.019340 0.000000 0.000000
# 5 0.000000 0.000000 0.000000 0.000000 -0.497647 0.000000
# 6 0.000000 0.000000 0.000000 0.000000 0.000000 0.022352
#
#
# Mechanical properties :
#
#
# Convention : Reuss Voigt Hill
#
# Bulk Modulus (GPa) = 78.06164 83.06995 80.56579
# Shear Modulus (GPa) = -12.05949 40.76537 14.35294
#
# Velocity S-wave (km/s) = -2.13184 3.91955 2.32574
# Velocity P-wave (km/s) = 4.83309 7.19651 6.12978
#
# Compressibility (1/GPa) = 0.01281039
#
# Stress axis : x y z
#
# Youngs Moduli (GPa) = 89.31191 127.00680 170.31661
#
# Poissons Ratio (x) = 0.29874 0.55019
# Poissons Ratio (y) = 0.21008 0.08228
# Poissons Ratio (z) = 0.28851 0.06136
#
# Static dielectric constant tensor:
#      x y z
#    x 2.223810 0.000000 0.000000 
#    y 0.000000 2.232760 0.000000 
#    z 0.000000 0.000000 2.037700 
# 
# From -- ./inp_files/16380.got.cif
#   From: 2010.05.17/outbox.cif.g08.bks.cpg/sg52_9_cif.got.tgz:16380.got - 2010.06.03 12:15:38.
