data_PCOD9413875
_publ_section_title
;
Structure prediction by ZEFSAII (Michael W. Deem and Ramdas Pophale) SiO2 
 PCOD9413875
Probable space group: P N N A
;
_chemical_formula_sum "Si O2"
_cell_formula_units_Z 36
_cell_length_a 8.134481
_cell_length_b 8.849530
_cell_length_c 22.713610
_cell_angle_alpha 90.000000
_cell_angle_beta 90.000000
_cell_angle_gamma 90.000000
_cell_volume 1635.069508
_symmetry_space_group_name_H-M "P N N A"
_symmetry_group_IT_number 52
_symmetry_cell_setting 'orthorhombic'
loop_
_space_group_symop_operation_xyz
x,y,z
1/2-x,-y,z
x,1/2-y,1/2-z
1/2-x,1/2+y,1/2-z
-x,-y,-z
1/2+x,y,-z
-x,1/2+y,1/2+z
1/2+x,1/2-y,1/2+z
loop_
_atom_site_type_symbol
_atom_site_label
_atom_site_fract_x
_atom_site_fract_y
_atom_site_fract_z
Si Si1 0.575863 0.750000 0.250000
Si Si2 0.775846 0.840513 0.934359
Si Si3 0.401697 0.695701 0.559082
Si Si4 0.750000 0.000000 0.164059
Si Si5 0.250000 0.000000 0.590042
Si Si6 0.917402 0.592270 0.854021
O O1 0.675990 0.632656 0.292974
O O2 0.457449 0.650658 0.210085
O O3 0.595146 0.768190 0.940351
O O4 0.892890 0.731167 0.898439
O O5 0.750000 0.000000 0.902335
O O6 0.860411 0.878391 0.996501
O O7 0.361613 0.594219 0.616615
O O8 0.285440 0.844503 0.556522
O O9 0.084355 0.989962 0.627530
O O10 0.750000 0.500000 0.856375
#
# Coordination Sequence:
#
# PCOD9413875 Si02
#       6
#     4   8   8   4   4   8
#     4  12  28  48  76 108 154 200 268 312 372 458
#     4  12  26  45  75 116 154 196 250 316 385 463
#     4  12  26  45  78 111 159 198 252 316 391 455
#     4  12  27  48  78 112 150 215 250 318 382 450
#     4  12  25  50  74 110 150 197 246 312 380 452
#     4  12  27  51  74 111 151 202 256 312 380 452
#
# _framework density 22.017412
#
# number of rings (size 3 to 8) (size 9 to 14) (size 15 to 20)
#    0.000    0.000    5.556    4.000    1.556    4.444 
#    0.000    0.000    0.000    0.000    0.000    0.000 
#    0.000    0.000    0.000    0.000    0.000    0.000 
#
# Total GULP energy -201048.953524 kJ/mol
# GULP energy per Si atom -5584.693153 kJ/mol
# Density = 2.196730 g / cm^3
# Si number density = 22.017412 Si / 1000 Ang^3
#
#
#
# Elastic Constant Matrix: (Units=GPa)
#
#
# Indices 1 2 3 4 5 6 
#
# 1 139.7443 30.2602 45.6147 0.0000 0.0000 0.0000
# 2 30.2602 82.4931 32.9445 0.0000 0.0000 0.0000
# 3 45.6147 32.9445 122.9433 0.0000 0.0000 0.0000
# 4 0.0000 0.0000 0.0000 -15.8221 0.0000 0.0000
# 5 0.0000 0.0000 0.0000 0.0000 28.3337 0.0000
# 6 0.0000 0.0000 0.0000 0.0000 0.0000 26.4701
#
#
#
# Elastic Compliance Matrix: (Units=1/GPa)
#
#
# Indices 1 2 3 4 5 6 
#
# 1 0.008446 -0.002068 -0.002579 0.000000 0.000000 0.000000
# 2 -0.002068 0.014081 -0.003006 0.000000 0.000000 0.000000
# 3 -0.002579 -0.003006 0.009896 0.000000 0.000000 0.000000
# 4 0.000000 0.000000 0.000000 -0.063203 0.000000 0.000000
# 5 0.000000 0.000000 0.000000 0.000000 0.035294 0.000000
# 6 0.000000 0.000000 0.000000 0.000000 0.000000 0.037778
#
#
# Mechanical properties :
#
#
# Convention : Reuss Voigt Hill
#
# Bulk Modulus (GPa) = 58.42295 62.53549 60.47922
# Shear Modulus (GPa) = 78.98257 23.55376 51.26816
#
# Velocity S-wave (km/s) = 5.99589 3.27430 4.83072
# Velocity P-wave (km/s) = 8.63288 6.53904 7.65786
#
# Compressibility (1/GPa) = 0.01711656
#
# Stress axis : x y z
#
# Youngs Moduli (GPa) = 118.40381 71.01628 101.04731
#
# Poissons Ratio (x) = 0.14686 0.26064
# Poissons Ratio (y) = 0.24485 0.30375
# Poissons Ratio (z) = 0.30541 0.21348
#
# Static dielectric constant tensor:
#      x y z
#    x 1.766640 0.000000 0.000000 
#    y 0.000000 2.053340 0.000000 
#    z 0.000000 0.000000 1.885250 
# 
# From -- ./inp_files/35609.got.cif
#   From: 2010.05.17/outbox.cif.g08.bks.cpg/sg52_18_cif.got.tgz:35609.got - 2010.06.03 12:15:38.
