data_PCOD9413454
_publ_section_title
;
Structure prediction by ZEFSAII (Michael W. Deem and Ramdas Pophale) SiO2 
 PCOD9413454
Probable space group: P N N A
;
_chemical_formula_sum "Si O2"
_cell_formula_units_Z 32
_cell_length_a 9.475439
_cell_length_b 4.868765
_cell_length_c 28.460153
_cell_angle_alpha 90.000000
_cell_angle_beta 90.000000
_cell_angle_gamma 90.000000
_cell_volume 1312.971755
_symmetry_space_group_name_H-M "P N N A"
_symmetry_group_IT_number 52
_symmetry_cell_setting 'orthorhombic'
loop_
_space_group_symop_operation_xyz
x,y,z
1/2-x,-y,z
x,1/2-y,1/2-z
1/2-x,1/2+y,1/2-z
-x,-y,-z
1/2+x,y,-z
-x,1/2+y,1/2+z
1/2+x,1/2-y,1/2+z
loop_
_atom_site_type_symbol
_atom_site_label
_atom_site_fract_x
_atom_site_fract_y
_atom_site_fract_z
Si Si1 0.584406 0.416245 0.798212
Si Si2 0.869514 0.804316 0.496507
Si Si3 0.250000 0.000000 0.920936
Si Si4 0.750000 0.000000 0.916723
Si Si5 0.495327 0.895077 0.853437
O O1 0.750000 0.500000 0.801137
O O2 0.566307 0.250000 0.750000
O O3 0.503775 0.698501 0.808441
O O4 0.525885 0.207822 0.837750
O O5 0.872388 0.541053 0.462403
O O6 0.822889 0.711697 0.547728
O O7 0.750000 0.000000 0.472685
O O8 0.000000 0.000000 0.500000
O O9 0.148434 0.146229 0.881908
O O10 0.867306 0.155586 0.886058
#
# Coordination Sequence:
#
# PCOD9413454 Si02
#       5
#     8   8   4   4   8
#     4  12  25  48  77 113 141 184 245 321 386 455
#     4  11  24  42  68  97 154 204 255 316 368 438
#     4  11  28  44  66 112 152 208 258 310 380 459
#     4  11  24  42  66 112 138 194 262 310 368 441
#     4  12  26  44  76 108 148 193 249 310 378 459
#
# _framework density 24.372191999999998
#
# number of rings (size 3 to 8) (size 9 to 14) (size 15 to 20)
#    0.000    0.500    2.500    5.250   10.500    4.000 
#    0.000    2.500    0.000    1.500    0.000    0.000 
#    0.000    0.000    0.000    0.000    0.000    0.000 
#
# Total GULP energy -178195.712332 kJ/mol
# GULP energy per Si atom -5568.616010 kJ/mol
# Density = 2.431672 g / cm^3
# Si number density = 24.372192 Si / 1000 Ang^3
#
#
#
# Elastic Constant Matrix: (Units=GPa)
#
#
# Indices 1 2 3 4 5 6 
#
# 1 114.4821 33.2553 37.9221 0.0000 0.0000 0.0000
# 2 33.2553 120.3958 25.5373 0.0000 0.0000 0.0000
# 3 37.9221 25.5373 114.5822 0.0000 0.0000 0.0000
# 4 0.0000 0.0000 0.0000 -19.7343 0.0000 0.0000
# 5 0.0000 0.0000 0.0000 0.0000 122.3290 0.0000
# 6 0.0000 0.0000 0.0000 0.0000 0.0000 35.5458
#
#
#
# Elastic Compliance Matrix: (Units=1/GPa)
#
#
# Indices 1 2 3 4 5 6 
#
# 1 0.010355 -0.002239 -0.002928 0.000000 0.000000 0.000000
# 2 -0.002239 0.009202 -0.001310 0.000000 0.000000 0.000000
# 3 -0.002928 -0.001310 0.009988 0.000000 0.000000 0.000000
# 4 0.000000 0.000000 0.000000 -0.050673 0.000000 0.000000
# 5 0.000000 0.000000 0.000000 0.000000 0.008175 0.000000
# 6 0.000000 0.000000 0.000000 0.000000 0.000000 0.028133
#
#
# Mechanical properties :
#
#
# Convention : Reuss Voigt Hill
#
# Bulk Modulus (GPa) = 60.27145 60.32105 60.29625
# Shear Modulus (GPa) = 148.52159 44.47782 96.49970
#
# Velocity S-wave (km/s) = 7.81481 4.27657 6.29922
# Velocity P-wave (km/s) = 10.30590 7.01349 8.81478
#
# Compressibility (1/GPa) = 0.01659160
#
# Stress axis : x y z
#
# Youngs Moduli (GPa) = 96.56792 108.66870 100.11627
#
# Poissons Ratio (x) = 0.24334 0.29316
# Poissons Ratio (y) = 0.21624 0.13114
# Poissons Ratio (z) = 0.28277 0.14234
#
# Static dielectric constant tensor:
#      x y z
#    x 2.062030 0.000000 0.000000 
#    y 0.000000 2.540630 0.000000 
#    z 0.000000 0.000000 1.931780 
# 
# From -- ./inp_files/44071.got.cif
#   From: 2010.05.17/outbox.cif.g08.bks.cpg/sg52_23_cif.got.tgz:44071.got - 2010.06.03 12:15:38.
