data_PCOD9413317
_publ_section_title
;
Structure prediction by ZEFSAII (Michael W. Deem and Ramdas Pophale) SiO2 
 PCOD9413317
Probable space group: P N N A
;
_chemical_formula_sum "Si O2"
_cell_formula_units_Z 32
_cell_length_a 17.869829
_cell_length_b 16.820532
_cell_length_c 5.030371
_cell_angle_alpha 90.000000
_cell_angle_beta 90.000000
_cell_angle_gamma 90.000000
_cell_volume 1512.029069
_symmetry_space_group_name_H-M "P N N A"
_symmetry_group_IT_number 52
_symmetry_cell_setting 'orthorhombic'
loop_
_space_group_symop_operation_xyz
x,y,z
1/2-x,-y,z
x,1/2-y,1/2-z
1/2-x,1/2+y,1/2-z
-x,-y,-z
1/2+x,y,-z
-x,1/2+y,1/2+z
1/2+x,1/2-y,1/2+z
loop_
_atom_site_type_symbol
_atom_site_label
_atom_site_fract_x
_atom_site_fract_y
_atom_site_fract_z
Si Si1 0.288077 0.581990 0.964488
Si Si2 0.466897 0.066583 0.701377
Si Si3 0.386758 0.933720 0.014641
Si Si4 0.646143 0.693403 0.997512
O O1 0.332062 0.562671 0.234737
O O2 0.411662 0.480176 0.598550
O O3 0.345500 0.607809 0.732613
O O4 0.223380 0.644722 0.022427
O O5 0.420535 0.131018 0.541421
O O6 0.500000 0.000000 0.500000
O O7 0.464442 0.898615 0.127555
O O8 0.250000 0.000000 0.632059
O O9 0.650640 0.750000 0.250000
O O10 0.633786 0.750000 0.750000
#
# Coordination Sequence:
#
# PCOD9413317 Si02
#       4
#     8   8   8   8
#     4  12  23  43  72 105 138 195 242 293 349 439
#     4  11  24  46  76 111 139 192 251 295 356 450
#     4  11  23  39  76 103 136 179 259 291 335 417
#     4  12  29  47  72 109 154 189 236 312 385 425
#
# _framework density 21.163613999999999
#
# number of rings (size 3 to 8) (size 9 to 14) (size 15 to 20)
#    0.000    0.500    5.000    2.250   10.500    0.000 
#    0.000    5.000    0.000    0.000    0.000    0.000 
#    0.000    0.000    0.000    0.000    0.000    0.000 
#
# Total GULP energy -179102.530494 kJ/mol
# GULP energy per Si atom -5596.954078 kJ/mol
# Density = 2.111544 g / cm^3
# Si number density = 21.163614 Si / 1000 Ang^3
#
#
#
# Elastic Constant Matrix: (Units=GPa)
#
#
# Indices 1 2 3 4 5 6 
#
# 1 162.8493 86.2484 89.9143 0.0000 0.0000 0.0000
# 2 86.2484 96.7239 55.7573 0.0000 0.0000 0.0000
# 3 89.9143 55.7573 171.2462 0.0000 0.0000 0.0000
# 4 0.0000 0.0000 0.0000 41.0421 0.0000 0.0000
# 5 0.0000 0.0000 0.0000 0.0000 41.0608 0.0000
# 6 0.0000 0.0000 0.0000 0.0000 0.0000 38.7803
#
#
#
# Elastic Compliance Matrix: (Units=1/GPa)
#
#
# Indices 1 2 3 4 5 6 
#
# 1 0.013454 -0.009756 -0.003888 0.000000 0.000000 0.000000
# 2 -0.009756 0.019802 -0.001325 0.000000 0.000000 0.000000
# 3 -0.003888 -0.001325 0.008312 0.000000 0.000000 0.000000
# 4 0.000000 0.000000 0.000000 0.024365 0.000000 0.000000
# 5 0.000000 0.000000 0.000000 0.000000 0.024354 0.000000
# 6 0.000000 0.000000 0.000000 0.000000 0.000000 0.025786
#
#
# Mechanical properties :
#
#
# Convention : Reuss Voigt Hill
#
# Bulk Modulus (GPa) = 85.97741 99.40661 92.69201
# Shear Modulus (GPa) = 33.35828 37.43661 35.39745
#
# Velocity S-wave (km/s) = 3.97446 4.21041 4.09413
# Velocity P-wave (km/s) = 7.85971 8.40888 8.13893
#
# Compressibility (1/GPa) = 0.01163096
#
# Stress axis : x y z
#
# Youngs Moduli (GPa) = 74.32696 50.50053 120.30454
#
# Poissons Ratio (x) = 0.49268 0.46771
# Poissons Ratio (y) = 0.72512 0.15940
# Poissons Ratio (z) = 0.28896 0.06691
#
# Static dielectric constant tensor:
#      x y z
#    x 1.830880 0.000000 0.000000 
#    y 0.000000 1.729720 0.000000 
#    z 0.000000 0.000000 1.764630 
# 
# From -- ./inp_files/2978.got.cif
#   From: 2010.05.17/outbox.cif.g08.bks.cpg/sg52_2_cif.got.tgz:2978.got - 2010.06.03 12:15:38.
