data_PCOD9413717
_publ_section_title
;
Structure prediction by ZEFSAII (Michael W. Deem and Ramdas Pophale) SiO2 
 PCOD9413717
Probable space group: P N N A
;
_chemical_formula_sum "Si O2"
_cell_formula_units_Z 40
_cell_length_a 17.785322
_cell_length_b 8.444385
_cell_length_c 12.472226
_cell_angle_alpha 90.000000
_cell_angle_beta 90.000000
_cell_angle_gamma 90.000000
_cell_volume 1873.155060
_symmetry_space_group_name_H-M "P N N A"
_symmetry_group_IT_number 52
_symmetry_cell_setting 'orthorhombic'
loop_
_space_group_symop_operation_xyz
x,y,z
1/2-x,-y,z
x,1/2-y,1/2-z
1/2-x,1/2+y,1/2-z
-x,-y,-z
1/2+x,y,-z
-x,1/2+y,1/2+z
1/2+x,1/2-y,1/2+z
loop_
_atom_site_type_symbol
_atom_site_label
_atom_site_fract_x
_atom_site_fract_y
_atom_site_fract_z
Si Si1 0.964219 0.750000 0.750000
Si Si2 0.750000 0.500000 0.014815
Si Si3 0.341107 0.274679 0.133546
Si Si4 0.415982 0.954515 0.045787
Si Si5 0.993919 0.043194 0.624399
Si Si6 0.860004 0.772343 0.368530
O O1 0.922716 0.832209 0.852723
O O2 0.010713 0.608310 0.803003
O O3 0.716488 0.640933 0.944238
O O4 0.816535 0.579552 0.081269
O O5 0.305923 0.250000 0.250000
O O6 0.410941 0.395059 0.149185
O O7 0.375769 0.113991 0.085949
O O8 0.366577 0.872646 0.951886
O O9 0.500000 0.000000 0.000000
O O10 0.053584 0.177837 0.644977
O O11 0.000000 0.000000 0.500000
O O12 0.827512 0.750000 0.250000
#
# Coordination Sequence:
#
# PCOD9413717 Si02
#       6
#     4   4   8   8   8   8
#     4  12  22  38  74 112 140 176 232 312 362 406
#     4  12  30  48  66 104 152 198 234 292 372 454
#     4  12  25  47  76 107 145 187 247 305 367 430
#     4  12  24  43  76 113 136 183 245 303 365 422
#     4  12  21  44  75 108 141 184 241 307 354 422
#     4  12  27  49  73 104 148 193 243 296 364 437
#
# _framework density 21.354346
#
# number of rings (size 3 to 8) (size 9 to 14) (size 15 to 20)
#    0.000    0.000    8.000    1.800    0.000    4.000 
#    3.600    0.000    0.000    0.000    0.000    0.000 
#    0.000    0.000    0.000    0.000    0.000    0.000 
#
# Total GULP energy -223655.939133 kJ/mol
# GULP energy per Si atom -5591.398478 kJ/mol
# Density = 2.130574 g / cm^3
# Si number density = 21.354346 Si / 1000 Ang^3
#
#
#
# Elastic Constant Matrix: (Units=GPa)
#
#
# Indices 1 2 3 4 5 6 
#
# 1 27.4235 -10.1477 10.6131 0.0000 0.0000 0.0000
# 2 -10.1477 89.9884 53.3748 0.0000 0.0000 0.0000
# 3 10.6131 53.3748 166.0367 0.0000 0.0000 0.0000
# 4 0.0000 0.0000 0.0000 56.0175 0.0000 0.0000
# 5 0.0000 0.0000 0.0000 0.0000 -464.1058 0.0000
# 6 0.0000 0.0000 0.0000 0.0000 0.0000 14.2267
#
#
#
# Elastic Compliance Matrix: (Units=1/GPa)
#
#
# Indices 1 2 3 4 5 6 
#
# 1 0.041287 0.007687 -0.005110 0.000000 0.000000 0.000000
# 2 0.007687 0.015162 -0.005365 0.000000 0.000000 0.000000
# 3 -0.005110 -0.005365 0.008074 0.000000 0.000000 0.000000
# 4 0.000000 0.000000 0.000000 0.017852 0.000000 0.000000
# 5 0.000000 0.000000 0.000000 0.000000 -0.002155 0.000000
# 6 0.000000 0.000000 0.000000 0.000000 0.000000 0.070290
#
#
# Mechanical properties :
#
#
# Convention : Reuss Voigt Hill
#
# Bulk Modulus (GPa) = 16.96478 43.45877 30.21178
# Shear Modulus (GPa) = 28.45180 -63.46508 -17.50664
#
# Velocity S-wave (km/s) = 3.65412 -5.45752 -2.86635
# Velocity P-wave (km/s) = 5.07593 4.39514 1.79553
#
# Compressibility (1/GPa) = 0.05894564
#
# Stress axis : x y z
#
# Youngs Moduli (GPa) = 24.22067 65.95591 123.85227
#
# Poissons Ratio (x) = -0.50699 0.63290
# Poissons Ratio (y) = -0.18618 0.66450
# Poissons Ratio (z) = 0.12377 0.35387
#
# Static dielectric constant tensor:
#      x y z
#    x 1.749690 0.000000 0.000000 
#    y 0.000000 1.743220 0.000000 
#    z 0.000000 0.000000 1.797120 
# 
# From -- ./inp_files/20362.got.cif
#   From: 2010.05.17/outbox.cif.g08.bks.cpg/sg52_11_cif.got.tgz:20362.got - 2010.06.03 12:15:38.
