data_PCOD9413110
_publ_section_title
;
Structure prediction by ZEFSAII (Michael W. Deem and Ramdas Pophale) SiO2 
 PCOD9413110
Probable space group: P N N A
;
_chemical_formula_sum "Si O2"
_cell_formula_units_Z 48
_cell_length_a 19.905087
_cell_length_b 14.661089
_cell_length_c 8.696881
_cell_angle_alpha 90.000000
_cell_angle_beta 90.000000
_cell_angle_gamma 90.000000
_cell_volume 2538.012974
_symmetry_space_group_name_H-M "P N N A"
_symmetry_group_IT_number 52
_symmetry_cell_setting 'orthorhombic'
loop_
_space_group_symop_operation_xyz
x,y,z
1/2-x,-y,z
x,1/2-y,1/2-z
1/2-x,1/2+y,1/2-z
-x,-y,-z
1/2+x,y,-z
-x,1/2+y,1/2+z
1/2+x,1/2-y,1/2+z
loop_
_atom_site_type_symbol
_atom_site_label
_atom_site_fract_x
_atom_site_fract_y
_atom_site_fract_z
Si Si1 0.613956 0.257080 0.932084
Si Si2 0.435887 0.551274 0.928995
Si Si3 0.363540 0.344137 0.350465
Si Si4 0.683914 0.939470 0.557152
Si Si5 0.016801 0.158180 0.856147
Si Si6 0.763648 0.247760 0.066790
O O1 0.619553 0.250000 0.750000
O O2 0.583671 0.355317 0.981584
O O3 0.564446 0.181193 0.002007
O O4 0.687377 0.244189 0.006315
O O5 0.453921 0.580641 0.755518
O O6 0.500000 0.500000 0.000000
O O7 0.372340 0.486119 0.952300
O O8 0.362789 0.250000 0.250000
O O9 0.344024 0.421865 0.228617
O O10 0.439947 0.358624 0.403512
O O11 0.309814 0.329342 0.485999
O O12 0.704791 0.842630 0.489138
O O13 0.750000 0.000000 0.564175
O O14 0.016645 0.250000 0.750000
O O15 0.764095 0.250000 0.250000
#
# Coordination Sequence:
#
# PCOD9413110 Si02
#       6
#     8   8   8   8   8   8
#     4  11  23  40  62  88 120 166 212 257 313 382
#     4  11  21  39  64  89 124 163 207 254 316 372
#     4   9  19  37  60  86 118 160 202 244 304 373
#     4  11  21  37  64  91 123 164 204 254 315 368
#     4   9  19  37  61  86 119 162 202 245 304 377
#     4  11  23  40  61  89 124 163 211 259 311 379
#
# _framework density 18.912434000000001
#
# number of rings (size 3 to 8) (size 9 to 14) (size 15 to 20)
#    0.000    1.667    3.333    3.000    2.333    0.667 
#    0.000    3.333    0.000    0.000    0.000    0.000 
#    0.000    0.000    0.000    0.000    0.000    0.000 
#
# Total GULP energy -268000.730178 kJ/mol
# GULP energy per Si atom -5583.348545 kJ/mol
# Density = 1.886939 g / cm^3
# Si number density = 18.912434 Si / 1000 Ang^3
#
#
#
# Elastic Constant Matrix: (Units=GPa)
#
#
# Indices 1 2 3 4 5 6 
#
# 1 190.7937 47.9761 78.7338 0.0000 0.0000 0.0000
# 2 47.9761 44.0764 20.5423 0.0000 0.0000 0.0000
# 3 78.7338 20.5423 136.2826 0.0000 0.0000 0.0000
# 4 0.0000 0.0000 0.0000 25.8787 0.0000 0.0000
# 5 0.0000 0.0000 0.0000 0.0000 30.9906 0.0000
# 6 0.0000 0.0000 0.0000 0.0000 0.0000 -4.5832
#
#
#
# Elastic Compliance Matrix: (Units=1/GPa)
#
#
# Indices 1 2 3 4 5 6 
#
# 1 0.008811 -0.007764 -0.003920 0.000000 0.000000 0.000000
# 2 -0.007764 0.031243 -0.000224 0.000000 0.000000 0.000000
# 3 -0.003920 -0.000224 0.009636 0.000000 0.000000 0.000000
# 4 0.000000 0.000000 0.000000 0.038642 0.000000 0.000000
# 5 0.000000 0.000000 0.000000 0.000000 0.032268 0.000000
# 6 0.000000 0.000000 0.000000 0.000000 0.000000 -0.218189
#
#
# Mechanical properties :
#
#
# Convention : Reuss Voigt Hill
#
# Bulk Modulus (GPa) = 38.64819 73.96189 56.30504
# Shear Modulus (GPa) = -76.74852 25.38393 -25.68229
#
# Velocity S-wave (km/s) = -6.37723 3.66755 -3.68905
# Velocity P-wave (km/s) = 5.80911 7.55824 3.41916
#
# Compressibility (1/GPa) = 0.02587443
#
# Stress axis : x y z
#
# Youngs Moduli (GPa) = 113.49160 32.00725 103.77473
#
# Poissons Ratio (x) = 0.24850 0.40682
# Poissons Ratio (y) = 0.88112 0.02325
# Poissons Ratio (z) = 0.44491 0.00717
#
# Static dielectric constant tensor:
#      x y z
#    x 1.645660 0.000000 0.000000 
#    y 0.000000 1.666010 0.000000 
#    z 0.000000 0.000000 1.635140 
# 
# From -- ./inp_files/12083.got.cif
#   From: 2010.05.17/outbox.cif.g08.bks.cpg/sg52_7_cif.got.tgz:12083.got - 2010.06.03 12:15:38.
