data_PCOD9413285
_publ_section_title
;
Structure prediction by ZEFSAII (Michael W. Deem and Ramdas Pophale) SiO2 
 PCOD9413285
Probable space group: P N N A
;
_chemical_formula_sum "Si O2"
_cell_formula_units_Z 32
_cell_length_a 19.962095
_cell_length_b 5.887619
_cell_length_c 11.889014
_cell_angle_alpha 90.000000
_cell_angle_beta 90.000000
_cell_angle_gamma 90.000000
_cell_volume 1397.306421
_symmetry_space_group_name_H-M "P N N A"
_symmetry_group_IT_number 52
_symmetry_cell_setting 'orthorhombic'
loop_
_space_group_symop_operation_xyz
x,y,z
1/2-x,-y,z
x,1/2-y,1/2-z
1/2-x,1/2+y,1/2-z
-x,-y,-z
1/2+x,y,-z
-x,1/2+y,1/2+z
1/2+x,1/2-y,1/2+z
loop_
_atom_site_type_symbol
_atom_site_label
_atom_site_fract_x
_atom_site_fract_y
_atom_site_fract_z
Si Si1 0.750000 0.500000 0.557497
Si Si2 0.428785 0.436709 0.161995
Si Si3 0.864541 0.250539 0.062633
Si Si4 0.186369 0.250000 0.250000
Si Si5 0.461028 0.250000 0.750000
Si Si6 0.750000 0.000000 0.312949
O O1 0.813428 0.434694 0.484862
O O2 0.769125 0.701018 0.642002
O O3 0.452291 0.250000 0.250000
O O4 0.362805 0.544980 0.219040
O O5 0.488941 0.614687 0.168224
O O6 0.408456 0.343269 0.040905
O O7 0.909902 0.141578 0.160317
O O8 0.816728 0.449239 0.113308
O O9 0.742296 0.250000 0.250000
#
# Coordination Sequence:
#
# PCOD9413285 Si02
#       6
#     4   8   8   4   4   4
#     4  12  23  43  82 112 156 195 253 338 404 472
#     4  11  24  49  71 103 143 195 256 316 379 461
#     4  12  25  48  74 112 147 202 253 321 396 466
#     4  11  22  44  72 112 142 183 254 316 392 467
#     4  11  28  46  70 104 146 205 262 310 380 469
#     4  12  27  51  80 118 166 205 257 332 408 482
#
# _framework density 22.901205000000001
#
# number of rings (size 3 to 8) (size 9 to 14) (size 15 to 20)
#    0.000    0.500    3.750    4.500    0.000    2.000 
#    4.500    0.000    0.000    0.000    0.000    0.000 
#    0.000    0.000    0.000    0.000    0.000    0.000 
#
# Total GULP energy -178778.430690 kJ/mol
# GULP energy per Si atom -5586.825959 kJ/mol
# Density = 2.284908 g / cm^3
# Si number density = 22.901205 Si / 1000 Ang^3
#
#
#
# Elastic Constant Matrix: (Units=GPa)
#
#
# Indices 1 2 3 4 5 6 
#
# 1 123.9943 18.0298 62.6394 0.0000 0.0000 0.0000
# 2 18.0298 51.7901 24.7631 0.0000 0.0000 0.0000
# 3 62.6394 24.7631 139.0165 0.0000 0.0000 0.0000
# 4 0.0000 0.0000 0.0000 37.3139 0.0000 0.0000
# 5 0.0000 0.0000 0.0000 0.0000 110.8305 0.0000
# 6 0.0000 0.0000 0.0000 0.0000 0.0000 1663.3748
#
#
#
# Elastic Compliance Matrix: (Units=1/GPa)
#
#
# Indices 1 2 3 4 5 6 
#
# 1 0.010552 -0.001530 -0.004482 0.000000 0.000000 0.000000
# 2 -0.001530 0.021328 -0.003110 0.000000 0.000000 0.000000
# 3 -0.004482 -0.003110 0.009767 0.000000 0.000000 0.000000
# 4 0.000000 0.000000 0.000000 0.026800 0.000000 0.000000
# 5 0.000000 0.000000 0.000000 0.000000 0.009023 0.000000
# 6 0.000000 0.000000 0.000000 0.000000 0.000000 0.000601
#
#
# Mechanical properties :
#
#
# Convention : Reuss Voigt Hill
#
# Bulk Modulus (GPa) = 42.72962 58.40726 50.56844
# Shear Modulus (GPa) = 48.02383 376.26175 212.14279
#
# Velocity S-wave (km/s) = 4.58427 12.83178 9.63509
# Velocity P-wave (km/s) = 6.83516 15.65563 12.07928
#
# Compressibility (1/GPa) = 0.02340297
#
# Stress axis : x y z
#
# Youngs Moduli (GPa) = 94.77296 46.88597 102.38799
#
# Poissons Ratio (x) = 0.07175 0.45888
# Poissons Ratio (y) = 0.14504 0.31839
# Poissons Ratio (z) = 0.42475 0.14580
#
# Static dielectric constant tensor:
#      x y z
#    x 1.831460 0.000000 0.000000 
#    y 0.000000 1.948250 0.000000 
#    z 0.000000 0.000000 1.903720 
# 
# From -- ./inp_files/21290.got.cif
#   From: 2010.05.17/outbox.cif.g08.bks.cpg/sg52_11_cif.got.tgz:21290.got - 2010.06.03 12:15:38.
