data_PCOD9413463
_publ_section_title
;
Structure prediction by ZEFSAII (Michael W. Deem and Ramdas Pophale) SiO2 
 PCOD9413463
Probable space group: P N N A
;
_chemical_formula_sum "Si O2"
_cell_formula_units_Z 32
_cell_length_a 20.381831
_cell_length_b 12.270185
_cell_length_c 4.688641
_cell_angle_alpha 90.000000
_cell_angle_beta 90.000000
_cell_angle_gamma 90.000000
_cell_volume 1172.576775
_symmetry_space_group_name_H-M "P N N A"
_symmetry_group_IT_number 52
_symmetry_cell_setting 'orthorhombic'
loop_
_space_group_symop_operation_xyz
x,y,z
1/2-x,-y,z
x,1/2-y,1/2-z
1/2-x,1/2+y,1/2-z
-x,-y,-z
1/2+x,y,-z
-x,1/2+y,1/2+z
1/2+x,1/2-y,1/2+z
loop_
_atom_site_type_symbol
_atom_site_label
_atom_site_fract_x
_atom_site_fract_y
_atom_site_fract_z
Si Si1 0.866695 0.406338 0.124032
Si Si2 0.458564 0.101041 0.114948
Si Si3 0.546634 0.250000 0.750000
Si Si4 0.720664 0.750000 0.750000
Si Si5 0.830780 0.647345 0.023275
O O1 0.934062 0.409479 0.937318
O O2 0.824581 0.308782 0.987149
O O3 0.890022 0.391262 0.445431
O O4 0.831262 0.523509 0.127200
O O5 0.502150 0.198420 0.992778
O O6 0.500000 0.000000 0.000000
O O7 0.596938 0.165515 0.606391
O O8 0.777457 0.844403 0.731435
O O9 0.820660 0.750000 0.250000
#
# Coordination Sequence:
#
# PCOD9413463 Si02
#       5
#     8   8   4   4   8
#     4  12  27  49  76 111 152 200 257 324 393 469
#     4  12  25  45  74 111 151 194 249 314 395 472
#     4  11  24  42  70 112 150 199 250 320 398 477
#     4  11  28  50  72 112 144 209 264 324 390 455
#     4  11  26  47  76 106 153 207 262 325 390 474
#
# _framework density 27.290327000000001
#
# number of rings (size 3 to 8) (size 9 to 14) (size 15 to 20)
#    0.000    0.500    2.500    4.500   10.500    0.000 
#    0.000    0.000    0.000    0.000    0.000    0.000 
#    0.000    0.000    0.000    0.000    0.000    0.000 
#
# Total GULP energy -178697.448596 kJ/mol
# GULP energy per Si atom -5584.295269 kJ/mol
# Density = 2.722821 g / cm^3
# Si number density = 27.290327 Si / 1000 Ang^3
#
#
#
# Elastic Constant Matrix: (Units=GPa)
#
#
# Indices 1 2 3 4 5 6 
#
# 1 88.4012 60.0194 4.4211 0.0000 0.0000 0.0000
# 2 60.0194 182.2493 49.2864 0.0000 0.0000 0.0000
# 3 4.4211 49.2864 123.6099 0.0000 0.0000 0.0000
# 4 0.0000 0.0000 0.0000 37.0335 0.0000 0.0000
# 5 0.0000 0.0000 0.0000 0.0000 -25.9140 0.0000
# 6 0.0000 0.0000 0.0000 0.0000 0.0000 39.7967
#
#
#
# Elastic Compliance Matrix: (Units=1/GPa)
#
#
# Indices 1 2 3 4 5 6 
#
# 1 0.014843 -0.005318 0.001590 0.000000 0.000000 0.000000
# 2 -0.005318 0.008056 -0.003022 0.000000 0.000000 0.000000
# 3 0.001590 -0.003022 0.009238 0.000000 0.000000 0.000000
# 4 0.000000 0.000000 0.000000 0.027003 0.000000 0.000000
# 5 0.000000 0.000000 0.000000 0.000000 -0.038589 0.000000
# 6 0.000000 0.000000 0.000000 0.000000 0.000000 0.025128
#
#
# Mechanical properties :
#
#
# Convention : Reuss Voigt Hill
#
# Bulk Modulus (GPa) = 53.65901 69.07935 61.36918
# Shear Modulus (GPa) = 76.46356 28.88547 52.67452
#
# Velocity S-wave (km/s) = 5.29900 3.25691 4.39812
# Velocity P-wave (km/s) = 7.55937 6.28578 6.95180
#
# Compressibility (1/GPa) = 0.01863620
#
# Stress axis : x y z
#
# Youngs Moduli (GPa) = 67.37050 124.13749 108.24896
#
# Poissons Ratio (x) = 0.66018 -0.17207
# Poissons Ratio (y) = 0.35829 0.32710
# Poissons Ratio (z) = -0.10709 0.37511
#
# Static dielectric constant tensor:
#      x y z
#    x 2.163580 0.000000 0.000000 
#    y 0.000000 2.184700 0.000000 
#    z 0.000000 0.000000 2.328860 
# 
# From -- ./inp_files/3091.got.cif
#   From: 2010.05.17/outbox.cif.g08.bks.cpg/sg52_2_cif.got.tgz:3091.got - 2010.06.03 12:15:38.
