data_PCOD9413190
_publ_section_title
;
Structure prediction by ZEFSAII (Michael W. Deem and Ramdas Pophale) SiO2 
 PCOD9413190
Probable space group: P N N A
;
_chemical_formula_sum "Si O2"
_cell_formula_units_Z 24
_cell_length_a 19.288020
_cell_length_b 4.890523
_cell_length_c 12.346708
_cell_angle_alpha 90.000000
_cell_angle_beta 90.000000
_cell_angle_gamma 90.000000
_cell_volume 1164.646513
_symmetry_space_group_name_H-M "P N N A"
_symmetry_group_IT_number 52
_symmetry_cell_setting 'orthorhombic'
loop_
_space_group_symop_operation_xyz
x,y,z
1/2-x,-y,z
x,1/2-y,1/2-z
1/2-x,1/2+y,1/2-z
-x,-y,-z
1/2+x,y,-z
-x,1/2+y,1/2+z
1/2+x,1/2-y,1/2+z
loop_
_atom_site_type_symbol
_atom_site_label
_atom_site_fract_x
_atom_site_fract_y
_atom_site_fract_z
Si Si1 0.605855 0.830780 0.965689
Si Si2 0.679697 0.178092 0.623861
Si Si3 0.527749 0.499814 0.325579
O O1 0.624577 0.522797 0.933421
O O2 0.668935 0.032250 0.934673
O O3 0.539658 0.906450 0.892130
O O4 0.583594 0.889069 0.088398
O O5 0.667904 0.250000 0.750000
O O6 0.750000 0.000000 0.618447
O O7 0.507301 0.750000 0.250000
O O8 0.552033 0.250000 0.250000
#
# Coordination Sequence:
#
# PCOD9413190 Si02
#       3
#     8   8   8
#     4  11  23  38  60  88 118 152 191 240 292 346
#     4  12  23  38  60  87 119 153 191 238 293 349
#     4  11  22  38  61  87 117 152 191 239 292 346
#
# _framework density 20.607112999999998
#
# number of rings (size 3 to 8) (size 9 to 14) (size 15 to 20)
#    0.000    0.667    0.000   11.000    0.000    5.333 
#    0.000    0.000    0.000   20.000    0.000    0.000 
#    0.000    0.000    0.000    0.000    0.000    0.000 
#
# Total GULP energy -134191.838474 kJ/mol
# GULP energy per Si atom -5591.326603 kJ/mol
# Density = 2.056021 g / cm^3
# Si number density = 20.607113 Si / 1000 Ang^3
#
#
#
# Elastic Constant Matrix: (Units=GPa)
#
#
# Indices 1 2 3 4 5 6 
#
# 1 51.9624 -0.1431 22.8202 0.0000 0.0000 0.0000
# 2 -0.1431 110.8901 21.4687 0.0000 0.0000 0.0000
# 3 22.8202 21.4687 101.9037 0.0000 0.0000 0.0000
# 4 0.0000 0.0000 0.0000 33.4252 0.0000 0.0000
# 5 0.0000 0.0000 0.0000 0.0000 -1.6276 0.0000
# 6 0.0000 0.0000 0.0000 0.0000 0.0000 35.9026
#
#
#
# Elastic Compliance Matrix: (Units=1/GPa)
#
#
# Indices 1 2 3 4 5 6 
#
# 1 0.021449 0.000998 -0.005014 0.000000 0.000000 0.000000
# 2 0.000998 0.009448 -0.002214 0.000000 0.000000 0.000000
# 3 -0.005014 -0.002214 0.011402 0.000000 0.000000 0.000000
# 4 0.000000 0.000000 0.000000 0.029918 0.000000 0.000000
# 5 0.000000 0.000000 0.000000 0.000000 -0.614393 0.000000
# 6 0.000000 0.000000 0.000000 0.000000 0.000000 0.027853
#
#
# Mechanical properties :
#
#
# Convention : Reuss Voigt Hill
#
# Bulk Modulus (GPa) = 33.51111 39.22755 36.36933
# Shear Modulus (GPa) = -10.16431 28.24739 9.04154
#
# Velocity S-wave (km/s) = -2.22332 3.70639 2.09693
# Velocity P-wave (km/s) = 3.11550 6.11504 4.85284
#
# Compressibility (1/GPa) = 0.02984085
#
# Stress axis : x y z
#
# Youngs Moduli (GPa) = 46.62167 105.84405 87.70103
#
# Poissons Ratio (x) = -0.10567 0.43970
# Poissons Ratio (y) = -0.04654 0.19417
# Poissons Ratio (z) = 0.23374 0.23434
#
# Static dielectric constant tensor:
#      x y z
#    x 1.781390 0.000000 0.000000 
#    y 0.000000 1.725700 0.000000 
#    z 0.000000 0.000000 1.712470 
# 
# From -- ./inp_files/20005.got.cif
#   From: 2010.05.17/outbox.cif.g08.bks.cpg/sg52_11_cif.got.tgz:20005.got - 2010.06.03 12:15:38.
