data_PCOD9413753
_publ_section_title
;
Structure prediction by ZEFSAII (Michael W. Deem and Ramdas Pophale) SiO2 
 PCOD9413753
Probable space group: P N N A
;
_chemical_formula_sum "Si O2"
_cell_formula_units_Z 36
_cell_length_a 9.093400
_cell_length_b 9.847999
_cell_length_c 17.362510
_cell_angle_alpha 90.000000
_cell_angle_beta 90.000000
_cell_angle_gamma 90.000000
_cell_volume 1554.843921
_symmetry_space_group_name_H-M "P N N A"
_symmetry_group_IT_number 52
_symmetry_cell_setting 'orthorhombic'
loop_
_space_group_symop_operation_xyz
x,y,z
1/2-x,-y,z
x,1/2-y,1/2-z
1/2-x,1/2+y,1/2-z
-x,-y,-z
1/2+x,y,-z
-x,1/2+y,1/2+z
1/2+x,1/2-y,1/2+z
loop_
_atom_site_type_symbol
_atom_site_label
_atom_site_fract_x
_atom_site_fract_y
_atom_site_fract_z
Si Si1 0.750000 0.000000 0.825606
Si Si2 0.077615 0.484798 0.083216
Si Si3 0.452832 0.229847 0.097496
Si Si4 0.994305 0.207917 0.172277
Si Si5 0.774795 0.146567 0.043172
O O1 0.871891 0.109256 0.857991
O O2 0.630810 0.115215 0.799745
O O3 0.250000 0.500000 0.072825
O O4 0.038493 0.619640 0.133109
O O5 0.042123 0.343055 0.125119
O O6 0.000000 0.500000 0.000000
O O7 0.617358 0.195876 0.070920
O O8 0.352075 0.237995 0.020447
O O9 0.911996 0.250000 0.250000
O O10 0.886813 0.131018 0.113675
O O11 0.750000 0.000000 0.004942
#
# Coordination Sequence:
#
# PCOD9413753 Si02
#       5
#     4   8   8   8   8
#     4  12  24  46  74 102 140 186 240 302 366 436
#     4  12  25  44  72 110 141 183 242 308 362 422
#     4  12  23  40  75 108 138 183 240 306 360 421
#     4  12  29  49  70 102 150 195 245 297 370 451
#     4  12  23  43  71 110 144 185 240 301 364 428
#
# _framework density 23.153447
#
# number of rings (size 3 to 8) (size 9 to 14) (size 15 to 20)
#    0.000    0.000    7.778    3.333    1.556    0.000 
#    4.000    1.111    0.000    0.000    0.000    0.000 
#    0.000    0.000    0.000    0.000    0.000    0.000 
#
# Total GULP energy -200777.635901 kJ/mol
# GULP energy per Si atom -5577.156553 kJ/mol
# Density = 2.310075 g / cm^3
# Si number density = 23.153447 Si / 1000 Ang^3
#
#
#
# Elastic Constant Matrix: (Units=GPa)
#
#
# Indices 1 2 3 4 5 6 
#
# 1 103.7715 18.1069 -14.9872 0.0000 0.0000 0.0000
# 2 18.1069 150.2910 16.8608 0.0000 0.0000 0.0000
# 3 -14.9872 16.8608 35.5736 0.0000 0.0000 0.0000
# 4 0.0000 0.0000 0.0000 14.9074 0.0000 0.0000
# 5 0.0000 0.0000 0.0000 0.0000 4.9032 0.0000
# 6 0.0000 0.0000 0.0000 0.0000 0.0000 39.6680
#
#
#
# Elastic Compliance Matrix: (Units=1/GPa)
#
#
# Indices 1 2 3 4 5 6 
#
# 1 0.010754 -0.001905 0.005434 0.000000 0.000000 0.000000
# 2 -0.001905 0.007365 -0.004293 0.000000 0.000000 0.000000
# 3 0.005434 -0.004293 0.032435 0.000000 0.000000 0.000000
# 4 0.000000 0.000000 0.000000 0.067081 0.000000 0.000000
# 5 0.000000 0.000000 0.000000 0.000000 0.203950 0.000000
# 6 0.000000 0.000000 0.000000 0.000000 0.000000 0.025209
#
#
# Mechanical properties :
#
#
# Convention : Reuss Voigt Hill
#
# Bulk Modulus (GPa) = 20.39837 36.62187 28.51012
# Shear Modulus (GPa) = 13.71122 29.87276 21.79199
#
# Velocity S-wave (km/s) = 2.43613 3.59584 3.07122
# Velocity P-wave (km/s) = 4.09172 5.75252 4.99168
#
# Compressibility (1/GPa) = 0.04902351
#
# Stress axis : x y z
#
# Youngs Moduli (GPa) = 92.99096 135.77805 30.83101
#
# Poissons Ratio (x) = 0.25868 -0.16752
# Poissons Ratio (y) = 0.17716 0.13237
# Poissons Ratio (z) = -0.50527 0.58295
#
# Static dielectric constant tensor:
#      x y z
#    x 1.830830 0.000000 0.000000 
#    y 0.000000 1.995710 0.000000 
#    z 0.000000 0.000000 1.897760 
# 
# From -- ./inp_files/35547.got.cif
#   From: 2010.05.17/outbox.cif.g08.bks.cpg/sg52_18_cif.got.tgz:35547.got - 2010.06.03 12:15:38.
