data_PCOD9413373
_publ_section_title
;
Structure prediction by ZEFSAII (Michael W. Deem and Ramdas Pophale) SiO2 
 PCOD9413373
Probable space group: P N N A
;
_chemical_formula_sum "Si O2"
_cell_formula_units_Z 20
_cell_length_a 5.240970
_cell_length_b 5.265212
_cell_length_c 28.333878
_cell_angle_alpha 90.000000
_cell_angle_beta 90.000000
_cell_angle_gamma 90.000000
_cell_volume 781.868210
_symmetry_space_group_name_H-M "P N N A"
_symmetry_group_IT_number 52
_symmetry_cell_setting 'orthorhombic'
loop_
_space_group_symop_operation_xyz
x,y,z
1/2-x,-y,z
x,1/2-y,1/2-z
1/2-x,1/2+y,1/2-z
-x,-y,-z
1/2+x,y,-z
-x,1/2+y,1/2+z
1/2+x,1/2-y,1/2+z
loop_
_atom_site_type_symbol
_atom_site_label
_atom_site_fract_x
_atom_site_fract_y
_atom_site_fract_z
Si Si1 0.750000 0.500000 0.032982
Si Si2 0.911734 0.729586 0.597922
Si Si3 0.992394 0.160291 0.302800
O O1 0.669875 0.721346 0.069188
O O2 0.500000 0.500000 0.000000
O O3 0.750000 0.500000 0.576343
O O4 0.968213 0.659168 0.652463
O O5 0.750000 0.000000 0.598018
O O6 0.935876 0.250000 0.250000
O O7 0.750000 0.000000 0.318034
O O8 0.250000 0.000000 0.297940
#
# Coordination Sequence:
#
# PCOD9413373 Si02
#       3
#     4   8   8
#     4  12  26  52  78 116 152 206 266 330 398 466
#     4  11  26  50  77 112 156 202 260 325 394 473
#     4  11  23  43  69 109 150 200 252 312 386 470
#
# _framework density 25.57976
#
# number of rings (size 3 to 8) (size 9 to 14) (size 15 to 20)
#    0.000    0.800    4.000    2.400    0.000    6.400 
#    0.000    0.000    0.000    0.000    0.000    0.000 
#    0.000    0.000    0.000    0.000    0.000    0.000 
#
# Total GULP energy -111785.539951 kJ/mol
# GULP energy per Si atom -5589.276998 kJ/mol
# Density = 2.552154 g / cm^3
# Si number density = 25.579760 Si / 1000 Ang^3
#
#
#
# Elastic Constant Matrix: (Units=GPa)
#
#
# Indices 1 2 3 4 5 6 
#
# 1 182.2310 60.1080 28.3327 0.0000 0.0000 0.0000
# 2 60.1080 107.3708 18.7561 0.0000 0.0000 0.0000
# 3 28.3327 18.7561 177.8217 0.0000 0.0000 0.0000
# 4 0.0000 0.0000 0.0000 -11.4030 0.0000 0.0000
# 5 0.0000 0.0000 0.0000 0.0000 133.0340 0.0000
# 6 0.0000 0.0000 0.0000 0.0000 0.0000 70.1003
#
#
#
# Elastic Compliance Matrix: (Units=1/GPa)
#
#
# Indices 1 2 3 4 5 6 
#
# 1 0.006814 -0.003693 -0.000696 0.000000 0.000000 0.000000
# 2 -0.003693 0.011490 -0.000624 0.000000 0.000000 0.000000
# 3 -0.000696 -0.000624 0.005800 0.000000 0.000000 0.000000
# 4 0.000000 0.000000 0.000000 -0.087697 0.000000 0.000000
# 5 0.000000 0.000000 0.000000 0.000000 0.007517 0.000000
# 6 0.000000 0.000000 0.000000 0.000000 0.000000 0.014265
#
#
# Mechanical properties :
#
#
# Convention : Reuss Voigt Hill
#
# Bulk Modulus (GPa) = 71.02873 75.75747 73.39310
# Shear Modulus (GPa) = -184.55402 62.36138 -61.09632
#
# Velocity S-wave (km/s) = -8.50324 4.94289 -4.89249
# Velocity P-wave (km/s) = 8.28124 7.89029 1.77797
#
# Compressibility (1/GPa) = 0.01407881
#
# Stress axis : x y z
#
# Youngs Moduli (GPa) = 146.75959 87.03375 172.40499
#
# Poissons Ratio (x) = 0.32141 0.12002
# Poissons Ratio (y) = 0.54197 0.10750
# Poissons Ratio (z) = 0.10217 0.05427
#
# Static dielectric constant tensor:
#      x y z
#    x 2.015520 0.000000 0.000000 
#    y 0.000000 2.113220 0.000000 
#    z 0.000000 0.000000 2.067620 
# 
# From -- ./inp_files/41283.got.cif
#   From: 2010.05.17/outbox.cif.g08.bks.cpg/sg52_21_cif.got.tgz:41283.got - 2010.06.03 12:15:38.
