data_PCOD9413478
_publ_section_title
;
Structure prediction by ZEFSAII (Michael W. Deem and Ramdas Pophale) SiO2 
 PCOD9413478
Probable space group: P N N A
;
_chemical_formula_sum "Si O2"
_cell_formula_units_Z 36
_cell_length_a 10.266769
_cell_length_b 8.935348
_cell_length_c 19.517441
_cell_angle_alpha 90.000000
_cell_angle_beta 90.000000
_cell_angle_gamma 90.000000
_cell_volume 1790.474488
_symmetry_space_group_name_H-M "P N N A"
_symmetry_group_IT_number 52
_symmetry_cell_setting 'orthorhombic'
loop_
_space_group_symop_operation_xyz
x,y,z
1/2-x,-y,z
x,1/2-y,1/2-z
1/2-x,1/2+y,1/2-z
-x,-y,-z
1/2+x,y,-z
-x,1/2+y,1/2+z
1/2+x,1/2-y,1/2+z
loop_
_atom_site_type_symbol
_atom_site_label
_atom_site_fract_x
_atom_site_fract_y
_atom_site_fract_z
Si Si1 0.626197 0.891003 0.503113
Si Si2 0.030501 0.763860 0.134503
Si Si3 0.087914 0.750000 0.750000
Si Si4 0.765463 0.176344 0.111060
Si Si5 0.096045 0.524726 0.250789
O O1 0.614929 0.785892 0.569931
O O2 0.647506 0.777372 0.439666
O O3 0.750000 0.000000 0.507366
O O4 0.500000 0.000000 0.500000
O O5 0.057836 0.646819 0.194686
O O6 0.060958 0.920527 0.172225
O O7 0.880849 0.760229 0.111970
O O8 0.176317 0.803512 0.812984
O O9 0.990905 0.616358 0.768469
O O10 0.750000 0.000000 0.093511
O O11 0.250000 0.500000 0.247445
#
# Coordination Sequence:
#
# PCOD9413478 Si02
#       5
#     8   8   4   8   8
#     4  12  26  47  74 103 142 190 239 293 357 435
#     4  11  24  46  68 100 143 182 235 292 354 428
#     4  12  24  42  74 102 136 180 240 294 356 428
#     4  12  27  46  71 106 139 189 240 298 364 421
#     4  11  24  43  71 103 139 182 231 294 362 425
#
# _framework density 20.106401999999999
#
# number of rings (size 3 to 8) (size 9 to 14) (size 15 to 20)
#    0.000    0.444    4.444    4.667    0.000    3.556 
#    0.000    0.000    0.000    0.000    0.000    0.000 
#    0.000    0.000    0.000    0.000    0.000    0.000 
#
# Total GULP energy -201195.158878 kJ/mol
# GULP energy per Si atom -5588.754413 kJ/mol
# Density = 2.006064 g / cm^3
# Si number density = 20.106402 Si / 1000 Ang^3
#
#
#
# Elastic Constant Matrix: (Units=GPa)
#
#
# Indices 1 2 3 4 5 6 
#
# 1 104.1435 48.2188 27.1152 0.0000 0.0000 0.0000
# 2 48.2188 86.0546 30.6816 0.0000 0.0000 0.0000
# 3 27.1152 30.6816 97.0796 0.0000 0.0000 0.0000
# 4 0.0000 0.0000 0.0000 38.0934 0.0000 0.0000
# 5 0.0000 0.0000 0.0000 0.0000 20.4781 0.0000
# 6 0.0000 0.0000 0.0000 0.0000 0.0000 58.1814
#
#
#
# Elastic Compliance Matrix: (Units=1/GPa)
#
#
# Indices 1 2 3 4 5 6 
#
# 1 0.013161 -0.006834 -0.001516 0.000000 0.000000 0.000000
# 2 -0.006834 0.016645 -0.003352 0.000000 0.000000 0.000000
# 3 -0.001516 -0.003352 0.011784 0.000000 0.000000 0.000000
# 4 0.000000 0.000000 0.000000 0.026251 0.000000 0.000000
# 5 0.000000 0.000000 0.000000 0.000000 0.048833 0.000000
# 6 0.000000 0.000000 0.000000 0.000000 0.000000 0.017188
#
#
# Mechanical properties :
#
#
# Convention : Reuss Voigt Hill
#
# Bulk Modulus (GPa) = 54.98804 55.47875 55.23339
# Shear Modulus (GPa) = 30.61352 35.43472 33.02412
#
# Velocity S-wave (km/s) = 3.90625 4.20260 4.05713
# Velocity P-wave (km/s) = 6.91035 7.15553 7.03401
#
# Compressibility (1/GPa) = 0.01818577
#
# Stress axis : x y z
#
# Youngs Moduli (GPa) = 75.98196 60.07889 84.86368
#
# Poissons Ratio (x) = 0.41057 0.12867
# Poissons Ratio (y) = 0.51925 0.28444
# Poissons Ratio (z) = 0.11520 0.20137
#
# Static dielectric constant tensor:
#      x y z
#    x 1.674780 0.000000 0.000000 
#    y 0.000000 1.417570 0.000000 
#    z 0.000000 0.000000 1.702200 
# 
# From -- ./inp_files/35543.got.cif
#   From: 2010.05.17/outbox.cif.g08.bks.cpg/sg52_18_cif.got.tgz:35543.got - 2010.06.03 12:15:38.
