data_PCOD9413735
_publ_section_title
;
Structure prediction by ZEFSAII (Michael W. Deem and Ramdas Pophale) SiO2 
 PCOD9413735
Probable space group: P N N A
;
_chemical_formula_sum "Si O2"
_cell_formula_units_Z 36
_cell_length_a 10.471863
_cell_length_b 7.021054
_cell_length_c 22.543578
_cell_angle_alpha 90.000000
_cell_angle_beta 90.000000
_cell_angle_gamma 90.000000
_cell_volume 1657.483109
_symmetry_space_group_name_H-M "P N N A"
_symmetry_group_IT_number 52
_symmetry_cell_setting 'orthorhombic'
loop_
_space_group_symop_operation_xyz
x,y,z
1/2-x,-y,z
x,1/2-y,1/2-z
1/2-x,1/2+y,1/2-z
-x,-y,-z
1/2+x,y,-z
-x,1/2+y,1/2+z
1/2+x,1/2-y,1/2+z
loop_
_atom_site_type_symbol
_atom_site_label
_atom_site_fract_x
_atom_site_fract_y
_atom_site_fract_z
Si Si1 0.471728 0.339023 0.908640
Si Si2 0.137270 0.845975 0.473713
Si Si3 0.097702 0.750000 0.250000
Si Si4 0.610221 0.562587 0.214785
Si Si5 0.762588 0.767098 0.638665
O O1 0.528796 0.530005 0.939869
O O2 0.380400 0.392290 0.854977
O O3 0.589178 0.234197 0.875807
O O4 0.407589 0.245459 0.966183
O O5 0.190540 0.713832 0.421837
O O6 0.250000 0.000000 0.488543
O O7 0.190498 0.691135 0.303957
O O8 0.001620 0.588924 0.225947
O O9 0.750000 0.500000 0.236690
O O10 0.572610 0.750000 0.250000
O O11 0.750000 0.000000 0.644485
#
# Coordination Sequence:
#
# PCOD9413735 Si02
#       5
#     8   8   4   8   8
#     4   9  17  32  55  90 119 156 210 246 303 366
#     4   8  14  29  53  87 122 154 208 258 292 360
#     4  12  22  42  58  86 136 158 204 260 294 388
#     4  12  25  40  61  89 121 164 208 252 317 372
#     4   9  18  32  56  89 120 164 198 249 311 351
#
# _framework density 21.71968
#
# number of rings (size 3 to 8) (size 9 to 14) (size 15 to 20)
#    0.000    2.667    5.556    0.667    1.556    0.000 
#    0.000    0.000    0.000    1.333    0.000    1.556 
#    0.000    0.000    0.000    0.000    0.000    0.000 
#
# Total GULP energy -200685.951891 kJ/mol
# GULP energy per Si atom -5574.609775 kJ/mol
# Density = 2.167024 g / cm^3
# Si number density = 21.719680 Si / 1000 Ang^3
#
#
#
# Elastic Constant Matrix: (Units=GPa)
#
#
# Indices 1 2 3 4 5 6 
#
# 1 91.4669 11.5744 62.8781 0.0000 0.0000 0.0000
# 2 11.5744 44.5527 16.9851 0.0000 0.0000 0.0000
# 3 62.8781 16.9851 174.9611 0.0000 0.0000 0.0000
# 4 0.0000 0.0000 0.0000 5.5101 0.0000 0.0000
# 5 0.0000 0.0000 0.0000 0.0000 40.5117 0.0000
# 6 0.0000 0.0000 0.0000 0.0000 0.0000 11.3825
#
#
#
# Elastic Compliance Matrix: (Units=1/GPa)
#
#
# Indices 1 2 3 4 5 6 
#
# 1 0.014669 -0.001870 -0.005090 0.000000 0.000000 0.000000
# 2 -0.001870 0.023546 -0.001614 0.000000 0.000000 0.000000
# 3 -0.005090 -0.001614 0.007702 0.000000 0.000000 0.000000
# 4 0.000000 0.000000 0.000000 0.181486 0.000000 0.000000
# 5 0.000000 0.000000 0.000000 0.000000 0.024684 0.000000
# 6 0.000000 0.000000 0.000000 0.000000 0.000000 0.087854
#
#
# Mechanical properties :
#
#
# Convention : Reuss Voigt Hill
#
# Bulk Modulus (GPa) = 34.76034 54.87288 44.81661
# Shear Modulus (GPa) = 13.63592 26.11706 19.87649
#
# Velocity S-wave (km/s) = 2.50834 3.47141 3.02841
# Velocity P-wave (km/s) = 4.94245 6.43324 5.73648
#
# Compressibility (1/GPa) = 0.02876842
#
# Stress axis : x y z
#
# Youngs Moduli (GPa) = 68.17214 42.46929 129.84439
#
# Poissons Ratio (x) = 0.07943 0.66093
# Poissons Ratio (y) = 0.12750 0.20953
# Poissons Ratio (z) = 0.34701 0.06853
#
# Static dielectric constant tensor:
#      x y z
#    x 1.852790 0.000000 0.000000 
#    y 0.000000 1.936540 0.000000 
#    z 0.000000 0.000000 1.826280 
# 
# From -- ./inp_files/36596.got.cif
#   From: 2010.05.17/outbox.cif.g08.bks.cpg/sg52_19_cif.got.tgz:36596.got - 2010.06.03 12:15:38.
