data_PCOD9413148
_publ_section_title
;
Structure prediction by ZEFSAII (Michael W. Deem and Ramdas Pophale) SiO2 
 PCOD9413148
Probable space group: P N N A
;
_chemical_formula_sum "Si O2"
_cell_formula_units_Z 32
_cell_length_a 33.321366
_cell_length_b 9.479720
_cell_length_c 4.919571
_cell_angle_alpha 90.000000
_cell_angle_beta 90.000000
_cell_angle_gamma 90.000000
_cell_volume 1553.980410
_symmetry_space_group_name_H-M "P N N A"
_symmetry_group_IT_number 52
_symmetry_cell_setting 'orthorhombic'
loop_
_space_group_symop_operation_xyz
x,y,z
1/2-x,-y,z
x,1/2-y,1/2-z
1/2-x,1/2+y,1/2-z
-x,-y,-z
1/2+x,y,-z
-x,1/2+y,1/2+z
1/2+x,1/2-y,1/2+z
loop_
_atom_site_type_symbol
_atom_site_label
_atom_site_fract_x
_atom_site_fract_y
_atom_site_fract_z
Si Si1 0.726294 0.353143 0.511802
Si Si2 0.915182 0.517755 0.093512
Si Si3 0.133654 0.400860 0.383481
Si Si4 0.978514 0.750000 0.250000
Si Si5 0.533473 0.750000 0.250000
O O1 0.750000 0.500000 0.466609
O O2 0.742832 0.250000 0.750000
O O3 0.681564 0.401036 0.601149
O O4 0.723711 0.250000 0.250000
O O5 0.883836 0.570302 0.320929
O O6 0.950135 0.634930 0.106883
O O7 0.938173 0.375844 0.159007
O O8 0.889904 0.497356 0.819709
O O9 0.122773 0.250000 0.250000
O O10 0.006410 0.698059 0.496542
#
# Coordination Sequence:
#
# PCOD9413148 Si02
#       5
#     8   8   8   4   4
#     4  11  24  45  73 105 140 176 226 276 333 406
#     4  12  23  41  65  91 126 168 219 268 324 389
#     4  11  21  42  68  92 125 175 220 254 315 399
#     4  12  22  42  64  88 123 174 221 264 330 402
#     4  12  26  40  58  98 129 162 213 288 338 370
#
# _framework density 20.592279000000001
#
# number of rings (size 3 to 8) (size 9 to 14) (size 15 to 20)
#    0.000    0.500    2.500    8.250    0.000    0.000 
#    6.750    0.000    0.000    0.000    0.000    0.000 
#    0.000    0.000    0.000    0.000    0.000    0.000 
#
# Total GULP energy -178791.478523 kJ/mol
# GULP energy per Si atom -5587.233704 kJ/mol
# Density = 2.054541 g / cm^3
# Si number density = 20.592279 Si / 1000 Ang^3
#
#
#
# Elastic Constant Matrix: (Units=GPa)
#
#
# Indices 1 2 3 4 5 6 
#
# 1 95.7361 56.6504 16.7881 0.0000 0.0000 0.0000
# 2 56.6504 104.8682 4.4010 0.0000 0.0000 0.0000
# 3 16.7881 4.4010 82.4143 0.0000 0.0000 0.0000
# 4 0.0000 0.0000 0.0000 23.5042 0.0000 0.0000
# 5 0.0000 0.0000 0.0000 0.0000 475.9596 0.0000
# 6 0.0000 0.0000 0.0000 0.0000 0.0000 10.9067
#
#
#
# Elastic Compliance Matrix: (Units=1/GPa)
#
#
# Indices 1 2 3 4 5 6 
#
# 1 0.015972 -0.008511 -0.002799 0.000000 0.000000 0.000000
# 2 -0.008511 0.014092 0.000981 0.000000 0.000000 0.000000
# 3 -0.002799 0.000981 0.012652 0.000000 0.000000 0.000000
# 4 0.000000 0.000000 0.000000 0.042546 0.000000 0.000000
# 5 0.000000 0.000000 0.000000 0.000000 0.002101 0.000000
# 6 0.000000 0.000000 0.000000 0.000000 0.000000 0.091687
#
#
# Mechanical properties :
#
#
# Convention : Reuss Voigt Hill
#
# Bulk Modulus (GPa) = 45.33405 48.74419 47.03912
# Shear Modulus (GPa) = 24.14755 115.75271 69.95013
#
# Velocity S-wave (km/s) = 3.42811 7.50558 5.83463
# Velocity P-wave (km/s) = 6.14265 9.94154 8.26336
#
# Compressibility (1/GPa) = 0.02205848
#
# Stress axis : x y z
#
# Youngs Moduli (GPa) = 62.60782 70.96097 79.04132
#
# Poissons Ratio (x) = 0.60394 0.22125
# Poissons Ratio (y) = 0.53285 -0.07755
# Poissons Ratio (z) = 0.17525 -0.06962
#
# Static dielectric constant tensor:
#      x y z
#    x 1.708640 0.000000 0.000000 
#    y 0.000000 1.719740 0.000000 
#    z 0.000000 0.000000 1.780080 
# 
# From -- ./inp_files/6245.got.cif
#   From: 2010.05.17/outbox.cif.g08.bks.cpg/sg52_4_cif.got.tgz:6245.got - 2010.06.03 12:15:38.
