data_PCOD9413959
_publ_section_title
;
Structure prediction by ZEFSAII (Michael W. Deem and Ramdas Pophale) SiO2 
 PCOD9413959
Probable space group: P N N A
;
_chemical_formula_sum "Si O2"
_cell_formula_units_Z 60
_cell_length_a 18.000000
_cell_length_b 15.000000
_cell_length_c 12.000000
_cell_angle_alpha 90.000000
_cell_angle_beta 90.000000
_cell_angle_gamma 90.000000
_cell_volume 3240.000000
_symmetry_space_group_name_H-M "P N N A"
_symmetry_group_IT_number 52
_symmetry_cell_setting 'orthorhombic'
loop_
_space_group_symop_operation_xyz
x,y,z
1/2-x,-y,z
x,1/2-y,1/2-z
1/2-x,1/2+y,1/2-z
-x,-y,-z
1/2+x,y,-z
-x,1/2+y,1/2+z
1/2+x,1/2-y,1/2+z
loop_
_atom_site_type_symbol
_atom_site_label
_atom_site_fract_x
_atom_site_fract_y
_atom_site_fract_z
Si Si1 0.836379 0.493141 0.082249
Si Si2 0.992895 0.467104 0.172805
Si Si3 0.898029 0.839404 0.560018
Si Si4 0.955852 0.039576 0.897795
Si Si5 0.979361 0.732847 0.374203
Si Si6 0.796008 0.750000 0.750000
Si Si7 0.802798 0.413655 0.683595
Si Si8 0.901733 0.119772 0.598754
O O1 0.750000 0.500000 0.117401
O O2 0.904383 0.483046 0.170220
O O3 0.856596 0.579086 0.004514
O O4 0.851344 0.405635 0.006052
O O5 0.026400 0.379334 0.115067
O O6 0.029013 0.473949 0.294346
O O7 0.030475 0.549108 0.105737
O O8 0.923385 0.766352 0.469256
O O9 0.846384 0.801034 0.658344
O O10 0.868077 0.063357 0.905669
O O11 0.998382 0.130931 0.873787
O O12 0.000000 0.000000 0.000000
O O13 0.949686 0.750000 0.250000
O O14 0.056900 0.786708 0.392096
O O15 0.746302 0.676677 0.682863
O O16 0.750000 0.500000 0.691698
O O17 0.850829 0.399544 0.795315
#
# Coordination Sequence:
#
# PCOD9413959 Si02
#       8
#     8   8   8   8   8   4   8   8
#     4  11  19  34  59  90 121 155 199 265 316 358
#     4  10  19  40  58  88 121 156 212 255 307 384
#     4  11  23  37  63  92 127 164 208 264 314 384
#     4  11  25  40  65  88 125 173 210 254 330 397
#     4  12  20  38  64  92 120 166 225 257 297 387
#     4  12  24  38  62 102 128 158 208 270 340 364
#     4  11  22  39  61  92 131 157 204 269 325 380
#     4  10  17  35  58  88 117 158 202 254 307 370
#
# _framework density 18.518519000000001
#
# number of rings (size 3 to 8) (size 9 to 14) (size 15 to 20)
#    0.000    1.067    5.333    5.200    3.733    0.000 
#    0.000    0.667    2.933    0.000    0.000    0.000 
#    0.000    0.000    0.000    0.000    0.000    0.000 
#
# Total GULP energy -334576.986155 kJ/mol
# GULP energy per Si atom -5576.283103 kJ/mol
# Density = 1.847637 g / cm^3
# Si number density = 18.518519 Si / 1000 Ang^3
#
#
#
# Elastic Constant Matrix: (Units=GPa)
#
#
# Indices 1 2 3 4 5 6 
#
# 1 129.1110 12.2013 23.8847 0.0000 0.0000 0.0000
# 2 12.2013 38.3111 14.3366 0.0000 0.0000 0.0000
# 3 23.8847 14.3366 63.1696 0.0000 0.0000 0.0000
# 4 0.0000 0.0000 0.0000 25.2576 0.0000 0.0000
# 5 0.0000 0.0000 0.0000 0.0000 18.0862 0.0000
# 6 0.0000 0.0000 0.0000 0.0000 0.0000 31.2461
#
#
#
# Elastic Compliance Matrix: (Units=1/GPa)
#
#
# Indices 1 2 3 4 5 6 
#
# 1 0.008420 -0.001628 -0.002814 0.000000 0.000000 0.000000
# 2 -0.001628 0.028840 -0.005930 0.000000 0.000000 0.000000
# 3 -0.002814 -0.005930 0.018240 0.000000 0.000000 0.000000
# 4 0.000000 0.000000 0.000000 0.039592 0.000000 0.000000
# 5 0.000000 0.000000 0.000000 0.000000 0.055291 0.000000
# 6 0.000000 0.000000 0.000000 0.000000 0.000000 0.032004
#
#
# Mechanical properties :
#
#
# Convention : Reuss Voigt Hill
#
# Bulk Modulus (GPa) = 28.77241 36.82634 32.79937
# Shear Modulus (GPa) = 23.28663 26.92926 25.10794
#
# Velocity S-wave (km/s) = 3.54994 3.81751 3.68615
# Velocity P-wave (km/s) = 5.68978 6.27380 5.98891
#
# Compressibility (1/GPa) = 0.03475552
#
# Stress axis : x y z
#
# Youngs Moduli (GPa) = 118.76862 34.67444 54.82428
#
# Poissons Ratio (x) = 0.05647 0.15427
# Poissons Ratio (y) = 0.19341 0.32508
# Poissons Ratio (z) = 0.33421 0.20560
#
# Static dielectric constant tensor:
#      x y z
#    x 1.657400 0.000000 0.000000 
#    y 0.000000 1.656760 0.000000 
#    z 0.000000 0.000000 1.657840 
# 
# From -- ./inp_files/20837.got.cif
#   From: 2010.05.17/outbox.ucp.g08.bks.cvg/sg52_11_cif.got.tgz:20837.got - 2010.06.11 16:30:12.
