data_PCOD9413224
_publ_section_title
;
Structure prediction by ZEFSAII (Michael W. Deem and Ramdas Pophale) SiO2 
 PCOD9413224
Probable space group: P N N A
;
_chemical_formula_sum "Si O2"
_cell_formula_units_Z 64
_cell_length_a 17.843826
_cell_length_b 15.263959
_cell_length_c 10.919500
_cell_angle_alpha 90.000000
_cell_angle_beta 90.000000
_cell_angle_gamma 90.000000
_cell_volume 2974.116135
_symmetry_space_group_name_H-M "P N N A"
_symmetry_group_IT_number 52
_symmetry_cell_setting 'orthorhombic'
loop_
_space_group_symop_operation_xyz
x,y,z
1/2-x,-y,z
x,1/2-y,1/2-z
1/2-x,1/2+y,1/2-z
-x,-y,-z
1/2+x,y,-z
-x,1/2+y,1/2+z
1/2+x,1/2-y,1/2+z
loop_
_atom_site_type_symbol
_atom_site_label
_atom_site_fract_x
_atom_site_fract_y
_atom_site_fract_z
Si Si1 0.503798 0.246069 0.892302
Si Si2 0.174966 0.546281 0.067829
Si Si3 0.412983 0.972666 0.216368
Si Si4 0.939244 0.429572 0.134803
Si Si5 0.664572 0.006067 0.153564
Si Si6 0.860661 0.666866 0.511354
Si Si7 0.285249 0.252789 0.110893
Si Si8 0.903931 0.116555 0.965291
O O1 0.527134 0.250000 0.750000
O O2 0.447112 0.327228 0.900168
O O3 0.576223 0.242854 0.979964
O O4 0.458812 0.159925 0.935665
O O5 0.250000 0.500000 0.020539
O O6 0.154902 0.509628 0.202196
O O7 0.193981 0.648833 0.075442
O O8 0.102248 0.530057 0.982943
O O9 0.443145 0.051056 0.129509
O O10 0.478399 0.948745 0.311206
O O11 0.383612 0.895237 0.127832
O O12 0.886143 0.462206 0.243675
O O13 0.750000 0.000000 0.193573
O O14 0.640557 0.102650 0.106195
O O15 0.655387 0.944357 0.034774
O O16 0.780003 0.710489 0.529097
O O17 0.256890 0.250000 0.250000
O O18 0.359190 0.192958 0.102082
#
# Coordination Sequence:
#
# PCOD9413224 Si02
#       8
#     8   8   8   8   8   8   8   8
#     4  12  22  40  64  99 130 175 223 274 335 406
#     4  12  27  44  67  96 135 181 222 275 349 418
#     4  11  24  43  67  97 134 178 225 284 333 407
#     4  12  25  43  66  95 135 182 225 271 340 418
#     4  11  22  41  68  98 135 175 222 282 340 403
#     4  11  24  40  69 102 129 171 229 287 332 395
#     4  12  23  41  65  99 132 167 218 282 339 398
#     4  11  22  40  68  98 131 173 223 277 340 393
#
# _framework density 21.518998
#
# number of rings (size 3 to 8) (size 9 to 14) (size 15 to 20)
#    0.000    0.500    6.250    2.625    1.750    2.000 
#    0.000    0.000    0.000    0.000    0.000    0.000 
#    0.000    0.000    0.000    0.000    0.000    0.000 
#
# Total GULP energy -357335.867013 kJ/mol
# GULP energy per Si atom -5583.372922 kJ/mol
# Density = 2.147002 g / cm^3
# Si number density = 21.518998 Si / 1000 Ang^3
#
#
#
# Elastic Constant Matrix: (Units=GPa)
#
#
# Indices 1 2 3 4 5 6 
#
# 1 74.3148 19.8338 10.7001 0.0000 0.0000 0.0000
# 2 19.8338 73.8591 29.3344 0.0000 0.0000 0.0000
# 3 10.7001 29.3344 65.3069 0.0000 0.0000 0.0000
# 4 0.0000 0.0000 0.0000 20.2367 0.0000 0.0000
# 5 0.0000 0.0000 0.0000 0.0000 20.4742 0.0000
# 6 0.0000 0.0000 0.0000 0.0000 0.0000 33.3151
#
#
#
# Elastic Compliance Matrix: (Units=1/GPa)
#
#
# Indices 1 2 3 4 5 6 
#
# 1 0.014526 -0.003597 -0.000764 0.000000 0.000000 0.000000
# 2 -0.003597 0.017370 -0.007213 0.000000 0.000000 0.000000
# 3 -0.000764 -0.007213 0.018677 0.000000 0.000000 0.000000
# 4 0.000000 0.000000 0.000000 0.049415 0.000000 0.000000
# 5 0.000000 0.000000 0.000000 0.000000 0.048842 0.000000
# 6 0.000000 0.000000 0.000000 0.000000 0.000000 0.030016
#
#
# Mechanical properties :
#
#
# Convention : Reuss Voigt Hill
#
# Bulk Modulus (GPa) = 36.46304 37.02416 36.74360
# Shear Modulus (GPa) = 23.68125 25.04605 24.36365
#
# Velocity S-wave (km/s) = 3.32095 3.41531 3.36846
# Velocity P-wave (km/s) = 5.62906 5.72670 5.67809
#
# Compressibility (1/GPa) = 0.02742503
#
# Stress axis : x y z
#
# Youngs Moduli (GPa) = 68.84024 57.57051 53.54076
#
# Poissons Ratio (x) = 0.20710 0.04092
# Poissons Ratio (y) = 0.24764 0.38618
# Poissons Ratio (z) = 0.05261 0.41525
#
# Static dielectric constant tensor:
#      x y z
#    x 1.791600 0.000000 0.000000 
#    y 0.000000 1.814100 0.000000 
#    z 0.000000 0.000000 1.780090 
# 
# From -- ./inp_files/20900.got.cif
#   From: 2010.05.17/outbox.cif.g08.bks.cpg/sg52_11_cif.got.tgz:20900.got - 2010.06.03 12:15:38.
