data_PCOD9413146
_publ_section_title
;
Structure prediction by ZEFSAII (Michael W. Deem and Ramdas Pophale) SiO2 
 PCOD9413146
Probable space group: P N N A
;
_chemical_formula_sum "Si O2"
_cell_formula_units_Z 40
_cell_length_a 20.617016
_cell_length_b 8.129551
_cell_length_c 9.547080
_cell_angle_alpha 90.000000
_cell_angle_beta 90.000000
_cell_angle_gamma 90.000000
_cell_volume 1600.158230
_symmetry_space_group_name_H-M "P N N A"
_symmetry_group_IT_number 52
_symmetry_cell_setting 'orthorhombic'
loop_
_space_group_symop_operation_xyz
x,y,z
1/2-x,-y,z
x,1/2-y,1/2-z
1/2-x,1/2+y,1/2-z
-x,-y,-z
1/2+x,y,-z
-x,1/2+y,1/2+z
1/2+x,1/2-y,1/2+z
loop_
_atom_site_type_symbol
_atom_site_label
_atom_site_fract_x
_atom_site_fract_y
_atom_site_fract_z
Si Si1 0.386457 0.403557 0.160218
Si Si2 0.608815 0.333690 0.402035
Si Si3 0.985605 0.675907 0.896998
Si Si4 0.367262 0.274700 0.603693
Si Si5 0.200618 0.129672 0.136991
O O1 0.410875 0.250000 0.250000
O O2 0.448760 0.502674 0.103141
O O3 0.347209 0.520850 0.265466
O O4 0.343954 0.321405 0.034568
O O5 0.614656 0.250000 0.250000
O O6 0.541284 0.284183 0.474786
O O7 0.618862 0.530600 0.406249
O O8 0.662688 0.274719 0.515117
O O9 0.960884 0.750000 0.750000
O O10 0.062361 0.688250 0.881691
O O11 0.329993 0.250000 0.750000
O O12 0.232594 0.250000 0.250000
O O13 0.250000 0.000000 0.071112
#
# Coordination Sequence:
#
# PCOD9413146 Si02
#       5
#     8   8   8   8   8
#     4  12  21  42  71 103 140 180 235 304 338 423
#     4  12  24  46  69 100 146 183 230 300 354 426
#     4  11  21  42  64 102 145 192 240 276 342 426
#     4  11  25  38  65 105 146 192 234 281 353 413
#     4  12  26  49  79 105 132 181 245 303 371 420
#
# _framework density 24.997526000000001
#
# number of rings (size 3 to 8) (size 9 to 14) (size 15 to 20)
#    0.000    0.400    6.000    3.000    0.000    4.000 
#    0.000    2.000    0.000    0.000    0.000    0.000 
#    0.000    0.000    0.000    0.000    0.000    0.000 
#
# Total GULP energy -223665.777312 kJ/mol
# GULP energy per Si atom -5591.644433 kJ/mol
# Density = 2.494063 g / cm^3
# Si number density = 24.997526 Si / 1000 Ang^3
#
#
#
# Elastic Constant Matrix: (Units=GPa)
#
#
# Indices 1 2 3 4 5 6 
#
# 1 45.8412 -15.9523 11.4933 0.0000 0.0000 0.0000
# 2 -15.9523 79.0420 24.6117 0.0000 0.0000 0.0000
# 3 11.4933 24.6117 187.8447 0.0000 0.0000 0.0000
# 4 0.0000 0.0000 0.0000 58.4504 0.0000 0.0000
# 5 0.0000 0.0000 0.0000 0.0000 28.5812 0.0000
# 6 0.0000 0.0000 0.0000 0.0000 0.0000 31.1877
#
#
#
# Elastic Compliance Matrix: (Units=1/GPa)
#
#
# Indices 1 2 3 4 5 6 
#
# 1 0.024320 0.005600 -0.002222 0.000000 0.000000 0.000000
# 2 0.005600 0.014479 -0.002240 0.000000 0.000000 0.000000
# 3 -0.002222 -0.002240 0.005753 0.000000 0.000000 0.000000
# 4 0.000000 0.000000 0.000000 0.017109 0.000000 0.000000
# 5 0.000000 0.000000 0.000000 0.000000 0.034988 0.000000
# 6 0.000000 0.000000 0.000000 0.000000 0.000000 0.032064
#
#
# Mechanical properties :
#
#
# Convention : Reuss Voigt Hill
#
# Bulk Modulus (GPa) = 21.35401 39.22593 30.28997
# Shear Modulus (GPa) = 35.20000 43.14887 39.17443
#
# Velocity S-wave (km/s) = 3.75659 4.15917 3.96300
# Velocity P-wave (km/s) = 5.23230 6.22824 5.75187
#
# Compressibility (1/GPa) = 0.04682961
#
# Stress axis : x y z
#
# Youngs Moduli (GPa) = 41.11794 69.06496 173.82423
#
# Poissons Ratio (x) = -0.38677 0.38620
# Poissons Ratio (y) = -0.23027 0.38932
# Poissons Ratio (z) = 0.09136 0.15469
#
# Static dielectric constant tensor:
#      x y z
#    x 1.978720 0.000000 0.000000 
#    y 0.000000 2.059510 0.000000 
#    z 0.000000 0.000000 2.140460 
# 
# From -- ./inp_files/13936.got.cif
#   From: 2010.05.17/outbox.cif.g08.bks.cpg/sg52_7_cif.got.tgz:13936.got - 2010.06.03 12:15:38.
