data_PCOD9413552
_publ_section_title
;
Structure prediction by ZEFSAII (Michael W. Deem and Ramdas Pophale) SiO2 
 PCOD9413552
Probable space group: P N N A
;
_chemical_formula_sum "Si O2"
_cell_formula_units_Z 48
_cell_length_a 23.906081
_cell_length_b 13.626216
_cell_length_c 6.740167
_cell_angle_alpha 90.000000
_cell_angle_beta 90.000000
_cell_angle_gamma 90.000000
_cell_volume 2195.605514
_symmetry_space_group_name_H-M "P N N A"
_symmetry_group_IT_number 52
_symmetry_cell_setting 'orthorhombic'
loop_
_space_group_symop_operation_xyz
x,y,z
1/2-x,-y,z
x,1/2-y,1/2-z
1/2-x,1/2+y,1/2-z
-x,-y,-z
1/2+x,y,-z
-x,1/2+y,1/2+z
1/2+x,1/2-y,1/2+z
loop_
_atom_site_type_symbol
_atom_site_label
_atom_site_fract_x
_atom_site_fract_y
_atom_site_fract_z
Si Si1 0.094181 0.004654 0.510381
Si Si2 0.334015 0.930180 0.839410
Si Si3 0.421034 0.850570 0.167038
Si Si4 0.467634 0.413591 0.613473
Si Si5 0.212983 0.847617 0.877385
Si Si6 0.872804 0.146545 0.809306
O O1 0.133549 0.078265 0.633316
O O2 0.066685 0.072642 0.344025
O O3 0.055471 0.949863 0.672512
O O4 0.127020 0.924804 0.378532
O O5 0.279154 0.864516 0.864003
O O6 0.313256 0.044459 0.827325
O O7 0.378352 0.900522 0.011235
O O8 0.396310 0.750000 0.250000
O O9 0.484594 0.830255 0.095445
O O10 0.500000 0.500000 0.500000
O O11 0.413425 0.389098 0.484204
O O12 0.197176 0.750000 0.750000
O O13 0.188066 0.835546 0.097147
O O14 0.897376 0.250000 0.750000
#
# Coordination Sequence:
#
# PCOD9413552 Si02
#       6
#     8   8   8   8   8   8
#     4  12  23  47  74  99 145 197 237 299 365 439
#     4  11  25  50  72 105 149 189 244 307 373 438
#     4  12  28  44  72 111 149 192 246 299 367 451
#     4  12  24  47  70 103 150 191 241 299 365 440
#     4  11  24  49  74 103 143 189 245 311 367 441
#     4  12  27  44  73 108 141 190 250 301 367 439
#
# _framework density 21.861851000000001
#
# number of rings (size 3 to 8) (size 9 to 14) (size 15 to 20)
#    0.000    0.333    6.667    1.500    4.667    0.667 
#    6.000    0.000    0.000    0.000    0.000    0.000 
#    0.000    0.000    0.000    0.000    0.000    0.000 
#
# Total GULP energy -267612.343484 kJ/mol
# GULP energy per Si atom -5575.257156 kJ/mol
# Density = 2.181209 g / cm^3
# Si number density = 21.861851 Si / 1000 Ang^3
#
#
#
# Elastic Constant Matrix: (Units=GPa)
#
#
# Indices 1 2 3 4 5 6 
#
# 1 136.4584 16.4367 58.2898 0.0000 0.0000 0.0000
# 2 16.4367 98.6052 42.2850 0.0000 0.0000 0.0000
# 3 58.2898 42.2850 139.2848 0.0000 0.0000 0.0000
# 4 0.0000 0.0000 0.0000 38.8888 0.0000 0.0000
# 5 0.0000 0.0000 0.0000 0.0000 16.4369 0.0000
# 6 0.0000 0.0000 0.0000 0.0000 0.0000 27.1087
#
#
#
# Elastic Compliance Matrix: (Units=1/GPa)
#
#
# Indices 1 2 3 4 5 6 
#
# 1 0.008925 0.000131 -0.003775 0.000000 0.000000 0.000000
# 2 0.000131 0.011661 -0.003595 0.000000 0.000000 0.000000
# 3 -0.003775 -0.003595 0.009851 0.000000 0.000000 0.000000
# 4 0.000000 0.000000 0.000000 0.025714 0.000000 0.000000
# 5 0.000000 0.000000 0.000000 0.000000 0.060839 0.000000
# 6 0.000000 0.000000 0.000000 0.000000 0.000000 0.036888
#
#
# Mechanical properties :
#
#
# Convention : Reuss Voigt Hill
#
# Bulk Modulus (GPa) = 62.65960 67.59682 65.12821
# Shear Modulus (GPa) = 28.78926 33.64267 31.21597
#
# Velocity S-wave (km/s) = 3.63281 3.92711 3.78282
# Velocity P-wave (km/s) = 6.80590 7.17983 6.99536
#
# Compressibility (1/GPa) = 0.01595925
#
# Stress axis : x y z
#
# Youngs Moduli (GPa) = 112.04599 85.75390 101.51589
#
# Poissons Ratio (x) = -0.01124 0.38320
# Poissons Ratio (y) = -0.01468 0.36495
# Poissons Ratio (z) = 0.42295 0.30829
#
# Static dielectric constant tensor:
#      x y z
#    x 1.814880 0.000000 0.000000 
#    y 0.000000 1.924810 0.000000 
#    z 0.000000 0.000000 1.854820 
# 
# From -- ./inp_files/5810.got.cif
#   From: 2010.05.17/outbox.cif.g08.bks.cpg/sg52_3_cif.got.tgz:5810.got - 2010.06.03 12:15:38.
