data_PCOD9413877
_publ_section_title
;
Structure prediction by ZEFSAII (Michael W. Deem and Ramdas Pophale) SiO2 
 PCOD9413877
Probable space group: P N N A
;
_chemical_formula_sum "Si O2"
_cell_formula_units_Z 60
_cell_length_a 23.126824
_cell_length_b 20.617786
_cell_length_c 5.140712
_cell_angle_alpha 90.000000
_cell_angle_beta 90.000000
_cell_angle_gamma 90.000000
_cell_volume 2451.214386
_symmetry_space_group_name_H-M "P N N A"
_symmetry_group_IT_number 52
_symmetry_cell_setting 'orthorhombic'
loop_
_space_group_symop_operation_xyz
x,y,z
1/2-x,-y,z
x,1/2-y,1/2-z
1/2-x,1/2+y,1/2-z
-x,-y,-z
1/2+x,y,-z
-x,1/2+y,1/2+z
1/2+x,1/2-y,1/2+z
loop_
_atom_site_type_symbol
_atom_site_label
_atom_site_fract_x
_atom_site_fract_y
_atom_site_fract_z
Si Si1 0.430429 0.292531 0.497770
Si Si2 0.714001 0.934339 0.954748
Si Si3 0.978940 0.604383 0.338025
Si Si4 0.095026 0.544691 0.176672
Si Si5 0.343895 0.143596 0.664549
Si Si6 0.906404 0.596964 0.850876
Si Si7 0.262683 0.250000 0.750000
Si Si8 0.287814 0.674798 0.136689
O O1 0.418884 0.250000 0.250000
O O2 0.485758 0.335453 0.448867
O O3 0.375531 0.336102 0.569817
O O4 0.440112 0.250000 0.750000
O O5 0.649956 0.954611 0.864892
O O6 0.742893 0.874819 0.785969
O O7 0.750000 0.000000 0.939175
O O8 0.703874 0.908720 0.247768
O O9 0.030144 0.552313 0.283530
O O10 0.933932 0.586835 0.565055
O O11 0.950074 0.624623 0.065837
O O12 0.102026 0.475929 0.035275
O O13 0.108020 0.608180 0.002806
O O14 0.311841 0.209666 0.578493
O O15 0.849241 0.639976 0.827064
O O16 0.217329 0.192797 0.672863
O O17 0.282873 0.750000 0.250000
#
# Coordination Sequence:
#
# PCOD9413877 Si02
#       8
#     8   8   8   8   8   8   4   8
#     4  12  26  45  76 114 153 198 260 330 403 470
#     4  12  26  47  77 115 156 201 266 327 412 485
#     4  12  28  51  78 114 153 214 272 340 395 471
#     4  12  26  49  79 115 156 200 274 340 406 469
#     4  12  26  42  79 116 157 199 256 336 407 480
#     4  12  30  51  81 111 161 217 272 324 405 487
#     4  12  26  44  74 112 156 208 258 320 412 486
#     4  12  28  49  75 113 160 213 262 330 403 506
#
# _framework density 24.477661000000001
#
# number of rings (size 3 to 8) (size 9 to 14) (size 15 to 20)
#    0.000    0.000    6.000    3.200    5.600    3.200 
#    0.000    0.000    0.000    0.000    0.000    0.000 
#    0.000    0.000    0.000    0.000    0.000    0.000 
#
# Total GULP energy -334361.322847 kJ/mol
# GULP energy per Si atom -5572.688714 kJ/mol
# Density = 2.442195 g / cm^3
# Si number density = 24.477661 Si / 1000 Ang^3
#
#
#
# Elastic Constant Matrix: (Units=GPa)
#
#
# Indices 1 2 3 4 5 6 
#
# 1 115.4768 29.2843 15.5270 0.0000 0.0000 0.0000
# 2 29.2843 121.3878 20.0476 0.0000 0.0000 0.0000
# 3 15.5270 20.0476 78.2248 0.0000 0.0000 0.0000
# 4 0.0000 0.0000 0.0000 44.0170 0.0000 0.0000
# 5 0.0000 0.0000 0.0000 0.0000 28.9035 0.0000
# 6 0.0000 0.0000 0.0000 0.0000 0.0000 43.7867
#
#
#
# Elastic Compliance Matrix: (Units=1/GPa)
#
#
# Indices 1 2 3 4 5 6 
#
# 1 0.009356 -0.002037 -0.001335 0.000000 0.000000 0.000000
# 2 -0.002037 0.009045 -0.001914 0.000000 0.000000 0.000000
# 3 -0.001335 -0.001914 0.013539 0.000000 0.000000 0.000000
# 4 0.000000 0.000000 0.000000 0.022718 0.000000 0.000000
# 5 0.000000 0.000000 0.000000 0.000000 0.034598 0.000000
# 6 0.000000 0.000000 0.000000 0.000000 0.000000 0.022838
#
#
# Mechanical properties :
#
#
# Convention : Reuss Voigt Hill
#
# Bulk Modulus (GPa) = 46.79634 49.42300 48.10967
# Shear Modulus (GPa) = 38.52408 40.02349 39.27378
#
# Velocity S-wave (km/s) = 3.97148 4.04803 4.00993
# Velocity P-wave (km/s) = 6.33953 6.48719 6.41378
#
# Compressibility (1/GPa) = 0.02136919
#
# Stress axis : x y z
#
# Youngs Moduli (GPa) = 106.88655 110.55268 73.85969
#
# Poissons Ratio (x) = 0.22514 0.09861
# Poissons Ratio (y) = 0.21768 0.14136
# Poissons Ratio (z) = 0.14270 0.21159
#
# Static dielectric constant tensor:
#      x y z
#    x 2.058260 0.000000 0.000000 
#    y 0.000000 2.005200 0.000000 
#    z 0.000000 0.000000 2.300330 
# 
# From -- ./inp_files/5287.got.cif
#   From: 2010.05.17/outbox.cif.g08.bks.cpg/sg52_3_cif.got.tgz:5287.got - 2010.06.03 12:15:38.
