data_PCOD9413511
_publ_section_title
;
Structure prediction by ZEFSAII (Michael W. Deem and Ramdas Pophale) SiO2 
 PCOD9413511
Probable space group: P N N A
;
_chemical_formula_sum "Si O2"
_cell_formula_units_Z 32
_cell_length_a 8.223982
_cell_length_b 11.475998
_cell_length_c 13.952804
_cell_angle_alpha 90.000000
_cell_angle_beta 90.000000
_cell_angle_gamma 90.000000
_cell_volume 1316.843331
_symmetry_space_group_name_H-M "P N N A"
_symmetry_group_IT_number 52
_symmetry_cell_setting 'orthorhombic'
loop_
_space_group_symop_operation_xyz
x,y,z
1/2-x,-y,z
x,1/2-y,1/2-z
1/2-x,1/2+y,1/2-z
-x,-y,-z
1/2+x,y,-z
-x,1/2+y,1/2+z
1/2+x,1/2-y,1/2+z
loop_
_atom_site_type_symbol
_atom_site_label
_atom_site_fract_x
_atom_site_fract_y
_atom_site_fract_z
Si Si1 0.592051 0.575902 0.673593
Si Si2 0.816299 0.126410 0.416205
Si Si3 0.250000 0.000000 0.827975
Si Si4 0.040749 0.830130 0.383996
Si Si5 0.132131 0.750000 0.750000
O O1 0.750000 0.500000 0.658089
O O2 0.429442 0.519241 0.628517
O O3 0.619372 0.705577 0.635855
O O4 0.560426 0.591758 0.788695
O O5 0.647715 0.196297 0.408166
O O6 0.883377 0.114017 0.522100
O O7 0.942633 0.196234 0.347551
O O8 0.750000 0.000000 0.385954
O O9 0.275961 0.129688 0.779790
#
# Coordination Sequence:
#
# PCOD9413511 Si02
#       5
#     8   8   4   8   4
#     4  11  24  47  73 105 147 193 244 307 367 447
#     4  12  23  43  72 102 144 193 239 312 367 440
#     4  12  22  46  78 102 144 190 244 302 376 428
#     4  11  24  46  66 111 147 182 257 306 361 453
#     4  12  22  44  74 100 140 194 246 294 378 434
#
# _framework density 24.300536999999998
#
# number of rings (size 3 to 8) (size 9 to 14) (size 15 to 20)
#    0.000    0.500    6.250    1.500    0.000    6.000 
#    2.250    2.500    0.000    0.000    0.000    0.000 
#    0.000    0.000    0.000    0.000    0.000    0.000 
#
# Total GULP energy -178306.097456 kJ/mol
# GULP energy per Si atom -5572.065546 kJ/mol
# Density = 2.424523 g / cm^3
# Si number density = 24.300537 Si / 1000 Ang^3
#
#
#
# Elastic Constant Matrix: (Units=GPa)
#
#
# Indices 1 2 3 4 5 6 
#
# 1 93.2973 25.0240 -10.7912 0.0000 0.0000 0.0000
# 2 25.0240 136.9473 33.1883 0.0000 0.0000 0.0000
# 3 -10.7912 33.1883 78.6003 0.0000 0.0000 0.0000
# 4 0.0000 0.0000 0.0000 2.0754 0.0000 0.0000
# 5 0.0000 0.0000 0.0000 0.0000 -10.4749 0.0000
# 6 0.0000 0.0000 0.0000 0.0000 0.0000 37.4517
#
#
#
# Elastic Compliance Matrix: (Units=1/GPa)
#
#
# Indices 1 2 3 4 5 6 
#
# 1 0.011807 -0.002841 0.002821 0.000000 0.000000 0.000000
# 2 -0.002841 0.008818 -0.004113 0.000000 0.000000 0.000000
# 3 0.002821 -0.004113 0.014847 0.000000 0.000000 0.000000
# 4 0.000000 0.000000 0.000000 0.481844 0.000000 0.000000
# 5 0.000000 0.000000 0.000000 0.000000 -0.095467 0.000000
# 6 0.000000 0.000000 0.000000 0.000000 0.000000 0.026701
#
#
# Mechanical properties :
#
#
# Convention : Reuss Voigt Hill
#
# Bulk Modulus (GPa) = 36.75962 44.85413 40.80687
# Shear Modulus (GPa) = 10.73225 23.23869 16.98547
#
# Velocity S-wave (km/s) = 2.10382 3.09577 2.64668
# Velocity P-wave (km/s) = 4.58926 5.59254 5.11556
#
# Compressibility (1/GPa) = 0.02720377
#
# Stress axis : x y z
#
# Youngs Moduli (GPa) = 84.69806 113.40387 67.35520
#
# Poissons Ratio (x) = 0.32217 -0.18998
# Poissons Ratio (y) = 0.24062 0.27706
# Poissons Ratio (z) = -0.23889 0.46647
#
# Static dielectric constant tensor:
#      x y z
#    x 2.028650 0.000000 0.000000 
#    y 0.000000 1.920120 0.000000 
#    z 0.000000 0.000000 2.039380 
# 
# From -- ./inp_files/24109.got.cif
#   From: 2010.05.17/outbox.cif.g08.bks.cpg/sg52_13_cif.got.tgz:24109.got - 2010.06.03 12:15:38.
