data_PCOD9413240
_publ_section_title
;
Structure prediction by ZEFSAII (Michael W. Deem and Ramdas Pophale) SiO2 
 PCOD9413240
Probable space group: P N N A
;
_chemical_formula_sum "Si O2"
_cell_formula_units_Z 40
_cell_length_a 15.280812
_cell_length_b 9.342643
_cell_length_c 11.646193
_cell_angle_alpha 90.000000
_cell_angle_beta 90.000000
_cell_angle_gamma 90.000000
_cell_volume 1662.647446
_symmetry_space_group_name_H-M "P N N A"
_symmetry_group_IT_number 52
_symmetry_cell_setting 'orthorhombic'
loop_
_space_group_symop_operation_xyz
x,y,z
1/2-x,-y,z
x,1/2-y,1/2-z
1/2-x,1/2+y,1/2-z
-x,-y,-z
1/2+x,y,-z
-x,1/2+y,1/2+z
1/2+x,1/2-y,1/2+z
loop_
_atom_site_type_symbol
_atom_site_label
_atom_site_fract_x
_atom_site_fract_y
_atom_site_fract_z
Si Si1 0.660425 0.589786 0.212079
Si Si2 0.200568 0.126464 0.036633
Si Si3 0.935839 0.862707 0.150336
Si Si4 0.331444 0.106263 0.457149
Si Si5 0.124812 0.592731 0.281643
O O1 0.750000 0.500000 0.207262
O O2 0.680239 0.750000 0.250000
O O3 0.594648 0.514812 0.299888
O O4 0.625339 0.592123 0.081437
O O5 0.277152 0.243146 0.043318
O O6 0.250000 0.000000 0.968509
O O7 0.168419 0.042466 0.152705
O O8 0.117176 0.174321 0.963998
O O9 0.913553 0.750000 0.250000
O O10 0.040433 0.868304 0.142612
O O11 0.393587 0.057817 0.351724
O O12 0.250000 0.000000 0.445356
O O13 0.168138 0.750000 0.250000
#
# Coordination Sequence:
#
# PCOD9413240 Si02
#       5
#     8   8   8   8   8
#     4  11  22  41  68 102 136 182 240 291 349 427
#     4  12  23  43  75  98 133 186 245 287 352 433
#     4  11  24  44  68 100 143 185 229 298 363 421
#     4  11  24  41  67 100 134 179 238 292 350 426
#     4  11  25  43  65 101 141 185 232 300 358 422
#
# _framework density 24.058015999999999
#
# number of rings (size 3 to 8) (size 9 to 14) (size 15 to 20)
#    0.000    0.800    2.000    7.200    0.000    0.800 
#    3.600    0.000    0.000    0.000    0.000    0.000 
#    0.000    0.000    0.000    0.000    0.000    0.000 
#
# Total GULP energy -222950.093595 kJ/mol
# GULP energy per Si atom -5573.752340 kJ/mol
# Density = 2.400326 g / cm^3
# Si number density = 24.058016 Si / 1000 Ang^3
#
#
#
# Elastic Constant Matrix: (Units=GPa)
#
#
# Indices 1 2 3 4 5 6 
#
# 1 64.5888 -0.6252 23.7826 0.0000 0.0000 0.0000
# 2 -0.6252 120.1584 -11.4428 0.0000 0.0000 0.0000
# 3 23.7826 -11.4428 125.8148 0.0000 0.0000 0.0000
# 4 0.0000 0.0000 0.0000 26.5262 0.0000 0.0000
# 5 0.0000 0.0000 0.0000 0.0000 47.2901 0.0000
# 6 0.0000 0.0000 0.0000 0.0000 0.0000 16.8886
#
#
#
# Elastic Compliance Matrix: (Units=1/GPa)
#
#
# Indices 1 2 3 4 5 6 
#
# 1 0.016646 -0.000215 -0.003166 0.000000 0.000000 0.000000
# 2 -0.000215 0.008398 0.000804 0.000000 0.000000 0.000000
# 3 -0.003166 0.000804 0.008620 0.000000 0.000000 0.000000
# 4 0.000000 0.000000 0.000000 0.037699 0.000000 0.000000
# 5 0.000000 0.000000 0.000000 0.000000 0.021146 0.000000
# 6 0.000000 0.000000 0.000000 0.000000 0.000000 0.059211
#
#
# Mechanical properties :
#
#
# Convention : Reuss Voigt Hill
#
# Bulk Modulus (GPa) = 35.07463 37.11014 36.09238
# Shear Modulus (GPa) = 30.05222 38.06413 34.05818
#
# Velocity S-wave (km/s) = 3.53817 3.98198 3.76662
# Velocity P-wave (km/s) = 5.59486 6.04982 5.82678
#
# Compressibility (1/GPa) = 0.02851064
#
# Stress axis : x y z
#
# Youngs Moduli (GPa) = 60.07333 119.07830 116.01133
#
# Poissons Ratio (x) = 0.02559 0.36731
# Poissons Ratio (y) = 0.01291 -0.09332
# Poissons Ratio (z) = 0.19020 -0.09579
#
# Static dielectric constant tensor:
#      x y z
#    x 1.954660 0.000000 0.000000 
#    y 0.000000 2.014970 0.000000 
#    z 0.000000 0.000000 2.113370 
# 
# From -- ./inp_files/20332.got.cif
#   From: 2010.05.17/outbox.cif.g08.bks.cpg/sg52_11_cif.got.tgz:20332.got - 2010.06.03 12:15:38.
