data_PCOD9413010
_publ_section_title
;
Structure prediction by ZEFSAII (Michael W. Deem and Ramdas Pophale) SiO2 
 PCOD9413010
Probable space group: P N N A
;
_chemical_formula_sum "Si O2"
_cell_formula_units_Z 32
_cell_length_a 15.954997
_cell_length_b 6.750946
_cell_length_c 14.217388
_cell_angle_alpha 90.000000
_cell_angle_beta 90.000000
_cell_angle_gamma 90.000000
_cell_volume 1531.373674
_symmetry_space_group_name_H-M "P N N A"
_symmetry_group_IT_number 52
_symmetry_cell_setting 'orthorhombic'
loop_
_space_group_symop_operation_xyz
x,y,z
1/2-x,-y,z
x,1/2-y,1/2-z
1/2-x,1/2+y,1/2-z
-x,-y,-z
1/2+x,y,-z
-x,1/2+y,1/2+z
1/2+x,1/2-y,1/2+z
loop_
_atom_site_type_symbol
_atom_site_label
_atom_site_fract_x
_atom_site_fract_y
_atom_site_fract_z
Si Si1 0.369540 0.190847 0.846620
Si Si2 0.515276 0.889809 0.832499
Si Si3 0.339077 0.552504 0.467243
Si Si4 0.415973 0.582025 0.952803
O O1 0.322770 0.250000 0.750000
O O2 0.376122 0.396779 0.901930
O O3 0.457046 0.083123 0.813494
O O4 0.337255 0.046153 0.928704
O O5 0.552425 0.750000 0.750000
O O6 0.585077 0.957207 0.907555
O O7 0.449723 0.738115 0.877806
O O8 0.250000 0.500000 0.422544
O O9 0.358093 0.786227 0.479014
O O10 0.500000 0.500000 0.000000
#
# Coordination Sequence:
#
# PCOD9413010 Si02
#       4
#     8   8   8   8
#     4  11  21  39  66  93 116 160 220 272 317 374
#     4  11  21  37  65  93 118 155 220 272 309 379
#     4  11  25  41  57  93 138 169 203 260 338 404
#     4  11  19  39  67  86 118 165 215 264 312 374
#
# _framework density 20.896270000000001
#
# number of rings (size 3 to 8) (size 9 to 14) (size 15 to 20)
#    0.000    1.000    7.500    1.500    0.000    1.000 
#    4.500    3.750    0.000    0.000    0.000    0.000 
#    0.000    0.000    0.000    0.000    0.000    0.000 
#
# Total GULP energy -178231.490529 kJ/mol
# GULP energy per Si atom -5569.734079 kJ/mol
# Density = 2.084871 g / cm^3
# Si number density = 20.896270 Si / 1000 Ang^3
#
#
#
# Elastic Constant Matrix: (Units=GPa)
#
#
# Indices 1 2 3 4 5 6 
#
# 1 51.9529 34.4037 2.7198 0.0000 0.0000 0.0000
# 2 34.4037 155.8877 24.3895 0.0000 0.0000 0.0000
# 3 2.7198 24.3895 57.0862 0.0000 0.0000 0.0000
# 4 0.0000 0.0000 0.0000 40.8176 0.0000 0.0000
# 5 0.0000 0.0000 0.0000 0.0000 -6.3640 0.0000
# 6 0.0000 0.0000 0.0000 0.0000 0.0000 17.7840
#
#
#
# Elastic Compliance Matrix: (Units=1/GPa)
#
#
# Indices 1 2 3 4 5 6 
#
# 1 0.022611 -0.005167 0.001130 0.000000 0.000000 0.000000
# 2 -0.005167 0.008055 -0.003195 0.000000 0.000000 0.000000
# 3 0.001130 -0.003195 0.018829 0.000000 0.000000 0.000000
# 4 0.000000 0.000000 0.000000 0.024499 0.000000 0.000000
# 5 0.000000 0.000000 0.000000 0.000000 -0.157134 0.000000
# 6 0.000000 0.000000 0.000000 0.000000 0.000000 0.056230
#
#
# Mechanical properties :
#
#
# Convention : Reuss Voigt Hill
#
# Bulk Modulus (GPa) = 28.54654 43.10587 35.82620
# Shear Modulus (GPa) = -6495.25918 24.00845 -3235.62537
#
# Velocity S-wave (km/s) = -55.81292 3.39327 -39.39269
# Velocity P-wave (km/s) = 64.34091 6.00214 45.29750
#
# Compressibility (1/GPa) = 0.03503052
#
# Stress axis : x y z
#
# Youngs Moduli (GPa) = 44.22704 124.14490 53.11047
#
# Poissons Ratio (x) = 0.64144 -0.06003
# Poissons Ratio (y) = 0.22852 0.16970
# Poissons Ratio (z) = -0.04999 0.39668
#
# Static dielectric constant tensor:
#      x y z
#    x 1.933520 0.000000 0.000000 
#    y 0.000000 1.721940 0.000000 
#    z 0.000000 0.000000 1.892910 
# 
# From -- ./inp_files/27589.got.cif
#   From: 2010.05.17/outbox.cif.g08.bks.cpg/sg52_14_cif.got.tgz:27589.got - 2010.06.03 12:15:38.
