data_PCOD9413036
_publ_section_title
;
Structure prediction by ZEFSAII (Michael W. Deem and Ramdas Pophale) SiO2 
 PCOD9413036
Probable space group: P N N A
;
_chemical_formula_sum "Si O2"
_cell_formula_units_Z 56
_cell_length_a 15.652446
_cell_length_b 11.920397
_cell_length_c 16.552714
_cell_angle_alpha 90.000000
_cell_angle_beta 90.000000
_cell_angle_gamma 90.000000
_cell_volume 3088.461166
_symmetry_space_group_name_H-M "P N N A"
_symmetry_group_IT_number 52
_symmetry_cell_setting 'orthorhombic'
loop_
_space_group_symop_operation_xyz
x,y,z
1/2-x,-y,z
x,1/2-y,1/2-z
1/2-x,1/2+y,1/2-z
-x,-y,-z
1/2+x,y,-z
-x,1/2+y,1/2+z
1/2+x,1/2-y,1/2+z
loop_
_atom_site_type_symbol
_atom_site_label
_atom_site_fract_x
_atom_site_fract_y
_atom_site_fract_z
Si Si1 0.325769 0.843691 0.879878
Si Si2 0.156815 0.710109 0.155591
Si Si3 0.915321 0.472465 0.265365
Si Si4 0.693465 0.750000 0.250000
Si Si5 0.222895 0.374814 0.437083
Si Si6 0.462749 0.680595 0.834413
Si Si7 0.400925 0.631991 0.297946
Si Si8 0.750000 0.500000 0.795075
O O1 0.255361 0.783651 0.823716
O O2 0.400529 0.751950 0.889886
O O3 0.363488 0.953160 0.832271
O O4 0.289733 0.868961 0.967533
O O5 0.161798 0.750000 0.250000
O O6 0.201644 0.798378 0.097930
O O7 0.210318 0.597468 0.152122
O O8 0.059137 0.685258 0.135763
O O9 0.864063 0.361282 0.239369
O O10 0.931330 0.557523 0.190800
O O11 0.008557 0.432412 0.296807
O O12 0.250000 0.500000 0.417040
O O13 0.137025 0.346234 0.386987
O O14 0.461556 0.750000 0.750000
O O15 0.407857 0.750000 0.250000
O O16 0.327873 0.555269 0.255485
#
# Coordination Sequence:
#
# PCOD9413036 Si02
#       8
#     8   8   8   4   8   8   8   4
#     4  11  25  43  64  90 123 167 216 265 315 373
#     4  11  20  36  64  91 124 167 205 248 317 386
#     4  11  22  40  67  93 121 164 218 264 307 370
#     4  12  22  42  68  88 118 166 222 266 306 368
#     4  12  24  39  62  96 134 160 201 259 326 377
#     4   9  20  38  63  88 117 162 213 251 305 376
#     4  12  22  38  64 101 131 165 204 256 316 382
#     4  12  18  36  66  92 126 164 202 248 304 386
#
# _framework density 18.132007999999999
#
# number of rings (size 3 to 8) (size 9 to 14) (size 15 to 20)
#    0.000    0.857    7.857    1.286    4.000    0.571 
#    2.571    1.429    0.000    2.571    0.000    0.000 
#    0.000    0.000    0.000    0.000    0.000    0.000 
#
# Total GULP energy -312553.870958 kJ/mol
# GULP energy per Si atom -5581.319124 kJ/mol
# Density = 1.809074 g / cm^3
# Si number density = 18.132008 Si / 1000 Ang^3
#
#
#
# Elastic Constant Matrix: (Units=GPa)
#
#
# Indices 1 2 3 4 5 6 
#
# 1 129.9092 73.8884 40.7150 0.0000 0.0000 0.0000
# 2 73.8884 157.9928 52.0612 0.0000 0.0000 0.0000
# 3 40.7150 52.0612 72.9706 0.0000 0.0000 0.0000
# 4 0.0000 0.0000 0.0000 20.3399 0.0000 0.0000
# 5 0.0000 0.0000 0.0000 0.0000 41.0877 0.0000
# 6 0.0000 0.0000 0.0000 0.0000 0.0000 -0.2319
#
#
#
# Elastic Compliance Matrix: (Units=1/GPa)
#
#
# Indices 1 2 3 4 5 6 
#
# 1 0.011043 -0.004097 -0.003238 0.000000 0.000000 0.000000
# 2 -0.004097 0.009795 -0.004702 0.000000 0.000000 0.000000
# 3 -0.003238 -0.004702 0.018866 0.000000 0.000000 0.000000
# 4 0.000000 0.000000 0.000000 0.049164 0.000000 0.000000
# 5 0.000000 0.000000 0.000000 0.000000 0.024338 0.000000
# 6 0.000000 0.000000 0.000000 0.000000 0.000000 -4.311496
#
#
# Mechanical properties :
#
#
# Convention : Reuss Voigt Hill
#
# Bulk Modulus (GPa) = 63.98696 77.13354 70.56025
# Shear Modulus (GPa) = -1.19933 25.18635 11.99351
#
# Velocity S-wave (km/s) = -0.81417 3.73105 2.57467
# Velocity P-wave (km/s) = 5.87216 7.82261 6.91649
#
# Compressibility (1/GPa) = 0.01562818
#
# Stress axis : x y z
#
# Youngs Moduli (GPa) = 90.55418 102.09215 53.00606
#
# Poissons Ratio (x) = 0.41832 0.17165
# Poissons Ratio (y) = 0.37104 0.24924
# Poissons Ratio (z) = 0.29324 0.48005
#
# Static dielectric constant tensor:
#      x y z
#    x 1.659410 0.000000 0.000000 
#    y 0.000000 1.631780 0.000000 
#    z 0.000000 0.000000 1.612790 
# 
# From -- ./inp_files/27337.got.cif
#   From: 2010.05.17/outbox.cif.g08.bks.cpg/sg52_14_cif.got.tgz:27337.got - 2010.06.03 12:15:38.
