data_PCOD9413268
_publ_section_title
;
Structure prediction by ZEFSAII (Michael W. Deem and Ramdas Pophale) SiO2 
 PCOD9413268
Probable space group: P N N A
;
_chemical_formula_sum "Si O2"
_cell_formula_units_Z 48
_cell_length_a 25.070674
_cell_length_b 9.752163
_cell_length_c 8.892560
_cell_angle_alpha 90.000000
_cell_angle_beta 90.000000
_cell_angle_gamma 90.000000
_cell_volume 2174.171334
_symmetry_space_group_name_H-M "P N N A"
_symmetry_group_IT_number 52
_symmetry_cell_setting 'orthorhombic'
loop_
_space_group_symop_operation_xyz
x,y,z
1/2-x,-y,z
x,1/2-y,1/2-z
1/2-x,1/2+y,1/2-z
-x,-y,-z
1/2+x,y,-z
-x,1/2+y,1/2+z
1/2+x,1/2-y,1/2+z
loop_
_atom_site_type_symbol
_atom_site_label
_atom_site_fract_x
_atom_site_fract_y
_atom_site_fract_z
Si Si1 0.532908 0.755285 0.068197
Si Si2 0.777545 0.143321 0.620920
Si Si3 0.879680 0.466272 0.058015
Si Si4 0.880129 0.031890 0.078772
Si Si5 0.090319 0.244656 0.069219
Si Si6 0.729930 0.844981 0.103495
O O1 0.532189 0.750000 0.250000
O O2 0.568739 0.626612 0.017072
O O3 0.566566 0.889774 0.028128
O O4 0.472013 0.759832 0.018921
O O5 0.793937 0.250000 0.750000
O O6 0.741532 0.245056 0.516687
O O7 0.750000 0.000000 0.671800
O O8 0.826552 0.094652 0.516486
O O9 0.877558 0.473456 0.239387
O O10 0.886628 0.616513 0.995013
O O11 0.828906 0.122225 0.039848
O O12 0.880366 0.885881 0.000570
O O13 0.092889 0.250000 0.250000
O O14 0.727487 0.750000 0.250000
O O15 0.750000 0.000000 0.133405
#
# Coordination Sequence:
#
# PCOD9413268 Si02
#       6
#     8   8   8   8   8   8
#     4   9  19  42  66  96 137 179 231 284 342 399
#     4  12  28  49  71 103 140 182 225 288 358 424
#     4  11  23  43  69  96 137 178 231 280 343 410
#     4  11  22  43  67  99 138 175 230 289 341 402
#     4  11  25  38  65 102 138 185 228 283 341 417
#     4  12  25  45  74 104 134 179 231 286 349 420
#
# _framework density 22.077376999999998
#
# number of rings (size 3 to 8) (size 9 to 14) (size 15 to 20)
#    0.000    1.000    3.333    3.000    4.667    0.667 
#    0.000    3.333    0.000    0.000    0.000    0.000 
#    0.000    0.000    0.000    0.000    0.000    0.000 
#
# Total GULP energy -268176.830128 kJ/mol
# GULP energy per Si atom -5587.017294 kJ/mol
# Density = 2.202713 g / cm^3
# Si number density = 22.077377 Si / 1000 Ang^3
#
#
#
# Elastic Constant Matrix: (Units=GPa)
#
#
# Indices 1 2 3 4 5 6 
#
# 1 62.9918 39.3942 23.5403 0.0000 0.0000 0.0000
# 2 39.3942 215.5338 62.6584 0.0000 0.0000 0.0000
# 3 23.5403 62.6584 84.0643 0.0000 0.0000 0.0000
# 4 0.0000 0.0000 0.0000 35.2651 0.0000 0.0000
# 5 0.0000 0.0000 0.0000 0.0000 -12.5684 0.0000
# 6 0.0000 0.0000 0.0000 0.0000 0.0000 34.3960
#
#
#
# Elastic Compliance Matrix: (Units=1/GPa)
#
#
# Indices 1 2 3 4 5 6 
#
# 1 0.018666 -0.002416 -0.003427 0.000000 0.000000 0.000000
# 2 -0.002416 0.006236 -0.003971 0.000000 0.000000 0.000000
# 3 -0.003427 -0.003971 0.015815 0.000000 0.000000 0.000000
# 4 0.000000 0.000000 0.000000 0.028357 0.000000 0.000000
# 5 0.000000 0.000000 0.000000 0.000000 -0.079565 0.000000
# 6 0.000000 0.000000 0.000000 0.000000 0.000000 0.029073
#
#
# Mechanical properties :
#
#
# Convention : Reuss Voigt Hill
#
# Bulk Modulus (GPa) = 47.41555 68.19731 57.80643
# Shear Modulus (GPa) = 110.52229 27.21834 68.87032
#
# Velocity S-wave (km/s) = 7.08308 3.51502 5.59131
# Velocity P-wave (km/s) = 9.40303 6.88702 8.24160
#
# Compressibility (1/GPa) = 0.02109013
#
# Stress axis : x y z
#
# Youngs Moduli (GPa) = 53.57256 160.36704 63.22972
#
# Poissons Ratio (x) = 0.38738 0.21666
# Poissons Ratio (y) = 0.12941 0.25111
# Poissons Ratio (z) = 0.18357 0.63689
#
# Static dielectric constant tensor:
#      x y z
#    x 1.844530 0.000000 0.000000 
#    y 0.000000 1.574270 0.000000 
#    z 0.000000 0.000000 1.907590 
# 
# From -- ./inp_files/15515.got.cif
#   From: 2010.05.17/outbox.cif.g08.bks.cpg/sg52_8_cif.got.tgz:15515.got - 2010.06.03 12:15:38.
