data_PCOD9413972
_publ_section_title
;
Structure prediction by ZEFSAII (Michael W. Deem and Ramdas Pophale) SiO2 
 PCOD9413972
Probable space group: P N N A
;
_chemical_formula_sum "Si O2"
_cell_formula_units_Z 56
_cell_length_a 9.000000
_cell_length_b 21.000000
_cell_length_c 15.000000
_cell_angle_alpha 90.000000
_cell_angle_beta 90.000000
_cell_angle_gamma 90.000000
_cell_volume 2835.000000
_symmetry_space_group_name_H-M "P N N A"
_symmetry_group_IT_number 52
_symmetry_cell_setting 'orthorhombic'
loop_
_space_group_symop_operation_xyz
x,y,z
1/2-x,-y,z
x,1/2-y,1/2-z
1/2-x,1/2+y,1/2-z
-x,-y,-z
1/2+x,y,-z
-x,1/2+y,1/2+z
1/2+x,1/2-y,1/2+z
loop_
_atom_site_type_symbol
_atom_site_label
_atom_site_fract_x
_atom_site_fract_y
_atom_site_fract_z
Si Si1 0.358704 0.380334 0.929909
Si Si2 0.380908 0.707522 0.608036
Si Si3 0.226585 0.823692 0.072137
Si Si4 0.218237 0.620668 0.242196
Si Si5 0.326623 0.936440 0.424802
Si Si6 0.619393 0.345520 0.196022
Si Si7 0.943497 0.776431 0.662433
O O1 0.498095 0.428385 0.938598
O O2 0.238644 0.391883 0.850952
O O3 0.446699 0.316331 0.900289
O O4 0.262492 0.381384 0.020476
O O5 0.274814 0.676598 0.532056
O O6 0.554258 0.696756 0.581336
O O7 0.344035 0.674524 0.702835
O O8 0.374720 0.783020 0.631692
O O9 0.231772 0.879268 0.149849
O O10 0.351570 0.774860 0.107709
O O11 0.293248 0.567583 0.180531
O O12 0.315418 0.680587 0.208028
O O13 0.048864 0.628836 0.207963
O O14 0.250000 0.000000 0.460132
O O15 0.027986 0.750000 0.750000
#
# Coordination Sequence:
#
# PCOD9413972 Si02
#       7
#     8   8   8   8   8   8   8
#     4  11  24  34  56  80 110 150 189 236 285 342
#     4  10  22  32  52  78 120 154 185 217 260 333
#     4  10  20  32  51  78 110 151 186 216 271 333
#     4   9  19  38  53  73 108 148 184 236 277 334
#     4  11  24  41  58  81 108 146 199 250 294 330
#     4  10  21  36  50  80 114 155 185 220 275 332
#     4   9  19  32  49  78 112 148 189 221 268 340
#
# _framework density 19.753086
#
# number of rings (size 3 to 8) (size 9 to 14) (size 15 to 20)
#    0.000    2.000    1.429    1.286   10.000    2.286 
#    0.000    0.000    0.000    0.000    0.000   10.000 
#    0.000    0.000    0.000    0.000    0.000    0.000 
#
# Total GULP energy -311909.413775 kJ/mol
# GULP energy per Si atom -5569.810960 kJ/mol
# Density = 1.970813 g / cm^3
# Si number density = 19.753086 Si / 1000 Ang^3
#
#
#
# Elastic Constant Matrix: (Units=GPa)
#
#
# Indices 1 2 3 4 5 6 
#
# 1 105.5427 -7.9269 37.6165 0.0000 0.0000 0.0000
# 2 -7.9269 6.6780 6.0747 0.0000 0.0000 0.0000
# 3 37.6165 6.0747 126.9224 0.0000 0.0000 0.0000
# 4 0.0000 0.0000 0.0000 10.5183 0.0000 0.0000
# 5 0.0000 0.0000 0.0000 0.0000 43.4726 0.0000
# 6 0.0000 0.0000 0.0000 0.0000 0.0000 -451.2268
#
#
#
# Elastic Compliance Matrix: (Units=1/GPa)
#
#
# Indices 1 2 3 4 5 6 
#
# 1 0.012566 0.019137 -0.004640 0.000000 0.000000 0.000000
# 2 0.019137 0.185705 -0.014560 0.000000 0.000000 0.000000
# 3 -0.004640 -0.014560 0.009951 0.000000 0.000000 0.000000
# 4 0.000000 0.000000 0.000000 0.095072 0.000000 0.000000
# 5 0.000000 0.000000 0.000000 0.000000 0.023003 0.000000
# 6 0.000000 0.000000 0.000000 0.000000 0.000000 -0.002216
#
#
# Mechanical properties :
#
#
# Convention : Reuss Voigt Hill
#
# Bulk Modulus (GPa) = 4.80548 34.51908 19.66228
# Shear Modulus (GPa) = 12.70414 -65.88859 -26.59223
#
# Velocity S-wave (km/s) = 2.53879 -5.78174 -3.67308
# Velocity P-wave (km/s) = 3.32144 5.20174 2.83074
#
# Compressibility (1/GPa) = 0.20809593
#
# Stress axis : x y z
#
# Youngs Moduli (GPa) = 79.58038 5.38488 100.49351
#
# Poissons Ratio (x) = -0.10305 0.46630
# Poissons Ratio (y) = -1.52291 1.46316
# Poissons Ratio (z) = 0.36926 0.07840
#
# Static dielectric constant tensor:
#      x y z
#    x 1.704710 0.000000 0.000000 
#    y 0.000000 1.783280 0.000000 
#    z 0.000000 0.000000 1.747240 
# 
# From -- ./inp_files/24946.got.cif
#   From: 2010.05.17/outbox.ucp.g08.bks.cvg/sg52_13_cif.got.tgz:24946.got - 2010.06.11 16:30:12.
