data_PCOD9413668
_publ_section_title
;
Structure prediction by ZEFSAII (Michael W. Deem and Ramdas Pophale) SiO2 
 PCOD9413668
Probable space group: P N N A
;
_chemical_formula_sum "Si O2"
_cell_formula_units_Z 28
_cell_length_a 8.173277
_cell_length_b 17.629693
_cell_length_c 7.374633
_cell_angle_alpha 90.000000
_cell_angle_beta 90.000000
_cell_angle_gamma 90.000000
_cell_volume 1062.628305
_symmetry_space_group_name_H-M "P N N A"
_symmetry_group_IT_number 52
_symmetry_cell_setting 'orthorhombic'
loop_
_space_group_symop_operation_xyz
x,y,z
1/2-x,-y,z
x,1/2-y,1/2-z
1/2-x,1/2+y,1/2-z
-x,-y,-z
1/2+x,y,-z
-x,1/2+y,1/2+z
1/2+x,1/2-y,1/2+z
loop_
_atom_site_type_symbol
_atom_site_label
_atom_site_fract_x
_atom_site_fract_y
_atom_site_fract_z
Si Si1 0.750000 0.500000 0.250414
Si Si2 0.928173 0.033000 0.688741
Si Si3 0.254997 0.663883 0.303104
Si Si4 0.643780 0.659520 0.284350
O O1 0.570493 0.488886 0.327372
O O2 0.729791 0.588843 0.176916
O O3 0.884543 0.120554 0.690513
O O4 0.750000 0.000000 0.729887
O O5 0.000000 0.000000 0.500000
O O6 0.235312 0.750000 0.250000
O O7 0.447366 0.647453 0.269110
O O8 0.208910 0.648006 0.511130
O O9 0.676297 0.750000 0.250000
#
# Coordination Sequence:
#
# PCOD9413668 Si02
#       4
#     4   8   8   8
#     4  12  26  46  80 110 160 204 264 328 402 476
#     4  12  26  45  74 115 153 204 260 318 394 473
#     4  11  27  47  78 111 160 206 266 331 406 473
#     4  11  27  49  77 116 159 209 272 337 402 480
#
# _framework density 26.34976
#
# number of rings (size 3 to 8) (size 9 to 14) (size 15 to 20)
#    0.000    0.571    4.286    1.714    6.000    6.857 
#    0.000    0.000    0.000    0.000    0.000    0.000 
#    0.000    0.000    0.000    0.000    0.000    0.000 
#
# Total GULP energy -156050.806040 kJ/mol
# GULP energy per Si atom -5573.243073 kJ/mol
# Density = 2.628979 g / cm^3
# Si number density = 26.349760 Si / 1000 Ang^3
#
#
#
# Elastic Constant Matrix: (Units=GPa)
#
#
# Indices 1 2 3 4 5 6 
#
# 1 226.4193 97.1446 24.0609 0.0000 0.0000 0.0000
# 2 97.1446 223.9882 17.2593 0.0000 0.0000 0.0000
# 3 24.0609 17.2593 107.4830 0.0000 0.0000 0.0000
# 4 0.0000 0.0000 0.0000 28.0939 0.0000 0.0000
# 5 0.0000 0.0000 0.0000 0.0000 36.0443 0.0000
# 6 0.0000 0.0000 0.0000 0.0000 0.0000 74.0400
#
#
#
# Elastic Compliance Matrix: (Units=1/GPa)
#
#
# Indices 1 2 3 4 5 6 
#
# 1 0.005504 -0.002321 -0.000859 0.000000 0.000000 0.000000
# 2 -0.002321 0.005499 -0.000364 0.000000 0.000000 0.000000
# 3 -0.000859 -0.000364 0.009555 0.000000 0.000000 0.000000
# 4 0.000000 0.000000 0.000000 0.035595 0.000000 0.000000
# 5 0.000000 0.000000 0.000000 0.000000 0.027744 0.000000
# 6 0.000000 0.000000 0.000000 0.000000 0.000000 0.013506
#
#
# Mechanical properties :
#
#
# Convention : Reuss Voigt Hill
#
# Bulk Modulus (GPa) = 74.23911 92.75779 83.49845
# Shear Modulus (GPa) = 45.88036 55.59736 50.73886
#
# Velocity S-wave (km/s) = 4.17730 4.59843 4.39292
# Velocity P-wave (km/s) = 7.17650 7.96700 7.58206
#
# Compressibility (1/GPa) = 0.01346999
#
# Stress axis : x y z
#
# Youngs Moduli (GPa) = 181.69908 181.85012 104.66224
#
# Poissons Ratio (x) = 0.42202 0.08994
# Poissons Ratio (y) = 0.42167 0.03805
# Poissons Ratio (z) = 0.15615 0.06610
#
# Static dielectric constant tensor:
#      x y z
#    x 2.062850 0.000000 0.000000 
#    y 0.000000 2.215510 0.000000 
#    z 0.000000 0.000000 2.371490 
# 
# From -- ./inp_files/7071.got.cif
#   From: 2010.05.17/outbox.cif.g08.bks.cpg/sg52_4_cif.got.tgz:7071.got - 2010.06.03 12:15:38.
