data_PCOD9413227
_publ_section_title
;
Structure prediction by ZEFSAII (Michael W. Deem and Ramdas Pophale) SiO2 
 PCOD9413227
Probable space group: P N N A
;
_chemical_formula_sum "Si O2"
_cell_formula_units_Z 64
_cell_length_a 13.670677
_cell_length_b 11.606229
_cell_length_c 20.134397
_cell_angle_alpha 90.000000
_cell_angle_beta 90.000000
_cell_angle_gamma 90.000000
_cell_volume 3194.624258
_symmetry_space_group_name_H-M "P N N A"
_symmetry_group_IT_number 52
_symmetry_cell_setting 'orthorhombic'
loop_
_space_group_symop_operation_xyz
x,y,z
1/2-x,-y,z
x,1/2-y,1/2-z
1/2-x,1/2+y,1/2-z
-x,-y,-z
1/2+x,y,-z
-x,1/2+y,1/2+z
1/2+x,1/2-y,1/2+z
loop_
_atom_site_type_symbol
_atom_site_label
_atom_site_fract_x
_atom_site_fract_y
_atom_site_fract_z
Si Si1 0.590377 0.600350 0.930876
Si Si2 0.080075 0.720176 0.676205
Si Si3 0.741491 0.217297 0.507146
Si Si4 0.947943 0.977070 0.107214
Si Si5 0.649892 0.546115 0.526793
Si Si6 0.472346 0.736295 0.823697
Si Si7 0.229311 0.364495 0.855833
Si Si8 0.959124 0.661555 0.940709
O O1 0.701709 0.624838 0.948633
O O2 0.551064 0.676500 0.870799
O O3 0.572619 0.466155 0.919497
O O4 0.526885 0.640019 0.995058
O O5 0.042345 0.750000 0.750000
O O6 0.074590 0.585547 0.655266
O O7 0.186760 0.780537 0.672329
O O8 0.017765 0.780504 0.618331
O O9 0.816796 0.324226 0.508029
O O10 0.724466 0.167595 0.433873
O O11 0.634549 0.237047 0.537920
O O12 0.938836 0.858035 0.145947
O O13 0.876628 0.986309 0.043406
O O14 0.057080 0.972087 0.074476
O O15 0.750000 0.500000 0.557906
O O16 0.511527 0.750000 0.750000
O O17 0.374757 0.659748 0.823020
O O18 0.250000 0.500000 0.849028
#
# Coordination Sequence:
#
# PCOD9413227 Si02
#       8
#     8   8   8   8   8   8   8   8
#     4  11  22  41  67  99 129 172 221 279 328 385
#     4  12  27  45  66  96 136 175 221 271 330 405
#     4  12  21  40  67 106 129 165 227 280 337 384
#     4  11  25  43  67  98 127 180 222 262 338 393
#     4  11  22  40  69  98 137 167 219 281 324 398
#     4  12  27  44  66  95 138 180 219 268 330 404
#     4  12  24  42  68 101 134 171 218 273 335 396
#     4  11  23  40  70  96 131 172 220 279 332 382
#
# _framework density 20.033656000000001
#
# number of rings (size 3 to 8) (size 9 to 14) (size 15 to 20)
#    0.000    0.500    5.000    3.750    5.250    0.000 
#    0.000    0.625    0.000    0.000    0.000    0.000 
#    0.000    0.000    0.000    0.000    0.000    0.000 
#
# Total GULP energy -357870.582875 kJ/mol
# GULP energy per Si atom -5591.727857 kJ/mol
# Density = 1.998806 g / cm^3
# Si number density = 20.033656 Si / 1000 Ang^3
#
#
#
# Elastic Constant Matrix: (Units=GPa)
#
#
# Indices 1 2 3 4 5 6 
#
# 1 70.1965 -10.3350 6.0706 0.0000 0.0000 0.0000
# 2 -10.3350 72.0944 20.6171 0.0000 0.0000 0.0000
# 3 6.0706 20.6171 102.7641 0.0000 0.0000 0.0000
# 4 0.0000 0.0000 0.0000 -1.1266 0.0000 0.0000
# 5 0.0000 0.0000 0.0000 0.0000 20.0444 0.0000
# 6 0.0000 0.0000 0.0000 0.0000 0.0000 30.9108
#
#
#
# Elastic Compliance Matrix: (Units=1/GPa)
#
#
# Indices 1 2 3 4 5 6 
#
# 1 0.014733 0.002505 -0.001373 0.000000 0.000000 0.000000
# 2 0.002505 0.015141 -0.003186 0.000000 0.000000 0.000000
# 3 -0.001373 -0.003186 0.010451 0.000000 0.000000 0.000000
# 4 0.000000 0.000000 0.000000 -0.887623 0.000000 0.000000
# 5 0.000000 0.000000 0.000000 0.000000 0.049889 0.000000
# 6 0.000000 0.000000 0.000000 0.000000 0.000000 0.032351
#
#
# Mechanical properties :
#
#
# Convention : Reuss Voigt Hill
#
# Bulk Modulus (GPa) = 27.61082 30.86226 29.23654
# Shear Modulus (GPa) = -6.67666 25.21255 9.26794
#
# Velocity S-wave (km/s) = -1.82756 3.55140 2.15319
# Velocity P-wave (km/s) = 3.05923 5.67937 4.56147
#
# Compressibility (1/GPa) = 0.03621768
#
# Stress axis : x y z
#
# Youngs Moduli (GPa) = 67.87385 66.04690 95.68250
#
# Poissons Ratio (x) = -0.16543 0.13136
# Poissons Ratio (y) = -0.17000 0.30480
# Poissons Ratio (z) = 0.09318 0.21040
#
# Static dielectric constant tensor:
#      x y z
#    x 1.705480 0.000000 0.000000 
#    y 0.000000 1.794370 0.000000 
#    z 0.000000 0.000000 1.677360 
# 
# From -- ./inp_files/33306.got.cif
#   From: 2010.05.17/outbox.cif.g08.bks.cpg/sg52_17_cif.got.tgz:33306.got - 2010.06.03 12:15:38.
