data_PCOD9413650
_publ_section_title
;
Structure prediction by ZEFSAII (Michael W. Deem and Ramdas Pophale) SiO2 
 PCOD9413650
Probable space group: P N N A
;
_chemical_formula_sum "Si O2"
_cell_formula_units_Z 40
_cell_length_a 8.641269
_cell_length_b 16.535980
_cell_length_c 12.484986
_cell_angle_alpha 90.000000
_cell_angle_beta 90.000000
_cell_angle_gamma 90.000000
_cell_volume 1784.002764
_symmetry_space_group_name_H-M "P N N A"
_symmetry_group_IT_number 52
_symmetry_cell_setting 'orthorhombic'
loop_
_space_group_symop_operation_xyz
x,y,z
1/2-x,-y,z
x,1/2-y,1/2-z
1/2-x,1/2+y,1/2-z
-x,-y,-z
1/2+x,y,-z
-x,1/2+y,1/2+z
1/2+x,1/2-y,1/2+z
loop_
_atom_site_type_symbol
_atom_site_label
_atom_site_fract_x
_atom_site_fract_y
_atom_site_fract_z
Si Si1 0.643913 0.836480 0.840240
Si Si2 0.376404 0.439606 0.549118
Si Si3 0.315441 0.409666 0.932760
Si Si4 0.493049 0.156652 0.369855
Si Si5 0.488705 0.841933 0.244499
O O1 0.523219 0.872329 0.753456
O O2 0.574310 0.748413 0.870163
O O3 0.804680 0.837346 0.774604
O O4 0.674774 0.885511 0.948151
O O5 0.250000 0.500000 0.595191
O O6 0.500000 0.500000 0.500000
O O7 0.441592 0.383740 0.640759
O O8 0.250000 0.500000 0.921587
O O9 0.451413 0.389116 0.848523
O O10 0.169472 0.351053 0.908524
O O11 0.387115 0.394417 0.049442
O O12 0.545862 0.750000 0.250000
#
# Coordination Sequence:
#
# PCOD9413650 Si02
#       5
#     8   8   8   8   8
#     4  11  26  47  74 106 147 193 249 306 365 447
#     4  12  27  45  74 109 149 191 243 313 376 438
#     4  12  28  47  76 107 151 195 246 310 375 451
#     4  11  26  47  73 107 145 195 251 300 373 442
#     4  12  26  48  73 104 150 196 250 304 375 442
#
# _framework density 22.421491
#
# number of rings (size 3 to 8) (size 9 to 14) (size 15 to 20)
#    0.000    0.400    4.000    3.600   11.200    0.800 
#    0.000    0.000    0.000    0.000    0.000    0.000 
#    0.000    0.000    0.000    0.000    0.000    0.000 
#
# Total GULP energy -223837.112914 kJ/mol
# GULP energy per Si atom -5595.927823 kJ/mol
# Density = 2.237046 g / cm^3
# Si number density = 22.421491 Si / 1000 Ang^3
#
#
#
# Elastic Constant Matrix: (Units=GPa)
#
#
# Indices 1 2 3 4 5 6 
#
# 1 93.6309 25.7007 -4.2613 0.0000 0.0000 0.0000
# 2 25.7007 96.7977 35.1591 0.0000 0.0000 0.0000
# 3 -4.2613 35.1591 91.1996 0.0000 0.0000 0.0000
# 4 0.0000 0.0000 0.0000 72.6512 0.0000 0.0000
# 5 0.0000 0.0000 0.0000 0.0000 59.8998 0.0000
# 6 0.0000 0.0000 0.0000 0.0000 0.0000 28.9906
#
#
#
# Elastic Compliance Matrix: (Units=1/GPa)
#
#
# Indices 1 2 3 4 5 6 
#
# 1 0.011841 -0.003890 0.002053 0.000000 0.000000 0.000000
# 2 -0.003890 0.013291 -0.005306 0.000000 0.000000 0.000000
# 3 0.002053 -0.005306 0.013106 0.000000 0.000000 0.000000
# 4 0.000000 0.000000 0.000000 0.013764 0.000000 0.000000
# 5 0.000000 0.000000 0.000000 0.000000 0.016695 0.000000
# 6 0.000000 0.000000 0.000000 0.000000 0.000000 0.034494
#
#
# Mechanical properties :
#
#
# Convention : Reuss Voigt Hill
#
# Bulk Modulus (GPa) = 41.74747 43.86947 42.80847
# Shear Modulus (GPa) = 39.85323 47.31028 43.58175
#
# Velocity S-wave (km/s) = 4.22056 4.59850 4.41358
# Velocity P-wave (km/s) = 6.51235 6.91399 6.71617
#
# Compressibility (1/GPa) = 0.02395355
#
# Stress axis : x y z
#
# Youngs Moduli (GPa) = 84.45000 75.24085 76.29941
#
# Poissons Ratio (x) = 0.29266 -0.15663
# Poissons Ratio (y) = 0.32848 0.40481
# Poissons Ratio (z) = -0.17336 0.39919
#
# Static dielectric constant tensor:
#      x y z
#    x 1.789180 0.000000 0.000000 
#    y 0.000000 1.727400 0.000000 
#    z 0.000000 0.000000 1.842700 
# 
# From -- ./inp_files/16630.got.cif
#   From: 2010.05.17/outbox.cif.g08.bks.cpg/sg52_9_cif.got.tgz:16630.got - 2010.06.03 12:15:38.
