data_PCOD9413482
_publ_section_title
;
Structure prediction by ZEFSAII (Michael W. Deem and Ramdas Pophale) SiO2 
 PCOD9413482
Probable space group: P N N A
;
_chemical_formula_sum "Si O2"
_cell_formula_units_Z 40
_cell_length_a 13.706241
_cell_length_b 8.370544
_cell_length_c 14.303062
_cell_angle_alpha 90.000000
_cell_angle_beta 90.000000
_cell_angle_gamma 90.000000
_cell_volume 1640.971614
_symmetry_space_group_name_H-M "P N N A"
_symmetry_group_IT_number 52
_symmetry_cell_setting 'orthorhombic'
loop_
_space_group_symop_operation_xyz
x,y,z
1/2-x,-y,z
x,1/2-y,1/2-z
1/2-x,1/2+y,1/2-z
-x,-y,-z
1/2+x,y,-z
-x,1/2+y,1/2+z
1/2+x,1/2-y,1/2+z
loop_
_atom_site_type_symbol
_atom_site_label
_atom_site_fract_x
_atom_site_fract_y
_atom_site_fract_z
Si Si1 0.447305 0.125925 0.835096
Si Si2 0.765357 0.189760 0.527561
Si Si3 0.481439 0.316142 0.027043
Si Si4 0.658797 0.107835 0.822398
Si Si5 0.163477 0.309105 0.645234
O O1 0.429850 0.250000 0.750000
O O2 0.551021 0.033606 0.818807
O O3 0.362747 0.996490 0.848968
O O4 0.473391 0.219743 0.929907
O O5 0.873506 0.213055 0.567612
O O6 0.690594 0.305216 0.581437
O O7 0.750309 0.243301 0.420409
O O8 0.750000 0.000000 0.534820
O O9 0.567492 0.265831 0.095493
O O10 0.500000 0.500000 0.000000
O O11 0.652222 0.250000 0.750000
O O12 0.750000 0.000000 0.796065
O O13 0.176148 0.250000 0.750000
#
# Coordination Sequence:
#
# PCOD9413482 Si02
#       5
#     8   8   8   8   8
#     4  11  25  45  72 104 144 193 248 309 376 455
#     4  12  26  45  73 108 148 189 250 311 378 453
#     4  12  24  46  75 102 147 194 245 310 379 454
#     4  11  24  43  72 107 146 188 247 312 380 453
#     4  12  27  48  74 108 152 201 253 309 385 457
#
# _framework density 24.375800999999999
#
# number of rings (size 3 to 8) (size 9 to 14) (size 15 to 20)
#    0.000    0.400    4.000    3.600    2.800    7.200 
#    0.000    0.000    0.000    0.000    0.000    0.000 
#    0.000    0.000    0.000    0.000    0.000    0.000 
#
# Total GULP energy -223954.983701 kJ/mol
# GULP energy per Si atom -5598.874593 kJ/mol
# Density = 2.432032 g / cm^3
# Si number density = 24.375801 Si / 1000 Ang^3
#
#
#
# Elastic Constant Matrix: (Units=GPa)
#
#
# Indices 1 2 3 4 5 6 
#
# 1 129.2643 11.6393 -18.3298 0.0000 0.0000 0.0000
# 2 11.6393 57.5304 -29.8647 0.0000 0.0000 0.0000
# 3 -18.3298 -29.8647 70.2185 0.0000 0.0000 0.0000
# 4 0.0000 0.0000 0.0000 37.3295 0.0000 0.0000
# 5 0.0000 0.0000 0.0000 0.0000 -15.9886 0.0000
# 6 0.0000 0.0000 0.0000 0.0000 0.0000 -26.3692
#
#
#
# Elastic Compliance Matrix: (Units=1/GPa)
#
#
# Indices 1 2 3 4 5 6 
#
# 1 0.008055 -0.000691 0.001809 0.000000 0.000000 0.000000
# 2 -0.000691 0.022366 0.009332 0.000000 0.000000 0.000000
# 3 0.001809 0.009332 0.018683 0.000000 0.000000 0.000000
# 4 0.000000 0.000000 0.000000 0.026788 0.000000 0.000000
# 5 0.000000 0.000000 0.000000 0.000000 -0.062545 0.000000
# 6 0.000000 0.000000 0.000000 0.000000 0.000000 -0.037923
#
#
# Mechanical properties :
#
#
# Convention : Reuss Voigt Hill
#
# Bulk Modulus (GPa) = 14.28465 20.43364 17.35915
# Shear Modulus (GPa) = -225.81600 18.56558 -103.62521
#
# Velocity S-wave (km/s) = -9.63538 2.76278 -6.52716
# Velocity P-wave (km/s) = 10.85884 4.31024 7.04756
#
# Compressibility (1/GPa) = 0.07000521
#
# Stress axis : x y z
#
# Youngs Moduli (GPa) = 124.14995 44.70996 53.52567
#
# Poissons Ratio (x) = 0.03088 -0.09682
# Poissons Ratio (y) = 0.08574 -0.49952
# Poissons Ratio (z) = -0.22457 -0.41725
#
# Static dielectric constant tensor:
#      x y z
#    x 2.074870 0.000000 0.000000 
#    y 0.000000 1.929060 0.000000 
#    z 0.000000 0.000000 1.933780 
# 
# From -- ./inp_files/26873.got.cif
#   From: 2010.05.17/outbox.cif.g08.bks.cpg/sg52_14_cif.got.tgz:26873.got - 2010.06.03 12:15:38.
