data_PCOD9413829
_publ_section_title
;
Structure prediction by ZEFSAII (Michael W. Deem and Ramdas Pophale) SiO2 
 PCOD9413829
Probable space group: P N N A
;
_chemical_formula_sum "Si O2"
_cell_formula_units_Z 28
_cell_length_a 5.122597
_cell_length_b 8.201098
_cell_length_c 27.078841
_cell_angle_alpha 90.000000
_cell_angle_beta 90.000000
_cell_angle_gamma 90.000000
_cell_volume 1137.607023
_symmetry_space_group_name_H-M "P N N A"
_symmetry_group_IT_number 52
_symmetry_cell_setting 'orthorhombic'
loop_
_space_group_symop_operation_xyz
x,y,z
1/2-x,-y,z
x,1/2-y,1/2-z
1/2-x,1/2+y,1/2-z
-x,-y,-z
1/2+x,y,-z
-x,1/2+y,1/2+z
1/2+x,1/2-y,1/2+z
loop_
_atom_site_type_symbol
_atom_site_label
_atom_site_fract_x
_atom_site_fract_y
_atom_site_fract_z
Si Si1 0.250000 0.500000 0.151430
Si Si2 0.609462 0.323873 0.699591
Si Si3 0.750000 0.000000 0.415664
Si Si4 0.250000 0.500000 0.624284
Si Si5 0.586702 0.179515 0.033157
O O1 0.212185 0.670976 0.181229
O O2 0.504562 0.540278 0.119098
O O3 0.750000 0.500000 0.708226
O O4 0.491378 0.250000 0.750000
O O5 0.396042 0.372067 0.658755
O O6 0.625817 0.135987 0.450338
O O7 0.442935 0.586981 0.585384
O O8 0.355961 0.149187 0.995594
#
# Coordination Sequence:
#
# PCOD9413829 Si02
#       5
#     4   8   4   4   8
#     4  12  26  51  80 117 163 212 268 329 414 480
#     4  12  28  51  82 117 159 215 275 340 416 490
#     4  12  24  48  78 110 162 210 261 337 396 480
#     4  12  28  49  78 107 165 210 265 340 410 478
#     4  12  26  46  76 116 156 210 269 325 402 486
#
# _framework density 24.61307
#
# number of rings (size 3 to 8) (size 9 to 14) (size 15 to 20)
#    0.000    0.000    4.286    5.143    4.000    2.286 
#    0.000    0.000    0.000    0.000    0.000    0.000 
#    0.000    0.000    0.000    0.000    0.000    0.000 
#
# Total GULP energy -156577.514796 kJ/mol
# GULP energy per Si atom -5592.054100 kJ/mol
# Density = 2.455705 g / cm^3
# Si number density = 24.613070 Si / 1000 Ang^3
#
#
#
# Elastic Constant Matrix: (Units=GPa)
#
#
# Indices 1 2 3 4 5 6 
#
# 1 104.8047 30.1329 53.9747 0.0000 0.0000 0.0000
# 2 30.1329 188.3999 68.3951 0.0000 0.0000 0.0000
# 3 53.9747 68.3951 170.9347 0.0000 0.0000 0.0000
# 4 0.0000 0.0000 0.0000 54.4979 0.0000 0.0000
# 5 0.0000 0.0000 0.0000 0.0000 31.9946 0.0000
# 6 0.0000 0.0000 0.0000 0.0000 0.0000 40.7463
#
#
#
# Elastic Compliance Matrix: (Units=1/GPa)
#
#
# Indices 1 2 3 4 5 6 
#
# 1 0.011454 -0.000607 -0.003374 0.000000 0.000000 0.000000
# 2 -0.000607 0.006242 -0.002306 0.000000 0.000000 0.000000
# 3 -0.003374 -0.002306 0.007838 0.000000 0.000000 0.000000
# 4 0.000000 0.000000 0.000000 0.018349 0.000000 0.000000
# 5 0.000000 0.000000 0.000000 0.000000 0.031255 0.000000
# 6 0.000000 0.000000 0.000000 0.000000 0.000000 0.024542
#
#
# Mechanical properties :
#
#
# Convention : Reuss Voigt Hill
#
# Bulk Modulus (GPa) = 77.15849 85.46053 81.30951
# Shear Modulus (GPa) = 42.89120 46.22353 44.55737
#
# Velocity S-wave (km/s) = 4.17900 4.33830 4.25939
# Velocity P-wave (km/s) = 7.39608 7.73896 7.56946
#
# Compressibility (1/GPa) = 0.01296034
#
# Stress axis : x y z
#
# Youngs Moduli (GPa) = 87.30900 160.20310 127.58177
#
# Poissons Ratio (x) = 0.09727 0.43042
# Poissons Ratio (y) = 0.05301 0.29419
# Poissons Ratio (z) = 0.29455 0.36941
#
# Static dielectric constant tensor:
#      x y z
#    x 1.901400 0.000000 0.000000 
#    y 0.000000 2.438400 0.000000 
#    z 0.000000 0.000000 1.907650 
# 
# From -- ./inp_files/38485.got.cif
#   From: 2010.05.17/outbox.cif.g08.bks.cpg/sg52_20_cif.got.tgz:38485.got - 2010.06.03 12:15:38.
