data_PCOD9413211
_publ_section_title
;
Structure prediction by ZEFSAII (Michael W. Deem and Ramdas Pophale) SiO2 
 PCOD9413211
Probable space group: P N N A
;
_chemical_formula_sum "Si O2"
_cell_formula_units_Z 60
_cell_length_a 25.674491
_cell_length_b 5.576572
_cell_length_c 19.433190
_cell_angle_alpha 90.000000
_cell_angle_beta 90.000000
_cell_angle_gamma 90.000000
_cell_volume 2782.359564
_symmetry_space_group_name_H-M "P N N A"
_symmetry_group_IT_number 52
_symmetry_cell_setting 'orthorhombic'
loop_
_space_group_symop_operation_xyz
x,y,z
1/2-x,-y,z
x,1/2-y,1/2-z
1/2-x,1/2+y,1/2-z
-x,-y,-z
1/2+x,y,-z
-x,1/2+y,1/2+z
1/2+x,1/2-y,1/2+z
loop_
_atom_site_type_symbol
_atom_site_label
_atom_site_fract_x
_atom_site_fract_y
_atom_site_fract_z
Si Si1 0.694570 0.550440 0.640831
Si Si2 0.034423 0.009420 0.345099
Si Si3 0.958366 0.316663 0.529466
Si Si4 0.383429 0.704887 0.434596
Si Si5 0.219314 0.751352 0.992833
Si Si6 0.613521 0.750000 0.750000
Si Si7 0.579217 0.991391 0.289387
Si Si8 0.383173 0.452826 0.939473
O O1 0.750000 0.500000 0.675054
O O2 0.668679 0.309791 0.609441
O O3 0.705833 0.714934 0.574056
O O4 0.651390 0.649679 0.691665
O O5 0.022072 0.798646 0.399994
O O6 0.074521 0.936337 0.285455
O O7 0.068430 0.184500 0.392746
O O8 0.980123 0.074156 0.311156
O O9 0.904396 0.441362 0.550472
O O10 0.938895 0.146157 0.468079
O O11 0.000000 0.500000 0.500000
O O12 0.373415 0.834745 0.506145
O O13 0.250000 0.500000 0.982902
O O14 0.165772 0.723783 0.950060
O O15 0.250000 0.000000 0.975313
O O16 0.598466 0.750000 0.250000
O O17 0.610264 0.022476 0.360755
O O18 0.579260 0.250000 0.250000
#
# Coordination Sequence:
#
# PCOD9413211 Si02
#       8
#     8   8   8   8   8   4   8   8
#     4  11  24  41  64  99 140 186 249 305 349 422
#     4  11  25  42  62  95 138 195 248 289 355 431
#     4  11  22  39  69 100 132 177 243 305 356 411
#     4  11  22  42  69  96 130 188 244 316 353 407
#     4  11  24  45  76 108 139 178 237 309 369 422
#     4  12  24  40  58  88 144 198 246 282 360 416
#     4  12  30  46  71 107 148 194 228 291 361 462
#     4  11  24  44  72 105 141 181 237 302 372 428
#
# _framework density 21.564432
#
# number of rings (size 3 to 8) (size 9 to 14) (size 15 to 20)
#    0.000    0.800    3.333    4.000    7.467    3.733 
#    0.000    0.000    0.000    1.600    0.000    0.000 
#    0.000    0.000    0.000    0.000    0.000    0.000 
#
# Total GULP energy -335186.613374 kJ/mol
# GULP energy per Si atom -5586.443556 kJ/mol
# Density = 2.151535 g / cm^3
# Si number density = 21.564432 Si / 1000 Ang^3
#
#
#
# Elastic Constant Matrix: (Units=GPa)
#
#
# Indices 1 2 3 4 5 6 
#
# 1 99.3820 17.9721 37.8317 0.0000 0.0000 0.0000
# 2 17.9721 68.3062 32.9478 0.0000 0.0000 0.0000
# 3 37.8317 32.9478 104.5398 0.0000 0.0000 0.0000
# 4 0.0000 0.0000 0.0000 17.1139 0.0000 0.0000
# 5 0.0000 0.0000 0.0000 0.0000 28.6780 0.0000
# 6 0.0000 0.0000 0.0000 0.0000 0.0000 36.7436
#
#
#
# Elastic Compliance Matrix: (Units=1/GPa)
#
#
# Indices 1 2 3 4 5 6 
#
# 1 0.011756 -0.001228 -0.003868 0.000000 0.000000 0.000000
# 2 -0.001228 0.017393 -0.005037 0.000000 0.000000 0.000000
# 3 -0.003868 -0.005037 0.012553 0.000000 0.000000 0.000000
# 4 0.000000 0.000000 0.000000 0.058432 0.000000 0.000000
# 5 0.000000 0.000000 0.000000 0.000000 0.034870 0.000000
# 6 0.000000 0.000000 0.000000 0.000000 0.000000 0.027216
#
#
# Mechanical properties :
#
#
# Convention : Reuss Voigt Hill
#
# Bulk Modulus (GPa) = 46.64854 49.97012 48.30933
# Shear Modulus (GPa) = 26.36703 28.73887 27.55295
#
# Velocity S-wave (km/s) = 3.50052 3.65457 3.57838
# Velocity P-wave (km/s) = 6.16582 6.40552 6.28681
#
# Compressibility (1/GPa) = 0.02143690
#
# Stress axis : x y z
#
# Youngs Moduli (GPa) = 85.05950 57.49507 79.66222
#
# Poissons Ratio (x) = 0.07059 0.30810
# Poissons Ratio (y) = 0.10443 0.40129
# Poissons Ratio (z) = 0.32898 0.28962
#
# Static dielectric constant tensor:
#      x y z
#    x 1.805440 0.000000 0.000000 
#    y 0.000000 1.911680 0.000000 
#    z 0.000000 0.000000 1.821050 
# 
# From -- ./inp_files/34484.got.cif
#   From: 2010.05.17/outbox.cif.g08.bks.cpg/sg52_18_cif.got.tgz:34484.got - 2010.06.03 12:15:38.
