data_PCOD9413678
_publ_section_title
;
Structure prediction by ZEFSAII (Michael W. Deem and Ramdas Pophale) SiO2 
 PCOD9413678
Probable space group: P N N A
;
_chemical_formula_sum "Si O2"
_cell_formula_units_Z 24
_cell_length_a 13.270033
_cell_length_b 5.086087
_cell_length_c 12.297555
_cell_angle_alpha 90.000000
_cell_angle_beta 90.000000
_cell_angle_gamma 90.000000
_cell_volume 829.993251
_symmetry_space_group_name_H-M "P N N A"
_symmetry_group_IT_number 52
_symmetry_cell_setting 'orthorhombic'
loop_
_space_group_symop_operation_xyz
x,y,z
1/2-x,-y,z
x,1/2-y,1/2-z
1/2-x,1/2+y,1/2-z
-x,-y,-z
1/2+x,y,-z
-x,1/2+y,1/2+z
1/2+x,1/2-y,1/2+z
loop_
_atom_site_type_symbol
_atom_site_label
_atom_site_fract_x
_atom_site_fract_y
_atom_site_fract_z
Si Si1 0.364388 0.391480 0.132597
Si Si2 0.445745 0.221542 0.588544
Si Si3 0.329152 0.685497 0.635792
O O1 0.250000 0.500000 0.113195
O O2 0.364293 0.250000 0.250000
O O3 0.443591 0.631749 0.122467
O O4 0.416770 0.211620 0.037358
O O5 0.416123 0.474465 0.657105
O O6 0.374609 0.959927 0.597875
O O7 0.250000 0.500000 0.571797
O O8 0.278834 0.750000 0.750000
#
# Coordination Sequence:
#
# PCOD9413678 Si02
#       3
#     8   8   8
#     4  11  27  49  79 117 158 207 265 326 396 471
#     4  11  27  50  77 110 158 207 260 324 394 469
#     4  12  24  44  75 112 154 205 263 322 388 467
#
# _framework density 28.915897999999999
#
# number of rings (size 3 to 8) (size 9 to 14) (size 15 to 20)
#    0.000    0.667    0.000    7.000    0.000   14.667 
#    0.000    0.000    0.000    0.000    0.000    0.000 
#    0.000    0.000    0.000    0.000    0.000    0.000 
#
# Total GULP energy -134175.896951 kJ/mol
# GULP energy per Si atom -5590.662373 kJ/mol
# Density = 2.885008 g / cm^3
# Si number density = 28.915898 Si / 1000 Ang^3
#
#
#
# Elastic Constant Matrix: (Units=GPa)
#
#
# Indices 1 2 3 4 5 6 
#
# 1 224.6352 47.9870 71.9668 0.0000 0.0000 0.0000
# 2 47.9870 177.1279 42.3510 0.0000 0.0000 0.0000
# 3 71.9668 42.3510 144.7518 0.0000 0.0000 0.0000
# 4 0.0000 0.0000 0.0000 50.7574 0.0000 0.0000
# 5 0.0000 0.0000 0.0000 0.0000 49.4014 0.0000
# 6 0.0000 0.0000 0.0000 0.0000 0.0000 64.9924
#
#
#
# Elastic Compliance Matrix: (Units=1/GPa)
#
#
# Indices 1 2 3 4 5 6 
#
# 1 0.005421 -0.000886 -0.002436 0.000000 0.000000 0.000000
# 2 -0.000886 0.006215 -0.001378 0.000000 0.000000 0.000000
# 3 -0.002436 -0.001378 0.008523 0.000000 0.000000 0.000000
# 4 0.000000 0.000000 0.000000 0.019702 0.000000 0.000000
# 5 0.000000 0.000000 0.000000 0.000000 0.020242 0.000000
# 6 0.000000 0.000000 0.000000 0.000000 0.000000 0.015386
#
#
# Mechanical properties :
#
#
# Convention : Reuss Voigt Hill
#
# Bulk Modulus (GPa) = 92.94594 96.79160 94.86877
# Shear Modulus (GPa) = 56.51238 58.64427 57.57832
#
# Velocity S-wave (km/s) = 4.42562 4.50833 4.46717
# Velocity P-wave (km/s) = 7.63729 7.78756 7.71279
#
# Compressibility (1/GPa) = 0.01075894
#
# Stress axis : x y z
#
# Youngs Moduli (GPa) = 184.45251 160.89652 117.33453
#
# Poissons Ratio (x) = 0.14260 0.28584
# Poissons Ratio (y) = 0.16348 0.16166
# Poissons Ratio (z) = 0.44934 0.22168
#
# Static dielectric constant tensor:
#      x y z
#    x 2.418340 0.000000 0.000000 
#    y 0.000000 2.269060 0.000000 
#    z 0.000000 0.000000 2.390800 
# 
# From -- ./inp_files/26542.got.cif
#   From: 2010.05.17/outbox.cif.g08.bks.cpg/sg52_14_cif.got.tgz:26542.got - 2010.06.03 12:15:38.
