data_PCOD9413908
_publ_section_title
;
Structure prediction by ZEFSAII (Michael W. Deem and Ramdas Pophale) SiO2 
 PCOD9413908
Probable space group: P N N A
;
_chemical_formula_sum "Si O2"
_cell_formula_units_Z 32
_cell_length_a 8.873703
_cell_length_b 10.681239
_cell_length_c 12.069344
_cell_angle_alpha 90.000000
_cell_angle_beta 90.000000
_cell_angle_gamma 90.000000
_cell_volume 1143.958284
_symmetry_space_group_name_H-M "P N N A"
_symmetry_group_IT_number 52
_symmetry_cell_setting 'orthorhombic'
loop_
_space_group_symop_operation_xyz
x,y,z
1/2-x,-y,z
x,1/2-y,1/2-z
1/2-x,1/2+y,1/2-z
-x,-y,-z
1/2+x,y,-z
-x,1/2+y,1/2+z
1/2+x,1/2-y,1/2+z
loop_
_atom_site_type_symbol
_atom_site_label
_atom_site_fract_x
_atom_site_fract_y
_atom_site_fract_z
Si Si1 0.057396 0.590731 0.310441
Si Si2 0.450576 0.425598 0.891483
Si Si3 0.658680 0.250000 0.750000
Si Si4 0.250000 0.000000 0.015891
Si Si5 0.209981 0.257625 0.623633
O O1 0.966132 0.708268 0.362278
O O2 0.101334 0.496328 0.407809
O O3 0.963725 0.520079 0.214689
O O4 0.219421 0.641023 0.273259
O O5 0.289027 0.365004 0.922164
O O6 0.500000 0.500000 0.000000
O O7 0.557874 0.190963 0.650245
O O8 0.265114 0.122136 0.941917
O O9 0.264607 0.250000 0.750000
#
# Coordination Sequence:
#
# PCOD9413908 Si02
#       5
#     8   8   4   4   8
#     4  12  28  58  85 129 180 245 314 379 479 569
#     4  12  30  57  88 135 185 247 318 396 477 570
#     4  12  26  58  86 124 190 238 308 394 472 566
#     4  12  28  54  92 124 178 256 300 382 490 558
#     4  12  28  53  85 130 182 232 319 387 466 571
#
# _framework density 27.973047999999999
#
# number of rings (size 3 to 8) (size 9 to 14) (size 15 to 20)
#    0.000    0.000    5.000    2.250    3.500    4.000 
#    9.000    1.250    0.000    0.000    0.000    0.000 
#    0.000    0.000    0.000    0.000    0.000    0.000 
#
# Total GULP energy -179200.594449 kJ/mol
# GULP energy per Si atom -5600.018577 kJ/mol
# Density = 2.790938 g / cm^3
# Si number density = 27.973048 Si / 1000 Ang^3
#
#
#
# Elastic Constant Matrix: (Units=GPa)
#
#
# Indices 1 2 3 4 5 6 
#
# 1 168.3483 71.7534 72.4743 0.0000 0.0000 0.0000
# 2 71.7534 213.7913 80.9003 0.0000 0.0000 0.0000
# 3 72.4743 80.9003 163.0768 0.0000 0.0000 0.0000
# 4 0.0000 0.0000 0.0000 70.3613 0.0000 0.0000
# 5 0.0000 0.0000 0.0000 0.0000 40.5249 0.0000
# 6 0.0000 0.0000 0.0000 0.0000 0.0000 76.5052
#
#
#
# Elastic Compliance Matrix: (Units=1/GPa)
#
#
# Indices 1 2 3 4 5 6 
#
# 1 0.007766 -0.001601 -0.002657 0.000000 0.000000 0.000000
# 2 -0.001601 0.006089 -0.002309 0.000000 0.000000 0.000000
# 3 -0.002657 -0.002309 0.008458 0.000000 0.000000 0.000000
# 4 0.000000 0.000000 0.000000 0.014212 0.000000 0.000000
# 5 0.000000 0.000000 0.000000 0.000000 0.024676 0.000000
# 6 0.000000 0.000000 0.000000 0.000000 0.000000 0.013071
#
#
# Mechanical properties :
#
#
# Convention : Reuss Voigt Hill
#
# Bulk Modulus (GPa) = 108.94533 110.60806 109.77669
# Shear Modulus (GPa) = 55.26876 58.81752 57.04314
#
# Velocity S-wave (km/s) = 4.44980 4.59044 4.52067
# Velocity P-wave (km/s) = 8.08901 8.22940 8.15951
#
# Compressibility (1/GPa) = 0.00917892
#
# Stress axis : x y z
#
# Youngs Moduli (GPa) = 128.75917 164.24361 118.22522
#
# Poissons Ratio (x) = 0.26296 0.31416
# Poissons Ratio (y) = 0.20615 0.27297
# Poissons Ratio (z) = 0.34215 0.37922
#
# Static dielectric constant tensor:
#      x y z
#    x 2.137390 0.000000 0.000000 
#    y 0.000000 2.342510 0.000000 
#    z 0.000000 0.000000 2.243940 
# 
# From -- ./inp_files/9870.got.cif
#   From: 2010.05.17/outbox.cif.g08.bks.cpg/sg52_5_cif.got.tgz:9870.got - 2010.06.03 12:15:38.
