data_PCOD9413481
_publ_section_title
;
Structure prediction by ZEFSAII (Michael W. Deem and Ramdas Pophale) SiO2 
 PCOD9413481
Probable space group: P N N A
;
_chemical_formula_sum "Si O2"
_cell_formula_units_Z 40
_cell_length_a 10.578966
_cell_length_b 8.639538
_cell_length_c 18.880412
_cell_angle_alpha 90.000000
_cell_angle_beta 90.000000
_cell_angle_gamma 90.000000
_cell_volume 1725.620167
_symmetry_space_group_name_H-M "P N N A"
_symmetry_group_IT_number 52
_symmetry_cell_setting 'orthorhombic'
loop_
_space_group_symop_operation_xyz
x,y,z
1/2-x,-y,z
x,1/2-y,1/2-z
1/2-x,1/2+y,1/2-z
-x,-y,-z
1/2+x,y,-z
-x,1/2+y,1/2+z
1/2+x,1/2-y,1/2+z
loop_
_atom_site_type_symbol
_atom_site_label
_atom_site_fract_x
_atom_site_fract_y
_atom_site_fract_z
Si Si1 0.989041 0.808767 0.917515
Si Si2 0.135056 0.623429 0.813995
Si Si3 0.248168 0.686687 0.328907
Si Si4 0.125042 0.107338 0.931773
Si Si5 0.016325 0.179621 0.673248
O O1 0.864667 0.762121 0.876081
O O2 0.104662 0.703848 0.889923
O O3 0.944303 0.827169 0.998413
O O4 0.033700 0.980437 0.896190
O O5 0.250000 0.500000 0.806783
O O6 0.136221 0.750000 0.750000
O O7 0.019041 0.501990 0.812096
O O8 0.250000 0.500000 0.329319
O O9 0.263157 0.750000 0.250000
O O10 0.117288 0.760495 0.356036
O O11 0.125722 0.249342 0.876963
O O12 0.250000 0.000000 0.947674
O O13 0.035269 0.250000 0.750000
#
# Coordination Sequence:
#
# PCOD9413481 Si02
#       5
#     8   8   8   8   8
#     4  11  25  43  74 108 154 200 251 306 382 457
#     4  12  27  48  75 111 151 201 256 323 380 451
#     4  11  24  43  71 112 149 195 245 307 377 447
#     4  11  24  46  76 110 150 203 254 312 380 461
#     4  11  25  44  75 110 146 194 253 312 380 454
#
# _framework density 23.180071000000002
#
# number of rings (size 3 to 8) (size 9 to 14) (size 15 to 20)
#    0.000    0.800    2.000    4.200   11.200    2.400 
#    0.000    1.000    0.000    0.000    0.000    0.000 
#    0.000    0.000    0.000    0.000    0.000    0.000 
#
# Total GULP energy -223182.680536 kJ/mol
# GULP energy per Si atom -5579.567013 kJ/mol
# Density = 2.312731 g / cm^3
# Si number density = 23.180071 Si / 1000 Ang^3
#
#
#
# Elastic Constant Matrix: (Units=GPa)
#
#
# Indices 1 2 3 4 5 6 
#
# 1 156.7659 60.6165 44.7345 0.0000 0.0000 0.0000
# 2 60.6165 151.9745 48.6211 0.0000 0.0000 0.0000
# 3 44.7345 48.6211 62.6284 0.0000 0.0000 0.0000
# 4 0.0000 0.0000 0.0000 34.8093 0.0000 0.0000
# 5 0.0000 0.0000 0.0000 0.0000 17.9135 0.0000
# 6 0.0000 0.0000 0.0000 0.0000 0.0000 39.6681
#
#
#
# Elastic Compliance Matrix: (Units=1/GPa)
#
#
# Indices 1 2 3 4 5 6 
#
# 1 0.008407 -0.001905 -0.004526 0.000000 0.000000 0.000000
# 2 -0.001905 0.009186 -0.005771 0.000000 0.000000 0.000000
# 3 -0.004526 -0.005771 0.023680 0.000000 0.000000 0.000000
# 4 0.000000 0.000000 0.000000 0.028728 0.000000 0.000000
# 5 0.000000 0.000000 0.000000 0.000000 0.055824 0.000000
# 6 0.000000 0.000000 0.000000 0.000000 0.000000 0.025209
#
#
# Mechanical properties :
#
#
# Convention : Reuss Voigt Hill
#
# Bulk Modulus (GPa) = 59.27854 75.47923 67.37889
# Shear Modulus (GPa) = 27.61494 32.97130 30.29312
#
# Velocity S-wave (km/s) = 3.45530 3.77556 3.61897
# Velocity P-wave (km/s) = 6.44572 7.18605 6.82593
#
# Compressibility (1/GPa) = 0.01686951
#
# Stress axis : x y z
#
# Youngs Moduli (GPa) = 118.94592 108.85869 42.22961
#
# Poissons Ratio (x) = 0.20741 0.19113
# Poissons Ratio (y) = 0.22663 0.24370
# Poissons Ratio (z) = 0.53834 0.62819
#
# Static dielectric constant tensor:
#      x y z
#    x 2.065850 0.000000 0.000000 
#    y 0.000000 1.954010 0.000000 
#    z 0.000000 0.000000 1.840040 
# 
# From -- ./inp_files/36642.got.cif
#   From: 2010.05.17/outbox.cif.g08.bks.cpg/sg52_19_cif.got.tgz:36642.got - 2010.06.03 12:15:38.
