data_PCOD9413751
_publ_section_title
;
Structure prediction by ZEFSAII (Michael W. Deem and Ramdas Pophale) SiO2 
 PCOD9413751
Probable space group: P N N A
;
_chemical_formula_sum "Si O2"
_cell_formula_units_Z 24
_cell_length_a 14.521171
_cell_length_b 5.002706
_cell_length_c 14.859816
_cell_angle_alpha 90.000000
_cell_angle_beta 90.000000
_cell_angle_gamma 90.000000
_cell_volume 1079.493552
_symmetry_space_group_name_H-M "P N N A"
_symmetry_group_IT_number 52
_symmetry_cell_setting 'orthorhombic'
loop_
_space_group_symop_operation_xyz
x,y,z
1/2-x,-y,z
x,1/2-y,1/2-z
1/2-x,1/2+y,1/2-z
-x,-y,-z
1/2+x,y,-z
-x,1/2+y,1/2+z
1/2+x,1/2-y,1/2+z
loop_
_atom_site_type_symbol
_atom_site_label
_atom_site_fract_x
_atom_site_fract_y
_atom_site_fract_z
Si Si1 0.054143 0.251183 0.545830
Si Si2 0.007862 0.250000 0.750000
Si Si3 0.750000 0.500000 0.507353
Si Si4 0.750000 0.500000 0.892770
Si Si5 0.114968 0.250000 0.250000
O O1 0.162477 0.333235 0.531588
O O2 0.000000 0.500000 0.500000
O O3 0.054217 0.193520 0.653818
O O4 0.000000 0.000000 0.500000
O O5 0.946540 0.502649 0.724164
O O6 0.702544 0.752617 0.557185
O O7 0.822462 0.651631 0.830786
#
# Coordination Sequence:
#
# PCOD9413751 Si02
#       5
#     8   4   4   4   4
#     4  12  26  46  72 101 140 187 235 294 357 424
#     4  12  25  44  67  98 138 182 232 284 350 426
#     4  12  25  44  67  98 140 184 238 288 352 430
#     4  12  23  38  65 100 136 178 228 298 364 422
#     4  12  23  38  65  98 134 172 226 294 362 418
#
# _framework density 22.232645000000002
#
# number of rings (size 3 to 8) (size 9 to 14) (size 15 to 20)
#    0.000    0.000    0.000   14.000    0.000    0.000 
#    0.000    6.667    0.000    0.000    0.000    0.000 
#    0.000    0.000    0.000    0.000    0.000    0.000 
#
# Total GULP energy -133696.856270 kJ/mol
# GULP energy per Si atom -5570.702345 kJ/mol
# Density = 2.218204 g / cm^3
# Si number density = 22.232645 Si / 1000 Ang^3
#
#
#
# Elastic Constant Matrix: (Units=GPa)
#
#
# Indices 1 2 3 4 5 6 
#
# 1 136.7610 58.5284 59.8834 0.0000 0.0000 0.0000
# 2 58.5284 206.9729 59.4852 0.0000 0.0000 0.0000
# 3 59.8834 59.4852 159.7375 0.0000 0.0000 0.0000
# 4 0.0000 0.0000 0.0000 27.6213 0.0000 0.0000
# 5 0.0000 0.0000 0.0000 0.0000 20.0281 0.0000
# 6 0.0000 0.0000 0.0000 0.0000 0.0000 26.2329
#
#
#
# Elastic Compliance Matrix: (Units=1/GPa)
#
#
# Indices 1 2 3 4 5 6 
#
# 1 0.009327 -0.001828 -0.002816 0.000000 0.000000 0.000000
# 2 -0.001828 0.005769 -0.001463 0.000000 0.000000 0.000000
# 3 -0.002816 -0.001463 0.007861 0.000000 0.000000 0.000000
# 4 0.000000 0.000000 0.000000 0.036204 0.000000 0.000000
# 5 0.000000 0.000000 0.000000 0.000000 0.049930 0.000000
# 6 0.000000 0.000000 0.000000 0.000000 0.000000 0.038120
#
#
# Mechanical properties :
#
#
# Convention : Reuss Voigt Hill
#
# Bulk Modulus (GPa) = 93.08485 95.47393 94.27939
# Shear Modulus (GPa) = 30.67364 36.48142 33.57753
#
# Velocity S-wave (km/s) = 3.71842 4.05519 3.89045
# Velocity P-wave (km/s) = 7.77142 8.05993 7.91699
#
# Compressibility (1/GPa) = 0.01074289
#
# Stress axis : x y z
#
# Youngs Moduli (GPa) = 107.21017 173.33938 127.21532
#
# Poissons Ratio (x) = 0.31693 0.35822
# Poissons Ratio (y) = 0.19602 0.18611
# Poissons Ratio (z) = 0.30189 0.25358
#
# Static dielectric constant tensor:
#      x y z
#    x 1.904420 0.000000 0.000000 
#    y 0.000000 1.820920 0.000000 
#    z 0.000000 0.000000 1.986830 
# 
# From -- ./inp_files/26519.got.cif
#   From: 2010.05.17/outbox.cif.g08.bks.cpg/sg52_14_cif.got.tgz:26519.got - 2010.06.03 12:15:38.
