data_PCOD9413245
_publ_section_title
;
Structure prediction by ZEFSAII (Michael W. Deem and Ramdas Pophale) SiO2 
 PCOD9413245
Probable space group: P N N A
;
_chemical_formula_sum "Si O2"
_cell_formula_units_Z 40
_cell_length_a 18.022605
_cell_length_b 9.423965
_cell_length_c 11.650535
_cell_angle_alpha 90.000000
_cell_angle_beta 90.000000
_cell_angle_gamma 90.000000
_cell_volume 1978.778112
_symmetry_space_group_name_H-M "P N N A"
_symmetry_group_IT_number 52
_symmetry_cell_setting 'orthorhombic'
loop_
_space_group_symop_operation_xyz
x,y,z
1/2-x,-y,z
x,1/2-y,1/2-z
1/2-x,1/2+y,1/2-z
-x,-y,-z
1/2+x,y,-z
-x,1/2+y,1/2+z
1/2+x,1/2-y,1/2+z
loop_
_atom_site_type_symbol
_atom_site_label
_atom_site_fract_x
_atom_site_fract_y
_atom_site_fract_z
Si Si1 0.250000 0.000000 0.987252
Si Si2 0.622611 0.250000 0.750000
Si Si3 0.023714 0.489817 0.365047
Si Si4 0.751061 0.706119 0.904893
Si Si5 0.637366 0.915038 0.211499
Si Si6 0.113664 0.750000 0.250000
Si Si7 0.750000 0.000000 0.390157
O O1 0.317253 0.050710 0.905161
O O2 0.232838 0.130173 0.069329
O O3 0.573311 0.352862 0.670024
O O4 0.679676 0.342016 0.827742
O O5 0.065151 0.629867 0.315098
O O6 0.000000 0.500000 0.500000
O O7 0.946155 0.464666 0.300965
O O8 0.672414 0.688045 0.842537
O O9 0.748873 0.632386 0.026547
O O10 0.641868 0.750000 0.250000
O O11 0.679216 0.002764 0.309139
#
# Coordination Sequence:
#
# PCOD9413245 Si02
#       7
#     4   4   8   8   8   4   4
#     4  11  22  41  72  94 132 181 216 277 346 382
#     4  11  24  42  68  97 130 182 228 267 342 412
#     4  12  26  45  69  96 141 185 219 281 345 396
#     4  11  22  43  67 100 133 170 227 280 329 402
#     4  11  23  43  65  99 136 170 230 278 325 409
#     4  11  26  44  68 101 138 174 230 277 330 410
#     4  11  24  39  70  94 130 171 218 285 336 384
#
# _framework density 20.214494999999999
#
# number of rings (size 3 to 8) (size 9 to 14) (size 15 to 20)
#    0.000    0.800    3.000    4.800    0.000    6.400 
#    0.000    3.000    0.000    0.000    0.000    0.000 
#    0.000    0.000    0.000    0.000    0.000    0.000 
#
# Total GULP energy -223430.561096 kJ/mol
# GULP energy per Si atom -5585.764027 kJ/mol
# Density = 2.016849 g / cm^3
# Si number density = 20.214495 Si / 1000 Ang^3
#
#
#
# Elastic Constant Matrix: (Units=GPa)
#
#
# Indices 1 2 3 4 5 6 
#
# 1 177.4383 42.4579 65.4802 0.0000 0.0000 0.0000
# 2 42.4579 107.7902 42.7029 0.0000 0.0000 0.0000
# 3 65.4802 42.7029 131.8560 0.0000 0.0000 0.0000
# 4 0.0000 0.0000 0.0000 84.8217 0.0000 0.0000
# 5 0.0000 0.0000 0.0000 0.0000 2.8695 0.0000
# 6 0.0000 0.0000 0.0000 0.0000 0.0000 11.3360
#
#
#
# Elastic Compliance Matrix: (Units=1/GPa)
#
#
# Indices 1 2 3 4 5 6 
#
# 1 0.007137 -0.001614 -0.003021 0.000000 0.000000 0.000000
# 2 -0.001614 0.011008 -0.002763 0.000000 0.000000 0.000000
# 3 -0.003021 -0.002763 0.009979 0.000000 0.000000 0.000000
# 4 0.000000 0.000000 0.000000 0.011789 0.000000 0.000000
# 5 0.000000 0.000000 0.000000 0.000000 0.348497 0.000000
# 6 0.000000 0.000000 0.000000 0.000000 0.000000 0.088215
#
#
# Mechanical properties :
#
#
# Convention : Reuss Voigt Hill
#
# Bulk Modulus (GPa) = 75.04028 79.81851 77.42940
# Shear Modulus (GPa) = 10.08337 37.56832 23.82584
#
# Velocity S-wave (km/s) = 2.23585 4.31569 3.43687
# Velocity P-wave (km/s) = 6.62329 8.02528 7.35775
#
# Compressibility (1/GPa) = 0.01332618
#
# Stress axis : x y z
#
# Youngs Moduli (GPa) = 140.11407 90.84402 100.20574
#
# Poissons Ratio (x) = 0.14664 0.30277
# Poissons Ratio (y) = 0.22618 0.27691
# Poissons Ratio (z) = 0.42335 0.25104
#
# Static dielectric constant tensor:
#      x y z
#    x 1.709490 0.000000 0.000000 
#    y 0.000000 1.436790 0.000000 
#    z 0.000000 0.000000 1.720780 
# 
# From -- ./inp_files/20423.got.cif
#   From: 2010.05.17/outbox.cif.g08.bks.cpg/sg52_11_cif.got.tgz:20423.got - 2010.06.03 12:15:38.
