data_PCOD9413535
_publ_section_title
;
Structure prediction by ZEFSAII (Michael W. Deem and Ramdas Pophale) SiO2 
 PCOD9413535
Probable space group: P N N A
;
_chemical_formula_sum "Si O2"
_cell_formula_units_Z 32
_cell_length_a 14.620561
_cell_length_b 13.719071
_cell_length_c 7.156460
_cell_angle_alpha 90.000000
_cell_angle_beta 90.000000
_cell_angle_gamma 90.000000
_cell_volume 1435.446428
_symmetry_space_group_name_H-M "P N N A"
_symmetry_group_IT_number 52
_symmetry_cell_setting 'orthorhombic'
loop_
_space_group_symop_operation_xyz
x,y,z
1/2-x,-y,z
x,1/2-y,1/2-z
1/2-x,1/2+y,1/2-z
-x,-y,-z
1/2+x,y,-z
-x,1/2+y,1/2+z
1/2+x,1/2-y,1/2+z
loop_
_atom_site_type_symbol
_atom_site_label
_atom_site_fract_x
_atom_site_fract_y
_atom_site_fract_z
Si Si1 0.631484 0.060391 0.610544
Si Si2 0.706547 0.717926 0.945820
Si Si3 0.429628 0.402567 0.813120
Si Si4 0.818266 0.072421 0.973329
O O1 0.712823 0.138568 0.579066
O O2 0.536981 0.112577 0.662344
O O3 0.604955 0.998432 0.426776
O O4 0.656052 0.981917 0.777148
O O5 0.658428 0.750000 0.750000
O O6 0.739114 0.826790 0.989053
O O7 0.632610 0.678999 0.089293
O O8 0.407249 0.412256 0.596039
O O9 0.750000 0.000000 0.075791
#
# Coordination Sequence:
#
# PCOD9413535 Si02
#       4
#     8   8   8   8
#     4  11  24  47  69 100 142 182 223 288 351 399
#     4  12  23  44  70  96 141 181 221 287 344 401
#     4  11  25  44  70 103 138 178 235 280 335 423
#     4  12  23  43  72  98 137 185 226 279 348 408
#
# _framework density 22.292715999999999
#
# number of rings (size 3 to 8) (size 9 to 14) (size 15 to 20)
#    0.000    0.500    5.000    3.750    0.000    2.000 
#    4.500    2.500    0.000    0.000    0.000    0.000 
#    0.000    0.000    0.000    0.000    0.000    0.000 
#
# Total GULP energy -178305.616933 kJ/mol
# GULP energy per Si atom -5572.050529 kJ/mol
# Density = 2.224198 g / cm^3
# Si number density = 22.292716 Si / 1000 Ang^3
#
#
#
# Elastic Constant Matrix: (Units=GPa)
#
#
# Indices 1 2 3 4 5 6 
#
# 1 151.4299 63.8994 44.8854 0.0000 0.0000 0.0000
# 2 63.8994 158.5881 28.7704 0.0000 0.0000 0.0000
# 3 44.8854 28.7704 80.4155 0.0000 0.0000 0.0000
# 4 0.0000 0.0000 0.0000 27.8444 0.0000 0.0000
# 5 0.0000 0.0000 0.0000 0.0000 31.4986 0.0000
# 6 0.0000 0.0000 0.0000 0.0000 0.0000 5.0596
#
#
#
# Elastic Compliance Matrix: (Units=1/GPa)
#
#
# Indices 1 2 3 4 5 6 
#
# 1 0.009014 -0.002908 -0.003991 0.000000 0.000000 0.000000
# 2 -0.002908 0.007681 -0.001125 0.000000 0.000000 0.000000
# 3 -0.003991 -0.001125 0.015065 0.000000 0.000000 0.000000
# 4 0.000000 0.000000 0.000000 0.035914 0.000000 0.000000
# 5 0.000000 0.000000 0.000000 0.000000 0.031747 0.000000
# 6 0.000000 0.000000 0.000000 0.000000 0.000000 0.197645
#
#
# Mechanical properties :
#
#
# Convention : Reuss Voigt Hill
#
# Bulk Modulus (GPa) = 63.64146 73.94931 68.79538
# Shear Modulus (GPa) = 15.70589 29.73907 22.72248
#
# Velocity S-wave (km/s) = 2.65718 3.65640 3.19608
# Velocity P-wave (km/s) = 6.16638 7.14630 6.67435
#
# Compressibility (1/GPa) = 0.01571303
#
# Stress axis : x y z
#
# Youngs Moduli (GPa) = 110.94258 130.18446 66.37685
#
# Poissons Ratio (x) = 0.37856 0.26490
# Poissons Ratio (y) = 0.32260 0.07468
# Poissons Ratio (z) = 0.44275 0.14647
#
# Static dielectric constant tensor:
#      x y z
#    x 1.789410 0.000000 0.000000 
#    y 0.000000 1.990970 0.000000 
#    z 0.000000 0.000000 2.048150 
# 
# From -- ./inp_files/9678.got.cif
#   From: 2010.05.17/outbox.cif.g08.bks.cpg/sg52_5_cif.got.tgz:9678.got - 2010.06.03 12:15:38.
