data_PCOD9413872
_publ_section_title
;
Structure prediction by ZEFSAII (Michael W. Deem and Ramdas Pophale) SiO2 
 PCOD9413872
Probable space group: P N N A
;
_chemical_formula_sum "Si O2"
_cell_formula_units_Z 48
_cell_length_a 13.892512
_cell_length_b 15.443643
_cell_length_c 9.457603
_cell_angle_alpha 90.000000
_cell_angle_beta 90.000000
_cell_angle_gamma 90.000000
_cell_volume 2029.138141
_symmetry_space_group_name_H-M "P N N A"
_symmetry_group_IT_number 52
_symmetry_cell_setting 'orthorhombic'
loop_
_space_group_symop_operation_xyz
x,y,z
1/2-x,-y,z
x,1/2-y,1/2-z
1/2-x,1/2+y,1/2-z
-x,-y,-z
1/2+x,y,-z
-x,1/2+y,1/2+z
1/2+x,1/2-y,1/2+z
loop_
_atom_site_type_symbol
_atom_site_label
_atom_site_fract_x
_atom_site_fract_y
_atom_site_fract_z
Si Si1 0.205254 0.591289 0.261793
Si Si2 0.685379 0.427438 0.308994
Si Si3 0.969966 0.665962 0.841492
Si Si4 0.804380 0.719091 0.527686
Si Si5 0.178534 0.638828 0.942975
Si Si6 0.482696 0.492849 0.331764
O O1 0.250000 0.500000 0.302294
O O2 0.262944 0.668053 0.337242
O O3 0.094537 0.582668 0.308020
O O4 0.205856 0.598790 0.093350
O O5 0.750000 0.500000 0.386710
O O6 0.658589 0.350451 0.415054
O O7 0.755566 0.399172 0.182034
O O8 0.584759 0.468321 0.262086
O O9 0.999232 0.750000 0.750000
O O10 0.064408 0.636029 0.924786
O O11 0.882950 0.707042 0.934065
O O12 0.947774 0.583277 0.740318
O O13 0.712251 0.762234 0.454978
O O14 0.500000 0.500000 0.500000
#
# Coordination Sequence:
#
# PCOD9413872 Si02
#       6
#     8   8   8   8   8   8
#     4  12  27  49  76 110 151 204 261 325 387 464
#     4  12  25  49  79 115 155 208 265 319 389 481
#     4  12  26  47  75 111 155 203 253 321 392 462
#     4  12  27  50  77 108 158 207 256 321 391 471
#     4  12  28  47  74 112 161 198 259 326 394 463
#     4  12  27  47  82 116 154 207 265 323 397 482
#
# _framework density 23.655363000000001
#
# number of rings (size 3 to 8) (size 9 to 14) (size 15 to 20)
#    0.000    0.000    1.667    9.000    7.000    0.667 
#    0.000    0.000    0.000    0.000    0.000    0.000 
#    0.000    0.000    0.000    0.000    0.000    0.000 
#
# Total GULP energy -268637.976159 kJ/mol
# GULP energy per Si atom -5596.624503 kJ/mol
# Density = 2.360152 g / cm^3
# Si number density = 23.655363 Si / 1000 Ang^3
#
#
#
# Elastic Constant Matrix: (Units=GPa)
#
#
# Indices 1 2 3 4 5 6 
#
# 1 177.0820 47.8239 50.2031 0.0000 0.0000 0.0000
# 2 47.8239 106.7127 35.5773 0.0000 0.0000 0.0000
# 3 50.2031 35.5773 129.6065 0.0000 0.0000 0.0000
# 4 0.0000 0.0000 0.0000 37.1866 0.0000 0.0000
# 5 0.0000 0.0000 0.0000 0.0000 1.0321 0.0000
# 6 0.0000 0.0000 0.0000 0.0000 0.0000 49.6646
#
#
#
# Elastic Compliance Matrix: (Units=1/GPa)
#
#
# Indices 1 2 3 4 5 6 
#
# 1 0.006864 -0.002410 -0.001997 0.000000 0.000000 0.000000
# 2 -0.002410 0.011161 -0.002130 0.000000 0.000000 0.000000
# 3 -0.001997 -0.002130 0.009074 0.000000 0.000000 0.000000
# 4 0.000000 0.000000 0.000000 0.026891 0.000000 0.000000
# 5 0.000000 0.000000 0.000000 0.000000 0.968917 0.000000
# 6 0.000000 0.000000 0.000000 0.000000 0.000000 0.020135
#
#
# Mechanical properties :
#
#
# Convention : Reuss Voigt Hill
#
# Bulk Modulus (GPa) = 71.30574 75.62331 73.46453
# Shear Modulus (GPa) = 4.71345 36.22978 20.47162
#
# Velocity S-wave (km/s) = 1.41311 3.91777 2.94498
# Velocity P-wave (km/s) = 5.73337 7.24592 6.53356
#
# Compressibility (1/GPa) = 0.01402412
#
# Stress axis : x y z
#
# Youngs Moduli (GPa) = 145.68149 89.59467 110.20472
#
# Poissons Ratio (x) = 0.21596 0.22010
# Poissons Ratio (y) = 0.35115 0.23475
# Poissons Ratio (z) = 0.29096 0.19085
#
# Static dielectric constant tensor:
#      x y z
#    x 1.929990 0.000000 0.000000 
#    y 0.000000 1.882560 0.000000 
#    z 0.000000 0.000000 1.919500 
# 
# From -- ./inp_files/10512.got.cif
#   From: 2010.05.17/outbox.cif.g08.bks.cpg/sg52_6_cif.got.tgz:10512.got - 2010.06.03 12:15:38.
