data_PCOD9413837
_publ_section_title
;
Structure prediction by ZEFSAII (Michael W. Deem and Ramdas Pophale) SiO2 
 PCOD9413837
Probable space group: P N N A
;
_chemical_formula_sum "Si O2"
_cell_formula_units_Z 20
_cell_length_a 14.168092
_cell_length_b 4.994248
_cell_length_c 10.759220
_cell_angle_alpha 90.000000
_cell_angle_beta 90.000000
_cell_angle_gamma 90.000000
_cell_volume 761.311273
_symmetry_space_group_name_H-M "P N N A"
_symmetry_group_IT_number 52
_symmetry_cell_setting 'orthorhombic'
loop_
_space_group_symop_operation_xyz
x,y,z
1/2-x,-y,z
x,1/2-y,1/2-z
1/2-x,1/2+y,1/2-z
-x,-y,-z
1/2+x,y,-z
-x,1/2+y,1/2+z
1/2+x,1/2-y,1/2+z
loop_
_atom_site_type_symbol
_atom_site_label
_atom_site_fract_x
_atom_site_fract_y
_atom_site_fract_z
Si Si1 0.750000 0.500000 0.953214
Si Si2 0.492583 0.750000 0.750000
Si Si3 0.645217 0.898993 0.127206
Si Si4 0.869223 0.750000 0.750000
O O1 0.801950 0.721315 0.869072
O O2 0.669348 0.671436 0.025863
O O3 0.425737 0.654626 0.632707
O O4 0.564913 0.506115 0.761455
O O5 0.611560 0.750000 0.250000
O O6 0.750000 0.000000 0.154570
#
# Coordination Sequence:
#
# PCOD9413837 Si02
#       4
#     4   4   8   4
#     4  12  30  54  86 118 176 238 270 340 438 514
#     4  12  27  53  82 130 164 212 294 351 407 492
#     4  12  24  52  86 121 161 224 288 345 417 489
#     4  12  31  53  80 126 174 220 276 343 433 504
#
# _framework density 26.270465000000002
#
# number of rings (size 3 to 8) (size 9 to 14) (size 15 to 20)
#    0.000    0.000    6.000    1.200    8.400    3.200 
#    0.000    0.000    0.000    0.000    0.000    0.000 
#    0.000    0.000    0.000    0.000    0.000    0.000 
#
# Total GULP energy -111625.888841 kJ/mol
# GULP energy per Si atom -5581.294442 kJ/mol
# Density = 2.621067 g / cm^3
# Si number density = 26.270465 Si / 1000 Ang^3
#
#
#
# Elastic Constant Matrix: (Units=GPa)
#
#
# Indices 1 2 3 4 5 6 
#
# 1 142.5727 88.3745 67.0018 0.0000 0.0000 0.0000
# 2 88.3745 226.6258 81.0881 0.0000 0.0000 0.0000
# 3 67.0018 81.0881 129.4044 0.0000 0.0000 0.0000
# 4 0.0000 0.0000 0.0000 27.2054 0.0000 0.0000
# 5 0.0000 0.0000 0.0000 0.0000 6.3887 0.0000
# 6 0.0000 0.0000 0.0000 0.0000 0.0000 43.9515
#
#
#
# Elastic Compliance Matrix: (Units=1/GPa)
#
#
# Indices 1 2 3 4 5 6 
#
# 1 0.010456 -0.002759 -0.003685 0.000000 0.000000 0.000000
# 2 -0.002759 0.006416 -0.002592 0.000000 0.000000 0.000000
# 3 -0.003685 -0.002592 0.011260 0.000000 0.000000 0.000000
# 4 0.000000 0.000000 0.000000 0.036757 0.000000 0.000000
# 5 0.000000 0.000000 0.000000 0.000000 0.156525 0.000000
# 6 0.000000 0.000000 0.000000 0.000000 0.000000 0.022752
#
#
# Mechanical properties :
#
#
# Convention : Reuss Voigt Hill
#
# Bulk Modulus (GPa) = 99.40257 107.94797 103.67527
# Shear Modulus (GPa) = 18.82595 32.98504 25.90550
#
# Velocity S-wave (km/s) = 2.67988 3.54728 3.14364
# Velocity P-wave (km/s) = 6.89173 7.61300 7.26133
#
# Compressibility (1/GPa) = 0.01006010
#
# Stress axis : x y z
#
# Youngs Moduli (GPa) = 95.64107 155.86626 88.81165
#
# Poissons Ratio (x) = 0.43001 0.32727
# Poissons Ratio (y) = 0.26386 0.23019
# Poissons Ratio (z) = 0.35243 0.40398
#
# Static dielectric constant tensor:
#      x y z
#    x 2.007180 0.000000 0.000000 
#    y 0.000000 2.770920 0.000000 
#    z 0.000000 0.000000 2.142130 
# 
# From -- ./inp_files/18639.got.cif
#   From: 2010.05.17/outbox.cif.g08.bks.cpg/sg52_10_cif.got.tgz:18639.got - 2010.06.03 12:15:38.
