data_PCOD9413102
_publ_section_title
;
Structure prediction by ZEFSAII (Michael W. Deem and Ramdas Pophale) SiO2 
 PCOD9413102
Probable space group: P N N A
;
_chemical_formula_sum "Si O2"
_cell_formula_units_Z 64
_cell_length_a 10.756481
_cell_length_b 15.434757
_cell_length_c 18.163877
_cell_angle_alpha 90.000000
_cell_angle_beta 90.000000
_cell_angle_gamma 90.000000
_cell_volume 3015.633528
_symmetry_space_group_name_H-M "P N N A"
_symmetry_group_IT_number 52
_symmetry_cell_setting 'orthorhombic'
loop_
_space_group_symop_operation_xyz
x,y,z
1/2-x,-y,z
x,1/2-y,1/2-z
1/2-x,1/2+y,1/2-z
-x,-y,-z
1/2+x,y,-z
-x,1/2+y,1/2+z
1/2+x,1/2-y,1/2+z
loop_
_atom_site_type_symbol
_atom_site_label
_atom_site_fract_x
_atom_site_fract_y
_atom_site_fract_z
Si Si1 0.621580 0.448461 0.474469
Si Si2 0.328775 0.918912 0.675051
Si Si3 0.268534 0.780003 0.032384
Si Si4 0.068102 0.560905 0.084938
Si Si5 0.552288 0.372072 0.939792
Si Si6 0.365025 0.843741 0.829169
Si Si7 0.843589 0.231517 0.383295
Si Si8 0.390898 0.264563 0.164516
O O1 0.750000 0.500000 0.486385
O O2 0.500000 0.500000 0.500000
O O3 0.638674 0.358957 0.518614
O O4 0.617572 0.418767 0.389184
O O5 0.430588 0.951613 0.618463
O O6 0.388417 0.875972 0.747147
O O7 0.242860 0.850702 0.633527
O O8 0.250000 0.000000 0.702037
O O9 0.344904 0.691292 0.028151
O O10 0.197333 0.787850 0.109039
O O11 0.173281 0.773624 0.964127
O O12 0.122782 0.636561 0.136230
O O13 0.115645 0.462429 0.084044
O O14 0.046615 0.599625 0.003188
O O15 0.479852 0.311598 0.880569
O O16 0.224768 0.804622 0.833263
O O17 0.468338 0.770750 0.847974
O O18 0.360813 0.250000 0.250000
#
# Coordination Sequence:
#
# PCOD9413102 Si02
#       8
#     8   8   8   8   8   8   8   8
#     4  11  25  45  71 101 132 175 233 297 344 409
#     4  12  21  38  59 100 130 168 217 274 332 400
#     4  11  25  41  67  94 130 171 224 271 339 409
#     4  11  21  37  63  96 134 170 215 269 330 406
#     4  11  23  39  62  99 132 168 213 279 333 400
#     4  11  23  39  67  93 130 172 222 274 341 399
#     4  11  21  36  64  91 126 167 215 267 330 392
#     4  12  22  42  67  92 132 186 225 268 332 421
#
# _framework density 21.222738
#
# number of rings (size 3 to 8) (size 9 to 14) (size 15 to 20)
#    0.000    0.750    6.250    2.250    3.500    0.500 
#    0.000    2.500    2.750    0.000    0.000    0.000 
#    0.000    0.000    0.000    0.000    0.000    0.000 
#
# Total GULP energy -357352.767098 kJ/mol
# GULP energy per Si atom -5583.636986 kJ/mol
# Density = 2.117443 g / cm^3
# Si number density = 21.222738 Si / 1000 Ang^3
#
#
#
# Elastic Constant Matrix: (Units=GPa)
#
#
# Indices 1 2 3 4 5 6 
#
# 1 55.6979 29.4472 17.9868 0.0000 0.0000 0.0000
# 2 29.4472 110.5461 26.0041 0.0000 0.0000 0.0000
# 3 17.9868 26.0041 95.3999 0.0000 0.0000 0.0000
# 4 0.0000 0.0000 0.0000 33.3476 0.0000 0.0000
# 5 0.0000 0.0000 0.0000 0.0000 24.0260 0.0000
# 6 0.0000 0.0000 0.0000 0.0000 0.0000 36.7359
#
#
#
# Elastic Compliance Matrix: (Units=1/GPa)
#
#
# Indices 1 2 3 4 5 6 
#
# 1 0.021513 -0.005104 -0.002665 0.000000 0.000000 0.000000
# 2 -0.005104 0.010877 -0.002002 0.000000 0.000000 0.000000
# 3 -0.002665 -0.002002 0.011530 0.000000 0.000000 0.000000
# 4 0.000000 0.000000 0.000000 0.029987 0.000000 0.000000
# 5 0.000000 0.000000 0.000000 0.000000 0.041622 0.000000
# 6 0.000000 0.000000 0.000000 0.000000 0.000000 0.027221
#
#
# Mechanical properties :
#
#
# Convention : Reuss Voigt Hill
#
# Bulk Modulus (GPa) = 41.02098 45.39112 43.20605
# Shear Modulus (GPa) = 29.33960 31.36894 30.35427
#
# Velocity S-wave (km/s) = 3.72218 3.84875 3.78600
# Velocity P-wave (km/s) = 6.15171 6.41755 6.28604
#
# Compressibility (1/GPa) = 0.02437777
#
# Stress axis : x y z
#
# Youngs Moduli (GPa) = 46.48376 91.94070 86.72680
#
# Poissons Ratio (x) = 0.46924 0.23112
# Poissons Ratio (y) = 0.23724 0.17367
# Poissons Ratio (z) = 0.12387 0.18411
#
# Static dielectric constant tensor:
#      x y z
#    x 1.803570 0.000000 0.000000 
#    y 0.000000 1.814850 0.000000 
#    z 0.000000 0.000000 1.756220 
# 
# From -- ./inp_files/32399.got.cif
#   From: 2010.05.17/outbox.cif.g08.bks.cpg/sg52_17_cif.got.tgz:32399.got - 2010.06.03 12:15:38.
