data_PCOD9413286
_publ_section_title
;
Structure prediction by ZEFSAII (Michael W. Deem and Ramdas Pophale) SiO2 
 PCOD9413286
Probable space group: P N N A
;
_chemical_formula_sum "Si O2"
_cell_formula_units_Z 44
_cell_length_a 13.386216
_cell_length_b 16.089200
_cell_length_c 8.755208
_cell_angle_alpha 90.000000
_cell_angle_beta 90.000000
_cell_angle_gamma 90.000000
_cell_volume 1885.639847
_symmetry_space_group_name_H-M "P N N A"
_symmetry_group_IT_number 52
_symmetry_cell_setting 'orthorhombic'
loop_
_space_group_symop_operation_xyz
x,y,z
1/2-x,-y,z
x,1/2-y,1/2-z
1/2-x,1/2+y,1/2-z
-x,-y,-z
1/2+x,y,-z
-x,1/2+y,1/2+z
1/2+x,1/2-y,1/2+z
loop_
_atom_site_type_symbol
_atom_site_label
_atom_site_fract_x
_atom_site_fract_y
_atom_site_fract_z
Si Si1 0.325352 0.607401 0.445731
Si Si2 0.851508 0.967569 0.625930
Si Si3 0.005100 0.250000 0.750000
Si Si4 0.626024 0.948356 0.108738
Si Si5 0.955560 0.927651 0.336678
Si Si6 0.499170 0.714068 0.419704
O O1 0.310669 0.585880 0.267857
O O2 0.387889 0.525910 0.496351
O O3 0.229407 0.595046 0.554633
O O4 0.381953 0.694781 0.449627
O O5 0.918568 0.914962 0.509255
O O6 0.750000 0.000000 0.551137
O O7 0.929636 0.041005 0.670649
O O8 0.057552 0.159519 0.749074
O O9 0.956916 0.247740 0.578169
O O10 0.547589 0.876132 0.095759
O O11 0.610126 0.996483 0.268417
O O12 0.513538 0.750000 0.250000
#
# Coordination Sequence:
#
# PCOD9413286 Si02
#       6
#     8   8   4   8   8   8
#     4  11  22  44  74 103 134 196 248 301 357 454
#     4  11  23  41  76 104 134 187 255 302 360 445
#     4  12  26  42  70 106 142 190 238 304 376 430
#     4  11  23  46  75 100 139 199 246 296 372 452
#     4  11  25  45  72 104 146 189 246 310 369 446
#     4  12  26  48  71 105 152 194 238 309 384 438
#
# _framework density 23.334253
#
# number of rings (size 3 to 8) (size 9 to 14) (size 15 to 20)
#    0.000    0.727    5.455    2.727    5.091    0.000 
#    3.273    1.818    4.000    0.000    0.000    0.000 
#    0.000    0.000    0.000    0.000    0.000    0.000 
#
# Total GULP energy -245057.084746 kJ/mol
# GULP energy per Si atom -5569.479199 kJ/mol
# Density = 2.328114 g / cm^3
# Si number density = 23.334253 Si / 1000 Ang^3
#
#
#
# Elastic Constant Matrix: (Units=GPa)
#
#
# Indices 1 2 3 4 5 6 
#
# 1 105.9655 17.1106 23.2682 0.0000 0.0000 0.0000
# 2 17.1106 56.7197 23.0722 0.0000 0.0000 0.0000
# 3 23.2682 23.0722 130.8796 0.0000 0.0000 0.0000
# 4 0.0000 0.0000 0.0000 22.5465 0.0000 0.0000
# 5 0.0000 0.0000 0.0000 0.0000 24.0923 0.0000
# 6 0.0000 0.0000 0.0000 0.0000 0.0000 16.9147
#
#
#
# Elastic Compliance Matrix: (Units=1/GPa)
#
#
# Indices 1 2 3 4 5 6 
#
# 1 0.010140 -0.002505 -0.001361 0.000000 0.000000 0.000000
# 2 -0.002505 0.019611 -0.003012 0.000000 0.000000 0.000000
# 3 -0.001361 -0.003012 0.008414 0.000000 0.000000 0.000000
# 4 0.000000 0.000000 0.000000 0.044353 0.000000 0.000000
# 5 0.000000 0.000000 0.000000 0.000000 0.041507 0.000000
# 6 0.000000 0.000000 0.000000 0.000000 0.000000 0.059120
#
#
# Mechanical properties :
#
#
# Convention : Reuss Voigt Hill
#
# Bulk Modulus (GPa) = 40.96882 46.71853 43.84368
# Shear Modulus (GPa) = 24.38568 28.05162 26.21865
#
# Velocity S-wave (km/s) = 3.23624 3.47099 3.35567
# Velocity P-wave (km/s) = 5.61782 6.01070 5.81758
#
# Compressibility (1/GPa) = 0.02440880
#
# Stress axis : x y z
#
# Youngs Moduli (GPa) = 98.61476 50.99055 118.85609
#
# Poissons Ratio (x) = 0.12775 0.16178
# Poissons Ratio (y) = 0.24707 0.35797
# Poissons Ratio (z) = 0.13423 0.15357
#
# Static dielectric constant tensor:
#      x y z
#    x 1.989100 0.000000 0.000000 
#    y 0.000000 1.883250 0.000000 
#    z 0.000000 0.000000 2.022820 
# 
# From -- ./inp_files/10360.got.cif
#   From: 2010.05.17/outbox.cif.g08.bks.cpg/sg52_6_cif.got.tgz:10360.got - 2010.06.03 12:15:38.
