data_PCOD9413803
_publ_section_title
;
Structure prediction by ZEFSAII (Michael W. Deem and Ramdas Pophale) SiO2 
 PCOD9413803
Probable space group: P N N A
;
_chemical_formula_sum "Si O2"
_cell_formula_units_Z 32
_cell_length_a 9.122126
_cell_length_b 14.088131
_cell_length_c 9.837168
_cell_angle_alpha 90.000000
_cell_angle_beta 90.000000
_cell_angle_gamma 90.000000
_cell_volume 1264.210917
_symmetry_space_group_name_H-M "P N N A"
_symmetry_group_IT_number 52
_symmetry_cell_setting 'orthorhombic'
loop_
_space_group_symop_operation_xyz
x,y,z
1/2-x,-y,z
x,1/2-y,1/2-z
1/2-x,1/2+y,1/2-z
-x,-y,-z
1/2+x,y,-z
-x,1/2+y,1/2+z
1/2+x,1/2-y,1/2+z
loop_
_atom_site_type_symbol
_atom_site_label
_atom_site_fract_x
_atom_site_fract_y
_atom_site_fract_z
Si Si1 0.556295 0.084864 0.224587
Si Si2 0.842593 0.176900 0.361854
Si Si3 0.250000 0.500000 0.514330
Si Si4 0.699561 0.695274 0.618183
Si Si5 0.000000 0.000000 0.500000
O O1 0.703110 0.123643 0.296263
O O2 0.611104 0.006432 0.116850
O O3 0.469913 0.167678 0.148498
O O4 0.460387 0.047882 0.349942
O O5 0.902418 0.250000 0.250000
O O6 0.788043 0.238682 0.488279
O O7 0.947148 0.096416 0.420683
O O8 0.238237 0.407128 0.422435
O O9 0.756177 0.750000 0.750000
#
# Coordination Sequence:
#
# PCOD9413803 Si02
#       5
#     8   8   4   8   4
#     4  12  25  50  76 112 163 204 270 336 401 483
#     4  12  25  48  79 115 158 217 262 339 410 478
#     4  12  26  48  80 114 160 208 262 332 408 478
#     4  12  27  46  78 116 160 205 267 328 401 483
#     4  12  24  44  84 108 154 220 272 324 416 490
#
# _framework density 25.312232999999999
#
# number of rings (size 3 to 8) (size 9 to 14) (size 15 to 20)
#    0.000    0.000    7.500    1.500    0.000    2.000 
#    0.000    2.500    0.000    0.000    0.000    0.000 
#    0.000    0.000    0.000    0.000    0.000    0.000 
#
# Total GULP energy -178252.213061 kJ/mol
# GULP energy per Si atom -5570.381658 kJ/mol
# Density = 2.525462 g / cm^3
# Si number density = 25.312233 Si / 1000 Ang^3
#
#
#
# Elastic Constant Matrix: (Units=GPa)
#
#
# Indices 1 2 3 4 5 6 
#
# 1 22.3168 5.2849 32.2776 0.0000 0.0000 0.0000
# 2 5.2849 105.9347 67.1383 0.0000 0.0000 0.0000
# 3 32.2776 67.1383 199.4429 0.0000 0.0000 0.0000
# 4 0.0000 0.0000 0.0000 50.3430 0.0000 0.0000
# 5 0.0000 0.0000 0.0000 0.0000 474.5060 0.0000
# 6 0.0000 0.0000 0.0000 0.0000 0.0000 -143.1011
#
#
#
# Elastic Compliance Matrix: (Units=1/GPa)
#
#
# Indices 1 2 3 4 5 6 
#
# 1 0.059811 0.004005 -0.011028 0.000000 0.000000 0.000000
# 2 0.004005 0.012268 -0.004778 0.000000 0.000000 0.000000
# 3 -0.011028 -0.004778 0.008407 0.000000 0.000000 0.000000
# 4 0.000000 0.000000 0.000000 0.019864 0.000000 0.000000
# 5 0.000000 0.000000 0.000000 0.000000 0.002107 0.000000
# 6 0.000000 0.000000 0.000000 0.000000 0.000000 -0.006988
#
#
# Mechanical properties :
#
#
# Convention : Reuss Voigt Hill
#
# Bulk Modulus (GPa) = 17.57941 59.67734 38.62837
# Shear Modulus (GPa) = 36.22342 91.21583 63.71963
#
# Velocity S-wave (km/s) = 3.78704 6.00953 5.02276
# Velocity P-wave (km/s) = 5.10709 8.47233 6.99509
#
# Compressibility (1/GPa) = 0.05688474
#
# Stress axis : x y z
#
# Youngs Moduli (GPa) = 16.71937 81.51204 118.94641
#
# Poissons Ratio (x) = -0.32648 1.31174
# Poissons Ratio (y) = -0.06697 0.56833
# Poissons Ratio (z) = 0.18438 0.38947
#
# Static dielectric constant tensor:
#      x y z
#    x 2.066950 0.000000 0.000000 
#    y 0.000000 2.073570 0.000000 
#    z 0.000000 0.000000 1.965370 
# 
# From -- ./inp_files/8363.got.cif
#   From: 2010.05.17/outbox.cif.g08.bks.cpg/sg52_5_cif.got.tgz:8363.got - 2010.06.03 12:15:38.
