data_PCOD9413210
_publ_section_title
;
Structure prediction by ZEFSAII (Michael W. Deem and Ramdas Pophale) SiO2 
 PCOD9413210
Probable space group: P N N A
;
_chemical_formula_sum "Si O2"
_cell_formula_units_Z 24
_cell_length_a 17.468122
_cell_length_b 11.184699
_cell_length_c 4.724069
_cell_angle_alpha 90.000000
_cell_angle_beta 90.000000
_cell_angle_gamma 90.000000
_cell_volume 922.968225
_symmetry_space_group_name_H-M "P N N A"
_symmetry_group_IT_number 52
_symmetry_cell_setting 'orthorhombic'
loop_
_space_group_symop_operation_xyz
x,y,z
1/2-x,-y,z
x,1/2-y,1/2-z
1/2-x,1/2+y,1/2-z
-x,-y,-z
1/2+x,y,-z
-x,1/2+y,1/2+z
1/2+x,1/2-y,1/2+z
loop_
_atom_site_type_symbol
_atom_site_label
_atom_site_fract_x
_atom_site_fract_y
_atom_site_fract_z
Si Si1 0.399353 0.943488 0.709759
Si Si2 0.303478 0.885596 0.199679
Si Si3 0.547915 0.827799 0.992025
O O1 0.379407 0.919438 0.385621
O O2 0.479624 0.888025 0.811224
O O3 0.329684 0.884588 0.875838
O O4 0.401972 0.077061 0.835088
O O5 0.276734 0.750000 0.250000
O O6 0.250000 0.000000 0.254072
O O7 0.589696 0.750000 0.750000
O O8 0.515326 0.750000 0.250000
#
# Coordination Sequence:
#
# PCOD9413210 Si02
#       3
#     8   8   8
#     4  11  24  42  66  97 132 173 219 273 341 404
#     4  12  26  45  68  94 132 180 228 278 333 398
#     4  11  22  39  67  99 132 169 214 274 338 406
#
# _framework density 26.003063000000001
#
# number of rings (size 3 to 8) (size 9 to 14) (size 15 to 20)
#    0.000    0.667    0.000    9.000    0.000    9.333 
#    0.000    0.000    0.000    0.000    0.000    0.000 
#    0.000    0.000    0.000    0.000    0.000    0.000 
#
# Total GULP energy -134309.736753 kJ/mol
# GULP energy per Si atom -5596.239031 kJ/mol
# Density = 2.594388 g / cm^3
# Si number density = 26.003063 Si / 1000 Ang^3
#
#
#
# Elastic Constant Matrix: (Units=GPa)
#
#
# Indices 1 2 3 4 5 6 
#
# 1 66.8826 46.3040 2.2518 0.0000 0.0000 0.0000
# 2 46.3040 183.1960 31.8459 0.0000 0.0000 0.0000
# 3 2.2518 31.8459 112.7352 0.0000 0.0000 0.0000
# 4 0.0000 0.0000 0.0000 38.0738 0.0000 0.0000
# 5 0.0000 0.0000 0.0000 0.0000 -576.2261 0.0000
# 6 0.0000 0.0000 0.0000 0.0000 0.0000 -21.8777
#
#
#
# Elastic Compliance Matrix: (Units=1/GPa)
#
#
# Indices 1 2 3 4 5 6 
#
# 1 0.018226 -0.004778 0.000986 0.000000 0.000000 0.000000
# 2 -0.004778 0.006993 -0.001880 0.000000 0.000000 0.000000
# 3 0.000986 -0.001880 0.009382 0.000000 0.000000 0.000000
# 4 0.000000 0.000000 0.000000 0.026265 0.000000 0.000000
# 5 0.000000 0.000000 0.000000 0.000000 -0.001735 0.000000
# 6 0.000000 0.000000 0.000000 0.000000 0.000000 -0.045709
#
#
# Mechanical properties :
#
#
# Convention : Reuss Voigt Hill
#
# Bulk Modulus (GPa) = 42.99911 58.17970 50.58941
# Shear Modulus (GPa) = 153.75552 -93.17855 30.28849
#
# Velocity S-wave (km/s) = 7.69793 -5.99262 3.41663
# Velocity P-wave (km/s) = 9.77665 5.04571 5.92130
#
# Compressibility (1/GPa) = 0.02325629
#
# Stress axis : x y z
#
# Youngs Moduli (GPa) = 54.86541 142.99671 106.59010
#
# Poissons Ratio (x) = 0.68327 -0.10507
# Poissons Ratio (y) = 0.26216 0.20039
# Poissons Ratio (z) = -0.05408 0.26884
#
# Static dielectric constant tensor:
#      x y z
#    x 2.044330 0.000000 0.000000 
#    y 0.000000 2.253420 0.000000 
#    z 0.000000 0.000000 1.930280 
# 
# From -- ./inp_files/2811.got.cif
#   From: 2010.05.17/outbox.cif.g08.bks.cpg/sg52_2_cif.got.tgz:2811.got - 2010.06.03 12:15:38.
