data_PCOD9413193
_publ_section_title
;
Structure prediction by ZEFSAII (Michael W. Deem and Ramdas Pophale) SiO2 
 PCOD9413193
Probable space group: P N N A
;
_chemical_formula_sum "Si O2"
_cell_formula_units_Z 32
_cell_length_a 16.288058
_cell_length_b 4.817865
_cell_length_c 19.024483
_cell_angle_alpha 90.000000
_cell_angle_beta 90.000000
_cell_angle_gamma 90.000000
_cell_volume 1492.920897
_symmetry_space_group_name_H-M "P N N A"
_symmetry_group_IT_number 52
_symmetry_cell_setting 'orthorhombic'
loop_
_space_group_symop_operation_xyz
x,y,z
1/2-x,-y,z
x,1/2-y,1/2-z
1/2-x,1/2+y,1/2-z
-x,-y,-z
1/2+x,y,-z
-x,1/2+y,1/2+z
1/2+x,1/2-y,1/2+z
loop_
_atom_site_type_symbol
_atom_site_label
_atom_site_fract_x
_atom_site_fract_y
_atom_site_fract_z
Si Si1 0.335886 0.374277 0.865445
Si Si2 0.441365 0.612899 0.437099
Si Si3 0.560896 0.383407 0.324226
Si Si4 0.164666 0.864066 0.469476
O O1 0.250000 0.500000 0.840393
O O2 0.402735 0.620082 0.865336
O O3 0.366228 0.110082 0.821846
O O4 0.327238 0.296496 0.947428
O O5 0.500000 0.500000 0.500000
O O6 0.491333 0.549285 0.366284
O O7 0.409234 0.920189 0.453323
O O8 0.360828 0.421942 0.434672
O O9 0.536666 0.250000 0.250000
O O10 0.250000 0.000000 0.447041
#
# Coordination Sequence:
#
# PCOD9413193 Si02
#       4
#     8   8   8   8
#     4  11  22  39  60  88 126 166 209 255 308 386
#     4  12  21  39  64  90 126 163 208 265 316 373
#     4  12  25  39  59  90 125 170 211 251 312 380
#     4  11  22  38  64  95 122 158 211 268 324 372
#
# _framework density 21.434488999999999
#
# number of rings (size 3 to 8) (size 9 to 14) (size 15 to 20)
#    0.000    0.500    5.000    4.500    0.000    6.000 
#    0.000    0.000    0.000    3.000    0.000    0.000 
#    0.000    0.000    0.000    0.000    0.000    0.000 
#
# Total GULP energy -178988.051872 kJ/mol
# GULP energy per Si atom -5593.376621 kJ/mol
# Density = 2.138570 g / cm^3
# Si number density = 21.434489 Si / 1000 Ang^3
#
#
#
# Elastic Constant Matrix: (Units=GPa)
#
#
# Indices 1 2 3 4 5 6 
#
# 1 74.9427 10.5903 29.4511 0.0000 0.0000 0.0000
# 2 10.5903 104.2317 15.2045 0.0000 0.0000 0.0000
# 3 29.4511 15.2045 85.8585 0.0000 0.0000 0.0000
# 4 0.0000 0.0000 0.0000 31.7536 0.0000 0.0000
# 5 0.0000 0.0000 0.0000 0.0000 17.1447 0.0000
# 6 0.0000 0.0000 0.0000 0.0000 0.0000 50.3349
#
#
#
# Elastic Compliance Matrix: (Units=1/GPa)
#
#
# Indices 1 2 3 4 5 6 
#
# 1 0.015490 -0.000820 -0.005168 0.000000 0.000000 0.000000
# 2 -0.000820 0.009892 -0.001470 0.000000 0.000000 0.000000
# 3 -0.005168 -0.001470 0.013680 0.000000 0.000000 0.000000
# 4 0.000000 0.000000 0.000000 0.031492 0.000000 0.000000
# 5 0.000000 0.000000 0.000000 0.000000 0.058327 0.000000
# 6 0.000000 0.000000 0.000000 0.000000 0.000000 0.019867
#
#
# Mechanical properties :
#
#
# Convention : Reuss Voigt Hill
#
# Bulk Modulus (GPa) = 41.41629 41.72498 41.57064
# Shear Modulus (GPa) = 29.11806 33.83244 31.47525
#
# Velocity S-wave (km/s) = 3.68974 3.97723 3.83618
# Velocity P-wave (km/s) = 6.12507 6.37179 6.24965
#
# Compressibility (1/GPa) = 0.02414509
#
# Stress axis : x y z
#
# Youngs Moduli (GPa) = 64.55598 101.09356 73.09786
#
# Poissons Ratio (x) = 0.08289 0.37779
# Poissons Ratio (y) = 0.05293 0.10749
# Poissons Ratio (z) = 0.33364 0.14865
#
# Static dielectric constant tensor:
#      x y z
#    x 1.833310 0.000000 0.000000 
#    y 0.000000 1.787150 0.000000 
#    z 0.000000 0.000000 1.800640 
# 
# From -- ./inp_files/32585.got.cif
#   From: 2010.05.17/outbox.cif.g08.bks.cpg/sg52_17_cif.got.tgz:32585.got - 2010.06.03 12:15:38.
