data_PCOD9413452
_publ_section_title
;
Structure prediction by ZEFSAII (Michael W. Deem and Ramdas Pophale) SiO2 
 PCOD9413452
Probable space group: P N N A
;
_chemical_formula_sum "Si O2"
_cell_formula_units_Z 32
_cell_length_a 12.588607
_cell_length_b 9.654644
_cell_length_c 9.241231
_cell_angle_alpha 90.000000
_cell_angle_beta 90.000000
_cell_angle_gamma 90.000000
_cell_volume 1123.165530
_symmetry_space_group_name_H-M "P N N A"
_symmetry_group_IT_number 52
_symmetry_cell_setting 'orthorhombic'
loop_
_space_group_symop_operation_xyz
x,y,z
1/2-x,-y,z
x,1/2-y,1/2-z
1/2-x,1/2+y,1/2-z
-x,-y,-z
1/2+x,y,-z
-x,1/2+y,1/2+z
1/2+x,1/2-y,1/2+z
loop_
_atom_site_type_symbol
_atom_site_label
_atom_site_fract_x
_atom_site_fract_y
_atom_site_fract_z
Si Si1 0.423159 0.101096 0.722702
Si Si2 0.331296 0.394209 0.203718
Si Si3 0.055719 0.158003 0.545636
Si Si4 0.632890 0.035970 0.011287
O O1 0.367847 0.250000 0.750000
O O2 0.526242 0.131721 0.622302
O O3 0.385025 0.963842 0.634930
O O4 0.443205 0.053661 0.885950
O O5 0.250000 0.500000 0.127146
O O6 0.436857 0.344264 0.118543
O O7 0.359694 0.473867 0.351061
O O8 0.776102 0.250000 0.750000
O O9 0.112396 0.304046 0.545870
O O10 0.750000 0.000000 0.073135
#
# Coordination Sequence:
#
# PCOD9413452 Si02
#       4
#     8   8   8   8
#     4  11  24  41  72 111 150 201 264 327 405 484
#     4  11  25  45  73 109 157 209 267 336 409 492
#     4  11  25  46  74 108 155 212 266 331 411 486
#     4  11  26  49  75 111 159 210 271 337 407 494
#
# _framework density 28.490901999999998
#
# number of rings (size 3 to 8) (size 9 to 14) (size 15 to 20)
#    0.000    1.000    0.000    5.250    0.000   17.000 
#    0.000    0.000    0.000    0.000    0.000    0.000 
#    0.000    0.000    0.000    0.000    0.000    0.000 
#
# Total GULP energy -179012.425160 kJ/mol
# GULP energy per Si atom -5594.138286 kJ/mol
# Density = 2.842606 g / cm^3
# Si number density = 28.490902 Si / 1000 Ang^3
#
#
#
# Elastic Constant Matrix: (Units=GPa)
#
#
# Indices 1 2 3 4 5 6 
#
# 1 110.4974 60.9374 31.1331 0.0000 0.0000 0.0000
# 2 60.9374 327.0268 78.6230 0.0000 0.0000 0.0000
# 3 31.1331 78.6230 216.4385 0.0000 0.0000 0.0000
# 4 0.0000 0.0000 0.0000 58.3572 0.0000 0.0000
# 5 0.0000 0.0000 0.0000 0.0000 40.5651 0.0000
# 6 0.0000 0.0000 0.0000 0.0000 0.0000 58.1831
#
#
#
# Elastic Compliance Matrix: (Units=1/GPa)
#
#
# Indices 1 2 3 4 5 6 
#
# 1 0.010228 -0.001701 -0.000853 0.000000 0.000000 0.000000
# 2 -0.001701 0.003633 -0.001075 0.000000 0.000000 0.000000
# 3 -0.000853 -0.001075 0.005134 0.000000 0.000000 0.000000
# 4 0.000000 0.000000 0.000000 0.017136 0.000000 0.000000
# 5 0.000000 0.000000 0.000000 0.000000 0.024652 0.000000
# 6 0.000000 0.000000 0.000000 0.000000 0.000000 0.017187
#
#
# Mechanical properties :
#
#
# Convention : Reuss Voigt Hill
#
# Bulk Modulus (GPa) = 85.20460 110.59441 97.89950
# Shear Modulus (GPa) = 56.09101 63.63902 59.86501
#
# Velocity S-wave (km/s) = 4.44186 4.73129 4.58886
# Velocity P-wave (km/s) = 7.50184 8.29147 7.90652
#
# Compressibility (1/GPa) = 0.01173646
#
# Stress axis : x y z
#
# Youngs Moduli (GPa) = 97.76712 275.23520 194.79585
#
# Poissons Ratio (x) = 0.46810 0.16625
# Poissons Ratio (y) = 0.16628 0.20944
# Poissons Ratio (z) = 0.08344 0.29592
#
# Static dielectric constant tensor:
#      x y z
#    x 2.571670 0.000000 0.000000 
#    y 0.000000 2.295170 0.000000 
#    z 0.000000 0.000000 2.200420 
# 
# From -- ./inp_files/19007.got.cif
#   From: 2010.05.17/outbox.cif.g08.bks.cpg/sg52_10_cif.got.tgz:19007.got - 2010.06.03 12:15:38.
