data_PCOD9413442
_publ_section_title
;
Structure prediction by ZEFSAII (Michael W. Deem and Ramdas Pophale) SiO2 
 PCOD9413442
Probable space group: P N N A
;
_chemical_formula_sum "Si O2"
_cell_formula_units_Z 40
_cell_length_a 13.221724
_cell_length_b 5.356079
_cell_length_c 26.257005
_cell_angle_alpha 90.000000
_cell_angle_beta 90.000000
_cell_angle_gamma 90.000000
_cell_volume 1859.431775
_symmetry_space_group_name_H-M "P N N A"
_symmetry_group_IT_number 52
_symmetry_cell_setting 'orthorhombic'
loop_
_space_group_symop_operation_xyz
x,y,z
1/2-x,-y,z
x,1/2-y,1/2-z
1/2-x,1/2+y,1/2-z
-x,-y,-z
1/2+x,y,-z
-x,1/2+y,1/2+z
1/2+x,1/2-y,1/2+z
loop_
_atom_site_type_symbol
_atom_site_label
_atom_site_fract_x
_atom_site_fract_y
_atom_site_fract_z
Si Si1 0.864561 0.525343 0.357391
Si Si2 0.187542 0.250000 0.250000
Si Si3 0.408783 0.750000 0.750000
Si Si4 0.966147 0.461632 0.557597
Si Si5 0.131145 0.012225 0.405127
Si Si6 0.484370 0.864527 0.313685
O O1 0.750000 0.500000 0.375587
O O2 0.856669 0.688009 0.304379
O O3 0.937911 0.591539 0.404733
O O4 0.920565 0.276513 0.337144
O O5 0.250000 0.500000 0.241248
O O6 0.113805 0.294965 0.298111
O O7 0.477214 0.516857 0.765304
O O8 0.908359 0.714172 0.576807
O O9 0.000000 0.500000 0.500000
O O10 0.896454 0.215906 0.558171
O O11 0.065532 0.953135 0.354694
O O12 0.250000 0.000000 0.395189
#
# Coordination Sequence:
#
# PCOD9413442 Si02
#       6
#     8   4   4   8   8   8
#     4  11  26  42  69 101 139 192 237 288 358 424
#     4  12  25  37  64  96 136 188 233 275 344 418
#     4  12  21  43  66  92 150 178 239 273 362 402
#     4  11  25  49  73 103 142 179 235 305 352 418
#     4  11  24  44  72 103 136 180 229 286 359 421
#     4  11  24  41  62  98 141 181 229 289 346 421
#
# _framework density 21.511948
#
# number of rings (size 3 to 8) (size 9 to 14) (size 15 to 20)
#    0.000    0.800    4.000    2.400    2.800    4.800 
#    0.000    0.000    0.000    0.000    0.000    0.000 
#    0.000    0.000    0.000    0.000    0.000    0.000 
#
# Total GULP energy -222996.010678 kJ/mol
# GULP energy per Si atom -5574.900267 kJ/mol
# Density = 2.146299 g / cm^3
# Si number density = 21.511948 Si / 1000 Ang^3
#
#
#
# Elastic Constant Matrix: (Units=GPa)
#
#
# Indices 1 2 3 4 5 6 
#
# 1 158.0716 54.3732 36.2833 0.0000 0.0000 0.0000
# 2 54.3732 78.6128 1.8588 0.0000 0.0000 0.0000
# 3 36.2833 1.8588 95.2806 0.0000 0.0000 0.0000
# 4 0.0000 0.0000 0.0000 28.0102 0.0000 0.0000
# 5 0.0000 0.0000 0.0000 0.0000 120.5631 0.0000
# 6 0.0000 0.0000 0.0000 0.0000 0.0000 20.0323
#
#
#
# Elastic Compliance Matrix: (Units=1/GPa)
#
#
# Indices 1 2 3 4 5 6 
#
# 1 0.009293 -0.006347 -0.003415 0.000000 0.000000 0.000000
# 2 -0.006347 0.017061 0.002084 0.000000 0.000000 0.000000
# 3 -0.003415 0.002084 0.011755 0.000000 0.000000 0.000000
# 4 0.000000 0.000000 0.000000 0.035701 0.000000 0.000000
# 5 0.000000 0.000000 0.000000 0.000000 0.008294 0.000000
# 6 0.000000 0.000000 0.000000 0.000000 0.000000 0.049919
#
#
# Mechanical properties :
#
#
# Convention : Reuss Voigt Hill
#
# Bulk Modulus (GPa) = 43.94886 57.44393 50.69640
# Shear Modulus (GPa) = 32.26520 49.68445 40.97482
#
# Velocity S-wave (km/s) = 3.87702 4.81107 4.36908
# Velocity P-wave (km/s) = 6.36522 7.59098 7.00497
#
# Compressibility (1/GPa) = 0.02275372
#
# Stress axis : x y z
#
# Youngs Moduli (GPa) = 107.60305 58.61205 85.06906
#
# Poissons Ratio (x) = 0.37202 0.29052
# Poissons Ratio (y) = 0.68297 -0.17730
# Poissons Ratio (z) = 0.36748 -0.12216
#
# Static dielectric constant tensor:
#      x y z
#    x 1.763280 0.000000 0.000000 
#    y 0.000000 1.794930 0.000000 
#    z 0.000000 0.000000 1.883150 
# 
# From -- ./inp_files/42546.got.cif
#   From: 2010.05.17/outbox.cif.g08.bks.cpg/sg52_22_cif.got.tgz:42546.got - 2010.06.03 12:15:38.
