data_PCOD9413679
_publ_section_title
;
Structure prediction by ZEFSAII (Michael W. Deem and Ramdas Pophale) SiO2 
 PCOD9413679
Probable space group: P N N A
;
_chemical_formula_sum "Si O2"
_cell_formula_units_Z 20
_cell_length_a 8.247253
_cell_length_b 7.282592
_cell_length_c 11.816742
_cell_angle_alpha 90.000000
_cell_angle_beta 90.000000
_cell_angle_gamma 90.000000
_cell_volume 709.729816
_symmetry_space_group_name_H-M "P N N A"
_symmetry_group_IT_number 52
_symmetry_cell_setting 'orthorhombic'
loop_
_space_group_symop_operation_xyz
x,y,z
1/2-x,-y,z
x,1/2-y,1/2-z
1/2-x,1/2+y,1/2-z
-x,-y,-z
1/2+x,y,-z
-x,1/2+y,1/2+z
1/2+x,1/2-y,1/2+z
loop_
_atom_site_type_symbol
_atom_site_label
_atom_site_fract_x
_atom_site_fract_y
_atom_site_fract_z
Si Si1 0.250000 0.500000 0.828909
Si Si2 0.444836 0.208597 0.519373
Si Si3 0.574642 0.508261 0.681574
O O1 0.279730 0.322641 0.908282
O O2 0.413334 0.517475 0.756409
O O3 0.554611 0.327851 0.603647
O O4 0.421782 0.322815 0.405940
O O5 0.500000 0.000000 0.500000
O O6 0.750000 0.500000 0.741352
#
# Coordination Sequence:
#
# PCOD9413679 Si02
#       3
#     4   8   8
#     4  12  28  56  86 126 178 234 286 362 450 514
#     4  11  27  50  86 121 167 229 291 360 435 524
#     4  11  28  54  82 122 174 224 292 366 431 525
#
# _framework density 28.179735000000001
#
# number of rings (size 3 to 8) (size 9 to 14) (size 15 to 20)
#    0.000    0.800    0.000    3.600   22.400    0.000 
#   18.000    4.000    0.000    0.000    0.000    0.000 
#    0.000    0.000    0.000    0.000    0.000    0.000 
#
# Total GULP energy -112389.647071 kJ/mol
# GULP energy per Si atom -5619.482354 kJ/mol
# Density = 2.811560 g / cm^3
# Si number density = 28.179735 Si / 1000 Ang^3
#
#
#
# Elastic Constant Matrix: (Units=GPa)
#
#
# Indices 1 2 3 4 5 6 
#
# 1 251.2156 74.6923 98.9608 0.0000 0.0000 0.0000
# 2 74.6923 224.4731 72.0414 0.0000 0.0000 0.0000
# 3 98.9608 72.0414 152.0195 0.0000 0.0000 0.0000
# 4 0.0000 0.0000 0.0000 70.7782 0.0000 0.0000
# 5 0.0000 0.0000 0.0000 0.0000 55.8584 0.0000
# 6 0.0000 0.0000 0.0000 0.0000 0.0000 37.2627
#
#
#
# Elastic Compliance Matrix: (Units=1/GPa)
#
#
# Indices 1 2 3 4 5 6 
#
# 1 0.005472 -0.000799 -0.003184 0.000000 0.000000 0.000000
# 2 -0.000799 0.005371 -0.002025 0.000000 0.000000 0.000000
# 3 -0.003184 -0.002025 0.009610 0.000000 0.000000 0.000000
# 4 0.000000 0.000000 0.000000 0.014129 0.000000 0.000000
# 5 0.000000 0.000000 0.000000 0.000000 0.017902 0.000000
# 6 0.000000 0.000000 0.000000 0.000000 0.000000 0.026837
#
#
# Mechanical properties :
#
#
# Convention : Reuss Voigt Hill
#
# Bulk Modulus (GPa) = 118.51465 124.34415 121.42940
# Shear Modulus (GPa) = 53.10739 58.24743 55.67741
#
# Velocity S-wave (km/s) = 4.34590 4.55136 4.44982
# Velocity P-wave (km/s) = 8.20552 8.47590 8.34181
#
# Compressibility (1/GPa) = 0.00843778
#
# Stress axis : x y z
#
# Youngs Moduli (GPa) = 182.73555 186.19705 104.05628
#
# Poissons Ratio (x) = 0.14880 0.33128
# Poissons Ratio (y) = 0.14603 0.21070
# Poissons Ratio (z) = 0.58177 0.37703
#
# Static dielectric constant tensor:
#      x y z
#    x 2.298060 0.000000 0.000000 
#    y 0.000000 2.142180 0.000000 
#    z 0.000000 0.000000 2.275910 
# 
# From -- ./inp_files/16169.got.cif
#   From: 2010.05.17/outbox.cif.g08.bks.cpg/sg52_9_cif.got.tgz:16169.got - 2010.06.03 12:15:38.
