data_PCOD9413542
_publ_section_title
;
Structure prediction by ZEFSAII (Michael W. Deem and Ramdas Pophale) SiO2 
 PCOD9413542
Probable space group: P N N A
;
_chemical_formula_sum "Si O2"
_cell_formula_units_Z 32
_cell_length_a 14.507691
_cell_length_b 8.412004
_cell_length_c 9.880457
_cell_angle_alpha 90.000000
_cell_angle_beta 90.000000
_cell_angle_gamma 90.000000
_cell_volume 1205.798668
_symmetry_space_group_name_H-M "P N N A"
_symmetry_group_IT_number 52
_symmetry_cell_setting 'orthorhombic'
loop_
_space_group_symop_operation_xyz
x,y,z
1/2-x,-y,z
x,1/2-y,1/2-z
1/2-x,1/2+y,1/2-z
-x,-y,-z
1/2+x,y,-z
-x,1/2+y,1/2+z
1/2+x,1/2-y,1/2+z
loop_
_atom_site_type_symbol
_atom_site_label
_atom_site_fract_x
_atom_site_fract_y
_atom_site_fract_z
Si Si1 0.125586 0.255005 0.556511
Si Si2 0.750000 0.000000 0.489797
Si Si3 0.080771 0.692006 0.100091
Si Si4 0.418183 0.750000 0.250000
Si Si5 0.094728 0.898386 0.835720
O O1 0.125336 0.421831 0.635052
O O2 0.028814 0.164540 0.581297
O O3 0.135132 0.267160 0.391405
O O4 0.207871 0.141346 0.596312
O O5 0.838930 0.065853 0.569534
O O6 0.096576 0.750000 0.250000
O O7 0.091839 0.829124 0.987267
O O8 0.492024 0.895561 0.233514
O O9 0.136340 0.750000 0.750000
#
# Coordination Sequence:
#
# PCOD9413542 Si02
#       5
#     8   4   8   4   8
#     4  11  24  47  78 111 165 215 282 345 425 513
#     4  12  30  42  70 126 170 208 284 350 428 508
#     4  11  26  47  78 113 157 215 275 350 422 497
#     4   8  18  38  76 104 146 212 292 332 420 484
#     4   9  22  45  80 108 147 224 279 332 421 504
#
# _framework density 26.538429000000001
#
# number of rings (size 3 to 8) (size 9 to 14) (size 15 to 20)
#    0.750    1.000    0.000    3.750    8.750    3.000 
#    0.000    3.750    0.000    0.000    0.000    0.000 
#    0.000    0.000    0.000    0.000    0.000    0.000 
#
# Total GULP energy -178657.739075 kJ/mol
# GULP energy per Si atom -5583.054346 kJ/mol
# Density = 2.647803 g / cm^3
# Si number density = 26.538429 Si / 1000 Ang^3
#
#
#
# Elastic Constant Matrix: (Units=GPa)
#
#
# Indices 1 2 3 4 5 6 
#
# 1 152.0506 91.1858 40.7668 0.0000 0.0000 0.0000
# 2 91.1858 196.9230 56.9067 0.0000 0.0000 0.0000
# 3 40.7668 56.9067 203.2983 0.0000 0.0000 0.0000
# 4 0.0000 0.0000 0.0000 42.2641 0.0000 0.0000
# 5 0.0000 0.0000 0.0000 0.0000 -194.0752 0.0000
# 6 0.0000 0.0000 0.0000 0.0000 0.0000 51.1352
#
#
#
# Elastic Compliance Matrix: (Units=1/GPa)
#
#
# Indices 1 2 3 4 5 6 
#
# 1 0.009198 -0.004054 -0.000710 0.000000 0.000000 0.000000
# 2 -0.004054 0.007312 -0.001234 0.000000 0.000000 0.000000
# 3 -0.000710 -0.001234 0.005407 0.000000 0.000000 0.000000
# 4 0.000000 0.000000 0.000000 0.023661 0.000000 0.000000
# 5 0.000000 0.000000 0.000000 0.000000 -0.005153 0.000000
# 6 0.000000 0.000000 0.000000 0.000000 0.000000 0.019556
#
#
# Mechanical properties :
#
#
# Convention : Reuss Voigt Hill
#
# Bulk Modulus (GPa) = 100.79079 103.33226 102.06153
# Shear Modulus (GPa) = 66.41552 4.09233 35.25393
#
# Velocity S-wave (km/s) = 5.00804 1.24314 3.64869
# Velocity P-wave (km/s) = 8.45590 6.40952 7.50281
#
# Compressibility (1/GPa) = 0.00992154
#
# Stress axis : x y z
#
# Youngs Moduli (GPa) = 108.71452 136.76148 184.96120
#
# Poissons Ratio (x) = 0.55447 0.13126
# Poissons Ratio (y) = 0.44076 0.22820
# Poissons Ratio (z) = 0.07715 0.16873
#
# Static dielectric constant tensor:
#      x y z
#    x 2.186030 0.000000 0.000000 
#    y 0.000000 2.134970 0.000000 
#    z 0.000000 0.000000 2.094920 
# 
# From -- ./inp_files/9869.got.cif
#   From: 2010.05.17/outbox.cif.g08.bks.cpg/sg52_5_cif.got.tgz:9869.got - 2010.06.03 12:15:38.
