data_PCOD9413462
_publ_section_title
;
Structure prediction by ZEFSAII (Michael W. Deem and Ramdas Pophale) SiO2 
 PCOD9413462
Probable space group: P N N A
;
_chemical_formula_sum "Si O2"
_cell_formula_units_Z 36
_cell_length_a 21.714158
_cell_length_b 8.860016
_cell_length_c 9.548345
_cell_angle_alpha 90.000000
_cell_angle_beta 90.000000
_cell_angle_gamma 90.000000
_cell_volume 1836.984967
_symmetry_space_group_name_H-M "P N N A"
_symmetry_group_IT_number 52
_symmetry_cell_setting 'orthorhombic'
loop_
_space_group_symop_operation_xyz
x,y,z
1/2-x,-y,z
x,1/2-y,1/2-z
1/2-x,1/2+y,1/2-z
-x,-y,-z
1/2+x,y,-z
-x,1/2+y,1/2+z
1/2+x,1/2-y,1/2+z
loop_
_atom_site_type_symbol
_atom_site_label
_atom_site_fract_x
_atom_site_fract_y
_atom_site_fract_z
Si Si1 0.207362 0.854545 0.874888
Si Si2 0.478257 0.750000 0.250000
Si Si3 0.098875 0.298550 0.973756
Si Si4 0.266267 0.824812 0.400534
Si Si5 0.578986 0.499774 0.291917
O O1 0.232170 0.750000 0.750000
O O2 0.250000 0.000000 0.889995
O O3 0.139730 0.906920 0.832540
O O4 0.211888 0.759558 0.016473
O O5 0.437107 0.805353 0.379977
O O6 0.521317 0.611490 0.299326
O O7 0.084848 0.433007 0.865138
O O8 0.079281 0.144316 0.895022
O O9 0.171432 0.301126 0.009905
O O10 0.275154 0.750000 0.250000
O O11 0.250000 0.000000 0.387950
#
# Coordination Sequence:
#
# PCOD9413462 Si02
#       5
#     8   4   8   8   8
#     4  12  22  40  68  99 132 173 229 283 338 409
#     4  12  24  44  72  96 136 180 234 280 340 404
#     4  11  24  46  66  97 142 178 223 285 344 400
#     4  12  26  43  67 100 137 179 222 283 355 411
#     4  11  24  42  69  99 132 179 231 278 334 413
#
# _framework density 19.597328999999998
#
# number of rings (size 3 to 8) (size 9 to 14) (size 15 to 20)
#    0.000    0.444    4.444    5.333    0.000    0.000 
#    0.000    0.000    0.000    0.000    0.000    0.000 
#    0.000    0.000    0.000    0.000    0.000    0.000 
#
# Total GULP energy -201392.982383 kJ/mol
# GULP energy per Si atom -5594.249511 kJ/mol
# Density = 1.955272 g / cm^3
# Si number density = 19.597329 Si / 1000 Ang^3
#
#
#
# Elastic Constant Matrix: (Units=GPa)
#
#
# Indices 1 2 3 4 5 6 
#
# 1 93.6515 32.5846 34.7519 0.0000 0.0000 0.0000
# 2 32.5846 91.2133 4.6569 0.0000 0.0000 0.0000
# 3 34.7519 4.6569 75.0904 0.0000 0.0000 0.0000
# 4 0.0000 0.0000 0.0000 37.4036 0.0000 0.0000
# 5 0.0000 0.0000 0.0000 0.0000 12.3986 0.0000
# 6 0.0000 0.0000 0.0000 0.0000 0.0000 -173.6988
#
#
#
# Elastic Compliance Matrix: (Units=1/GPa)
#
#
# Indices 1 2 3 4 5 6 
#
# 1 0.014840 -0.004967 -0.006560 0.000000 0.000000 0.000000
# 2 -0.004967 0.012660 0.001513 0.000000 0.000000 0.000000
# 3 -0.006560 0.001513 0.016259 0.000000 0.000000 0.000000
# 4 0.000000 0.000000 0.000000 0.026735 0.000000 0.000000
# 5 0.000000 0.000000 0.000000 0.000000 0.080654 0.000000
# 6 0.000000 0.000000 0.000000 0.000000 0.000000 -0.005757
#
#
# Mechanical properties :
#
#
# Convention : Reuss Voigt Hill
#
# Bulk Modulus (GPa) = 42.13463 44.88247 43.50855
# Shear Modulus (GPa) = 28.84674 -12.24853 8.29911
#
# Velocity S-wave (km/s) = 3.84079 -2.50273 2.06010
# Velocity P-wave (km/s) = 6.41995 3.82106 5.28282
#
# Compressibility (1/GPa) = 0.02373345
#
# Stress axis : x y z
#
# Youngs Moduli (GPa) = 67.38461 78.98733 61.50285
#
# Poissons Ratio (x) = 0.39229 0.40346
# Poissons Ratio (y) = 0.33467 -0.09307
# Poissons Ratio (z) = 0.44205 -0.11953
#
# Static dielectric constant tensor:
#      x y z
#    x 1.659540 0.000000 0.000000 
#    y 0.000000 1.669260 0.000000 
#    z 0.000000 0.000000 1.678810 
# 
# From -- ./inp_files/12901.got.cif
#   From: 2010.05.17/outbox.cif.g08.bks.cpg/sg52_7_cif.got.tgz:12901.got - 2010.06.03 12:15:38.
