data_PCOD9413142
_publ_section_title
;
Structure prediction by ZEFSAII (Michael W. Deem and Ramdas Pophale) SiO2 
 PCOD9413142
Probable space group: P N N A
;
_chemical_formula_sum "Si O2"
_cell_formula_units_Z 32
_cell_length_a 15.229188
_cell_length_b 8.403521
_cell_length_c 10.670320
_cell_angle_alpha 90.000000
_cell_angle_beta 90.000000
_cell_angle_gamma 90.000000
_cell_volume 1365.574762
_symmetry_space_group_name_H-M "P N N A"
_symmetry_group_IT_number 52
_symmetry_cell_setting 'orthorhombic'
loop_
_space_group_symop_operation_xyz
x,y,z
1/2-x,-y,z
x,1/2-y,1/2-z
1/2-x,1/2+y,1/2-z
-x,-y,-z
1/2+x,y,-z
-x,1/2+y,1/2+z
1/2+x,1/2-y,1/2+z
loop_
_atom_site_type_symbol
_atom_site_label
_atom_site_fract_x
_atom_site_fract_y
_atom_site_fract_z
Si Si1 0.525869 0.250000 0.250000
Si Si2 0.250000 0.500000 0.561429
Si Si3 0.339595 0.596525 0.175064
Si Si4 0.575580 0.943240 0.906919
Si Si5 0.319804 0.855973 0.609496
O O1 0.461377 0.225630 0.134119
O O2 0.597511 0.120972 0.297134
O O3 0.333260 0.455472 0.476666
O O4 0.276091 0.676012 0.620655
O O5 0.250000 0.500000 0.167389
O O6 0.310612 0.750000 0.250000
O O7 0.412139 0.526219 0.270574
O O8 0.360461 0.637418 0.031452
O O9 0.500000 0.000000 0.000000
O O10 0.250000 0.000000 0.623361
#
# Coordination Sequence:
#
# PCOD9413142 Si02
#       5
#     4   4   8   8   8
#     4  12  28  48  72 118 154 200 266 328 390 472
#     4  12  24  52  76 106 160 204 248 326 398 446
#     4  11  21  41  71 104 140 193 254 309 373 457
#     4  12  25  44  75 106 153 198 253 320 383 464
#     4  11  27  48  77 111 149 205 262 316 400 469
#
# _framework density 23.433354999999999
#
# number of rings (size 3 to 8) (size 9 to 14) (size 15 to 20)
#    0.000    0.500    6.250    0.000   10.500    1.000 
#    4.500    0.000    0.000    0.000    0.000    0.000 
#    0.000    0.000    0.000    0.000    0.000    0.000 
#
# Total GULP energy -178164.994273 kJ/mol
# GULP energy per Si atom -5567.656071 kJ/mol
# Density = 2.338002 g / cm^3
# Si number density = 23.433355 Si / 1000 Ang^3
#
#
#
# Elastic Constant Matrix: (Units=GPa)
#
#
# Indices 1 2 3 4 5 6 
#
# 1 164.1061 35.4513 47.6520 0.0000 0.0000 0.0000
# 2 35.4513 107.3765 19.0844 0.0000 0.0000 0.0000
# 3 47.6520 19.0844 74.3693 0.0000 0.0000 0.0000
# 4 0.0000 0.0000 0.0000 44.9110 0.0000 0.0000
# 5 0.0000 0.0000 0.0000 0.0000 -8.3885 0.0000
# 6 0.0000 0.0000 0.0000 0.0000 0.0000 19.5730
#
#
#
# Elastic Compliance Matrix: (Units=1/GPa)
#
#
# Indices 1 2 3 4 5 6 
#
# 1 0.007794 -0.001766 -0.004541 0.000000 0.000000 0.000000
# 2 -0.001766 0.010158 -0.001475 0.000000 0.000000 0.000000
# 3 -0.004541 -0.001475 0.016734 0.000000 0.000000 0.000000
# 4 0.000000 0.000000 0.000000 0.022266 0.000000 0.000000
# 5 0.000000 0.000000 0.000000 0.000000 -0.119210 0.000000
# 6 0.000000 0.000000 0.000000 0.000000 0.000000 0.051091
#
#
# Mechanical properties :
#
#
# Convention : Reuss Voigt Hill
#
# Bulk Modulus (GPa) = 52.29411 61.13637 56.71524
# Shear Modulus (GPa) = 464.22469 27.46338 245.84403
#
# Velocity S-wave (km/s) = 14.09022 3.42713 10.25377
# Velocity P-wave (km/s) = 16.94335 6.46579 12.82348
#
# Compressibility (1/GPa) = 0.01912261
#
# Stress axis : x y z
#
# Youngs Moduli (GPa) = 128.31054 98.44157 59.75751
#
# Poissons Ratio (x) = 0.17386 0.27133
# Poissons Ratio (y) = 0.22661 0.08815
# Poissons Ratio (z) = 0.58260 0.14522
#
# Static dielectric constant tensor:
#      x y z
#    x 2.244540 0.000000 0.000000 
#    y 0.000000 1.626370 0.000000 
#    z 0.000000 0.000000 1.958680 
# 
# From -- ./inp_files/18898.got.cif
#   From: 2010.05.17/outbox.cif.g08.bks.cpg/sg52_10_cif.got.tgz:18898.got - 2010.06.03 12:15:38.
