data_PCOD9413750
_publ_section_title
;
Structure prediction by ZEFSAII (Michael W. Deem and Ramdas Pophale) SiO2 
 PCOD9413750
Probable space group: P N N A
;
_chemical_formula_sum "Si O2"
_cell_formula_units_Z 28
_cell_length_a 10.999512
_cell_length_b 19.331357
_cell_length_c 5.127986
_cell_angle_alpha 90.000000
_cell_angle_beta 90.000000
_cell_angle_gamma 90.000000
_cell_volume 1090.391833
_symmetry_space_group_name_H-M "P N N A"
_symmetry_group_IT_number 52
_symmetry_cell_setting 'orthorhombic'
loop_
_space_group_symop_operation_xyz
x,y,z
1/2-x,-y,z
x,1/2-y,1/2-z
1/2-x,1/2+y,1/2-z
-x,-y,-z
1/2+x,y,-z
-x,1/2+y,1/2+z
1/2+x,1/2-y,1/2+z
loop_
_atom_site_type_symbol
_atom_site_label
_atom_site_fract_x
_atom_site_fract_y
_atom_site_fract_z
Si Si1 0.562419 0.250000 0.750000
Si Si2 0.336048 0.565211 0.506468
Si Si3 0.341653 0.323200 0.678679
Si Si4 0.538281 0.387743 0.982998
O O1 0.469337 0.293821 0.560644
O O2 0.607584 0.314015 0.922306
O O3 0.250000 0.500000 0.549147
O O4 0.410771 0.561934 0.240720
O O5 0.244892 0.630726 0.510002
O O6 0.427500 0.580295 0.743479
O O7 0.283405 0.250000 0.750000
O O8 0.398242 0.368445 0.916791
#
# Coordination Sequence:
#
# PCOD9413750 Si02
#       4
#     4   8   8   8
#     4   6  18  42  56  88 110 158 194 258 282 328
#     4  12  23  38  62  89 122 159 189 237 303 355
#     4   7  20  39  58  89 113 154 203 246 283 343
#     4   9  23  39  58  85 117 153 198 243 293 339
#
# _framework density 25.678844999999999
#
# number of rings (size 3 to 8) (size 9 to 14) (size 15 to 20)
#    2.571    0.000    0.000    0.857    4.000    4.571 
#    0.000    2.857    0.000    0.000    0.000    0.000 
#    0.000    0.000    0.000    0.000    0.000    0.000 
#
# Total GULP energy -155914.850190 kJ/mol
# GULP energy per Si atom -5568.387507 kJ/mol
# Density = 2.562040 g / cm^3
# Si number density = 25.678845 Si / 1000 Ang^3
#
#
#
# Elastic Constant Matrix: (Units=GPa)
#
#
# Indices 1 2 3 4 5 6 
#
# 1 80.6994 19.7121 32.1450 0.0000 0.0000 0.0000
# 2 19.7121 109.8115 0.1293 0.0000 0.0000 0.0000
# 3 32.1450 0.1293 94.2319 0.0000 0.0000 0.0000
# 4 0.0000 0.0000 0.0000 3.7937 0.0000 0.0000
# 5 0.0000 0.0000 0.0000 0.0000 4.2019 0.0000
# 6 0.0000 0.0000 0.0000 0.0000 0.0000 59.5627
#
#
#
# Elastic Compliance Matrix: (Units=1/GPa)
#
#
# Indices 1 2 3 4 5 6 
#
# 1 0.015103 -0.002705 -0.005148 0.000000 0.000000 0.000000
# 2 -0.002705 0.009591 0.000910 0.000000 0.000000 0.000000
# 3 -0.005148 0.000910 0.012367 0.000000 0.000000 0.000000
# 4 0.000000 0.000000 0.000000 0.263596 0.000000 0.000000
# 5 0.000000 0.000000 0.000000 0.000000 0.237986 0.000000
# 6 0.000000 0.000000 0.000000 0.000000 0.000000 0.016789
#
#
# Mechanical properties :
#
#
# Convention : Reuss Voigt Hill
#
# Bulk Modulus (GPa) = 43.15250 43.19061 43.17156
# Shear Modulus (GPa) = 8.66483 29.02876 18.84680
#
# Velocity S-wave (km/s) = 1.83892 3.36587 2.71208
# Velocity P-wave (km/s) = 4.62061 5.65345 5.16292
#
# Compressibility (1/GPa) = 0.02317363
#
# Stress axis : x y z
#
# Youngs Moduli (GPa) = 66.21126 104.26413 80.85961
#
# Poissons Ratio (x) = 0.28204 0.41630
# Poissons Ratio (y) = 0.17911 -0.07355
# Poissons Ratio (z) = 0.34088 -0.09484
#
# Static dielectric constant tensor:
#      x y z
#    x 2.073830 0.000000 0.000000 
#    y 0.000000 2.052620 0.000000 
#    z 0.000000 0.000000 2.074270 
# 
# From -- ./inp_files/1838.got.cif
#   From: 2010.05.17/outbox.cif.g08.bks.cpg/sg52_1_cif.got.tgz:1838.got - 2010.06.03 12:15:38.
