data_PCOD9413364
_publ_section_title
;
Structure prediction by ZEFSAII (Michael W. Deem and Ramdas Pophale) SiO2 
 PCOD9413364
Probable space group: P N N A
;
_chemical_formula_sum "Si O2"
_cell_formula_units_Z 48
_cell_length_a 13.259029
_cell_length_b 26.792179
_cell_length_c 6.536590
_cell_angle_alpha 90.000000
_cell_angle_beta 90.000000
_cell_angle_gamma 90.000000
_cell_volume 2322.046978
_symmetry_space_group_name_H-M "P N N A"
_symmetry_group_IT_number 52
_symmetry_cell_setting 'orthorhombic'
loop_
_space_group_symop_operation_xyz
x,y,z
1/2-x,-y,z
x,1/2-y,1/2-z
1/2-x,1/2+y,1/2-z
-x,-y,-z
1/2+x,y,-z
-x,1/2+y,1/2+z
1/2+x,1/2-y,1/2+z
loop_
_atom_site_type_symbol
_atom_site_label
_atom_site_fract_x
_atom_site_fract_y
_atom_site_fract_z
Si Si1 0.196712 0.795915 0.587339
Si Si2 0.844645 0.528180 0.507535
Si Si3 0.158354 0.362814 0.654713
Si Si4 0.364542 0.801126 0.251083
Si Si5 0.032621 0.534676 0.813871
Si Si6 0.988354 0.361682 0.983881
O O1 0.186467 0.750000 0.750000
O O2 0.254754 0.840813 0.702185
O O3 0.271394 0.785925 0.397371
O O4 0.094571 0.818236 0.492848
O O5 0.750000 0.500000 0.607716
O O6 0.815189 0.582286 0.422980
O O7 0.882344 0.492354 0.322564
O O8 0.936698 0.537720 0.661991
O O9 0.154906 0.323061 0.470950
O O10 0.049443 0.366573 0.770233
O O11 0.428099 0.750000 0.250000
O O12 0.424509 0.844567 0.362638
O O13 0.056117 0.587466 0.921512
O O14 0.000000 0.500000 0.000000
#
# Coordination Sequence:
#
# PCOD9413364 Si02
#       6
#     8   8   8   8   8   8
#     4  11  24  43  67  99 126 169 224 271 327 397
#     4  11  24  42  67  96 128 175 220 271 338 393
#     4  11  23  44  67  94 134 173 216 272 333 395
#     4  11  23  44  65  92 134 167 215 278 324 392
#     4  11  23  43  64  96 136 165 221 277 320 406
#     4  11  24  42  67  96 131 173 217 268 338 394
#
# _framework density 20.671417000000002
#
# number of rings (size 3 to 8) (size 9 to 14) (size 15 to 20)
#    0.000    1.000    5.000    1.500    0.000    3.333 
#    3.000    0.000    0.000    0.000    0.000    0.000 
#    0.000    0.000    0.000    0.000    0.000    0.000 
#
# Total GULP energy -267788.419956 kJ/mol
# GULP energy per Si atom -5578.925416 kJ/mol
# Density = 2.062437 g / cm^3
# Si number density = 20.671417 Si / 1000 Ang^3
#
#
#
# Elastic Constant Matrix: (Units=GPa)
#
#
# Indices 1 2 3 4 5 6 
#
# 1 40.0789 18.5129 -2.7389 0.0000 0.0000 0.0000
# 2 18.5129 136.8070 25.9329 0.0000 0.0000 0.0000
# 3 -2.7389 25.9329 73.5404 0.0000 0.0000 0.0000
# 4 0.0000 0.0000 0.0000 39.8421 0.0000 0.0000
# 5 0.0000 0.0000 0.0000 0.0000 9.2184 0.0000
# 6 0.0000 0.0000 0.0000 0.0000 0.0000 30.1675
#
#
#
# Elastic Compliance Matrix: (Units=1/GPa)
#
#
# Indices 1 2 3 4 5 6 
#
# 1 0.027023 -0.004123 0.002460 0.000000 0.000000 0.000000
# 2 -0.004123 0.008462 -0.003138 0.000000 0.000000 0.000000
# 3 0.002460 -0.003138 0.014796 0.000000 0.000000 0.000000
# 4 0.000000 0.000000 0.000000 0.025099 0.000000 0.000000
# 5 0.000000 0.000000 0.000000 0.000000 0.108478 0.000000
# 6 0.000000 0.000000 0.000000 0.000000 0.000000 0.033148
#
#
# Mechanical properties :
#
#
# Convention : Reuss Voigt Hill
#
# Bulk Modulus (GPa) = 24.58158 37.09335 30.83747
# Shear Modulus (GPa) = 20.81869 29.76022 25.28946
#
# Velocity S-wave (km/s) = 3.17697 3.79843 3.50151
# Velocity P-wave (km/s) = 5.03735 6.10087 5.59444
#
# Compressibility (1/GPa) = 0.04068086
#
# Stress axis : x y z
#
# Youngs Moduli (GPa) = 37.00489 118.17120 67.58563
#
# Poissons Ratio (x) = 0.48725 -0.16629
# Poissons Ratio (y) = 0.15258 0.21206
# Poissons Ratio (z) = -0.09105 0.37078
#
# Static dielectric constant tensor:
#      x y z
#    x 1.759650 0.000000 0.000000 
#    y 0.000000 1.796940 0.000000 
#    z 0.000000 0.000000 1.760700 
# 
# From -- ./inp_files/2462.got.cif
#   From: 2010.05.17/outbox.cif.g08.bks.cpg/sg52_2_cif.got.tgz:2462.got - 2010.06.03 12:15:38.
