data_PCOD9413230
_publ_section_title
;
Structure prediction by ZEFSAII (Michael W. Deem and Ramdas Pophale) SiO2 
 PCOD9413230
Probable space group: P N N A
;
_chemical_formula_sum "Si O2"
_cell_formula_units_Z 56
_cell_length_a 22.060466
_cell_length_b 14.521515
_cell_length_c 9.609910
_cell_angle_alpha 90.000000
_cell_angle_beta 90.000000
_cell_angle_gamma 90.000000
_cell_volume 3078.548006
_symmetry_space_group_name_H-M "P N N A"
_symmetry_group_IT_number 52
_symmetry_cell_setting 'orthorhombic'
loop_
_space_group_symop_operation_xyz
x,y,z
1/2-x,-y,z
x,1/2-y,1/2-z
1/2-x,1/2+y,1/2-z
-x,-y,-z
1/2+x,y,-z
-x,1/2+y,1/2+z
1/2+x,1/2-y,1/2+z
loop_
_atom_site_type_symbol
_atom_site_label
_atom_site_fract_x
_atom_site_fract_y
_atom_site_fract_z
Si Si1 0.070222 0.500000 0.469084
Si Si2 0.882926 0.643474 0.750596
Si Si3 0.350246 1.000000 0.756253
Si Si4 0.882926 0.143474 0.749404
Si Si5 0.250000 0.350088 0.681653
Si Si6 0.927457 0.500000 0.975850
Si Si7 0.250000 0.610341 0.356980
O O1 0.088553 0.411512 0.378534
O O2 0.107327 0.500000 0.609969
O O3 0.088553 0.588488 0.378534
O O4 0.000000 0.500000 0.500000
O O5 0.899951 0.750000 0.750000
O O6 0.906213 0.588431 0.885463
O O7 0.810421 0.635230 0.727920
O O8 0.307448 0.910387 0.768651
O O9 0.307448 0.089613 0.768651
O O10 0.390896 0.000000 0.619318
O O11 0.899951 0.250000 0.750000
O O12 0.906213 0.088431 0.614537
O O13 0.810421 0.135230 0.772080
O O14 0.250000 0.250000 0.750000
O O15 0.250000 0.346648 0.512375
O O16 0.000000 0.500000 0.000000
O O17 0.250000 0.500000 0.379755
#
# Coordination Sequence:
#
# PCOD9413230 Si02
#       7
#     8   8   8   8   8   8   8
#     4  11  22  43  68  86 124 181 214 254 320 377
#     4  11  24  42  68  96 127 166 216 266 318 385
#     4  11  22  41  64  91 129 163 210 260 322 380
#     4  11  24  42  68  96 127 166 216 266 318 385
#     4  11  23  37  64  98 130 159 204 267 322 382
#     4  11  26  44  62  95 133 165 217 273 312 370
#     4  12  19  44  68  94 128 171 212 256 330 398
#
# _framework density 18.190393
#
# number of rings (size 3 to 8) (size 9 to 14) (size 15 to 20)
#    0.000    0.857    7.143    2.143    4.000    3.429 
#    0.000    2.857    0.000    0.000    0.000    0.000 
#    0.000    0.000    0.000    0.000    0.000    0.000 
#
# Total GULP energy -312996.418851 kJ/mol
# GULP energy per Si atom -5589.221765 kJ/mol
# Density = 1.814899 g / cm^3
# Si number density = 18.190393 Si / 1000 Ang^3
#
#
#
# Elastic Constant Matrix: (Units=GPa)
#
#
# Indices 1 2 3 4 5 6 
#
# 1 184.7508 68.9882 88.1567 0.0000 0.0000 0.0000
# 2 68.9882 188.1491 79.8503 0.0000 0.0000 0.0000
# 3 88.1567 79.8503 169.0390 0.0000 0.0000 0.0000
# 4 0.0000 0.0000 0.0000 7.8412 0.0000 0.0000
# 5 0.0000 0.0000 0.0000 0.0000 61.5602 0.0000
# 6 0.0000 0.0000 0.0000 0.0000 0.0000 83.7258
#
#
#
# Elastic Compliance Matrix: (Units=1/GPa)
#
#
# Indices 1 2 3 4 5 6 
#
# 1 0.007474 -0.001359 -0.003256 0.000000 0.000000 0.000000
# 2 -0.001359 0.006895 -0.002548 0.000000 0.000000 0.000000
# 3 -0.003256 -0.002548 0.008818 0.000000 0.000000 0.000000
# 4 0.000000 0.000000 0.000000 0.127532 0.000000 0.000000
# 5 0.000000 0.000000 0.000000 0.000000 0.016244 0.000000
# 6 0.000000 0.000000 0.000000 0.000000 0.000000 0.011944
#
#
# Mechanical properties :
#
#
# Convention : Reuss Voigt Hill
#
# Bulk Modulus (GPa) = 112.86376 112.88103 112.87240
# Shear Modulus (GPa) = 25.48622 50.95503 38.22062
#
# Velocity S-wave (km/s) = 3.74716 5.29838 4.58880
# Velocity P-wave (km/s) = 8.99456 9.98101 9.50060
#
# Compressibility (1/GPa) = 0.00886024
#
# Stress axis : x y z
#
# Youngs Moduli (GPa) = 133.80486 145.04145 113.41013
#
# Poissons Ratio (x) = 0.19704 0.36925
# Poissons Ratio (y) = 0.18178 0.28901
# Poissons Ratio (z) = 0.43565 0.36962
#
# Static dielectric constant tensor:
#      x y z
#    x 1.627240 0.000000 0.000000 
#    y 0.000000 1.608010 0.000000 
#    z 0.000000 0.000000 1.608780 
# 
# From -- ./inp_files/10796.got.cif
#   From: 2010.05.17/outbox.cif.g08.bks.cpg/sg52_6_cif.got.tgz:10796.got - 2010.06.03 12:15:38.
