data_PCOD9413996
_publ_section_title
;
Structure prediction by ZEFSAII (Michael W. Deem and Ramdas Pophale) SiO2 
 PCOD9413996
Probable space group: P N N A
;
_chemical_formula_sum "Si O2"
_cell_formula_units_Z 64
_cell_length_a 12.000000
_cell_length_b 9.000000
_cell_length_c 30.000000
_cell_angle_alpha 90.000000
_cell_angle_beta 90.000000
_cell_angle_gamma 90.000000
_cell_volume 3240.000000
_symmetry_space_group_name_H-M "P N N A"
_symmetry_group_IT_number 52
_symmetry_cell_setting 'orthorhombic'
loop_
_space_group_symop_operation_xyz
x,y,z
1/2-x,-y,z
x,1/2-y,1/2-z
1/2-x,1/2+y,1/2-z
-x,-y,-z
1/2+x,y,-z
-x,1/2+y,1/2+z
1/2+x,1/2-y,1/2+z
loop_
_atom_site_type_symbol
_atom_site_label
_atom_site_fract_x
_atom_site_fract_y
_atom_site_fract_z
Si Si1 0.356194 0.166348 0.593246
Si Si2 0.464861 0.653925 0.351572
Si Si3 0.885594 0.830156 0.379773
Si Si4 0.028678 0.576672 0.426725
Si Si5 0.837079 0.865656 0.709544
Si Si6 0.472953 0.889693 0.718936
Si Si7 0.647280 0.886326 0.016236
Si Si8 0.344047 0.406202 0.722201
O O1 0.460306 0.243818 0.616584
O O2 0.246041 0.206558 0.622202
O O3 0.334531 0.234469 0.544147
O O4 0.380797 0.991382 0.596383
O O5 0.430132 0.515029 0.382980
O O6 0.366433 0.754728 0.331080
O O7 0.548410 0.611698 0.310558
O O8 0.953378 0.710687 0.408275
O O9 0.941727 0.842044 0.331078
O O10 0.951242 0.466466 0.455946
O O11 0.116443 0.632048 0.464067
O O12 0.810493 0.750000 0.750000
O O13 0.750000 0.000000 0.701492
O O14 0.944373 0.969049 0.719012
O O15 0.509213 0.750000 0.750000
O O16 0.366930 0.964121 0.741748
O O17 0.750000 0.000000 0.019342
O O18 0.250000 0.500000 0.694618
O O19 0.328334 0.250000 0.750000
#
# Coordination Sequence:
#
# PCOD9413996 Si02
#       8
#     8   8   8   8   8   8   8   8
#     4  10  22  37  65  92 138 169 210 276 335 425
#     4  11  22  44  61  95 132 169 225 282 332 394
#     4  11  22  38  61 104 131 180 217 257 349 413
#     4  10  23  38  68  92 124 167 220 276 334 420
#     4  12  25  49  69  90 128 188 242 287 333 387
#     4  12  24  40  62  98 144 178 229 280 326 406
#     4  10  20  43  64  91 123 167 218 276 345 407
#     4  12  24  37  61  98 142 184 217 274 339 417
#
# _framework density 19.753086
#
# number of rings (size 3 to 8) (size 9 to 14) (size 15 to 20)
#    0.000    1.000    5.000    1.500    7.000    0.500 
#    2.250    0.000    0.000    0.000    0.000    0.000 
#    0.000    0.000    0.000    0.000    0.000    0.000 
#
# Total GULP energy -356872.096173 kJ/mol
# GULP energy per Si atom -5576.126503 kJ/mol
# Density = 1.970813 g / cm^3
# Si number density = 19.753086 Si / 1000 Ang^3
#
#
#
# Elastic Constant Matrix: (Units=GPa)
#
#
# Indices 1 2 3 4 5 6 
#
# 1 43.6373 15.6330 29.3809 0.0000 0.0000 0.0000
# 2 15.6330 114.9650 68.5820 0.0000 0.0000 0.0000
# 3 29.3809 68.5820 124.4066 0.0000 0.0000 0.0000
# 4 0.0000 0.0000 0.0000 29.3521 0.0000 0.0000
# 5 0.0000 0.0000 0.0000 0.0000 16.7070 0.0000
# 6 0.0000 0.0000 0.0000 0.0000 0.0000 42.8937
#
#
#
# Elastic Compliance Matrix: (Units=1/GPa)
#
#
# Indices 1 2 3 4 5 6 
#
# 1 0.027252 0.000199 -0.006546 0.000000 0.000000 0.000000
# 2 0.000199 0.012962 -0.007193 0.000000 0.000000 0.000000
# 3 -0.006546 -0.007193 0.013549 0.000000 0.000000 0.000000
# 4 0.000000 0.000000 0.000000 0.034069 0.000000 0.000000
# 5 0.000000 0.000000 0.000000 0.000000 0.059855 0.000000
# 6 0.000000 0.000000 0.000000 0.000000 0.000000 0.023313
#
#
# Mechanical properties :
#
#
# Convention : Reuss Voigt Hill
#
# Bulk Modulus (GPa) = 37.47474 56.68896 47.08185
# Shear Modulus (GPa) = 24.15756 29.08476 26.62116
#
# Velocity S-wave (km/s) = 3.50090 3.84137 3.67508
# Velocity P-wave (km/s) = 5.94597 6.95959 6.47265
#
# Compressibility (1/GPa) = 0.02668464
#
# Stress axis : x y z
#
# Youngs Moduli (GPa) = 36.69433 77.14896 73.80522
#
# Poissons Ratio (x) = -0.01537 0.48312
# Poissons Ratio (y) = -0.00731 0.53085
# Poissons Ratio (z) = 0.24020 0.55490
#
# Static dielectric constant tensor:
#      x y z
#    x 1.886120 0.000000 0.000000 
#    y 0.000000 1.697460 0.000000 
#    z 0.000000 0.000000 1.696970 
# 
# From -- ./inp_files/44855.got.cif
#   From: 2010.05.17/outbox.ucp.g08.bks.cvg/sg52_23_cif.got.tgz:44855.got - 2010.06.11 16:30:12.
