data_PCOD9413558
_publ_section_title
;
Structure prediction by ZEFSAII (Michael W. Deem and Ramdas Pophale) SiO2 
 PCOD9413558
Probable space group: P N N A
;
_chemical_formula_sum "Si O2"
_cell_formula_units_Z 36
_cell_length_a 4.995839
_cell_length_b 12.235639
_cell_length_c 23.159327
_cell_angle_alpha 90.000000
_cell_angle_beta 90.000000
_cell_angle_gamma 90.000000
_cell_volume 1415.666724
_symmetry_space_group_name_H-M "P N N A"
_symmetry_group_IT_number 52
_symmetry_cell_setting 'orthorhombic'
loop_
_space_group_symop_operation_xyz
x,y,z
1/2-x,-y,z
x,1/2-y,1/2-z
1/2-x,1/2+y,1/2-z
-x,-y,-z
1/2+x,y,-z
-x,1/2+y,1/2+z
1/2+x,1/2-y,1/2+z
loop_
_atom_site_type_symbol
_atom_site_label
_atom_site_fract_x
_atom_site_fract_y
_atom_site_fract_z
Si Si1 0.106205 0.112434 0.700779
Si Si2 0.250000 0.000000 0.381504
Si Si3 0.959192 0.164746 0.463877
Si Si4 0.687391 0.344888 0.331793
Si Si5 0.671086 0.384686 0.594441
O O1 0.262569 0.218508 0.679441
O O2 0.073282 0.119615 0.769519
O O3 0.848252 0.096026 0.661550
O O4 0.250000 0.000000 0.689207
O O5 0.452168 0.933962 0.422782
O O6 0.148553 0.155912 0.520438
O O7 0.039029 0.285514 0.440698
O O8 0.447947 0.347381 0.377181
O O9 0.949078 0.406473 0.355359
O O10 0.750000 0.500000 0.564539
#
# Coordination Sequence:
#
# PCOD9413558 Si02
#       5
#     8   4   8   8   8
#     4  11  25  41  73 106 150 195 242 292 377 453
#     4  12  26  46  74 108 150 192 246 314 372 452
#     4  12  28  49  75 106 143 195 260 317 373 424
#     4  11  26  45  69 110 152 191 237 300 365 459
#     4  12  25  48  74 104 149 190 247 303 371 440
#
# _framework density 25.429715000000002
#
# number of rings (size 3 to 8) (size 9 to 14) (size 15 to 20)
#    0.000    0.444    2.222    5.333    7.778    2.667 
#    0.000    0.000    0.000    0.000    0.000    0.000 
#    0.000    0.000    0.000    0.000    0.000    0.000 
#
# Total GULP energy -201594.622761 kJ/mol
# GULP energy per Si atom -5599.850632 kJ/mol
# Density = 2.537184 g / cm^3
# Si number density = 25.429715 Si / 1000 Ang^3
#
#
#
# Elastic Constant Matrix: (Units=GPa)
#
#
# Indices 1 2 3 4 5 6 
#
# 1 75.8490 7.6752 14.7744 0.0000 0.0000 0.0000
# 2 7.6752 140.8054 34.7785 0.0000 0.0000 0.0000
# 3 14.7744 34.7785 69.0185 0.0000 0.0000 0.0000
# 4 0.0000 0.0000 0.0000 47.9913 0.0000 0.0000
# 5 0.0000 0.0000 0.0000 0.0000 31.9906 0.0000
# 6 0.0000 0.0000 0.0000 0.0000 0.0000 47.5951
#
#
#
# Elastic Compliance Matrix: (Units=1/GPa)
#
#
# Indices 1 2 3 4 5 6 
#
# 1 0.013758 -0.000026 -0.002932 0.000000 0.000000 0.000000
# 2 -0.000026 0.008112 -0.004082 0.000000 0.000000 0.000000
# 3 -0.002932 -0.004082 0.017173 0.000000 0.000000 0.000000
# 4 0.000000 0.000000 0.000000 0.020837 0.000000 0.000000
# 5 0.000000 0.000000 0.000000 0.000000 0.031259 0.000000
# 6 0.000000 0.000000 0.000000 0.000000 0.000000 0.021011
#
#
# Mechanical properties :
#
#
# Convention : Reuss Voigt Hill
#
# Bulk Modulus (GPa) = 40.05873 44.45879 42.25876
# Shear Modulus (GPa) = 37.16080 40.74506 38.95293
#
# Velocity S-wave (km/s) = 3.82686 4.00717 3.91805
# Velocity P-wave (km/s) = 5.94251 6.23946 6.09279
#
# Compressibility (1/GPa) = 0.02496335
#
# Stress axis : x y z
#
# Youngs Moduli (GPa) = 72.68591 123.27971 58.22949
#
# Poissons Ratio (x) = 0.00317 0.17073
# Poissons Ratio (y) = 0.00187 0.23769
# Poissons Ratio (z) = 0.21312 0.50322
#
# Static dielectric constant tensor:
#      x y z
#    x 2.077730 0.000000 0.000000 
#    y 0.000000 2.047680 0.000000 
#    z 0.000000 0.000000 2.077730 
# 
# From -- ./inp_files/38580.got.cif
#   From: 2010.05.17/outbox.cif.g08.bks.cpg/sg52_20_cif.got.tgz:38580.got - 2010.06.03 12:15:38.
