data_PCOD9413635
_publ_section_title
;
Structure prediction by ZEFSAII (Michael W. Deem and Ramdas Pophale) SiO2 
 PCOD9413635
Probable space group: P N N A
;
_chemical_formula_sum "Si O2"
_cell_formula_units_Z 36
_cell_length_a 22.715430
_cell_length_b 12.511208
_cell_length_c 5.028083
_cell_angle_alpha 90.000000
_cell_angle_beta 90.000000
_cell_angle_gamma 90.000000
_cell_volume 1428.968465
_symmetry_space_group_name_H-M "P N N A"
_symmetry_group_IT_number 52
_symmetry_cell_setting 'orthorhombic'
loop_
_space_group_symop_operation_xyz
x,y,z
1/2-x,-y,z
x,1/2-y,1/2-z
1/2-x,1/2+y,1/2-z
-x,-y,-z
1/2+x,y,-z
-x,1/2+y,1/2+z
1/2+x,1/2-y,1/2+z
loop_
_atom_site_type_symbol
_atom_site_label
_atom_site_fract_x
_atom_site_fract_y
_atom_site_fract_z
Si Si1 0.668927 0.433816 0.904007
Si Si2 0.592839 0.067722 0.121561
Si Si3 0.527564 0.641972 0.409871
Si Si4 0.783686 0.162197 0.451100
Si Si5 0.890381 0.250000 0.750000
O O1 0.623989 0.383793 0.118529
O O2 0.728184 0.365531 0.860990
O O3 0.689531 0.541377 0.066643
O O4 0.639212 0.453909 0.618361
O O5 0.540174 0.133478 0.986018
O O6 0.556365 0.962498 0.218580
O O7 0.537579 0.750000 0.250000
O O8 0.566596 0.654843 0.675361
O O9 0.757236 0.250000 0.250000
O O10 0.842988 0.223469 0.528747
#
# Coordination Sequence:
#
# PCOD9413635 Si02
#       5
#     8   8   8   8   4
#     4  11  26  48  71 105 148 186 236 302 363 430
#     4  11  26  48  71 106 147 186 238 303 366 428
#     4  11  26  43  75 102 143 193 241 298 361 437
#     4  11  26  43  74 102 142 192 240 295 360 436
#     4  12  22  44  68 104 134 190 244 292 340 452
#
# _framework density 25.192997999999999
#
# number of rings (size 3 to 8) (size 9 to 14) (size 15 to 20)
#    0.000    0.889    2.222    3.333    6.222    5.333 
#    0.000    0.000    0.000    0.000    0.000    0.000 
#    0.000    0.000    0.000    0.000    0.000    0.000 
#
# Total GULP energy -200653.882040 kJ/mol
# GULP energy per Si atom -5573.718946 kJ/mol
# Density = 2.513566 g / cm^3
# Si number density = 25.192998 Si / 1000 Ang^3
#
#
#
# Elastic Constant Matrix: (Units=GPa)
#
#
# Indices 1 2 3 4 5 6 
#
# 1 145.1648 15.8208 36.6145 0.0000 0.0000 0.0000
# 2 15.8208 50.8484 23.4148 0.0000 0.0000 0.0000
# 3 36.6145 23.4148 99.7518 0.0000 0.0000 0.0000
# 4 0.0000 0.0000 0.0000 29.4066 0.0000 0.0000
# 5 0.0000 0.0000 0.0000 0.0000 20.9698 0.0000
# 6 0.0000 0.0000 0.0000 0.0000 0.0000 35.1454
#
#
#
# Elastic Compliance Matrix: (Units=1/GPa)
#
#
# Indices 1 2 3 4 5 6 
#
# 1 0.007659 -0.001220 -0.002525 0.000000 0.000000 0.000000
# 2 -0.001220 0.022244 -0.004773 0.000000 0.000000 0.000000
# 3 -0.002525 -0.004773 0.012072 0.000000 0.000000 0.000000
# 4 0.000000 0.000000 0.000000 0.034006 0.000000 0.000000
# 5 0.000000 0.000000 0.000000 0.000000 0.047688 0.000000
# 6 0.000000 0.000000 0.000000 0.000000 0.000000 0.028453
#
#
# Mechanical properties :
#
#
# Convention : Reuss Voigt Hill
#
# Bulk Modulus (GPa) = 40.09973 49.71836 44.90904
# Shear Modulus (GPa) = 28.17363 31.76534 29.96948
#
# Velocity S-wave (km/s) = 3.34774 3.55474 3.45279
# Velocity P-wave (km/s) = 5.55831 6.05195 5.81037
#
# Compressibility (1/GPa) = 0.02493783
#
# Stress axis : x y z
#
# Youngs Moduli (GPa) = 130.57375 44.95581 82.83590
#
# Poissons Ratio (x) = 0.05486 0.20913
# Poissons Ratio (y) = 0.15934 0.39541
# Poissons Ratio (z) = 0.32966 0.21459
#
# Static dielectric constant tensor:
#      x y z
#    x 1.915820 0.000000 0.000000 
#    y 0.000000 2.065190 0.000000 
#    z 0.000000 0.000000 2.139820 
# 
# From -- ./inp_files/4884.got.cif
#   From: 2010.05.17/outbox.cif.g08.bks.cpg/sg52_3_cif.got.tgz:4884.got - 2010.06.03 12:15:38.
