data_PCOD9413235
_publ_section_title
;
Structure prediction by ZEFSAII (Michael W. Deem and Ramdas Pophale) SiO2 
 PCOD9413235
Probable space group: P N N A
;
_chemical_formula_sum "Si O2"
_cell_formula_units_Z 28
_cell_length_a 8.099790
_cell_length_b 7.808191
_cell_length_c 17.074923
_cell_angle_alpha 90.000000
_cell_angle_beta 90.000000
_cell_angle_gamma 90.000000
_cell_volume 1079.898509
_symmetry_space_group_name_H-M "P N N A"
_symmetry_group_IT_number 52
_symmetry_cell_setting 'orthorhombic'
loop_
_space_group_symop_operation_xyz
x,y,z
1/2-x,-y,z
x,1/2-y,1/2-z
1/2-x,1/2+y,1/2-z
-x,-y,-z
1/2+x,y,-z
-x,1/2+y,1/2+z
1/2+x,1/2-y,1/2+z
loop_
_atom_site_type_symbol
_atom_site_label
_atom_site_fract_x
_atom_site_fract_y
_atom_site_fract_z
Si Si1 0.476797 0.839559 0.175191
Si Si2 0.507831 0.200652 0.108019
Si Si3 0.298130 0.750000 0.750000
Si Si4 0.324283 0.187987 0.538933
O O1 0.384740 0.750000 0.250000
O O2 0.657346 0.871202 0.213443
O O3 0.526610 0.721385 0.100738
O O4 0.432523 0.025238 0.141492
O O5 0.579932 0.306356 0.181235
O O6 0.675666 0.179976 0.057260
O O7 0.384038 0.290049 0.049355
O O8 0.250000 0.000000 0.549769
#
# Coordination Sequence:
#
# PCOD9413235 Si02
#       4
#     8   8   4   8
#     4   9  21  36  66  95 124 178 250 284 330 407
#     4  11  22  41  65  97 137 178 237 295 342 415
#     4   8  18  32  64  86 130 172 240 272 338 404
#     4  11  23  37  64 101 137 178 227 291 356 410
#
# _framework density 25.928362
#
# number of rings (size 3 to 8) (size 9 to 14) (size 15 to 20)
#    0.857    1.143    0.000    5.143    8.000    0.000 
#    0.000    0.000    3.143    3.429    0.000    0.000 
#    0.000    0.000    0.000    0.000    0.000    0.000 
#
# Total GULP energy -156053.808894 kJ/mol
# GULP energy per Si atom -5573.350318 kJ/mol
# Density = 2.586935 g / cm^3
# Si number density = 25.928362 Si / 1000 Ang^3
#
#
#
# Elastic Constant Matrix: (Units=GPa)
#
#
# Indices 1 2 3 4 5 6 
#
# 1 72.8150 5.4208 38.9059 0.0000 0.0000 0.0000
# 2 5.4208 102.5422 42.6765 0.0000 0.0000 0.0000
# 3 38.9059 42.6765 183.4598 0.0000 0.0000 0.0000
# 4 0.0000 0.0000 0.0000 42.3133 0.0000 0.0000
# 5 0.0000 0.0000 0.0000 0.0000 33.2896 0.0000
# 6 0.0000 0.0000 0.0000 0.0000 0.0000 -5.4054
#
#
#
# Elastic Compliance Matrix: (Units=1/GPa)
#
#
# Indices 1 2 3 4 5 6 
#
# 1 0.015523 0.000608 -0.003433 0.000000 0.000000 0.000000
# 2 0.000608 0.010821 -0.002646 0.000000 0.000000 0.000000
# 3 -0.003433 -0.002646 0.006794 0.000000 0.000000 0.000000
# 4 0.000000 0.000000 0.000000 0.023633 0.000000 0.000000
# 5 0.000000 0.000000 0.000000 0.000000 0.030039 0.000000
# 6 0.000000 0.000000 0.000000 0.000000 0.000000 -0.185001
#
#
# Mechanical properties :
#
#
# Convention : Reuss Voigt Hill
#
# Bulk Modulus (GPa) = 45.05360 59.20258 52.12809
# Shear Modulus (GPa) = -62.61808 32.16043 -15.22883
#
# Velocity S-wave (km/s) = -4.91964 3.52569 -2.42614
# Velocity P-wave (km/s) = 3.85442 6.28146 3.50715
#
# Compressibility (1/GPa) = 0.02219579
#
# Stress axis : x y z
#
# Youngs Moduli (GPa) = 64.42203 92.41080 147.17872
#
# Poissons Ratio (x) = -0.05622 0.50532
# Poissons Ratio (y) = -0.03919 0.38947
# Poissons Ratio (z) = 0.22118 0.24454
#
# Static dielectric constant tensor:
#      x y z
#    x 2.076010 0.000000 0.000000 
#    y 0.000000 2.181270 0.000000 
#    z 0.000000 0.000000 2.293470 
# 
# From -- ./inp_files/30654.got.cif
#   From: 2010.05.17/outbox.cif.g08.bks.cpg/sg52_16_cif.got.tgz:30654.got - 2010.06.03 12:15:38.
