data_PCOD9413637
_publ_section_title
;
Structure prediction by ZEFSAII (Michael W. Deem and Ramdas Pophale) SiO2 
 PCOD9413637
Probable space group: P N N A
;
_chemical_formula_sum "Si O2"
_cell_formula_units_Z 40
_cell_length_a 9.173680
_cell_length_b 10.465412
_cell_length_c 18.176489
_cell_angle_alpha 90.000000
_cell_angle_beta 90.000000
_cell_angle_gamma 90.000000
_cell_volume 1745.058197
_symmetry_space_group_name_H-M "P N N A"
_symmetry_group_IT_number 52
_symmetry_cell_setting 'orthorhombic'
loop_
_space_group_symop_operation_xyz
x,y,z
1/2-x,-y,z
x,1/2-y,1/2-z
1/2-x,1/2+y,1/2-z
-x,-y,-z
1/2+x,y,-z
-x,1/2+y,1/2+z
1/2+x,1/2-y,1/2+z
loop_
_atom_site_type_symbol
_atom_site_label
_atom_site_fract_x
_atom_site_fract_y
_atom_site_fract_z
Si Si1 0.722208 0.867294 0.303733
Si Si2 0.773929 0.146475 0.534090
Si Si3 0.572313 0.244641 0.419028
Si Si4 0.927264 0.503487 0.581150
Si Si5 0.424960 0.768204 0.336822
O O1 0.715664 0.750000 0.250000
O O2 0.855850 0.841684 0.357277
O O3 0.566171 0.859144 0.343538
O O4 0.750000 0.000000 0.264523
O O5 0.700367 0.250392 0.479768
O O6 0.702778 0.171661 0.614076
O O7 0.943141 0.174244 0.538971
O O8 0.750000 0.000000 0.510702
O O9 0.501933 0.374342 0.387238
O O10 0.750000 0.500000 0.579293
O O11 0.963863 0.630286 0.627552
O O12 0.000000 0.500000 0.500000
O O13 0.389093 0.750000 0.250000
#
# Coordination Sequence:
#
# PCOD9413637 Si02
#       5
#     8   8   8   8   8
#     4  11  27  48  72 107 144 194 245 302 375 448
#     4  12  24  44  70 103 140 193 235 310 371 442
#     4  12  24  43  74 103 144 181 251 301 369 440
#     4  12  25  46  74 111 142 192 254 313 376 436
#     4  11  26  45  70 104 151 191 245 309 376 451
#
# _framework density 22.921870999999999
#
# number of rings (size 3 to 8) (size 9 to 14) (size 15 to 20)
#    0.000    0.400    4.000    3.600    8.400    1.600 
#    0.000    0.000    0.000    0.000    0.000    0.000 
#    0.000    0.000    0.000    0.000    0.000    0.000 
#
# Total GULP energy -223709.444600 kJ/mol
# GULP energy per Si atom -5592.736115 kJ/mol
# Density = 2.286970 g / cm^3
# Si number density = 22.921871 Si / 1000 Ang^3
#
#
#
# Elastic Constant Matrix: (Units=GPa)
#
#
# Indices 1 2 3 4 5 6 
#
# 1 77.0236 -27.3424 3.0630 0.0000 0.0000 0.0000
# 2 -27.3424 66.1284 16.8385 0.0000 0.0000 0.0000
# 3 3.0630 16.8385 66.9316 0.0000 0.0000 0.0000
# 4 0.0000 0.0000 0.0000 33.4203 0.0000 0.0000
# 5 0.0000 0.0000 0.0000 0.0000 31.9110 0.0000
# 6 0.0000 0.0000 0.0000 0.0000 0.0000 -77.3460
#
#
#
# Elastic Compliance Matrix: (Units=1/GPa)
#
#
# Indices 1 2 3 4 5 6 
#
# 1 0.015597 0.007085 -0.002496 0.000000 0.000000 0.000000
# 2 0.007085 0.019375 -0.005199 0.000000 0.000000 0.000000
# 3 -0.002496 -0.005199 0.016363 0.000000 0.000000 0.000000
# 4 0.000000 0.000000 0.000000 0.029922 0.000000 0.000000
# 5 0.000000 0.000000 0.000000 0.000000 0.031337 0.000000
# 6 0.000000 0.000000 0.000000 0.000000 0.000000 -0.012929
#
#
# Mechanical properties :
#
#
# Convention : Reuss Voigt Hill
#
# Bulk Modulus (GPa) = 19.95407 21.68908 20.82158
# Shear Modulus (GPa) = 42.52046 12.09869 27.30957
#
# Velocity S-wave (km/s) = 4.31166 2.29993 3.45544
# Velocity P-wave (km/s) = 5.78890 4.06640 5.00235
#
# Compressibility (1/GPa) = 0.05011508
#
# Stress axis : x y z
#
# Youngs Moduli (GPa) = 64.11377 51.61245 61.11455
#
# Poissons Ratio (x) = -0.36566 0.15255
# Poissons Ratio (y) = -0.45423 0.31771
# Poissons Ratio (z) = 0.16004 0.26831
#
# Static dielectric constant tensor:
#      x y z
#    x 1.838580 0.000000 0.000000 
#    y 0.000000 1.960670 0.000000 
#    z 0.000000 0.000000 1.899510 
# 
# From -- ./inp_files/30862.got.cif
#   From: 2010.05.17/outbox.cif.g08.bks.cpg/sg52_16_cif.got.tgz:30862.got - 2010.06.03 12:15:38.
