data_PCOD9413567
_publ_section_title
;
Structure prediction by ZEFSAII (Michael W. Deem and Ramdas Pophale) SiO2 
 PCOD9413567
Probable space group: P N N A
;
_chemical_formula_sum "Si O2"
_cell_formula_units_Z 36
_cell_length_a 11.519507
_cell_length_b 16.844326
_cell_length_c 9.294771
_cell_angle_alpha 90.000000
_cell_angle_beta 90.000000
_cell_angle_gamma 90.000000
_cell_volume 1803.541854
_symmetry_space_group_name_H-M "P N N A"
_symmetry_group_IT_number 52
_symmetry_cell_setting 'orthorhombic'
loop_
_space_group_symop_operation_xyz
x,y,z
1/2-x,-y,z
x,1/2-y,1/2-z
1/2-x,1/2+y,1/2-z
-x,-y,-z
1/2+x,y,-z
-x,1/2+y,1/2+z
1/2+x,1/2-y,1/2+z
loop_
_atom_site_type_symbol
_atom_site_label
_atom_site_fract_x
_atom_site_fract_y
_atom_site_fract_z
Si Si1 0.590388 0.425659 0.213402
Si Si2 0.853354 0.109476 0.237590
Si Si3 0.027643 0.180756 0.457114
Si Si4 0.080192 0.664773 0.419266
Si Si5 0.220633 0.250000 0.250000
O O1 0.715027 0.385845 0.246691
O O2 0.608895 0.519470 0.226279
O O3 0.495241 0.396115 0.326912
O O4 0.552143 0.394699 0.057152
O O5 0.920556 0.164619 0.350403
O O6 0.890489 0.131062 0.076267
O O7 0.138191 0.203998 0.361384
O O8 0.993514 0.254737 0.557454
O O9 0.196468 0.689605 0.335419
#
# Coordination Sequence:
#
# PCOD9413567 Si02
#       5
#     8   8   8   8   4
#     4  11  25  44  67  96 134 172 217 270 332 389
#     4  11  25  44  67  96 134 172 217 270 332 389
#     4  12  23  44  69  97 132 174 221 271 326 395
#     4  12  23  44  69  97 132 174 221 271 326 395
#     4  12  24  40  70 104 132 172 232 270 332 384
#
# _framework density 19.960723000000002
#
# number of rings (size 3 to 8) (size 9 to 14) (size 15 to 20)
#    0.000    0.444    4.444    4.000    0.000    1.778 
#    0.000    0.000    0.000    0.000    0.000    0.000 
#    0.000    0.000    0.000    0.000    0.000    0.000 
#
# Total GULP energy -201532.397147 kJ/mol
# GULP energy per Si atom -5598.122143 kJ/mol
# Density = 1.991529 g / cm^3
# Si number density = 19.960723 Si / 1000 Ang^3
#
#
#
# Elastic Constant Matrix: (Units=GPa)
#
#
# Indices 1 2 3 4 5 6 
#
# 1 60.1678 8.6326 13.5555 0.0000 0.0000 0.0000
# 2 8.6326 40.5983 3.0249 0.0000 0.0000 0.0000
# 3 13.5555 3.0249 83.5794 0.0000 0.0000 0.0000
# 4 0.0000 0.0000 0.0000 40.0554 0.0000 0.0000
# 5 0.0000 0.0000 0.0000 0.0000 30.6048 0.0000
# 6 0.0000 0.0000 0.0000 0.0000 0.0000 35.2596
#
#
#
# Elastic Compliance Matrix: (Units=1/GPa)
#
#
# Indices 1 2 3 4 5 6 
#
# 1 0.017752 -0.003570 -0.002750 0.000000 0.000000 0.000000
# 2 -0.003570 0.025416 -0.000341 0.000000 0.000000 0.000000
# 3 -0.002750 -0.000341 0.012423 0.000000 0.000000 0.000000
# 4 0.000000 0.000000 0.000000 0.024965 0.000000 0.000000
# 5 0.000000 0.000000 0.000000 0.000000 0.032675 0.000000
# 6 0.000000 0.000000 0.000000 0.000000 0.000000 0.028361
#
#
# Mechanical properties :
#
#
# Convention : Reuss Voigt Hill
#
# Bulk Modulus (GPa) = 23.65755 26.08570 24.87162
# Shear Modulus (GPa) = 29.58525 31.79279 30.68902
#
# Velocity S-wave (km/s) = 3.85408 3.99528 3.92531
# Velocity P-wave (km/s) = 5.62876 5.86344 5.74730
#
# Compressibility (1/GPa) = 0.04226981
#
# Stress axis : x y z
#
# Youngs Moduli (GPa) = 56.33196 39.34521 80.49576
#
# Poissons Ratio (x) = 0.14045 0.22136
# Poissons Ratio (y) = 0.20109 0.02744
# Poissons Ratio (z) = 0.15491 0.01341
#
# Static dielectric constant tensor:
#      x y z
#    x 1.672650 0.000000 0.000000 
#    y 0.000000 1.689400 0.000000 
#    z 0.000000 0.000000 1.678810 
# 
# From -- ./inp_files/8502.got.cif
#   From: 2010.05.17/outbox.cif.g08.bks.cpg/sg52_5_cif.got.tgz:8502.got - 2010.06.03 12:15:38.
