data_PCOD9413663
_publ_section_title
;
Structure prediction by ZEFSAII (Michael W. Deem and Ramdas Pophale) SiO2 
 PCOD9413663
Probable space group: P N N A
;
_chemical_formula_sum "Si O2"
_cell_formula_units_Z 32
_cell_length_a 12.477787
_cell_length_b 10.759335
_cell_length_c 8.317752
_cell_angle_alpha 90.000000
_cell_angle_beta 90.000000
_cell_angle_gamma 90.000000
_cell_volume 1116.680584
_symmetry_space_group_name_H-M "P N N A"
_symmetry_group_IT_number 52
_symmetry_cell_setting 'orthorhombic'
loop_
_space_group_symop_operation_xyz
x,y,z
1/2-x,-y,z
x,1/2-y,1/2-z
1/2-x,1/2+y,1/2-z
-x,-y,-z
1/2+x,y,-z
-x,1/2+y,1/2+z
1/2+x,1/2-y,1/2+z
loop_
_atom_site_type_symbol
_atom_site_label
_atom_site_fract_x
_atom_site_fract_y
_atom_site_fract_z
Si Si1 0.692930 0.814732 0.591250
Si Si2 0.666056 0.405558 0.214539
Si Si3 0.526003 0.308019 0.507027
Si Si4 0.548289 0.045595 0.681169
O O1 0.758904 0.845387 0.427310
O O2 0.595453 0.721123 0.546696
O O3 0.566791 0.015897 0.358058
O O4 0.639755 0.943860 0.652269
O O5 0.750000 0.500000 0.295574
O O6 0.255193 0.250000 0.250000
O O7 0.603299 0.165716 0.142953
O O8 0.554603 0.178878 0.595733
O O9 0.539882 0.418136 0.632127
#
# Coordination Sequence:
#
# PCOD9413663 Si02
#       4
#     8   8   8   8
#     4  12  27  54  92 136 198 249 322 399 469 579
#     4  12  27  52  96 144 183 262 321 380 493 572
#     4  11  26  54  95 133 197 246 315 406 478 562
#     4  11  26  56  90 138 197 244 313 413 468 570
#
# _framework density 28.656361
#
# number of rings (size 3 to 8) (size 9 to 14) (size 15 to 20)
#    0.000    0.500    5.000    1.500    0.000    2.000 
#    4.500    3.750    5.500    1.500    0.000    0.000 
#    0.000    0.000    0.000    0.000    0.000    0.000 
#
# Total GULP energy -179384.399085 kJ/mol
# GULP energy per Si atom -5605.762471 kJ/mol
# Density = 2.859114 g / cm^3
# Si number density = 28.656361 Si / 1000 Ang^3
#
#
#
# Elastic Constant Matrix: (Units=GPa)
#
#
# Indices 1 2 3 4 5 6 
#
# 1 238.3819 87.7669 106.6747 0.0000 0.0000 0.0000
# 2 87.7669 155.5747 121.1515 0.0000 0.0000 0.0000
# 3 106.6747 121.1515 248.1444 0.0000 0.0000 0.0000
# 4 0.0000 0.0000 0.0000 97.7074 0.0000 0.0000
# 5 0.0000 0.0000 0.0000 0.0000 57.9576 0.0000
# 6 0.0000 0.0000 0.0000 0.0000 0.0000 73.4233
#
#
#
# Elastic Compliance Matrix: (Units=1/GPa)
#
#
# Indices 1 2 3 4 5 6 
#
# 1 0.005577 -0.002064 -0.001390 0.000000 0.000000 0.000000
# 2 -0.002064 0.011135 -0.004549 0.000000 0.000000 0.000000
# 3 -0.001390 -0.004549 0.006848 0.000000 0.000000 0.000000
# 4 0.000000 0.000000 0.000000 0.010235 0.000000 0.000000
# 5 0.000000 0.000000 0.000000 0.000000 0.017254 0.000000
# 6 0.000000 0.000000 0.000000 0.000000 0.000000 0.013620
#
#
# Mechanical properties :
#
#
# Convention : Reuss Voigt Hill
#
# Bulk Modulus (GPa) = 132.37304 141.47637 136.92470
# Shear Modulus (GPa) = 60.10253 67.58485 63.84369
#
# Velocity S-wave (km/s) = 4.58466 4.86167 4.72519
# Velocity P-wave (km/s) = 8.62084 8.99953 8.81222
#
# Compressibility (1/GPa) = 0.00755441
#
# Stress axis : x y z
#
# Youngs Moduli (GPa) = 179.31711 89.81044 146.02155
#
# Poissons Ratio (x) = 0.18535 0.20293
# Poissons Ratio (y) = 0.37008 0.66425
# Poissons Ratio (z) = 0.24920 0.40855
#
# Static dielectric constant tensor:
#      x y z
#    x 2.248370 0.000000 0.000000 
#    y 0.000000 2.509840 0.000000 
#    z 0.000000 0.000000 2.358260 
# 
# From -- ./inp_files/9669.got.cif
#   From: 2010.05.17/outbox.cif.g08.bks.cpg/sg52_5_cif.got.tgz:9669.got - 2010.06.03 12:15:38.
