data_PCOD9413664
_publ_section_title
;
Structure prediction by ZEFSAII (Michael W. Deem and Ramdas Pophale) SiO2 
 PCOD9413664
Probable space group: P N N A
;
_chemical_formula_sum "Si O2"
_cell_formula_units_Z 28
_cell_length_a 5.131782
_cell_length_b 9.639578
_cell_length_c 24.279098
_cell_angle_alpha 90.000000
_cell_angle_beta 90.000000
_cell_angle_gamma 90.000000
_cell_volume 1201.043588
_symmetry_space_group_name_H-M "P N N A"
_symmetry_group_IT_number 52
_symmetry_cell_setting 'orthorhombic'
loop_
_space_group_symop_operation_xyz
x,y,z
1/2-x,-y,z
x,1/2-y,1/2-z
1/2-x,1/2+y,1/2-z
-x,-y,-z
1/2+x,y,-z
-x,1/2+y,1/2+z
1/2+x,1/2-y,1/2+z
loop_
_atom_site_type_symbol
_atom_site_label
_atom_site_fract_x
_atom_site_fract_y
_atom_site_fract_z
Si Si1 0.820865 0.836874 0.973999
Si Si2 0.691246 0.750000 0.250000
Si Si3 0.485997 0.911854 0.670090
Si Si4 0.680328 0.159752 0.850033
O O1 0.927855 0.828189 0.912060
O O2 0.750000 0.000000 0.983992
O O3 0.536947 0.774623 0.985644
O O4 0.509074 0.788273 0.198327
O O5 0.879671 0.872903 0.269386
O O6 0.569089 0.761150 0.648261
O O7 0.750000 0.000000 0.670714
O O8 0.250000 0.000000 0.643638
O O9 0.750000 0.000000 0.840807
#
# Coordination Sequence:
#
# PCOD9413664 Si02
#       4
#     8   4   8   8
#     4   9  20  41  68 100 138 176 231 301 359 407
#     4  12  28  44  74 104 148 188 238 290 352 436
#     4  12  28  47  66  99 148 193 230 289 359 427
#     4  11  27  45  75 110 143 188 244 294 356 434
#
# _framework density 23.313061000000001
#
# number of rings (size 3 to 8) (size 9 to 14) (size 15 to 20)
#    0.000    1.143    2.857    0.857   12.000    0.000 
#    0.000    0.000    0.000    5.143    0.000    0.000 
#    0.000    0.000    0.000    0.000    0.000    0.000 
#
# Total GULP energy -156299.847783 kJ/mol
# GULP energy per Si atom -5582.137421 kJ/mol
# Density = 2.326000 g / cm^3
# Si number density = 23.313061 Si / 1000 Ang^3
#
#
#
# Elastic Constant Matrix: (Units=GPa)
#
#
# Indices 1 2 3 4 5 6 
#
# 1 163.2698 47.3264 52.1347 0.0000 0.0000 0.0000
# 2 47.3264 124.2327 2.1199 0.0000 0.0000 0.0000
# 3 52.1347 2.1199 101.5290 0.0000 0.0000 0.0000
# 4 0.0000 0.0000 0.0000 13.5591 0.0000 0.0000
# 5 0.0000 0.0000 0.0000 0.0000 30.1845 0.0000
# 6 0.0000 0.0000 0.0000 0.0000 0.0000 -5.6626
#
#
#
# Elastic Compliance Matrix: (Units=1/GPa)
#
#
# Indices 1 2 3 4 5 6 
#
# 1 0.008383 -0.003121 -0.004240 0.000000 0.000000 0.000000
# 2 -0.003121 0.009214 0.001410 0.000000 0.000000 0.000000
# 3 -0.004240 0.001410 0.011997 0.000000 0.000000 0.000000
# 4 0.000000 0.000000 0.000000 0.073751 0.000000 0.000000
# 5 0.000000 0.000000 0.000000 0.000000 0.033130 0.000000
# 6 0.000000 0.000000 0.000000 0.000000 0.000000 -0.176597
#
#
# Mechanical properties :
#
#
# Convention : Reuss Voigt Hill
#
# Bulk Modulus (GPa) = 56.51753 65.79928 61.15840
# Shear Modulus (GPa) = -223.99085 26.77957 -98.60564
#
# Velocity S-wave (km/s) = -9.81265 3.39292 -6.51062
# Velocity P-wave (km/s) = 10.20239 6.60565 5.49791
#
# Compressibility (1/GPa) = 0.01769363
#
# Stress axis : x y z
#
# Youngs Moduli (GPa) = 119.28351 108.52574 83.35414
#
# Poissons Ratio (x) = 0.33874 0.35339
# Poissons Ratio (y) = 0.37232 -0.11756
# Poissons Ratio (z) = 0.50572 -0.15306
#
# Static dielectric constant tensor:
#      x y z
#    x 1.967630 0.000000 0.000000 
#    y 0.000000 1.947070 0.000000 
#    z 0.000000 0.000000 1.883510 
# 
# From -- ./inp_files/34744.got.cif
#   From: 2010.05.17/outbox.cif.g08.bks.cpg/sg52_18_cif.got.tgz:34744.got - 2010.06.03 12:15:38.
