data_PCOD9413842
_publ_section_title
;
Structure prediction by ZEFSAII (Michael W. Deem and Ramdas Pophale) SiO2 
 PCOD9413842
Probable space group: P N N A
;
_chemical_formula_sum "Si O2"
_cell_formula_units_Z 40
_cell_length_a 9.763944
_cell_length_b 21.614276
_cell_length_c 8.936369
_cell_angle_alpha 90.000000
_cell_angle_beta 90.000000
_cell_angle_gamma 90.000000
_cell_volume 1885.936501
_symmetry_space_group_name_H-M "P N N A"
_symmetry_group_IT_number 52
_symmetry_cell_setting 'orthorhombic'
loop_
_space_group_symop_operation_xyz
x,y,z
1/2-x,-y,z
x,1/2-y,1/2-z
1/2-x,1/2+y,1/2-z
-x,-y,-z
1/2+x,y,-z
-x,1/2+y,1/2+z
1/2+x,1/2-y,1/2+z
loop_
_atom_site_type_symbol
_atom_site_label
_atom_site_fract_x
_atom_site_fract_y
_atom_site_fract_z
Si Si1 0.394000 0.744215 0.427205
Si Si2 0.163648 0.828359 0.924663
Si Si3 0.885157 0.040886 0.924544
Si Si4 0.982441 0.436062 0.910433
Si Si5 0.754196 0.141281 0.410967
O O1 0.378772 0.750000 0.250000
O O2 0.302877 0.689061 0.492350
O O3 0.550562 0.724572 0.458421
O O4 0.328374 0.804573 0.503157
O O5 0.190344 0.833990 0.747675
O O6 0.119422 0.894212 0.988990
O O7 0.916395 0.052649 0.750929
O O8 0.750000 0.000000 0.938353
O O9 0.000000 0.000000 0.000000
O O10 0.134552 0.408978 0.886946
O O11 0.000000 0.500000 0.000000
O O12 0.880876 0.389280 0.999447
#
# Coordination Sequence:
#
# PCOD9413842 Si02
#       5
#     8   8   8   8   8
#     4  12  25  44  67  96 131 171 219 273 333 400
#     4  12  26  45  68  98 133 175 222 277 337 403
#     4  12  25  44  67  97 134 177 225 279 341 408
#     4  12  25  44  70 102 139 182 229 284 345 413
#     4  12  25  45  70 101 137 179 229 283 343 412
#
# _framework density 21.209620999999999
#
# number of rings (size 3 to 8) (size 9 to 14) (size 15 to 20)
#    0.000    0.000    0.000   12.000    0.000    1.600 
#    0.000    0.000    0.000    0.000    0.000    0.000 
#    0.000    0.000    0.000    0.000    0.000    0.000 
#
# Total GULP energy -224033.540222 kJ/mol
# GULP energy per Si atom -5600.838506 kJ/mol
# Density = 2.116135 g / cm^3
# Si number density = 21.209621 Si / 1000 Ang^3
#
#
#
# Elastic Constant Matrix: (Units=GPa)
#
#
# Indices 1 2 3 4 5 6 
#
# 1 137.7212 20.9554 37.3614 0.0000 0.0000 0.0000
# 2 20.9554 96.7103 24.4733 0.0000 0.0000 0.0000
# 3 37.3614 24.4733 109.5985 0.0000 0.0000 0.0000
# 4 0.0000 0.0000 0.0000 46.0766 0.0000 0.0000
# 5 0.0000 0.0000 0.0000 0.0000 38.7703 0.0000
# 6 0.0000 0.0000 0.0000 0.0000 0.0000 61.6861
#
#
#
# Elastic Compliance Matrix: (Units=1/GPa)
#
#
# Indices 1 2 3 4 5 6 
#
# 1 0.008114 -0.001122 -0.002516 0.000000 0.000000 0.000000
# 2 -0.001122 0.011114 -0.002100 0.000000 0.000000 0.000000
# 3 -0.002516 -0.002100 0.010451 0.000000 0.000000 0.000000
# 4 0.000000 0.000000 0.000000 0.021703 0.000000 0.000000
# 5 0.000000 0.000000 0.000000 0.000000 0.025793 0.000000
# 6 0.000000 0.000000 0.000000 0.000000 0.000000 0.016211
#
#
# Mechanical properties :
#
#
# Convention : Reuss Voigt Hill
#
# Bulk Modulus (GPa) = 54.92760 56.62336 55.77548
# Shear Modulus (GPa) = 45.07416 46.72258 45.89837
#
# Velocity S-wave (km/s) = 4.61496 4.69859 4.65697
# Velocity P-wave (km/s) = 7.37231 7.49604 7.43443
#
# Compressibility (1/GPa) = 0.01820578
#
# Stress axis : x y z
#
# Youngs Moduli (GPa) = 123.24149 89.97268 95.68840
#
# Poissons Ratio (x) = 0.10091 0.24071
# Poissons Ratio (y) = 0.13823 0.20090
# Poissons Ratio (z) = 0.31003 0.18890
#
# Static dielectric constant tensor:
#      x y z
#    x 1.732910 0.000000 0.000000 
#    y 0.000000 1.762790 0.000000 
#    z 0.000000 0.000000 1.694770 
# 
# From -- ./inp_files/7421.got.cif
#   From: 2010.05.17/outbox.cif.g08.bks.cpg/sg52_4_cif.got.tgz:7421.got - 2010.06.03 12:15:38.
