data_PCOD9413321
_publ_section_title
;
Structure prediction by ZEFSAII (Michael W. Deem and Ramdas Pophale) SiO2 
 PCOD9413321
Probable space group: P N N A
;
_chemical_formula_sum "Si O2"
_cell_formula_units_Z 32
_cell_length_a 4.949742
_cell_length_b 16.921169
_cell_length_c 18.696832
_cell_angle_alpha 90.000000
_cell_angle_beta 90.000000
_cell_angle_gamma 90.000000
_cell_volume 1565.961033
_symmetry_space_group_name_H-M "P N N A"
_symmetry_group_IT_number 52
_symmetry_cell_setting 'orthorhombic'
loop_
_space_group_symop_operation_xyz
x,y,z
1/2-x,-y,z
x,1/2-y,1/2-z
1/2-x,1/2+y,1/2-z
-x,-y,-z
1/2+x,y,-z
-x,1/2+y,1/2+z
1/2+x,1/2-y,1/2+z
loop_
_atom_site_type_symbol
_atom_site_label
_atom_site_fract_x
_atom_site_fract_y
_atom_site_fract_z
Si Si1 0.211943 0.406852 0.784251
Si Si2 0.220093 0.313102 0.452006
Si Si3 0.997315 0.449058 0.635652
Si Si4 0.763906 0.695196 0.819313
O O1 0.250000 0.500000 0.797459
O O2 0.140139 0.401323 0.699590
O O3 0.460336 0.351223 0.803811
O O4 0.959743 0.372034 0.825722
O O5 0.414827 0.305466 0.520533
O O6 0.332731 0.394868 0.418884
O O7 0.245596 0.249316 0.389213
O O8 0.250000 0.500000 0.604744
O O9 0.750000 0.500000 0.669370
O O10 0.708574 0.750000 0.750000
#
# Coordination Sequence:
#
# PCOD9413321 Si02
#       4
#     8   8   8   8
#     4  11  23  40  69 100 130 163 221 283 333 379
#     4  12  27  43  64  97 140 182 220 267 332 397
#     4  11  23  40  65  98 138 177 218 263 329 409
#     4  12  24  42  70  96 129 175 224 275 326 383
#
# _framework density 20.434735
#
# number of rings (size 3 to 8) (size 9 to 14) (size 15 to 20)
#    0.000    0.500    2.500    7.500    3.500    3.000 
#    0.000    0.000    0.000   15.000    0.000    0.000 
#    0.000    0.000    0.000    0.000    0.000    0.000 
#
# Total GULP energy -178822.342699 kJ/mol
# GULP energy per Si atom -5588.198209 kJ/mol
# Density = 2.038823 g / cm^3
# Si number density = 20.434735 Si / 1000 Ang^3
#
#
#
# Elastic Constant Matrix: (Units=GPa)
#
#
# Indices 1 2 3 4 5 6 
#
# 1 106.0001 24.1230 -4.0962 0.0000 0.0000 0.0000
# 2 24.1230 84.4725 1.6516 0.0000 0.0000 0.0000
# 3 -4.0962 1.6516 66.7636 0.0000 0.0000 0.0000
# 4 0.0000 0.0000 0.0000 32.3853 0.0000 0.0000
# 5 0.0000 0.0000 0.0000 0.0000 84.4233 0.0000
# 6 0.0000 0.0000 0.0000 0.0000 0.0000 75.6481
#
#
#
# Elastic Compliance Matrix: (Units=1/GPa)
#
#
# Indices 1 2 3 4 5 6 
#
# 1 0.010122 -0.002904 0.000693 0.000000 0.000000 0.000000
# 2 -0.002904 0.012677 -0.000492 0.000000 0.000000 0.000000
# 3 0.000693 -0.000492 0.015033 0.000000 0.000000 0.000000
# 4 0.000000 0.000000 0.000000 0.030878 0.000000 0.000000
# 5 0.000000 0.000000 0.000000 0.000000 0.011845 0.000000
# 6 0.000000 0.000000 0.000000 0.000000 0.000000 0.013219
#
#
# Mechanical properties :
#
#
# Convention : Reuss Voigt Hill
#
# Bulk Modulus (GPa) = 30.83974 33.39924 32.11949
# Shear Modulus (GPa) = 45.45932 54.19519 49.82725
#
# Velocity S-wave (km/s) = 4.72169 5.15545 4.94333
# Velocity P-wave (km/s) = 6.69705 7.19848 6.95228
#
# Compressibility (1/GPa) = 0.03242570
#
# Stress axis : x y z
#
# Youngs Moduli (GPa) = 98.79851 78.88246 66.52082
#
# Poissons Ratio (x) = 0.22907 -0.04609
# Poissons Ratio (y) = 0.28691 0.03271
# Poissons Ratio (z) = -0.06845 0.03879
#
# Static dielectric constant tensor:
#      x y z
#    x 1.732950 0.000000 0.000000 
#    y 0.000000 1.488320 0.000000 
#    z 0.000000 0.000000 0.570210 
# 
# From -- ./inp_files/30025.got.cif
#   From: 2010.05.17/outbox.cif.g08.bks.cpg/sg52_16_cif.got.tgz:30025.got - 2010.06.03 12:15:38.
