data_PCOD9413508
_publ_section_title
;
Structure prediction by ZEFSAII (Michael W. Deem and Ramdas Pophale) SiO2 
 PCOD9413508
Probable space group: P N N A
;
_chemical_formula_sum "Si O2"
_cell_formula_units_Z 32
_cell_length_a 5.147937
_cell_length_b 8.858572
_cell_length_c 30.381916
_cell_angle_alpha 90.000000
_cell_angle_beta 90.000000
_cell_angle_gamma 90.000000
_cell_volume 1385.517774
_symmetry_space_group_name_H-M "P N N A"
_symmetry_group_IT_number 52
_symmetry_cell_setting 'orthorhombic'
loop_
_space_group_symop_operation_xyz
x,y,z
1/2-x,-y,z
x,1/2-y,1/2-z
1/2-x,1/2+y,1/2-z
-x,-y,-z
1/2+x,y,-z
-x,1/2+y,1/2+z
1/2+x,1/2-y,1/2+z
loop_
_atom_site_type_symbol
_atom_site_label
_atom_site_fract_x
_atom_site_fract_y
_atom_site_fract_z
Si Si1 0.339074 0.827388 0.380655
Si Si2 0.830316 0.172868 0.291093
Si Si3 0.183480 0.179894 0.478650
Si Si4 0.497195 0.101500 0.164893
O O1 0.522464 0.815268 0.337925
O O2 0.435901 0.799836 0.430026
O O3 0.105272 0.709800 0.373650
O O4 0.250000 0.000000 0.379959
O O5 0.975672 0.250000 0.250000
O O6 0.584275 0.282214 0.297745
O O7 0.750000 0.000000 0.283491
O O8 0.471005 0.242197 0.487443
O O9 0.250000 0.000000 0.484077
O O10 0.750000 0.000000 0.154832
O O11 0.250000 0.000000 0.177096
#
# Coordination Sequence:
#
# PCOD9413508 Si02
#       4
#     8   8   8   8
#     4  11  24  45  77 107 149 192 246 300 369 433
#     4  12  27  48  75 110 146 195 249 305 359 432
#     4   9  20  36  67 108 143 178 232 301 362 426
#     4  12  26  47  72 105 143 194 242 296 360 429
#
# _framework density 23.096057999999999
#
# number of rings (size 3 to 8) (size 9 to 14) (size 15 to 20)
#    0.000    1.000    5.000    0.750    3.500    2.000 
#    4.500    0.000    0.000    4.500    0.000    0.000 
#    0.000    0.000    0.000    0.000    0.000    0.000 
#
# Total GULP energy -178551.831120 kJ/mol
# GULP energy per Si atom -5579.744723 kJ/mol
# Density = 2.304349 g / cm^3
# Si number density = 23.096058 Si / 1000 Ang^3
#
#
#
# Elastic Constant Matrix: (Units=GPa)
#
#
# Indices 1 2 3 4 5 6 
#
# 1 131.1731 48.4507 48.8702 0.0000 0.0000 0.0000
# 2 48.4507 141.3133 26.7326 0.0000 0.0000 0.0000
# 3 48.8702 26.7326 140.7108 0.0000 0.0000 0.0000
# 4 0.0000 0.0000 0.0000 10.5455 0.0000 0.0000
# 5 0.0000 0.0000 0.0000 0.0000 35.5020 0.0000
# 6 0.0000 0.0000 0.0000 0.0000 0.0000 10.4896
#
#
#
# Elastic Compliance Matrix: (Units=1/GPa)
#
#
# Indices 1 2 3 4 5 6 
#
# 1 0.009714 -0.002793 -0.002843 0.000000 0.000000 0.000000
# 2 -0.002793 0.008143 -0.000577 0.000000 0.000000 0.000000
# 3 -0.002843 -0.000577 0.008204 0.000000 0.000000 0.000000
# 4 0.000000 0.000000 0.000000 0.094827 0.000000 0.000000
# 5 0.000000 0.000000 0.000000 0.000000 0.028167 0.000000
# 6 0.000000 0.000000 0.000000 0.000000 0.000000 0.095332
#
#
# Mechanical properties :
#
#
# Convention : Reuss Voigt Hill
#
# Bulk Modulus (GPa) = 73.34027 73.47823 73.40925
# Shear Modulus (GPa) = 19.13073 30.58367 24.85720
#
# Velocity S-wave (km/s) = 2.88116 3.64290 3.28419
# Velocity P-wave (km/s) = 6.54916 7.04113 6.79960
#
# Compressibility (1/GPa) = 0.01363507
#
# Stress axis : x y z
#
# Youngs Moduli (GPa) = 102.94006 122.80205 121.89286
#
# Poissons Ratio (x) = 0.34296 0.34658
# Poissons Ratio (y) = 0.28749 0.07034
# Poissons Ratio (z) = 0.29269 0.07087
#
# Static dielectric constant tensor:
#      x y z
#    x 2.005280 0.000000 0.000000 
#    y 0.000000 1.866350 0.000000 
#    z 0.000000 0.000000 1.945240 
# 
# From -- ./inp_files/43439.got.cif
#   From: 2010.05.17/outbox.cif.g08.bks.cpg/sg52_22_cif.got.tgz:43439.got - 2010.06.03 12:15:38.
