data_PCOD9413206
_publ_section_title
;
Structure prediction by ZEFSAII (Michael W. Deem and Ramdas Pophale) SiO2 
 PCOD9413206
Probable space group: P N N A
;
_chemical_formula_sum "Si O2"
_cell_formula_units_Z 60
_cell_length_a 9.757688
_cell_length_b 11.640008
_cell_length_c 27.764958
_cell_angle_alpha 90.000000
_cell_angle_beta 90.000000
_cell_angle_gamma 90.000000
_cell_volume 3153.531890
_symmetry_space_group_name_H-M "P N N A"
_symmetry_group_IT_number 52
_symmetry_cell_setting 'orthorhombic'
loop_
_space_group_symop_operation_xyz
x,y,z
1/2-x,-y,z
x,1/2-y,1/2-z
1/2-x,1/2+y,1/2-z
-x,-y,-z
1/2+x,y,-z
-x,1/2+y,1/2+z
1/2+x,1/2-y,1/2+z
loop_
_atom_site_type_symbol
_atom_site_label
_atom_site_fract_x
_atom_site_fract_y
_atom_site_fract_z
Si Si1 0.280005 0.864559 0.061276
Si Si2 0.521594 0.757756 0.596926
Si Si3 0.718027 0.131521 0.053218
Si Si4 0.394485 0.718959 0.698403
Si Si5 0.603682 0.671807 0.205007
Si Si6 0.082738 0.495359 0.950030
Si Si7 0.038871 0.735335 0.899161
Si Si8 0.750000 0.000000 0.238543
O O1 0.428622 0.823618 0.079176
O O2 0.176915 0.774407 0.085885
O O3 0.250000 0.000000 0.071906
O O4 0.263063 0.849016 0.003713
O O5 0.435607 0.664591 0.566443
O O6 0.488324 0.735502 0.652658
O O7 0.467076 0.881574 0.578740
O O8 0.815292 0.210066 0.086025
O O9 0.750000 0.000000 0.063632
O O10 0.460271 0.750000 0.750000
O O11 0.263011 0.801341 0.693132
O O12 0.319541 0.596341 0.705172
O O13 0.560937 0.750000 0.250000
O O14 0.524417 0.708297 0.157500
O O15 0.625467 0.546530 0.227860
O O16 0.250000 0.500000 0.955328
O O17 0.036656 0.610581 0.923164
O O18 0.000000 0.500000 0.000000
#
# Coordination Sequence:
#
# PCOD9413206 Si02
#       8
#     8   8   8   8   8   8   8   4
#     4  11  26  44  61  92 131 172 209 269 326 389
#     4  12  24  40  66  93 131 167 218 259 326 382
#     4  11  22  39  65  90 123 162 217 267 317 377
#     4   9  19  35  59  93 121 158 210 267 322 376
#     4   9  19  35  58  93 120 157 207 264 317 377
#     4  12  26  41  67  97 135 176 217 266 316 390
#     4  12  24  40  65  92 132 166 218 260 327 378
#     4   8  18  32  62  88 130 148 206 270 328 362
#
# _framework density 19.026285999999999
#
# number of rings (size 3 to 8) (size 9 to 14) (size 15 to 20)
#    0.000    1.600    2.667    3.200    7.467    4.267 
#    0.000    0.667    0.000    0.000    0.000    0.000 
#    0.000    0.000    0.000    0.000    0.000    0.000 
#
# Total GULP energy -334586.355292 kJ/mol
# GULP energy per Si atom -5576.439255 kJ/mol
# Density = 1.898298 g / cm^3
# Si number density = 19.026286 Si / 1000 Ang^3
#
#
#
# Elastic Constant Matrix: (Units=GPa)
#
#
# Indices 1 2 3 4 5 6 
#
# 1 42.1453 -1.5436 11.7099 0.0000 0.0000 0.0000
# 2 -1.5436 85.8057 40.1113 0.0000 0.0000 0.0000
# 3 11.7099 40.1113 136.2516 0.0000 0.0000 0.0000
# 4 0.0000 0.0000 0.0000 -11.9153 0.0000 0.0000
# 5 0.0000 0.0000 0.0000 0.0000 -4.5782 0.0000
# 6 0.0000 0.0000 0.0000 0.0000 0.0000 26.9106
#
#
#
# Elastic Compliance Matrix: (Units=1/GPa)
#
#
# Indices 1 2 3 4 5 6 
#
# 1 0.024508 0.001653 -0.002593 0.000000 0.000000 0.000000
# 2 0.001653 0.013626 -0.004153 0.000000 0.000000 0.000000
# 3 -0.002593 -0.004153 0.008785 0.000000 0.000000 0.000000
# 4 0.000000 0.000000 0.000000 -0.083926 0.000000 0.000000
# 5 0.000000 0.000000 0.000000 0.000000 -0.218428 0.000000
# 6 0.000000 0.000000 0.000000 0.000000 0.000000 0.037160
#
#
# Mechanical properties :
#
#
# Convention : Reuss Voigt Hill
#
# Bulk Modulus (GPa) = 27.22396 40.52864 33.87630
# Shear Modulus (GPa) = -25.53045 16.34510 -4.59268
#
# Velocity S-wave (km/s) = -3.66710 2.93419 -1.55535
# Velocity P-wave (km/s) = 1.89487 5.72948 3.82337
#
# Compressibility (1/GPa) = 0.03673234
#
# Stress axis : x y z
#
# Youngs Moduli (GPa) = 40.80229 73.39179 113.83167
#
# Poissons Ratio (x) = -0.12132 0.29516
# Poissons Ratio (y) = -0.06745 0.47278
# Poissons Ratio (z) = 0.10580 0.30482
#
# Static dielectric constant tensor:
#      x y z
#    x 1.625800 0.000000 0.000000 
#    y 0.000000 1.852900 0.000000 
#    z 0.000000 0.000000 1.732320 
# 
# From -- ./inp_files/42332.got.cif
#   From: 2010.05.17/outbox.cif.g08.bks.cpg/sg52_22_cif.got.tgz:42332.got - 2010.06.03 12:15:38.
