data_PCOD9413186
_publ_section_title
;
Structure prediction by ZEFSAII (Michael W. Deem and Ramdas Pophale) SiO2 
 PCOD9413186
Probable space group: P N N A
;
_chemical_formula_sum "Si O2"
_cell_formula_units_Z 32
_cell_length_a 37.436330
_cell_length_b 7.429943
_cell_length_c 5.115750
_cell_angle_alpha 90.000000
_cell_angle_beta 90.000000
_cell_angle_gamma 90.000000
_cell_volume 1422.944829
_symmetry_space_group_name_H-M "P N N A"
_symmetry_group_IT_number 52
_symmetry_cell_setting 'orthorhombic'
loop_
_space_group_symop_operation_xyz
x,y,z
1/2-x,-y,z
x,1/2-y,1/2-z
1/2-x,1/2+y,1/2-z
-x,-y,-z
1/2+x,y,-z
-x,1/2+y,1/2+z
1/2+x,1/2-y,1/2+z
loop_
_atom_site_type_symbol
_atom_site_label
_atom_site_fract_x
_atom_site_fract_y
_atom_site_fract_z
Si Si1 0.645916 0.031534 0.241953
Si Si2 0.523912 0.460019 0.752981
Si Si3 0.282863 0.625015 0.501102
Si Si4 0.395745 0.971265 0.251958
O O1 0.644829 0.250000 0.250000
O O2 0.684953 0.002608 0.117787
O O3 0.632480 0.971403 0.525222
O O4 0.617477 0.968798 0.030303
O O5 0.530565 0.250000 0.750000
O O6 0.500000 0.500000 0.500000
O O7 0.563735 0.537752 0.785542
O O8 0.500000 0.500000 0.000000
O O9 0.250000 0.500000 0.420319
O O10 0.272651 0.750000 0.750000
O O11 0.293665 0.750000 0.250000
O O12 0.395071 0.750000 0.250000
#
# Coordination Sequence:
#
# PCOD9413186 Si02
#       4
#     8   8   8   8
#     4   9  16  30  52  79 105 137 187 236 270 314
#     4  11  22  37  58  85 115 149 187 234 288 343
#     4  11  22  37  59  87 117 151 189 238 291 344
#     4   9  17  30  52  79 104 137 187 236 269 315
#
# _framework density 22.488574
#
# number of rings (size 3 to 8) (size 9 to 14) (size 15 to 20)
#    0.000    2.000    0.000    6.750    0.000    4.000 
#    0.000    0.000    0.000   15.000    0.000    0.000 
#    0.000    0.000    0.000    0.000    0.000    0.000 
#
# Total GULP energy -178551.194160 kJ/mol
# GULP energy per Si atom -5579.724818 kJ/mol
# Density = 2.243739 g / cm^3
# Si number density = 22.488574 Si / 1000 Ang^3
#
#
#
# Elastic Constant Matrix: (Units=GPa)
#
#
# Indices 1 2 3 4 5 6 
#
# 1 162.7847 2.6811 41.6055 0.0000 0.0000 0.0000
# 2 2.6811 44.8130 -6.0670 0.0000 0.0000 0.0000
# 3 41.6055 -6.0670 147.0659 0.0000 0.0000 0.0000
# 4 0.0000 0.0000 0.0000 15.2286 0.0000 0.0000
# 5 0.0000 0.0000 0.0000 0.0000 35.6762 0.0000
# 6 0.0000 0.0000 0.0000 0.0000 0.0000 19.3921
#
#
#
# Elastic Compliance Matrix: (Units=1/GPa)
#
#
# Indices 1 2 3 4 5 6 
#
# 1 0.006641 -0.000655 -0.001906 0.000000 0.000000 0.000000
# 2 -0.000655 0.022505 0.001114 0.000000 0.000000 0.000000
# 3 -0.001906 0.001114 0.007385 0.000000 0.000000 0.000000
# 4 0.000000 0.000000 0.000000 0.065666 0.000000 0.000000
# 5 0.000000 0.000000 0.000000 0.000000 0.028030 0.000000
# 6 0.000000 0.000000 0.000000 0.000000 0.000000 0.051567
#
#
# Mechanical properties :
#
#
# Convention : Reuss Voigt Hill
#
# Bulk Modulus (GPa) = 29.72998 47.90030 38.81514
# Shear Modulus (GPa) = 25.52317 35.15564 30.33941
#
# Velocity S-wave (km/s) = 3.37254 3.95811 3.67700
# Velocity P-wave (km/s) = 5.33049 6.49884 5.94344
#
# Compressibility (1/GPa) = 0.03363608
#
# Stress axis : x y z
#
# Youngs Moduli (GPa) = 150.58037 44.43462 135.41368
#
# Poissons Ratio (x) = 0.02912 0.25807
# Poissons Ratio (y) = 0.09868 -0.15082
# Poissons Ratio (z) = 0.28697 -0.04949
#
# Static dielectric constant tensor:
#      x y z
#    x 1.886060 0.000000 0.000000 
#    y 0.000000 1.883530 0.000000 
#    z 0.000000 0.000000 1.770750 
# 
# From -- ./inp_files/6225.got.cif
#   From: 2010.05.17/outbox.cif.g08.bks.cpg/sg52_4_cif.got.tgz:6225.got - 2010.06.03 12:15:38.
