data_PCOD9413319
_publ_section_title
;
Structure prediction by ZEFSAII (Michael W. Deem and Ramdas Pophale) SiO2 
 PCOD9413319
Probable space group: P N N A
;
_chemical_formula_sum "Si O2"
_cell_formula_units_Z 32
_cell_length_a 4.880082
_cell_length_b 12.704875
_cell_length_c 24.481295
_cell_angle_alpha 90.000000
_cell_angle_beta 90.000000
_cell_angle_gamma 90.000000
_cell_volume 1517.860654
_symmetry_space_group_name_H-M "P N N A"
_symmetry_group_IT_number 52
_symmetry_cell_setting 'orthorhombic'
loop_
_space_group_symop_operation_xyz
x,y,z
1/2-x,-y,z
x,1/2-y,1/2-z
1/2-x,1/2+y,1/2-z
-x,-y,-z
1/2+x,y,-z
-x,1/2+y,1/2+z
1/2+x,1/2-y,1/2+z
loop_
_atom_site_type_symbol
_atom_site_label
_atom_site_fract_x
_atom_site_fract_y
_atom_site_fract_z
Si Si1 0.206603 0.763461 0.036423
Si Si2 0.771047 0.237005 0.313041
Si Si3 0.792646 0.123672 0.636083
Si Si4 0.002854 0.928876 0.122502
O O1 0.135938 0.665713 0.075670
O O2 0.134407 0.865163 0.072394
O O3 0.518712 0.761961 0.017191
O O4 0.843354 0.250000 0.250000
O O5 0.535405 0.151052 0.322434
O O6 0.635384 0.343632 0.336985
O O7 0.032803 0.194503 0.345968
O O8 0.750000 0.000000 0.635921
O O9 0.250000 0.000000 0.146668
O O10 0.750000 0.000000 0.103686
#
# Coordination Sequence:
#
# PCOD9413319 Si02
#       4
#     8   8   8   8
#     4  11  23  40  62  90 124 162 206 255 307 366
#     4  11  24  43  65  93 128 163 206 259 311 370
#     4  11  24  43  65  93 126 162 209 259 309 370
#     4  11  23  40  62  91 126 162 205 254 306 369
#
# _framework density 21.082304000000001
#
# number of rings (size 3 to 8) (size 9 to 14) (size 15 to 20)
#    0.000    1.000    0.000    9.000    0.000    7.000 
#    0.000    0.000    0.000    0.000    0.000    0.000 
#    0.000    0.000    0.000    0.000    0.000    0.000 
#
# Total GULP energy -178974.195276 kJ/mol
# GULP energy per Si atom -5592.943602 kJ/mol
# Density = 2.103432 g / cm^3
# Si number density = 21.082304 Si / 1000 Ang^3
#
#
#
# Elastic Constant Matrix: (Units=GPa)
#
#
# Indices 1 2 3 4 5 6 
#
# 1 95.1411 6.2095 9.7097 0.0000 0.0000 0.0000
# 2 6.2095 80.0707 37.2114 0.0000 0.0000 0.0000
# 3 9.7097 37.2114 85.5185 0.0000 0.0000 0.0000
# 4 0.0000 0.0000 0.0000 1.5004 0.0000 0.0000
# 5 0.0000 0.0000 0.0000 0.0000 23.4171 0.0000
# 6 0.0000 0.0000 0.0000 0.0000 0.0000 44.0938
#
#
#
# Elastic Compliance Matrix: (Units=1/GPa)
#
#
# Indices 1 2 3 4 5 6 
#
# 1 0.010641 -0.000331 -0.001064 0.000000 0.000000 0.000000
# 2 -0.000331 0.015665 -0.006779 0.000000 0.000000 0.000000
# 3 -0.001064 -0.006779 0.014764 0.000000 0.000000 0.000000
# 4 0.000000 0.000000 0.000000 0.666470 0.000000 0.000000
# 5 0.000000 0.000000 0.000000 0.000000 0.042704 0.000000
# 6 0.000000 0.000000 0.000000 0.000000 0.000000 0.022679
#
#
# Mechanical properties :
#
#
# Convention : Reuss Voigt Hill
#
# Bulk Modulus (GPa) = 40.44912 40.77685 40.61298
# Shear Modulus (GPa) = 6.26951 27.64222 16.95587
#
# Velocity S-wave (km/s) = 1.72635 3.62492 2.83904
# Velocity P-wave (km/s) = 4.81681 6.07485 5.48204
#
# Compressibility (1/GPa) = 0.02472242
#
# Stress axis : x y z
#
# Youngs Moduli (GPa) = 93.97697 63.83709 67.73323
#
# Poissons Ratio (x) = 0.02110 0.07209
# Poissons Ratio (y) = 0.03107 0.45914
# Poissons Ratio (z) = 0.10002 0.43273
#
# Static dielectric constant tensor:
#      x y z
#    x 1.774980 0.000000 0.000000 
#    y 0.000000 1.776970 0.000000 
#    z 0.000000 0.000000 1.743260 
# 
# From -- ./inp_files/34797.got.cif
#   From: 2010.05.17/outbox.cif.g08.bks.cpg/sg52_18_cif.got.tgz:34797.got - 2010.06.03 12:15:38.
