data_PCOD9413094
_publ_section_title
;
Structure prediction by ZEFSAII (Michael W. Deem and Ramdas Pophale) SiO2 
 PCOD9413094
Probable space group: P N N A
;
_chemical_formula_sum "Si O2"
_cell_formula_units_Z 32
_cell_length_a 9.447743
_cell_length_b 6.823932
_cell_length_c 21.017052
_cell_angle_alpha 90.000000
_cell_angle_beta 90.000000
_cell_angle_gamma 90.000000
_cell_volume 1354.985227
_symmetry_space_group_name_H-M "P N N A"
_symmetry_group_IT_number 52
_symmetry_cell_setting 'orthorhombic'
loop_
_space_group_symop_operation_xyz
x,y,z
1/2-x,-y,z
x,1/2-y,1/2-z
1/2-x,1/2+y,1/2-z
-x,-y,-z
1/2+x,y,-z
-x,1/2+y,1/2+z
1/2+x,1/2-y,1/2+z
loop_
_atom_site_type_symbol
_atom_site_label
_atom_site_fract_x
_atom_site_fract_y
_atom_site_fract_z
Si Si1 0.614186 0.379915 0.188740
Si Si2 0.543184 0.786995 0.563766
Si Si3 0.136726 0.159914 0.312470
Si Si4 0.370870 0.749218 0.056577
O O1 0.750000 0.500000 0.164037
O O2 0.650711 0.250000 0.250000
O O3 0.536524 0.264749 0.131263
O O4 0.500653 0.543223 0.209491
O O5 0.445256 0.695563 0.508986
O O6 0.703028 0.714077 0.553452
O O7 0.570990 0.022378 0.558832
O O8 0.205171 0.250000 0.250000
O O9 0.097467 0.306224 0.369945
O O10 0.250000 0.000000 0.337100
#
# Coordination Sequence:
#
# PCOD9413094 Si02
#       4
#     8   8   8   8
#     4  11  23  38  56  83 113 147 183 228 280 329
#     4   9  18  30  53  79 109 137 181 233 265 315
#     4  11  21  36  58  84 112 146 186 226 273 327
#     4   9  17  31  51  82 107 139 181 228 273 305
#
# _framework density 23.616492999999998
#
# number of rings (size 3 to 8) (size 9 to 14) (size 15 to 20)
#    0.000    2.000    5.000    1.500   10.500    0.000 
#    0.000    0.000    0.000    3.000    0.000    0.000 
#    0.000    0.000    0.000    0.000    0.000    0.000 
#
# Total GULP energy -178285.476535 kJ/mol
# GULP energy per Si atom -5571.421142 kJ/mol
# Density = 2.356274 g / cm^3
# Si number density = 23.616493 Si / 1000 Ang^3
#
#
#
# Elastic Constant Matrix: (Units=GPa)
#
#
# Indices 1 2 3 4 5 6 
#
# 1 112.9116 13.9285 50.1122 0.0000 0.0000 0.0000
# 2 13.9285 32.4098 33.6620 0.0000 0.0000 0.0000
# 3 50.1122 33.6620 205.1496 0.0000 0.0000 0.0000
# 4 0.0000 0.0000 0.0000 4.2834 0.0000 0.0000
# 5 0.0000 0.0000 0.0000 0.0000 42.3779 0.0000
# 6 0.0000 0.0000 0.0000 0.0000 0.0000 11.2668
#
#
#
# Elastic Compliance Matrix: (Units=1/GPa)
#
#
# Indices 1 2 3 4 5 6 
#
# 1 0.010054 -0.002134 -0.002106 0.000000 0.000000 0.000000
# 2 -0.002134 0.037646 -0.005656 0.000000 0.000000 0.000000
# 3 -0.002106 -0.005656 0.006317 0.000000 0.000000 0.000000
# 4 0.000000 0.000000 0.000000 0.233460 0.000000 0.000000
# 5 0.000000 0.000000 0.000000 0.000000 0.023597 0.000000
# 6 0.000000 0.000000 0.000000 0.000000 0.000000 0.088756
#
#
# Mechanical properties :
#
#
# Convention : Reuss Voigt Hill
#
# Bulk Modulus (GPa) = 29.21712 60.65294 44.93503
# Shear Modulus (GPa) = 11.60009 28.43684 20.01847
#
# Velocity S-wave (km/s) = 2.21868 3.47379 2.91460
# Velocity P-wave (km/s) = 4.35450 6.46745 5.51315
#
# Compressibility (1/GPa) = 0.03422651
#
# Stress axis : x y z
#
# Youngs Moduli (GPa) = 99.45975 26.56293 158.30385
#
# Poissons Ratio (x) = 0.05668 0.33337
# Poissons Ratio (y) = 0.21222 0.89537
# Poissons Ratio (z) = 0.20945 0.15024
#
# Static dielectric constant tensor:
#      x y z
#    x 1.899610 0.000000 0.000000 
#    y 0.000000 2.095990 0.000000 
#    z 0.000000 0.000000 1.910840 
# 
# From -- ./inp_files/35446.got.cif
#   From: 2010.05.17/outbox.cif.g08.bks.cpg/sg52_18_cif.got.tgz:35446.got - 2010.06.03 12:15:38.
