data_PCOD9413860
_publ_section_title
;
Structure prediction by ZEFSAII (Michael W. Deem and Ramdas Pophale) SiO2 
 PCOD9413860
Probable space group: P N N A
;
_chemical_formula_sum "Si O2"
_cell_formula_units_Z 20
_cell_length_a 15.502846
_cell_length_b 4.948585
_cell_length_c 11.342612
_cell_angle_alpha 90.000000
_cell_angle_beta 90.000000
_cell_angle_gamma 90.000000
_cell_volume 870.172879
_symmetry_space_group_name_H-M "P N N A"
_symmetry_group_IT_number 52
_symmetry_cell_setting 'orthorhombic'
loop_
_space_group_symop_operation_xyz
x,y,z
1/2-x,-y,z
x,1/2-y,1/2-z
1/2-x,1/2+y,1/2-z
-x,-y,-z
1/2+x,y,-z
-x,1/2+y,1/2+z
1/2+x,1/2-y,1/2+z
loop_
_atom_site_type_symbol
_atom_site_label
_atom_site_fract_x
_atom_site_fract_y
_atom_site_fract_z
Si Si1 0.813173 0.750000 0.250000
Si Si2 0.344713 0.381716 0.369300
Si Si3 0.403344 0.608425 0.992571
O O1 0.750000 0.500000 0.275778
O O2 0.871955 0.690094 0.136723
O O3 0.380864 0.250000 0.250000
O O4 0.396107 0.632168 0.422747
O O5 0.250000 0.000000 0.155818
O O6 0.343667 0.137202 0.461794
O O7 0.500000 0.500000 0.000000
#
# Coordination Sequence:
#
# PCOD9413860 Si02
#       3
#     4   8   8
#     4  12  26  48  78 106 148 200 252 302 370 462
#     4  12  25  47  76 107 145 194 246 303 375 455
#     4  12  27  47  75 108 153 193 250 312 378 445
#
# _framework density 22.983938999999999
#
# number of rings (size 3 to 8) (size 9 to 14) (size 15 to 20)
#    0.000    0.000    0.000   12.000    2.800    0.000 
#    7.200    0.000    0.000    0.000    0.000    0.000 
#    0.000    0.000    0.000    0.000    0.000    0.000 
#
# Total GULP energy -112209.367863 kJ/mol
# GULP energy per Si atom -5610.468393 kJ/mol
# Density = 2.293163 g / cm^3
# Si number density = 22.983939 Si / 1000 Ang^3
#
#
#
# Elastic Constant Matrix: (Units=GPa)
#
#
# Indices 1 2 3 4 5 6 
#
# 1 119.1766 65.7323 71.7871 0.0000 0.0000 0.0000
# 2 65.7323 211.2998 97.4425 0.0000 0.0000 0.0000
# 3 71.7871 97.4425 166.6827 0.0000 0.0000 0.0000
# 4 0.0000 0.0000 0.0000 60.9504 0.0000 0.0000
# 5 0.0000 0.0000 0.0000 0.0000 -11.0641 0.0000
# 6 0.0000 0.0000 0.0000 0.0000 0.0000 40.1897
#
#
#
# Elastic Compliance Matrix: (Units=1/GPa)
#
#
# Indices 1 2 3 4 5 6 
#
# 1 0.011820 -0.001820 -0.004027 0.000000 0.000000 0.000000
# 2 -0.001820 0.006760 -0.003168 0.000000 0.000000 0.000000
# 3 -0.004027 -0.003168 0.009586 0.000000 0.000000 0.000000
# 4 0.000000 0.000000 0.000000 0.016407 0.000000 0.000000
# 5 0.000000 0.000000 0.000000 0.000000 -0.090382 0.000000
# 6 0.000000 0.000000 0.000000 0.000000 0.000000 0.024882
#
#
# Mechanical properties :
#
#
# Convention : Reuss Voigt Hill
#
# Bulk Modulus (GPa) = 98.65629 107.45364 103.05496
# Shear Modulus (GPa) = 10411.21561 35.49500 5223.35531
#
# Velocity S-wave (km/s) = 67.37665 3.93407 47.72363
# Velocity P-wave (km/s) = 78.07582 8.21517 55.51271
#
# Compressibility (1/GPa) = 0.01013620
#
# Stress axis : x y z
#
# Youngs Moduli (GPa) = 84.59960 147.93562 104.32373
#
# Poissons Ratio (x) = 0.26927 0.42008
# Poissons Ratio (y) = 0.15399 0.33048
# Poissons Ratio (z) = 0.34066 0.46863
#
# Static dielectric constant tensor:
#      x y z
#    x 1.911220 0.000000 0.000000 
#    y 0.000000 1.836560 0.000000 
#    z 0.000000 0.000000 1.857650 
# 
# From -- ./inp_files/11170.got.cif
#   From: 2010.05.17/outbox.cif.g08.bks.cpg/sg52_6_cif.got.tgz:11170.got - 2010.06.03 12:15:38.
