data_PCOD9413270
_publ_section_title
;
Structure prediction by ZEFSAII (Michael W. Deem and Ramdas Pophale) SiO2 
 PCOD9413270
Probable space group: P N N A
;
_chemical_formula_sum "Si O2"
_cell_formula_units_Z 60
_cell_length_a 16.956361
_cell_length_b 14.181417
_cell_length_c 11.790104
_cell_angle_alpha 90.000000
_cell_angle_beta 90.000000
_cell_angle_gamma 90.000000
_cell_volume 2835.110025
_symmetry_space_group_name_H-M "P N N A"
_symmetry_group_IT_number 52
_symmetry_cell_setting 'orthorhombic'
loop_
_space_group_symop_operation_xyz
x,y,z
1/2-x,-y,z
x,1/2-y,1/2-z
1/2-x,1/2+y,1/2-z
-x,-y,-z
1/2+x,y,-z
-x,1/2+y,1/2+z
1/2+x,1/2-y,1/2+z
loop_
_atom_site_type_symbol
_atom_site_label
_atom_site_fract_x
_atom_site_fract_y
_atom_site_fract_z
Si Si1 0.910246 0.909729 0.795323
Si Si2 0.201360 0.096752 0.791105
Si Si3 0.503314 0.735981 0.865979
Si Si4 0.977879 0.945216 0.116030
Si Si5 0.750000 0.000000 0.753823
Si Si6 0.908112 0.717456 0.922716
Si Si7 0.257813 0.719734 0.929366
Si Si8 0.174433 0.819929 0.353066
O O1 0.928789 0.822082 0.878364
O O2 0.908058 0.858728 0.674845
O O3 0.977206 0.988561 0.795155
O O4 0.824641 0.956166 0.821377
O O5 0.239879 0.179557 0.867506
O O6 0.214486 0.141371 0.663541
O O7 0.112902 0.074022 0.842732
O O8 0.250000 0.000000 0.796854
O O9 0.453183 0.750000 0.750000
O O10 0.519318 0.844039 0.897466
O O11 0.580775 0.679510 0.835669
O O12 0.460483 0.690117 0.970478
O O13 0.000000 0.000000 0.000000
O O14 0.785982 0.081470 0.675703
O O15 0.821690 0.724649 0.971709
O O16 0.183365 0.703297 0.012234
O O17 0.203771 0.750000 0.250000
#
# Coordination Sequence:
#
# PCOD9413270 Si02
#       8
#     8   8   8   8   4   8   8   8
#     4  11  24  41  69 104 138 179 235 295 353 426
#     4  11  27  45  72 104 140 194 244 294 368 437
#     4  11  23  44  69 100 139 186 233 290 358 434
#     4  12  24  45  68 104 141 182 247 298 350 439
#     4  12  24  44  66 108 140 174 240 296 356 434
#     4  11  22  43  68  94 138 185 221 290 365 411
#     4  11  23  46  69  96 146 187 227 300 356 430
#     4  11  25  44  71 103 142 185 236 297 362 429
#
# _framework density 21.163201999999998
#
# number of rings (size 3 to 8) (size 9 to 14) (size 15 to 20)
#    0.000    0.800    4.000    3.200    2.800    1.067 
#    6.000    4.667    0.000    0.000    0.000    0.000 
#    0.000    0.000    0.000    0.000    0.000    0.000 
#
# Total GULP energy -334416.850061 kJ/mol
# GULP energy per Si atom -5573.614168 kJ/mol
# Density = 2.111503 g / cm^3
# Si number density = 21.163202 Si / 1000 Ang^3
#
#
#
# Elastic Constant Matrix: (Units=GPa)
#
#
# Indices 1 2 3 4 5 6 
#
# 1 59.9901 27.3132 18.7925 0.0000 0.0000 0.0000
# 2 27.3132 113.7441 21.4359 0.0000 0.0000 0.0000
# 3 18.7925 21.4359 119.6137 0.0000 0.0000 0.0000
# 4 0.0000 0.0000 0.0000 22.5880 0.0000 0.0000
# 5 0.0000 0.0000 0.0000 0.0000 35.2614 0.0000
# 6 0.0000 0.0000 0.0000 0.0000 0.0000 32.5079
#
#
#
# Elastic Compliance Matrix: (Units=1/GPa)
#
#
# Indices 1 2 3 4 5 6 
#
# 1 0.019297 -0.004204 -0.002278 0.000000 0.000000 0.000000
# 2 -0.004204 0.010015 -0.001134 0.000000 0.000000 0.000000
# 3 -0.002278 -0.001134 0.008921 0.000000 0.000000 0.000000
# 4 0.000000 0.000000 0.000000 0.044271 0.000000 0.000000
# 5 0.000000 0.000000 0.000000 0.000000 0.028360 0.000000
# 6 0.000000 0.000000 0.000000 0.000000 0.000000 0.030762
#
#
# Mechanical properties :
#
#
# Convention : Reuss Voigt Hill
#
# Bulk Modulus (GPa) = 43.47857 47.60343 45.54100
# Shear Modulus (GPa) = 30.39010 33.12521 31.75766
#
# Velocity S-wave (km/s) = 3.79355 3.96059 3.87797
# Velocity P-wave (km/s) = 6.30691 6.59222 6.45114
#
# Compressibility (1/GPa) = 0.02299983
#
# Stress axis : x y z
#
# Youngs Moduli (GPa) = 51.82042 99.84986 112.08927
#
# Poissons Ratio (x) = 0.41982 0.25538
# Poissons Ratio (y) = 0.21788 0.12713
# Poissons Ratio (z) = 0.11806 0.11325
#
# Static dielectric constant tensor:
#      x y z
#    x 1.856960 0.000000 0.000000 
#    y 0.000000 1.760440 0.000000 
#    z 0.000000 0.000000 2.691340 
# 
# From -- ./inp_files/20847.got.cif
#   From: 2010.05.17/outbox.cif.g08.bks.cpg/sg52_11_cif.got.tgz:20847.got - 2010.06.03 12:15:38.
