data_PCOD9413416
_publ_section_title
;
Structure prediction by ZEFSAII (Michael W. Deem and Ramdas Pophale) SiO2 
 PCOD9413416
Probable space group: P N N A
;
_chemical_formula_sum "Si O2"
_cell_formula_units_Z 40
_cell_length_a 10.622403
_cell_length_b 28.493889
_cell_length_c 5.077498
_cell_angle_alpha 90.000000
_cell_angle_beta 90.000000
_cell_angle_gamma 90.000000
_cell_volume 1536.824456
_symmetry_space_group_name_H-M "P N N A"
_symmetry_group_IT_number 52
_symmetry_cell_setting 'orthorhombic'
loop_
_space_group_symop_operation_xyz
x,y,z
1/2-x,-y,z
x,1/2-y,1/2-z
1/2-x,1/2+y,1/2-z
-x,-y,-z
1/2+x,y,-z
-x,1/2+y,1/2+z
1/2+x,1/2-y,1/2+z
loop_
_atom_site_type_symbol
_atom_site_label
_atom_site_fract_x
_atom_site_fract_y
_atom_site_fract_z
Si Si1 0.379929 0.120626 0.112949
Si Si2 0.796650 0.703091 0.588143
Si Si3 0.280006 0.934377 0.496996
Si Si4 0.903484 0.659122 0.100038
Si Si5 0.472084 0.459771 0.717046
O O1 0.320771 0.169505 0.022535
O O2 0.279763 0.082801 0.220356
O O3 0.459186 0.138177 0.363608
O O4 0.471352 0.090846 0.928774
O O5 0.759733 0.750000 0.750000
O O6 0.874156 0.699099 0.316469
O O7 0.879048 0.677465 0.810491
O O8 0.313582 0.885933 0.643673
O O9 0.167319 0.959548 0.652987
O O10 0.086933 0.041544 0.425798
O O11 0.500000 0.500000 0.500000
#
# Coordination Sequence:
#
# PCOD9413416 Si02
#       5
#     8   8   8   8   8
#     4  11  24  48  78 110 161 216 277 350 432 506
#     4  11  25  43  74 118 163 215 278 347 429 519
#     4  11  25  52  80 118 161 220 282 350 438 518
#     4  11  23  46  76 110 159 214 271 345 420 513
#     4  12  28  53  83 121 167 222 294 366 433 536
#
# _framework density 26.027695999999999
#
# number of rings (size 3 to 8) (size 9 to 14) (size 15 to 20)
#    0.000    0.800    4.000    3.000    0.000    3.200 
#    7.200    1.000    0.000    0.000    0.000    0.000 
#    0.000    0.000    0.000    0.000    0.000    0.000 
#
# Total GULP energy -223714.407717 kJ/mol
# GULP energy per Si atom -5592.860193 kJ/mol
# Density = 2.596846 g / cm^3
# Si number density = 26.027696 Si / 1000 Ang^3
#
#
#
# Elastic Constant Matrix: (Units=GPa)
#
#
# Indices 1 2 3 4 5 6 
#
# 1 139.8951 45.6096 32.7984 0.0000 0.0000 0.0000
# 2 45.6096 149.2453 45.9410 0.0000 0.0000 0.0000
# 3 32.7984 45.9410 112.7198 0.0000 0.0000 0.0000
# 4 0.0000 0.0000 0.0000 57.6923 0.0000 0.0000
# 5 0.0000 0.0000 0.0000 0.0000 47.6061 0.0000
# 6 0.0000 0.0000 0.0000 0.0000 0.0000 24.0545
#
#
#
# Elastic Compliance Matrix: (Units=1/GPa)
#
#
# Indices 1 2 3 4 5 6 
#
# 1 0.008171 -0.002018 -0.001555 0.000000 0.000000 0.000000
# 2 -0.002018 0.008160 -0.002739 0.000000 0.000000 0.000000
# 3 -0.001555 -0.002739 0.010440 0.000000 0.000000 0.000000
# 4 0.000000 0.000000 0.000000 0.017333 0.000000 0.000000
# 5 0.000000 0.000000 0.000000 0.000000 0.021006 0.000000
# 6 0.000000 0.000000 0.000000 0.000000 0.000000 0.041572
#
#
# Mechanical properties :
#
#
# Convention : Reuss Voigt Hill
#
# Bulk Modulus (GPa) = 70.68364 72.28426 71.48395
# Shear Modulus (GPa) = 40.31547 44.37131 42.34339
#
# Velocity S-wave (km/s) = 3.93993 4.13337 4.03781
# Velocity P-wave (km/s) = 6.92196 7.11421 7.01874
#
# Compressibility (1/GPa) = 0.01414755
#
# Stress axis : x y z
#
# Youngs Moduli (GPa) = 122.38709 122.54623 95.78443
#
# Poissons Ratio (x) = 0.24735 0.14893
# Poissons Ratio (y) = 0.24703 0.26231
# Poissons Ratio (z) = 0.19029 0.33560
#
# Static dielectric constant tensor:
#      x y z
#    x 2.046570 0.000000 0.000000 
#    y 0.000000 2.142970 0.000000 
#    z 0.000000 0.000000 2.080830 
# 
# From -- ./inp_files/1367.got.cif
#   From: 2010.05.17/outbox.cif.g08.bks.cpg/sg52_1_cif.got.tgz:1367.got - 2010.06.03 12:15:38.
