data_PCOD9413861
_publ_section_title
;
Structure prediction by ZEFSAII (Michael W. Deem and Ramdas Pophale) SiO2 
 PCOD9413861
Probable space group: P N N A
;
_chemical_formula_sum "Si O2"
_cell_formula_units_Z 24
_cell_length_a 5.138342
_cell_length_b 9.008893
_cell_length_c 22.647199
_cell_angle_alpha 90.000000
_cell_angle_beta 90.000000
_cell_angle_gamma 90.000000
_cell_volume 1048.356354
_symmetry_space_group_name_H-M "P N N A"
_symmetry_group_IT_number 52
_symmetry_cell_setting 'orthorhombic'
loop_
_space_group_symop_operation_xyz
x,y,z
1/2-x,-y,z
x,1/2-y,1/2-z
1/2-x,1/2+y,1/2-z
-x,-y,-z
1/2+x,y,-z
-x,1/2+y,1/2+z
1/2+x,1/2-y,1/2+z
loop_
_atom_site_type_symbol
_atom_site_label
_atom_site_fract_x
_atom_site_fract_y
_atom_site_fract_z
Si Si1 0.250000 0.000000 0.955667
Si Si2 0.626145 0.238293 0.369769
Si Si3 0.750000 0.000000 0.688102
Si Si4 0.250000 0.500000 0.958102
Si Si5 0.916654 0.250000 0.250000
O O1 0.120295 0.116691 0.909201
O O2 0.500000 0.000000 0.000000
O O3 0.746181 0.281327 0.307345
O O4 0.394214 0.124235 0.352136
O O5 0.794048 0.136044 0.413762
O O6 0.573862 0.103114 0.730418
O O7 0.500000 0.500000 0.000000
#
# Coordination Sequence:
#
# PCOD9413861 Si02
#       5
#     4   8   4   4   4
#     4  12  32  54  82 121 167 224 280 354 420 510
#     4  12  28  50  79 119 162 215 281 348 432 510
#     4  12  27  49  82 118 171 215 278 356 440 522
#     4  12  25  47  80 109 152 211 272 332 406 498
#     4  12  28  48  80 126 156 222 274 360 438 508
#
# _framework density 22.892979
#
# number of rings (size 3 to 8) (size 9 to 14) (size 15 to 20)
#    0.000    0.000    3.333    4.000   14.000    0.000 
#    0.000    0.000    0.000    0.000    0.000    0.000 
#    0.000    0.000    0.000    0.000    0.000    0.000 
#
# Total GULP energy -133612.132439 kJ/mol
# GULP energy per Si atom -5567.172185 kJ/mol
# Density = 2.284087 g / cm^3
# Si number density = 22.892979 Si / 1000 Ang^3
#
#
#
# Elastic Constant Matrix: (Units=GPa)
#
#
# Indices 1 2 3 4 5 6 
#
# 1 147.0611 50.7142 100.1561 0.0000 0.0000 0.0000
# 2 50.7142 122.4092 92.1490 0.0000 0.0000 0.0000
# 3 100.1561 92.1490 267.3867 0.0000 0.0000 0.0000
# 4 0.0000 0.0000 0.0000 97.1049 0.0000 0.0000
# 5 0.0000 0.0000 0.0000 0.0000 56.3939 0.0000
# 6 0.0000 0.0000 0.0000 0.0000 0.0000 15.3220
#
#
#
# Elastic Compliance Matrix: (Units=1/GPa)
#
#
# Indices 1 2 3 4 5 6 
#
# 1 0.009376 -0.001675 -0.002935 0.000000 0.000000 0.000000
# 2 -0.001675 0.011331 -0.003277 0.000000 0.000000 0.000000
# 3 -0.002935 -0.003277 0.005969 0.000000 0.000000 0.000000
# 4 0.000000 0.000000 0.000000 0.010298 0.000000 0.000000
# 5 0.000000 0.000000 0.000000 0.000000 0.017732 0.000000
# 6 0.000000 0.000000 0.000000 0.000000 0.000000 0.065266
#
#
# Mechanical properties :
#
#
# Convention : Reuss Voigt Hill
#
# Bulk Modulus (GPa) = 91.73693 113.65505 102.69599
# Shear Modulus (GPa) = 35.87315 53.35336 44.61325
#
# Velocity S-wave (km/s) = 3.96282 4.83282 4.41928
# Velocity P-wave (km/s) = 7.81650 8.99420 8.42595
#
# Compressibility (1/GPa) = 0.01090074
#
# Stress axis : x y z
#
# Youngs Moduli (GPa) = 106.65103 88.25713 167.54260
#
# Poissons Ratio (x) = 0.14786 0.49170
# Poissons Ratio (y) = 0.17868 0.54908
# Poissons Ratio (z) = 0.31300 0.28924
#
# Static dielectric constant tensor:
#      x y z
#    x 2.109440 0.000000 0.000000 
#    y 0.000000 1.546460 0.000000 
#    z 0.000000 0.000000 1.812220 
# 
# From -- ./inp_files/38478.got.cif
#   From: 2010.05.17/outbox.cif.g08.bks.cpg/sg52_20_cif.got.tgz:38478.got - 2010.06.03 12:15:38.
