data_PCOD9413961
_publ_section_title
;
Structure prediction by ZEFSAII (Michael W. Deem and Ramdas Pophale) SiO2 
 PCOD9413961
Probable space group: P N N A
;
_chemical_formula_sum "Si O2"
_cell_formula_units_Z 56
_cell_length_a 21.000000
_cell_length_b 9.000000
_cell_length_c 15.000000
_cell_angle_alpha 90.000000
_cell_angle_beta 90.000000
_cell_angle_gamma 90.000000
_cell_volume 2835.000000
_symmetry_space_group_name_H-M "P N N A"
_symmetry_group_IT_number 52
_symmetry_cell_setting 'orthorhombic'
loop_
_space_group_symop_operation_xyz
x,y,z
1/2-x,-y,z
x,1/2-y,1/2-z
1/2-x,1/2+y,1/2-z
-x,-y,-z
1/2+x,y,-z
-x,1/2+y,1/2+z
1/2+x,1/2-y,1/2+z
loop_
_atom_site_type_symbol
_atom_site_label
_atom_site_fract_x
_atom_site_fract_y
_atom_site_fract_z
Si Si1 0.476397 0.391604 0.193526
Si Si2 0.571350 0.970516 0.093692
Si Si3 0.310254 0.417024 0.718758
Si Si4 0.087391 0.242990 0.490819
Si Si5 0.613824 0.491807 0.118712
Si Si6 0.937993 0.882600 0.818756
Si Si7 0.054943 0.790778 0.494669
O O1 0.495657 0.250000 0.250000
O O2 0.544688 0.462184 0.165049
O O3 0.426402 0.479135 0.255150
O O4 0.440740 0.351647 0.103070
O O5 0.631189 0.926009 0.151622
O O6 0.507488 0.922943 0.142869
O O7 0.566145 0.884210 0.999925
O O8 0.574246 0.140872 0.069489
O O9 0.250000 0.500000 0.679169
O O10 0.297188 0.250000 0.750000
O O11 0.333438 0.504135 0.806671
O O12 0.129123 0.121464 0.538858
O O13 0.105088 0.326003 0.400293
O O14 0.017365 0.173229 0.473564
O O15 0.602573 0.643554 0.066378
O O16 0.945318 0.750000 0.750000
#
# Coordination Sequence:
#
# PCOD9413961 Si02
#       7
#     8   8   8   8   8   8   8
#     4  11  19  28  50  80 113 148 185 217 262 335
#     4  11  20  36  52  74 113 150 188 230 280 319
#     4  12  27  42  61  80 106 151 201 242 275 324
#     4  10  21  30  51  79 108 152 183 223 268 348
#     4  11  21  36  52  74 112 151 189 226 278 321
#     4  11  18  30  50  77 114 149 186 212 267 335
#     4  10  19  33  49  75 109 151 190 214 274 338
#
# _framework density 19.753086
#
# number of rings (size 3 to 8) (size 9 to 14) (size 15 to 20)
#    0.000    1.143    2.857    9.000    2.000    0.000 
#    0.000    0.000    0.000    0.000    0.000    0.000 
#    0.000   17.143    0.000    0.000    0.000    0.000 
#
# Total GULP energy -311798.787685 kJ/mol
# GULP energy per Si atom -5567.835494 kJ/mol
# Density = 1.970813 g / cm^3
# Si number density = 19.753086 Si / 1000 Ang^3
#
#
#
# Elastic Constant Matrix: (Units=GPa)
#
#
# Indices 1 2 3 4 5 6 
#
# 1 18.3591 8.8663 9.0705 0.0000 0.0000 0.0000
# 2 8.8663 62.3989 33.3868 0.0000 0.0000 0.0000
# 3 9.0705 33.3868 104.3706 0.0000 0.0000 0.0000
# 4 0.0000 0.0000 0.0000 61.2918 0.0000 0.0000
# 5 0.0000 0.0000 0.0000 0.0000 0.9535 0.0000
# 6 0.0000 0.0000 0.0000 0.0000 0.0000 9.0489
#
#
#
# Elastic Compliance Matrix: (Units=1/GPa)
#
#
# Indices 1 2 3 4 5 6 
#
# 1 0.059232 -0.006831 -0.002962 0.000000 0.000000 0.000000
# 2 -0.006831 0.020123 -0.005843 0.000000 0.000000 0.000000
# 3 -0.002962 -0.005843 0.011708 0.000000 0.000000 0.000000
# 4 0.000000 0.000000 0.000000 0.016315 0.000000 0.000000
# 5 0.000000 0.000000 0.000000 0.000000 1.048788 0.000000
# 6 0.000000 0.000000 0.000000 0.000000 0.000000 0.110510
#
#
# Mechanical properties :
#
#
# Convention : Reuss Voigt Hill
#
# Bulk Modulus (GPa) = 16.72560 31.97509 24.35035
# Shear Modulus (GPa) = 3.79397 23.17917 13.48657
#
# Velocity S-wave (km/s) = 1.38740 3.42928 2.61580
# Velocity P-wave (km/s) = 3.32449 5.64822 4.63436
#
# Compressibility (1/GPa) = 0.05978858
#
# Stress axis : x y z
#
# Youngs Moduli (GPa) = 16.88288 49.69400 85.41210
#
# Poissons Ratio (x) = 0.33947 0.25303
# Poissons Ratio (y) = 0.11533 0.49910
# Poissons Ratio (z) = 0.05001 0.29039
#
# Static dielectric constant tensor:
#      x y z
#    x 1.638170 0.000000 0.000000 
#    y 0.000000 1.843230 0.000000 
#    z 0.000000 0.000000 1.782280 
# 
# From -- ./inp_files/28763.got.cif
#   From: 2010.05.17/outbox.ucp.g08.bks.cvg/sg52_15_cif.got.tgz:28763.got - 2010.06.11 16:30:12.
