data_PCOD9413320
_publ_section_title
;
Structure prediction by ZEFSAII (Michael W. Deem and Ramdas Pophale) SiO2 
 PCOD9413320
Probable space group: P N N A
;
_chemical_formula_sum "Si O2"
_cell_formula_units_Z 64
_cell_length_a 8.917108
_cell_length_b 11.968149
_cell_length_c 28.867151
_cell_angle_alpha 90.000000
_cell_angle_beta 90.000000
_cell_angle_gamma 90.000000
_cell_volume 3080.739224
_symmetry_space_group_name_H-M "P N N A"
_symmetry_group_IT_number 52
_symmetry_cell_setting 'orthorhombic'
loop_
_space_group_symop_operation_xyz
x,y,z
1/2-x,-y,z
x,1/2-y,1/2-z
1/2-x,1/2+y,1/2-z
-x,-y,-z
1/2+x,y,-z
-x,1/2+y,1/2+z
1/2+x,1/2-y,1/2+z
loop_
_atom_site_type_symbol
_atom_site_label
_atom_site_fract_x
_atom_site_fract_y
_atom_site_fract_z
Si Si1 0.087630 0.949279 0.376571
Si Si2 0.331114 0.382439 0.463965
Si Si3 0.576750 0.008897 0.193275
Si Si4 0.586985 0.949187 0.302217
Si Si5 0.899315 0.195071 0.863734
Si Si6 0.516636 0.292148 0.544418
Si Si7 0.089846 0.948216 0.541565
Si Si8 0.546930 0.282149 0.654044
O O1 0.050889 0.818767 0.379818
O O2 0.250000 0.000000 0.387976
O O3 0.046709 0.981283 0.324816
O O4 0.980466 0.019004 0.409678
O O5 0.250000 0.500000 0.465591
O O6 0.399379 0.372281 0.412328
O O7 0.441877 0.374801 0.507401
O O8 0.194933 0.291938 0.465226
O O9 0.581923 0.983235 0.248309
O O10 0.489928 0.901137 0.175439
O O11 0.750000 0.000000 0.176888
O O12 0.495835 0.121912 0.173401
O O13 0.542379 0.820859 0.319501
O O14 0.750000 0.000000 0.318537
O O15 0.729519 0.223813 0.845811
O O16 0.426016 0.181214 0.533765
O O17 0.502826 0.298367 0.599982
O O18 0.250000 0.000000 0.539892
O O19 0.000000 0.000000 0.500000
#
# Coordination Sequence:
#
# PCOD9413320 Si02
#       8
#     8   8   8   8   8   8   8   8
#     4  12  23  43  68  99 133 176 229 287 354 421
#     4  11  23  42  64  96 135 179 225 283 334 412
#     4  11  27  45  70 102 136 182 232 291 353 422
#     4  11  25  47  71  99 138 179 228 295 363 422
#     4  11  24  45  69 100 140 180 232 288 348 424
#     4  11  23  40  65  95 131 178 224 275 342 403
#     4  12  24  40  63  95 134 177 226 286 346 413
#     4  11  23  47  70  97 142 184 229 292 351 422
#
# _framework density 20.774235000000001
#
# number of rings (size 3 to 8) (size 9 to 14) (size 15 to 20)
#    0.000    0.750    2.500    5.625    1.750    3.000 
#    2.250    0.000    0.000    0.000    0.000    0.000 
#    0.000    0.000    0.000    0.000    0.000    0.000 
#
# Total GULP energy -356517.252010 kJ/mol
# GULP energy per Si atom -5570.582063 kJ/mol
# Density = 2.072695 g / cm^3
# Si number density = 20.774235 Si / 1000 Ang^3
#
#
#
# Elastic Constant Matrix: (Units=GPa)
#
#
# Indices 1 2 3 4 5 6 
#
# 1 54.9125 27.6055 14.9650 0.0000 0.0000 0.0000
# 2 27.6055 90.1693 30.0080 0.0000 0.0000 0.0000
# 3 14.9650 30.0080 89.5501 0.0000 0.0000 0.0000
# 4 0.0000 0.0000 0.0000 0.7511 0.0000 0.0000
# 5 0.0000 0.0000 0.0000 0.0000 34.9575 0.0000
# 6 0.0000 0.0000 0.0000 0.0000 0.0000 37.0436
#
#
#
# Elastic Compliance Matrix: (Units=1/GPa)
#
#
# Indices 1 2 3 4 5 6 
#
# 1 0.021720 -0.006125 -0.001577 0.000000 0.000000 0.000000
# 2 -0.006125 0.014209 -0.003738 0.000000 0.000000 0.000000
# 3 -0.001577 -0.003738 0.012683 0.000000 0.000000 0.000000
# 4 0.000000 0.000000 0.000000 1.331465 0.000000 0.000000
# 5 0.000000 0.000000 0.000000 0.000000 0.028606 0.000000
# 6 0.000000 0.000000 0.000000 0.000000 0.000000 0.026995
#
#
# Mechanical properties :
#
#
# Convention : Reuss Voigt Hill
#
# Bulk Modulus (GPa) = 38.86175 42.19877 40.53026
# Shear Modulus (GPa) = 3.40800 25.35399 14.38100
#
# Velocity S-wave (km/s) = 1.28221 3.49729 2.63392
# Velocity P-wave (km/s) = 4.57596 6.05518 5.36678
#
# Compressibility (1/GPa) = 0.02573224
#
# Stress axis : x y z
#
# Youngs Moduli (GPa) = 46.04136 70.37648 78.84501
#
# Poissons Ratio (x) = 0.43103 0.12436
# Poissons Ratio (y) = 0.28198 0.29472
# Poissons Ratio (z) = 0.07262 0.26307
#
# Static dielectric constant tensor:
#      x y z
#    x 1.696010 0.000000 0.000000 
#    y 0.000000 1.772380 0.000000 
#    z 0.000000 0.000000 1.921150 
# 
# From -- ./inp_files/44612.got.cif
#   From: 2010.05.17/outbox.cif.g08.bks.cpg/sg52_23_cif.got.tgz:44612.got - 2010.06.03 12:15:38.
