data_PCOD9413779
_publ_section_title
;
Structure prediction by ZEFSAII (Michael W. Deem and Ramdas Pophale) SiO2 
 PCOD9413779
Probable space group: P N N A
;
_chemical_formula_sum "Si O2"
_cell_formula_units_Z 40
_cell_length_a 9.650712
_cell_length_b 29.203309
_cell_length_c 6.552072
_cell_angle_alpha 90.000000
_cell_angle_beta 90.000000
_cell_angle_gamma 90.000000
_cell_volume 1846.588304
_symmetry_space_group_name_H-M "P N N A"
_symmetry_group_IT_number 52
_symmetry_cell_setting 'orthorhombic'
loop_
_space_group_symop_operation_xyz
x,y,z
1/2-x,-y,z
x,1/2-y,1/2-z
1/2-x,1/2+y,1/2-z
-x,-y,-z
1/2+x,y,-z
-x,1/2+y,1/2+z
1/2+x,1/2-y,1/2+z
loop_
_atom_site_type_symbol
_atom_site_label
_atom_site_fract_x
_atom_site_fract_y
_atom_site_fract_z
Si Si1 0.275514 0.124179 0.967420
Si Si2 0.274756 0.698509 0.202823
Si Si3 0.953811 0.342347 0.099279
Si Si4 0.390268 0.574177 0.880286
Si Si5 0.328583 0.043766 0.283626
O O1 0.393426 0.143066 0.817211
O O2 0.166360 0.098867 0.821154
O O3 0.221051 0.167151 0.095587
O O4 0.323071 0.086421 0.130183
O O5 0.231645 0.750000 0.250000
O O6 0.429341 0.696408 0.113171
O O7 0.169866 0.674472 0.045182
O O8 0.029939 0.386859 0.008631
O O9 0.509048 0.537182 0.830180
O O10 0.262336 0.555893 0.014941
O O11 0.250000 0.000000 0.192157
#
# Coordination Sequence:
#
# PCOD9413779 Si02
#       5
#     8   8   8   8   8
#     4  12  24  45  75  97 140 186 231 281 354 417
#     4  12  29  44  73 106 138 183 232 290 347 416
#     4  12  24  50  69 103 142 183 230 288 348 409
#     4  12  23  48  73  97 143 185 230 288 347 409
#     4  12  27  44  71 107 140 183 235 289 346 415
#
# _framework density 21.661567999999999
#
# number of rings (size 3 to 8) (size 9 to 14) (size 15 to 20)
#    0.000    0.000    8.000    1.800    2.800    1.600 
#    0.000    0.000    0.000    0.000    0.000    0.000 
#    0.000    0.000    0.000    0.000    0.000    0.000 
#
# Total GULP energy -223883.877180 kJ/mol
# GULP energy per Si atom -5597.096929 kJ/mol
# Density = 2.161226 g / cm^3
# Si number density = 21.661568 Si / 1000 Ang^3
#
#
#
# Elastic Constant Matrix: (Units=GPa)
#
#
# Indices 1 2 3 4 5 6 
#
# 1 112.7559 0.9328 45.1393 0.0000 0.0000 0.0000
# 2 0.9328 71.5106 12.2754 0.0000 0.0000 0.0000
# 3 45.1393 12.2754 90.8282 0.0000 0.0000 0.0000
# 4 0.0000 0.0000 0.0000 23.7151 0.0000 0.0000
# 5 0.0000 0.0000 0.0000 0.0000 28.8836 0.0000
# 6 0.0000 0.0000 0.0000 0.0000 0.0000 24.8158
#
#
#
# Elastic Compliance Matrix: (Units=1/GPa)
#
#
# Indices 1 2 3 4 5 6 
#
# 1 0.011118 0.000823 -0.005637 0.000000 0.000000 0.000000
# 2 0.000823 0.014377 -0.002352 0.000000 0.000000 0.000000
# 3 -0.005637 -0.002352 0.014129 0.000000 0.000000 0.000000
# 4 0.000000 0.000000 0.000000 0.042167 0.000000 0.000000
# 5 0.000000 0.000000 0.000000 0.000000 0.034622 0.000000
# 6 0.000000 0.000000 0.000000 0.000000 0.000000 0.040297
#
#
# Mechanical properties :
#
#
# Convention : Reuss Voigt Hill
#
# Bulk Modulus (GPa) = 39.53771 43.53219 41.53495
# Shear Modulus (GPa) = 27.85935 29.93272 28.89604
#
# Velocity S-wave (km/s) = 3.59014 3.72134 3.65633
# Velocity P-wave (km/s) = 5.95631 6.21326 6.08614
#
# Compressibility (1/GPa) = 0.02529231
#
# Stress axis : x y z
#
# Youngs Moduli (GPa) = 89.94058 69.55591 70.77663
#
# Poissons Ratio (x) = -0.05721 0.39895
# Poissons Ratio (y) = -0.07398 0.16645
# Poissons Ratio (z) = 0.50697 0.16358
#
# Static dielectric constant tensor:
#      x y z
#    x 1.821460 0.000000 0.000000 
#    y 0.000000 1.784190 0.000000 
#    z 0.000000 0.000000 1.781710 
# 
# From -- ./inp_files/1497.got.cif
#   From: 2010.05.17/outbox.cif.g08.bks.cpg/sg52_1_cif.got.tgz:1497.got - 2010.06.03 12:15:38.
