data_PCOD9413283
_publ_section_title
;
Structure prediction by ZEFSAII (Michael W. Deem and Ramdas Pophale) SiO2 
 PCOD9413283
Probable space group: P N N A
;
_chemical_formula_sum "Si O2"
_cell_formula_units_Z 20
_cell_length_a 11.235864
_cell_length_b 7.929969
_cell_length_c 8.657380
_cell_angle_alpha 90.000000
_cell_angle_beta 90.000000
_cell_angle_gamma 90.000000
_cell_volume 771.373019
_symmetry_space_group_name_H-M "P N N A"
_symmetry_group_IT_number 52
_symmetry_cell_setting 'orthorhombic'
loop_
_space_group_symop_operation_xyz
x,y,z
1/2-x,-y,z
x,1/2-y,1/2-z
1/2-x,1/2+y,1/2-z
-x,-y,-z
1/2+x,y,-z
-x,1/2+y,1/2+z
1/2+x,1/2-y,1/2+z
loop_
_atom_site_type_symbol
_atom_site_label
_atom_site_fract_x
_atom_site_fract_y
_atom_site_fract_z
Si Si1 0.839366 0.137825 0.924807
Si Si2 0.592992 0.435916 0.271571
Si Si3 0.250000 0.500000 0.003583
O O1 0.772495 0.317345 0.919613
O O2 0.750000 0.000000 0.861478
O O3 0.864871 0.070810 0.100201
O O4 0.961456 0.108316 0.832092
O O5 0.651201 0.250000 0.250000
O O6 0.629969 0.502316 0.103907
#
# Coordination Sequence:
#
# PCOD9413283 Si02
#       3
#     8   8   4
#     4  11  24  45  69 104 140 177 246 287 341 431
#     4  11  22  44  71 100 136 188 230 287 354 409
#     4  12  22  48  76  96 142 194 226 288 368 404
#
# _framework density 25.927790999999999
#
# number of rings (size 3 to 8) (size 9 to 14) (size 15 to 20)
#    0.000    0.800    6.000    1.200    0.000    1.600 
#   10.800    0.000    0.000    0.000    0.000    0.000 
#    0.000    0.000    0.000    0.000    0.000    0.000 
#
# Total GULP energy -111421.964811 kJ/mol
# GULP energy per Si atom -5571.098241 kJ/mol
# Density = 2.586878 g / cm^3
# Si number density = 25.927791 Si / 1000 Ang^3
#
#
#
# Elastic Constant Matrix: (Units=GPa)
#
#
# Indices 1 2 3 4 5 6 
#
# 1 163.0488 87.8190 80.3394 0.0000 0.0000 0.0000
# 2 87.8190 275.0301 103.0629 0.0000 0.0000 0.0000
# 3 80.3394 103.0629 92.9576 0.0000 0.0000 0.0000
# 4 0.0000 0.0000 0.0000 64.5006 0.0000 0.0000
# 5 0.0000 0.0000 0.0000 0.0000 4.3933 0.0000
# 6 0.0000 0.0000 0.0000 0.0000 0.0000 32.2351
#
#
#
# Elastic Compliance Matrix: (Units=1/GPa)
#
#
# Indices 1 2 3 4 5 6 
#
# 1 0.010683 0.000083 -0.009325 0.000000 0.000000 0.000000
# 2 0.000083 0.006221 -0.006969 0.000000 0.000000 0.000000
# 3 -0.009325 -0.006969 0.026544 0.000000 0.000000 0.000000
# 4 0.000000 0.000000 0.000000 0.015504 0.000000 0.000000
# 5 0.000000 0.000000 0.000000 0.000000 0.227619 0.000000
# 6 0.000000 0.000000 0.000000 0.000000 0.000000 0.031022
#
#
# Mechanical properties :
#
#
# Convention : Reuss Voigt Hill
#
# Bulk Modulus (GPa) = 90.69885 119.27546 104.98715
# Shear Modulus (GPa) = 14.13663 37.54681 25.84172
#
# Velocity S-wave (km/s) = 2.33755 3.80956 3.16045
# Velocity P-wave (km/s) = 6.50713 8.09031 7.34152
#
# Compressibility (1/GPa) = 0.01102550
#
# Stress axis : x y z
#
# Youngs Moduli (GPa) = 93.60507 160.74652 37.67324
#
# Poissons Ratio (x) = -0.01339 0.35132
# Poissons Ratio (y) = -0.00780 0.26255
# Poissons Ratio (z) = 0.87291 1.12029
#
# Static dielectric constant tensor:
#      x y z
#    x -7.137460 0.000000 0.000000 
#    y 0.000000 2.084070 0.000000 
#    z 0.000000 0.000000 2.195110 
# 
# From -- ./inp_files/7841.got.cif
#   From: 2010.05.17/outbox.cif.g08.bks.cpg/sg52_4_cif.got.tgz:7841.got - 2010.06.03 12:15:38.
