data_PCOD9413867
_publ_section_title
;
Structure prediction by ZEFSAII (Michael W. Deem and Ramdas Pophale) SiO2 
 PCOD9413867
Probable space group: P N N A
;
_chemical_formula_sum "Si O2"
_cell_formula_units_Z 40
_cell_length_a 18.021686
_cell_length_b 8.602611
_cell_length_c 12.376373
_cell_angle_alpha 90.000000
_cell_angle_beta 90.000000
_cell_angle_gamma 90.000000
_cell_volume 1918.753095
_symmetry_space_group_name_H-M "P N N A"
_symmetry_group_IT_number 52
_symmetry_cell_setting 'orthorhombic'
loop_
_space_group_symop_operation_xyz
x,y,z
1/2-x,-y,z
x,1/2-y,1/2-z
1/2-x,1/2+y,1/2-z
-x,-y,-z
1/2+x,y,-z
-x,1/2+y,1/2+z
1/2+x,1/2-y,1/2+z
loop_
_atom_site_type_symbol
_atom_site_label
_atom_site_fract_x
_atom_site_fract_y
_atom_site_fract_z
Si Si1 0.341516 0.270204 0.370286
Si Si2 0.578610 0.250000 0.750000
Si Si3 0.750000 0.000000 0.011659
Si Si4 0.988384 0.032228 0.873944
Si Si5 0.163451 0.441468 0.063499
Si Si6 0.861294 0.708673 0.366042
O O1 0.310331 0.250000 0.250000
O O2 0.280489 0.357908 0.440976
O O3 0.411170 0.381425 0.358057
O O4 0.372190 0.111882 0.422853
O O5 0.524859 0.373993 0.691618
O O6 0.631103 0.335135 0.839240
O O7 0.816323 0.932946 0.081796
O O8 0.056715 0.142510 0.844024
O O9 0.000000 0.000000 0.000000
O O10 0.250000 0.500000 0.071708
O O11 0.145365 0.350034 0.952487
O O12 0.827682 0.750000 0.250000
#
# Coordination Sequence:
#
# PCOD9413867 Si02
#       6
#     8   4   4   8   8   8
#     4  12  26  42  77 109 144 183 237 303 367 422
#     4  12  26  46  76 110 148 188 244 308 366 438
#     4  12  26  46  70 106 146 188 238 298 358 436
#     4  12  25  49  71 107 145 191 236 301 364 430
#     4  12  27  44  76 110 143 186 242 297 372 431
#     4  12  29  50  72 100 150 195 245 294 357 438
#
# _framework density 20.846872999999999
#
# number of rings (size 3 to 8) (size 9 to 14) (size 15 to 20)
#    0.000    0.000    8.000    0.600    4.200    2.400 
#    1.800    0.000    0.000    0.000    0.000    0.000 
#    0.000    0.000    0.000    0.000    0.000    0.000 
#
# Total GULP energy -223541.039152 kJ/mol
# GULP energy per Si atom -5588.525979 kJ/mol
# Density = 2.079942 g / cm^3
# Si number density = 20.846873 Si / 1000 Ang^3
#
#
#
# Elastic Constant Matrix: (Units=GPa)
#
#
# Indices 1 2 3 4 5 6 
#
# 1 76.4653 10.6716 28.2425 0.0000 0.0000 0.0000
# 2 10.6716 131.1701 76.2257 0.0000 0.0000 0.0000
# 3 28.2425 76.2257 170.0043 0.0000 0.0000 0.0000
# 4 0.0000 0.0000 0.0000 29.5612 0.0000 0.0000
# 5 0.0000 0.0000 0.0000 0.0000 70.7560 0.0000
# 6 0.0000 0.0000 0.0000 0.0000 0.0000 17.1663
#
#
#
# Elastic Compliance Matrix: (Units=1/GPa)
#
#
# Indices 1 2 3 4 5 6 
#
# 1 0.013941 0.000286 -0.002444 0.000000 0.000000 0.000000
# 2 0.000286 0.010316 -0.004673 0.000000 0.000000 0.000000
# 3 -0.002444 -0.004673 0.008384 0.000000 0.000000 0.000000
# 4 0.000000 0.000000 0.000000 0.033828 0.000000 0.000000
# 5 0.000000 0.000000 0.000000 0.000000 0.014133 0.000000
# 6 0.000000 0.000000 0.000000 0.000000 0.000000 0.058254
#
#
# Mechanical properties :
#
#
# Convention : Reuss Voigt Hill
#
# Bulk Modulus (GPa) = 52.69222 67.54661 60.11942
# Shear Modulus (GPa) = 31.47760 40.99669 36.23715
#
# Velocity S-wave (km/s) = 3.89001 4.43941 4.17376
# Velocity P-wave (km/s) = 6.74589 7.66482 7.21999
#
# Compressibility (1/GPa) = 0.01897813
#
# Stress axis : x y z
#
# Youngs Moduli (GPa) = 71.73252 96.93716 119.28171
#
# Poissons Ratio (x) = -0.02775 0.29156
# Poissons Ratio (y) = -0.02053 0.55740
# Poissons Ratio (z) = 0.17534 0.45298
#
# Static dielectric constant tensor:
#      x y z
#    x 1.797830 0.000000 0.000000 
#    y 0.000000 1.843960 0.000000 
#    z 0.000000 0.000000 1.667020 
# 
# From -- ./inp_files/20363.got.cif
#   From: 2010.05.17/outbox.cif.g08.bks.cpg/sg52_11_cif.got.tgz:20363.got - 2010.06.03 12:15:38.
