data_PCOD9413120
_publ_section_title
;
Structure prediction by ZEFSAII (Michael W. Deem and Ramdas Pophale) SiO2 
 PCOD9413120
Probable space group: P N N A
;
_chemical_formula_sum "Si O2"
_cell_formula_units_Z 48
_cell_length_a 10.037315
_cell_length_b 13.875600
_cell_length_c 17.357311
_cell_angle_alpha 90.000000
_cell_angle_beta 90.000000
_cell_angle_gamma 90.000000
_cell_volume 2417.418106
_symmetry_space_group_name_H-M "P N N A"
_symmetry_group_IT_number 52
_symmetry_cell_setting 'orthorhombic'
loop_
_space_group_symop_operation_xyz
x,y,z
1/2-x,-y,z
x,1/2-y,1/2-z
1/2-x,1/2+y,1/2-z
-x,-y,-z
1/2+x,y,-z
-x,1/2+y,1/2+z
1/2+x,1/2-y,1/2+z
loop_
_atom_site_type_symbol
_atom_site_label
_atom_site_fract_x
_atom_site_fract_y
_atom_site_fract_z
Si Si1 0.750012 0.783842 0.541738
Si Si2 0.468057 0.999994 0.663334
Si Si3 0.750000 0.000000 0.203486
Si Si4 0.539150 0.788761 0.667759
Si Si5 0.250000 0.000000 0.528411
Si Si6 0.460872 0.711227 0.167761
Si Si7 0.250006 0.791219 0.871745
O O1 0.623302 0.756674 0.594121
O O2 0.750003 0.898545 0.518032
O O3 0.876727 0.756684 0.594120
O O4 0.750012 0.725538 0.462761
O O5 0.374452 0.999988 0.738431
O O6 0.550899 0.903409 0.666235
O O7 0.377164 0.999999 0.586169
O O8 0.550896 0.096580 0.666243
O O9 0.750015 0.097926 0.154478
O O10 0.586260 0.750000 0.750000
O O11 0.383860 0.760098 0.659116
O O12 0.413772 0.750000 0.250000
O O13 0.616167 0.739878 0.159115
#
# Coordination Sequence:
#
# PCOD9413120 Si02
#       7
#     8   8   4   8   4   8   8
#     4  12  26  41  63 104 138 166 205 268 344 373
#     4  11  21  38  70 101 125 165 224 265 317 379
#     4  11  22  42  68  99 116 170 236 269 292 378
#     4  12  24  43  67  96 134 174 213 264 319 391
#     4  11  22  38  68  99 140 160 204 281 330 378
#     4  12  24  43  67  96 134 174 213 264 319 391
#     4  12  23  43  70  93 125 171 226 265 308 381
#
# _framework density 19.855896000000001
#
# number of rings (size 3 to 8) (size 9 to 14) (size 15 to 20)
#    0.000    0.333    6.667    4.000    0.000    1.333 
#    0.000    5.000    0.000    0.000    0.000    0.000 
#    0.000    0.000    0.000    0.000    0.000    0.000 
#
# Total GULP energy -268472.473734 kJ/mol
# GULP energy per Si atom -5593.176536 kJ/mol
# Density = 1.981070 g / cm^3
# Si number density = 19.855896 Si / 1000 Ang^3
#
#
#
# Elastic Constant Matrix: (Units=GPa)
#
#
# Indices 1 2 3 4 5 6 
#
# 1 67.6380 19.1286 42.2939 0.0000 0.0000 0.0000
# 2 19.1286 87.5241 39.7435 0.0000 0.0000 0.0000
# 3 42.2939 39.7435 175.5693 0.0000 0.0000 0.0000
# 4 0.0000 0.0000 0.0000 35.4589 0.0000 0.0000
# 5 0.0000 0.0000 0.0000 0.0000 34.2614 0.0000
# 6 0.0000 0.0000 0.0000 0.0000 0.0000 4.4624
#
#
#
# Elastic Compliance Matrix: (Units=1/GPa)
#
#
# Indices 1 2 3 4 5 6 
#
# 1 0.017766 -0.002162 -0.003790 0.000000 0.000000 0.000000
# 2 -0.002162 0.012997 -0.002421 0.000000 0.000000 0.000000
# 3 -0.003790 -0.002421 0.007157 0.000000 0.000000 0.000000
# 4 0.000000 0.000000 0.000000 0.028202 0.000000 0.000000
# 5 0.000000 0.000000 0.000000 0.000000 0.029187 0.000000
# 6 0.000000 0.000000 0.000000 0.000000 0.000000 0.224096
#
#
# Mechanical properties :
#
#
# Convention : Reuss Voigt Hill
#
# Bulk Modulus (GPa) = 47.22915 59.22929 53.22922
# Shear Modulus (GPa) = 14.56832 30.14089 22.35460
#
# Velocity S-wave (km/s) = 2.71163 3.90036 3.35900
# Velocity P-wave (km/s) = 5.80013 7.08364 6.47378
#
# Compressibility (1/GPa) = 0.02117337
#
# Stress axis : x y z
#
# Youngs Moduli (GPa) = 56.28709 76.93834 139.72317
#
# Poissons Ratio (x) = 0.16631 0.52961
# Poissons Ratio (y) = 0.12167 0.33834
# Poissons Ratio (z) = 0.21335 0.18631
#
# Static dielectric constant tensor:
#      x y z
#    x 1.726770 0.000000 0.000000 
#    y 0.000000 1.688750 0.000000 
#    z 0.000000 0.000000 1.681290 
# 
# From -- ./inp_files/26108.got.cif
#   From: 2010.05.17/outbox.cif.g08.bks.cpg/sg52_14_cif.got.tgz:26108.got - 2010.06.03 12:15:38.
