data_PCOD9413495
_publ_section_title
;
Structure prediction by ZEFSAII (Michael W. Deem and Ramdas Pophale) SiO2 
 PCOD9413495
Probable space group: P N N A
;
_chemical_formula_sum "Si O2"
_cell_formula_units_Z 32
_cell_length_a 15.785824
_cell_length_b 5.882427
_cell_length_c 15.768545
_cell_angle_alpha 90.000000
_cell_angle_beta 90.000000
_cell_angle_gamma 90.000000
_cell_volume 1464.250647
_symmetry_space_group_name_H-M "P N N A"
_symmetry_group_IT_number 52
_symmetry_cell_setting 'orthorhombic'
loop_
_space_group_symop_operation_xyz
x,y,z
1/2-x,-y,z
x,1/2-y,1/2-z
1/2-x,1/2+y,1/2-z
-x,-y,-z
1/2+x,y,-z
-x,1/2+y,1/2+z
1/2+x,1/2-y,1/2+z
loop_
_atom_site_type_symbol
_atom_site_label
_atom_site_fract_x
_atom_site_fract_y
_atom_site_fract_z
Si Si1 0.202798 0.750000 0.750000
Si Si2 0.473285 0.250000 0.250000
Si Si3 0.154354 0.428306 0.175367
Si Si4 0.924466 0.460538 0.371292
Si Si5 0.935700 0.707569 0.982283
O O1 0.250000 0.500000 0.758225
O O2 0.146879 0.707937 0.664197
O O3 0.410485 0.361820 0.182438
O O4 0.533868 0.438227 0.287376
O O5 0.250000 0.500000 0.191497
O O6 0.131546 0.250000 0.250000
O O7 0.141907 0.340916 0.080567
O O8 0.900598 0.669404 0.433541
O O9 0.001814 0.356543 0.423822
O O10 0.000000 0.500000 0.000000
#
# Coordination Sequence:
#
# PCOD9413495 Si02
#       5
#     4   4   8   8   8
#     4  12  29  52  79 112 154 206 256 320 387 460
#     4  12  21  42  77 102 136 196 254 302 365 474
#     4  12  24  42  68 104 149 192 243 310 389 451
#     4  11  25  46  76 102 141 196 257 304 378 454
#     4  11  24  44  72 107 142 190 253 311 370 458
#
# _framework density 21.854182000000002
#
# number of rings (size 3 to 8) (size 9 to 14) (size 15 to 20)
#    0.000    0.500    6.250    2.250    3.500    0.000 
#    4.500    0.000    0.000    0.000    0.000    0.000 
#    0.000    0.000    0.000    0.000    0.000    0.000 
#
# Total GULP energy -178461.908352 kJ/mol
# GULP energy per Si atom -5576.934636 kJ/mol
# Density = 2.180444 g / cm^3
# Si number density = 21.854182 Si / 1000 Ang^3
#
#
#
# Elastic Constant Matrix: (Units=GPa)
#
#
# Indices 1 2 3 4 5 6 
#
# 1 55.1390 32.4578 27.1254 0.0000 0.0000 0.0000
# 2 32.4578 81.8531 20.4396 0.0000 0.0000 0.0000
# 3 27.1254 20.4396 78.0073 0.0000 0.0000 0.0000
# 4 0.0000 0.0000 0.0000 45.0405 0.0000 0.0000
# 5 0.0000 0.0000 0.0000 0.0000 20.3389 0.0000
# 6 0.0000 0.0000 0.0000 0.0000 0.0000 41.3778
#
#
#
# Elastic Compliance Matrix: (Units=1/GPa)
#
#
# Indices 1 2 3 4 5 6 
#
# 1 0.026805 -0.008883 -0.006994 0.000000 0.000000 0.000000
# 2 -0.008883 0.016016 -0.001108 0.000000 0.000000 0.000000
# 3 -0.006994 -0.001108 0.015541 0.000000 0.000000 0.000000
# 4 0.000000 0.000000 0.000000 0.022202 0.000000 0.000000
# 5 0.000000 0.000000 0.000000 0.000000 0.049167 0.000000
# 6 0.000000 0.000000 0.000000 0.000000 0.000000 0.024168
#
#
# Mechanical properties :
#
#
# Convention : Reuss Voigt Hill
#
# Bulk Modulus (GPa) = 40.99279 41.67166 41.33223
# Shear Modulus (GPa) = 25.51028 30.34987 27.93008
#
# Velocity S-wave (km/s) = 3.42028 3.73063 3.57882
# Velocity P-wave (km/s) = 5.86480 6.13728 6.00259
#
# Compressibility (1/GPa) = 0.02439453
#
# Stress axis : x y z
#
# Youngs Moduli (GPa) = 37.30590 62.43740 64.34429
#
# Poissons Ratio (x) = 0.55463 0.44999
# Poissons Ratio (y) = 0.33139 0.07127
# Poissons Ratio (z) = 0.26090 0.06916
#
# Static dielectric constant tensor:
#      x y z
#    x 1.774800 0.000000 0.000000 
#    y 0.000000 2.005540 0.000000 
#    z 0.000000 0.000000 1.863810 
# 
# From -- ./inp_files/27638.got.cif
#   From: 2010.05.17/outbox.cif.g08.bks.cpg/sg52_14_cif.got.tgz:27638.got - 2010.06.03 12:15:38.
