data_PCOD9413566
_publ_section_title
;
Structure prediction by ZEFSAII (Michael W. Deem and Ramdas Pophale) SiO2 
 PCOD9413566
Probable space group: P N N A
;
_chemical_formula_sum "Si O2"
_cell_formula_units_Z 64
_cell_length_a 11.503873
_cell_length_b 14.006817
_cell_length_c 18.317047
_cell_angle_alpha 90.000000
_cell_angle_beta 90.000000
_cell_angle_gamma 90.000000
_cell_volume 2951.474212
_symmetry_space_group_name_H-M "P N N A"
_symmetry_group_IT_number 52
_symmetry_cell_setting 'orthorhombic'
loop_
_space_group_symop_operation_xyz
x,y,z
1/2-x,-y,z
x,1/2-y,1/2-z
1/2-x,1/2+y,1/2-z
-x,-y,-z
1/2+x,y,-z
-x,1/2+y,1/2+z
1/2+x,1/2-y,1/2+z
loop_
_atom_site_type_symbol
_atom_site_label
_atom_site_fract_x
_atom_site_fract_y
_atom_site_fract_z
Si Si1 0.249680 0.111530 0.712142
Si Si2 0.206266 0.235436 0.574405
Si Si3 0.118482 0.479516 0.184791
Si Si4 0.516777 0.654152 0.291644
Si Si5 0.623683 0.055811 0.519717
Si Si6 0.593579 0.612792 0.442679
Si Si7 0.036209 0.094108 0.904745
Si Si8 0.487608 0.357471 0.253078
O O1 0.263874 0.175655 0.640410
O O2 0.349455 0.131501 0.770532
O O3 0.126237 0.136882 0.745832
O O4 0.250000 0.000000 0.692156
O O5 0.147081 0.155705 0.522194
O O6 0.302793 0.311149 0.546828
O O7 0.107455 0.307845 0.601061
O O8 0.250000 0.500000 0.203144
O O9 0.111292 0.429760 0.106653
O O10 0.057513 0.422905 0.248888
O O11 0.057258 0.582454 0.184459
O O12 0.485897 0.750000 0.250000
O O13 0.510192 0.654781 0.378765
O O14 0.750000 0.000000 0.509260
O O15 0.500000 0.000000 0.500000
O O16 0.535502 0.600537 0.520999
O O17 0.611486 0.503678 0.412321
O O18 0.959989 0.094936 0.831186
O O19 0.445080 0.250000 0.250000
#
# Coordination Sequence:
#
# PCOD9413566 Si02
#       8
#     8   8   8   8   8   8   8   8
#     4  12  22  39  72 113 140 174 221 304 381 428
#     4  12  25  42  74 108 146 184 242 307 385 455
#     4  11  27  49  69 100 148 200 248 300 368 454
#     4  12  24  43  75 103 143 183 245 302 371 447
#     4  11  28  47  75 112 156 198 249 317 390 462
#     4  11  25  46  67 106 143 191 242 312 379 448
#     4  11  25  44  67 103 145 188 245 311 373 451
#     4  12  23  44  73 104 142 189 244 299 370 448
#
# _framework density 21.684079000000001
#
# number of rings (size 3 to 8) (size 9 to 14) (size 15 to 20)
#    0.000    0.500    5.000    2.625    5.250    1.500 
#    2.250    0.000    0.000    0.000    0.000    0.000 
#    0.000    0.000    0.000    0.000    0.000    0.000 
#
# Total GULP energy -357280.137302 kJ/mol
# GULP energy per Si atom -5582.502145 kJ/mol
# Density = 2.163472 g / cm^3
# Si number density = 21.684079 Si / 1000 Ang^3
#
#
#
# Elastic Constant Matrix: (Units=GPa)
#
#
# Indices 1 2 3 4 5 6 
#
# 1 44.2033 15.1591 23.8121 0.0000 0.0000 0.0000
# 2 15.1591 162.5837 46.6066 0.0000 0.0000 0.0000
# 3 23.8121 46.6066 103.1317 0.0000 0.0000 0.0000
# 4 0.0000 0.0000 0.0000 82.0053 0.0000 0.0000
# 5 0.0000 0.0000 0.0000 0.0000 17.9588 0.0000
# 6 0.0000 0.0000 0.0000 0.0000 0.0000 33.5790
#
#
#
# Elastic Compliance Matrix: (Units=1/GPa)
#
#
# Indices 1 2 3 4 5 6 
#
# 1 0.025928 -0.000806 -0.005622 0.000000 0.000000 0.000000
# 2 -0.000806 0.007091 -0.003019 0.000000 0.000000 0.000000
# 3 -0.005622 -0.003019 0.012359 0.000000 0.000000 0.000000
# 4 0.000000 0.000000 0.000000 0.012194 0.000000 0.000000
# 5 0.000000 0.000000 0.000000 0.000000 0.055683 0.000000
# 6 0.000000 0.000000 0.000000 0.000000 0.000000 0.029781
#
#
# Mechanical properties :
#
#
# Convention : Reuss Voigt Hill
#
# Bulk Modulus (GPa) = 37.75828 53.45268 45.60548
# Shear Modulus (GPa) = 29.28144 41.66468 35.47306
#
# Velocity S-wave (km/s) = 3.67872 4.38818 4.04902
# Velocity P-wave (km/s) = 5.95774 7.09782 6.55262
#
# Compressibility (1/GPa) = 0.02648425
#
# Stress axis : x y z
#
# Youngs Moduli (GPa) = 38.56866 141.02177 80.91542
#
# Poissons Ratio (x) = 0.11363 0.45493
# Poissons Ratio (y) = 0.03108 0.24424
# Poissons Ratio (z) = 0.21685 0.42568
#
# Static dielectric constant tensor:
#      x y z
#    x 1.812640 0.000000 0.000000 
#    y 0.000000 1.857900 0.000000 
#    z 0.000000 0.000000 1.784070 
# 
# From -- ./inp_files/32398.got.cif
#   From: 2010.05.17/outbox.cif.g08.bks.cpg/sg52_17_cif.got.tgz:32398.got - 2010.06.03 12:15:38.
