data_PCOD9413414
_publ_section_title
;
Structure prediction by ZEFSAII (Michael W. Deem and Ramdas Pophale) SiO2 
 PCOD9413414
Probable space group: P N N A
;
_chemical_formula_sum "Si O2"
_cell_formula_units_Z 40
_cell_length_a 17.544586
_cell_length_b 16.856435
_cell_length_c 5.562466
_cell_angle_alpha 90.000000
_cell_angle_beta 90.000000
_cell_angle_gamma 90.000000
_cell_volume 1645.039098
_symmetry_space_group_name_H-M "P N N A"
_symmetry_group_IT_number 52
_symmetry_cell_setting 'orthorhombic'
loop_
_space_group_symop_operation_xyz
x,y,z
1/2-x,-y,z
x,1/2-y,1/2-z
1/2-x,1/2+y,1/2-z
-x,-y,-z
1/2+x,y,-z
-x,1/2+y,1/2+z
1/2+x,1/2-y,1/2+z
loop_
_atom_site_type_symbol
_atom_site_label
_atom_site_fract_x
_atom_site_fract_y
_atom_site_fract_z
Si Si1 0.198972 0.331570 0.891041
Si Si2 0.943560 0.445804 0.163346
Si Si3 0.578117 0.156075 0.750902
Si Si4 0.859310 0.204314 0.514865
Si Si5 0.817597 0.543878 0.451530
O O1 0.186164 0.250000 0.750000
O O2 0.228632 0.408312 0.750940
O O3 0.117295 0.357748 0.992570
O O4 0.269429 0.310080 0.060803
O O5 0.884052 0.490382 0.336124
O O6 0.001981 0.390393 0.309586
O O7 0.899160 0.381019 0.004355
O O8 0.000000 0.500000 0.000000
O O9 0.567701 0.250000 0.750000
O O10 0.641815 0.116463 0.915662
O O11 0.890154 0.250000 0.750000
O O12 0.865369 0.250000 0.250000
O O13 0.750000 0.500000 0.595019
#
# Coordination Sequence:
#
# PCOD9413414 Si02
#       5
#     8   8   8   8   8
#     4  11  23  46  75 107 145 197 262 310 388 468
#     4  12  27  46  70 110 153 202 252 327 399 466
#     4  12  26  45  76 107 146 203 253 323 391 481
#     4  11  27  49  78 112 154 204 265 320 384 469
#     4  12  26  48  75 109 153 197 261 327 397 463
#
# _framework density 24.315531
#
# number of rings (size 3 to 8) (size 9 to 14) (size 15 to 20)
#    0.000    0.400    6.000    1.800    2.800    8.000 
#    0.000    0.000    0.000    0.000    0.000    0.000 
#    0.000    0.000    0.000    0.000    0.000    0.000 
#
# Total GULP energy -223199.897520 kJ/mol
# GULP energy per Si atom -5579.997438 kJ/mol
# Density = 2.426019 g / cm^3
# Si number density = 24.315531 Si / 1000 Ang^3
#
#
#
# Elastic Constant Matrix: (Units=GPa)
#
#
# Indices 1 2 3 4 5 6 
#
# 1 130.2881 73.9704 26.6147 0.0000 0.0000 0.0000
# 2 73.9704 160.6842 42.3463 0.0000 0.0000 0.0000
# 3 26.6147 42.3463 51.2114 0.0000 0.0000 0.0000
# 4 0.0000 0.0000 0.0000 13.7243 0.0000 0.0000
# 5 0.0000 0.0000 0.0000 0.0000 7.1835 0.0000
# 6 0.0000 0.0000 0.0000 0.0000 0.0000 46.8424
#
#
#
# Elastic Compliance Matrix: (Units=1/GPa)
#
#
# Indices 1 2 3 4 5 6 
#
# 1 0.010530 -0.004354 -0.001872 0.000000 0.000000 0.000000
# 2 -0.004354 0.009758 -0.005806 0.000000 0.000000 0.000000
# 3 -0.001872 -0.005806 0.025301 0.000000 0.000000 0.000000
# 4 0.000000 0.000000 0.000000 0.072863 0.000000 0.000000
# 5 0.000000 0.000000 0.000000 0.000000 0.139207 0.000000
# 6 0.000000 0.000000 0.000000 0.000000 0.000000 0.021348
#
#
# Mechanical properties :
#
#
# Convention : Reuss Voigt Hill
#
# Bulk Modulus (GPa) = 46.45904 69.78296 58.12100
# Shear Modulus (GPa) = 16.11628 26.83353 21.47491
#
# Velocity S-wave (km/s) = 2.57728 3.32558 2.97505
# Velocity P-wave (km/s) = 5.29195 6.59600 5.97963
#
# Compressibility (1/GPa) = 0.02152433
#
# Stress axis : x y z
#
# Youngs Moduli (GPa) = 94.97011 102.48239 39.52470
#
# Poissons Ratio (x) = 0.44620 0.07399
# Poissons Ratio (y) = 0.41349 0.22948
# Poissons Ratio (z) = 0.17779 0.59500
#
# Static dielectric constant tensor:
#      x y z
#    x 1.930990 0.000000 0.000000 
#    y 0.000000 2.097460 0.000000 
#    z 0.000000 0.000000 2.098700 
# 
# From -- ./inp_files/3203.got.cif
#   From: 2010.05.17/outbox.cif.g08.bks.cpg/sg52_2_cif.got.tgz:3203.got - 2010.06.03 12:15:38.
