data_PCOD9413904
_publ_section_title
;
Structure prediction by ZEFSAII (Michael W. Deem and Ramdas Pophale) SiO2 
 PCOD9413904
Probable space group: P N N A
;
_chemical_formula_sum "Si O2"
_cell_formula_units_Z 28
_cell_length_a 9.641189
_cell_length_b 13.438840
_cell_length_c 7.975936
_cell_angle_alpha 90.000000
_cell_angle_beta 90.000000
_cell_angle_gamma 90.000000
_cell_volume 1033.413285
_symmetry_space_group_name_H-M "P N N A"
_symmetry_group_IT_number 52
_symmetry_cell_setting 'orthorhombic'
loop_
_space_group_symop_operation_xyz
x,y,z
1/2-x,-y,z
x,1/2-y,1/2-z
1/2-x,1/2+y,1/2-z
-x,-y,-z
1/2+x,y,-z
-x,1/2+y,1/2+z
1/2+x,1/2-y,1/2+z
loop_
_atom_site_type_symbol
_atom_site_label
_atom_site_fract_x
_atom_site_fract_y
_atom_site_fract_z
Si Si1 0.005676 0.250000 0.250000
Si Si2 0.696139 0.608180 0.468683
Si Si3 0.127043 0.074185 0.474454
Si Si4 0.542873 0.350927 0.320372
O O1 0.090541 0.163571 0.348826
O O2 0.899590 0.316172 0.364101
O O3 0.750000 0.500000 0.411142
O O4 0.410722 0.414535 0.378646
O O5 0.846514 0.660496 0.471296
O O6 0.138001 0.118020 0.662496
O O7 0.250000 0.000000 0.428757
O O8 0.000000 0.000000 0.500000
O O9 0.476591 0.250000 0.250000
#
# Coordination Sequence:
#
# PCOD9413904 Si02
#       4
#     4   8   8   8
#     4  12  26  54  94 128 186 238 294 390 454 530
#     4  12  27  51  85 127 176 234 300 364 456 542
#     4  12  29  54  84 130 179 231 301 369 451 544
#     4  12  26  52  81 124 175 228 291 370 443 532
#
# _framework density 27.094677000000001
#
# number of rings (size 3 to 8) (size 9 to 14) (size 15 to 20)
#    0.000    0.000    4.286    5.143    0.000    3.429 
#    5.143    1.429    0.000    0.000    0.000    0.000 
#    0.000    0.000    0.000    0.000    0.000    0.000 
#
# Total GULP energy -156341.741344 kJ/mol
# GULP energy per Si atom -5583.633619 kJ/mol
# Density = 2.703301 g / cm^3
# Si number density = 27.094677 Si / 1000 Ang^3
#
#
#
# Elastic Constant Matrix: (Units=GPa)
#
#
# Indices 1 2 3 4 5 6 
#
# 1 220.3360 78.5286 72.1235 0.0000 0.0000 0.0000
# 2 78.5286 211.9899 67.3349 0.0000 0.0000 0.0000
# 3 72.1235 67.3349 129.1754 0.0000 0.0000 0.0000
# 4 0.0000 0.0000 0.0000 34.2750 0.0000 0.0000
# 5 0.0000 0.0000 0.0000 0.0000 12.1427 0.0000
# 6 0.0000 0.0000 0.0000 0.0000 0.0000 65.3456
#
#
#
# Elastic Compliance Matrix: (Units=1/GPa)
#
#
# Indices 1 2 3 4 5 6 
#
# 1 0.005862 -0.001356 -0.002566 0.000000 0.000000 0.000000
# 2 -0.001356 0.005967 -0.002353 0.000000 0.000000 0.000000
# 3 -0.002566 -0.002353 0.010401 0.000000 0.000000 0.000000
# 4 0.000000 0.000000 0.000000 0.029176 0.000000 0.000000
# 5 0.000000 0.000000 0.000000 0.000000 0.082354 0.000000
# 6 0.000000 0.000000 0.000000 0.000000 0.000000 0.015303
#
#
# Mechanical properties :
#
#
# Convention : Reuss Voigt Hill
#
# Bulk Modulus (GPa) = 103.31844 110.83062 107.07453
# Shear Modulus (GPa) = 30.33258 45.25363 37.79311
#
# Velocity S-wave (km/s) = 3.34953 4.09125 3.73883
# Velocity P-wave (km/s) = 7.29207 7.95685 7.63170
#
# Compressibility (1/GPa) = 0.00967881
#
# Stress axis : x y z
#
# Youngs Moduli (GPa) = 170.59466 167.58550 96.14831
#
# Poissons Ratio (x) = 0.22732 0.24670
# Poissons Ratio (y) = 0.23140 0.22625
# Poissons Ratio (z) = 0.43772 0.39435
#
# Static dielectric constant tensor:
#      x y z
#    x 2.029510 0.000000 0.000000 
#    y 0.000000 2.002890 0.000000 
#    z 0.000000 0.000000 2.700080 
# 
# From -- ./inp_files/17561.got.cif
#   From: 2010.05.17/outbox.cif.g08.bks.cpg/sg52_9_cif.got.tgz:17561.got - 2010.06.03 12:15:38.
