data_PCOD9413995
_publ_section_title
;
Structure prediction by ZEFSAII (Michael W. Deem and Ramdas Pophale) SiO2 
 PCOD9413995
Probable space group: P N N A
;
_chemical_formula_sum "Si O2"
_cell_formula_units_Z 40
_cell_length_a 18.000000
_cell_length_b 6.000000
_cell_length_c 18.000000
_cell_angle_alpha 90.000000
_cell_angle_beta 90.000000
_cell_angle_gamma 90.000000
_cell_volume 1944.000000
_symmetry_space_group_name_H-M "P N N A"
_symmetry_group_IT_number 52
_symmetry_cell_setting 'orthorhombic'
loop_
_space_group_symop_operation_xyz
x,y,z
1/2-x,-y,z
x,1/2-y,1/2-z
1/2-x,1/2+y,1/2-z
-x,-y,-z
1/2+x,y,-z
-x,1/2+y,1/2+z
1/2+x,1/2-y,1/2+z
loop_
_atom_site_type_symbol
_atom_site_label
_atom_site_fract_x
_atom_site_fract_y
_atom_site_fract_z
Si Si1 0.173850 0.003026 0.947376
Si Si2 0.528746 0.756611 0.097860
Si Si3 0.941799 0.750000 0.750000
Si Si4 0.315543 0.178421 0.411977
Si Si5 0.913672 0.624903 0.998982
Si Si6 0.637722 0.750000 0.750000
O O1 0.186411 0.862599 0.023357
O O2 0.250000 0.000000 0.902652
O O3 0.157128 0.255172 0.968299
O O4 0.102219 0.902793 0.907643
O O5 0.492738 0.759564 0.177432
O O6 0.463937 0.813627 0.038772
O O7 0.550001 0.513623 0.065133
O O8 0.900923 0.502264 0.753130
O O9 0.319072 0.264754 0.328156
O O10 0.250000 0.000000 0.416131
O O11 0.389467 0.041643 0.433938
#
# Coordination Sequence:
#
# PCOD9413995 Si02
#       6
#     8   8   4   8   8   4
#     4  11  22  38  69  95 131 170 225 285 345 404
#     4  10  23  38  69  93 130 173 229 281 340 407
#     4  12  26  47  68 101 136 184 230 294 338 409
#     4  11  23  40  62  96 137 181 221 278 338 412
#     4  10  20  42  63  99 123 176 223 278 333 407
#     4  12  28  43  68  97 144 186 230 270 342 415
#
# _framework density 20.576132000000001
#
# number of rings (size 3 to 8) (size 9 to 14) (size 15 to 20)
#    0.000    1.200    4.000    1.800    2.800    1.600 
#    0.000    0.000    4.400    0.000    0.000    0.000 
#    0.000    0.000    0.000    0.000    0.000    0.000 
#
# Total GULP energy -222682.892333 kJ/mol
# GULP energy per Si atom -5567.072308 kJ/mol
# Density = 2.052930 g / cm^3
# Si number density = 20.576132 Si / 1000 Ang^3
#
#
#
# Elastic Constant Matrix: (Units=GPa)
#
#
# Indices 1 2 3 4 5 6 
#
# 1 71.0202 15.4417 -3.2086 0.0000 0.0000 0.0000
# 2 15.4417 50.8863 30.8106 0.0000 0.0000 0.0000
# 3 -3.2086 30.8106 49.6783 0.0000 0.0000 0.0000
# 4 0.0000 0.0000 0.0000 15.3889 0.0000 0.0000
# 5 0.0000 0.0000 0.0000 0.0000 7.5987 0.0000
# 6 0.0000 0.0000 0.0000 0.0000 0.0000 44.6676
#
#
#
# Elastic Compliance Matrix: (Units=1/GPa)
#
#
# Indices 1 2 3 4 5 6 
#
# 1 0.016326 -0.008956 0.006609 0.000000 0.000000 0.000000
# 2 -0.008956 0.036382 -0.023142 0.000000 0.000000 0.000000
# 3 0.006609 -0.023142 0.034909 0.000000 0.000000 0.000000
# 4 0.000000 0.000000 0.000000 0.064982 0.000000 0.000000
# 5 0.000000 0.000000 0.000000 0.000000 0.131602 0.000000
# 6 0.000000 0.000000 0.000000 0.000000 0.000000 0.022388
#
#
# Mechanical properties :
#
#
# Convention : Reuss Voigt Hill
#
# Bulk Modulus (GPa) = 27.29361 28.63024 27.96192
# Shear Modulus (GPa) = 13.52154 22.10045 17.81099
#
# Velocity S-wave (km/s) = 2.56627 3.28087 2.94532
# Velocity P-wave (km/s) = 4.69835 5.31946 5.01852
#
# Compressibility (1/GPa) = 0.03663862
#
# Stress axis : x y z
#
# Youngs Moduli (GPa) = 61.25073 27.48646 28.64565
#
# Poissons Ratio (x) = 0.24617 -0.18932
# Poissons Ratio (y) = 0.54855 0.66293
# Poissons Ratio (z) = -0.40480 0.63610
#
# Static dielectric constant tensor:
#      x y z
#    x 1.888560 0.000000 0.000000 
#    y 0.000000 1.337490 0.000000 
#    z 0.000000 0.000000 1.686240 
# 
# From -- ./inp_files/33487.got.cif
#   From: 2010.05.17/outbox.ucp.g08.bks.cvg/sg52_17_cif.got.tgz:33487.got - 2010.06.11 16:30:12.
