data_PCOD9413252
_publ_section_title
;
Structure prediction by ZEFSAII (Michael W. Deem and Ramdas Pophale) SiO2 
 PCOD9413252
Probable space group: P N N A
;
_chemical_formula_sum "Si O2"
_cell_formula_units_Z 48
_cell_length_a 16.242998
_cell_length_b 7.699668
_cell_length_c 16.973919
_cell_angle_alpha 90.000000
_cell_angle_beta 90.000000
_cell_angle_gamma 90.000000
_cell_volume 2122.854924
_symmetry_space_group_name_H-M "P N N A"
_symmetry_group_IT_number 52
_symmetry_cell_setting 'orthorhombic'
loop_
_space_group_symop_operation_xyz
x,y,z
1/2-x,-y,z
x,1/2-y,1/2-z
1/2-x,1/2+y,1/2-z
-x,-y,-z
1/2+x,y,-z
-x,1/2+y,1/2+z
1/2+x,1/2-y,1/2+z
loop_
_atom_site_type_symbol
_atom_site_label
_atom_site_fract_x
_atom_site_fract_y
_atom_site_fract_z
Si Si1 0.605283 0.826985 0.161488
Si Si2 0.660429 0.966635 0.439872
Si Si3 0.580238 0.834537 0.592177
Si Si4 0.083767 0.282367 0.656904
Si Si5 0.573390 0.211310 0.657688
Si Si6 0.748455 0.708219 0.842555
O O1 0.605581 0.750000 0.250000
O O2 0.664945 0.705326 0.112473
O O3 0.875225 0.971228 0.154755
O O4 0.511548 0.795840 0.130096
O O5 0.594863 0.922489 0.507541
O O6 0.866903 0.874331 0.384369
O O7 0.750000 0.000000 0.475590
O O8 0.502099 0.716326 0.608840
O O9 0.664971 0.737474 0.614414
O O10 0.566581 0.003796 0.647388
O O11 0.068286 0.250000 0.750000
O O12 0.578981 0.250000 0.750000
O O13 0.662678 0.268848 0.624737
O O14 0.750000 0.500000 0.847564
O O15 0.741315 0.750000 0.750000
#
# Coordination Sequence:
#
# PCOD9413252 Si02
#       6
#     8   8   8   8   8   8
#     4  11  23  44  70 103 133 174 237 286 338 415
#     4  12  27  47  71  99 142 185 226 295 356 405
#     4  11  22  42  66 100 141 181 226 282 354 416
#     4  12  24  45  76 105 131 185 235 286 349 412
#     4   9  17  35  61  92 133 172 217 274 328 404
#     4   9  18  31  58  92 131 177 218 267 333 409
#
# _framework density 22.611059000000001
#
# number of rings (size 3 to 8) (size 9 to 14) (size 15 to 20)
#    0.000    1.333    3.333    3.500    0.000    6.000 
#    0.000    0.000    7.333    0.000    0.000    0.000 
#    0.000    0.000    0.000    0.000    0.000    0.000 
#
# Total GULP energy -268137.767068 kJ/mol
# GULP energy per Si atom -5586.203481 kJ/mol
# Density = 2.255960 g / cm^3
# Si number density = 22.611059 Si / 1000 Ang^3
#
#
#
# Elastic Constant Matrix: (Units=GPa)
#
#
# Indices 1 2 3 4 5 6 
#
# 1 51.2299 6.5128 26.1543 0.0000 0.0000 0.0000
# 2 6.5128 105.7119 42.0200 0.0000 0.0000 0.0000
# 3 26.1543 42.0200 90.5574 0.0000 0.0000 0.0000
# 4 0.0000 0.0000 0.0000 26.8924 0.0000 0.0000
# 5 0.0000 0.0000 0.0000 0.0000 31.4560 0.0000
# 6 0.0000 0.0000 0.0000 0.0000 0.0000 28.1679
#
#
#
# Elastic Compliance Matrix: (Units=1/GPa)
#
#
# Indices 1 2 3 4 5 6 
#
# 1 0.023090 0.001506 -0.007367 0.000000 0.000000 0.000000
# 2 0.001506 0.011697 -0.005863 0.000000 0.000000 0.000000
# 3 -0.007367 -0.005863 0.015891 0.000000 0.000000 0.000000
# 4 0.000000 0.000000 0.000000 0.037185 0.000000 0.000000
# 5 0.000000 0.000000 0.000000 0.000000 0.031790 0.000000
# 6 0.000000 0.000000 0.000000 0.000000 0.000000 0.035501
#
#
# Mechanical properties :
#
#
# Convention : Reuss Voigt Hill
#
# Bulk Modulus (GPa) = 36.72468 44.09703 40.41086
# Shear Modulus (GPa) = 26.64115 28.82408 27.73261
#
# Velocity S-wave (km/s) = 3.43627 3.57428 3.50595
# Velocity P-wave (km/s) = 5.65872 6.04803 5.85661
#
# Compressibility (1/GPa) = 0.02722964
#
# Stress axis : x y z
#
# Youngs Moduli (GPa) = 43.30938 85.49004 62.92910
#
# Poissons Ratio (x) = -0.12875 0.46363
# Poissons Ratio (y) = -0.06522 0.36893
# Poissons Ratio (z) = 0.31908 0.50120
#
# Static dielectric constant tensor:
#      x y z
#    x 1.911730 0.000000 0.000000 
#    y 0.000000 1.802290 0.000000 
#    z 0.000000 0.000000 1.842750 
# 
# From -- ./inp_files/33146.got.cif
#   From: 2010.05.17/outbox.cif.g08.bks.cpg/sg52_17_cif.got.tgz:33146.got - 2010.06.03 12:15:38.
