data_PCOD9413915
_publ_section_title
;
Structure prediction by ZEFSAII (Michael W. Deem and Ramdas Pophale) SiO2 
 PCOD9413915
Probable space group: P N N A
;
_chemical_formula_sum "Si O2"
_cell_formula_units_Z 24
_cell_length_a 7.850478
_cell_length_b 7.895432
_cell_length_c 13.669268
_cell_angle_alpha 90.000000
_cell_angle_beta 90.000000
_cell_angle_gamma 90.000000
_cell_volume 847.261080
_symmetry_space_group_name_H-M "P N N A"
_symmetry_group_IT_number 52
_symmetry_cell_setting 'orthorhombic'
loop_
_space_group_symop_operation_xyz
x,y,z
1/2-x,-y,z
x,1/2-y,1/2-z
1/2-x,1/2+y,1/2-z
-x,-y,-z
1/2+x,y,-z
-x,1/2+y,1/2+z
1/2+x,1/2-y,1/2+z
loop_
_atom_site_type_symbol
_atom_site_label
_atom_site_fract_x
_atom_site_fract_y
_atom_site_fract_z
Si Si1 0.354031 0.675622 0.521966
Si Si2 0.379164 0.346395 0.153115
Si Si3 0.429052 0.172729 0.645626
O O1 0.250000 0.500000 0.531782
O O2 0.524777 0.703806 0.587188
O O3 0.220088 0.807078 0.567056
O O4 0.417256 0.723236 0.412281
O O5 0.250000 0.500000 0.122448
O O6 0.319911 0.250000 0.250000
O O7 0.531291 0.479782 0.171909
O O8 0.387088 0.250000 0.750000
#
# Coordination Sequence:
#
# PCOD9413915 Si02
#       3
#     8   8   8
#     4  12  27  52  86 127 172 229 291 363 443 524
#     4  12  27  50  82 123 170 225 286 356 432 517
#     4  12  27  50  81 122 171 226 289 361 434 517
#
# _framework density 28.326571000000001
#
# number of rings (size 3 to 8) (size 9 to 14) (size 15 to 20)
#    0.000    0.000    0.000    9.000    0.000    4.000 
#    0.000    3.333    0.000    0.000    0.000    0.000 
#    0.000    0.000    0.000    0.000    0.000    0.000 
#
# Total GULP energy -133898.523598 kJ/mol
# GULP energy per Si atom -5579.105150 kJ/mol
# Density = 2.826210 g / cm^3
# Si number density = 28.326571 Si / 1000 Ang^3
#
#
#
# Elastic Constant Matrix: (Units=GPa)
#
#
# Indices 1 2 3 4 5 6 
#
# 1 110.1924 49.9619 73.3334 0.0000 0.0000 0.0000
# 2 49.9619 175.8948 50.2729 0.0000 0.0000 0.0000
# 3 73.3334 50.2729 198.5392 0.0000 0.0000 0.0000
# 4 0.0000 0.0000 0.0000 52.2482 0.0000 0.0000
# 5 0.0000 0.0000 0.0000 0.0000 39.4735 0.0000
# 6 0.0000 0.0000 0.0000 0.0000 0.0000 72.9006
#
#
#
# Elastic Compliance Matrix: (Units=1/GPa)
#
#
# Indices 1 2 3 4 5 6 
#
# 1 0.012976 -0.002497 -0.004161 0.000000 0.000000 0.000000
# 2 -0.002497 0.006609 -0.000751 0.000000 0.000000 0.000000
# 3 -0.004161 -0.000751 0.006764 0.000000 0.000000 0.000000
# 4 0.000000 0.000000 0.000000 0.019139 0.000000 0.000000
# 5 0.000000 0.000000 0.000000 0.000000 0.025333 0.000000
# 6 0.000000 0.000000 0.000000 0.000000 0.000000 0.013717
#
#
# Mechanical properties :
#
#
# Convention : Reuss Voigt Hill
#
# Bulk Modulus (GPa) = 86.71788 92.41808 89.56798
# Shear Modulus (GPa) = 48.44950 53.66167 51.05559
#
# Velocity S-wave (km/s) = 4.14017 4.35718 4.25006
# Velocity P-wave (km/s) = 7.31675 7.61644 7.46810
#
# Compressibility (1/GPa) = 0.01153165
#
# Stress axis : x y z
#
# Youngs Moduli (GPa) = 77.06568 151.30646 147.84453
#
# Poissons Ratio (x) = 0.37775 0.61514
# Poissons Ratio (y) = 0.19240 0.11109
# Poissons Ratio (z) = 0.32065 0.11369
#
# Static dielectric constant tensor:
#      x y z
#    x 2.681540 0.000000 0.000000 
#    y 0.000000 2.208580 0.000000 
#    z 0.000000 0.000000 2.162950 
# 
# From -- ./inp_files/23910.got.cif
#   From: 2010.05.17/outbox.cif.g08.bks.cpg/sg52_12_cif.got.tgz:23910.got - 2010.06.03 12:15:38.
