data_PCOD9413351
_publ_section_title
;
Structure prediction by ZEFSAII (Michael W. Deem and Ramdas Pophale) SiO2 
 PCOD9413351
Probable space group: P N N A
;
_chemical_formula_sum "Si O2"
_cell_formula_units_Z 28
_cell_length_a 7.941497
_cell_length_b 8.595983
_cell_length_c 17.404737
_cell_angle_alpha 90.000000
_cell_angle_beta 90.000000
_cell_angle_gamma 90.000000
_cell_volume 1188.133905
_symmetry_space_group_name_H-M "P N N A"
_symmetry_group_IT_number 52
_symmetry_cell_setting 'orthorhombic'
loop_
_space_group_symop_operation_xyz
x,y,z
1/2-x,-y,z
x,1/2-y,1/2-z
1/2-x,1/2+y,1/2-z
-x,-y,-z
1/2+x,y,-z
-x,1/2+y,1/2+z
1/2+x,1/2-y,1/2+z
loop_
_atom_site_type_symbol
_atom_site_label
_atom_site_fract_x
_atom_site_fract_y
_atom_site_fract_z
Si Si1 0.526589 0.322458 0.523729
Si Si2 0.332023 0.165773 0.409129
Si Si3 0.125672 0.643488 0.682755
Si Si4 0.796462 0.750000 0.750000
O O1 0.500000 0.500000 0.500000
O O2 0.501929 0.203560 0.453137
O O3 0.713625 0.297305 0.553983
O O4 0.411524 0.284596 0.598822
O O5 0.317650 0.189708 0.318703
O O6 0.250000 0.000000 0.426548
O O7 0.250000 0.500000 0.672564
O O8 0.203282 0.750000 0.750000
O O9 0.933829 0.623203 0.717133
#
# Coordination Sequence:
#
# PCOD9413351 Si02
#       4
#     8   8   8   4
#     4  11  23  42  66  94 132 171 219 264 336 387
#     4  11  23  43  65  96 128 172 219 270 320 393
#     4   9  19  39  60  89 126 165 211 256 316 387
#     4   8  22  40  60  94 126 160 212 268 324 368
#
# _framework density 23.566369000000002
#
# number of rings (size 3 to 8) (size 9 to 14) (size 15 to 20)
#    0.857    1.143    0.000    3.429    0.000    5.714 
#   10.286    0.000    0.000    0.000    0.000    0.000 
#    0.000    0.000    0.000    0.000    0.000    0.000 
#
# Total GULP energy -156173.536478 kJ/mol
# GULP energy per Si atom -5577.626303 kJ/mol
# Density = 2.351273 g / cm^3
# Si number density = 23.566369 Si / 1000 Ang^3
#
#
#
# Elastic Constant Matrix: (Units=GPa)
#
#
# Indices 1 2 3 4 5 6 
#
# 1 34.5368 -5.2844 35.8571 0.0000 0.0000 0.0000
# 2 -5.2844 58.6450 20.7500 0.0000 0.0000 0.0000
# 3 35.8571 20.7500 148.0416 0.0000 0.0000 0.0000
# 4 0.0000 0.0000 0.0000 35.6074 0.0000 0.0000
# 5 0.0000 0.0000 0.0000 0.0000 28.2081 0.0000
# 6 0.0000 0.0000 0.0000 0.0000 0.0000 25.4578
#
#
#
# Elastic Compliance Matrix: (Units=1/GPa)
#
#
# Indices 1 2 3 4 5 6 
#
# 1 0.041763 0.007725 -0.011198 0.000000 0.000000 0.000000
# 2 0.007725 0.019371 -0.004586 0.000000 0.000000 0.000000
# 3 -0.011198 -0.004586 0.010110 0.000000 0.000000 0.000000
# 4 0.000000 0.000000 0.000000 0.028084 0.000000 0.000000
# 5 0.000000 0.000000 0.000000 0.000000 0.035451 0.000000
# 6 0.000000 0.000000 0.000000 0.000000 0.000000 0.039281
#
#
# Mechanical properties :
#
#
# Convention : Reuss Voigt Hill
#
# Bulk Modulus (GPa) = 18.14045 38.20764 28.17405
# Shear Modulus (GPa) = 23.97480 30.51471 27.24476
#
# Velocity S-wave (km/s) = 3.19302 3.60229 3.40382
# Velocity P-wave (km/s) = 4.61608 5.79224 5.23728
#
# Compressibility (1/GPa) = 0.05512542
#
# Stress axis : x y z
#
# Youngs Moduli (GPa) = 23.94467 51.62471 98.91215
#
# Poissons Ratio (x) = -0.39882 1.10764
# Poissons Ratio (y) = -0.18498 0.45363
# Poissons Ratio (z) = 0.26814 0.23676
#
# Static dielectric constant tensor:
#      x y z
#    x 1.986410 0.000000 0.000000 
#    y 0.000000 1.922530 0.000000 
#    z 0.000000 0.000000 1.985170 
# 
# From -- ./inp_files/30653.got.cif
#   From: 2010.05.17/outbox.cif.g08.bks.cpg/sg52_16_cif.got.tgz:30653.got - 2010.06.03 12:15:38.
