data_PCOD9413560
_publ_section_title
;
Structure prediction by ZEFSAII (Michael W. Deem and Ramdas Pophale) SiO2 
 PCOD9413560
Probable space group: P N N A
;
_chemical_formula_sum "Si O2"
_cell_formula_units_Z 40
_cell_length_a 12.363933
_cell_length_b 7.887895
_cell_length_c 19.399222
_cell_angle_alpha 90.000000
_cell_angle_beta 90.000000
_cell_angle_gamma 90.000000
_cell_volume 1891.916988
_symmetry_space_group_name_H-M "P N N A"
_symmetry_group_IT_number 52
_symmetry_cell_setting 'orthorhombic'
loop_
_space_group_symop_operation_xyz
x,y,z
1/2-x,-y,z
x,1/2-y,1/2-z
1/2-x,1/2+y,1/2-z
-x,-y,-z
1/2+x,y,-z
-x,1/2+y,1/2+z
1/2+x,1/2-y,1/2+z
loop_
_atom_site_type_symbol
_atom_site_label
_atom_site_fract_x
_atom_site_fract_y
_atom_site_fract_z
Si Si1 0.266638 0.808654 0.412624
Si Si2 0.558654 0.725027 0.669415
Si Si3 0.216065 0.812165 0.943489
Si Si4 0.838809 0.649639 0.178085
Si Si5 0.485710 0.911678 0.077417
O O1 0.171141 0.718579 0.371269
O O2 0.233797 0.808403 0.492470
O O3 0.380086 0.706769 0.411905
O O4 0.250000 0.000000 0.386433
O O5 0.582900 0.750000 0.750000
O O6 0.466055 0.870441 0.657046
O O7 0.508399 0.551045 0.638530
O O8 0.291976 0.767665 0.881036
O O9 0.093696 0.801985 0.918958
O O10 0.250000 0.000000 0.967916
O O11 0.750000 0.500000 0.183711
O O12 0.842755 0.750000 0.250000
O O13 0.500000 0.000000 0.000000
#
# Coordination Sequence:
#
# PCOD9413560 Si02
#       5
#     8   8   8   8   8
#     4  12  27  43  67 106 145 188 244 303 363 451
#     4  11  25  46  70 101 143 190 245 296 374 458
#     4  12  22  42  72 101 135 180 238 298 365 428
#     4  11  25  43  68 101 139 180 232 300 366 442
#     4  12  23  45  75 101 137 195 243 299 375 443
#
# _framework density 21.142575999999998
#
# number of rings (size 3 to 8) (size 9 to 14) (size 15 to 20)
#    0.000    0.400    6.000    1.800    5.600    2.400 
#    0.000    1.000    0.000    0.000    0.000    0.000 
#    0.000    0.000    0.000    0.000    0.000    0.000 
#
# Total GULP energy -222818.519842 kJ/mol
# GULP energy per Si atom -5570.462996 kJ/mol
# Density = 2.109445 g / cm^3
# Si number density = 21.142576 Si / 1000 Ang^3
#
#
#
# Elastic Constant Matrix: (Units=GPa)
#
#
# Indices 1 2 3 4 5 6 
#
# 1 203.4809 29.0922 28.3223 0.0000 0.0000 0.0000
# 2 29.0922 65.2941 -0.1391 0.0000 0.0000 0.0000
# 3 28.3223 -0.1391 95.8196 0.0000 0.0000 0.0000
# 4 0.0000 0.0000 0.0000 15.4847 0.0000 0.0000
# 5 0.0000 0.0000 0.0000 0.0000 55.6008 0.0000
# 6 0.0000 0.0000 0.0000 0.0000 0.0000 39.4784
#
#
#
# Elastic Compliance Matrix: (Units=1/GPa)
#
#
# Indices 1 2 3 4 5 6 
#
# 1 0.005491 -0.002450 -0.001627 0.000000 0.000000 0.000000
# 2 -0.002450 0.016409 0.000748 0.000000 0.000000 0.000000
# 3 -0.001627 0.000748 0.010918 0.000000 0.000000 0.000000
# 4 0.000000 0.000000 0.000000 0.064580 0.000000 0.000000
# 5 0.000000 0.000000 0.000000 0.000000 0.017985 0.000000
# 6 0.000000 0.000000 0.000000 0.000000 0.000000 0.025330
#
#
# Mechanical properties :
#
#
# Convention : Reuss Voigt Hill
#
# Bulk Modulus (GPa) = 38.22557 53.23836 45.73197
# Shear Modulus (GPa) = 32.03263 42.60074 37.31668
#
# Velocity S-wave (km/s) = 3.89662 4.49366 4.20575
# Velocity P-wave (km/s) = 6.19387 7.22214 6.72768
#
# Compressibility (1/GPa) = 0.02616050
#
# Stress axis : x y z
#
# Youngs Moduli (GPa) = 182.11045 60.94375 91.59048
#
# Poissons Ratio (x) = 0.14932 0.14898
# Poissons Ratio (y) = 0.44619 -0.06851
# Poissons Ratio (z) = 0.29623 -0.04559
#
# Static dielectric constant tensor:
#      x y z
#    x 1.817260 0.000000 0.000000 
#    y 0.000000 1.812640 0.000000 
#    z 0.000000 0.000000 1.776480 
# 
# From -- ./inp_files/31940.got.cif
#   From: 2010.05.17/outbox.cif.g08.bks.cpg/sg52_16_cif.got.tgz:31940.got - 2010.06.03 12:15:38.
