data_PCOD9413885
_publ_section_title
;
Structure prediction by ZEFSAII (Michael W. Deem and Ramdas Pophale) SiO2 
 PCOD9413885
Probable space group: P N N A
;
_chemical_formula_sum "Si O2"
_cell_formula_units_Z 20
_cell_length_a 4.952445
_cell_length_b 5.621810
_cell_length_c 31.438126
_cell_angle_alpha 90.000000
_cell_angle_beta 90.000000
_cell_angle_gamma 90.000000
_cell_volume 875.291024
_symmetry_space_group_name_H-M "P N N A"
_symmetry_group_IT_number 52
_symmetry_cell_setting 'orthorhombic'
loop_
_space_group_symop_operation_xyz
x,y,z
1/2-x,-y,z
x,1/2-y,1/2-z
1/2-x,1/2+y,1/2-z
-x,-y,-z
1/2+x,y,-z
-x,1/2+y,1/2+z
1/2+x,1/2-y,1/2+z
loop_
_atom_site_type_symbol
_atom_site_label
_atom_site_fract_x
_atom_site_fract_y
_atom_site_fract_z
Si Si1 0.750000 0.500000 0.725705
Si Si2 0.494069 0.857907 0.400666
Si Si3 0.250000 0.000000 0.031744
Si Si4 0.750000 0.500000 0.333574
O O1 0.681820 0.250000 0.750000
O O2 0.496348 0.570340 0.696429
O O3 0.329221 0.713030 0.436372
O O4 0.636278 0.698639 0.365290
O O5 0.250000 0.000000 0.379005
O O6 0.750000 0.000000 0.420074
O O7 0.500000 0.000000 0.000000
#
# Coordination Sequence:
#
# PCOD9413885 Si02
#       4
#     4   8   4   4
#     4  12  29  50  78 119 158 204 256 321 402 460
#     4  12  26  46  76 109 142 203 252 304 386 452
#     4  12  26  46  68 108 154 186 252 318 372 456
#     4  12  27  50  76 107 154 194 254 319 364 482
#
# _framework density 22.849544000000002
#
# number of rings (size 3 to 8) (size 9 to 14) (size 15 to 20)
#    0.000    0.000    0.000   10.800    8.400    4.800 
#    0.000    0.000    0.000    0.000    0.000    0.000 
#    0.000    0.000    0.000    0.000    0.000    0.000 
#
# Total GULP energy -111760.557873 kJ/mol
# GULP energy per Si atom -5588.027894 kJ/mol
# Density = 2.279754 g / cm^3
# Si number density = 22.849544 Si / 1000 Ang^3
#
#
#
# Elastic Constant Matrix: (Units=GPa)
#
#
# Indices 1 2 3 4 5 6 
#
# 1 232.4310 71.2972 65.3105 0.0000 0.0000 0.0000
# 2 71.2972 117.6634 53.4101 0.0000 0.0000 0.0000
# 3 65.3105 53.4101 108.3818 0.0000 0.0000 0.0000
# 4 0.0000 0.0000 0.0000 53.2941 0.0000 0.0000
# 5 0.0000 0.0000 0.0000 0.0000 71.4075 0.0000
# 6 0.0000 0.0000 0.0000 0.0000 0.0000 59.4767
#
#
#
# Elastic Compliance Matrix: (Units=1/GPa)
#
#
# Indices 1 2 3 4 5 6 
#
# 1 0.005671 -0.002428 -0.002221 0.000000 0.000000 0.000000
# 2 -0.002428 0.011988 -0.004444 0.000000 0.000000 0.000000
# 3 -0.002221 -0.004444 0.012755 0.000000 0.000000 0.000000
# 4 0.000000 0.000000 0.000000 0.018764 0.000000 0.000000
# 5 0.000000 0.000000 0.000000 0.000000 0.014004 0.000000
# 6 0.000000 0.000000 0.000000 0.000000 0.000000 0.016813
#
#
# Mechanical properties :
#
#
# Convention : Reuss Voigt Hill
#
# Bulk Modulus (GPa) = 81.78479 93.16798 87.47638
# Shear Modulus (GPa) = 48.89632 54.73290 51.81461
#
# Velocity S-wave (km/s) = 4.63095 4.89955 4.76714
# Velocity P-wave (km/s) = 8.02899 8.53642 8.28659
#
# Compressibility (1/GPa) = 0.01222721
#
# Stress axis : x y z
#
# Youngs Moduli (GPa) = 176.32747 83.41989 78.40124
#
# Poissons Ratio (x) = 0.20258 0.17411
# Poissons Ratio (y) = 0.42819 0.34842
# Poissons Ratio (z) = 0.39158 0.37072
#
# Static dielectric constant tensor:
#      x y z
#    x 1.798090 0.000000 0.000000 
#    y 0.000000 3.115690 0.000000 
#    z 0.000000 0.000000 1.870130 
# 
# From -- ./inp_files/41255.got.cif
#   From: 2010.05.17/outbox.cif.g08.bks.cpg/sg52_21_cif.got.tgz:41255.got - 2010.06.03 12:15:38.
