data_PCOD9413207
_publ_section_title
;
Structure prediction by ZEFSAII (Michael W. Deem and Ramdas Pophale) SiO2 
 PCOD9413207
Probable space group: P N N A
;
_chemical_formula_sum "Si O2"
_cell_formula_units_Z 64
_cell_length_a 27.167012
_cell_length_b 5.117034
_cell_length_c 21.531942
_cell_angle_alpha 90.000000
_cell_angle_beta 90.000000
_cell_angle_gamma 90.000000
_cell_volume 2993.252670
_symmetry_space_group_name_H-M "P N N A"
_symmetry_group_IT_number 52
_symmetry_cell_setting 'orthorhombic'
loop_
_space_group_symop_operation_xyz
x,y,z
1/2-x,-y,z
x,1/2-y,1/2-z
1/2-x,1/2+y,1/2-z
-x,-y,-z
1/2+x,y,-z
-x,1/2+y,1/2+z
1/2+x,1/2-y,1/2+z
loop_
_atom_site_type_symbol
_atom_site_label
_atom_site_fract_x
_atom_site_fract_y
_atom_site_fract_z
Si Si1 0.057346 0.038860 0.983825
Si Si2 0.632001 0.825395 0.103911
Si Si3 0.470006 0.813277 0.177288
Si Si4 0.024317 0.167452 0.631207
Si Si5 0.375041 0.980250 0.111460
Si Si6 0.222051 0.737969 0.979137
Si Si7 0.622726 0.160087 0.316125
Si Si8 0.306875 0.019802 0.389922
O O1 0.050676 0.283880 0.935613
O O2 0.083388 0.823736 0.939338
O O3 0.092498 0.039080 0.045891
O O4 0.000000 0.000000 0.000000
O O5 0.677671 0.849524 0.059447
O O6 0.644066 0.586973 0.149036
O O7 0.627284 0.084322 0.143127
O O8 0.476774 0.750000 0.250000
O O9 0.483452 0.557823 0.135783
O O10 0.502986 0.054886 0.153473
O O11 0.414863 0.906960 0.163432
O O12 0.064914 0.087243 0.682319
O O13 0.346342 0.251234 0.127223
O O14 0.333510 0.757616 0.112469
O O15 0.250000 0.500000 0.944515
O O16 0.250000 0.000000 0.999324
O O17 0.201275 0.589933 0.038340
O O18 0.641201 0.250000 0.250000
O O19 0.250000 0.000000 0.363654
#
# Coordination Sequence:
#
# PCOD9413207 Si02
#       8
#     8   8   8   8   8   8   8   8
#     4  11  24  41  62 100 142 176 208 262 341 394
#     4  11  24  39  63  92 123 165 210 265 322 388
#     4  12  25  43  64  92 132 185 235 270 319 389
#     4  11  24  40  63  90 129 182 226 276 310 382
#     4  12  25  41  67  99 140 172 212 279 333 402
#     4  11  22  39  65  93 126 159 202 264 328 397
#     4  11  23  40  61  85 122 172 224 267 307 365
#     4  11  24  42  69  98 129 167 215 273 340 410
#
# _framework density 21.381422000000001
#
# number of rings (size 3 to 8) (size 9 to 14) (size 15 to 20)
#    0.000    0.750    2.500    6.375    3.500    1.500 
#    0.000    0.000    0.000    9.000    0.000    0.875 
#    0.000    0.000    0.000    0.000    0.000    0.000 
#
# Total GULP energy -356745.046127 kJ/mol
# GULP energy per Si atom -5574.141346 kJ/mol
# Density = 2.133276 g / cm^3
# Si number density = 21.381422 Si / 1000 Ang^3
#
#
#
# Elastic Constant Matrix: (Units=GPa)
#
#
# Indices 1 2 3 4 5 6 
#
# 1 54.2668 -0.1488 -15.1613 0.0000 0.0000 0.0000
# 2 -0.1488 103.0854 4.8029 0.0000 0.0000 0.0000
# 3 -15.1613 4.8029 26.6703 0.0000 0.0000 0.0000
# 4 0.0000 0.0000 0.0000 15.1684 0.0000 0.0000
# 5 0.0000 0.0000 0.0000 0.0000 11.1636 0.0000
# 6 0.0000 0.0000 0.0000 0.0000 0.0000 54.3511
#
#
#
# Elastic Compliance Matrix: (Units=1/GPa)
#
#
# Indices 1 2 3 4 5 6 
#
# 1 0.021938 -0.000554 0.012571 0.000000 0.000000 0.000000
# 2 -0.000554 0.009797 -0.002079 0.000000 0.000000 0.000000
# 3 0.012571 -0.002079 0.045016 0.000000 0.000000 0.000000
# 4 0.000000 0.000000 0.000000 0.065926 0.000000 0.000000
# 5 0.000000 0.000000 0.000000 0.000000 0.089577 0.000000
# 6 0.000000 0.000000 0.000000 0.000000 0.000000 0.018399
#
#
# Mechanical properties :
#
#
# Convention : Reuss Voigt Hill
#
# Bulk Modulus (GPa) = 10.34921 18.11201 14.23061
# Shear Modulus (GPa) = 19.01245 29.10528 24.05886
#
# Velocity S-wave (km/s) = 2.98519 3.69350 3.35807
# Velocity P-wave (km/s) = 4.09055 5.16513 4.65893
#
# Compressibility (1/GPa) = 0.09662577
#
# Stress axis : x y z
#
# Youngs Moduli (GPa) = 45.58289 102.07446 22.21455
#
# Poissons Ratio (x) = 0.05655 -0.27926
# Poissons Ratio (y) = 0.02525 0.04619
# Poissons Ratio (z) = -0.57302 0.21223
#
# Static dielectric constant tensor:
#      x y z
#    x 1.871440 0.000000 0.000000 
#    y 0.000000 1.920150 0.000000 
#    z 0.000000 0.000000 1.813930 
# 
# From -- ./inp_files/41194.got.cif
#   From: 2010.05.17/outbox.cif.g08.bks.cpg/sg52_21_cif.got.tgz:41194.got - 2010.06.03 12:15:38.
