data_PCOD9413338
_publ_section_title
;
Structure prediction by ZEFSAII (Michael W. Deem and Ramdas Pophale) SiO2 
 PCOD9413338
Probable space group: P N N A
;
_chemical_formula_sum "Si O2"
_cell_formula_units_Z 36
_cell_length_a 13.587627
_cell_length_b 15.996375
_cell_length_c 8.124281
_cell_angle_alpha 90.000000
_cell_angle_beta 90.000000
_cell_angle_gamma 90.000000
_cell_volume 1765.835035
_symmetry_space_group_name_H-M "P N N A"
_symmetry_group_IT_number 52
_symmetry_cell_setting 'orthorhombic'
loop_
_space_group_symop_operation_xyz
x,y,z
1/2-x,-y,z
x,1/2-y,1/2-z
1/2-x,1/2+y,1/2-z
-x,-y,-z
1/2+x,y,-z
-x,1/2+y,1/2+z
1/2+x,1/2-y,1/2+z
loop_
_atom_site_type_symbol
_atom_site_label
_atom_site_fract_x
_atom_site_fract_y
_atom_site_fract_z
Si Si1 0.518008 0.962885 0.821626
Si Si2 0.814222 0.584979 0.149770
Si Si3 0.669372 0.813756 0.898122
Si Si4 0.819720 0.580525 0.770445
Si Si5 0.795107 0.250000 0.250000
O O1 0.421862 0.934773 0.722002
O O2 0.591058 0.886011 0.857054
O O3 0.572400 0.040885 0.735946
O O4 0.500000 0.000000 0.000000
O O5 0.750000 0.500000 0.171803
O O6 0.767729 0.665380 0.235265
O O7 0.809217 0.610002 0.957375
O O8 0.658243 0.750000 0.750000
O O9 0.778653 0.854829 0.865396
O O10 0.652101 0.769118 0.074407
O O11 0.750000 0.500000 0.749441
#
# Coordination Sequence:
#
# PCOD9413338 Si02
#       5
#     8   8   8   8   4
#     4  11  23  41  66  99 133 176 231 281 336 408
#     4  11  23  42  68 100 135 181 230 281 342 405
#     4  11  23  44  67  99 138 174 222 282 339 401
#     4   9  20  42  69  93 133 180 220 278 341 399
#     4  12  24  42  72  98 136 184 226 276 348 404
#
# _framework density 20.386956999999999
#
# number of rings (size 3 to 8) (size 9 to 14) (size 15 to 20)
#    0.000    1.333    2.222    3.333    1.556    1.778 
#    4.000    0.000    2.444    0.000    0.000    0.000 
#    0.000    0.000    0.000    0.000    0.000    0.000 
#
# Total GULP energy -200612.877128 kJ/mol
# GULP energy per Si atom -5572.579920 kJ/mol
# Density = 2.034055 g / cm^3
# Si number density = 20.386957 Si / 1000 Ang^3
#
#
#
# Elastic Constant Matrix: (Units=GPa)
#
#
# Indices 1 2 3 4 5 6 
#
# 1 74.4367 27.0136 23.1917 0.0000 0.0000 0.0000
# 2 27.0136 78.1018 51.2561 0.0000 0.0000 0.0000
# 3 23.1917 51.2561 122.4575 0.0000 0.0000 0.0000
# 4 0.0000 0.0000 0.0000 44.6007 0.0000 0.0000
# 5 0.0000 0.0000 0.0000 0.0000 72.3037 0.0000
# 6 0.0000 0.0000 0.0000 0.0000 0.0000 13.9211
#
#
#
# Elastic Compliance Matrix: (Units=1/GPa)
#
#
# Indices 1 2 3 4 5 6 
#
# 1 0.015442 -0.004718 -0.000950 0.000000 0.000000 0.000000
# 2 -0.004718 0.019094 -0.007099 0.000000 0.000000 0.000000
# 3 -0.000950 -0.007099 0.011317 0.000000 0.000000 0.000000
# 4 0.000000 0.000000 0.000000 0.022421 0.000000 0.000000
# 5 0.000000 0.000000 0.000000 0.000000 0.013831 0.000000
# 6 0.000000 0.000000 0.000000 0.000000 0.000000 0.071833
#
#
# Mechanical properties :
#
#
# Convention : Reuss Voigt Hill
#
# Bulk Modulus (GPa) = 49.20977 53.10209 51.15593
# Shear Modulus (GPa) = 26.84637 37.73408 32.29023
#
# Velocity S-wave (km/s) = 3.63277 4.30687 3.98410
# Velocity P-wave (km/s) = 6.46423 7.12992 6.80522
#
# Compressibility (1/GPa) = 0.02032117
#
# Stress axis : x y z
#
# Youngs Moduli (GPa) = 64.75727 52.37188 88.36094
#
# Poissons Ratio (x) = 0.24708 0.08393
# Poissons Ratio (y) = 0.30551 0.62724
# Poissons Ratio (z) = 0.06151 0.37177
#
# Static dielectric constant tensor:
#      x y z
#    x 1.766940 0.000000 0.000000 
#    y 0.000000 1.680710 0.000000 
#    z 0.000000 0.000000 2.485170 
# 
# From -- ./inp_files/9905.got.cif
#   From: 2010.05.17/outbox.cif.g08.bks.cpg/sg52_5_cif.got.tgz:9905.got - 2010.06.03 12:15:38.
