data_PCOD9413934
_publ_section_title
;
Structure prediction by ZEFSAII (Michael W. Deem and Ramdas Pophale) SiO2 
 PCOD9413934
Probable space group: P N N A
;
_chemical_formula_sum "Si O2"
_cell_formula_units_Z 16
_cell_length_a 11.528453
_cell_length_b 7.269195
_cell_length_c 7.246321
_cell_angle_alpha 90.000000
_cell_angle_beta 90.000000
_cell_angle_gamma 90.000000
_cell_volume 607.260344
_symmetry_space_group_name_H-M "P N N A"
_symmetry_group_IT_number 52
_symmetry_cell_setting 'orthorhombic'
loop_
_space_group_symop_operation_xyz
x,y,z
1/2-x,-y,z
x,1/2-y,1/2-z
1/2-x,1/2+y,1/2-z
-x,-y,-z
1/2+x,y,-z
-x,1/2+y,1/2+z
1/2+x,1/2-y,1/2+z
loop_
_atom_site_type_symbol
_atom_site_label
_atom_site_fract_x
_atom_site_fract_y
_atom_site_fract_z
Si Si1 0.750000 0.500000 0.056578
Si Si2 0.681219 0.250000 0.750000
Si Si3 0.984846 0.962608 0.214491
O O1 0.863503 0.490377 0.187784
O O2 0.752187 0.305899 0.934522
O O3 0.592481 0.417924 0.781800
O O4 0.001165 0.750000 0.250000
O O5 0.000000 0.000000 0.000000
#
# Coordination Sequence:
#
# PCOD9413934 Si02
#       3
#     4   4   8
#     4  12  30  54  88 132 174 246 292 380 470 538
#     4  12  30  52  84 130 182 230 310 372 458 564
#     4  12  29  55  89 132 181 235 310 382 461 559
#
# _framework density 26.347840999999999
#
# number of rings (size 3 to 8) (size 9 to 14) (size 15 to 20)
#    0.000    0.000    5.000    1.500    7.000    2.000 
#    0.000    0.000    0.000    0.000    0.000    0.000 
#    0.000    0.000    0.000    0.000    0.000    0.000 
#
# Total GULP energy -89354.534965 kJ/mol
# GULP energy per Si atom -5584.658435 kJ/mol
# Density = 2.628787 g / cm^3
# Si number density = 26.347841 Si / 1000 Ang^3
#
#
#
# Elastic Constant Matrix: (Units=GPa)
#
#
# Indices 1 2 3 4 5 6 
#
# 1 149.8742 89.8748 117.8117 0.0000 0.0000 0.0000
# 2 89.8748 206.6474 77.2572 0.0000 0.0000 0.0000
# 3 117.8117 77.2572 213.1509 0.0000 0.0000 0.0000
# 4 0.0000 0.0000 0.0000 50.3728 0.0000 0.0000
# 5 0.0000 0.0000 0.0000 0.0000 55.0257 0.0000
# 6 0.0000 0.0000 0.0000 0.0000 0.0000 -43.7382
#
#
#
# Elastic Compliance Matrix: (Units=1/GPa)
#
#
# Indices 1 2 3 4 5 6 
#
# 1 0.013831 -0.003652 -0.006321 0.000000 0.000000 0.000000
# 2 -0.003652 0.006562 -0.000360 0.000000 0.000000 0.000000
# 3 -0.006321 -0.000360 0.008316 0.000000 0.000000 0.000000
# 4 0.000000 0.000000 0.000000 0.019852 0.000000 0.000000
# 5 0.000000 0.000000 0.000000 0.000000 0.018173 0.000000
# 6 0.000000 0.000000 0.000000 0.000000 0.000000 -0.022863
#
#
# Mechanical properties :
#
#
# Convention : Reuss Voigt Hill
#
# Bulk Modulus (GPa) = 124.33353 126.61777 125.47565
# Shear Modulus (GPa) = 74.38540 31.31398 52.84969
#
# Velocity S-wave (km/s) = 5.31915 3.45118 4.48353
# Velocity P-wave (km/s) = 9.22042 8.00259 8.63301
#
# Compressibility (1/GPa) = 0.00804288
#
# Stress axis : x y z
#
# Youngs Moduli (GPa) = 72.30109 152.38989 120.25666
#
# Poissons Ratio (x) = 0.55657 0.76012
# Poissons Ratio (y) = 0.26406 0.04327
# Poissons Ratio (z) = 0.45700 0.05483
#
# Static dielectric constant tensor:
#      x y z
#    x 4.482280 0.000000 0.000000 
#    y 0.000000 2.144030 0.000000 
#    z 0.000000 0.000000 24.949350 
# 
# From -- ./inp_files/7849.got.cif
#   From: 2010.05.17/outbox.cif.g08.bks.cpg/sg52_4_cif.got.tgz:7849.got - 2010.06.03 12:15:38.
