data_PCOD9413054
_publ_section_title
;
Structure prediction by ZEFSAII (Michael W. Deem and Ramdas Pophale) SiO2 
 PCOD9413054
Probable space group: P N N A
;
_chemical_formula_sum "Si O2"
_cell_formula_units_Z 56
_cell_length_a 14.990208
_cell_length_b 9.660945
_cell_length_c 19.142534
_cell_angle_alpha 90.000000
_cell_angle_beta 90.000000
_cell_angle_gamma 90.000000
_cell_volume 2772.213639
_symmetry_space_group_name_H-M "P N N A"
_symmetry_group_IT_number 52
_symmetry_cell_setting 'orthorhombic'
loop_
_space_group_symop_operation_xyz
x,y,z
1/2-x,-y,z
x,1/2-y,1/2-z
1/2-x,1/2+y,1/2-z
-x,-y,-z
1/2+x,y,-z
-x,1/2+y,1/2+z
1/2+x,1/2-y,1/2+z
loop_
_atom_site_type_symbol
_atom_site_label
_atom_site_fract_x
_atom_site_fract_y
_atom_site_fract_z
Si Si1 0.158092 0.021454 0.637675
Si Si2 0.928108 0.651204 0.928870
Si Si3 0.412340 0.328581 0.042031
Si Si4 0.485717 0.740166 0.824888
Si Si5 0.779583 0.757254 0.479282
Si Si6 0.657066 0.038667 0.134412
Si Si7 0.433082 0.245511 0.833988
O O1 0.072293 0.099769 0.667520
O O2 0.187926 0.113165 0.570398
O O3 0.250000 0.000000 0.678953
O O4 0.126237 0.865226 0.630804
O O5 0.904319 0.488348 0.932043
O O6 0.968122 0.710642 0.857522
O O7 0.843089 0.734979 0.954094
O O8 0.006194 0.672865 0.986816
O O9 0.448413 0.246832 0.109784
O O10 0.320879 0.274365 0.007689
O O11 0.531284 0.750000 0.750000
O O12 0.407928 0.854513 0.827841
O O13 0.807218 0.622718 0.433892
O O14 0.750000 0.000000 0.170723
O O15 0.600091 0.898063 0.132580
O O16 0.421878 0.250000 0.750000
#
# Coordination Sequence:
#
# PCOD9413054 Si02
#       7
#     8   8   8   8   8   8   8
#     4  11  20  39  66  95 123 167 226 277 326 400
#     4  11  20  40  66  95 125 171 232 280 333 393
#     4  11  21  40  71  97 124 171 234 291 324 395
#     4  11  23  41  64  95 132 178 224 272 337 403
#     4  11  23  41  69  99 124 170 230 288 331 391
#     4  11  24  41  60  96 136 171 214 276 347 406
#     4  12  25  39  62  96 140 179 214 274 347 418
#
# _framework density 20.200464
#
# number of rings (size 3 to 8) (size 9 to 14) (size 15 to 20)
#    0.000    0.857    4.286    6.429    0.000    4.000 
#    2.571    0.714    0.000    0.000    0.000    0.000 
#    0.000    0.000    0.000    0.000    0.000    0.000 
#
# Total GULP energy -312328.164496 kJ/mol
# GULP energy per Si atom -5577.288652 kJ/mol
# Density = 2.015449 g / cm^3
# Si number density = 20.200464 Si / 1000 Ang^3
#
#
#
# Elastic Constant Matrix: (Units=GPa)
#
#
# Indices 1 2 3 4 5 6 
#
# 1 99.2402 16.6452 46.4412 0.0000 0.0000 0.0000
# 2 16.6452 102.0503 22.2872 0.0000 0.0000 0.0000
# 3 46.4412 22.2872 102.9503 0.0000 0.0000 0.0000
# 4 0.0000 0.0000 0.0000 -15.3807 0.0000 0.0000
# 5 0.0000 0.0000 0.0000 0.0000 221.9080 0.0000
# 6 0.0000 0.0000 0.0000 0.0000 0.0000 12.2158
#
#
#
# Elastic Compliance Matrix: (Units=1/GPa)
#
#
# Indices 1 2 3 4 5 6 
#
# 1 0.012846 -0.000871 -0.005606 0.000000 0.000000 0.000000
# 2 -0.000871 0.010344 -0.001847 0.000000 0.000000 0.000000
# 3 -0.005606 -0.001847 0.012642 0.000000 0.000000 0.000000
# 4 0.000000 0.000000 0.000000 -0.065016 0.000000 0.000000
# 5 0.000000 0.000000 0.000000 0.000000 0.004506 0.000000
# 6 0.000000 0.000000 0.000000 0.000000 0.000000 0.081861
#
#
# Mechanical properties :
#
#
# Convention : Reuss Voigt Hill
#
# Bulk Modulus (GPa) = 52.12368 52.77645 52.45006
# Shear Modulus (GPa) = 62.32325 58.33976 60.33151
#
# Velocity S-wave (km/s) = 5.56052 5.37988 5.47094
# Velocity P-wave (km/s) = 8.19055 8.04822 8.11970
#
# Compressibility (1/GPa) = 0.01918514
#
# Stress axis : x y z
#
# Youngs Moduli (GPa) = 77.84351 96.67053 79.09976
#
# Poissons Ratio (x) = 0.08419 0.44347
# Poissons Ratio (y) = 0.06779 0.14606
# Poissons Ratio (z) = 0.43643 0.17851
#
# Static dielectric constant tensor:
#      x y z
#    x 1.759330 0.000000 0.000000 
#    y 0.000000 1.782830 0.000000 
#    z 0.000000 0.000000 1.761880 
# 
# From -- ./inp_files/37340.got.cif
#   From: 2010.05.17/outbox.cif.g08.bks.cpg/sg52_19_cif.got.tgz:37340.got - 2010.06.03 12:15:38.
