data_PCOD9413838
_publ_section_title
;
Structure prediction by ZEFSAII (Michael W. Deem and Ramdas Pophale) SiO2 
 PCOD9413838
Probable space group: P N N A
;
_chemical_formula_sum "Si O2"
_cell_formula_units_Z 40
_cell_length_a 18.268496
_cell_length_b 5.314289
_cell_length_c 19.222358
_cell_angle_alpha 90.000000
_cell_angle_beta 90.000000
_cell_angle_gamma 90.000000
_cell_volume 1866.184698
_symmetry_space_group_name_H-M "P N N A"
_symmetry_group_IT_number 52
_symmetry_cell_setting 'orthorhombic'
loop_
_space_group_symop_operation_xyz
x,y,z
1/2-x,-y,z
x,1/2-y,1/2-z
1/2-x,1/2+y,1/2-z
-x,-y,-z
1/2+x,y,-z
-x,1/2+y,1/2+z
1/2+x,1/2-y,1/2+z
loop_
_atom_site_type_symbol
_atom_site_label
_atom_site_fract_x
_atom_site_fract_y
_atom_site_fract_z
Si Si1 0.529132 0.230097 0.830116
Si Si2 0.202123 0.252708 0.526089
Si Si3 0.067967 0.568518 0.950350
Si Si4 0.878000 0.425695 0.571005
Si Si5 0.668535 0.581487 0.814123
O O1 0.503700 0.250000 0.750000
O O2 0.467552 0.353609 0.877980
O O3 0.607162 0.372638 0.825334
O O4 0.553703 0.989949 0.878174
O O5 0.250000 0.500000 0.549867
O O6 0.169122 0.335072 0.451812
O O7 0.250000 0.000000 0.524877
O O8 0.127143 0.152243 0.562124
O O9 0.102188 0.792131 0.997910
O O10 0.000000 0.500000 0.000000
O O11 0.828766 0.243395 0.616350
O O12 0.750000 0.500000 0.795670
O O13 0.641158 0.750000 0.750000
#
# Coordination Sequence:
#
# PCOD9413838 Si02
#       5
#     8   8   8   8   8
#     4  12  26  45  66 105 145 194 246 302 372 436
#     4  12  27  46  72 112 142 188 245 308 367 430
#     4  12  25  44  73 109 145 188 246 308 364 433
#     4  12  25  42  72 101 146 191 245 295 352 436
#     4  12  27  42  61 100 154 207 239 282 348 443
#
# _framework density 21.434104000000001
#
# number of rings (size 3 to 8) (size 9 to 14) (size 15 to 20)
#    0.000    0.000    8.000    1.200    5.600    0.000 
#    0.000    0.000    0.000    0.000    5.200    0.000 
#    0.000    0.000    0.000    0.000    0.000    0.000 
#
# Total GULP energy -223164.244840 kJ/mol
# GULP energy per Si atom -5579.106121 kJ/mol
# Density = 2.138532 g / cm^3
# Si number density = 21.434104 Si / 1000 Ang^3
#
#
#
# Elastic Constant Matrix: (Units=GPa)
#
#
# Indices 1 2 3 4 5 6 
#
# 1 111.4999 42.6113 41.8613 0.0000 0.0000 0.0000
# 2 42.6113 93.4073 28.4670 0.0000 0.0000 0.0000
# 3 41.8613 28.4670 135.7516 0.0000 0.0000 0.0000
# 4 0.0000 0.0000 0.0000 28.4267 0.0000 0.0000
# 5 0.0000 0.0000 0.0000 0.0000 31.5612 0.0000
# 6 0.0000 0.0000 0.0000 0.0000 0.0000 20.7702
#
#
#
# Elastic Compliance Matrix: (Units=1/GPa)
#
#
# Indices 1 2 3 4 5 6 
#
# 1 0.011696 -0.004526 -0.002658 0.000000 0.000000 0.000000
# 2 -0.004526 0.013188 -0.001370 0.000000 0.000000 0.000000
# 3 -0.002658 -0.001370 0.008473 0.000000 0.000000 0.000000
# 4 0.000000 0.000000 0.000000 0.035178 0.000000 0.000000
# 5 0.000000 0.000000 0.000000 0.000000 0.031685 0.000000
# 6 0.000000 0.000000 0.000000 0.000000 0.000000 0.048146
#
#
# Mechanical properties :
#
#
# Convention : Reuss Voigt Hill
#
# Bulk Modulus (GPa) = 61.53604 62.94866 62.24235
# Shear Modulus (GPa) = 29.25882 31.33291 30.29586
#
# Velocity S-wave (km/s) = 3.69868 3.82753 3.76366
# Velocity P-wave (km/s) = 6.85653 6.99754 6.92739
#
# Compressibility (1/GPa) = 0.01625064
#
# Stress axis : x y z
#
# Youngs Moduli (GPa) = 85.50001 75.82755 118.01932
#
# Poissons Ratio (x) = 0.34316 0.31365
# Poissons Ratio (y) = 0.38694 0.16168
# Poissons Ratio (z) = 0.22723 0.10388
#
# Static dielectric constant tensor:
#      x y z
#    x 1.861590 0.000000 0.000000 
#    y 0.000000 2.235510 0.000000 
#    z 0.000000 0.000000 1.832750 
# 
# From -- ./inp_files/33461.got.cif
#   From: 2010.05.17/outbox.cif.g08.bks.cpg/sg52_17_cif.got.tgz:33461.got - 2010.06.03 12:15:38.
