data_PCOD9413407
_publ_section_title
;
Structure prediction by ZEFSAII (Michael W. Deem and Ramdas Pophale) SiO2 
 PCOD9413407
Probable space group: P N N A
;
_chemical_formula_sum "Si O2"
_cell_formula_units_Z 48
_cell_length_a 15.142778
_cell_length_b 15.642018
_cell_length_c 9.767126
_cell_angle_alpha 90.000000
_cell_angle_beta 90.000000
_cell_angle_gamma 90.000000
_cell_volume 2313.476685
_symmetry_space_group_name_H-M "P N N A"
_symmetry_group_IT_number 52
_symmetry_cell_setting 'orthorhombic'
loop_
_space_group_symop_operation_xyz
x,y,z
1/2-x,-y,z
x,1/2-y,1/2-z
1/2-x,1/2+y,1/2-z
-x,-y,-z
1/2+x,y,-z
-x,1/2+y,1/2+z
1/2+x,1/2-y,1/2+z
loop_
_atom_site_type_symbol
_atom_site_label
_atom_site_fract_x
_atom_site_fract_y
_atom_site_fract_z
Si Si1 0.861929 0.336670 0.839691
Si Si2 0.750000 0.000000 0.267876
Si Si3 0.517475 0.605748 0.630449
Si Si4 0.688957 0.359157 0.022928
Si Si5 0.612725 0.250000 0.250000
Si Si6 0.998088 0.401324 0.055215
Si Si7 0.918110 0.073625 0.152913
O O1 0.856958 0.250000 0.750000
O O2 0.896449 0.404585 0.727096
O O3 0.772165 0.353541 0.922221
O O4 0.939508 0.344290 0.952399
O O5 0.697763 0.061579 0.371713
O O6 0.814717 0.056699 0.175713
O O7 0.452387 0.675909 0.695334
O O8 0.552561 0.626873 0.479019
O O9 0.461943 0.519225 0.630683
O O10 0.598391 0.370882 0.941964
O O11 0.673730 0.279697 0.124397
O O12 0.955017 0.394284 0.203389
O O13 0.000000 0.500000 0.000000
#
# Coordination Sequence:
#
# PCOD9413407 Si02
#       7
#     8   4   8   8   4   8   8
#     4  12  24  44  66 100 141 181 226 293 358 413
#     4  12  20  44  66 106 130 182 236 296 340 424
#     4  11  23  46  67 100 141 178 227 301 358 408
#     4  12  25  39  74  99 138 181 239 284 350 429
#     4  12  22  48  70  94 144 194 222 288 368 424
#     4  12  20  44  73  99 131 186 238 281 349 428
#     4  11  24  41  73 101 131 179 243 289 348 423
#
# _framework density 20.747993999999998
#
# number of rings (size 3 to 8) (size 9 to 14) (size 15 to 20)
#    0.000    0.333    9.167    0.000    0.000    2.667 
#    6.000    1.667    0.000    0.000    0.000    0.000 
#    0.000    0.000    0.000    0.000    0.000    0.000 
#
# Total GULP energy -268148.508603 kJ/mol
# GULP energy per Si atom -5586.427263 kJ/mol
# Density = 2.070077 g / cm^3
# Si number density = 20.747994 Si / 1000 Ang^3
#
#
#
# Elastic Constant Matrix: (Units=GPa)
#
#
# Indices 1 2 3 4 5 6 
#
# 1 119.2348 3.1927 31.9989 0.0000 0.0000 0.0000
# 2 3.1927 38.5180 4.5132 0.0000 0.0000 0.0000
# 3 31.9989 4.5132 131.5295 0.0000 0.0000 0.0000
# 4 0.0000 0.0000 0.0000 26.7467 0.0000 0.0000
# 5 0.0000 0.0000 0.0000 0.0000 34.4795 0.0000
# 6 0.0000 0.0000 0.0000 0.0000 0.0000 13.3464
#
#
#
# Elastic Compliance Matrix: (Units=1/GPa)
#
#
# Indices 1 2 3 4 5 6 
#
# 1 0.008982 -0.000490 -0.002168 0.000000 0.000000 0.000000
# 2 -0.000490 0.026093 -0.000776 0.000000 0.000000 0.000000
# 3 -0.002168 -0.000776 0.008157 0.000000 0.000000 0.000000
# 4 0.000000 0.000000 0.000000 0.037388 0.000000 0.000000
# 5 0.000000 0.000000 0.000000 0.000000 0.029003 0.000000
# 6 0.000000 0.000000 0.000000 0.000000 0.000000 0.074927
#
#
# Mechanical properties :
#
#
# Convention : Reuss Voigt Hill
#
# Bulk Modulus (GPa) = 27.50066 40.96577 34.23322
# Shear Modulus (GPa) = 24.56521 31.55302 28.05912
#
# Velocity S-wave (km/s) = 3.44463 3.90394 3.68146
# Velocity P-wave (km/s) = 5.39482 6.33311 5.88270
#
# Compressibility (1/GPa) = 0.03636276
#
# Stress axis : x y z
#
# Youngs Moduli (GPa) = 111.33569 38.32379 122.59420
#
# Poissons Ratio (x) = 0.01879 0.26582
# Poissons Ratio (y) = 0.05460 0.09514
# Poissons Ratio (z) = 0.24141 0.02974
#
# Static dielectric constant tensor:
#      x y z
#    x 1.737090 0.000000 0.000000 
#    y 0.000000 1.787650 0.000000 
#    z 0.000000 0.000000 1.764690 
# 
# From -- ./inp_files/10538.got.cif
#   From: 2010.05.17/outbox.cif.g08.bks.cpg/sg52_6_cif.got.tgz:10538.got - 2010.06.03 12:15:38.
