data_PCOD9413878
_publ_section_title
;
Structure prediction by ZEFSAII (Michael W. Deem and Ramdas Pophale) SiO2 
 PCOD9413878
Probable space group: P N N A
;
_chemical_formula_sum "Si O2"
_cell_formula_units_Z 52
_cell_length_a 8.999225
_cell_length_b 18.656608
_cell_length_c 13.864653
_cell_angle_alpha 90.000000
_cell_angle_beta 90.000000
_cell_angle_gamma 90.000000
_cell_volume 2327.806097
_symmetry_space_group_name_H-M "P N N A"
_symmetry_group_IT_number 52
_symmetry_cell_setting 'orthorhombic'
loop_
_space_group_symop_operation_xyz
x,y,z
1/2-x,-y,z
x,1/2-y,1/2-z
1/2-x,1/2+y,1/2-z
-x,-y,-z
1/2+x,y,-z
-x,1/2+y,1/2+z
1/2+x,1/2-y,1/2+z
loop_
_atom_site_type_symbol
_atom_site_label
_atom_site_fract_x
_atom_site_fract_y
_atom_site_fract_z
Si Si1 0.963253 0.147531 0.393829
Si Si2 0.697877 0.809718 0.585985
Si Si3 0.917166 0.010857 0.265889
Si Si4 0.661956 0.852416 0.952812
Si Si5 0.789451 0.250000 0.250000
Si Si6 0.543177 0.063923 0.928245
Si Si7 0.985621 0.646979 0.254616
O O1 0.892489 0.153597 0.499488
O O2 0.920587 0.071267 0.347275
O O3 0.892688 0.212191 0.329967
O O4 0.141367 0.155982 0.396095
O O5 0.722252 0.727829 0.552611
O O6 0.593528 0.811539 0.680565
O O7 0.019921 0.039323 0.180161
O O8 0.750000 0.000000 0.227117
O O9 0.965614 0.931030 0.293214
O O10 0.793069 0.909070 0.947786
O O11 0.560486 0.862287 0.858408
O O12 0.565150 0.869973 0.046305
O O13 0.671000 0.313515 0.273342
O O14 0.500000 0.000000 0.000000
#
# Coordination Sequence:
#
# PCOD9413878 Si02
#       7
#     8   8   8   8   4   8   8
#     4  12  30  48  77 108 153 194 256 301 378 445
#     4  12  28  50  75 111 143 203 252 312 367 444
#     4  12  27  48  74 111 149 197 246 310 381 455
#     4  12  26  44  73 108 149 192 249 311 366 450
#     4  12  26  48  76 110 144 198 242 314 364 448
#     4  12  26  43  71 109 152 194 243 304 384 450
#     4  12  26  49  79 106 153 193 253 308 383 439
#
# _framework density 22.338630999999999
#
# number of rings (size 3 to 8) (size 9 to 14) (size 15 to 20)
#    0.000    0.000    4.615    4.154    8.615    2.462 
#    0.000    0.000    0.000    0.000    0.000    0.000 
#    0.000    0.000    0.000    0.000    0.000    0.000 
#
# Total GULP energy -291249.185813 kJ/mol
# GULP energy per Si atom -5600.945881 kJ/mol
# Density = 2.228779 g / cm^3
# Si number density = 22.338631 Si / 1000 Ang^3
#
#
#
# Elastic Constant Matrix: (Units=GPa)
#
#
# Indices 1 2 3 4 5 6 
#
# 1 84.8844 0.0380 6.8255 0.0000 0.0000 0.0000
# 2 0.0380 124.6662 25.4226 0.0000 0.0000 0.0000
# 3 6.8255 25.4226 63.4415 0.0000 0.0000 0.0000
# 4 0.0000 0.0000 0.0000 34.1509 0.0000 0.0000
# 5 0.0000 0.0000 0.0000 0.0000 30.5156 0.0000
# 6 0.0000 0.0000 0.0000 0.0000 0.0000 34.9052
#
#
#
# Elastic Compliance Matrix: (Units=1/GPa)
#
#
# Indices 1 2 3 4 5 6 
#
# 1 0.011893 0.000280 -0.001392 0.000000 0.000000 0.000000
# 2 0.000280 0.008742 -0.003533 0.000000 0.000000 0.000000
# 3 -0.001392 -0.003533 0.017328 0.000000 0.000000 0.000000
# 4 0.000000 0.000000 0.000000 0.029282 0.000000 0.000000
# 5 0.000000 0.000000 0.000000 0.000000 0.032770 0.000000
# 6 0.000000 0.000000 0.000000 0.000000 0.000000 0.028649
#
#
# Mechanical properties :
#
#
# Convention : Reuss Voigt Hill
#
# Bulk Modulus (GPa) = 34.87611 37.50713 36.19162
# Shear Modulus (GPa) = 33.89586 35.96142 34.92864
#
# Velocity S-wave (km/s) = 3.89956 4.01662 3.95853
# Velocity P-wave (km/s) = 5.99348 6.19175 6.09342
#
# Compressibility (1/GPa) = 0.02867292
#
# Stress axis : x y z
#
# Youngs Moduli (GPa) = 84.08656 114.39234 57.70964
#
# Poissons Ratio (x) = -0.03205 0.08032
# Poissons Ratio (y) = -0.02356 0.20390
# Poissons Ratio (z) = 0.11703 0.40417
#
# Static dielectric constant tensor:
#      x y z
#    x 1.788270 0.000000 0.000000 
#    y 0.000000 1.871960 0.000000 
#    z 0.000000 0.000000 1.783890 
# 
# From -- ./inp_files/24885.got.cif
#   From: 2010.05.17/outbox.cif.g08.bks.cpg/sg52_13_cif.got.tgz:24885.got - 2010.06.03 12:15:38.
