data_PCOD9413554
_publ_section_title
;
Structure prediction by ZEFSAII (Michael W. Deem and Ramdas Pophale) SiO2 
 PCOD9413554
Probable space group: P N N A
;
_chemical_formula_sum "Si O2"
_cell_formula_units_Z 60
_cell_length_a 9.628858
_cell_length_b 16.738736
_cell_length_c 15.719123
_cell_angle_alpha 90.000000
_cell_angle_beta 90.000000
_cell_angle_gamma 90.000000
_cell_volume 2533.528267
_symmetry_space_group_name_H-M "P N N A"
_symmetry_group_IT_number 52
_symmetry_cell_setting 'orthorhombic'
loop_
_space_group_symop_operation_xyz
x,y,z
1/2-x,-y,z
x,1/2-y,1/2-z
1/2-x,1/2+y,1/2-z
-x,-y,-z
1/2+x,y,-z
-x,1/2+y,1/2+z
1/2+x,1/2-y,1/2+z
loop_
_atom_site_type_symbol
_atom_site_label
_atom_site_fract_x
_atom_site_fract_y
_atom_site_fract_z
Si Si1 0.250000 0.000000 0.521454
Si Si2 0.038117 0.427706 0.212011
Si Si3 0.407998 0.020412 0.871500
Si Si4 0.708114 0.273209 0.502474
Si Si5 0.067265 0.097597 0.654707
Si Si6 0.554549 0.619221 0.542233
Si Si7 0.322510 0.196514 0.671103
Si Si8 0.287811 0.370660 0.109449
O O1 0.349289 0.944150 0.577127
O O2 0.173501 0.940513 0.457308
O O3 0.988909 0.419758 0.308959
O O4 0.000606 0.520367 0.197824
O O5 0.937222 0.371739 0.155843
O O6 0.192644 0.405102 0.184806
O O7 0.250000 0.000000 0.843635
O O8 0.494449 0.939122 0.886035
O O9 0.403406 0.063327 0.962571
O O10 0.806987 0.331086 0.557179
O O11 0.567069 0.319179 0.482663
O O12 0.781715 0.246060 0.413432
O O13 0.698702 0.194074 0.558832
O O14 0.185581 0.148045 0.700918
O O15 0.940237 0.157185 0.636280
O O16 0.370062 0.250000 0.750000
#
# Coordination Sequence:
#
# PCOD9413554 Si02
#       8
#     4   8   8   8   8   8   8   8
#     4  12  22  42  72 100 140 188 244 278 344 438
#     4  12  25  46  71 100 144 188 245 300 355 438
#     4  11  24  49  78 106 138 194 252 303 359 433
#     4  12  24  45  69 109 150 187 235 304 371 438
#     4  12  23  44  68 102 137 191 239 294 346 431
#     4  11  25  46  77 106 142 187 250 302 364 437
#     4  12  26  42  71 103 142 193 240 297 372 436
#     4  12  26  43  70 107 146 185 236 292 365 424
#
# _framework density 23.682389000000001
#
# number of rings (size 3 to 8) (size 9 to 14) (size 15 to 20)
#    0.000    0.267    5.333    3.600    3.733    0.000 
#    4.800    0.667    0.000    0.000    0.000    0.000 
#    0.000    0.000    0.000    0.000    0.000    0.000 
#
# Total GULP energy -335556.393201 kJ/mol
# GULP energy per Si atom -5592.606553 kJ/mol
# Density = 2.362849 g / cm^3
# Si number density = 23.682389 Si / 1000 Ang^3
#
#
#
# Elastic Constant Matrix: (Units=GPa)
#
#
# Indices 1 2 3 4 5 6 
#
# 1 106.0466 6.3324 16.6944 0.0000 0.0000 0.0000
# 2 6.3324 76.9269 7.0718 0.0000 0.0000 0.0000
# 3 16.6944 7.0718 62.9907 0.0000 0.0000 0.0000
# 4 0.0000 0.0000 0.0000 30.3709 0.0000 0.0000
# 5 0.0000 0.0000 0.0000 0.0000 13.8627 0.0000
# 6 0.0000 0.0000 0.0000 0.0000 0.0000 35.6175
#
#
#
# Elastic Compliance Matrix: (Units=1/GPa)
#
#
# Indices 1 2 3 4 5 6 
#
# 1 0.009866 -0.000578 -0.002550 0.000000 0.000000 0.000000
# 2 -0.000578 0.013169 -0.001325 0.000000 0.000000 0.000000
# 3 -0.002550 -0.001325 0.016700 0.000000 0.000000 0.000000
# 4 0.000000 0.000000 0.000000 0.032926 0.000000 0.000000
# 5 0.000000 0.000000 0.000000 0.000000 0.072136 0.000000
# 6 0.000000 0.000000 0.000000 0.000000 0.000000 0.028076
#
#
# Mechanical properties :
#
#
# Convention : Reuss Voigt Hill
#
# Bulk Modulus (GPa) = 32.43733 34.01792 33.22763
# Shear Modulus (GPa) = 26.03424 30.36127 28.19775
#
# Velocity S-wave (km/s) = 3.31918 3.58441 3.45434
# Velocity P-wave (km/s) = 5.33065 5.61481 5.47457
#
# Compressibility (1/GPa) = 0.03082868
#
# Stress axis : x y z
#
# Youngs Moduli (GPa) = 101.36105 75.93736 59.88045
#
# Poissons Ratio (x) = 0.04387 0.15269
# Poissons Ratio (y) = 0.05856 0.07936
# Poissons Ratio (z) = 0.25846 0.10064
#
# Static dielectric constant tensor:
#      x y z
#    x 1.869180 0.000000 0.000000 
#    y 0.000000 1.944660 0.000000 
#    z 0.000000 0.000000 1.928460 
# 
# From -- ./inp_files/31484.got.cif
#   From: 2010.05.17/outbox.cif.g08.bks.cpg/sg52_16_cif.got.tgz:31484.got - 2010.06.03 12:15:38.
