data_PCOD9413739
_publ_section_title
;
Structure prediction by ZEFSAII (Michael W. Deem and Ramdas Pophale) SiO2 
 PCOD9413739
Probable space group: P N N A
;
_chemical_formula_sum "Si O2"
_cell_formula_units_Z 32
_cell_length_a 5.204827
_cell_length_b 11.239913
_cell_length_c 26.566531
_cell_angle_alpha 90.000000
_cell_angle_beta 90.000000
_cell_angle_gamma 90.000000
_cell_volume 1554.189954
_symmetry_space_group_name_H-M "P N N A"
_symmetry_group_IT_number 52
_symmetry_cell_setting 'orthorhombic'
loop_
_space_group_symop_operation_xyz
x,y,z
1/2-x,-y,z
x,1/2-y,1/2-z
1/2-x,1/2+y,1/2-z
-x,-y,-z
1/2+x,y,-z
-x,1/2+y,1/2+z
1/2+x,1/2-y,1/2+z
loop_
_atom_site_type_symbol
_atom_site_label
_atom_site_fract_x
_atom_site_fract_y
_atom_site_fract_z
Si Si1 0.750000 0.000000 0.563985
Si Si2 0.263390 0.765152 0.029214
Si Si3 0.691084 0.860723 0.858197
Si Si4 0.750000 0.500000 0.134496
Si Si5 0.193644 0.749210 0.809933
O O1 0.760736 0.878584 0.532674
O O2 0.499563 0.995095 0.599184
O O3 0.205771 0.813904 0.084594
O O4 0.540408 0.803382 0.008998
O O5 0.415052 0.830338 0.834673
O O6 0.914266 0.793770 0.827288
O O7 0.750000 0.000000 0.856914
O O8 0.764140 0.382653 0.168301
O O9 0.214737 0.750000 0.750000
#
# Coordination Sequence:
#
# PCOD9413739 Si02
#       5
#     4   8   8   4   8
#     4  12  22  43  66 104 138 172 224 283 346 390
#     4  12  24  42  68  99 133 180 227 277 341 399
#     4  12  27  48  69 100 142 180 229 281 330 407
#     4  12  22  43  74  98 140 174 218 293 336 394
#     4  12  26  47  72 104 136 180 228 278 343 401
#
# _framework density 20.589506
#
# number of rings (size 3 to 8) (size 9 to 14) (size 15 to 20)
#    0.000    0.000    5.000    5.250    3.500    1.000 
#    0.000    0.000    0.000    0.000    0.000    0.000 
#    0.000    0.000    0.000    0.000    0.000    0.000 
#
# Total GULP energy -179337.592470 kJ/mol
# GULP energy per Si atom -5604.299765 kJ/mol
# Density = 2.054264 g / cm^3
# Si number density = 20.589506 Si / 1000 Ang^3
#
#
#
# Elastic Constant Matrix: (Units=GPa)
#
#
# Indices 1 2 3 4 5 6 
#
# 1 86.4388 -17.6980 0.4860 0.0000 0.0000 0.0000
# 2 -17.6980 50.8961 -5.3303 0.0000 0.0000 0.0000
# 3 0.4860 -5.3303 79.8428 0.0000 0.0000 0.0000
# 4 0.0000 0.0000 0.0000 -62.2634 0.0000 0.0000
# 5 0.0000 0.0000 0.0000 0.0000 -835.3908 0.0000
# 6 0.0000 0.0000 0.0000 0.0000 0.0000 8.5483
#
#
#
# Elastic Compliance Matrix: (Units=1/GPa)
#
#
# Indices 1 2 3 4 5 6 
#
# 1 0.012459 0.004355 0.000215 0.000000 0.000000 0.000000
# 2 0.004355 0.021308 0.001396 0.000000 0.000000 0.000000
# 3 0.000215 0.001396 0.012617 0.000000 0.000000 0.000000
# 4 0.000000 0.000000 0.000000 -0.016061 0.000000 0.000000
# 5 0.000000 0.000000 0.000000 0.000000 -0.001197 0.000000
# 6 0.000000 0.000000 0.000000 0.000000 0.000000 0.116982
#
#
# Mechanical properties :
#
#
# Convention : Reuss Voigt Hill
#
# Bulk Modulus (GPa) = 17.14793 19.12145 18.13469
# Shear Modulus (GPa) = 32.54884 -161.83986 -64.64551
#
# Velocity S-wave (km/s) = 3.98030 -8.87546 -5.60941
# Velocity P-wave (km/s) = 5.42865 9.78389 5.75562
#
# Compressibility (1/GPa) = 0.05831607
#
# Stress axis : x y z
#
# Youngs Moduli (GPa) = 80.26111 46.92979 79.26127
#
# Poissons Ratio (x) = -0.20438 -0.01703
# Poissons Ratio (y) = -0.34953 -0.11065
# Poissons Ratio (z) = -0.01725 -0.06552
#
# Static dielectric constant tensor:
#      x y z
#    x 1.706320 0.000000 0.000000 
#    y 0.000000 1.715430 0.000000 
#    z 0.000000 0.000000 1.687070 
# 
# From -- ./inp_files/34825.got.cif
#   From: 2010.05.17/outbox.cif.g08.bks.cpg/sg52_18_cif.got.tgz:34825.got - 2010.06.03 12:15:38.
