data_PCOD9413260
_publ_section_title
;
Structure prediction by ZEFSAII (Michael W. Deem and Ramdas Pophale) SiO2 
 PCOD9413260
Probable space group: P N N A
;
_chemical_formula_sum "Si O2"
_cell_formula_units_Z 40
_cell_length_a 17.142703
_cell_length_b 7.466449
_cell_length_c 15.668590
_cell_angle_alpha 90.000000
_cell_angle_beta 90.000000
_cell_angle_gamma 90.000000
_cell_volume 2005.503021
_symmetry_space_group_name_H-M "P N N A"
_symmetry_group_IT_number 52
_symmetry_cell_setting 'orthorhombic'
loop_
_space_group_symop_operation_xyz
x,y,z
1/2-x,-y,z
x,1/2-y,1/2-z
1/2-x,1/2+y,1/2-z
-x,-y,-z
1/2+x,y,-z
-x,1/2+y,1/2+z
1/2+x,1/2-y,1/2+z
loop_
_atom_site_type_symbol
_atom_site_label
_atom_site_fract_x
_atom_site_fract_y
_atom_site_fract_z
Si Si1 0.987048 0.172845 0.845467
Si Si2 0.421408 0.698966 0.003441
Si Si3 0.832185 0.054285 0.939696
Si Si4 0.463902 0.275508 0.655680
Si Si5 0.824532 0.385037 0.065356
O O1 0.989497 0.250000 0.750000
O O2 0.899080 0.128073 0.876425
O O3 0.036154 0.989049 0.853555
O O4 0.027633 0.293791 0.917238
O O5 0.479376 0.701075 0.083158
O O6 0.370175 0.878948 0.016008
O O7 0.368857 0.524520 0.996453
O O8 0.750000 0.000000 0.897702
O O9 0.811904 0.206102 0.009696
O O10 0.495972 0.250000 0.750000
O O11 0.381438 0.179073 0.641139
O O12 0.750000 0.500000 0.094836
#
# Coordination Sequence:
#
# PCOD9413260 Si02
#       5
#     8   8   8   8   8
#     4  11  23  42  69  97 129 173 218 273 320 379
#     4  11  22  42  70  94 128 172 218 269 319 383
#     4  11  22  43  63  97 134 170 215 268 327 389
#     4  11  23  41  66  99 130 164 221 273 316 383
#     4  12  23  39  68  97 130 176 214 263 333 389
#
# _framework density 19.945121
#
# number of rings (size 3 to 8) (size 9 to 14) (size 15 to 20)
#    0.000    0.800    6.000    3.000    2.800    0.000 
#    0.000    9.000    0.000    0.000    0.000    0.000 
#    0.000    0.000    0.000    0.000    0.000    0.000 
#
# Total GULP energy -223356.630433 kJ/mol
# GULP energy per Si atom -5583.915761 kJ/mol
# Density = 1.989973 g / cm^3
# Si number density = 19.945121 Si / 1000 Ang^3
#
#
#
# Elastic Constant Matrix: (Units=GPa)
#
#
# Indices 1 2 3 4 5 6 
#
# 1 126.0151 39.3891 31.7942 0.0000 0.0000 0.0000
# 2 39.3891 102.3275 5.8527 0.0000 0.0000 0.0000
# 3 31.7942 5.8527 95.3464 0.0000 0.0000 0.0000
# 4 0.0000 0.0000 0.0000 27.8424 0.0000 0.0000
# 5 0.0000 0.0000 0.0000 0.0000 21.0417 0.0000
# 6 0.0000 0.0000 0.0000 0.0000 0.0000 67.7844
#
#
#
# Elastic Compliance Matrix: (Units=1/GPa)
#
#
# Indices 1 2 3 4 5 6 
#
# 1 0.009836 -0.003611 -0.003058 0.000000 0.000000 0.000000
# 2 -0.003611 0.011133 0.000521 0.000000 0.000000 0.000000
# 3 -0.003058 0.000521 0.011476 0.000000 0.000000 0.000000
# 4 0.000000 0.000000 0.000000 0.035916 0.000000 0.000000
# 5 0.000000 0.000000 0.000000 0.000000 0.047525 0.000000
# 6 0.000000 0.000000 0.000000 0.000000 0.000000 0.014753
#
#
# Mechanical properties :
#
#
# Convention : Reuss Voigt Hill
#
# Bulk Modulus (GPa) = 49.63417 53.08455 51.35936
# Shear Modulus (GPa) = 33.41097 39.77725 36.59411
#
# Velocity S-wave (km/s) = 4.09729 4.47064 4.28803
# Velocity P-wave (km/s) = 6.87918 7.30219 7.09384
#
# Compressibility (1/GPa) = 0.02014741
#
# Stress axis : x y z
#
# Youngs Moduli (GPa) = 101.66787 89.82428 87.13920
#
# Poissons Ratio (x) = 0.32438 0.26649
# Poissons Ratio (y) = 0.36715 -0.04539
# Poissons Ratio (z) = 0.31092 -0.04678
#
# Static dielectric constant tensor:
#      x y z
#    x 1.738740 0.000000 0.000000 
#    y 0.000000 1.745130 0.000000 
#    z 0.000000 0.000000 1.699740 
# 
# From -- ./inp_files/26871.got.cif
#   From: 2010.05.17/outbox.cif.g08.bks.cpg/sg52_14_cif.got.tgz:26871.got - 2010.06.03 12:15:38.
