data_PCOD9413901
_publ_section_title
;
Structure prediction by ZEFSAII (Michael W. Deem and Ramdas Pophale) SiO2 
 PCOD9413901
Probable space group: P N N A
;
_chemical_formula_sum "Si O2"
_cell_formula_units_Z 20
_cell_length_a 18.515885
_cell_length_b 4.937620
_cell_length_c 8.693014
_cell_angle_alpha 90.000000
_cell_angle_beta 90.000000
_cell_angle_gamma 90.000000
_cell_volume 794.753625
_symmetry_space_group_name_H-M "P N N A"
_symmetry_group_IT_number 52
_symmetry_cell_setting 'orthorhombic'
loop_
_space_group_symop_operation_xyz
x,y,z
1/2-x,-y,z
x,1/2-y,1/2-z
1/2-x,1/2+y,1/2-z
-x,-y,-z
1/2+x,y,-z
-x,1/2+y,1/2+z
1/2+x,1/2-y,1/2+z
loop_
_atom_site_type_symbol
_atom_site_label
_atom_site_fract_x
_atom_site_fract_y
_atom_site_fract_z
Si Si1 0.172551 0.116952 0.594952
Si Si2 0.250000 0.000000 0.141207
Si Si3 0.457174 0.254411 0.931427
O O1 0.139650 0.250000 0.750000
O O2 0.191038 0.341826 0.465563
O O3 0.250000 0.000000 0.641987
O O4 0.124712 0.862667 0.541547
O O5 0.223531 0.750000 0.250000
O O6 0.465461 0.250000 0.750000
O O7 0.500000 0.500000 0.000000
O O8 0.500000 0.000000 0.000000
#
# Coordination Sequence:
#
# PCOD9413901 Si02
#       3
#     8   4   8
#     4  12  26  51  90 123 168 225 295 348 424 519
#     4  12  28  48  78 134 176 208 268 370 438 478
#     4  12  29  54  83 120 168 226 280 344 423 509
#
# _framework density 25.165030999999999
#
# number of rings (size 3 to 8) (size 9 to 14) (size 15 to 20)
#    0.000    0.000    4.000    4.800    5.600    1.600 
#    7.200    0.000    0.000    0.000    0.000    0.000 
#    0.000    0.000    0.000    0.000    0.000    0.000 
#
# Total GULP energy -111818.532313 kJ/mol
# GULP energy per Si atom -5590.926616 kJ/mol
# Density = 2.510775 g / cm^3
# Si number density = 25.165031 Si / 1000 Ang^3
#
#
#
# Elastic Constant Matrix: (Units=GPa)
#
#
# Indices 1 2 3 4 5 6 
#
# 1 139.5191 84.9807 50.5148 0.0000 0.0000 0.0000
# 2 84.9807 288.9830 111.7813 0.0000 0.0000 0.0000
# 3 50.5148 111.7813 181.5132 0.0000 0.0000 0.0000
# 4 0.0000 0.0000 0.0000 67.3580 0.0000 0.0000
# 5 0.0000 0.0000 0.0000 0.0000 19.8138 0.0000
# 6 0.0000 0.0000 0.0000 0.0000 0.0000 75.3348
#
#
#
# Elastic Compliance Matrix: (Units=1/GPa)
#
#
# Indices 1 2 3 4 5 6 
#
# 1 0.008906 -0.002180 -0.001136 0.000000 0.000000 0.000000
# 2 -0.002180 0.005076 -0.002519 0.000000 0.000000 0.000000
# 3 -0.001136 -0.002519 0.007377 0.000000 0.000000 0.000000
# 4 0.000000 0.000000 0.000000 0.014846 0.000000 0.000000
# 5 0.000000 0.000000 0.000000 0.000000 0.050470 0.000000
# 6 0.000000 0.000000 0.000000 0.000000 0.000000 0.013274
#
#
# Mechanical properties :
#
#
# Convention : Reuss Voigt Hill
#
# Bulk Modulus (GPa) = 103.21234 122.72986 112.97110
# Shear Modulus (GPa) = 43.53530 56.68391 50.10960
#
# Velocity S-wave (km/s) = 4.16383 4.75119 4.46717
# Velocity P-wave (km/s) = 8.01373 8.88674 8.46150
#
# Compressibility (1/GPa) = 0.00968876
#
# Stress axis : x y z
#
# Youngs Moduli (GPa) = 112.27775 197.01236 135.55720
#
# Poissons Ratio (x) = 0.42939 0.15405
# Poissons Ratio (y) = 0.24471 0.34151
# Poissons Ratio (z) = 0.12760 0.49633
#
# Static dielectric constant tensor:
#      x y z
#    x 1.969520 0.000000 0.000000 
#    y 0.000000 2.058330 0.000000 
#    z 0.000000 0.000000 1.958040 
# 
# From -- ./inp_files/11196.got.cif
#   From: 2010.05.17/outbox.cif.g08.bks.cpg/sg52_6_cif.got.tgz:11196.got - 2010.06.03 12:15:38.
