data_PCOD9413890
_publ_section_title
;
Structure prediction by ZEFSAII (Michael W. Deem and Ramdas Pophale) SiO2 
 PCOD9413890
Probable space group: P N N A
;
_chemical_formula_sum "Si O2"
_cell_formula_units_Z 16
_cell_length_a 17.233594
_cell_length_b 4.802924
_cell_length_c 7.986477
_cell_angle_alpha 90.000000
_cell_angle_beta 90.000000
_cell_angle_gamma 90.000000
_cell_volume 661.053817
_symmetry_space_group_name_H-M "P N N A"
_symmetry_group_IT_number 52
_symmetry_cell_setting 'orthorhombic'
loop_
_space_group_symop_operation_xyz
x,y,z
1/2-x,-y,z
x,1/2-y,1/2-z
1/2-x,1/2+y,1/2-z
-x,-y,-z
1/2+x,y,-z
-x,1/2+y,1/2+z
1/2+x,1/2-y,1/2+z
loop_
_atom_site_type_symbol
_atom_site_label
_atom_site_fract_x
_atom_site_fract_y
_atom_site_fract_z
Si Si1 0.421526 0.358425 0.562582
Si Si2 0.830052 0.641860 0.939461
O O1 0.430058 0.250000 0.750000
O O2 0.500000 0.500000 0.500000
O O3 0.356009 0.595757 0.548504
O O4 0.395417 0.096202 0.451199
O O5 0.750000 0.500000 0.993549
O O6 0.678464 0.250000 0.750000
#
# Coordination Sequence:
#
# PCOD9413890 Si02
#       2
#     8   8
#     4  12  27  48  75 109 150 194 244 304 366 434
#     4  12  26  48  76 107 146 194 245 302 368 438
#
# _framework density 24.203776999999999
#
# number of rings (size 3 to 8) (size 9 to 14) (size 15 to 20)
#    0.000    0.000    0.000   10.500    0.000    8.000 
#    0.000    2.500    0.000    0.000    0.000    0.000 
#    0.000    0.000    0.000    0.000    0.000    0.000 
#
# Total GULP energy -89888.871896 kJ/mol
# GULP energy per Si atom -5618.054493 kJ/mol
# Density = 2.414869 g / cm^3
# Si number density = 24.203777 Si / 1000 Ang^3
#
#
#
# Elastic Constant Matrix: (Units=GPa)
#
#
# Indices 1 2 3 4 5 6 
#
# 1 113.6968 68.2631 58.4110 0.0000 0.0000 0.0000
# 2 68.2631 191.7052 61.7379 0.0000 0.0000 0.0000
# 3 58.4110 61.7379 110.3133 0.0000 0.0000 0.0000
# 4 0.0000 0.0000 0.0000 68.3838 0.0000 0.0000
# 5 0.0000 0.0000 0.0000 0.0000 31.9933 0.0000
# 6 0.0000 0.0000 0.0000 0.0000 0.0000 75.9830
#
#
#
# Elastic Compliance Matrix: (Units=1/GPa)
#
#
# Indices 1 2 3 4 5 6 
#
# 1 0.013384 -0.003030 -0.005391 0.000000 0.000000 0.000000
# 2 -0.003030 0.007049 -0.002341 0.000000 0.000000 0.000000
# 3 -0.005391 -0.002341 0.013230 0.000000 0.000000 0.000000
# 4 0.000000 0.000000 0.000000 0.014623 0.000000 0.000000
# 5 0.000000 0.000000 0.000000 0.000000 0.031257 0.000000
# 6 0.000000 0.000000 0.000000 0.000000 0.000000 0.013161
#
#
# Mechanical properties :
#
#
# Convention : Reuss Voigt Hill
#
# Bulk Modulus (GPa) = 82.37660 88.05990 85.21825
# Shear Modulus (GPa) = 42.27486 50.42558 46.35022
#
# Velocity S-wave (km/s) = 4.18380 4.56935 4.38082
# Velocity P-wave (km/s) = 7.57940 8.01875 7.80217
#
# Compressibility (1/GPa) = 0.01213937
#
# Stress axis : x y z
#
# Youngs Moduli (GPa) = 74.71594 141.86419 75.58648
#
# Poissons Ratio (x) = 0.42979 0.40751
# Poissons Ratio (y) = 0.22636 0.17694
# Poissons Ratio (z) = 0.40282 0.33209
#
# Static dielectric constant tensor:
#      x y z
#    x 1.944950 0.000000 0.000000 
#    y 0.000000 1.897520 0.000000 
#    z 0.000000 0.000000 1.883040 
# 
# From -- ./inp_files/2705.got.cif
#   From: 2010.05.17/outbox.cif.g08.bks.cpg/sg52_2_cif.got.tgz:2705.got - 2010.06.03 12:15:38.
