data_PCOD9413960
_publ_section_title
;
Structure prediction by ZEFSAII (Michael W. Deem and Ramdas Pophale) SiO2 
 PCOD9413960
Probable space group: P N N A
;
_chemical_formula_sum "Si O2"
_cell_formula_units_Z 44
_cell_length_a 12.000000
_cell_length_b 12.000000
_cell_length_c 18.000000
_cell_angle_alpha 90.000000
_cell_angle_beta 90.000000
_cell_angle_gamma 90.000000
_cell_volume 2592.000000
_symmetry_space_group_name_H-M "P N N A"
_symmetry_group_IT_number 52
_symmetry_cell_setting 'orthorhombic'
loop_
_space_group_symop_operation_xyz
x,y,z
1/2-x,-y,z
x,1/2-y,1/2-z
1/2-x,1/2+y,1/2-z
-x,-y,-z
1/2+x,y,-z
-x,1/2+y,1/2+z
1/2+x,1/2-y,1/2+z
loop_
_atom_site_type_symbol
_atom_site_label
_atom_site_fract_x
_atom_site_fract_y
_atom_site_fract_z
Si Si1 0.831926 0.607884 0.112769
Si Si2 0.838597 0.833102 0.819425
Si Si3 0.793639 0.825839 0.548258
Si Si4 0.410433 0.049822 0.394944
Si Si5 0.596806 0.928606 0.780778
Si Si6 0.589029 0.250000 0.250000
O O1 0.750000 0.500000 0.119358
O O2 0.841503 0.683360 0.187190
O O3 0.957931 0.565256 0.096943
O O4 0.799053 0.680888 0.040656
O O5 0.866135 0.750000 0.750000
O O6 0.841433 0.770056 0.898323
O O7 0.709982 0.870446 0.808020
O O8 0.909622 0.947649 0.815989
O O9 0.665780 0.852552 0.570865
O O10 0.863909 0.936413 0.570136
O O11 0.387806 0.049919 0.307054
O O12 0.493492 0.842907 0.787242
#
# Coordination Sequence:
#
# PCOD9413960 Si02
#       6
#     8   8   8   8   8   4
#     4  11  23  38  60  79 109 153 199 239 278 330
#     4  11  16  28  53  93 122 140 176 227 298 354
#     4  11  19  31  56  91 116 138 178 246 288 337
#     4  10  18  33  57  86 115 138 185 233 295 329
#     4  10  18  32  57  83 118 154 177 226 293 356
#     4  10  22  42  56  74 110 162 200 236 284 334
#
# _framework density 16.975308999999999
#
# number of rings (size 3 to 8) (size 9 to 14) (size 15 to 20)
#    0.000    1.455    6.364    2.727    0.000    0.000 
#    0.000    4.545    4.000    0.000    0.000    0.000 
#    0.000    0.000    0.000    0.000    0.000    0.000 
#
# Total GULP energy -245391.443188 kJ/mol
# GULP energy per Si atom -5577.078254 kJ/mol
# Density = 1.693667 g / cm^3
# Si number density = 16.975309 Si / 1000 Ang^3
#
#
#
# Elastic Constant Matrix: (Units=GPa)
#
#
# Indices 1 2 3 4 5 6 
#
# 1 75.6332 27.1581 33.4780 0.0000 0.0000 0.0000
# 2 27.1581 110.8359 49.5477 0.0000 0.0000 0.0000
# 3 33.4780 49.5477 112.6177 0.0000 0.0000 0.0000
# 4 0.0000 0.0000 0.0000 28.8532 0.0000 0.0000
# 5 0.0000 0.0000 0.0000 0.0000 9.0148 0.0000
# 6 0.0000 0.0000 0.0000 0.0000 0.0000 21.4784
#
#
#
# Elastic Compliance Matrix: (Units=1/GPa)
#
#
# Indices 1 2 3 4 5 6 
#
# 1 0.015638 -0.002183 -0.003688 0.000000 0.000000 0.000000
# 2 -0.002183 0.011536 -0.004427 0.000000 0.000000 0.000000
# 3 -0.003688 -0.004427 0.011924 0.000000 0.000000 0.000000
# 4 0.000000 0.000000 0.000000 0.034658 0.000000 0.000000
# 5 0.000000 0.000000 0.000000 0.000000 0.110929 0.000000
# 6 0.000000 0.000000 0.000000 0.000000 0.000000 0.046558
#
#
# Mechanical properties :
#
#
# Convention : Reuss Voigt Hill
#
# Bulk Modulus (GPa) = 54.04797 57.71715 55.88256
# Shear Modulus (GPa) = 19.37938 24.46283 21.92110
#
# Velocity S-wave (km/s) = 3.38245 3.80028 3.59744
# Velocity P-wave (km/s) = 6.86753 7.30278 7.08850
#
# Compressibility (1/GPa) = 0.01850208
#
# Stress axis : x y z
#
# Youngs Moduli (GPa) = 63.94622 86.68478 83.86779
#
# Poissons Ratio (x) = 0.18923 0.30933
# Poissons Ratio (y) = 0.13959 0.37124
# Poissons Ratio (z) = 0.23585 0.38371
#
# Static dielectric constant tensor:
#      x y z
#    x 1.583750 0.000000 0.000000 
#    y 0.000000 1.593640 0.000000 
#    z 0.000000 0.000000 1.590840 
# 
# From -- ./inp_files/32162.got.cif
#   From: 2010.05.17/outbox.ucp.g08.bks.cvg/sg52_17_cif.got.tgz:32162.got - 2010.06.11 16:30:12.
