data_PCOD9413177
_publ_section_title
;
Structure prediction by ZEFSAII (Michael W. Deem and Ramdas Pophale) SiO2 
 PCOD9413177
Probable space group: P N N A
;
_chemical_formula_sum "Si O2"
_cell_formula_units_Z 32
_cell_length_a 19.926645
_cell_length_b 5.031366
_cell_length_c 13.888795
_cell_angle_alpha 90.000000
_cell_angle_beta 90.000000
_cell_angle_gamma 90.000000
_cell_volume 1392.466200
_symmetry_space_group_name_H-M "P N N A"
_symmetry_group_IT_number 52
_symmetry_cell_setting 'orthorhombic'
loop_
_space_group_symop_operation_xyz
x,y,z
1/2-x,-y,z
x,1/2-y,1/2-z
1/2-x,1/2+y,1/2-z
-x,-y,-z
1/2+x,y,-z
-x,1/2+y,1/2+z
1/2+x,1/2-y,1/2+z
loop_
_atom_site_type_symbol
_atom_site_label
_atom_site_fract_x
_atom_site_fract_y
_atom_site_fract_z
Si Si1 0.791945 0.267616 0.513129
Si Si2 0.934185 0.273571 0.908179
Si Si3 0.149847 0.983223 0.813328
Si Si4 0.506903 0.777242 0.124197
O O1 0.750000 0.500000 0.565399
O O2 0.856485 0.170684 0.573156
O O3 0.819531 0.433758 0.419275
O O4 0.750000 0.000000 0.487900
O O5 0.977064 0.490570 0.850327
O O6 0.945882 0.980574 0.869214
O O7 0.967543 0.258956 0.014597
O O8 0.181606 0.750000 0.750000
O O9 0.071238 0.913063 0.827074
O O10 0.156027 0.250000 0.750000
#
# Coordination Sequence:
#
# PCOD9413177 Si02
#       4
#     8   8   8   8
#     4  11  22  35  51  74 107 145 182 215 253 312
#     4   9  17  31  51  72  95 127 170 223 273 303
#     4  11  22  35  51  74 107 145 182 215 250 309
#     4   9  17  31  51  72  95 127 170 223 273 302
#
# _framework density 22.980810000000002
#
# number of rings (size 3 to 8) (size 9 to 14) (size 15 to 20)
#    0.000    2.000    0.000    4.500    0.000   10.000 
#    0.000    0.000    0.000    0.000    0.000    0.000 
#    0.000   56.000    0.000    0.000    0.000    0.000 
#
# Total GULP energy -178406.599259 kJ/mol
# GULP energy per Si atom -5575.206227 kJ/mol
# Density = 2.292851 g / cm^3
# Si number density = 22.980810 Si / 1000 Ang^3
#
#
#
# Elastic Constant Matrix: (Units=GPa)
#
#
# Indices 1 2 3 4 5 6 
#
# 1 137.4861 55.7307 18.4199 0.0000 0.0000 0.0000
# 2 55.7307 172.0066 9.4213 0.0000 0.0000 0.0000
# 3 18.4199 9.4213 47.9693 0.0000 0.0000 0.0000
# 4 0.0000 0.0000 0.0000 11.4478 0.0000 0.0000
# 5 0.0000 0.0000 0.0000 0.0000 10.0789 0.0000
# 6 0.0000 0.0000 0.0000 0.0000 0.0000 26.2773
#
#
#
# Elastic Compliance Matrix: (Units=1/GPa)
#
#
# Indices 1 2 3 4 5 6 
#
# 1 0.008737 -0.002676 -0.002830 0.000000 0.000000 0.000000
# 2 -0.002676 0.006696 -0.000288 0.000000 0.000000 0.000000
# 3 -0.002830 -0.000288 0.021990 0.000000 0.000000 0.000000
# 4 0.000000 0.000000 0.000000 0.087353 0.000000 0.000000
# 5 0.000000 0.000000 0.000000 0.000000 0.099217 0.000000
# 6 0.000000 0.000000 0.000000 0.000000 0.000000 0.038056
#
#
# Mechanical properties :
#
#
# Convention : Reuss Voigt Hill
#
# Bulk Modulus (GPa) = 38.70379 58.28954 48.49667
# Shear Modulus (GPa) = 17.71494 27.82014 22.76754
#
# Velocity S-wave (km/s) = 2.77945 3.48312 3.15098
# Velocity P-wave (km/s) = 5.21333 6.44947 5.86406
#
# Compressibility (1/GPa) = 0.02583726
#
# Stress axis : x y z
#
# Youngs Moduli (GPa) = 114.45246 149.33185 45.47586
#
# Poissons Ratio (x) = 0.39960 0.12867
# Poissons Ratio (y) = 0.30627 0.01308
# Poissons Ratio (z) = 0.32384 0.04296
#
# Static dielectric constant tensor:
#      x y z
#    x 1.870410 0.000000 0.000000 
#    y 0.000000 1.872580 0.000000 
#    z 0.000000 0.000000 1.975910 
# 
# From -- ./inp_files/37473.got.cif
#   From: 2010.05.17/outbox.cif.g08.bks.cpg/sg52_19_cif.got.tgz:37473.got - 2010.06.03 12:15:38.
