data_PCOD9413143
_publ_section_title
;
Structure prediction by ZEFSAII (Michael W. Deem and Ramdas Pophale) SiO2 
 PCOD9413143
Probable space group: P N N A
;
_chemical_formula_sum "Si O2"
_cell_formula_units_Z 32
_cell_length_a 18.169355
_cell_length_b 9.558327
_cell_length_c 6.807931
_cell_angle_alpha 90.000000
_cell_angle_beta 90.000000
_cell_angle_gamma 90.000000
_cell_volume 1182.324094
_symmetry_space_group_name_H-M "P N N A"
_symmetry_group_IT_number 52
_symmetry_cell_setting 'orthorhombic'
loop_
_space_group_symop_operation_xyz
x,y,z
1/2-x,-y,z
x,1/2-y,1/2-z
1/2-x,1/2+y,1/2-z
-x,-y,-z
1/2+x,y,-z
-x,1/2+y,1/2+z
1/2+x,1/2-y,1/2+z
loop_
_atom_site_type_symbol
_atom_site_label
_atom_site_fract_x
_atom_site_fract_y
_atom_site_fract_z
Si Si1 0.663017 0.001991 0.530087
Si Si2 0.539950 0.389044 0.651772
Si Si3 0.680586 0.797522 0.974027
Si Si4 0.160697 0.107510 0.896479
O O1 0.595638 0.041308 0.679489
O O2 0.734318 0.329255 0.485743
O O3 0.750000 0.000000 0.609544
O O4 0.653775 0.847102 0.434281
O O5 0.501608 0.250000 0.750000
O O6 0.334423 0.595977 0.835169
O O7 0.593179 0.316712 0.494359
O O8 0.668751 0.750000 0.750000
O O9 0.649457 0.947190 0.029407
O O10 0.000000 0.000000 0.000000
#
# Coordination Sequence:
#
# PCOD9413143 Si02
#       4
#     8   8   8   8
#     4  12  24  44  81 124 171 221 283 371 435 516
#     4  12  30  55  82 117 174 238 294 355 443 544
#     4  11  21  41  72 120 171 215 273 352 445 508
#     4  11  24  44  75 122 172 220 277 356 432 530
#
# _framework density 27.065335999999999
#
# number of rings (size 3 to 8) (size 9 to 14) (size 15 to 20)
#    0.000    0.500    5.000    4.500    0.000    6.000 
#    0.000    2.500    0.000    0.000    0.000    0.000 
#    0.000    0.000    0.000    0.000    0.000    0.000 
#
# Total GULP energy -178211.214188 kJ/mol
# GULP energy per Si atom -5569.100443 kJ/mol
# Density = 2.700373 g / cm^3
# Si number density = 27.065336 Si / 1000 Ang^3
#
#
#
# Elastic Constant Matrix: (Units=GPa)
#
#
# Indices 1 2 3 4 5 6 
#
# 1 125.7850 33.9395 32.9026 0.0000 0.0000 0.0000
# 2 33.9395 175.7818 39.9192 0.0000 0.0000 0.0000
# 3 32.9026 39.9192 135.1504 0.0000 0.0000 0.0000
# 4 0.0000 0.0000 0.0000 8.4065 0.0000 0.0000
# 5 0.0000 0.0000 0.0000 0.0000 21.1625 0.0000
# 6 0.0000 0.0000 0.0000 0.0000 0.0000 10.1318
#
#
#
# Elastic Compliance Matrix: (Units=1/GPa)
#
#
# Indices 1 2 3 4 5 6 
#
# 1 0.008757 -0.001293 -0.001750 0.000000 0.000000 0.000000
# 2 -0.001293 0.006289 -0.001543 0.000000 0.000000 0.000000
# 3 -0.001750 -0.001543 0.008281 0.000000 0.000000 0.000000
# 4 0.000000 0.000000 0.000000 0.118956 0.000000 0.000000
# 5 0.000000 0.000000 0.000000 0.000000 0.047253 0.000000
# 6 0.000000 0.000000 0.000000 0.000000 0.000000 0.098699
#
#
# Mechanical properties :
#
#
# Convention : Reuss Voigt Hill
#
# Bulk Modulus (GPa) = 70.64756 72.24888 71.44822
# Shear Modulus (GPa) = 16.54943 29.93721 23.24332
#
# Velocity S-wave (km/s) = 2.47546 3.32943 2.93368
# Velocity P-wave (km/s) = 5.85916 6.44456 6.15882
#
# Compressibility (1/GPa) = 0.01415477
#
# Stress axis : x y z
#
# Youngs Moduli (GPa) = 114.19734 159.00967 120.76090
#
# Poissons Ratio (x) = 0.20566 0.21131
# Poissons Ratio (y) = 0.14770 0.18630
# Poissons Ratio (z) = 0.19983 0.24530
#
# Static dielectric constant tensor:
#      x y z
#    x 1.771960 0.000000 0.000000 
#    y 0.000000 2.274400 0.000000 
#    z 0.000000 0.000000 2.526370 
# 
# From -- ./inp_files/20200.got.cif
#   From: 2010.05.17/outbox.cif.g08.bks.cpg/sg52_11_cif.got.tgz:20200.got - 2010.06.03 12:15:38.
