data_PCOD9413363
_publ_section_title
;
Structure prediction by ZEFSAII (Michael W. Deem and Ramdas Pophale) SiO2 
 PCOD9413363
Probable space group: P N N A
;
_chemical_formula_sum "Si O2"
_cell_formula_units_Z 48
_cell_length_a 14.313113
_cell_length_b 26.744764
_cell_length_c 5.268845
_cell_angle_alpha 90.000000
_cell_angle_beta 90.000000
_cell_angle_gamma 90.000000
_cell_volume 2016.918235
_symmetry_space_group_name_H-M "P N N A"
_symmetry_group_IT_number 52
_symmetry_cell_setting 'orthorhombic'
loop_
_space_group_symop_operation_xyz
x,y,z
1/2-x,-y,z
x,1/2-y,1/2-z
1/2-x,1/2+y,1/2-z
-x,-y,-z
1/2+x,y,-z
-x,1/2+y,1/2+z
1/2+x,1/2-y,1/2+z
loop_
_atom_site_type_symbol
_atom_site_label
_atom_site_fract_x
_atom_site_fract_y
_atom_site_fract_z
Si Si1 0.740871 0.943933 0.269989
Si Si2 0.875822 0.907018 0.629666
Si Si3 0.508476 0.803549 0.793667
Si Si4 0.079043 0.898238 0.466476
Si Si5 0.099730 0.509383 0.372420
Si Si6 0.382346 0.803083 0.291546
O O1 0.842495 0.921354 0.344414
O O2 0.676347 0.900479 0.390251
O O3 0.750000 0.000000 0.392689
O O4 0.676028 0.960256 0.034063
O O5 0.830083 0.855993 0.729936
O O6 0.986211 0.896526 0.635731
O O7 0.859464 0.955398 0.800374
O O8 0.558149 0.750000 0.750000
O O9 0.567663 0.853148 0.732358
O O10 0.427659 0.803382 0.574153
O O11 0.461698 0.803515 0.070719
O O12 0.076514 0.954195 0.356807
O O13 0.000000 0.500000 0.500000
O O14 0.331897 0.750000 0.250000
#
# Coordination Sequence:
#
# PCOD9413363 Si02
#       6
#     8   8   8   8   8   8
#     4  12  26  41  59  96 133 173 227 275 340 418
#     4  11  23  44  65  99 134 178 224 290 350 415
#     4   9  19  37  66  98 129 173 224 279 343 411
#     4  11  23  43  63  94 130 170 224 275 340 413
#     4  12  23  40  66  89 130 177 224 280 345 409
#     4   9  19  39  67 100 131 173 227 276 343 415
#
# _framework density 23.798684000000002
#
# number of rings (size 3 to 8) (size 9 to 14) (size 15 to 20)
#    0.000    1.333    3.333    2.500    4.667    1.333 
#    0.000    0.833    0.000    0.000    4.333    0.000 
#    0.000    0.000    0.000    0.000    0.000    0.000 
#
# Total GULP energy -267397.820274 kJ/mol
# GULP energy per Si atom -5570.787922 kJ/mol
# Density = 2.374452 g / cm^3
# Si number density = 23.798684 Si / 1000 Ang^3
#
#
#
# Elastic Constant Matrix: (Units=GPa)
#
#
# Indices 1 2 3 4 5 6 
#
# 1 68.3752 -8.4893 4.5419 0.0000 0.0000 0.0000
# 2 -8.4893 169.1415 8.2882 0.0000 0.0000 0.0000
# 3 4.5419 8.2882 67.1316 0.0000 0.0000 0.0000
# 4 0.0000 0.0000 0.0000 37.9187 0.0000 0.0000
# 5 0.0000 0.0000 0.0000 0.0000 13.2838 0.0000
# 6 0.0000 0.0000 0.0000 0.0000 0.0000 4.1160
#
#
#
# Elastic Compliance Matrix: (Units=1/GPa)
#
#
# Indices 1 2 3 4 5 6 
#
# 1 0.014797 0.000797 -0.001099 0.000000 0.000000 0.000000
# 2 0.000797 0.005991 -0.000794 0.000000 0.000000 0.000000
# 3 -0.001099 -0.000794 0.015068 0.000000 0.000000 0.000000
# 4 0.000000 0.000000 0.000000 0.026372 0.000000 0.000000
# 5 0.000000 0.000000 0.000000 0.000000 0.075280 0.000000
# 6 0.000000 0.000000 0.000000 0.000000 0.000000 0.242956
#
#
# Mechanical properties :
#
#
# Convention : Reuss Voigt Hill
#
# Bulk Modulus (GPa) = 29.70558 34.81444 32.26001
# Shear Modulus (GPa) = 12.69427 31.08420 21.88924
#
# Velocity S-wave (km/s) = 2.31206 3.61796 3.03606
# Velocity P-wave (km/s) = 4.43132 5.66687 5.08675
#
# Compressibility (1/GPa) = 0.03366371
#
# Stress axis : x y z
#
# Youngs Moduli (GPa) = 67.58074 166.91497 66.36369
#
# Poissons Ratio (x) = -0.13296 0.07296
# Poissons Ratio (y) = -0.05383 0.05266
# Poissons Ratio (z) = 0.07430 0.13246
#
# Static dielectric constant tensor:
#      x y z
#    x 2.058630 0.000000 0.000000 
#    y 0.000000 -0.150840 0.000000 
#    z 0.000000 0.000000 2.058220 
# 
# From -- ./inp_files/2472.got.cif
#   From: 2010.05.17/outbox.cif.g08.bks.cpg/sg52_2_cif.got.tgz:2472.got - 2010.06.03 12:15:38.
