data_PCOD9413538
_publ_section_title
;
Structure prediction by ZEFSAII (Michael W. Deem and Ramdas Pophale) SiO2 
 PCOD9413538
Probable space group: P N N A
;
_chemical_formula_sum "Si O2"
_cell_formula_units_Z 32
_cell_length_a 22.732088
_cell_length_b 7.499313
_cell_length_c 7.092072
_cell_angle_alpha 90.000000
_cell_angle_beta 90.000000
_cell_angle_gamma 90.000000
_cell_volume 1209.021280
_symmetry_space_group_name_H-M "P N N A"
_symmetry_group_IT_number 52
_symmetry_cell_setting 'orthorhombic'
loop_
_space_group_symop_operation_xyz
x,y,z
1/2-x,-y,z
x,1/2-y,1/2-z
1/2-x,1/2+y,1/2-z
-x,-y,-z
1/2+x,y,-z
-x,1/2+y,1/2+z
1/2+x,1/2-y,1/2+z
loop_
_atom_site_type_symbol
_atom_site_label
_atom_site_fract_x
_atom_site_fract_y
_atom_site_fract_z
Si Si1 0.488310 0.537916 0.277880
Si Si2 0.691620 0.077688 0.870178
Si Si3 0.876214 0.116920 0.553198
Si Si4 0.884040 0.489770 0.319616
O O1 0.480052 0.750000 0.250000
O O2 0.500000 0.500000 0.500000
O O3 0.553535 0.478781 0.217148
O O4 0.358575 0.619895 0.524391
O O5 0.704249 0.250000 0.750000
O O6 0.831968 0.068252 0.721563
O O7 0.750000 0.000000 0.965112
O O8 0.562656 0.938096 0.662742
O O9 0.887058 0.307423 0.446222
O O10 0.846706 0.022417 0.369702
#
# Coordination Sequence:
#
# PCOD9413538 Si02
#       4
#     8   8   8   8
#     4  12  25  44  73 112 155 206 248 308 379 452
#     4  12  27  50  76 106 144 196 252 320 382 452
#     4  11  24  47  72 109 150 197 250 306 372 451
#     4  11  25  45  73 107 148 199 246 307 377 447
#
# _framework density 26.467690000000001
#
# number of rings (size 3 to 8) (size 9 to 14) (size 15 to 20)
#    0.000    0.500    5.000    3.750    0.000    2.000 
#    0.000    0.000    0.000    0.000    0.000    0.000 
#    0.000    0.000    0.000    0.000    0.000    0.000 
#
# Total GULP energy -178355.976789 kJ/mol
# GULP energy per Si atom -5573.624275 kJ/mol
# Density = 2.640745 g / cm^3
# Si number density = 26.467690 Si / 1000 Ang^3
#
#
#
# Elastic Constant Matrix: (Units=GPa)
#
#
# Indices 1 2 3 4 5 6 
#
# 1 96.8405 28.7077 28.9874 0.0000 0.0000 0.0000
# 2 28.7077 122.5779 23.4394 0.0000 0.0000 0.0000
# 3 28.9874 23.4394 218.4239 0.0000 0.0000 0.0000
# 4 0.0000 0.0000 0.0000 17.3049 0.0000 0.0000
# 5 0.0000 0.0000 0.0000 0.0000 8.1827 0.0000
# 6 0.0000 0.0000 0.0000 0.0000 0.0000 6.5756
#
#
#
# Elastic Compliance Matrix: (Units=1/GPa)
#
#
# Indices 1 2 3 4 5 6 
#
# 1 0.011424 -0.002436 -0.001255 0.000000 0.000000 0.000000
# 2 -0.002436 0.008848 -0.000626 0.000000 0.000000 0.000000
# 3 -0.001255 -0.000626 0.004812 0.000000 0.000000 0.000000
# 4 0.000000 0.000000 0.000000 0.057787 0.000000 0.000000
# 5 0.000000 0.000000 0.000000 0.000000 0.122209 0.000000
# 6 0.000000 0.000000 0.000000 0.000000 0.000000 0.152077
#
#
# Mechanical properties :
#
#
# Convention : Reuss Voigt Hill
#
# Bulk Modulus (GPa) = 60.78670 66.67903 63.73287
# Shear Modulus (GPa) = 13.46715 30.19317 21.83016
#
# Velocity S-wave (km/s) = 2.25814 3.38117 2.87502
# Velocity P-wave (km/s) = 5.46033 6.36321 5.92898
#
# Compressibility (1/GPa) = 0.01645097
#
# Stress axis : x y z
#
# Youngs Moduli (GPa) = 87.53635 113.01687 207.81472
#
# Poissons Ratio (x) = 0.27526 0.26075
# Poissons Ratio (y) = 0.21320 0.13015
# Poissons Ratio (z) = 0.10983 0.07078
#
# Static dielectric constant tensor:
#      x y z
#    x 2.500110 0.000000 0.000000 
#    y 0.000000 0.315020 0.000000 
#    z 0.000000 0.000000 2.529680 
# 
# From -- ./inp_files/13888.got.cif
#   From: 2010.05.17/outbox.cif.g08.bks.cpg/sg52_7_cif.got.tgz:13888.got - 2010.06.03 12:15:38.
