data_PCOD9413709
_publ_section_title
;
Structure prediction by ZEFSAII (Michael W. Deem and Ramdas Pophale) SiO2 
 PCOD9413709
Probable space group: P N N A
;
_chemical_formula_sum "Si O2"
_cell_formula_units_Z 20
_cell_length_a 9.354777
_cell_length_b 7.106321
_cell_length_c 11.053048
_cell_angle_alpha 90.000000
_cell_angle_beta 90.000000
_cell_angle_gamma 90.000000
_cell_volume 734.785058
_symmetry_space_group_name_H-M "P N N A"
_symmetry_group_IT_number 52
_symmetry_cell_setting 'orthorhombic'
loop_
_space_group_symop_operation_xyz
x,y,z
1/2-x,-y,z
x,1/2-y,1/2-z
1/2-x,1/2+y,1/2-z
-x,-y,-z
1/2+x,y,-z
-x,1/2+y,1/2+z
1/2+x,1/2-y,1/2+z
loop_
_atom_site_type_symbol
_atom_site_label
_atom_site_fract_x
_atom_site_fract_y
_atom_site_fract_z
Si Si1 0.402358 0.995646 0.826485
Si Si2 0.862155 0.750000 0.750000
Si Si3 0.761117 0.779272 0.484314
O O1 0.250000 0.000000 0.756708
O O2 0.534348 0.065803 0.750098
O O3 0.607635 0.197371 0.098699
O O4 0.131300 0.839798 0.925479
O O5 0.779156 0.729898 0.625154
O O6 0.750000 0.000000 0.483531
#
# Coordination Sequence:
#
# PCOD9413709 Si02
#       3
#     8   4   8
#     4   8  23  43  60 104 141 165 239 281 316 433
#     4  12  20  42  78  92 138 204 206 280 380 368
#     4   9  22  42  64 100 138 172 234 282 324 417
#
# _framework density 27.218844000000001
#
# number of rings (size 3 to 8) (size 9 to 14) (size 15 to 20)
#    2.400    0.000    0.000    1.200    5.600    3.200 
#    0.000    8.000    0.000    0.000    0.000    0.000 
#    0.000    0.000    0.000    0.000    0.000    0.000 
#
# Total GULP energy -111741.412365 kJ/mol
# GULP energy per Si atom -5587.070618 kJ/mol
# Density = 2.715689 g / cm^3
# Si number density = 27.218844 Si / 1000 Ang^3
#
#
#
# Elastic Constant Matrix: (Units=GPa)
#
#
# Indices 1 2 3 4 5 6 
#
# 1 35.8675 10.5555 14.8099 0.0000 0.0000 0.0000
# 2 10.5555 216.5867 15.0326 0.0000 0.0000 0.0000
# 3 14.8099 15.0326 138.9678 0.0000 0.0000 0.0000
# 4 0.0000 0.0000 0.0000 19.7531 0.0000 0.0000
# 5 0.0000 0.0000 0.0000 0.0000 -30.3958 0.0000
# 6 0.0000 0.0000 0.0000 0.0000 0.0000 40.6948
#
#
#
# Elastic Compliance Matrix: (Units=1/GPa)
#
#
# Indices 1 2 3 4 5 6 
#
# 1 0.029484 -0.001228 -0.003009 0.000000 0.000000 0.000000
# 2 -0.001228 0.004703 -0.000378 0.000000 0.000000 0.000000
# 3 -0.003009 -0.000378 0.007557 0.000000 0.000000 0.000000
# 4 0.000000 0.000000 0.000000 0.050625 0.000000 0.000000
# 5 0.000000 0.000000 0.000000 0.000000 -0.032899 0.000000
# 6 0.000000 0.000000 0.000000 0.000000 0.000000 0.024573
#
#
# Mechanical properties :
#
#
# Convention : Reuss Voigt Hill
#
# Bulk Modulus (GPa) = 30.75554 52.46868 41.61211
# Shear Modulus (GPa) = 48.02487 29.41201 38.71844
#
# Velocity S-wave (km/s) = 4.20503 3.29078 3.77568
# Velocity P-wave (km/s) = 5.90764 5.81011 5.85908
#
# Compressibility (1/GPa) = 0.03251447
#
# Stress axis : x y z
#
# Youngs Moduli (GPa) = 33.91628 212.62274 132.31898
#
# Poissons Ratio (x) = 0.26111 0.39819
# Poissons Ratio (y) = 0.04165 0.05000
# Poissons Ratio (z) = 0.10207 0.08035
#
# Static dielectric constant tensor:
#      x y z
#    x 2.182440 0.000000 0.000000 
#    y 0.000000 2.114210 0.000000 
#    z 0.000000 0.000000 2.118080 
# 
# From -- ./inp_files/25282.got.cif
#   From: 2010.05.17/outbox.cif.g08.bks.cpg/sg52_13_cif.got.tgz:25282.got - 2010.06.03 12:15:38.
