data_PCOD9413306
_publ_section_title
;
Structure prediction by ZEFSAII (Michael W. Deem and Ramdas Pophale) SiO2 
 PCOD9413306
Probable space group: P N N A
;
_chemical_formula_sum "Si O2"
_cell_formula_units_Z 36
_cell_length_a 24.840266
_cell_length_b 5.399517
_cell_length_c 13.256163
_cell_angle_alpha 90.000000
_cell_angle_beta 90.000000
_cell_angle_gamma 90.000000
_cell_volume 1777.988676
_symmetry_space_group_name_H-M "P N N A"
_symmetry_group_IT_number 52
_symmetry_cell_setting 'orthorhombic'
loop_
_space_group_symop_operation_xyz
x,y,z
1/2-x,-y,z
x,1/2-y,1/2-z
1/2-x,1/2+y,1/2-z
-x,-y,-z
1/2+x,y,-z
-x,1/2+y,1/2+z
1/2+x,1/2-y,1/2+z
loop_
_atom_site_type_symbol
_atom_site_label
_atom_site_fract_x
_atom_site_fract_y
_atom_site_fract_z
Si Si1 0.093885 0.189806 0.366794
Si Si2 0.603126 0.250000 0.250000
Si Si3 0.383698 0.204192 0.020766
Si Si4 0.466448 0.375484 0.859032
Si Si5 0.192725 0.599922 0.649335
O O1 0.103721 0.250000 0.250000
O O2 0.112219 0.431612 0.430078
O O3 0.029695 0.138268 0.378234
O O4 0.119266 0.929928 0.400773
O O5 0.563600 0.366262 0.165053
O O6 0.644968 0.420824 0.311531
O O7 0.436150 0.246379 0.950755
O O8 0.334520 0.238164 0.943376
O O9 0.456977 0.250000 0.750000
O O10 0.250000 0.500000 0.614445
O O11 0.205932 0.750000 0.750000
#
# Coordination Sequence:
#
# PCOD9413306 Si02
#       5
#     8   4   8   8   8
#     4  11  27  42  65  93 137 183 232 278 323 385
#     4  12  20  40  62  98 148 176 208 258 344 414
#     4  12  23  44  65  98 133 180 227 276 333 397
#     4  11  23  36  64  98 142 177 215 266 340 421
#     4  12  25  41  69 101 138 177 213 280 348 420
#
# _framework density 20.247599999999998
#
# number of rings (size 3 to 8) (size 9 to 14) (size 15 to 20)
#    0.000    0.444    5.556    3.333    6.222    0.000 
#    0.000    0.000    0.000    2.667    0.000    0.000 
#    0.000    0.000    0.000    0.000    0.000    0.000 
#
# Total GULP energy -200990.286498 kJ/mol
# GULP energy per Si atom -5583.063514 kJ/mol
# Density = 2.020152 g / cm^3
# Si number density = 20.247600 Si / 1000 Ang^3
#
#
#
# Elastic Constant Matrix: (Units=GPa)
#
#
# Indices 1 2 3 4 5 6 
#
# 1 56.1514 12.3992 33.5151 0.0000 0.0000 0.0000
# 2 12.3992 65.6581 4.7952 0.0000 0.0000 0.0000
# 3 33.5151 4.7952 62.6618 0.0000 0.0000 0.0000
# 4 0.0000 0.0000 0.0000 49.3917 0.0000 0.0000
# 5 0.0000 0.0000 0.0000 0.0000 580.6444 0.0000
# 6 0.0000 0.0000 0.0000 0.0000 0.0000 31.5318
#
#
#
# Elastic Compliance Matrix: (Units=1/GPa)
#
#
# Indices 1 2 3 4 5 6 
#
# 1 0.027215 -0.004099 -0.014242 0.000000 0.000000 0.000000
# 2 -0.004099 0.015933 0.000973 0.000000 0.000000 0.000000
# 3 -0.014242 0.000973 0.023502 0.000000 0.000000 0.000000
# 4 0.000000 0.000000 0.000000 0.020246 0.000000 0.000000
# 5 0.000000 0.000000 0.000000 0.000000 0.001722 0.000000
# 6 0.000000 0.000000 0.000000 0.000000 0.000000 0.031714
#
#
# Mechanical properties :
#
#
# Convention : Reuss Voigt Hill
#
# Bulk Modulus (GPa) = 31.33482 31.76558 31.55020
# Shear Modulus (GPa) = 30.17358 141.23103 85.70230
#
# Velocity S-wave (km/s) = 3.86454 8.36083 6.51299
# Velocity P-wave (km/s) = 5.95166 10.43682 8.49557
#
# Compressibility (1/GPa) = 0.03191338
#
# Stress axis : x y z
#
# Youngs Moduli (GPa) = 36.74429 62.76098 42.54977
#
# Poissons Ratio (x) = 0.25727 0.60601
# Poissons Ratio (y) = 0.15063 -0.04141
# Poissons Ratio (z) = 0.52333 -0.06108
#
# Static dielectric constant tensor:
#      x y z
#    x 1.680330 0.000000 0.000000 
#    y 0.000000 1.712270 0.000000 
#    z 0.000000 0.000000 1.747630 
# 
# From -- ./inp_files/22048.got.cif
#   From: 2010.05.17/outbox.cif.g08.bks.cpg/sg52_12_cif.got.tgz:22048.got - 2010.06.03 12:15:38.
