data_PCOD9413472
_publ_section_title
;
Structure prediction by ZEFSAII (Michael W. Deem and Ramdas Pophale) SiO2 
 PCOD9413472
Probable space group: P N N A
;
_chemical_formula_sum "Si O2"
_cell_formula_units_Z 56
_cell_length_a 9.046594
_cell_length_b 20.400979
_cell_length_c 15.137209
_cell_angle_alpha 90.000000
_cell_angle_beta 90.000000
_cell_angle_gamma 90.000000
_cell_volume 2793.713820
_symmetry_space_group_name_H-M "P N N A"
_symmetry_group_IT_number 52
_symmetry_cell_setting 'orthorhombic'
loop_
_space_group_symop_operation_xyz
x,y,z
1/2-x,-y,z
x,1/2-y,1/2-z
1/2-x,1/2+y,1/2-z
-x,-y,-z
1/2+x,y,-z
-x,1/2+y,1/2+z
1/2+x,1/2-y,1/2+z
loop_
_atom_site_type_symbol
_atom_site_label
_atom_site_fract_x
_atom_site_fract_y
_atom_site_fract_z
Si Si1 0.915923 0.759938 0.024263
Si Si2 0.143379 0.847807 0.940688
Si Si3 0.594607 0.911652 0.242909
Si Si4 0.884779 0.040741 0.940280
Si Si5 0.054883 0.437866 0.733153
Si Si6 0.582145 0.301058 0.827584
Si Si7 0.429873 0.309943 0.183745
O O1 0.763434 0.789285 0.064057
O O2 0.000968 0.712709 0.091140
O O3 0.910966 0.727868 0.926628
O O4 0.017554 0.822030 0.005395
O O5 0.071631 0.874395 0.850675
O O6 0.201298 0.910545 0.993432
O O7 0.770549 0.923364 0.239346
O O8 0.525801 0.863197 0.315697
O O9 0.529830 0.984884 0.251697
O O10 0.981308 0.071807 0.862451
O O11 0.750000 0.000000 0.898494
O O12 0.000000 0.000000 0.000000
O O13 0.987807 0.381648 0.793568
O O14 0.536458 0.250000 0.750000
O O15 0.753482 0.316307 0.809909
O O16 0.472929 0.250000 0.250000
#
# Coordination Sequence:
#
# PCOD9413472 Si02
#       7
#     8   8   8   8   8   8   8
#     4  12  25  44  66 101 138 185 234 288 348 415
#     4  12  23  39  66  99 140 181 226 282 348 414
#     4  11  24  43  66  99 138 178 235 283 351 421
#     4  12  24  39  63 101 145 186 227 281 353 439
#     4  11  26  42  65 100 138 185 227 285 353 418
#     4  11  25  43  68 103 135 184 238 293 347 416
#     4  11  25  45  67  98 138 178 236 286 347 424
#
# _framework density 20.045002
#
# number of rings (size 3 to 8) (size 9 to 14) (size 15 to 20)
#    0.000    0.571    4.286    4.286    6.000    0.571 
#    0.000    0.714    0.000    0.000    0.000    0.000 
#    0.000    0.000    0.000    0.000    0.000    0.000 
#
# Total GULP energy -312397.162391 kJ/mol
# GULP energy per Si atom -5578.520757 kJ/mol
# Density = 1.999938 g / cm^3
# Si number density = 20.045002 Si / 1000 Ang^3
#
#
#
# Elastic Constant Matrix: (Units=GPa)
#
#
# Indices 1 2 3 4 5 6 
#
# 1 65.0550 40.9697 10.2929 0.0000 0.0000 0.0000
# 2 40.9697 127.3618 54.2680 0.0000 0.0000 0.0000
# 3 10.2929 54.2680 75.9081 0.0000 0.0000 0.0000
# 4 0.0000 0.0000 0.0000 37.7805 0.0000 0.0000
# 5 0.0000 0.0000 0.0000 0.0000 25.9012 0.0000
# 6 0.0000 0.0000 0.0000 0.0000 0.0000 35.2892
#
#
#
# Elastic Compliance Matrix: (Units=1/GPa)
#
#
# Indices 1 2 3 4 5 6 
#
# 1 0.019645 -0.007455 0.002666 0.000000 0.000000 0.000000
# 2 -0.007455 0.014121 -0.009084 0.000000 0.000000 0.000000
# 3 0.002666 -0.009084 0.019307 0.000000 0.000000 0.000000
# 4 0.000000 0.000000 0.000000 0.026469 0.000000 0.000000
# 5 0.000000 0.000000 0.000000 0.000000 0.038608 0.000000
# 6 0.000000 0.000000 0.000000 0.000000 0.000000 0.028337
#
#
# Mechanical properties :
#
#
# Convention : Reuss Voigt Hill
#
# Bulk Modulus (GPa) = 39.48575 53.26513 46.37544
# Shear Modulus (GPa) = 27.37098 30.64711 29.00904
#
# Velocity S-wave (km/s) = 3.69924 3.91438 3.80833
# Velocity P-wave (km/s) = 6.16337 6.86005 6.52102
#
# Compressibility (1/GPa) = 0.02532559
#
# Stress axis : x y z
#
# Youngs Moduli (GPa) = 50.90353 70.81840 51.79546
#
# Poissons Ratio (x) = 0.52798 -0.13810
# Poissons Ratio (y) = 0.37951 0.47052
# Poissons Ratio (z) = -0.13572 0.64332
#
# Static dielectric constant tensor:
#      x y z
#    x 1.743780 0.000000 0.000000 
#    y 0.000000 1.861520 0.000000 
#    z 0.000000 0.000000 1.736430 
# 
# From -- ./inp_files/24967.got.cif
#   From: 2010.05.17/outbox.cif.g08.bks.cpg/sg52_13_cif.got.tgz:24967.got - 2010.06.03 12:15:38.
