data_PCOD9413897
_publ_section_title
;
Structure prediction by ZEFSAII (Michael W. Deem and Ramdas Pophale) SiO2 
 PCOD9413897
Probable space group: P N N A
;
_chemical_formula_sum "Si O2"
_cell_formula_units_Z 28
_cell_length_a 13.788223
_cell_length_b 16.001454
_cell_length_c 4.757613
_cell_angle_alpha 90.000000
_cell_angle_beta 90.000000
_cell_angle_gamma 90.000000
_cell_volume 1049.679845
_symmetry_space_group_name_H-M "P N N A"
_symmetry_group_IT_number 52
_symmetry_cell_setting 'orthorhombic'
loop_
_space_group_symop_operation_xyz
x,y,z
1/2-x,-y,z
x,1/2-y,1/2-z
1/2-x,1/2+y,1/2-z
-x,-y,-z
1/2+x,y,-z
-x,1/2+y,1/2+z
1/2+x,1/2-y,1/2+z
loop_
_atom_site_type_symbol
_atom_site_label
_atom_site_fract_x
_atom_site_fract_y
_atom_site_fract_z
Si Si1 0.604031 0.669918 0.614616
Si Si2 0.856541 0.005682 0.541470
Si Si3 0.223502 0.250000 0.750000
Si Si4 0.910822 0.599906 0.434402
O O1 0.555392 0.750000 0.750000
O O2 0.631381 0.598793 0.839056
O O3 0.697823 0.710277 0.468551
O O4 0.513658 0.631932 0.446016
O O5 0.927174 0.970961 0.301647
O O6 0.750000 0.000000 0.403445
O O7 0.856459 0.943167 0.807061
O O8 0.149160 0.328677 0.732707
#
# Coordination Sequence:
#
# PCOD9413897 Si02
#       4
#     8   8   4   8
#     4  12  28  48  79 113 154 206 262 324 392 464
#     4  12  26  50  79 112 159 205 255 320 394 465
#     4  12  28  50  80 112 160 206 262 334 386 464
#     4  12  28  51  78 113 157 204 260 323 392 467
#
# _framework density 26.674799
#
# number of rings (size 3 to 8) (size 9 to 14) (size 15 to 20)
#    0.000    0.000    4.286    4.286    8.000    0.000 
#    0.000    0.000    0.000    0.000    0.000    0.000 
#    0.000    0.000    0.000    0.000    0.000    0.000 
#
# Total GULP energy -156425.832579 kJ/mol
# GULP energy per Si atom -5586.636878 kJ/mol
# Density = 2.661409 g / cm^3
# Si number density = 26.674799 Si / 1000 Ang^3
#
#
#
# Elastic Constant Matrix: (Units=GPa)
#
#
# Indices 1 2 3 4 5 6 
#
# 1 114.4636 53.9623 18.9943 0.0000 0.0000 0.0000
# 2 53.9623 205.4393 54.2944 0.0000 0.0000 0.0000
# 3 18.9943 54.2944 89.9324 0.0000 0.0000 0.0000
# 4 0.0000 0.0000 0.0000 33.1196 0.0000 0.0000
# 5 0.0000 0.0000 0.0000 0.0000 36.8288 0.0000
# 6 0.0000 0.0000 0.0000 0.0000 0.0000 43.6511
#
#
#
# Elastic Compliance Matrix: (Units=1/GPa)
#
#
# Indices 1 2 3 4 5 6 
#
# 1 0.010001 -0.002461 -0.000626 0.000000 0.000000 0.000000
# 2 -0.002461 0.006398 -0.003342 0.000000 0.000000 0.000000
# 3 -0.000626 -0.003342 0.013270 0.000000 0.000000 0.000000
# 4 0.000000 0.000000 0.000000 0.030194 0.000000 0.000000
# 5 0.000000 0.000000 0.000000 0.000000 0.027153 0.000000
# 6 0.000000 0.000000 0.000000 0.000000 0.000000 0.022909
#
#
# Mechanical properties :
#
#
# Convention : Reuss Voigt Hill
#
# Bulk Modulus (GPa) = 59.49642 73.81525 66.65583
# Shear Modulus (GPa) = 38.94513 41.55885 40.25199
#
# Velocity S-wave (km/s) = 3.82514 3.95141 3.88879
# Velocity P-wave (km/s) = 6.47006 6.96782 6.72355
#
# Compressibility (1/GPa) = 0.01680773
#
# Stress axis : x y z
#
# Youngs Moduli (GPa) = 99.99308 156.31106 75.35990
#
# Poissons Ratio (x) = 0.38474 0.04719
# Poissons Ratio (y) = 0.24612 0.25189
# Poissons Ratio (z) = 0.06262 0.52247
#
# Static dielectric constant tensor:
#      x y z
#    x 2.193240 0.000000 0.000000 
#    y 0.000000 2.139080 0.000000 
#    z 0.000000 0.000000 2.209920 
# 
# From -- ./inp_files/1846.got.cif
#   From: 2010.05.17/outbox.cif.g08.bks.cpg/sg52_1_cif.got.tgz:1846.got - 2010.06.03 12:15:38.
