data_PCOD9413233
_publ_section_title
;
Structure prediction by ZEFSAII (Michael W. Deem and Ramdas Pophale) SiO2 
 PCOD9413233
Probable space group: P N N A
;
_chemical_formula_sum "Si O2"
_cell_formula_units_Z 64
_cell_length_a 9.755201
_cell_length_b 29.530378
_cell_length_c 11.646442
_cell_angle_alpha 90.000000
_cell_angle_beta 90.000000
_cell_angle_gamma 90.000000
_cell_volume 3355.046135
_symmetry_space_group_name_H-M "P N N A"
_symmetry_group_IT_number 52
_symmetry_cell_setting 'orthorhombic'
loop_
_space_group_symop_operation_xyz
x,y,z
1/2-x,-y,z
x,1/2-y,1/2-z
1/2-x,1/2+y,1/2-z
-x,-y,-z
1/2+x,y,-z
-x,1/2+y,1/2+z
1/2+x,1/2-y,1/2+z
loop_
_atom_site_type_symbol
_atom_site_label
_atom_site_fract_x
_atom_site_fract_y
_atom_site_fract_z
Si Si1 0.875282 0.708245 0.827558
Si Si2 0.804609 0.323339 0.467633
Si Si3 0.447317 0.760010 0.949836
Si Si4 0.485734 0.094676 0.531023
Si Si5 0.551353 0.169952 0.342542
Si Si6 0.238991 0.552847 0.131371
Si Si7 0.138958 0.653115 0.775700
Si Si8 0.807900 0.365672 0.712586
O O1 0.829735 0.750000 0.750000
O O2 0.780317 0.665701 0.799746
O O3 0.028817 0.693028 0.794829
O O4 0.878823 0.727677 0.954069
O O5 0.672458 0.295554 0.423286
O O6 0.853706 0.353733 0.361012
O O7 0.771674 0.351369 0.583236
O O8 0.923742 0.287559 0.501058
O O9 0.489830 0.722287 0.857997
O O10 0.513917 0.139477 0.453822
O O11 0.387694 0.063833 0.453316
O O12 0.625579 0.070329 0.565728
O O13 0.413094 0.111505 0.647534
O O14 0.712443 0.166610 0.321642
O O15 0.464338 0.147999 0.239345
O O16 0.250000 0.500000 0.156224
O O17 0.219236 0.583557 0.245273
#
# Coordination Sequence:
#
# PCOD9413233 Si02
#       8
#     8   8   8   8   8   8   8   8
#     4  12  21  38  59  84 124 170 210 247 297 356
#     4  12  25  37  54  84 122 173 210 245 283 357
#     4  12  23  34  56  86 120 168 216 249 288 342
#     4  11  22  41  65  96 123 152 190 258 317 367
#     4  11  24  37  59  87 124 160 205 255 297 346
#     4  11  23  43  72  97 118 150 198 255 321 377
#     4  12  23  39  58  85 125 166 203 246 306 357
#     4  11  24  41  60  87 125 162 204 255 302 355
#
# _framework density 19.075742999999999
#
# number of rings (size 3 to 8) (size 9 to 14) (size 15 to 20)
#    0.000    0.500    6.250    2.625    1.750    1.000 
#    0.000    0.000    0.000    1.500    0.000    0.000 
#    0.000    0.000    0.000    0.000    0.000    0.000 
#
# Total GULP energy -357852.113444 kJ/mol
# GULP energy per Si atom -5591.439273 kJ/mol
# Density = 1.903233 g / cm^3
# Si number density = 19.075743 Si / 1000 Ang^3
#
#
#
# Elastic Constant Matrix: (Units=GPa)
#
#
# Indices 1 2 3 4 5 6 
#
# 1 94.5047 12.2979 0.7850 0.0000 0.0000 0.0000
# 2 12.2979 89.0414 42.2769 0.0000 0.0000 0.0000
# 3 0.7850 42.2769 80.2593 0.0000 0.0000 0.0000
# 4 0.0000 0.0000 0.0000 8.2303 0.0000 0.0000
# 5 0.0000 0.0000 0.0000 0.0000 15.6311 0.0000
# 6 0.0000 0.0000 0.0000 0.0000 0.0000 12.7825
#
#
#
# Elastic Compliance Matrix: (Units=1/GPa)
#
#
# Indices 1 2 3 4 5 6 
#
# 1 0.010825 -0.001927 0.000909 0.000000 0.000000 0.000000
# 2 -0.001927 0.015319 -0.008051 0.000000 0.000000 0.000000
# 3 0.000909 -0.008051 0.016691 0.000000 0.000000 0.000000
# 4 0.000000 0.000000 0.000000 0.121502 0.000000 0.000000
# 5 0.000000 0.000000 0.000000 0.000000 0.063975 0.000000
# 6 0.000000 0.000000 0.000000 0.000000 0.000000 0.078232
#
#
# Mechanical properties :
#
#
# Convention : Reuss Voigt Hill
#
# Bulk Modulus (GPa) = 40.48781 41.61387 41.05084
# Shear Modulus (GPa) = 15.01889 21.22515 18.12202
#
# Velocity S-wave (km/s) = 2.80898 3.33930 3.08556
# Velocity P-wave (km/s) = 5.63838 6.06056 5.85328
#
# Compressibility (1/GPa) = 0.02469879
#
# Stress axis : x y z
#
# Youngs Moduli (GPa) = 92.38179 65.27721 59.91097
#
# Poissons Ratio (x) = 0.12576 -0.05446
# Poissons Ratio (y) = 0.17799 0.48232
# Poissons Ratio (z) = -0.08397 0.52552
#
# Static dielectric constant tensor:
#      x y z
#    x 1.690620 0.000000 0.000000 
#    y 0.000000 1.642270 0.000000 
#    z 0.000000 0.000000 1.740810 
# 
# From -- ./inp_files/17228.got.cif
#   From: 2010.05.17/outbox.cif.g08.bks.cpg/sg52_9_cif.got.tgz:17228.got - 2010.06.03 12:15:38.
