data_PCOD9413576
_publ_section_title
;
Structure prediction by ZEFSAII (Michael W. Deem and Ramdas Pophale) SiO2 
 PCOD9413576
Probable space group: P N N A
;
_chemical_formula_sum "Si O2"
_cell_formula_units_Z 56
_cell_length_a 29.302270
_cell_length_b 13.890949
_cell_length_c 5.669335
_cell_angle_alpha 90.000000
_cell_angle_beta 90.000000
_cell_angle_gamma 90.000000
_cell_volume 2307.625358
_symmetry_space_group_name_H-M "P N N A"
_symmetry_group_IT_number 52
_symmetry_cell_setting 'orthorhombic'
loop_
_space_group_symop_operation_xyz
x,y,z
1/2-x,-y,z
x,1/2-y,1/2-z
1/2-x,1/2+y,1/2-z
-x,-y,-z
1/2+x,y,-z
-x,1/2+y,1/2+z
1/2+x,1/2-y,1/2+z
loop_
_atom_site_type_symbol
_atom_site_label
_atom_site_fract_x
_atom_site_fract_y
_atom_site_fract_z
Si Si1 0.253366 0.857066 0.690773
Si Si2 0.925237 0.497295 0.439413
Si Si3 0.284299 0.412507 0.300888
Si Si4 0.964901 0.147425 0.392624
Si Si5 0.856252 0.634970 0.185757
Si Si6 0.619972 0.857266 0.745201
Si Si7 0.062262 0.358129 0.154312
O O1 0.265986 0.750000 0.750000
O O2 0.232239 0.852574 0.429455
O O3 0.304117 0.903564 0.676922
O O4 0.222470 0.885371 0.919947
O O5 0.958490 0.454224 0.243897
O O6 0.884431 0.567057 0.360454
O O7 0.904311 0.395793 0.523488
O O8 0.946217 0.560496 0.648938
O O9 0.250000 0.500000 0.281043
O O10 0.336821 0.427276 0.231535
O O11 0.964541 0.250000 0.250000
O O12 0.920662 0.146857 0.558589
O O13 0.016023 0.144822 0.503904
O O14 0.859092 0.750000 0.250000
O O15 0.888439 0.622886 0.957917
O O16 0.639971 0.750000 0.750000
O O17 0.065494 0.250000 0.250000
#
# Coordination Sequence:
#
# PCOD9413576 Si02
#       7
#     8   8   8   8   8   8   8
#     4  11  26  47  74 106 147 193 248 312 385 461
#     4  12  25  45  74 105 146 201 248 319 384 458
#     4  12  28  48  77 113 149 199 257 327 391 467
#     4  11  26  47  73 110 152 201 261 317 382 468
#     4  11  25  44  74 107 146 192 249 314 388 463
#     4  12  27  47  75 106 152 203 259 317 386 465
#     4  11  25  46  75 110 150 200 256 321 393 467
#
# _framework density 24.26737
#
# number of rings (size 3 to 8) (size 9 to 14) (size 15 to 20)
#    0.000    0.571    2.857    3.857    8.000    4.571 
#    0.000    0.000    0.000    0.000    0.000    0.000 
#    0.000    0.000    0.000    0.000    0.000    0.000 
#
# Total GULP energy -311926.103403 kJ/mol
# GULP energy per Si atom -5570.108989 kJ/mol
# Density = 2.421214 g / cm^3
# Si number density = 24.267370 Si / 1000 Ang^3
#
#
#
# Elastic Constant Matrix: (Units=GPa)
#
#
# Indices 1 2 3 4 5 6 
#
# 1 118.7528 -10.8733 44.3858 0.0000 0.0000 0.0000
# 2 -10.8733 99.9423 23.7153 0.0000 0.0000 0.0000
# 3 44.3858 23.7153 87.2081 0.0000 0.0000 0.0000
# 4 0.0000 0.0000 0.0000 41.0132 0.0000 0.0000
# 5 0.0000 0.0000 0.0000 0.0000 26.4357 0.0000
# 6 0.0000 0.0000 0.0000 0.0000 0.0000 -153.0482
#
#
#
# Elastic Compliance Matrix: (Units=1/GPa)
#
#
# Indices 1 2 3 4 5 6 
#
# 1 0.011046 0.002711 -0.006359 0.000000 0.000000 0.000000
# 2 0.002711 0.011361 -0.004469 0.000000 0.000000 0.000000
# 3 -0.006359 -0.004469 0.015919 0.000000 0.000000 0.000000
# 4 0.000000 0.000000 0.000000 0.024382 0.000000 0.000000
# 5 0.000000 0.000000 0.000000 0.000000 0.037828 0.000000
# 6 0.000000 0.000000 0.000000 0.000000 0.000000 -0.006534
#
#
# Mechanical properties :
#
#
# Convention : Reuss Voigt Hill
#
# Bulk Modulus (GPa) = 45.26817 46.70654 45.98736
# Shear Modulus (GPa) = 42.51674 -0.54151 20.98761
#
# Velocity S-wave (km/s) = 4.19025 -0.47289 2.94402
# Velocity P-wave (km/s) = 6.48886 4.35778 5.52700
#
# Compressibility (1/GPa) = 0.02209058
#
# Stress axis : x y z
#
# Youngs Moduli (GPa) = 90.53154 88.01903 62.81909
#
# Poissons Ratio (x) = -0.23859 0.39947
# Poissons Ratio (y) = -0.24540 0.28075
# Poissons Ratio (z) = 0.57570 0.39337
#
# Static dielectric constant tensor:
#      x y z
#    x 2.025660 0.000000 0.000000 
#    y 0.000000 1.990550 0.000000 
#    z 0.000000 0.000000 2.309130 
# 
# From -- ./inp_files/6409.got.cif
#   From: 2010.05.17/outbox.cif.g08.bks.cpg/sg52_4_cif.got.tgz:6409.got - 2010.06.03 12:15:38.
