data_PCOD9413568
_publ_section_title
;
Structure prediction by ZEFSAII (Michael W. Deem and Ramdas Pophale) SiO2 
 PCOD9413568
Probable space group: P N N A
;
_chemical_formula_sum "Si O2"
_cell_formula_units_Z 32
_cell_length_a 18.394507
_cell_length_b 10.216833
_cell_length_c 8.783092
_cell_angle_alpha 90.000000
_cell_angle_beta 90.000000
_cell_angle_gamma 90.000000
_cell_volume 1650.638153
_symmetry_space_group_name_H-M "P N N A"
_symmetry_group_IT_number 52
_symmetry_cell_setting 'orthorhombic'
loop_
_space_group_symop_operation_xyz
x,y,z
1/2-x,-y,z
x,1/2-y,1/2-z
1/2-x,1/2+y,1/2-z
-x,-y,-z
1/2+x,y,-z
-x,1/2+y,1/2+z
1/2+x,1/2-y,1/2+z
loop_
_atom_site_type_symbol
_atom_site_label
_atom_site_fract_x
_atom_site_fract_y
_atom_site_fract_z
Si Si1 0.680720 0.096547 0.245638
Si Si2 0.410879 0.250000 0.250000
Si Si3 0.903230 0.750000 0.750000
Si Si4 0.664272 0.496945 0.598140
Si Si5 0.035992 0.367193 0.952489
O O1 0.706669 0.250000 0.250000
O O2 0.610219 0.104165 0.357257
O O3 0.750000 0.000000 0.283623
O O4 0.650907 0.046185 0.079670
O O5 0.366704 0.366278 0.335159
O O6 0.468790 0.302618 0.131018
O O7 0.860042 0.619302 0.709081
O O8 0.946818 0.781095 0.598772
O O9 0.750000 0.500000 0.605063
O O10 0.000000 0.500000 0.000000
#
# Coordination Sequence:
#
# PCOD9413568 Si02
#       5
#     8   4   4   8   8
#     4  11  25  48  71 100 143 189 239 295 363 431
#     4  12  25  46  70 101 148 178 236 296 353 424
#     4  12  23  44  68  97 140 178 238 290 349 422
#     4  11  25  44  69 101 139 188 231 292 356 422
#     4  12  26  43  70 106 135 188 232 296 355 421
#
# _framework density 19.386441000000001
#
# number of rings (size 3 to 8) (size 9 to 14) (size 15 to 20)
#    0.000    0.500    6.250    0.750    3.500    7.000 
#    0.000    0.000    0.000    0.000    0.000    0.000 
#    0.000    0.000    0.000    0.000    0.000    0.000 
#
# Total GULP energy -178191.773334 kJ/mol
# GULP energy per Si atom -5568.492917 kJ/mol
# Density = 1.934232 g / cm^3
# Si number density = 19.386441 Si / 1000 Ang^3
#
#
#
# Elastic Constant Matrix: (Units=GPa)
#
#
# Indices 1 2 3 4 5 6 
#
# 1 130.3069 72.4442 73.8235 0.0000 0.0000 0.0000
# 2 72.4442 168.2345 71.7958 0.0000 0.0000 0.0000
# 3 73.8235 71.7958 132.1300 0.0000 0.0000 0.0000
# 4 0.0000 0.0000 0.0000 44.1225 0.0000 0.0000
# 5 0.0000 0.0000 0.0000 0.0000 486.8429 0.0000
# 6 0.0000 0.0000 0.0000 0.0000 0.0000 37.3316
#
#
#
# Elastic Compliance Matrix: (Units=1/GPa)
#
#
# Indices 1 2 3 4 5 6 
#
# 1 0.012350 -0.003090 -0.005221 0.000000 0.000000 0.000000
# 2 -0.003090 0.008512 -0.002899 0.000000 0.000000 0.000000
# 3 -0.005221 -0.002899 0.012061 0.000000 0.000000 0.000000
# 4 0.000000 0.000000 0.000000 0.022664 0.000000 0.000000
# 5 0.000000 0.000000 0.000000 0.000000 0.002054 0.000000
# 6 0.000000 0.000000 0.000000 0.000000 0.000000 0.026787
#
#
# Mechanical properties :
#
#
# Convention : Reuss Voigt Hill
#
# Bulk Modulus (GPa) = 95.21329 96.31094 95.76211
# Shear Modulus (GPa) = 45.31128 127.83325 86.57227
#
# Velocity S-wave (km/s) = 4.83977 8.12912 6.68977
# Velocity P-wave (km/s) = 8.96946 11.74298 10.44865
#
# Compressibility (1/GPa) = 0.01050274
#
# Stress axis : x y z
#
# Youngs Moduli (GPa) = 80.97141 117.48603 82.91509
#
# Poissons Ratio (x) = 0.36302 0.43292
# Poissons Ratio (y) = 0.25019 0.24034
# Poissons Ratio (z) = 0.42277 0.34055
#
# Static dielectric constant tensor:
#      x y z
#    x 1.714680 0.000000 0.000000 
#    y 0.000000 1.674050 0.000000 
#    z 0.000000 0.000000 1.787360 
# 
# From -- ./inp_files/9627.got.cif
#   From: 2010.05.17/outbox.cif.g08.bks.cpg/sg52_5_cif.got.tgz:9627.got - 2010.06.03 12:15:38.
