data_PCOD9413236
_publ_section_title
;
Structure prediction by ZEFSAII (Michael W. Deem and Ramdas Pophale) SiO2 
 PCOD9413236
Probable space group: P N N A
;
_chemical_formula_sum "Si O2"
_cell_formula_units_Z 56
_cell_length_a 28.721730
_cell_length_b 16.074805
_cell_length_c 5.477527
_cell_angle_alpha 90.000000
_cell_angle_beta 90.000000
_cell_angle_gamma 90.000000
_cell_volume 2528.953451
_symmetry_space_group_name_H-M "P N N A"
_symmetry_group_IT_number 52
_symmetry_cell_setting 'orthorhombic'
loop_
_space_group_symop_operation_xyz
x,y,z
1/2-x,-y,z
x,1/2-y,1/2-z
1/2-x,1/2+y,1/2-z
-x,-y,-z
1/2+x,y,-z
-x,1/2+y,1/2+z
1/2+x,1/2-y,1/2+z
loop_
_atom_site_type_symbol
_atom_site_label
_atom_site_fract_x
_atom_site_fract_y
_atom_site_fract_z
Si Si1 0.418792 0.605752 0.875055
Si Si2 0.613273 0.710140 0.996531
Si Si3 0.185511 0.343481 0.817832
Si Si4 0.546135 0.541597 0.404395
Si Si5 0.888047 0.461119 0.797495
Si Si6 0.204504 0.443375 0.318373
Si Si7 0.008193 0.815892 0.562330
O O1 0.371033 0.654867 0.847193
O O2 0.422001 0.535888 0.669746
O O3 0.414684 0.543695 0.107708
O O4 0.466838 0.656824 0.883294
O O5 0.633936 0.750000 0.750000
O O6 0.621858 0.610695 0.995509
O O7 0.629851 0.750000 0.250000
O O8 0.557197 0.723779 0.987382
O O9 0.200340 0.250000 0.750000
O O10 0.199664 0.397222 0.579469
O O11 0.202815 0.382647 0.077292
O O12 0.500000 0.500000 0.500000
O O13 0.577410 0.584759 0.608809
O O14 0.527335 0.601669 0.195922
O O15 0.839653 0.495192 0.702060
O O16 0.250000 0.500000 0.309901
O O17 0.986071 0.750000 0.750000
#
# Coordination Sequence:
#
# PCOD9413236 Si02
#       7
#     8   8   8   8   8   8   8
#     4  11  23  38  61  93 129 181 230 281 339 419
#     4  11  24  40  59  89 129 174 223 281 336 391
#     4  11  25  46  75 108 147 178 229 299 367 416
#     4  12  21  37  63  90 130 182 231 284 327 412
#     4  11  22  41  66  90 128 177 233 281 347 418
#     4  11  25  48  76 106 138 185 234 289 361 441
#     4  11  23  38  57  91 134 184 234 285 339 401
#
# _framework density 22.143545
#
# number of rings (size 3 to 8) (size 9 to 14) (size 15 to 20)
#    0.000    0.857    4.286    3.857    0.000    4.000 
#    0.000    2.143    0.000    0.857    0.000    0.000 
#    0.000    0.000    0.000    0.000    0.000    0.000 
#
# Total GULP energy -312612.524507 kJ/mol
# GULP energy per Si atom -5582.366509 kJ/mol
# Density = 2.209315 g / cm^3
# Si number density = 22.143545 Si / 1000 Ang^3
#
#
#
# Elastic Constant Matrix: (Units=GPa)
#
#
# Indices 1 2 3 4 5 6 
#
# 1 71.1942 18.6697 18.6017 0.0000 0.0000 0.0000
# 2 18.6697 95.1659 35.3425 0.0000 0.0000 0.0000
# 3 18.6017 35.3425 123.7937 0.0000 0.0000 0.0000
# 4 0.0000 0.0000 0.0000 46.4070 0.0000 0.0000
# 5 0.0000 0.0000 0.0000 0.0000 21.5612 0.0000
# 6 0.0000 0.0000 0.0000 0.0000 0.0000 12.5888
#
#
#
# Elastic Compliance Matrix: (Units=1/GPa)
#
#
# Indices 1 2 3 4 5 6 
#
# 1 0.015083 -0.002368 -0.001590 0.000000 0.000000 0.000000
# 2 -0.002368 0.012126 -0.003106 0.000000 0.000000 0.000000
# 3 -0.001590 -0.003106 0.009204 0.000000 0.000000 0.000000
# 4 0.000000 0.000000 0.000000 0.021548 0.000000 0.000000
# 5 0.000000 0.000000 0.000000 0.000000 0.046380 0.000000
# 6 0.000000 0.000000 0.000000 0.000000 0.000000 0.079436
#
#
# Mechanical properties :
#
#
# Convention : Reuss Voigt Hill
#
# Bulk Modulus (GPa) = 44.87694 48.37573 46.62634
# Shear Modulus (GPa) = 24.35066 30.61406 27.48236
#
# Velocity S-wave (km/s) = 3.31973 3.72227 3.52675
# Velocity P-wave (km/s) = 5.91646 6.35355 6.13890
#
# Compressibility (1/GPa) = 0.02228316
#
# Stress axis : x y z
#
# Youngs Moduli (GPa) = 66.30137 82.46667 108.65217
#
# Poissons Ratio (x) = 0.19531 0.17278
# Poissons Ratio (y) = 0.15702 0.33748
# Poissons Ratio (z) = 0.10543 0.25615
#
# Static dielectric constant tensor:
#      x y z
#    x 1.752450 0.000000 0.000000 
#    y 0.000000 1.799130 0.000000 
#    z 0.000000 0.000000 2.164060 
# 
# From -- ./inp_files/6419.got.cif
#   From: 2010.05.17/outbox.cif.g08.bks.cpg/sg52_4_cif.got.tgz:6419.got - 2010.06.03 12:15:38.
