data_PCOD9413654
_publ_section_title
;
Structure prediction by ZEFSAII (Michael W. Deem and Ramdas Pophale) SiO2 
 PCOD9413654
Probable space group: P N N A
;
_chemical_formula_sum "Si O2"
_cell_formula_units_Z 24
_cell_length_a 12.785114
_cell_length_b 15.305868
_cell_length_c 4.801030
_cell_angle_alpha 90.000000
_cell_angle_beta 90.000000
_cell_angle_gamma 90.000000
_cell_volume 939.500441
_symmetry_space_group_name_H-M "P N N A"
_symmetry_group_IT_number 52
_symmetry_cell_setting 'orthorhombic'
loop_
_space_group_symop_operation_xyz
x,y,z
1/2-x,-y,z
x,1/2-y,1/2-z
1/2-x,1/2+y,1/2-z
-x,-y,-z
1/2+x,y,-z
-x,1/2+y,1/2+z
1/2+x,1/2-y,1/2+z
loop_
_atom_site_type_symbol
_atom_site_label
_atom_site_fract_x
_atom_site_fract_y
_atom_site_fract_z
Si Si1 0.236925 0.334913 0.946538
Si Si2 0.149288 0.587125 0.465882
Si Si3 0.947136 0.572687 0.800078
O O1 0.245164 0.250000 0.750000
O O2 0.118851 0.354060 0.042372
O O3 0.309050 0.349374 0.220960
O O4 0.278950 0.093376 0.765229
O O5 0.033454 0.609692 0.588456
O O6 0.135408 0.488852 0.357341
O O7 0.000000 0.500000 0.000000
#
# Coordination Sequence:
#
# PCOD9413654 Si02
#       3
#     8   8   8
#     4  12  28  50  78 121 170 211 273 351 427 485
#     4  11  26  48  79 118 160 213 277 340 409 503
#     4  11  26  47  84 118 157 219 282 334 406 512
#
# _framework density 25.545489
#
# number of rings (size 3 to 8) (size 9 to 14) (size 15 to 20)
#    0.000    0.667    3.333    2.000   14.000    0.000 
#    6.000    0.000    0.000    0.000    0.000    2.333 
#    0.000    0.000    0.000    0.000    0.000    0.000 
#
# Total GULP energy -134344.390731 kJ/mol
# GULP energy per Si atom -5597.682947 kJ/mol
# Density = 2.548735 g / cm^3
# Si number density = 25.545489 Si / 1000 Ang^3
#
#
#
# Elastic Constant Matrix: (Units=GPa)
#
#
# Indices 1 2 3 4 5 6 
#
# 1 137.7332 59.6492 90.7964 0.0000 0.0000 0.0000
# 2 59.6492 98.2832 62.0131 0.0000 0.0000 0.0000
# 3 90.7964 62.0131 213.1934 0.0000 0.0000 0.0000
# 4 0.0000 0.0000 0.0000 51.5231 0.0000 0.0000
# 5 0.0000 0.0000 0.0000 0.0000 82.5256 0.0000
# 6 0.0000 0.0000 0.0000 0.0000 0.0000 15.9028
#
#
#
# Elastic Compliance Matrix: (Units=1/GPa)
#
#
# Indices 1 2 3 4 5 6 
#
# 1 0.011724 -0.004856 -0.003580 0.000000 0.000000 0.000000
# 2 -0.004856 0.014473 -0.002142 0.000000 0.000000 0.000000
# 3 -0.003580 -0.002142 0.006838 0.000000 0.000000 0.000000
# 4 0.000000 0.000000 0.000000 0.019409 0.000000 0.000000
# 5 0.000000 0.000000 0.000000 0.000000 0.012117 0.000000
# 6 0.000000 0.000000 0.000000 0.000000 0.000000 0.062882
#
#
# Mechanical properties :
#
#
# Convention : Reuss Voigt Hill
#
# Bulk Modulus (GPa) = 84.18396 97.12523 90.65460
# Shear Modulus (GPa) = 32.77389 45.77370 39.27379
#
# Velocity S-wave (km/s) = 3.58573 4.23762 3.92523
# Velocity P-wave (km/s) = 7.08303 7.87694 7.49051
#
# Compressibility (1/GPa) = 0.01187875
#
# Stress axis : x y z
#
# Youngs Moduli (GPa) = 85.29625 69.09264 146.23184
#
# Poissons Ratio (x) = 0.33553 0.52358
# Poissons Ratio (y) = 0.41421 0.31320
# Poissons Ratio (z) = 0.30540 0.14798
#
# Static dielectric constant tensor:
#      x y z
#    x 2.180740 0.000000 0.000000 
#    y 0.000000 2.063240 0.000000 
#    z 0.000000 0.000000 2.057690 
# 
# From -- ./inp_files/1693.got.cif
#   From: 2010.05.17/outbox.cif.g08.bks.cpg/sg52_1_cif.got.tgz:1693.got - 2010.06.03 12:15:38.
