data_PCOD9413311
_publ_section_title
;
Structure prediction by ZEFSAII (Michael W. Deem and Ramdas Pophale) SiO2 
 PCOD9413311
Probable space group: P N N A
;
_chemical_formula_sum "Si O2"
_cell_formula_units_Z 52
_cell_length_a 19.540506
_cell_length_b 20.512574
_cell_length_c 5.361077
_cell_angle_alpha 90.000000
_cell_angle_beta 90.000000
_cell_angle_gamma 90.000000
_cell_volume 2148.859453
_symmetry_space_group_name_H-M "P N N A"
_symmetry_group_IT_number 52
_symmetry_cell_setting 'orthorhombic'
loop_
_space_group_symop_operation_xyz
x,y,z
1/2-x,-y,z
x,1/2-y,1/2-z
1/2-x,1/2+y,1/2-z
-x,-y,-z
1/2+x,y,-z
-x,1/2+y,1/2+z
1/2+x,1/2-y,1/2+z
loop_
_atom_site_type_symbol
_atom_site_label
_atom_site_fract_x
_atom_site_fract_y
_atom_site_fract_z
Si Si1 0.977778 0.893069 0.224967
Si Si2 0.330674 0.357127 0.825784
Si Si3 0.750000 0.500000 0.580422
Si Si4 0.580294 0.173618 0.727497
Si Si5 0.794398 0.601720 0.933154
Si Si6 0.378984 0.498314 0.781669
Si Si7 0.891589 0.183149 0.820591
O O1 0.957599 0.858145 0.487036
O O2 0.951169 0.967428 0.229495
O O3 0.056717 0.877501 0.180775
O O4 0.939815 0.860326 0.987838
O O5 0.377229 0.422294 0.836868
O O6 0.354603 0.317920 0.585707
O O7 0.251256 0.378084 0.830401
O O8 0.340727 0.321699 0.088227
O O9 0.744359 0.565427 0.743229
O O10 0.679601 0.494324 0.428787
O O11 0.565235 0.250000 0.750000
O O12 0.660326 0.159331 0.674953
O O13 0.846648 0.543503 0.002321
O O14 0.931363 0.250000 0.750000
#
# Coordination Sequence:
#
# PCOD9413311 Si02
#       7
#     8   8   4   8   8   8   8
#     4  11  25  45  71  99 133 179 237 288 343 401
#     4  12  25  43  72 100 138 183 229 283 347 423
#     4  12  16  40  66  98 148 168 214 266 370 432
#     4  11  23  41  69 101 131 174 231 290 344 403
#     4  11  23  38  68 102 137 177 216 281 361 419
#     4  11  23  39  71 105 133 175 218 293 356 413
#     4  12  28  48  67  93 138 196 238 279 334 403
#
# _framework density 24.198882000000001
#
# number of rings (size 3 to 8) (size 9 to 14) (size 15 to 20)
#    0.000    0.615    4.615    3.692    0.000    1.846 
#    0.000    4.615    0.000    0.000    0.000    0.000 
#    0.000    0.000    0.000    0.000    0.000    0.000 
#
# Total GULP energy -290850.422728 kJ/mol
# GULP energy per Si atom -5593.277360 kJ/mol
# Density = 2.414380 g / cm^3
# Si number density = 24.198882 Si / 1000 Ang^3
#
#
#
# Elastic Constant Matrix: (Units=GPa)
#
#
# Indices 1 2 3 4 5 6 
#
# 1 53.2590 -2.4255 30.3557 0.0000 0.0000 0.0000
# 2 -2.4255 55.0176 19.4621 0.0000 0.0000 0.0000
# 3 30.3557 19.4621 127.0109 0.0000 0.0000 0.0000
# 4 0.0000 0.0000 0.0000 32.0288 0.0000 0.0000
# 5 0.0000 0.0000 0.0000 0.0000 37.2561 0.0000
# 6 0.0000 0.0000 0.0000 0.0000 0.0000 27.8363
#
#
#
# Elastic Compliance Matrix: (Units=1/GPa)
#
#
# Indices 1 2 3 4 5 6 
#
# 1 0.022202 0.003020 -0.005769 0.000000 0.000000 0.000000
# 2 0.003020 0.019628 -0.003729 0.000000 0.000000 0.000000
# 3 -0.005769 -0.003729 0.009824 0.000000 0.000000 0.000000
# 4 0.000000 0.000000 0.000000 0.031222 0.000000 0.000000
# 5 0.000000 0.000000 0.000000 0.000000 0.026841 0.000000
# 6 0.000000 0.000000 0.000000 0.000000 0.000000 0.035924
#
#
# Mechanical properties :
#
#
# Convention : Reuss Voigt Hill
#
# Bulk Modulus (GPa) = 25.84236 36.67467 31.25852
# Shear Modulus (GPa) = 29.15495 31.95057 30.55276
#
# Velocity S-wave (km/s) = 3.47480 3.63758 3.55712
# Velocity P-wave (km/s) = 5.17700 5.72984 5.46042
#
# Compressibility (1/GPa) = 0.03869616
#
# Stress axis : x y z
#
# Youngs Moduli (GPa) = 45.04144 50.94670 101.79592
#
# Poissons Ratio (x) = -0.15383 0.58725
# Poissons Ratio (y) = -0.13600 0.37963
# Poissons Ratio (z) = 0.25984 0.19000
#
# Static dielectric constant tensor:
#      x y z
#    x 1.947910 0.000000 0.000000 
#    y 0.000000 1.984210 0.000000 
#    z 0.000000 0.000000 1.953960 
# 
# From -- ./inp_files/4457.got.cif
#   From: 2010.05.17/outbox.cif.g08.bks.cpg/sg52_3_cif.got.tgz:4457.got - 2010.06.03 12:15:38.
