data_PCOD9413985
_publ_section_title
;
Structure prediction by ZEFSAII (Michael W. Deem and Ramdas Pophale) SiO2 
 PCOD9413985
Probable space group: P N N A
;
_chemical_formula_sum "Si O2"
_cell_formula_units_Z 48
_cell_length_a 27.000000
_cell_length_b 15.000000
_cell_length_c 6.000000
_cell_angle_alpha 90.000000
_cell_angle_beta 90.000000
_cell_angle_gamma 90.000000
_cell_volume 2430.000000
_symmetry_space_group_name_H-M "P N N A"
_symmetry_group_IT_number 52
_symmetry_cell_setting 'orthorhombic'
loop_
_space_group_symop_operation_xyz
x,y,z
1/2-x,-y,z
x,1/2-y,1/2-z
1/2-x,1/2+y,1/2-z
-x,-y,-z
1/2+x,y,-z
-x,1/2+y,1/2+z
1/2+x,1/2-y,1/2+z
loop_
_atom_site_type_symbol
_atom_site_label
_atom_site_fract_x
_atom_site_fract_y
_atom_site_fract_z
Si Si1 0.282507 0.415816 0.978384
Si Si2 0.397326 0.836849 0.358892
Si Si3 0.460672 0.575436 0.538006
Si Si4 0.636159 0.465781 0.211037
Si Si5 0.795607 0.834491 0.130114
Si Si6 0.036610 0.250000 0.750000
Si Si7 0.769262 0.250000 0.750000
O O1 0.250000 0.500000 0.074932
O O2 0.296646 0.333679 0.137742
O O3 0.331385 0.449961 0.852442
O O4 0.244663 0.375108 0.798643
O O5 0.372071 0.750000 0.250000
O O6 0.362620 0.905401 0.487438
O O7 0.430853 0.791791 0.551122
O O8 0.431714 0.888774 0.181184
O O9 0.500000 0.500000 0.500000
O O10 0.419762 0.533331 0.705692
O O11 0.487345 0.662501 0.643963
O O12 0.664688 0.411036 0.403851
O O13 0.820579 0.750000 0.250000
O O14 0.765878 0.798610 0.924929
#
# Coordination Sequence:
#
# PCOD9413985 Si02
#       7
#     8   8   8   8   8   4   4
#     4   9  20  38  53  83 120 156 194 242 294 349
#     4   9  19  35  57  85 112 146 186 242 300 352
#     4  10  21  36  59  86 114 155 195 244 306 353
#     4  10  21  35  56  86 122 149 194 247 295 361
#     4   9  20  34  53  81 116 148 189 241 292 342
#     4   8  18  36  54  81 116 142 186 243 292 358
#     4  10  20  38  62  81 114 160 200 235 288 354
#
# _framework density 19.753086
#
# number of rings (size 3 to 8) (size 9 to 14) (size 15 to 20)
#    0.000    2.667    0.000    0.000    7.000   10.000 
#    6.000    0.000    0.000   24.000    0.000    0.000 
#    0.000    0.000    0.000    0.000    0.000    0.000 
#
# Total GULP energy -267315.288350 kJ/mol
# GULP energy per Si atom -5569.068507 kJ/mol
# Density = 1.970813 g / cm^3
# Si number density = 19.753086 Si / 1000 Ang^3
#
#
#
# Elastic Constant Matrix: (Units=GPa)
#
#
# Indices 1 2 3 4 5 6 
#
# 1 75.3690 66.2963 23.4540 0.0000 0.0000 0.0000
# 2 66.2963 143.5878 44.9594 0.0000 0.0000 0.0000
# 3 23.4540 44.9594 57.9588 0.0000 0.0000 0.0000
# 4 0.0000 0.0000 0.0000 35.5995 0.0000 0.0000
# 5 0.0000 0.0000 0.0000 0.0000 14.0218 0.0000
# 6 0.0000 0.0000 0.0000 0.0000 0.0000 22.0757
#
#
#
# Elastic Compliance Matrix: (Units=1/GPa)
#
#
# Indices 1 2 3 4 5 6 
#
# 1 0.022425 -0.009922 -0.001378 0.000000 0.000000 0.000000
# 2 -0.009922 0.013589 -0.006526 0.000000 0.000000 0.000000
# 3 -0.001378 -0.006526 0.022873 0.000000 0.000000 0.000000
# 4 0.000000 0.000000 0.000000 0.028090 0.000000 0.000000
# 5 0.000000 0.000000 0.000000 0.000000 0.071317 0.000000
# 6 0.000000 0.000000 0.000000 0.000000 0.000000 0.045299
#
#
# Mechanical properties :
#
#
# Convention : Reuss Voigt Hill
#
# Bulk Modulus (GPa) = 43.03805 60.70388 51.87096
# Shear Modulus (GPa) = 20.24369 23.81980 22.03175
#
# Velocity S-wave (km/s) = 3.20478 3.47634 3.34332
# Velocity P-wave (km/s) = 5.96066 6.84918 6.42031
#
# Compressibility (1/GPa) = 0.02323525
#
# Stress axis : x y z
#
# Youngs Moduli (GPa) = 44.59359 73.58861 43.71905
#
# Poissons Ratio (x) = 0.73018 0.06023
# Poissons Ratio (y) = 0.44248 0.28531
# Poissons Ratio (z) = 0.06143 0.48023
#
# Static dielectric constant tensor:
#      x y z
#    x 1.657230 0.000000 0.000000 
#    y 0.000000 1.704580 0.000000 
#    z 0.000000 0.000000 1.796250 
# 
# From -- ./inp_files/5852.got.cif
#   From: 2010.05.17/outbox.ucp.g08.bks.cvg/sg52_3_cif.got.tgz:5852.got - 2010.06.11 16:30:12.
