data_PCOD9413640
_publ_section_title
;
Structure prediction by ZEFSAII (Michael W. Deem and Ramdas Pophale) SiO2 
 PCOD9413640
Probable space group: P N N A
;
_chemical_formula_sum "Si O2"
_cell_formula_units_Z 48
_cell_length_a 11.348241
_cell_length_b 12.198516
_cell_length_c 16.151852
_cell_angle_alpha 90.000000
_cell_angle_beta 90.000000
_cell_angle_gamma 90.000000
_cell_volume 2235.928321
_symmetry_space_group_name_H-M "P N N A"
_symmetry_group_IT_number 52
_symmetry_cell_setting 'orthorhombic'
loop_
_space_group_symop_operation_xyz
x,y,z
1/2-x,-y,z
x,1/2-y,1/2-z
1/2-x,1/2+y,1/2-z
-x,-y,-z
1/2+x,y,-z
-x,1/2+y,1/2+z
1/2+x,1/2-y,1/2+z
loop_
_atom_site_type_symbol
_atom_site_label
_atom_site_fract_x
_atom_site_fract_y
_atom_site_fract_z
Si Si1 0.065886 0.972116 0.713574
Si Si2 0.666055 0.750000 0.750000
Si Si3 0.674242 0.106789 0.627127
Si Si4 0.786318 0.670824 0.177887
Si Si5 0.521771 0.590188 0.632428
Si Si6 0.659706 0.288467 0.483754
Si Si7 0.750000 0.500000 0.561964
O O1 0.120061 0.074283 0.663543
O O2 0.059953 0.018487 0.807025
O O3 0.162970 0.878288 0.707382
O O4 0.942795 0.935546 0.674228
O O5 0.746465 0.830370 0.695175
O O6 0.585018 0.681811 0.687901
O O7 0.643504 0.195748 0.554948
O O8 0.750000 0.000000 0.597666
O O9 0.830731 0.750000 0.250000
O O10 0.775217 0.732997 0.092803
O O11 0.454434 0.650038 0.556952
O O12 0.627216 0.508176 0.609333
O O13 0.741785 0.386405 0.514523
#
# Coordination Sequence:
#
# PCOD9413640 Si02
#       7
#     8   4   8   8   8   8   4
#     4  11  26  45  77 106 144 202 253 307 373 455
#     4  12  24  50  74 106 148 198 248 310 378 460
#     4  12  28  47  77 113 151 196 257 317 381 460
#     4  11  26  48  70 107 151 197 253 309 374 459
#     4  12  24  49  75 107 149 201 253 309 384 450
#     4  12  29  46  75 110 152 199 248 321 389 447
#     4  12  28  48  74 110 152 190 252 324 378 456
#
# _framework density 21.467594999999999
#
# number of rings (size 3 to 8) (size 9 to 14) (size 15 to 20)
#    0.000    0.333    5.000    2.500    8.167    0.667 
#    0.000    0.000    0.000    0.000    0.000    0.000 
#    0.000    0.000    0.000    0.000    0.000    0.000 
#
# Total GULP energy -268361.359973 kJ/mol
# GULP energy per Si atom -5590.861666 kJ/mol
# Density = 2.141873 g / cm^3
# Si number density = 21.467595 Si / 1000 Ang^3
#
#
#
# Elastic Constant Matrix: (Units=GPa)
#
#
# Indices 1 2 3 4 5 6 
#
# 1 88.0907 24.3616 11.5835 0.0000 0.0000 0.0000
# 2 24.3616 101.7284 31.8686 0.0000 0.0000 0.0000
# 3 11.5835 31.8686 65.1763 0.0000 0.0000 0.0000
# 4 0.0000 0.0000 0.0000 52.8414 0.0000 0.0000
# 5 0.0000 0.0000 0.0000 0.0000 -36.2462 0.0000
# 6 0.0000 0.0000 0.0000 0.0000 0.0000 3.8872
#
#
#
# Elastic Compliance Matrix: (Units=1/GPa)
#
#
# Indices 1 2 3 4 5 6 
#
# 1 0.012199 -0.002648 -0.000873 0.000000 0.000000 0.000000
# 2 -0.002648 0.012183 -0.005486 0.000000 0.000000 0.000000
# 3 -0.000873 -0.005486 0.018181 0.000000 0.000000 0.000000
# 4 0.000000 0.000000 0.000000 0.018925 0.000000 0.000000
# 5 0.000000 0.000000 0.000000 0.000000 -0.027589 0.000000
# 6 0.000000 0.000000 0.000000 0.000000 0.000000 0.257255
#
#
# Mechanical properties :
#
#
# Convention : Reuss Voigt Hill
#
# Bulk Modulus (GPa) = 40.73711 43.40253 42.06982
# Shear Modulus (GPa) = 15.75543 16.57525 16.16534
#
# Velocity S-wave (km/s) = 2.71203 2.78169 2.74708
# Velocity P-wave (km/s) = 5.36881 5.52980 5.44990
#
# Compressibility (1/GPa) = 0.02454764
#
# Stress axis : x y z
#
# Youngs Moduli (GPa) = 81.97369 82.08228 55.00291
#
# Poissons Ratio (x) = 0.21733 0.04804
# Poissons Ratio (y) = 0.21705 0.30177
# Poissons Ratio (z) = 0.07160 0.45033
#
# Static dielectric constant tensor:
#      x y z
#    x 1.784330 0.000000 0.000000 
#    y 0.000000 1.623280 0.000000 
#    z 0.000000 0.000000 1.790170 
# 
# From -- ./inp_files/32263.got.cif
#   From: 2010.05.17/outbox.cif.g08.bks.cpg/sg52_17_cif.got.tgz:32263.got - 2010.06.03 12:15:38.
