data_PCOD9413666
_publ_section_title
;
Structure prediction by ZEFSAII (Michael W. Deem and Ramdas Pophale) SiO2 
 PCOD9413666
Probable space group: P N N A
;
_chemical_formula_sum "Si O2"
_cell_formula_units_Z 20
_cell_length_a 5.043752
_cell_length_b 14.181395
_cell_length_c 11.933578
_cell_angle_alpha 90.000000
_cell_angle_beta 90.000000
_cell_angle_gamma 90.000000
_cell_volume 853.578277
_symmetry_space_group_name_H-M "P N N A"
_symmetry_group_IT_number 52
_symmetry_cell_setting 'orthorhombic'
loop_
_space_group_symop_operation_xyz
x,y,z
1/2-x,-y,z
x,1/2-y,1/2-z
1/2-x,1/2+y,1/2-z
-x,-y,-z
1/2+x,y,-z
-x,1/2+y,1/2+z
1/2+x,1/2-y,1/2+z
loop_
_atom_site_type_symbol
_atom_site_label
_atom_site_fract_x
_atom_site_fract_y
_atom_site_fract_z
Si Si1 0.876430 0.103986 0.208491
Si Si2 0.250000 0.000000 0.083019
Si Si3 0.727951 0.282097 0.071513
O O1 0.757675 0.175762 0.117304
O O2 0.826924 0.152062 0.327451
O O3 0.750000 0.000000 0.212189
O O4 0.178526 0.085942 0.167133
O O5 0.500000 0.000000 0.000000
O O6 0.429626 0.297561 0.031175
#
# Coordination Sequence:
#
# PCOD9413666 Si02
#       3
#     8   4   8
#     4  11  27  46  75 107 142 187 246 292 352 429
#     4  12  24  40  70 102 130 174 234 290 340 404
#     4  11  28  47  70 105 150 188 232 297 362 421
#
# _framework density 23.430772999999999
#
# number of rings (size 3 to 8) (size 9 to 14) (size 15 to 20)
#    0.000    0.800    2.000    2.400   11.200    4.800 
#    0.000    0.000    0.000    0.000    0.000    0.000 
#    0.000    0.000    0.000    0.000    0.000    0.000 
#
# Total GULP energy -111855.703297 kJ/mol
# GULP energy per Si atom -5592.785165 kJ/mol
# Density = 2.337744 g / cm^3
# Si number density = 23.430773 Si / 1000 Ang^3
#
#
#
# Elastic Constant Matrix: (Units=GPa)
#
#
# Indices 1 2 3 4 5 6 
#
# 1 110.8017 36.9035 18.4337 0.0000 0.0000 0.0000
# 2 36.9035 135.3105 53.1644 0.0000 0.0000 0.0000
# 3 18.4337 53.1644 103.7771 0.0000 0.0000 0.0000
# 4 0.0000 0.0000 0.0000 41.9048 0.0000 0.0000
# 5 0.0000 0.0000 0.0000 0.0000 36.1525 0.0000
# 6 0.0000 0.0000 0.0000 0.0000 0.0000 39.4064
#
#
#
# Elastic Compliance Matrix: (Units=1/GPa)
#
#
# Indices 1 2 3 4 5 6 
#
# 1 0.009945 -0.002527 -0.000472 0.000000 0.000000 0.000000
# 2 -0.002527 0.009895 -0.004620 0.000000 0.000000 0.000000
# 3 -0.000472 -0.004620 0.012087 0.000000 0.000000 0.000000
# 4 0.000000 0.000000 0.000000 0.023864 0.000000 0.000000
# 5 0.000000 0.000000 0.000000 0.000000 0.027661 0.000000
# 6 0.000000 0.000000 0.000000 0.000000 0.000000 0.025377
#
#
# Mechanical properties :
#
#
# Convention : Reuss Voigt Hill
#
# Bulk Modulus (GPa) = 59.92124 62.98807 61.45466
# Shear Modulus (GPa) = 38.57161 39.58527 39.07844
#
# Velocity S-wave (km/s) = 4.06173 4.11476 4.08833
# Velocity P-wave (km/s) = 6.90117 7.03676 6.96929
#
# Compressibility (1/GPa) = 0.01668857
#
# Stress axis : x y z
#
# Youngs Moduli (GPa) = 100.55024 101.06200 82.73484
#
# Poissons Ratio (x) = 0.25538 0.03905
# Poissons Ratio (y) = 0.25408 0.38226
# Poissons Ratio (z) = 0.04746 0.46693
#
# Static dielectric constant tensor:
#      x y z
#    x 1.989380 0.000000 0.000000 
#    y 0.000000 1.890950 0.000000 
#    z 0.000000 0.000000 1.903560 
# 
# From -- ./inp_files/15840.got.cif
#   From: 2010.05.17/outbox.cif.g08.bks.cpg/sg52_8_cif.got.tgz:15840.got - 2010.06.03 12:15:38.
