data_PCOD9413526
_publ_section_title
;
Structure prediction by ZEFSAII (Michael W. Deem and Ramdas Pophale) SiO2 
 PCOD9413526
Probable space group: P N N A
;
_chemical_formula_sum "Si O2"
_cell_formula_units_Z 20
_cell_length_a 4.941709
_cell_length_b 5.364065
_cell_length_c 30.829358
_cell_angle_alpha 90.000000
_cell_angle_beta 90.000000
_cell_angle_gamma 90.000000
_cell_volume 817.213779
_symmetry_space_group_name_H-M "P N N A"
_symmetry_group_IT_number 52
_symmetry_cell_setting 'orthorhombic'
loop_
_space_group_symop_operation_xyz
x,y,z
1/2-x,-y,z
x,1/2-y,1/2-z
1/2-x,1/2+y,1/2-z
-x,-y,-z
1/2+x,y,-z
-x,1/2+y,1/2+z
1/2+x,1/2-y,1/2+z
loop_
_atom_site_type_symbol
_atom_site_label
_atom_site_fract_x
_atom_site_fract_y
_atom_site_fract_z
Si Si1 0.015330 0.329748 0.890288
Si Si2 0.250000 0.000000 0.967110
Si Si3 0.750000 0.000000 0.176433
Si Si4 0.072288 0.250000 0.250000
O O1 0.250000 0.500000 0.871820
O O2 0.750000 0.500000 0.896988
O O3 0.147788 0.216262 0.934187
O O4 0.017990 0.109361 0.855238
O O5 0.500000 0.000000 0.000000
O O6 0.885287 0.198087 0.208590
O O7 0.250000 0.500000 0.243884
#
# Coordination Sequence:
#
# PCOD9413526 Si02
#       4
#     8   4   4   4
#     4  11  27  47  76 112 157 210 264 334 413 490
#     4  11  24  46  74 114 158 202 270 334 404 495
#     4  11  30  48  72 116 154 210 272 342 410 489
#     4  12  30  50  80 114 160 214 282 346 414 492
#
# _framework density 24.473403000000001
#
# number of rings (size 3 to 8) (size 9 to 14) (size 15 to 20)
#    0.000    0.800    0.000    3.600   14.000    8.000 
#    0.000    0.000    0.000    0.000    0.000    0.000 
#    0.000    0.000    0.000    0.000    0.000    0.000 
#
# Total GULP energy -111741.492196 kJ/mol
# GULP energy per Si atom -5587.074610 kJ/mol
# Density = 2.441770 g / cm^3
# Si number density = 24.473403 Si / 1000 Ang^3
#
#
#
# Elastic Constant Matrix: (Units=GPa)
#
#
# Indices 1 2 3 4 5 6 
#
# 1 221.9751 93.5748 83.9322 0.0000 0.0000 0.0000
# 2 93.5748 145.7478 85.6871 0.0000 0.0000 0.0000
# 3 83.9322 85.6871 201.9768 0.0000 0.0000 0.0000
# 4 0.0000 0.0000 0.0000 1349.4675 0.0000 0.0000
# 5 0.0000 0.0000 0.0000 0.0000 15.6207 0.0000
# 6 0.0000 0.0000 0.0000 0.0000 0.0000 69.2004
#
#
#
# Elastic Compliance Matrix: (Units=1/GPa)
#
#
# Indices 1 2 3 4 5 6 
#
# 1 0.006395 -0.003388 -0.001220 0.000000 0.000000 0.000000
# 2 -0.003388 0.010937 -0.003232 0.000000 0.000000 0.000000
# 3 -0.001220 -0.003232 0.006829 0.000000 0.000000 0.000000
# 4 0.000000 0.000000 0.000000 0.000741 0.000000 0.000000
# 5 0.000000 0.000000 0.000000 0.000000 0.064017 0.000000
# 6 0.000000 0.000000 0.000000 0.000000 0.000000 0.014451
#
#
# Mechanical properties :
#
#
# Convention : Reuss Voigt Hill
#
# Bulk Modulus (GPa) = 117.91933 121.78752 119.85342
# Shear Modulus (GPa) = 41.02524 307.29143 174.15834
#
# Velocity S-wave (km/s) = 4.09873 11.21757 8.44493
# Velocity P-wave (km/s) = 8.40754 14.75296 12.00701
#
# Compressibility (1/GPa) = 0.00848037
#
# Stress axis : x y z
#
# Youngs Moduli (GPa) = 156.38080 91.43604 146.43474
#
# Poissons Ratio (x) = 0.30982 0.17862
# Poissons Ratio (y) = 0.52989 0.47323
# Poissons Ratio (z) = 0.19075 0.29549
#
# Static dielectric constant tensor:
#      x y z
#    x 1.868230 0.000000 0.000000 
#    y 0.000000 2.104260 0.000000 
#    z 0.000000 0.000000 1.990210 
# 
# From -- ./inp_files/41315.got.cif
#   From: 2010.05.17/outbox.cif.g08.bks.cpg/sg52_21_cif.got.tgz:41315.got - 2010.06.03 12:15:38.
