data_PCOD9413480
_publ_section_title
;
Structure prediction by ZEFSAII (Michael W. Deem and Ramdas Pophale) SiO2 
 PCOD9413480
Probable space group: P N N A
;
_chemical_formula_sum "Si O2"
_cell_formula_units_Z 36
_cell_length_a 20.894150
_cell_length_b 5.546835
_cell_length_c 14.257653
_cell_angle_alpha 90.000000
_cell_angle_beta 90.000000
_cell_angle_gamma 90.000000
_cell_volume 1652.410691
_symmetry_space_group_name_H-M "P N N A"
_symmetry_group_IT_number 52
_symmetry_cell_setting 'orthorhombic'
loop_
_space_group_symop_operation_xyz
x,y,z
1/2-x,-y,z
x,1/2-y,1/2-z
1/2-x,1/2+y,1/2-z
-x,-y,-z
1/2+x,y,-z
-x,1/2+y,1/2+z
1/2+x,1/2-y,1/2+z
loop_
_atom_site_type_symbol
_atom_site_label
_atom_site_fract_x
_atom_site_fract_y
_atom_site_fract_z
Si Si1 0.073527 0.305016 0.642683
Si Si2 0.191964 0.182910 0.142549
Si Si3 0.876116 0.192638 0.445940
Si Si4 0.250000 0.000000 0.512203
Si Si5 0.078929 0.649251 0.353232
O O1 0.092346 0.250000 0.750000
O O2 0.103483 0.552115 0.601379
O O3 0.997217 0.355214 0.640747
O O4 0.090664 0.052776 0.591459
O O5 0.204052 0.250000 0.250000
O O6 0.203056 0.366109 0.059388
O O7 0.250000 0.000000 0.122240
O O8 0.119044 0.095746 0.139510
O O9 0.895428 0.214444 0.555344
O O10 0.799551 0.163785 0.431815
O O11 0.096843 0.750000 0.250000
#
# Coordination Sequence:
#
# PCOD9413480 Si02
#       5
#     8   8   8   4   8
#     4  11  27  49  75 103 139 185 247 311 358 410
#     4  12  22  40  63 102 150 193 230 275 351 443
#     4  12  25  47  73 106 141 190 237 298 360 426
#     4  12  26  40  68  98 146 188 242 292 358 424
#     4  11  24  43  71 109 145 186 232 285 363 445
#
# _framework density 21.786349999999999
#
# number of rings (size 3 to 8) (size 9 to 14) (size 15 to 20)
#    0.000    0.444    3.333    5.333    0.000    5.333 
#    0.000    2.222    0.000    0.000    0.000    0.000 
#    0.000    0.000    0.000    0.000    0.000    0.000 
#
# Total GULP energy -200895.556298 kJ/mol
# GULP energy per Si atom -5580.432119 kJ/mol
# Density = 2.173676 g / cm^3
# Si number density = 21.786350 Si / 1000 Ang^3
#
#
#
# Elastic Constant Matrix: (Units=GPa)
#
#
# Indices 1 2 3 4 5 6 
#
# 1 88.9809 53.5882 40.5619 0.0000 0.0000 0.0000
# 2 53.5882 139.5280 56.3270 0.0000 0.0000 0.0000
# 3 40.5619 56.3270 103.2038 0.0000 0.0000 0.0000
# 4 0.0000 0.0000 0.0000 33.6829 0.0000 0.0000
# 5 0.0000 0.0000 0.0000 0.0000 17.1044 0.0000
# 6 0.0000 0.0000 0.0000 0.0000 0.0000 53.9024
#
#
#
# Elastic Compliance Matrix: (Units=1/GPa)
#
#
# Indices 1 2 3 4 5 6 
#
# 1 0.015638 -0.004521 -0.003679 0.000000 0.000000 0.000000
# 2 -0.004521 0.010499 -0.003954 0.000000 0.000000 0.000000
# 3 -0.003679 -0.003954 0.013293 0.000000 0.000000 0.000000
# 4 0.000000 0.000000 0.000000 0.029689 0.000000 0.000000
# 5 0.000000 0.000000 0.000000 0.000000 0.058464 0.000000
# 6 0.000000 0.000000 0.000000 0.000000 0.000000 0.018552
#
#
# Mechanical properties :
#
#
# Convention : Reuss Voigt Hill
#
# Bulk Modulus (GPa) = 66.11929 70.29631 68.20780
# Shear Modulus (GPa) = 28.49270 33.02032 30.75651
#
# Velocity S-wave (km/s) = 3.62031 3.89735 3.76138
# Velocity P-wave (km/s) = 6.92028 7.25181 7.08798
#
# Compressibility (1/GPa) = 0.01512418
#
# Stress axis : x y z
#
# Youngs Moduli (GPa) = 63.94665 95.24341 75.22660
#
# Poissons Ratio (x) = 0.43059 0.27674
# Poissons Ratio (y) = 0.28910 0.29741
# Poissons Ratio (z) = 0.23524 0.37655
#
# Static dielectric constant tensor:
#      x y z
#    x 1.799720 0.000000 0.000000 
#    y 0.000000 1.868780 0.000000 
#    z 0.000000 0.000000 1.865950 
# 
# From -- ./inp_files/28498.got.cif
#   From: 2010.05.17/outbox.cif.g08.bks.cpg/sg52_15_cif.got.tgz:28498.got - 2010.06.03 12:15:38.
