data_PCOD9413453
_publ_section_title
;
Structure prediction by ZEFSAII (Michael W. Deem and Ramdas Pophale) SiO2 
 PCOD9413453
Probable space group: P N N A
;
_chemical_formula_sum "Si O2"
_cell_formula_units_Z 32
_cell_length_a 14.576584
_cell_length_b 14.014891
_cell_length_c 6.779284
_cell_angle_alpha 90.000000
_cell_angle_beta 90.000000
_cell_angle_gamma 90.000000
_cell_volume 1384.934748
_symmetry_space_group_name_H-M "P N N A"
_symmetry_group_IT_number 52
_symmetry_cell_setting 'orthorhombic'
loop_
_space_group_symop_operation_xyz
x,y,z
1/2-x,-y,z
x,1/2-y,1/2-z
1/2-x,1/2+y,1/2-z
-x,-y,-z
1/2+x,y,-z
-x,1/2+y,1/2+z
1/2+x,1/2-y,1/2+z
loop_
_atom_site_type_symbol
_atom_site_label
_atom_site_fract_x
_atom_site_fract_y
_atom_site_fract_z
Si Si1 0.020667 0.613378 0.983674
Si Si2 0.156666 0.902987 0.812983
Si Si3 0.329167 0.606790 0.907218
Si Si4 0.797523 0.361259 0.757315
O O1 0.107838 0.632981 0.120536
O O2 0.925811 0.658363 0.059664
O O3 0.058876 0.636011 0.764470
O O4 0.000000 0.500000 0.000000
O O5 0.241660 0.850403 0.705393
O O6 0.156074 0.010318 0.721388
O O7 0.178124 0.899961 0.041905
O O8 0.287121 0.590516 0.125839
O O9 0.771824 0.250000 0.750000
#
# Coordination Sequence:
#
# PCOD9413453 Si02
#       4
#     8   8   8   8
#     4   9  20  39  62  93 125 165 229 268 312 405
#     4   9  20  38  66  88 129 167 212 276 320 382
#     4   9  20  38  62  95 123 167 227 261 316 408
#     4  11  24  42  60  96 137 172 213 282 346 383
#
# _framework density 23.105782000000001
#
# number of rings (size 3 to 8) (size 9 to 14) (size 15 to 20)
#    0.000    2.500    0.000    1.500    0.000   22.000 
#    9.000    0.000    0.000    0.000    0.000    0.000 
#    0.000    0.000    0.000    0.000    0.000    0.000 
#
# Total GULP energy -178265.899753 kJ/mol
# GULP energy per Si atom -5570.809367 kJ/mol
# Density = 2.305319 g / cm^3
# Si number density = 23.105782 Si / 1000 Ang^3
#
#
#
# Elastic Constant Matrix: (Units=GPa)
#
#
# Indices 1 2 3 4 5 6 
#
# 1 128.2997 -11.7101 36.4694 0.0000 0.0000 0.0000
# 2 -11.7101 79.9636 9.3107 0.0000 0.0000 0.0000
# 3 36.4694 9.3107 180.2661 0.0000 0.0000 0.0000
# 4 0.0000 0.0000 0.0000 -27.3232 0.0000 0.0000
# 5 0.0000 0.0000 0.0000 0.0000 7.9820 0.0000
# 6 0.0000 0.0000 0.0000 0.0000 0.0000 7.4174
#
#
#
# Elastic Compliance Matrix: (Units=1/GPa)
#
#
# Indices 1 2 3 4 5 6 
#
# 1 0.008432 0.001442 -0.001780 0.000000 0.000000 0.000000
# 2 0.001442 0.012828 -0.000954 0.000000 0.000000 0.000000
# 3 -0.001780 -0.000954 0.005957 0.000000 0.000000 0.000000
# 4 0.000000 0.000000 0.000000 -0.036599 0.000000 0.000000
# 5 0.000000 0.000000 0.000000 0.000000 0.125283 0.000000
# 6 0.000000 0.000000 0.000000 0.000000 0.000000 0.134818
#
#
# Mechanical properties :
#
#
# Convention : Reuss Voigt Hill
#
# Bulk Modulus (GPa) = 40.59822 50.74107 45.66964
# Shear Modulus (GPa) = 19.11944 21.24586 20.18265
#
# Velocity S-wave (km/s) = 2.87971 3.03562 2.95869
# Velocity P-wave (km/s) = 5.35403 5.85617 5.61072
#
# Compressibility (1/GPa) = 0.02463162
#
# Stress axis : x y z
#
# Youngs Moduli (GPa) = 118.59671 77.95455 167.87475
#
# Poissons Ratio (x) = -0.11242 0.29887
# Poissons Ratio (y) = -0.17103 0.16020
# Poissons Ratio (z) = 0.21114 0.07439
#
# Static dielectric constant tensor:
#      x y z
#    x 2.025750 0.000000 0.000000 
#    y 0.000000 1.948450 0.000000 
#    z 0.000000 0.000000 1.913220 
# 
# From -- ./inp_files/2077.got.cif
#   From: 2010.05.17/outbox.cif.g08.bks.cpg/sg52_2_cif.got.tgz:2077.got - 2010.06.03 12:15:38.
