data_PCOD9413167
_publ_section_title
;
Structure prediction by ZEFSAII (Michael W. Deem and Ramdas Pophale) SiO2 
 PCOD9413167
Probable space group: P N N A
;
_chemical_formula_sum "Si O2"
_cell_formula_units_Z 48
_cell_length_a 8.598820
_cell_length_b 9.951612
_cell_length_c 26.403406
_cell_angle_alpha 90.000000
_cell_angle_beta 90.000000
_cell_angle_gamma 90.000000
_cell_volume 2259.395435
_symmetry_space_group_name_H-M "P N N A"
_symmetry_group_IT_number 52
_symmetry_cell_setting 'orthorhombic'
loop_
_space_group_symop_operation_xyz
x,y,z
1/2-x,-y,z
x,1/2-y,1/2-z
1/2-x,1/2+y,1/2-z
-x,-y,-z
1/2+x,y,-z
-x,1/2+y,1/2+z
1/2+x,1/2-y,1/2+z
loop_
_atom_site_type_symbol
_atom_site_label
_atom_site_fract_x
_atom_site_fract_y
_atom_site_fract_z
Si Si1 0.561986 0.496556 0.335696
Si Si2 0.607539 0.603414 0.233094
Si Si3 0.382473 0.396341 0.475249
Si Si4 0.594326 0.717696 0.416975
Si Si5 0.056950 0.262473 0.887209
Si Si6 0.573543 0.448345 0.867869
O O1 0.750000 0.500000 0.332390
O O2 0.510442 0.553793 0.282095
O O3 0.531388 0.588017 0.385447
O O4 0.510747 0.343801 0.343705
O O5 0.750000 0.500000 0.223305
O O6 0.668725 0.750000 0.250000
O O7 0.496972 0.609480 0.184377
O O8 0.250000 0.500000 0.456365
O O9 0.500000 0.500000 0.500000
O O10 0.348127 0.309724 0.525796
O O11 0.465139 0.300780 0.434947
O O12 0.756809 0.755486 0.390710
O O13 0.467276 0.834668 0.409688
O O14 0.016810 0.415391 0.879746
O O15 0.750000 0.500000 0.864790
#
# Coordination Sequence:
#
# PCOD9413167 Si02
#       6
#     8   8   8   8   8   8
#     4   9  19  37  69  98 123 169 226 269 322 400
#     4  11  23  44  73 100 130 176 226 278 333 416
#     4  12  23  41  71 105 138 174 225 284 339 409
#     4  11  21  44  69  96 133 179 229 273 333 415
#     4  11  24  43  69  99 131 183 227 276 334 408
#     4  12  29  45  63  98 143 177 223 290 351 394
#
# _framework density 21.244620000000001
#
# number of rings (size 3 to 8) (size 9 to 14) (size 15 to 20)
#    0.000    1.000    5.000    2.000    7.000    0.667 
#    3.000    0.000    0.000    0.000    0.000    0.000 
#    0.000    0.000    0.000    0.000    0.000    0.000 
#
# Total GULP energy -267729.626627 kJ/mol
# GULP energy per Si atom -5577.700555 kJ/mol
# Density = 2.119627 g / cm^3
# Si number density = 21.244620 Si / 1000 Ang^3
#
#
#
# Elastic Constant Matrix: (Units=GPa)
#
#
# Indices 1 2 3 4 5 6 
#
# 1 74.8917 9.0041 1.1953 0.0000 0.0000 0.0000
# 2 9.0041 92.5926 2.9776 0.0000 0.0000 0.0000
# 3 1.1953 2.9776 67.3269 0.0000 0.0000 0.0000
# 4 0.0000 0.0000 0.0000 21.7345 0.0000 0.0000
# 5 0.0000 0.0000 0.0000 0.0000 19.1899 0.0000
# 6 0.0000 0.0000 0.0000 0.0000 0.0000 27.9287
#
#
#
# Elastic Compliance Matrix: (Units=1/GPa)
#
#
# Indices 1 2 3 4 5 6 
#
# 1 0.013513 -0.001308 -0.000182 0.000000 0.000000 0.000000
# 2 -0.001308 0.010942 -0.000461 0.000000 0.000000 0.000000
# 3 -0.000182 -0.000461 0.014877 0.000000 0.000000 0.000000
# 4 0.000000 0.000000 0.000000 0.046010 0.000000 0.000000
# 5 0.000000 0.000000 0.000000 0.000000 0.052111 0.000000
# 6 0.000000 0.000000 0.000000 0.000000 0.000000 0.035806
#
#
# Mechanical properties :
#
#
# Convention : Reuss Voigt Hill
#
# Bulk Modulus (GPa) = 28.22510 29.01837 28.62174
# Shear Modulus (GPa) = 26.45937 28.54623 27.50280
#
# Velocity S-wave (km/s) = 3.53294 3.66962 3.60193
# Velocity P-wave (km/s) = 5.47328 5.62527 5.54979
#
# Compressibility (1/GPa) = 0.03542946
#
# Stress axis : x y z
#
# Youngs Moduli (GPa) = 74.00394 91.39077 67.22001
#
# Poissons Ratio (x) = 0.11956 0.01224
# Poissons Ratio (y) = 0.09681 0.03097
# Poissons Ratio (z) = 0.01347 0.04210
#
# Static dielectric constant tensor:
#      x y z
#    x 1.657620 0.000000 0.000000 
#    y 0.000000 1.838680 0.000000 
#    z 0.000000 0.000000 1.763520 
# 
# From -- ./inp_files/44397.got.cif
#   From: 2010.05.17/outbox.cif.g08.bks.cpg/sg52_23_cif.got.tgz:44397.got - 2010.06.03 12:15:38.
