data_PCOD9413349
_publ_section_title
;
Structure prediction by ZEFSAII (Michael W. Deem and Ramdas Pophale) SiO2 
 PCOD9413349
Probable space group: P N N A
;
_chemical_formula_sum "Si O2"
_cell_formula_units_Z 36
_cell_length_a 9.001507
_cell_length_b 16.078712
_cell_length_c 9.357881
_cell_angle_alpha 90.000000
_cell_angle_beta 90.000000
_cell_angle_gamma 90.000000
_cell_volume 1354.390809
_symmetry_space_group_name_H-M "P N N A"
_symmetry_group_IT_number 52
_symmetry_cell_setting 'orthorhombic'
loop_
_space_group_symop_operation_xyz
x,y,z
1/2-x,-y,z
x,1/2-y,1/2-z
1/2-x,1/2+y,1/2-z
-x,-y,-z
1/2+x,y,-z
-x,1/2+y,1/2+z
1/2+x,1/2-y,1/2+z
loop_
_atom_site_type_symbol
_atom_site_label
_atom_site_fract_x
_atom_site_fract_y
_atom_site_fract_z
Si Si1 0.281300 0.202432 0.899814
Si Si2 0.221018 0.250000 0.250000
Si Si3 0.984528 0.126400 0.798492
Si Si4 0.090618 0.955580 0.775405
Si Si5 0.502325 0.663003 0.028360
O O1 0.289079 0.250000 0.750000
O O2 0.111877 0.168511 0.896952
O O3 0.383700 0.120504 0.884393
O O4 0.359313 0.225215 0.509271
O O5 0.325816 0.172452 0.200655
O O6 0.111148 0.287150 0.129501
O O7 0.041779 0.138261 0.632596
O O8 0.978610 0.027846 0.822106
O O9 0.046374 0.916318 0.623386
O O10 0.250000 0.000000 0.763237
#
# Coordination Sequence:
#
# PCOD9413349 Si02
#       5
#     8   4   8   8   8
#     4   9  18  41  61  87 132 170 202 252 320 389
#     4  12  26  34  60 102 126 168 208 268 314 384
#     4  11  24  38  66  96 123 169 218 259 318 379
#     4   9  19  38  64  92 125 160 206 262 323 373
#     4  11  23  42  62  95 133 170 202 266 326 377
#
# _framework density 26.580216
#
# number of rings (size 3 to 8) (size 9 to 14) (size 15 to 20)
#    0.000    1.778    4.444    0.667    9.333    0.889 
#    0.000    0.000    0.000    1.333   23.111    0.000 
#    0.000    0.000    0.000    0.000    0.000    0.000 
#
# Total GULP energy -201446.619232 kJ/mol
# GULP energy per Si atom -5595.739423 kJ/mol
# Density = 2.651972 g / cm^3
# Si number density = 26.580216 Si / 1000 Ang^3
#
#
#
# Elastic Constant Matrix: (Units=GPa)
#
#
# Indices 1 2 3 4 5 6 
#
# 1 113.6422 43.9434 10.9451 0.0000 0.0000 0.0000
# 2 43.9434 171.5011 16.9475 0.0000 0.0000 0.0000
# 3 10.9451 16.9475 48.3851 0.0000 0.0000 0.0000
# 4 0.0000 0.0000 0.0000 42.1094 0.0000 0.0000
# 5 0.0000 0.0000 0.0000 0.0000 54.4008 0.0000
# 6 0.0000 0.0000 0.0000 0.0000 0.0000 55.5771
#
#
#
# Elastic Compliance Matrix: (Units=1/GPa)
#
#
# Indices 1 2 3 4 5 6 
#
# 1 0.009857 -0.002388 -0.001393 0.000000 0.000000 0.000000
# 2 -0.002388 0.006618 -0.001778 0.000000 0.000000 0.000000
# 3 -0.001393 -0.001778 0.021605 0.000000 0.000000 0.000000
# 4 0.000000 0.000000 0.000000 0.023748 0.000000 0.000000
# 5 0.000000 0.000000 0.000000 0.000000 0.018382 0.000000
# 6 0.000000 0.000000 0.000000 0.000000 0.000000 0.017993
#
#
# Mechanical properties :
#
#
# Convention : Reuss Voigt Hill
#
# Bulk Modulus (GPa) = 37.08872 53.02226 45.05549
# Shear Modulus (GPa) = 42.26188 47.86363 45.06276
#
# Velocity S-wave (km/s) = 3.99177 4.24810 4.12193
# Velocity P-wave (km/s) = 5.93544 6.63725 6.29613
#
# Compressibility (1/GPa) = 0.02696238
#
# Stress axis : x y z
#
# Youngs Moduli (GPa) = 101.44935 151.09316 46.28455
#
# Poissons Ratio (x) = 0.36081 0.06449
# Poissons Ratio (y) = 0.24226 0.08229
# Poissons Ratio (z) = 0.14135 0.26864
#
# Static dielectric constant tensor:
#      x y z
#    x 2.095450 0.000000 0.000000 
#    y 0.000000 2.063990 0.000000 
#    z 0.000000 0.000000 2.300190 
# 
# From -- ./inp_files/16786.got.cif
#   From: 2010.05.17/outbox.cif.g08.bks.cpg/sg52_9_cif.got.tgz:16786.got - 2010.06.03 12:15:38.
