data_PCOD9413331
_publ_section_title
;
Structure prediction by ZEFSAII (Michael W. Deem and Ramdas Pophale) SiO2 
 PCOD9413331
Probable space group: P N N A
;
_chemical_formula_sum "Si O2"
_cell_formula_units_Z 32
_cell_length_a 12.251869
_cell_length_b 4.873526
_cell_length_c 24.759477
_cell_angle_alpha 90.000000
_cell_angle_beta 90.000000
_cell_angle_gamma 90.000000
_cell_volume 1478.383472
_symmetry_space_group_name_H-M "P N N A"
_symmetry_group_IT_number 52
_symmetry_cell_setting 'orthorhombic'
loop_
_space_group_symop_operation_xyz
x,y,z
1/2-x,-y,z
x,1/2-y,1/2-z
1/2-x,1/2+y,1/2-z
-x,-y,-z
1/2+x,y,-z
-x,1/2+y,1/2+z
1/2+x,1/2-y,1/2+z
loop_
_atom_site_type_symbol
_atom_site_label
_atom_site_fract_x
_atom_site_fract_y
_atom_site_fract_z
Si Si1 0.869900 0.881819 0.102127
Si Si2 0.324768 0.746093 0.140603
Si Si3 0.512591 0.621778 0.059152
Si Si4 0.514833 0.511483 0.286930
O O1 0.946910 0.066707 0.063643
O O2 0.908117 0.932254 0.163372
O O3 0.750000 0.000000 0.094252
O O4 0.896741 0.567930 0.088553
O O5 0.250000 0.500000 0.161780
O O6 0.400446 0.619447 0.093299
O O7 0.406129 0.864936 0.185653
O O8 0.250000 0.000000 0.121491
O O9 0.500000 0.500000 0.000000
O O10 0.564550 0.750000 0.250000
O O11 0.491263 0.250000 0.250000
#
# Coordination Sequence:
#
# PCOD9413331 Si02
#       4
#     8   8   8   8
#     4  11  24  43  65  93 126 161 208 259 308 367
#     4  11  23  41  63  92 128 164 207 257 309 372
#     4  11  24  43  65  93 127 163 206 257 309 369
#     4  11  23  41  63  90 124 162 206 255 307 366
#
# _framework density 21.645264999999998
#
# number of rings (size 3 to 8) (size 9 to 14) (size 15 to 20)
#    0.000    1.000    0.000    9.000    0.000    6.000 
#    0.000    2.500    0.000    0.000    0.000    0.000 
#    0.000    0.000    0.000    0.000    0.000    0.000 
#
# Total GULP energy -179050.749729 kJ/mol
# GULP energy per Si atom -5595.335929 kJ/mol
# Density = 2.159600 g / cm^3
# Si number density = 21.645265 Si / 1000 Ang^3
#
#
#
# Elastic Constant Matrix: (Units=GPa)
#
#
# Indices 1 2 3 4 5 6 
#
# 1 24.0962 -21.1064 -6.0568 0.0000 0.0000 0.0000
# 2 -21.1064 94.7253 14.2912 0.0000 0.0000 0.0000
# 3 -6.0568 14.2912 119.9891 0.0000 0.0000 0.0000
# 4 0.0000 0.0000 0.0000 15.0526 0.0000 0.0000
# 5 0.0000 0.0000 0.0000 0.0000 -5.2332 0.0000
# 6 0.0000 0.0000 0.0000 0.0000 0.0000 38.8018
#
#
#
# Elastic Compliance Matrix: (Units=1/GPa)
#
#
# Indices 1 2 3 4 5 6 
#
# 1 0.051751 0.011341 0.001262 0.000000 0.000000 0.000000
# 2 0.011341 0.013235 -0.001004 0.000000 0.000000 0.000000
# 3 0.001262 -0.001004 0.008517 0.000000 0.000000 0.000000
# 4 0.000000 0.000000 0.000000 0.066434 0.000000 0.000000
# 5 0.000000 0.000000 0.000000 0.000000 -0.191088 0.000000
# 6 0.000000 0.000000 0.000000 0.000000 0.000000 0.025772
#
#
# Mechanical properties :
#
#
# Convention : Reuss Voigt Hill
#
# Bulk Modulus (GPa) = 10.34126 23.67406 17.00766
# Shear Modulus (GPa) = -305.96427 26.50306 -139.73060
#
# Velocity S-wave (km/s) = -11.90213 3.50298 -8.04332
# Velocity P-wave (km/s) = 13.56809 5.22706 8.85355
#
# Compressibility (1/GPa) = 0.09670004
#
# Stress axis : x y z
#
# Youngs Moduli (GPa) = 19.32334 75.55607 117.40748
#
# Poissons Ratio (x) = -0.85686 -0.14812
# Poissons Ratio (y) = -0.21914 0.11787
# Poissons Ratio (z) = -0.02438 0.07585
#
# Static dielectric constant tensor:
#      x y z
#    x 1.770590 0.000000 0.000000 
#    y 0.000000 1.811890 0.000000 
#    z 0.000000 0.000000 1.775630 
# 
# From -- ./inp_files/36420.got.cif
#   From: 2010.05.17/outbox.cif.g08.bks.cpg/sg52_19_cif.got.tgz:36420.got - 2010.06.03 12:15:38.
