data_PCOD9413733
_publ_section_title
;
Structure prediction by ZEFSAII (Michael W. Deem and Ramdas Pophale) SiO2 
 PCOD9413733
Probable space group: P N N A
;
_chemical_formula_sum "Si O2"
_cell_formula_units_Z 32
_cell_length_a 8.796895
_cell_length_b 17.282600
_cell_length_c 8.514810
_cell_angle_alpha 90.000000
_cell_angle_beta 90.000000
_cell_angle_gamma 90.000000
_cell_volume 1294.533961
_symmetry_space_group_name_H-M "P N N A"
_symmetry_group_IT_number 52
_symmetry_cell_setting 'orthorhombic'
loop_
_space_group_symop_operation_xyz
x,y,z
1/2-x,-y,z
x,1/2-y,1/2-z
1/2-x,1/2+y,1/2-z
-x,-y,-z
1/2+x,y,-z
-x,1/2+y,1/2+z
1/2+x,1/2-y,1/2+z
loop_
_atom_site_type_symbol
_atom_site_label
_atom_site_fract_x
_atom_site_fract_y
_atom_site_fract_z
Si Si1 0.936685 0.632012 0.675309
Si Si2 0.387756 0.163377 0.275556
Si Si3 0.385782 0.231495 0.590596
Si Si4 0.930120 0.513765 0.173811
O O1 0.756070 0.638892 0.669292
O O2 0.996049 0.546040 0.701268
O O3 0.027353 0.687122 0.553431
O O4 0.986440 0.676131 0.834556
O O5 0.443064 0.250000 0.250000
O O6 0.320499 0.179866 0.452799
O O7 0.516040 0.099057 0.278887
O O8 0.290372 0.250000 0.750000
O O9 0.250000 0.500000 0.829398
O O10 0.000000 0.500000 0.000000
#
# Coordination Sequence:
#
# PCOD9413733 Si02
#       4
#     8   8   8   8
#     4   9  20  42  64  87 134 164 210 261 320 374
#     4  12  22  41  70 101 123 172 215 269 323 383
#     4   8  19  38  63  92 131 163 208 256 324 372
#     4  12  24  39  61  96 128 169 219 265 315 381
#
# _framework density 24.719322999999999
#
# number of rings (size 3 to 8) (size 9 to 14) (size 15 to 20)
#    1.500    0.000    5.000    2.250    0.000    0.000 
#    9.000    1.250    0.000    0.000    0.000    0.000 
#    0.000    0.000    0.000    0.000    0.000    0.000 
#
# Total GULP energy -178303.597043 kJ/mol
# GULP energy per Si atom -5571.987408 kJ/mol
# Density = 2.466306 g / cm^3
# Si number density = 24.719323 Si / 1000 Ang^3
#
#
#
# Elastic Constant Matrix: (Units=GPa)
#
#
# Indices 1 2 3 4 5 6 
#
# 1 181.2480 73.3532 32.0524 0.0000 0.0000 0.0000
# 2 73.3532 209.2652 22.8997 0.0000 0.0000 0.0000
# 3 32.0524 22.8997 27.2589 0.0000 0.0000 0.0000
# 4 0.0000 0.0000 0.0000 36.5646 0.0000 0.0000
# 5 0.0000 0.0000 0.0000 0.0000 31.2271 0.0000
# 6 0.0000 0.0000 0.0000 0.0000 0.0000 -20.3276
#
#
#
# Elastic Compliance Matrix: (Units=1/GPa)
#
#
# Indices 1 2 3 4 5 6 
#
# 1 0.007563 -0.001848 -0.007341 0.000000 0.000000 0.000000
# 2 -0.001848 0.005714 -0.002627 0.000000 0.000000 0.000000
# 3 -0.007341 -0.002627 0.047524 0.000000 0.000000 0.000000
# 4 0.000000 0.000000 0.000000 0.027349 0.000000 0.000000
# 5 0.000000 0.000000 0.000000 0.000000 0.032023 0.000000
# 6 0.000000 0.000000 0.000000 0.000000 0.000000 -0.049194
#
#
# Mechanical properties :
#
#
# Convention : Reuss Voigt Hill
#
# Bulk Modulus (GPa) = 26.90396 74.93141 50.91768
# Shear Modulus (GPa) = 46.72812 28.79061 37.75936
#
# Velocity S-wave (km/s) = 4.35253 3.41647 3.91260
# Velocity P-wave (km/s) = 6.01388 6.77803 6.40736
#
# Compressibility (1/GPa) = 0.03716925
#
# Stress axis : x y z
#
# Youngs Moduli (GPa) = 132.21641 175.01341 21.04178
#
# Poissons Ratio (x) = 0.32340 0.15447
# Poissons Ratio (y) = 0.24431 0.05528
# Poissons Ratio (z) = 0.97061 0.45982
#
# Static dielectric constant tensor:
#      x y z
#    x 1.884050 0.000000 0.000000 
#    y 0.000000 1.894530 0.000000 
#    z 0.000000 0.000000 2.318080 
# 
# From -- ./inp_files/8432.got.cif
#   From: 2010.05.17/outbox.cif.g08.bks.cpg/sg52_5_cif.got.tgz:8432.got - 2010.06.03 12:15:38.
