data_PCOD9413086
_publ_section_title
;
Structure prediction by ZEFSAII (Michael W. Deem and Ramdas Pophale) SiO2 
 PCOD9413086
Probable space group: P N N A
;
_chemical_formula_sum "Si O2"
_cell_formula_units_Z 32
_cell_length_a 14.735929
_cell_length_b 11.584695
_cell_length_c 7.097020
_cell_angle_alpha 90.000000
_cell_angle_beta 90.000000
_cell_angle_gamma 90.000000
_cell_volume 1211.541106
_symmetry_space_group_name_H-M "P N N A"
_symmetry_group_IT_number 52
_symmetry_cell_setting 'orthorhombic'
loop_
_space_group_symop_operation_xyz
x,y,z
1/2-x,-y,z
x,1/2-y,1/2-z
1/2-x,1/2+y,1/2-z
-x,-y,-z
1/2+x,y,-z
-x,1/2+y,1/2+z
1/2+x,1/2-y,1/2+z
loop_
_atom_site_type_symbol
_atom_site_label
_atom_site_fract_x
_atom_site_fract_y
_atom_site_fract_z
Si Si1 0.136987 0.691831 0.012969
Si Si2 0.945355 0.829273 0.593444
Si Si3 0.667858 0.923685 0.901204
Si Si4 0.091030 0.005359 0.726255
O O1 0.200025 0.802620 0.004192
O O2 0.036554 0.741006 0.962844
O O3 0.125805 0.868816 0.286018
O O4 0.157341 0.910734 0.629616
O O5 0.896509 0.750000 0.750000
O O6 0.902849 0.879885 0.401657
O O7 0.993288 0.942647 0.688075
O O8 0.885400 0.999979 0.054640
O O9 0.750000 0.000000 0.832219
#
# Coordination Sequence:
#
# PCOD9413086 Si02
#       4
#     8   8   8   8
#     4   9  19  37  58  88 122 168 210 273 324 390
#     4   9  16  35  65  91 125 164 212 269 347 398
#     4  11  21  34  61  92 119 172 228 255 325 405
#     4   9  18  36  63  88 125 170 206 275 332 398
#
# _framework density 26.412638999999999
#
# number of rings (size 3 to 8) (size 9 to 14) (size 15 to 20)
#    1.500    1.000    2.500    0.750    0.000    2.000 
#    0.000    0.000   16.500    0.000    0.000    0.000 
#    0.000    0.000    0.000    0.000    0.000    0.000 
#
# Total GULP energy -178274.624450 kJ/mol
# GULP energy per Si atom -5571.082014 kJ/mol
# Density = 2.635252 g / cm^3
# Si number density = 26.412639 Si / 1000 Ang^3
#
#
#
# Elastic Constant Matrix: (Units=GPa)
#
#
# Indices 1 2 3 4 5 6 
#
# 1 20.0226 29.8625 16.4227 0.0000 0.0000 0.0000
# 2 29.8625 133.3113 45.3829 0.0000 0.0000 0.0000
# 3 16.4227 45.3829 201.6435 0.0000 0.0000 0.0000
# 4 0.0000 0.0000 0.0000 64.9561 0.0000 0.0000
# 5 0.0000 0.0000 0.0000 0.0000 -0.2149 0.0000
# 6 0.0000 0.0000 0.0000 0.0000 0.0000 25.5565
#
#
#
# Elastic Compliance Matrix: (Units=1/GPa)
#
#
# Indices 1 2 3 4 5 6 
#
# 1 0.076202 -0.016198 -0.002561 0.000000 0.000000 0.000000
# 2 -0.016198 0.011567 -0.001284 0.000000 0.000000 0.000000
# 3 -0.002561 -0.001284 0.005457 0.000000 0.000000 0.000000
# 4 0.000000 0.000000 0.000000 0.015395 0.000000 0.000000
# 5 0.000000 0.000000 0.000000 0.000000 -4.652752 0.000000
# 6 0.000000 0.000000 0.000000 0.000000 0.000000 0.039129
#
#
# Mechanical properties :
#
#
# Convention : Reuss Voigt Hill
#
# Bulk Modulus (GPa) = 18.81806 59.81263 39.31535
# Shear Modulus (GPa) = -1.12430 35.61348 17.24459
#
# Velocity S-wave (km/s) = -0.65314 3.67597 2.55795
# Velocity P-wave (km/s) = 2.56346 6.38057 4.86225
#
# Compressibility (1/GPa) = 0.05314043
#
# Stress axis : x y z
#
# Youngs Moduli (GPa) = 13.12297 86.45411 183.25790
#
# Poissons Ratio (x) = 1.40039 0.46926
# Poissons Ratio (y) = 0.21257 0.23531
# Poissons Ratio (z) = 0.03360 0.11101
#
# Static dielectric constant tensor:
#      x y z
#    x 2.203400 0.000000 0.000000 
#    y 0.000000 1.965050 0.000000 
#    z 0.000000 0.000000 2.148280 
# 
# From -- ./inp_files/11522.got.cif
#   From: 2010.05.17/outbox.cif.g08.bks.cpg/sg52_6_cif.got.tgz:11522.got - 2010.06.03 12:15:38.
