data_PCOD9413730
_publ_section_title
;
Structure prediction by ZEFSAII (Michael W. Deem and Ramdas Pophale) SiO2 
 PCOD9413730
Probable space group: P N N A
;
_chemical_formula_sum "Si O2"
_cell_formula_units_Z 40
_cell_length_a 23.270244
_cell_length_b 7.108869
_cell_length_c 10.380609
_cell_angle_alpha 90.000000
_cell_angle_beta 90.000000
_cell_angle_gamma 90.000000
_cell_volume 1717.213450
_symmetry_space_group_name_H-M "P N N A"
_symmetry_group_IT_number 52
_symmetry_cell_setting 'orthorhombic'
loop_
_space_group_symop_operation_xyz
x,y,z
1/2-x,-y,z
x,1/2-y,1/2-z
1/2-x,1/2+y,1/2-z
-x,-y,-z
1/2+x,y,-z
-x,1/2+y,1/2+z
1/2+x,1/2-y,1/2+z
loop_
_atom_site_type_symbol
_atom_site_label
_atom_site_fract_x
_atom_site_fract_y
_atom_site_fract_z
Si Si1 0.812517 0.881902 0.500000
Si Si2 0.687854 0.407296 0.670839
Si Si3 0.437955 0.090451 0.500000
Si Si4 0.187854 0.407296 0.670839
Si Si5 0.395084 0.250000 0.750000
Si Si6 0.104916 0.750000 0.250000
O O1 0.811391 0.831821 0.662491
O O2 0.876385 0.979682 0.500000
O O3 0.811391 0.831821 0.337509
O O4 0.750000 0.000000 0.500000
O O5 0.750000 0.500000 0.662663
O O6 0.678114 0.366044 0.500000
O O7 0.642987 0.575227 0.699379
O O8 0.434368 0.202545 0.630694
O O9 0.434368 0.202546 0.369306
O O10 0.500000 0.000000 0.500000
O O11 0.250000 0.500000 0.662663
O O12 0.142987 0.575227 0.699379
#
# Coordination Sequence:
#
# PCOD9413730 Si02
#       6
#     8   8   8   8   4   4
#     4  12  24  45  73 109 157 204 256 321 382 456
#     4  12  22  40  72 110 157 198 250 312 385 451
#     4  12  29  51  79 112 150 204 262 309 386 464
#     4  12  22  40  72 110 157 198 250 312 385 451
#     4  12  26  50  76 110 154 206 250 318 384 456
#     4  12  26  50  76 110 154 206 250 318 384 456
#
# _framework density 23.293552999999999
#
# number of rings (size 3 to 8) (size 9 to 14) (size 15 to 20)
#    0.000    0.000    6.000    5.400    0.000    3.200 
#    0.000    3.000    0.000    0.000    0.000    0.000 
#    0.000    0.000    0.000    0.000    0.000    0.000 
#
# Total GULP energy -222833.056943 kJ/mol
# GULP energy per Si atom -5570.826424 kJ/mol
# Density = 2.324054 g / cm^3
# Si number density = 23.293553 Si / 1000 Ang^3
#
#
#
# Elastic Constant Matrix: (Units=GPa)
#
#
# Indices 1 2 3 4 5 6 
#
# 1 149.5491 84.1901 86.3070 0.0000 0.0000 0.0000
# 2 84.1901 148.3791 108.2540 0.0000 0.0000 0.0000
# 3 86.3070 108.2540 283.2983 0.0000 0.0000 0.0000
# 4 0.0000 0.0000 0.0000 95.6918 0.0000 0.0000
# 5 0.0000 0.0000 0.0000 0.0000 64.5788 0.0000
# 6 0.0000 0.0000 0.0000 0.0000 0.0000 37.3813
#
#
#
# Elastic Compliance Matrix: (Units=1/GPa)
#
#
# Indices 1 2 3 4 5 6 
#
# 1 0.010127 -0.004846 -0.001233 0.000000 0.000000 0.000000
# 2 -0.004846 0.011664 -0.002981 0.000000 0.000000 0.000000
# 3 -0.001233 -0.002981 0.005045 0.000000 0.000000 0.000000
# 4 0.000000 0.000000 0.000000 0.010450 0.000000 0.000000
# 5 0.000000 0.000000 0.000000 0.000000 0.015485 0.000000
# 6 0.000000 0.000000 0.000000 0.000000 0.000000 0.026751
#
#
# Mechanical properties :
#
#
# Convention : Reuss Voigt Hill
#
# Bulk Modulus (GPa) = 114.74499 126.52539 120.63519
# Shear Modulus (GPa) = 49.72833 59.69540 54.71187
#
# Velocity S-wave (km/s) = 4.62546 5.06785 4.85170
# Velocity P-wave (km/s) = 8.82575 9.41699 9.12616
#
# Compressibility (1/GPa) = 0.00871498
#
# Stress axis : x y z
#
# Youngs Moduli (GPa) = 98.74924 85.73604 198.23480
#
# Poissons Ratio (x) = 0.41548 0.24449
# Poissons Ratio (y) = 0.47854 0.59086
# Poissons Ratio (z) = 0.12179 0.25554
#
# Static dielectric constant tensor:
#      x y z
#    x 2.037450 0.000000 0.000000 
#    y 0.000000 1.927610 0.000000 
#    z 0.000000 0.000000 2.493780 
# 
# From -- ./inp_files/13194.got.cif
#   From: 2010.05.17/outbox.cif.g08.bks.cpg/sg52_7_cif.got.tgz:13194.got - 2010.06.03 12:15:38.
