data_PCOD9413039
_publ_section_title
;
Structure prediction by ZEFSAII (Michael W. Deem and Ramdas Pophale) SiO2 
 PCOD9413039
Probable space group: P N N A
;
_chemical_formula_sum "Si O2"
_cell_formula_units_Z 40
_cell_length_a 14.996446
_cell_length_b 9.695417
_cell_length_c 15.490984
_cell_angle_alpha 90.000000
_cell_angle_beta 90.000000
_cell_angle_gamma 90.000000
_cell_volume 2252.339464
_symmetry_space_group_name_H-M "P N N A"
_symmetry_group_IT_number 52
_symmetry_cell_setting 'orthorhombic'
loop_
_space_group_symop_operation_xyz
x,y,z
1/2-x,-y,z
x,1/2-y,1/2-z
1/2-x,1/2+y,1/2-z
-x,-y,-z
1/2+x,y,-z
-x,1/2+y,1/2+z
1/2+x,1/2-y,1/2+z
loop_
_atom_site_type_symbol
_atom_site_label
_atom_site_fract_x
_atom_site_fract_y
_atom_site_fract_z
Si Si1 0.250000 0.000000 0.491173
Si Si2 0.020889 0.110771 0.925616
Si Si3 0.059873 0.913260 0.431364
Si Si4 0.949702 0.528362 0.231561
Si Si5 0.315898 0.725726 0.875159
Si Si6 0.339973 0.250000 0.750000
O O1 0.163989 0.942732 0.441984
O O2 0.286745 0.881491 0.553065
O O3 0.123929 0.159649 0.920851
O O4 0.964787 0.251391 0.940400
O O5 0.011703 0.058416 0.826650
O O6 0.000000 0.000000 0.000000
O O7 0.000000 0.000000 0.500000
O O8 0.027404 0.963003 0.338078
O O9 0.877069 0.638647 0.193473
O O10 0.899719 0.382561 0.231601
O O11 0.227514 0.779693 0.828656
#
# Coordination Sequence:
#
# PCOD9413039 Si02
#       6
#     4   8   8   8   8   4
#     4  12  22  38  72  94 124 178 224 262 320 400
#     4  11  25  41  63  93 139 175 209 277 331 385
#     4  11  22  44  65  94 133 176 220 264 328 399
#     4  11  23  39  66  91 135 170 212 273 334 384
#     4  11  20  37  60 102 128 162 220 274 331 378
#     4  12  20  34  68 104 124 164 218 282 336 386
#
# _framework density 17.759312999999999
#
# number of rings (size 3 to 8) (size 9 to 14) (size 15 to 20)
#    0.000    0.800    8.000    1.800    5.600    0.000 
#    0.000    0.000   13.200    0.000    0.000    0.000 
#    0.000    0.000    0.000    0.000    0.000    0.000 
#
# Total GULP energy -223212.419962 kJ/mol
# GULP energy per Si atom -5580.310499 kJ/mol
# Density = 1.771889 g / cm^3
# Si number density = 17.759313 Si / 1000 Ang^3
#
#
#
# Elastic Constant Matrix: (Units=GPa)
#
#
# Indices 1 2 3 4 5 6 
#
# 1 117.2806 82.9963 79.5010 0.0000 0.0000 0.0000
# 2 82.9963 119.6376 76.7624 0.0000 0.0000 0.0000
# 3 79.5010 76.7624 152.1485 0.0000 0.0000 0.0000
# 4 0.0000 0.0000 0.0000 29.8468 0.0000 0.0000
# 5 0.0000 0.0000 0.0000 0.0000 4.9716 0.0000
# 6 0.0000 0.0000 0.0000 0.0000 0.0000 28.6106
#
#
#
# Elastic Compliance Matrix: (Units=1/GPa)
#
#
# Indices 1 2 3 4 5 6 
#
# 1 0.018865 -0.010000 -0.004812 0.000000 0.000000 0.000000
# 2 -0.010000 0.017660 -0.003685 0.000000 0.000000 0.000000
# 3 -0.004812 -0.003685 0.010946 0.000000 0.000000 0.000000
# 4 0.000000 0.000000 0.000000 0.033504 0.000000 0.000000
# 5 0.000000 0.000000 0.000000 0.000000 0.201141 0.000000
# 6 0.000000 0.000000 0.000000 0.000000 0.000000 0.034952
#
#
# Mechanical properties :
#
#
# Convention : Reuss Voigt Hill
#
# Bulk Modulus (GPa) = 95.44193 96.39846 95.92019
# Shear Modulus (GPa) = 13.98384 22.67294 18.32839
#
# Velocity S-wave (km/s) = 2.80913 3.57694 3.21603
# Velocity P-wave (km/s) = 8.02372 8.45326 8.24129
#
# Compressibility (1/GPa) = 0.01047758
#
# Stress axis : x y z
#
# Youngs Moduli (GPa) = 53.00761 56.62562 91.35572
#
# Poissons Ratio (x) = 0.56623 0.43965
# Poissons Ratio (y) = 0.53005 0.33663
# Poissons Ratio (z) = 0.25510 0.20865
#
# Static dielectric constant tensor:
#      x y z
#    x 1.601740 0.000000 0.000000 
#    y 0.000000 1.627060 0.000000 
#    z 0.000000 0.000000 1.621310 
# 
# From -- ./inp_files/26935.got.cif
#   From: 2010.05.17/outbox.cif.g08.bks.cpg/sg52_14_cif.got.tgz:26935.got - 2010.06.03 12:15:38.
