data_PCOD9413031
_publ_section_title
;
Structure prediction by ZEFSAII (Michael W. Deem and Ramdas Pophale) SiO2 
 PCOD9413031
Probable space group: P N N A
;
_chemical_formula_sum "Si O2"
_cell_formula_units_Z 64
_cell_length_a 12.412412
_cell_length_b 18.545369
_cell_length_c 14.150605
_cell_angle_alpha 90.000000
_cell_angle_beta 90.000000
_cell_angle_gamma 90.000000
_cell_volume 3257.366831
_symmetry_space_group_name_H-M "P N N A"
_symmetry_group_IT_number 52
_symmetry_cell_setting 'orthorhombic'
loop_
_space_group_symop_operation_xyz
x,y,z
1/2-x,-y,z
x,1/2-y,1/2-z
1/2-x,1/2+y,1/2-z
-x,-y,-z
1/2+x,y,-z
-x,1/2+y,1/2+z
1/2+x,1/2-y,1/2+z
loop_
_atom_site_type_symbol
_atom_site_label
_atom_site_fract_x
_atom_site_fract_y
_atom_site_fract_z
Si Si1 0.453247 0.898739 0.636810
Si Si2 0.974939 0.295804 0.152858
Si Si3 0.178880 0.277585 0.441767
Si Si4 0.194379 0.656250 0.152693
Si Si5 0.800765 0.577677 0.662128
Si Si6 0.833318 0.947862 0.532108
Si Si7 0.472637 0.960035 0.297628
Si Si8 0.228238 0.219802 0.643503
O O1 0.566133 0.856742 0.649582
O O2 0.434611 0.925998 0.529882
O O3 0.349645 0.848919 0.650041
O O4 0.450740 0.971325 0.699542
O O5 0.983846 0.250000 0.250000
O O6 0.853096 0.292017 0.118597
O O7 0.065584 0.259649 0.087716
O O8 0.994111 0.380788 0.168439
O O9 0.266753 0.237230 0.372634
O O10 0.188381 0.361607 0.416776
O O11 0.189385 0.266056 0.553798
O O12 0.241630 0.618769 0.248467
O O13 0.258792 0.616562 0.067875
O O14 0.750000 0.500000 0.638858
O O15 0.918618 0.555336 0.698462
O O16 0.879375 0.984013 0.627344
O O17 0.750000 0.000000 0.479661
O O18 0.225969 0.250000 0.750000
#
# Coordination Sequence:
#
# PCOD9413031 Si02
#       8
#     8   8   8   8   8   8   8   8
#     4  12  24  37  59  95 139 175 206 278 355 405
#     4  11  22  44  68  95 131 179 235 270 327 427
#     4  12  23  41  76  97 124 185 235 271 343 411
#     4  11  21  37  61 102 134 165 218 283 339 402
#     4  11  21  42  66 107 137 166 225 293 341 400
#     4  11  21  32  53  93 137 174 212 255 331 414
#     4  11  20  35  64  94 135 172 214 281 345 399
#     4  11  29  46  63  94 137 178 228 289 340 405
#
# _framework density 19.647770999999999
#
# number of rings (size 3 to 8) (size 9 to 14) (size 15 to 20)
#    0.000    0.750    7.500    1.500    5.250    1.000 
#    0.000    0.000    5.500    1.500    0.000    0.000 
#    0.000    0.000    0.000    0.000    0.000    0.000 
#
# Total GULP energy -356792.174528 kJ/mol
# GULP energy per Si atom -5574.877727 kJ/mol
# Density = 1.960305 g / cm^3
# Si number density = 19.647771 Si / 1000 Ang^3
#
#
#
# Elastic Constant Matrix: (Units=GPa)
#
#
# Indices 1 2 3 4 5 6 
#
# 1 98.9783 45.4248 43.7629 0.0000 0.0000 0.0000
# 2 45.4248 156.6841 56.7864 0.0000 0.0000 0.0000
# 3 43.7629 56.7864 80.0572 0.0000 0.0000 0.0000
# 4 0.0000 0.0000 0.0000 24.3188 0.0000 0.0000
# 5 0.0000 0.0000 0.0000 0.0000 20.9717 0.0000
# 6 0.0000 0.0000 0.0000 0.0000 0.0000 23.7269
#
#
#
# Elastic Compliance Matrix: (Units=1/GPa)
#
#
# Indices 1 2 3 4 5 6 
#
# 1 0.013647 -0.001686 -0.006264 0.000000 0.000000 0.000000
# 2 -0.001686 0.008799 -0.005320 0.000000 0.000000 0.000000
# 3 -0.006264 -0.005320 0.019689 0.000000 0.000000 0.000000
# 4 0.000000 0.000000 0.000000 0.041120 0.000000 0.000000
# 5 0.000000 0.000000 0.000000 0.000000 0.047683 0.000000
# 6 0.000000 0.000000 0.000000 0.000000 0.000000 0.042146
#
#
# Mechanical properties :
#
#
# Convention : Reuss Voigt Hill
#
# Bulk Modulus (GPa) = 64.12346 69.74088 66.93217
# Shear Modulus (GPa) = 24.41148 26.45319 25.43233
#
# Velocity S-wave (km/s) = 3.52867 3.67327 3.60170
# Velocity P-wave (km/s) = 7.02206 7.31869 7.17191
#
# Compressibility (1/GPa) = 0.01559492
#
# Stress axis : x y z
#
# Youngs Moduli (GPa) = 73.27844 113.64810 50.79107
#
# Poissons Ratio (x) = 0.19163 0.31815
# Poissons Ratio (y) = 0.12356 0.27019
# Poissons Ratio (z) = 0.45900 0.60457
#
# Static dielectric constant tensor:
#      x y z
#    x 1.723040 0.000000 0.000000 
#    y 0.000000 1.823320 0.000000 
#    z 0.000000 0.000000 1.724320 
# 
# From -- ./inp_files/26347.got.cif
#   From: 2010.05.17/outbox.cif.g08.bks.cpg/sg52_14_cif.got.tgz:26347.got - 2010.06.03 12:15:38.
