data_PCOD9413806
_publ_section_title
;
Structure prediction by ZEFSAII (Michael W. Deem and Ramdas Pophale) SiO2 
 PCOD9413806
Probable space group: P N N A
;
_chemical_formula_sum "Si O2"
_cell_formula_units_Z 20
_cell_length_a 23.926488
_cell_length_b 4.843010
_cell_length_c 7.483479
_cell_angle_alpha 90.000000
_cell_angle_beta 90.000000
_cell_angle_gamma 90.000000
_cell_volume 867.157264
_symmetry_space_group_name_H-M "P N N A"
_symmetry_group_IT_number 52
_symmetry_cell_setting 'orthorhombic'
loop_
_space_group_symop_operation_xyz
x,y,z
1/2-x,-y,z
x,1/2-y,1/2-z
1/2-x,1/2+y,1/2-z
-x,-y,-z
1/2+x,y,-z
-x,1/2+y,1/2+z
1/2+x,1/2-y,1/2+z
loop_
_atom_site_type_symbol
_atom_site_label
_atom_site_fract_x
_atom_site_fract_y
_atom_site_fract_z
Si Si1 0.713877 0.750000 0.250000
Si Si2 0.943401 0.838760 0.047685
Si Si3 0.130433 0.839291 0.448351
O O1 0.750000 0.500000 0.331184
O O2 0.678611 0.899472 0.408510
O O3 0.950312 0.750000 0.250000
O O4 0.103510 0.932229 0.967664
O O5 0.918391 0.573883 0.941728
O O6 0.000000 0.000000 0.000000
O O7 0.148755 0.750000 0.250000
#
# Coordination Sequence:
#
# PCOD9413806 Si02
#       3
#     4   8   8
#     4  12  26  48  78 104 144 194 244 310 376 420
#     4  12  24  45  71 106 150 197 240 293 363 441
#     4  12  26  47  73 107 149 187 245 307 357 438
#
# _framework density 23.063866000000001
#
# number of rings (size 3 to 8) (size 9 to 14) (size 15 to 20)
#    0.000    0.000    4.000    6.000    0.000    4.800 
#    0.000    0.000    0.000    0.000    0.000    0.000 
#    0.000    0.000    0.000    0.000    0.000    0.000 
#
# Total GULP energy -111800.533263 kJ/mol
# GULP energy per Si atom -5590.026663 kJ/mol
# Density = 2.301137 g / cm^3
# Si number density = 23.063866 Si / 1000 Ang^3
#
#
#
# Elastic Constant Matrix: (Units=GPa)
#
#
# Indices 1 2 3 4 5 6 
#
# 1 60.8943 15.4356 52.8970 0.0000 0.0000 0.0000
# 2 15.4356 127.5706 25.9914 0.0000 0.0000 0.0000
# 3 52.8970 25.9914 125.5553 0.0000 0.0000 0.0000
# 4 0.0000 0.0000 0.0000 45.4709 0.0000 0.0000
# 5 0.0000 0.0000 0.0000 0.0000 -51.5128 0.0000
# 6 0.0000 0.0000 0.0000 0.0000 0.0000 48.7924
#
#
#
# Elastic Compliance Matrix: (Units=1/GPa)
#
#
# Indices 1 2 3 4 5 6 
#
# 1 0.026012 -0.000955 -0.010761 0.000000 0.000000 0.000000
# 2 -0.000955 0.008219 -0.001299 0.000000 0.000000 0.000000
# 3 -0.010761 -0.001299 0.012767 0.000000 0.000000 0.000000
# 4 0.000000 0.000000 0.000000 0.021992 0.000000 0.000000
# 5 0.000000 0.000000 0.000000 0.000000 -0.019413 0.000000
# 6 0.000000 0.000000 0.000000 0.000000 0.000000 0.020495
#
#
# Mechanical properties :
#
#
# Convention : Reuss Voigt Hill
#
# Bulk Modulus (GPa) = 47.69230 55.85200 51.77215
# Shear Modulus (GPa) = 48.50013 23.19651 35.84832
#
# Velocity S-wave (km/s) = 4.59067 3.17480 3.94675
# Velocity P-wave (km/s) = 6.98729 6.14068 6.57762
#
# Compressibility (1/GPa) = 0.02096775
#
# Stress axis : x y z
#
# Youngs Moduli (GPa) = 38.44389 121.66904 78.32489
#
# Poissons Ratio (x) = 0.11617 0.84288
# Poissons Ratio (y) = 0.03671 0.10176
# Poissons Ratio (z) = 0.41371 0.15807
#
# Static dielectric constant tensor:
#      x y z
#    x 1.945190 0.000000 0.000000 
#    y 0.000000 1.880790 0.000000 
#    z 0.000000 0.000000 2.001340 
# 
# From -- ./inp_files/11167.got.cif
#   From: 2010.05.17/outbox.cif.g08.bks.cpg/sg52_6_cif.got.tgz:11167.got - 2010.06.03 12:15:38.
