data_PCOD9413522
_publ_section_title
;
Structure prediction by ZEFSAII (Michael W. Deem and Ramdas Pophale) SiO2 
 PCOD9413522
Probable space group: P N N A
;
_chemical_formula_sum "Si O2"
_cell_formula_units_Z 36
_cell_length_a 9.235715
_cell_length_b 21.527838
_cell_length_c 6.699334
_cell_angle_alpha 90.000000
_cell_angle_beta 90.000000
_cell_angle_gamma 90.000000
_cell_volume 1331.994924
_symmetry_space_group_name_H-M "P N N A"
_symmetry_group_IT_number 52
_symmetry_cell_setting 'orthorhombic'
loop_
_space_group_symop_operation_xyz
x,y,z
1/2-x,-y,z
x,1/2-y,1/2-z
1/2-x,1/2+y,1/2-z
-x,-y,-z
1/2+x,y,-z
-x,1/2+y,1/2+z
1/2+x,1/2-y,1/2+z
loop_
_atom_site_type_symbol
_atom_site_label
_atom_site_fract_x
_atom_site_fract_y
_atom_site_fract_z
Si Si1 0.147847 0.808553 0.634301
Si Si2 0.122418 0.750000 0.250000
Si Si3 0.389783 0.972464 0.735584
Si Si4 0.902878 0.851783 0.076632
Si Si5 0.585579 0.091198 0.656241
O O1 0.080635 0.750000 0.750000
O O2 0.211765 0.782474 0.427188
O O3 0.262620 0.835452 0.790786
O O4 0.029950 0.858902 0.574810
O O5 0.016727 0.798305 0.134101
O O6 0.467391 0.916794 0.847091
O O7 0.329058 0.938206 0.531998
O O8 0.250000 0.000000 0.844911
O O9 0.496902 0.029436 0.713182
O O10 0.858496 0.871756 0.851341
#
# Coordination Sequence:
#
# PCOD9413522 Si02
#       5
#     8   4   8   8   8
#     4  12  25  46  73 110 144 198 250 306 379 449
#     4  12  26  46  72 106 152 192 250 314 376 448
#     4  11  24  46  73 108 147 195 248 303 378 448
#     4  12  25  46  73 105 149 194 245 307 378 444
#     4  11  25  46  72 107 154 188 246 313 371 445
#
# _framework density 27.027128000000001
#
# number of rings (size 3 to 8) (size 9 to 14) (size 15 to 20)
#    0.000    0.444    7.778    0.667    0.000    2.667 
#   10.000    0.000    0.000    0.000    0.000    0.000 
#    0.000    0.000    0.000    0.000    0.000    0.000 
#
# Total GULP energy -201251.055740 kJ/mol
# GULP energy per Si atom -5590.307104 kJ/mol
# Density = 2.696561 g / cm^3
# Si number density = 27.027128 Si / 1000 Ang^3
#
#
#
# Elastic Constant Matrix: (Units=GPa)
#
#
# Indices 1 2 3 4 5 6 
#
# 1 46.0396 26.6073 20.0756 0.0000 0.0000 0.0000
# 2 26.6073 174.6098 62.4967 0.0000 0.0000 0.0000
# 3 20.0756 62.4967 188.4079 0.0000 0.0000 0.0000
# 4 0.0000 0.0000 0.0000 37.0459 0.0000 0.0000
# 5 0.0000 0.0000 0.0000 0.0000 35.1007 0.0000
# 6 0.0000 0.0000 0.0000 0.0000 0.0000 37.7852
#
#
#
# Elastic Compliance Matrix: (Units=1/GPa)
#
#
# Indices 1 2 3 4 5 6 
#
# 1 0.024205 -0.003138 -0.001538 0.000000 0.000000 0.000000
# 2 -0.003138 0.006905 -0.001956 0.000000 0.000000 0.000000
# 3 -0.001538 -0.001956 0.006120 0.000000 0.000000 0.000000
# 4 0.000000 0.000000 0.000000 0.026994 0.000000 0.000000
# 5 0.000000 0.000000 0.000000 0.000000 0.028489 0.000000
# 6 0.000000 0.000000 0.000000 0.000000 0.000000 0.026465
#
#
# Mechanical properties :
#
#
# Convention : Reuss Voigt Hill
#
# Bulk Modulus (GPa) = 41.72599 69.71293 55.71946
# Shear Modulus (GPa) = 35.60443 41.97820 38.79131
#
# Velocity S-wave (km/s) = 3.63348 3.94533 3.79261
# Velocity P-wave (km/s) = 5.75109 6.82670 6.31185
#
# Compressibility (1/GPa) = 0.02396588
#
# Stress axis : x y z
#
# Youngs Moduli (GPa) = 41.31451 144.81483 163.38680
#
# Poissons Ratio (x) = 0.45439 0.25133
# Poissons Ratio (y) = 0.12963 0.31962
# Poissons Ratio (z) = 0.06355 0.28329
#
# Static dielectric constant tensor:
#      x y z
#    x 2.018520 0.000000 0.000000 
#    y 0.000000 2.091040 0.000000 
#    z 0.000000 0.000000 2.253450 
# 
# From -- ./inp_files/1211.got.cif
#   From: 2010.05.17/outbox.cif.g08.bks.cpg/sg52_1_cif.got.tgz:1211.got - 2010.06.03 12:15:38.
