data_PCOD9413357
_publ_section_title
;
Structure prediction by ZEFSAII (Michael W. Deem and Ramdas Pophale) SiO2 
 PCOD9413357
Probable space group: P N N A
;
_chemical_formula_sum "Si O2"
_cell_formula_units_Z 64
_cell_length_a 23.233015
_cell_length_b 9.222864
_cell_length_c 14.151635
_cell_angle_alpha 90.000000
_cell_angle_beta 90.000000
_cell_angle_gamma 90.000000
_cell_volume 3032.340707
_symmetry_space_group_name_H-M "P N N A"
_symmetry_group_IT_number 52
_symmetry_cell_setting 'orthorhombic'
loop_
_space_group_symop_operation_xyz
x,y,z
1/2-x,-y,z
x,1/2-y,1/2-z
1/2-x,1/2+y,1/2-z
-x,-y,-z
1/2+x,y,-z
-x,1/2+y,1/2+z
1/2+x,1/2-y,1/2+z
loop_
_atom_site_type_symbol
_atom_site_label
_atom_site_fract_x
_atom_site_fract_y
_atom_site_fract_z
Si Si1 0.535461 0.296188 0.988784
Si Si2 0.301761 0.400346 0.804126
Si Si3 0.778400 0.848402 0.842783
Si Si4 0.412665 0.287531 0.079283
Si Si5 0.403012 0.553573 0.393784
Si Si6 0.085712 0.397551 0.811748
Si Si7 0.712263 0.637794 0.976782
Si Si8 0.963107 0.981839 0.701495
O O1 0.558464 0.134996 0.970812
O O2 0.544609 0.386110 0.892705
O O3 0.467643 0.301895 0.010755
O O4 0.569099 0.357595 0.079906
O O5 0.250000 0.500000 0.763945
O O6 0.311493 0.250000 0.750000
O O7 0.358180 0.501875 0.807128
O O8 0.283441 0.355646 0.910358
O O9 0.783939 0.750000 0.750000
O O10 0.840031 0.877921 0.889327
O O11 0.738205 0.772112 0.920060
O O12 0.750000 0.000000 0.813961
O O13 0.355236 0.368602 0.046432
O O14 0.433889 0.365580 0.174115
O O15 0.400108 0.117998 0.090264
O O16 0.432291 0.579824 0.292493
O O17 0.091998 0.250000 0.750000
O O18 0.029785 0.486628 0.776803
O O19 0.750000 0.500000 0.945656
#
# Coordination Sequence:
#
# PCOD9413357 Si02
#       8
#     8   8   8   8   8   8   8   8
#     4  11  24  43  71 102 142 182 235 284 351 418
#     4  11  26  47  73 100 133 178 234 292 350 417
#     4  12  27  46  67 106 142 190 233 287 343 424
#     4  11  23  44  66 100 140 186 231 286 345 416
#     4  12  26  42  69 106 145 180 233 287 351 416
#     4  11  24  46  70 101 137 183 234 291 355 410
#     4  11  26  45  72  96 137 187 234 284 352 413
#     4  11  23  42  68 100 140 187 229 282 348 415
#
# _framework density 21.105808
#
# number of rings (size 3 to 8) (size 9 to 14) (size 15 to 20)
#    0.000    0.750    1.250    7.125    8.750    3.500 
#    0.000    0.000    0.000    0.000    0.000    0.000 
#    0.000    0.000    0.000    0.000    0.000    0.000 
#
# Total GULP energy -358135.144189 kJ/mol
# GULP energy per Si atom -5595.861628 kJ/mol
# Density = 2.105777 g / cm^3
# Si number density = 21.105808 Si / 1000 Ang^3
#
#
#
# Elastic Constant Matrix: (Units=GPa)
#
#
# Indices 1 2 3 4 5 6 
#
# 1 145.5210 60.9374 34.9164 0.0000 0.0000 0.0000
# 2 60.9374 120.6761 30.3325 0.0000 0.0000 0.0000
# 3 34.9164 30.3325 59.5673 0.0000 0.0000 0.0000
# 4 0.0000 0.0000 0.0000 19.0158 0.0000 0.0000
# 5 0.0000 0.0000 0.0000 0.0000 -7.8476 0.0000
# 6 0.0000 0.0000 0.0000 0.0000 0.0000 12.1330
#
#
#
# Elastic Compliance Matrix: (Units=1/GPa)
#
#
# Indices 1 2 3 4 5 6 
#
# 1 0.009315 -0.003820 -0.003515 0.000000 0.000000 0.000000
# 2 -0.003820 0.011070 -0.003398 0.000000 0.000000 0.000000
# 3 -0.003515 -0.003398 0.020578 0.000000 0.000000 0.000000
# 4 0.000000 0.000000 0.000000 0.052588 0.000000 0.000000
# 5 0.000000 0.000000 0.000000 0.000000 -0.127428 0.000000
# 6 0.000000 0.000000 0.000000 0.000000 0.000000 0.082420
#
#
# Mechanical properties :
#
#
# Convention : Reuss Voigt Hill
#
# Bulk Modulus (GPa) = 51.28850 64.23745 57.76297
# Shear Modulus (GPa) = 65.35346 17.96545 41.65945
#
# Velocity S-wave (km/s) = 5.57063 2.92071 4.44761
# Velocity P-wave (km/s) = 8.10736 6.47117 7.33503
#
# Compressibility (1/GPa) = 0.01949755
#
# Stress axis : x y z
#
# Youngs Moduli (GPa) = 107.35421 90.33633 48.59541
#
# Poissons Ratio (x) = 0.34511 0.17080
# Poissons Ratio (y) = 0.41012 0.16511
# Poissons Ratio (z) = 0.37733 0.30692
#
# Static dielectric constant tensor:
#      x y z
#    x 1.746830 0.000000 0.000000 
#    y 0.000000 1.828160 0.000000 
#    z 0.000000 0.000000 1.756550 
# 
# From -- ./inp_files/29231.got.cif
#   From: 2010.05.17/outbox.cif.g08.bks.cpg/sg52_15_cif.got.tgz:29231.got - 2010.06.03 12:15:38.
