data_PCOD9413376
_publ_section_title
;
Structure prediction by ZEFSAII (Michael W. Deem and Ramdas Pophale) SiO2 
 PCOD9413376
Probable space group: P N N A
;
_chemical_formula_sum "Si O2"
_cell_formula_units_Z 40
_cell_length_a 11.340510
_cell_length_b 5.580271
_cell_length_c 27.052414
_cell_angle_alpha 90.000000
_cell_angle_beta 90.000000
_cell_angle_gamma 90.000000
_cell_volume 1711.961137
_symmetry_space_group_name_H-M "P N N A"
_symmetry_group_IT_number 52
_symmetry_cell_setting 'orthorhombic'
loop_
_space_group_symop_operation_xyz
x,y,z
1/2-x,-y,z
x,1/2-y,1/2-z
1/2-x,1/2+y,1/2-z
-x,-y,-z
1/2+x,y,-z
-x,1/2+y,1/2+z
1/2+x,1/2-y,1/2+z
loop_
_atom_site_type_symbol
_atom_site_label
_atom_site_fract_x
_atom_site_fract_y
_atom_site_fract_z
Si Si1 0.360834 0.683519 0.527820
Si Si2 0.250000 0.500000 0.353737
Si Si3 0.250000 0.000000 0.294132
Si Si4 0.986482 0.503628 0.226897
Si Si5 0.624131 0.509152 0.123125
Si Si6 0.950860 0.864119 0.928869
O O1 0.250000 0.500000 0.523921
O O2 0.343592 0.842526 0.576323
O O3 0.488605 0.582310 0.543232
O O4 0.382413 0.783403 0.472157
O O5 0.255950 0.247151 0.325138
O O6 0.137007 0.464205 0.388510
O O7 0.372509 0.995921 0.264675
O O8 0.938857 0.750000 0.250000
O O9 0.965813 0.534415 0.168198
O O10 0.941062 0.250000 0.250000
O O11 0.750000 0.500000 0.150589
O O12 0.560247 0.730813 0.096485
#
# Coordination Sequence:
#
# PCOD9413376 Si02
#       6
#     8   4   4   8   8   8
#     4  11  23  43  70 103 148 191 245 294 361 445
#     4  12  24  43  76 112 148 198 232 309 362 446
#     4  12  24  47  78 106 150 184 246 299 384 442
#     4  12  28  48  75 107 143 188 246 313 378 442
#     4  12  26  46  72 100 143 193 247 306 370 443
#     4  11  24  44  67 108 148 190 244 291 367 440
#
# _framework density 23.365017000000002
#
# number of rings (size 3 to 8) (size 9 to 14) (size 15 to 20)
#    0.000    0.400    5.000    3.600    2.800    0.800 
#    1.800    0.000    0.000    0.000    0.000    0.000 
#    0.000    0.000    0.000    0.000    0.000    0.000 
#
# Total GULP energy -222831.450680 kJ/mol
# GULP energy per Si atom -5570.786267 kJ/mol
# Density = 2.331184 g / cm^3
# Si number density = 23.365017 Si / 1000 Ang^3
#
#
#
# Elastic Constant Matrix: (Units=GPa)
#
#
# Indices 1 2 3 4 5 6 
#
# 1 82.6280 16.8333 -7.6217 0.0000 0.0000 0.0000
# 2 16.8333 122.8725 55.9121 0.0000 0.0000 0.0000
# 3 -7.6217 55.9121 86.2346 0.0000 0.0000 0.0000
# 4 0.0000 0.0000 0.0000 36.0852 0.0000 0.0000
# 5 0.0000 0.0000 0.0000 0.0000 20.0928 0.0000
# 6 0.0000 0.0000 0.0000 0.0000 0.0000 29.3912
#
#
#
# Elastic Compliance Matrix: (Units=1/GPa)
#
#
# Indices 1 2 3 4 5 6 
#
# 1 0.013075 -0.003287 0.003287 0.000000 0.000000 0.000000
# 2 -0.003287 0.012371 -0.008311 0.000000 0.000000 0.000000
# 3 0.003287 -0.008311 0.017276 0.000000 0.000000 0.000000
# 4 0.000000 0.000000 0.000000 0.027712 0.000000 0.000000
# 5 0.000000 0.000000 0.000000 0.000000 0.049769 0.000000
# 6 0.000000 0.000000 0.000000 0.000000 0.000000 0.034024
#
#
# Mechanical properties :
#
#
# Convention : Reuss Voigt Hill
#
# Bulk Modulus (GPa) = 38.31620 46.88696 42.60158
# Shear Modulus (GPa) = 27.84749 32.22126 30.03437
#
# Velocity S-wave (km/s) = 3.45606 3.71757 3.58920
# Velocity P-wave (km/s) = 5.68861 6.20788 5.95391
#
# Compressibility (1/GPa) = 0.02609862
#
# Stress axis : x y z
#
# Youngs Moduli (GPa) = 76.48054 80.83512 57.88491
#
# Poissons Ratio (x) = 0.26570 -0.19025
# Poissons Ratio (y) = 0.25138 0.48111
# Poissons Ratio (z) = -0.25137 0.67186
#
# Static dielectric constant tensor:
#      x y z
#    x 2.378420 0.000000 0.000000 
#    y 0.000000 3.290790 0.000000 
#    z 0.000000 0.000000 1.941430 
# 
# From -- ./inp_files/42538.got.cif
#   From: 2010.05.17/outbox.cif.g08.bks.cpg/sg52_22_cif.got.tgz:42538.got - 2010.06.03 12:15:38.
