data_PCOD9413790
_publ_section_title
;
Structure prediction by ZEFSAII (Michael W. Deem and Ramdas Pophale) SiO2 
 PCOD9413790
Probable space group: P N N A
;
_chemical_formula_sum "Si O2"
_cell_formula_units_Z 48
_cell_length_a 14.971067
_cell_length_b 16.245692
_cell_length_c 9.455569
_cell_angle_alpha 90.000000
_cell_angle_beta 90.000000
_cell_angle_gamma 90.000000
_cell_volume 2299.739461
_symmetry_space_group_name_H-M "P N N A"
_symmetry_group_IT_number 52
_symmetry_cell_setting 'orthorhombic'
loop_
_space_group_symop_operation_xyz
x,y,z
1/2-x,-y,z
x,1/2-y,1/2-z
1/2-x,1/2+y,1/2-z
-x,-y,-z
1/2+x,y,-z
-x,1/2+y,1/2+z
1/2+x,1/2-y,1/2+z
loop_
_atom_site_type_symbol
_atom_site_label
_atom_site_fract_x
_atom_site_fract_y
_atom_site_fract_z
Si Si1 0.452481 0.745742 0.908974
Si Si2 0.149966 0.018667 0.301343
Si Si3 0.570243 0.442732 0.075180
Si Si4 0.328430 0.649742 0.407423
Si Si5 0.380720 0.371993 0.397874
Si Si6 0.149321 0.005190 0.864405
O O1 0.411923 0.750000 0.750000
O O2 0.465361 0.649527 0.932169
O O3 0.542026 0.802702 0.904890
O O4 0.383785 0.775388 0.029051
O O5 0.151197 0.038913 0.466809
O O6 0.126452 0.105179 0.226747
O O7 0.250000 0.000000 0.250833
O O8 0.103439 0.938030 0.230650
O O9 0.589502 0.472454 0.232279
O O10 0.500000 0.500000 0.000000
O O11 0.221536 0.663212 0.386007
O O12 0.343541 0.580338 0.526911
O O13 0.380511 0.426915 0.541971
O O14 0.250000 0.000000 0.808512
#
# Coordination Sequence:
#
# PCOD9413790 Si02
#       6
#     8   8   8   8   8   8
#     4  12  24  42  65  95 135 171 213 270 323 380
#     4   9  20  41  67  94 125 166 214 266 323 383
#     4  12  25  39  59  96 132 166 212 263 331 377
#     4   9  20  42  69  94 121 169 217 262 317 389
#     4   9  21  43  71  94 121 170 224 258 318 391
#     4   9  19  41  69  91 122 170 215 258 316 390
#
# _framework density 20.871929999999999
#
# number of rings (size 3 to 8) (size 9 to 14) (size 15 to 20)
#    0.000    2.000    1.667    3.500    2.333    2.000 
#   12.000    0.000    0.000    0.000    0.000    0.000 
#    0.000    0.000    0.000    0.000    0.000    0.000 
#
# Total GULP energy -267509.463927 kJ/mol
# GULP energy per Si atom -5573.113832 kJ/mol
# Density = 2.082442 g / cm^3
# Si number density = 20.871930 Si / 1000 Ang^3
#
#
#
# Elastic Constant Matrix: (Units=GPa)
#
#
# Indices 1 2 3 4 5 6 
#
# 1 51.6204 36.3828 14.3718 0.0000 0.0000 0.0000
# 2 36.3828 121.4123 16.9474 0.0000 0.0000 0.0000
# 3 14.3718 16.9474 67.8301 0.0000 0.0000 0.0000
# 4 0.0000 0.0000 0.0000 -114.9506 0.0000 0.0000
# 5 0.0000 0.0000 0.0000 0.0000 30.4632 0.0000
# 6 0.0000 0.0000 0.0000 0.0000 0.0000 9.8822
#
#
#
# Elastic Compliance Matrix: (Units=1/GPa)
#
#
# Indices 1 2 3 4 5 6 
#
# 1 0.025382 -0.007103 -0.003603 0.000000 0.000000 0.000000
# 2 -0.007103 0.010522 -0.001124 0.000000 0.000000 0.000000
# 3 -0.003603 -0.001124 0.015787 0.000000 0.000000 0.000000
# 4 0.000000 0.000000 0.000000 -0.008699 0.000000 0.000000
# 5 0.000000 0.000000 0.000000 0.000000 0.032827 0.000000
# 6 0.000000 0.000000 0.000000 0.000000 0.000000 0.101193
#
#
# Mechanical properties :
#
#
# Convention : Reuss Voigt Hill
#
# Bulk Modulus (GPa) = 35.67571 41.80743 38.74157
# Shear Modulus (GPa) = 23.80799 -3.37700 10.21549
#
# Velocity S-wave (km/s) = 3.38104 -1.27337 2.21472
# Velocity P-wave (km/s) = 5.68962 4.23225 5.01417
#
# Compressibility (1/GPa) = 0.02803028
#
# Stress axis : x y z
#
# Youngs Moduli (GPa) = 39.39858 95.04098 63.34336
#
# Poissons Ratio (x) = 0.67507 0.22824
# Poissons Ratio (y) = 0.27985 0.07119
# Poissons Ratio (z) = 0.14196 0.10682
#
# Static dielectric constant tensor:
#      x y z
#    x 1.752550 0.000000 0.000000 
#    y 0.000000 1.780320 0.000000 
#    z 0.000000 0.000000 1.786060 
# 
# From -- ./inp_files/10451.got.cif
#   From: 2010.05.17/outbox.cif.g08.bks.cpg/sg52_6_cif.got.tgz:10451.got - 2010.06.03 12:15:38.
