data_PCOD9413547
_publ_section_title
;
Structure prediction by ZEFSAII (Michael W. Deem and Ramdas Pophale) SiO2 
 PCOD9413547
Probable space group: P N N A
;
_chemical_formula_sum "Si O2"
_cell_formula_units_Z 32
_cell_length_a 9.506185
_cell_length_b 23.979911
_cell_length_c 6.021624
_cell_angle_alpha 90.000000
_cell_angle_beta 90.000000
_cell_angle_gamma 90.000000
_cell_volume 1372.674174
_symmetry_space_group_name_H-M "P N N A"
_symmetry_group_IT_number 52
_symmetry_cell_setting 'orthorhombic'
loop_
_space_group_symop_operation_xyz
x,y,z
1/2-x,-y,z
x,1/2-y,1/2-z
1/2-x,1/2+y,1/2-z
-x,-y,-z
1/2+x,y,-z
-x,1/2+y,1/2+z
1/2+x,1/2-y,1/2+z
loop_
_atom_site_type_symbol
_atom_site_label
_atom_site_fract_x
_atom_site_fract_y
_atom_site_fract_z
Si Si1 0.994619 0.954342 0.802867
Si Si2 0.244280 0.420766 0.986489
Si Si3 0.592395 0.140536 0.105672
Si Si4 0.183624 0.686678 0.281816
O O1 0.847052 0.953045 0.671135
O O2 0.993657 0.894837 0.924763
O O3 0.125461 0.952358 0.631585
O O4 0.000000 0.000000 0.000000
O O5 0.136794 0.402889 0.793956
O O6 0.290169 0.361525 0.096926
O O7 0.729794 0.165429 0.994081
O O8 0.483717 0.186000 0.189113
O O9 0.232089 0.750000 0.250000
#
# Coordination Sequence:
#
# PCOD9413547 Si02
#       4
#     8   8   8   8
#     4  11  26  50  79 108 149 203 253 316 386 453
#     4  11  24  50  73 109 152 193 254 314 372 458
#     4  11  24  48  70 108 154 188 260 308 359 469
#     4  11  26  43  75 110 148 201 244 312 382 444
#
# _framework density 23.312159999999999
#
# number of rings (size 3 to 8) (size 9 to 14) (size 15 to 20)
#    0.000    1.000    5.000    0.000    3.500    2.000 
#    4.500    1.250    0.000    0.000    0.000    0.000 
#    0.000    0.000    0.000    0.000    0.000    0.000 
#
# Total GULP energy -178915.367468 kJ/mol
# GULP energy per Si atom -5591.105233 kJ/mol
# Density = 2.325910 g / cm^3
# Si number density = 23.312160 Si / 1000 Ang^3
#
#
#
# Elastic Constant Matrix: (Units=GPa)
#
#
# Indices 1 2 3 4 5 6 
#
# 1 134.9962 64.3170 53.7523 0.0000 0.0000 0.0000
# 2 64.3170 129.0480 69.8533 0.0000 0.0000 0.0000
# 3 53.7523 69.8533 109.2472 0.0000 0.0000 0.0000
# 4 0.0000 0.0000 0.0000 -5.4130 0.0000 0.0000
# 5 0.0000 0.0000 0.0000 0.0000 42.2816 0.0000
# 6 0.0000 0.0000 0.0000 0.0000 0.0000 20.9834
#
#
#
# Elastic Compliance Matrix: (Units=1/GPa)
#
#
# Indices 1 2 3 4 5 6 
#
# 1 0.010212 -0.003624 -0.002707 0.000000 0.000000 0.000000
# 2 -0.003624 0.013137 -0.006617 0.000000 0.000000 0.000000
# 3 -0.002707 -0.006617 0.014716 0.000000 0.000000 0.000000
# 4 0.000000 0.000000 0.000000 -0.184742 0.000000 0.000000
# 5 0.000000 0.000000 0.000000 0.000000 0.023651 0.000000
# 6 0.000000 0.000000 0.000000 0.000000 0.000000 0.047657
#
#
# Mechanical properties :
#
#
# Convention : Reuss Voigt Hill
#
# Bulk Modulus (GPa) = 82.17500 83.23741 82.70620
# Shear Modulus (GPa) = -110.09355 23.92832 -43.08261
#
# Velocity S-wave (km/s) = -6.87956 3.20727 -4.30359
# Velocity P-wave (km/s) = 5.27049 7.03552 3.29549
#
# Compressibility (1/GPa) = 0.01216915
#
# Stress axis : x y z
#
# Youngs Moduli (GPa) = 97.92048 76.12117 67.95189
#
# Poissons Ratio (x) = 0.27589 0.18397
# Poissons Ratio (y) = 0.35490 0.44961
# Poissons Ratio (z) = 0.26510 0.50366
#
# Static dielectric constant tensor:
#      x y z
#    x 1.886750 0.000000 0.000000 
#    y 0.000000 1.926400 0.000000 
#    z 0.000000 0.000000 1.891520 
# 
# From -- ./inp_files/1166.got.cif
#   From: 2010.05.17/outbox.cif.g08.bks.cpg/sg52_1_cif.got.tgz:1166.got - 2010.06.03 12:15:38.
