data_PCOD9413580
_publ_section_title
;
Structure prediction by ZEFSAII (Michael W. Deem and Ramdas Pophale) SiO2 
 PCOD9413580
Probable space group: P N N A
;
_chemical_formula_sum "Si O2"
_cell_formula_units_Z 32
_cell_length_a 12.228733
_cell_length_b 12.497080
_cell_length_c 9.141117
_cell_angle_alpha 90.000000
_cell_angle_beta 90.000000
_cell_angle_gamma 90.000000
_cell_volume 1396.977079
_symmetry_space_group_name_H-M "P N N A"
_symmetry_group_IT_number 52
_symmetry_cell_setting 'orthorhombic'
loop_
_space_group_symop_operation_xyz
x,y,z
1/2-x,-y,z
x,1/2-y,1/2-z
1/2-x,1/2+y,1/2-z
-x,-y,-z
1/2+x,y,-z
-x,1/2+y,1/2+z
1/2+x,1/2-y,1/2+z
loop_
_atom_site_type_symbol
_atom_site_label
_atom_site_fract_x
_atom_site_fract_y
_atom_site_fract_z
Si Si1 0.561867 0.571835 0.716354
Si Si2 0.483271 0.154009 0.894051
Si Si3 0.250000 0.000000 0.363729
Si Si4 0.601760 0.155536 0.465834
Si Si5 0.780056 0.250000 0.250000
O O1 0.543369 0.446105 0.679992
O O2 0.535470 0.627758 0.564542
O O3 0.686908 0.585463 0.764749
O O4 0.484940 0.617251 0.844058
O O5 0.365779 0.164677 0.815491
O O6 0.547491 0.266516 0.913007
O O7 0.343232 0.947252 0.461189
O O8 0.700845 0.212520 0.379430
#
# Coordination Sequence:
#
# PCOD9413580 Si02
#       5
#     8   8   4   8   4
#     4  11  25  46  68 106 144 185 247 308 355 452
#     4  11  25  45  71 101 148 186 247 298 371 443
#     4  12  26  40  76  96 146 184 240 298 376 422
#     4  12  24  47  67 107 142 192 239 307 362 447
#     4  12  24  42  74  98 140 196 230 298 378 424
#
# _framework density 22.906601999999999
#
# number of rings (size 3 to 8) (size 9 to 14) (size 15 to 20)
#    0.000    0.500    2.500    5.250    3.500    0.000 
#    0.000    0.000    0.000    0.000    0.000    0.000 
#    0.000    0.000    0.000    0.000    0.000    0.000 
#
# Total GULP energy -179030.048075 kJ/mol
# GULP energy per Si atom -5594.689002 kJ/mol
# Density = 2.285447 g / cm^3
# Si number density = 22.906602 Si / 1000 Ang^3
#
#
#
# Elastic Constant Matrix: (Units=GPa)
#
#
# Indices 1 2 3 4 5 6 
#
# 1 103.6661 -1.3605 16.0569 0.0000 0.0000 0.0000
# 2 -1.3605 55.7040 1.9602 0.0000 0.0000 0.0000
# 3 16.0569 1.9602 69.8530 0.0000 0.0000 0.0000
# 4 0.0000 0.0000 0.0000 34.6623 0.0000 0.0000
# 5 0.0000 0.0000 0.0000 0.0000 24.9943 0.0000
# 6 0.0000 0.0000 0.0000 0.0000 0.0000 24.4208
#
#
#
# Elastic Compliance Matrix: (Units=1/GPa)
#
#
# Indices 1 2 3 4 5 6 
#
# 1 0.010008 0.000326 -0.002310 0.000000 0.000000 0.000000
# 2 0.000326 0.017980 -0.000579 0.000000 0.000000 0.000000
# 3 -0.002310 -0.000579 0.014863 0.000000 0.000000 0.000000
# 4 0.000000 0.000000 0.000000 0.028850 0.000000 0.000000
# 5 0.000000 0.000000 0.000000 0.000000 0.040009 0.000000
# 6 0.000000 0.000000 0.000000 0.000000 0.000000 0.040949
#
#
# Mechanical properties :
#
#
# Convention : Reuss Voigt Hill
#
# Bulk Modulus (GPa) = 26.50773 29.17070 27.83922
# Shear Modulus (GPa) = 29.34940 30.98657 30.16799
#
# Velocity S-wave (km/s) = 3.58336 3.68195 3.63299
# Velocity P-wave (km/s) = 5.35890 5.55319 5.45691
#
# Compressibility (1/GPa) = 0.03772484
#
# Stress axis : x y z
#
# Youngs Moduli (GPa) = 99.91621 55.61619 67.28125
#
# Poissons Ratio (x) = -0.01812 0.15540
# Poissons Ratio (y) = -0.03254 0.03898
# Poissons Ratio (z) = 0.23078 0.03223
#
# Static dielectric constant tensor:
#      x y z
#    x 1.819540 0.000000 0.000000 
#    y 0.000000 1.953300 0.000000 
#    z 0.000000 0.000000 1.874850 
# 
# From -- ./inp_files/8257.got.cif
#   From: 2010.05.17/outbox.cif.g08.bks.cpg/sg52_5_cif.got.tgz:8257.got - 2010.06.03 12:15:38.
