data_PCOD9413251
_publ_section_title
;
Structure prediction by ZEFSAII (Michael W. Deem and Ramdas Pophale) SiO2 
 PCOD9413251
Probable space group: P N N A
;
_chemical_formula_sum "Si O2"
_cell_formula_units_Z 44
_cell_length_a 26.538751
_cell_length_b 5.173995
_cell_length_c 15.041179
_cell_angle_alpha 90.000000
_cell_angle_beta 90.000000
_cell_angle_gamma 90.000000
_cell_volume 2065.324819
_symmetry_space_group_name_H-M "P N N A"
_symmetry_group_IT_number 52
_symmetry_cell_setting 'orthorhombic'
loop_
_space_group_symop_operation_xyz
x,y,z
1/2-x,-y,z
x,1/2-y,1/2-z
1/2-x,1/2+y,1/2-z
-x,-y,-z
1/2+x,y,-z
-x,1/2+y,1/2+z
1/2+x,1/2-y,1/2+z
loop_
_atom_site_type_symbol
_atom_site_label
_atom_site_fract_x
_atom_site_fract_y
_atom_site_fract_z
Si Si1 0.647346 0.659124 0.492808
Si Si2 0.250000 0.500000 0.595413
Si Si3 0.811109 0.750000 0.250000
Si Si4 0.519564 0.250000 0.250000
Si Si5 0.632386 0.164503 0.603679
Si Si6 0.901015 0.430687 0.173626
Si Si7 0.451940 0.750000 0.250000
Si Si8 0.215496 0.250000 0.250000
O O1 0.705563 0.631341 0.461280
O O2 0.630531 0.375385 0.524833
O O3 0.613257 0.771156 0.412994
O O4 0.641440 0.875295 0.568682
O O5 0.222120 0.311626 0.664505
O O6 0.848982 0.530902 0.216226
O O7 0.558120 0.338510 0.170800
O O8 0.483898 0.492792 0.270577
O O9 0.583614 0.185070 0.665920
O O10 0.679618 0.244397 0.664415
O O11 0.923014 0.250000 0.250000
O O12 0.250000 0.500000 0.251341
#
# Coordination Sequence:
#
# PCOD9413251 Si02
#       8
#     8   4   4   4   8   8   4   4
#     4  12  26  43  67 104 145 186 226 287 338 402
#     4  12  24  38  68  98 144 196 246 266 324 420
#     4  11  22  42  61  97 141 201 230 274 323 404
#     4  11  24  43  86  99 125 186 237 276 357 448
#     4  11  27  46  69  98 143 176 229 299 356 397
#     4  11  23  45  67 101 144 183 225 283 346 409
#     4  11  24  52  75 101 127 181 232 296 371 430
#     4  11  24  45  70  95 129 184 239 286 343 406
#
# _framework density 21.304154
#
# number of rings (size 3 to 8) (size 9 to 14) (size 15 to 20)
#    0.000    0.727    2.727    4.364    6.364    4.364 
#    0.000    5.455    0.000    0.000    0.000    0.000 
#    0.000    0.000    0.000    0.000    0.000    0.000 
#
# Total GULP energy -246000.822433 kJ/mol
# GULP energy per Si atom -5590.927783 kJ/mol
# Density = 2.125566 g / cm^3
# Si number density = 21.304154 Si / 1000 Ang^3
#
#
#
# Elastic Constant Matrix: (Units=GPa)
#
#
# Indices 1 2 3 4 5 6 
#
# 1 134.1224 48.0117 29.9528 0.0000 0.0000 0.0000
# 2 48.0117 96.0266 -4.1702 0.0000 0.0000 0.0000
# 3 29.9528 -4.1702 47.7118 0.0000 0.0000 0.0000
# 4 0.0000 0.0000 0.0000 46.0145 0.0000 0.0000
# 5 0.0000 0.0000 0.0000 0.0000 -14.4556 0.0000
# 6 0.0000 0.0000 0.0000 0.0000 0.0000 46.6907
#
#
#
# Elastic Compliance Matrix: (Units=1/GPa)
#
#
# Indices 1 2 3 4 5 6 
#
# 1 0.011297 -0.005979 -0.007614 0.000000 0.000000 0.000000
# 2 -0.005979 0.013618 0.004944 0.000000 0.000000 0.000000
# 3 -0.007614 0.004944 0.026171 0.000000 0.000000 0.000000
# 4 0.000000 0.000000 0.000000 0.021732 0.000000 0.000000
# 5 0.000000 0.000000 0.000000 0.000000 -0.069177 0.000000
# 6 0.000000 0.000000 0.000000 0.000000 0.000000 0.021418
#
#
# Mechanical properties :
#
#
# Convention : Reuss Voigt Hill
#
# Bulk Modulus (GPa) = 29.59744 47.27214 38.43479
# Shear Modulus (GPa) = 93.24937 29.25436 61.25187
#
# Velocity S-wave (km/s) = 6.62311 3.70966 5.36783
# Velocity P-wave (km/s) = 8.50943 6.37072 7.51653
#
# Compressibility (1/GPa) = 0.03378671
#
# Stress axis : x y z
#
# Youngs Moduli (GPa) = 88.52251 73.43357 38.20960
#
# Poissons Ratio (x) = 0.43904 0.29094
# Poissons Ratio (y) = 0.52925 -0.18889
# Poissons Ratio (z) = 0.67404 -0.36303
#
# Static dielectric constant tensor:
#      x y z
#    x 1.803130 0.000000 0.000000 
#    y 0.000000 1.696200 0.000000 
#    z 0.000000 0.000000 1.791600 
# 
# From -- ./inp_files/29399.got.cif
#   From: 2010.05.17/outbox.cif.g08.bks.cpg/sg52_15_cif.got.tgz:29399.got - 2010.06.03 12:15:38.
