data_PCOD9413065
_publ_section_title
;
Structure prediction by ZEFSAII (Michael W. Deem and Ramdas Pophale) SiO2 
 PCOD9413065
Probable space group: P N N A
;
_chemical_formula_sum "Si O2"
_cell_formula_units_Z 64
_cell_length_a 21.742286
_cell_length_b 15.798311
_cell_length_c 8.781649
_cell_angle_alpha 90.000000
_cell_angle_beta 90.000000
_cell_angle_gamma 90.000000
_cell_volume 3016.420875
_symmetry_space_group_name_H-M "P N N A"
_symmetry_group_IT_number 52
_symmetry_cell_setting 'orthorhombic'
loop_
_space_group_symop_operation_xyz
x,y,z
1/2-x,-y,z
x,1/2-y,1/2-z
1/2-x,1/2+y,1/2-z
-x,-y,-z
1/2+x,y,-z
-x,1/2+y,1/2+z
1/2+x,1/2-y,1/2+z
loop_
_atom_site_type_symbol
_atom_site_label
_atom_site_fract_x
_atom_site_fract_y
_atom_site_fract_z
Si Si1 0.913745 0.213103 0.587587
Si Si2 0.585091 0.066391 0.616177
Si Si3 0.215225 0.652996 0.188762
Si Si4 0.331923 0.003639 0.112818
Si Si5 0.950240 0.420087 0.114893
Si Si6 0.783705 0.861730 0.120931
Si Si7 0.135086 0.865939 0.886145
Si Si8 0.820257 0.829119 0.456418
O O1 0.932750 0.250000 0.750000
O O2 0.852677 0.158112 0.619759
O O3 0.962140 0.151913 0.511856
O O4 0.891663 0.283784 0.469221
O O5 0.632141 0.037838 0.747382
O O6 0.517070 0.069129 0.688419
O O7 0.616083 0.148329 0.538535
O O8 0.575252 0.000428 0.476899
O O9 0.225763 0.750000 0.250000
O O10 0.211229 0.577449 0.310966
O O11 0.266232 0.635321 0.064115
O O12 0.305109 0.935614 0.992572
O O13 0.376202 0.059155 0.005888
O O14 0.899812 0.386222 0.231596
O O15 0.709104 0.858418 0.135675
O O16 0.812311 0.870102 0.289619
O O17 0.806980 0.770793 0.060488
#
# Coordination Sequence:
#
# PCOD9413065 Si02
#       8
#     8   8   8   8   8   8   8   8
#     4  11  20  42  69 100 129 178 231 294 347 410
#     4  11  27  45  70  96 141 193 231 295 344 427
#     4  11  21  41  72 107 139 180 226 292 361 435
#     4  12  25  43  69 105 142 181 229 287 361 432
#     4  11  25  48  67 101 136 184 251 285 346 414
#     4  11  26  43  69 107 142 182 230 294 360 435
#     4  12  23  41  71 103 139 176 232 296 348 421
#     4  11  25  46  67  99 146 188 224 292 364 413
#
# _framework density 21.217198
#
# number of rings (size 3 to 8) (size 9 to 14) (size 15 to 20)
#    0.000    0.750    5.000    2.250    7.000    0.500 
#    6.750    0.000    0.000    0.000    0.000    0.000 
#    0.000    0.000    0.000    0.000    0.000    0.000 
#
# Total GULP energy -357507.552997 kJ/mol
# GULP energy per Si atom -5586.055516 kJ/mol
# Density = 2.116891 g / cm^3
# Si number density = 21.217198 Si / 1000 Ang^3
#
#
#
# Elastic Constant Matrix: (Units=GPa)
#
#
# Indices 1 2 3 4 5 6 
#
# 1 43.2581 48.1102 41.3458 0.0000 0.0000 0.0000
# 2 48.1102 107.2725 51.3802 0.0000 0.0000 0.0000
# 3 41.3458 51.3802 96.3713 0.0000 0.0000 0.0000
# 4 0.0000 0.0000 0.0000 40.9666 0.0000 0.0000
# 5 0.0000 0.0000 0.0000 0.0000 13.8111 0.0000
# 6 0.0000 0.0000 0.0000 0.0000 0.0000 18.1704
#
#
#
# Elastic Compliance Matrix: (Units=1/GPa)
#
#
# Indices 1 2 3 4 5 6 
#
# 1 0.058777 -0.019181 -0.014991 0.000000 0.000000 0.000000
# 2 -0.019181 0.018778 -0.001783 0.000000 0.000000 0.000000
# 3 -0.014991 -0.001783 0.017758 0.000000 0.000000 0.000000
# 4 0.000000 0.000000 0.000000 0.024410 0.000000 0.000000
# 5 0.000000 0.000000 0.000000 0.000000 0.072406 0.000000
# 6 0.000000 0.000000 0.000000 0.000000 0.000000 0.055035
#
#
# Mechanical properties :
#
#
# Convention : Reuss Voigt Hill
#
# Bulk Modulus (GPa) = 42.72463 58.73048 50.72756
# Shear Modulus (GPa) = 15.29643 21.66067 18.47855
#
# Velocity S-wave (km/s) = 2.68795 3.19862 2.95434
# Velocity P-wave (km/s) = 5.46022 6.43290 5.96642
#
# Compressibility (1/GPa) = 0.02340570
#
# Stress axis : x y z
#
# Youngs Moduli (GPa) = 17.01338 53.25359 56.31159
#
# Poissons Ratio (x) = 1.02144 0.84416
# Poissons Ratio (y) = 0.32633 0.10038
# Poissons Ratio (z) = 0.25504 0.09493
#
# Static dielectric constant tensor:
#      x y z
#    x 1.778620 0.000000 0.000000 
#    y 0.000000 1.797530 0.000000 
#    z 0.000000 0.000000 1.775630 
# 
# From -- ./inp_files/14486.got.cif
#   From: 2010.05.17/outbox.cif.g08.bks.cpg/sg52_8_cif.got.tgz:14486.got - 2010.06.03 12:15:38.
