data_PCOD9413111
_publ_section_title
;
Structure prediction by ZEFSAII (Michael W. Deem and Ramdas Pophale) SiO2 
 PCOD9413111
Probable space group: P N N A
;
_chemical_formula_sum "Si O2"
_cell_formula_units_Z 48
_cell_length_a 19.491839
_cell_length_b 15.130817
_cell_length_c 8.833829
_cell_angle_alpha 90.000000
_cell_angle_beta 90.000000
_cell_angle_gamma 90.000000
_cell_volume 2605.338651
_symmetry_space_group_name_H-M "P N N A"
_symmetry_group_IT_number 52
_symmetry_cell_setting 'orthorhombic'
loop_
_space_group_symop_operation_xyz
x,y,z
1/2-x,-y,z
x,1/2-y,1/2-z
1/2-x,1/2+y,1/2-z
-x,-y,-z
1/2+x,y,-z
-x,1/2+y,1/2+z
1/2+x,1/2-y,1/2+z
loop_
_atom_site_type_symbol
_atom_site_label
_atom_site_fract_x
_atom_site_fract_y
_atom_site_fract_z
Si Si1 0.687345 0.443441 0.561829
Si Si2 0.055965 0.935277 0.067593
Si Si3 0.759717 0.658449 0.845726
Si Si4 0.599938 0.658998 0.849931
Si Si5 0.643523 0.244421 0.069824
Si Si6 0.991048 0.253204 0.428879
O O1 0.750000 0.500000 0.498895
O O2 0.625729 0.511509 0.551248
O O3 0.705764 0.412580 0.733427
O O4 0.670570 0.352737 0.476605
O O5 0.057405 0.908253 0.244481
O O6 0.045416 0.844735 0.976395
O O7 0.000000 0.000000 0.000000
O O8 0.758030 0.750000 0.750000
O O9 0.679860 0.634952 0.875901
O O10 0.806640 0.683431 0.989773
O O11 0.600813 0.750000 0.750000
O O12 0.558501 0.678569 0.002115
O O13 0.642789 0.250000 0.250000
O O14 0.566110 0.252514 0.005427
O O15 0.999395 0.250000 0.250000
#
# Coordination Sequence:
#
# PCOD9413111 Si02
#       6
#     8   8   8   8   8   8
#     4  11  21  39  64  89 122 165 208 256 312 371
#     4  11  21  37  64  91 124 162 208 262 313 364
#     4   9  19  37  61  84 114 163 210 246 306 378
#     4   9  19  37  60  86 119 161 206 251 308 376
#     4  11  23  40  62  89 125 167 211 259 315 380
#     4  11  23  40  61  89 126 168 212 256 313 385
#
# _framework density 18.423708000000001
#
# number of rings (size 3 to 8) (size 9 to 14) (size 15 to 20)
#    0.000    1.667    3.333    3.000    2.333    0.667 
#    0.000    3.333    0.000    0.000    0.000    0.000 
#    0.000    0.000    0.000    0.000    0.000    0.000 
#
# Total GULP energy -267604.259519 kJ/mol
# GULP energy per Si atom -5575.088740 kJ/mol
# Density = 1.838177 g / cm^3
# Si number density = 18.423708 Si / 1000 Ang^3
#
#
#
# Elastic Constant Matrix: (Units=GPa)
#
#
# Indices 1 2 3 4 5 6 
#
# 1 150.8822 45.0553 79.1571 0.0000 0.0000 0.0000
# 2 45.0553 60.5559 36.0248 0.0000 0.0000 0.0000
# 3 79.1571 36.0248 158.6985 0.0000 0.0000 0.0000
# 4 0.0000 0.0000 0.0000 29.8468 0.0000 0.0000
# 5 0.0000 0.0000 0.0000 0.0000 28.7347 0.0000
# 6 0.0000 0.0000 0.0000 0.0000 0.0000 26.3731
#
#
#
# Elastic Compliance Matrix: (Units=1/GPa)
#
#
# Indices 1 2 3 4 5 6 
#
# 1 0.010268 -0.005310 -0.003916 0.000000 0.000000 0.000000
# 2 -0.005310 0.021838 -0.002309 0.000000 0.000000 0.000000
# 3 -0.003916 -0.002309 0.008779 0.000000 0.000000 0.000000
# 4 0.000000 0.000000 0.000000 0.033504 0.000000 0.000000
# 5 0.000000 0.000000 0.000000 0.000000 0.034801 0.000000
# 6 0.000000 0.000000 0.000000 0.000000 0.000000 0.037917
#
#
# Mechanical properties :
#
#
# Convention : Reuss Voigt Hill
#
# Bulk Modulus (GPa) = 56.13278 76.73453 66.43366
# Shear Modulus (GPa) = 28.39057 30.98421 29.68739
#
# Velocity S-wave (km/s) = 3.92979 4.10537 4.01854
# Velocity P-wave (km/s) = 7.15016 8.01327 7.59399
#
# Compressibility (1/GPa) = 0.01781490
#
# Stress axis : x y z
#
# Youngs Moduli (GPa) = 97.39215 45.79215 113.91255
#
# Poissons Ratio (x) = 0.24315 0.44609
# Poissons Ratio (y) = 0.51713 0.26300
# Poissons Ratio (z) = 0.38140 0.10572
#
# Static dielectric constant tensor:
#      x y z
#    x 1.620320 0.000000 0.000000 
#    y 0.000000 1.662490 0.000000 
#    z 0.000000 0.000000 1.618080 
# 
# From -- ./inp_files/12026.got.cif
#   From: 2010.05.17/outbox.cif.g08.bks.cpg/sg52_7_cif.got.tgz:12026.got - 2010.06.03 12:15:38.
