data_PCOD9413484
_publ_section_title
;
Structure prediction by ZEFSAII (Michael W. Deem and Ramdas Pophale) SiO2 
 PCOD9413484
Probable space group: P N N A
;
_chemical_formula_sum "Si O2"
_cell_formula_units_Z 40
_cell_length_a 13.299148
_cell_length_b 24.602839
_cell_length_c 4.918924
_cell_angle_alpha 90.000000
_cell_angle_beta 90.000000
_cell_angle_gamma 90.000000
_cell_volume 1609.456178
_symmetry_space_group_name_H-M "P N N A"
_symmetry_group_IT_number 52
_symmetry_cell_setting 'orthorhombic'
loop_
_space_group_symop_operation_xyz
x,y,z
1/2-x,-y,z
x,1/2-y,1/2-z
1/2-x,1/2+y,1/2-z
-x,-y,-z
1/2+x,y,-z
-x,1/2+y,1/2+z
1/2+x,1/2-y,1/2+z
loop_
_atom_site_type_symbol
_atom_site_label
_atom_site_fract_x
_atom_site_fract_y
_atom_site_fract_z
Si Si1 0.366089 0.985432 0.930881
Si Si2 0.595302 0.946451 0.580419
Si Si3 0.264028 0.346527 0.072786
Si Si4 0.623809 0.695761 0.423916
Si Si5 0.057613 0.379714 0.285101
O O1 0.390720 0.924367 0.019373
O O2 0.250000 0.000000 0.985877
O O3 0.423894 0.027980 0.127322
O O4 0.383686 0.003694 0.622379
O O5 0.690833 0.906993 0.603329
O O6 0.508368 0.910659 0.443628
O O7 0.328347 0.308338 0.276574
O O8 0.147787 0.346470 0.147508
O O9 0.289960 0.330970 0.765684
O O10 0.599799 0.750000 0.250000
O O11 0.523498 0.659077 0.429095
#
# Coordination Sequence:
#
# PCOD9413484 Si02
#       5
#     8   8   8   8   8
#     4  12  24  41  68 101 152 195 231 281 353 426
#     4  11  24  44  64 104 148 186 234 284 337 432
#     4  11  25  47  72 102 141 183 236 298 361 431
#     4  11  27  49  72 102 136 177 244 315 372 431
#     4  11  26  44  75 102 142 192 242 288 368 433
#
# _framework density 24.853117000000001
#
# number of rings (size 3 to 8) (size 9 to 14) (size 15 to 20)
#    0.000    0.800    2.000    4.800    0.000    9.600 
#    0.000    0.000    0.000    0.000    0.000    0.000 
#    0.000    0.000    0.000    0.000    0.000    0.000 
#
# Total GULP energy -224254.324220 kJ/mol
# GULP energy per Si atom -5606.358105 kJ/mol
# Density = 2.479655 g / cm^3
# Si number density = 24.853117 Si / 1000 Ang^3
#
#
#
# Elastic Constant Matrix: (Units=GPa)
#
#
# Indices 1 2 3 4 5 6 
#
# 1 147.5994 24.1011 9.8309 0.0000 0.0000 0.0000
# 2 24.1011 69.7691 -4.2419 0.0000 0.0000 0.0000
# 3 9.8309 -4.2419 97.6648 0.0000 0.0000 0.0000
# 4 0.0000 0.0000 0.0000 31.6883 0.0000 0.0000
# 5 0.0000 0.0000 0.0000 0.0000 23.7708 0.0000
# 6 0.0000 0.0000 0.0000 0.0000 0.0000 7.9478
#
#
#
# Elastic Compliance Matrix: (Units=1/GPa)
#
#
# Indices 1 2 3 4 5 6 
#
# 1 0.007248 -0.002555 -0.000841 0.000000 0.000000 0.000000
# 2 -0.002555 0.015272 0.000920 0.000000 0.000000 0.000000
# 3 -0.000841 0.000920 0.010364 0.000000 0.000000 0.000000
# 4 0.000000 0.000000 0.000000 0.031557 0.000000 0.000000
# 5 0.000000 0.000000 0.000000 0.000000 0.042068 0.000000
# 6 0.000000 0.000000 0.000000 0.000000 0.000000 0.125822
#
#
# Mechanical properties :
#
#
# Convention : Reuss Voigt Hill
#
# Bulk Modulus (GPa) = 35.79946 41.60150 38.70048
# Shear Modulus (GPa) = 20.27638 31.70425 25.99031
#
# Velocity S-wave (km/s) = 2.85941 3.57552 3.23732
# Velocity P-wave (km/s) = 5.03362 5.81559 5.43867
#
# Compressibility (1/GPa) = 0.02793338
#
# Stress axis : x y z
#
# Youngs Moduli (GPa) = 137.96385 65.48128 96.49070
#
# Poissons Ratio (x) = 0.16730 0.08111
# Poissons Ratio (y) = 0.35249 -0.08882
# Poissons Ratio (z) = 0.11597 -0.06027
#
# Static dielectric constant tensor:
#      x y z
#    x 2.012560 0.000000 0.000000 
#    y 0.000000 1.984080 0.000000 
#    z 0.000000 0.000000 1.915060 
# 
# From -- ./inp_files/1339.got.cif
#   From: 2010.05.17/outbox.cif.g08.bks.cpg/sg52_1_cif.got.tgz:1339.got - 2010.06.03 12:15:38.
