data_PCOD9413077
_publ_section_title
;
Structure prediction by ZEFSAII (Michael W. Deem and Ramdas Pophale) SiO2 
 PCOD9413077
Probable space group: P N N A
;
_chemical_formula_sum "Si O2"
_cell_formula_units_Z 40
_cell_length_a 12.499108
_cell_length_b 7.975732
_cell_length_c 21.257186
_cell_angle_alpha 90.000000
_cell_angle_beta 90.000000
_cell_angle_gamma 90.000000
_cell_volume 2119.119002
_symmetry_space_group_name_H-M "P N N A"
_symmetry_group_IT_number 52
_symmetry_cell_setting 'orthorhombic'
loop_
_space_group_symop_operation_xyz
x,y,z
1/2-x,-y,z
x,1/2-y,1/2-z
1/2-x,1/2+y,1/2-z
-x,-y,-z
1/2+x,y,-z
-x,1/2+y,1/2+z
1/2+x,1/2-y,1/2+z
loop_
_atom_site_type_symbol
_atom_site_label
_atom_site_fract_x
_atom_site_fract_y
_atom_site_fract_z
Si Si1 0.721888 0.306727 0.559588
Si Si2 0.202437 0.814660 0.820380
Si Si3 0.326128 0.847890 0.569548
Si Si4 0.952314 0.260522 0.553765
Si Si5 0.505723 0.857908 0.088884
O O1 0.750000 0.500000 0.570689
O O2 0.693525 0.287452 0.485620
O O3 0.832386 0.211479 0.573662
O O4 0.611243 0.273274 0.595343
O O5 0.191030 0.750000 0.750000
O O6 0.284912 0.708637 0.862776
O O7 0.090711 0.815206 0.857996
O O8 0.250000 0.000000 0.819134
O O9 0.453868 0.871144 0.568617
O O10 0.250000 0.000000 0.550581
O O11 0.949670 0.298320 0.478973
O O12 0.987188 0.440064 0.584131
#
# Coordination Sequence:
#
# PCOD9413077 Si02
#       5
#     8   8   8   8   8
#     4   9  17  32  56  83 109 143 184 233 294 343
#     4  12  23  39  57  78 110 151 194 237 277 354
#     4  11  21  32  50  84 119 148 183 230 291 343
#     4   9  16  31  57  84 112 142 181 238 288 343
#     4   9  17  31  57  84 106 141 190 234 283 347
#
# _framework density 18.875768999999998
#
# number of rings (size 3 to 8) (size 9 to 14) (size 15 to 20)
#    0.000    2.000    4.000    2.400    0.000    0.800 
#    0.000    0.000    0.000    1.200    5.200    0.000 
#    0.000    0.000    0.000    0.000    0.000    0.000 
#
# Total GULP energy -223169.713679 kJ/mol
# GULP energy per Si atom -5579.242842 kJ/mol
# Density = 1.883281 g / cm^3
# Si number density = 18.875769 Si / 1000 Ang^3
#
#
#
# Elastic Constant Matrix: (Units=GPa)
#
#
# Indices 1 2 3 4 5 6 
#
# 1 196.4132 24.8679 51.6492 0.0000 0.0000 0.0000
# 2 24.8679 26.0202 9.7485 0.0000 0.0000 0.0000
# 3 51.6492 9.7485 99.9296 0.0000 0.0000 0.0000
# 4 0.0000 0.0000 0.0000 22.8581 0.0000 0.0000
# 5 0.0000 0.0000 0.0000 0.0000 45.4776 0.0000
# 6 0.0000 0.0000 0.0000 0.0000 0.0000 23.3030
#
#
#
# Elastic Compliance Matrix: (Units=1/GPa)
#
#
# Indices 1 2 3 4 5 6 
#
# 1 0.006492 -0.005135 -0.002855 0.000000 0.000000 0.000000
# 2 -0.005135 0.043951 -0.001633 0.000000 0.000000 0.000000
# 3 -0.002855 -0.001633 0.011642 0.000000 0.000000 0.000000
# 4 0.000000 0.000000 0.000000 0.043748 0.000000 0.000000
# 5 0.000000 0.000000 0.000000 0.000000 0.021989 0.000000
# 6 0.000000 0.000000 0.000000 0.000000 0.000000 0.042913
#
#
# Mechanical properties :
#
#
# Convention : Reuss Voigt Hill
#
# Bulk Modulus (GPa) = 23.34323 54.98824 39.16574
# Shear Modulus (GPa) = 24.47845 34.06756 29.27300
#
# Velocity S-wave (km/s) = 3.60504 4.25294 3.94232
# Velocity P-wave (km/s) = 5.45179 7.30148 6.44335
#
# Compressibility (1/GPa) = 0.04283898
#
# Stress axis : x y z
#
# Youngs Moduli (GPa) = 154.03323 22.75238 85.89748
#
# Poissons Ratio (x) = 0.11684 0.24520
# Poissons Ratio (y) = 0.79098 0.14031
# Poissons Ratio (z) = 0.43969 0.03717
#
# Static dielectric constant tensor:
#      x y z
#    x 1.735040 0.000000 0.000000 
#    y 0.000000 1.731290 0.000000 
#    z 0.000000 0.000000 1.595200 
# 
# From -- ./inp_files/36623.got.cif
#   From: 2010.05.17/outbox.cif.g08.bks.cpg/sg52_19_cif.got.tgz:36623.got - 2010.06.03 12:15:38.
