data_PCOD9413561
_publ_section_title
;
Structure prediction by ZEFSAII (Michael W. Deem and Ramdas Pophale) SiO2 
 PCOD9413561
Probable space group: P N N A
;
_chemical_formula_sum "Si O2"
_cell_formula_units_Z 40
_cell_length_a 12.643287
_cell_length_b 4.883956
_cell_length_c 26.018393
_cell_angle_alpha 90.000000
_cell_angle_beta 90.000000
_cell_angle_gamma 90.000000
_cell_volume 1606.616447
_symmetry_space_group_name_H-M "P N N A"
_symmetry_group_IT_number 52
_symmetry_cell_setting 'orthorhombic'
loop_
_space_group_symop_operation_xyz
x,y,z
1/2-x,-y,z
x,1/2-y,1/2-z
1/2-x,1/2+y,1/2-z
-x,-y,-z
1/2+x,y,-z
-x,1/2+y,1/2+z
1/2+x,1/2-y,1/2+z
loop_
_atom_site_type_symbol
_atom_site_label
_atom_site_fract_x
_atom_site_fract_y
_atom_site_fract_z
Si Si1 0.820010 0.748691 0.859700
Si Si2 0.862770 0.615185 0.443403
Si Si3 0.517079 0.564660 0.300786
Si Si4 0.056084 0.202352 0.459199
Si Si5 0.628637 0.041509 0.343855
O O1 0.750000 0.500000 0.838104
O O2 0.889023 0.618170 0.906073
O O3 0.896477 0.892517 0.818011
O O4 0.750000 0.000000 0.880232
O O5 0.750000 0.500000 0.426464
O O6 0.851074 0.695772 0.503001
O O7 0.880962 0.853432 0.402015
O O8 0.967943 0.429197 0.445580
O O9 0.534457 0.750000 0.250000
O O10 0.562508 0.258345 0.308488
O O11 0.583351 0.739468 0.341360
O O12 0.000000 0.000000 0.500000
O O13 0.750000 0.000000 0.327274
#
# Coordination Sequence:
#
# PCOD9413561 Si02
#       5
#     8   8   8   8   8
#     4  12  28  48  76 108 150 199 259 319 384 454
#     4  11  25  43  69 105 147 195 245 298 368 451
#     4  12  27  51  78 110 151 195 258 325 391 462
#     4  11  26  43  71 105 151 196 250 302 373 447
#     4  12  26  47  77 113 153 199 249 311 387 467
#
# _framework density 24.897043
#
# number of rings (size 3 to 8) (size 9 to 14) (size 15 to 20)
#    0.000    0.400    2.000    5.400   11.200    2.400 
#    0.000    1.000    0.000    0.000    0.000    0.000 
#    0.000    0.000    0.000    0.000    0.000    0.000 
#
# Total GULP energy -223558.479697 kJ/mol
# GULP energy per Si atom -5588.961992 kJ/mol
# Density = 2.484038 g / cm^3
# Si number density = 24.897043 Si / 1000 Ang^3
#
#
#
# Elastic Constant Matrix: (Units=GPa)
#
#
# Indices 1 2 3 4 5 6 
#
# 1 100.9765 32.3036 3.1168 0.0000 0.0000 0.0000
# 2 32.3036 114.2758 -3.4623 0.0000 0.0000 0.0000
# 3 3.1168 -3.4623 84.4007 0.0000 0.0000 0.0000
# 4 0.0000 0.0000 0.0000 38.1531 0.0000 0.0000
# 5 0.0000 0.0000 0.0000 0.0000 10.7439 0.0000
# 6 0.0000 0.0000 0.0000 0.0000 0.0000 57.0491
#
#
#
# Elastic Compliance Matrix: (Units=1/GPa)
#
#
# Indices 1 2 3 4 5 6 
#
# 1 0.010912 -0.003101 -0.000530 0.000000 0.000000 0.000000
# 2 -0.003101 0.009643 0.000510 0.000000 0.000000 0.000000
# 3 -0.000530 0.000510 0.011889 0.000000 0.000000 0.000000
# 4 0.000000 0.000000 0.000000 0.026210 0.000000 0.000000
# 5 0.000000 0.000000 0.000000 0.000000 0.093076 0.000000
# 6 0.000000 0.000000 0.000000 0.000000 0.000000 0.017529
#
#
# Mechanical properties :
#
#
# Convention : Reuss Voigt Hill
#
# Bulk Modulus (GPa) = 38.16542 40.39658 39.28100
# Shear Modulus (GPa) = 27.13951 39.03555 33.08753
#
# Velocity S-wave (km/s) = 3.30520 3.96394 3.64946
# Velocity P-wave (km/s) = 5.47068 6.10009 5.79394
#
# Compressibility (1/GPa) = 0.02620173
#
# Stress axis : x y z
#
# Youngs Moduli (GPa) = 91.64591 103.70556 84.11312
#
# Poissons Ratio (x) = 0.32155 0.04459
# Poissons Ratio (y) = 0.28415 -0.04290
# Poissons Ratio (z) = 0.04859 -0.05290
#
# Static dielectric constant tensor:
#      x y z
#    x 2.060910 0.000000 0.000000 
#    y 0.000000 2.042720 0.000000 
#    z 0.000000 0.000000 2.030920 
# 
# From -- ./inp_files/42519.got.cif
#   From: 2010.05.17/outbox.cif.g08.bks.cpg/sg52_22_cif.got.tgz:42519.got - 2010.06.03 12:15:38.
