data_PCOD9413982
_publ_section_title
;
Structure prediction by ZEFSAII (Michael W. Deem and Ramdas Pophale) SiO2 
 PCOD9413982
Probable space group: P N N A
;
_chemical_formula_sum "Si O2"
_cell_formula_units_Z 56
_cell_length_a 21.000000
_cell_length_b 15.000000
_cell_length_c 9.000000
_cell_angle_alpha 90.000000
_cell_angle_beta 90.000000
_cell_angle_gamma 90.000000
_cell_volume 2835.000000
_symmetry_space_group_name_H-M "P N N A"
_symmetry_group_IT_number 52
_symmetry_cell_setting 'orthorhombic'
loop_
_space_group_symop_operation_xyz
x,y,z
1/2-x,-y,z
x,1/2-y,1/2-z
1/2-x,1/2+y,1/2-z
-x,-y,-z
1/2+x,y,-z
-x,1/2+y,1/2+z
1/2+x,1/2-y,1/2+z
loop_
_atom_site_type_symbol
_atom_site_label
_atom_site_fract_x
_atom_site_fract_y
_atom_site_fract_z
Si Si1 0.077867 0.769316 0.578264
Si Si2 0.181076 0.496852 0.343275
Si Si3 0.681578 0.172342 0.631526
Si Si4 0.323759 0.331520 0.134892
Si Si5 0.505025 0.490884 0.241966
Si Si6 0.949276 0.870582 0.520826
Si Si7 0.923732 0.425536 0.489321
O O1 0.089543 0.750000 0.750000
O O2 0.123508 0.837668 0.493075
O O3 0.095471 0.676222 0.500851
O O4 0.004936 0.798785 0.551896
O O5 0.250000 0.500000 0.415797
O O6 0.179710 0.414675 0.233842
O O7 0.172448 0.581913 0.237580
O O8 0.128816 0.502349 0.469211
O O9 0.673036 0.250000 0.750000
O O10 0.752709 0.177516 0.566709
O O11 0.621017 0.169305 0.525187
O O12 0.331492 0.250000 0.250000
O O13 0.457442 0.553337 0.148365
O O14 0.552636 0.558027 0.323296
O O15 0.475092 0.440102 0.381307
O O16 0.535976 0.421476 0.130849
#
# Coordination Sequence:
#
# PCOD9413982 Si02
#       7
#     8   8   8   8   8   8   8
#     4  12  24  37  62  93 125 158 203 255 308 356
#     4  10  20  37  63  91 116 160 209 250 297 365
#     4  10  22  38  63  90 121 160 201 250 303 363
#     4  10  21  39  64  90 119 160 206 248 295 367
#     4  10  23  36  61  86 123 156 202 249 309 356
#     4  11  22  39  59  91 121 161 199 254 302 367
#     4  11  21  40  60  89 119 161 202 253 300 369
#
# _framework density 19.753086
#
# number of rings (size 3 to 8) (size 9 to 14) (size 15 to 20)
#    0.000    1.429    4.286    1.286    2.000    0.000 
#    0.000    1.429    3.143    0.000    0.000    0.000 
#    0.000    0.000    0.000    0.000    0.000    0.000 
#
# Total GULP energy -312041.715222 kJ/mol
# GULP energy per Si atom -5572.173486 kJ/mol
# Density = 1.970813 g / cm^3
# Si number density = 19.753086 Si / 1000 Ang^3
#
#
#
# Elastic Constant Matrix: (Units=GPa)
#
#
# Indices 1 2 3 4 5 6 
#
# 1 84.0279 -16.2421 29.5637 0.0000 0.0000 0.0000
# 2 -16.2421 54.4502 12.3537 0.0000 0.0000 0.0000
# 3 29.5637 12.3537 73.5583 0.0000 0.0000 0.0000
# 4 0.0000 0.0000 0.0000 4.4156 0.0000 0.0000
# 5 0.0000 0.0000 0.0000 0.0000 -0.3411 0.0000
# 6 0.0000 0.0000 0.0000 0.0000 0.0000 21.5274
#
#
#
# Elastic Compliance Matrix: (Units=1/GPa)
#
#
# Indices 1 2 3 4 5 6 
#
# 1 0.015733 0.006371 -0.007393 0.000000 0.000000 0.000000
# 2 0.006371 0.021672 -0.006200 0.000000 0.000000 0.000000
# 3 -0.007393 -0.006200 0.017607 0.000000 0.000000 0.000000
# 4 0.000000 0.000000 0.000000 0.226468 0.000000 0.000000
# 5 0.000000 0.000000 0.000000 0.000000 -2.931671 0.000000
# 6 0.000000 0.000000 0.000000 0.000000 0.000000 0.046453
#
#
# Mechanical properties :
#
#
# Convention : Reuss Voigt Hill
#
# Bulk Modulus (GPa) = 24.65034 29.26524 26.95779
# Shear Modulus (GPa) = -1.94117 17.54445 7.80164
#
# Velocity S-wave (km/s) = -0.99240 2.98348 1.98951
# Velocity P-wave (km/s) = 3.34562 5.16874 4.35368
#
# Compressibility (1/GPa) = 0.04056740
#
# Stress axis : x y z
#
# Youngs Moduli (GPa) = 63.55909 46.14162 56.79440
#
# Poissons Ratio (x) = -0.29395 0.41990
# Poissons Ratio (y) = -0.40491 0.35213
# Poissons Ratio (z) = 0.46991 0.28609
#
# Static dielectric constant tensor:
#      x y z
#    x 1.810940 0.000000 0.000000 
#    y 0.000000 1.733510 0.000000 
#    z 0.000000 0.000000 1.635650 
# 
# From -- ./inp_files/13469.got.cif
#   From: 2010.05.17/outbox.ucp.g08.bks.cvg/sg52_7_cif.got.tgz:13469.got - 2010.06.11 16:30:12.
