data_PCOD9413282
_publ_section_title
;
Structure prediction by ZEFSAII (Michael W. Deem and Ramdas Pophale) SiO2 
 PCOD9413282
Probable space group: P N N A
;
_chemical_formula_sum "Si O2"
_cell_formula_units_Z 36
_cell_length_a 14.587439
_cell_length_b 14.463092
_cell_length_c 8.893013
_cell_angle_alpha 90.000000
_cell_angle_beta 90.000000
_cell_angle_gamma 90.000000
_cell_volume 1876.243190
_symmetry_space_group_name_H-M "P N N A"
_symmetry_group_IT_number 52
_symmetry_cell_setting 'orthorhombic'
loop_
_space_group_symop_operation_xyz
x,y,z
1/2-x,-y,z
x,1/2-y,1/2-z
1/2-x,1/2+y,1/2-z
-x,-y,-z
1/2+x,y,-z
-x,1/2+y,1/2+z
1/2+x,1/2-y,1/2+z
loop_
_atom_site_type_symbol
_atom_site_label
_atom_site_fract_x
_atom_site_fract_y
_atom_site_fract_z
Si Si1 0.719683 0.848994 0.810803
Si Si2 0.975693 0.410195 0.594521
Si Si3 0.406054 0.735388 0.424212
Si Si4 0.750000 0.000000 0.552334
Si Si5 0.428822 0.933376 0.583132
O O1 0.685342 0.750000 0.750000
O O2 0.633554 0.898867 0.886859
O O3 0.808364 0.820594 0.912106
O O4 0.746480 0.913084 0.668280
O O5 0.018317 0.324917 0.505933
O O6 0.027864 0.416747 0.753787
O O7 0.000000 0.500000 0.500000
O O8 0.429933 0.750000 0.250000
O O9 0.408047 0.834190 0.506511
O O10 0.664623 0.010654 0.441616
O O11 0.500000 0.000000 0.500000
#
# Coordination Sequence:
#
# PCOD9413282 Si02
#       5
#     8   8   8   4   8
#     4  11  22  44  70  98 137 188 225 285 365 413
#     4  12  26  44  68 102 140 185 233 289 357 420
#     4  11  23  44  69 102 135 183 235 286 345 426
#     4  12  22  42  74 102 140 186 238 286 364 418
#     4  12  24  42  69 104 138 183 239 291 347 429
#
# _framework density 19.187277999999999
#
# number of rings (size 3 to 8) (size 9 to 14) (size 15 to 20)
#    0.000    0.444    6.667    4.667    0.000    1.778 
#    0.000    2.222    0.000    0.000    0.000    0.000 
#    0.000    0.000    0.000    0.000    0.000    0.000 
#
# Total GULP energy -200877.758213 kJ/mol
# GULP energy per Si atom -5579.937728 kJ/mol
# Density = 1.914361 g / cm^3
# Si number density = 19.187278 Si / 1000 Ang^3
#
#
#
# Elastic Constant Matrix: (Units=GPa)
#
#
# Indices 1 2 3 4 5 6 
#
# 1 112.3912 7.4389 52.8918 0.0000 0.0000 0.0000
# 2 7.4389 81.0433 26.1928 0.0000 0.0000 0.0000
# 3 52.8918 26.1928 115.0081 0.0000 0.0000 0.0000
# 4 0.0000 0.0000 0.0000 44.0097 0.0000 0.0000
# 5 0.0000 0.0000 0.0000 0.0000 37.1999 0.0000
# 6 0.0000 0.0000 0.0000 0.0000 0.0000 41.7528
#
#
#
# Elastic Compliance Matrix: (Units=1/GPa)
#
#
# Indices 1 2 3 4 5 6 
#
# 1 0.011392 0.000699 -0.005398 0.000000 0.000000 0.000000
# 2 0.000699 0.013362 -0.003365 0.000000 0.000000 0.000000
# 3 -0.005398 -0.003365 0.011944 0.000000 0.000000 0.000000
# 4 0.000000 0.000000 0.000000 0.022722 0.000000 0.000000
# 5 0.000000 0.000000 0.000000 0.000000 0.026882 0.000000
# 6 0.000000 0.000000 0.000000 0.000000 0.000000 0.023950
#
#
# Mechanical properties :
#
#
# Convention : Reuss Voigt Hill
#
# Bulk Modulus (GPa) = 48.61398 53.49885 51.05642
# Shear Modulus (GPa) = 37.52711 39.38707 38.45709
#
# Velocity S-wave (km/s) = 4.42728 4.53567 4.48180
# Velocity P-wave (km/s) = 7.17816 7.44128 7.31090
#
# Compressibility (1/GPa) = 0.02057021
#
# Stress axis : x y z
#
# Youngs Moduli (GPa) = 87.78375 74.83698 83.72439
#
# Poissons Ratio (x) = -0.05231 0.45196
# Poissons Ratio (y) = -0.06136 0.28171
# Poissons Ratio (z) = 0.47387 0.25181
#
# Static dielectric constant tensor:
#      x y z
#    x 1.604230 0.000000 0.000000 
#    y 0.000000 1.747470 0.000000 
#    z 0.000000 0.000000 1.621230 
# 
# From -- ./inp_files/9952.got.cif
#   From: 2010.05.17/outbox.cif.g08.bks.cpg/sg52_5_cif.got.tgz:9952.got - 2010.06.03 12:15:38.
