data_PCOD9413874
_publ_section_title
;
Structure prediction by ZEFSAII (Michael W. Deem and Ramdas Pophale) SiO2 
 PCOD9413874
Probable space group: P N N A
;
_chemical_formula_sum "Si O2"
_cell_formula_units_Z 40
_cell_length_a 18.144300
_cell_length_b 12.309851
_cell_length_c 8.615297
_cell_angle_alpha 90.000000
_cell_angle_beta 90.000000
_cell_angle_gamma 90.000000
_cell_volume 1924.257854
_symmetry_space_group_name_H-M "P N N A"
_symmetry_group_IT_number 52
_symmetry_cell_setting 'orthorhombic'
loop_
_space_group_symop_operation_xyz
x,y,z
1/2-x,-y,z
x,1/2-y,1/2-z
1/2-x,1/2+y,1/2-z
-x,-y,-z
1/2+x,y,-z
-x,1/2+y,1/2+z
1/2+x,1/2-y,1/2+z
loop_
_atom_site_type_symbol
_atom_site_label
_atom_site_fract_x
_atom_site_fract_y
_atom_site_fract_z
Si Si1 0.356215 0.639928 0.178987
Si Si2 0.141399 0.872047 0.751164
Si Si3 0.834813 0.041908 0.907495
Si Si4 0.596043 0.750000 0.750000
Si Si5 0.250000 0.000000 0.529253
Si Si6 0.507966 0.870883 0.471915
O O1 0.326782 0.750000 0.250000
O O2 0.376649 0.554067 0.314909
O O3 0.426917 0.668131 0.074518
O O4 0.294299 0.582872 0.077219
O O5 0.173217 0.750000 0.750000
O O6 0.190617 0.941377 0.635254
O O7 0.061440 0.861290 0.675274
O O8 0.141484 0.929914 0.917471
O O9 0.853302 0.152866 0.815967
O O10 0.750000 0.000000 0.910290
O O11 0.545632 0.804689 0.613948
O O12 0.500000 0.000000 0.500000
#
# Coordination Sequence:
#
# PCOD9413874 Si02
#       6
#     8   8   8   4   4   8
#     4  12  29  47  76 109 150 192 250 305 368 449
#     4  12  26  45  74 103 147 191 244 303 371 432
#     4  12  27  45  77 110 145 198 250 296 383 443
#     4  12  26  50  80 104 154 200 248 314 374 448
#     4  12  26  46  70 108 150 188 244 308 362 440
#     4  12  25  50  74 109 145 200 243 306 374 441
#
# _framework density 20.787236
#
# number of rings (size 3 to 8) (size 9 to 14) (size 15 to 20)
#    0.000    0.000    8.000    0.600    4.200    2.400 
#    1.800    0.000    0.000    0.000    0.000    0.000 
#    0.000    0.000    0.000    0.000    0.000    0.000 
#
# Total GULP energy -223755.755967 kJ/mol
# GULP energy per Si atom -5593.893899 kJ/mol
# Density = 2.073992 g / cm^3
# Si number density = 20.787236 Si / 1000 Ang^3
#
#
#
# Elastic Constant Matrix: (Units=GPa)
#
#
# Indices 1 2 3 4 5 6 
#
# 1 114.4999 34.0360 57.9709 0.0000 0.0000 0.0000
# 2 34.0360 167.0641 74.5904 0.0000 0.0000 0.0000
# 3 57.9709 74.5904 161.8669 0.0000 0.0000 0.0000
# 4 0.0000 0.0000 0.0000 34.7998 0.0000 0.0000
# 5 0.0000 0.0000 0.0000 0.0000 -6.9523 0.0000
# 6 0.0000 0.0000 0.0000 0.0000 0.0000 54.8020
#
#
#
# Elastic Compliance Matrix: (Units=1/GPa)
#
#
# Indices 1 2 3 4 5 6 
#
# 1 0.010714 -0.000591 -0.003565 0.000000 0.000000 0.000000
# 2 -0.000591 0.007569 -0.003276 0.000000 0.000000 0.000000
# 3 -0.003565 -0.003276 0.008964 0.000000 0.000000 0.000000
# 4 0.000000 0.000000 0.000000 0.028736 0.000000 0.000000
# 5 0.000000 0.000000 0.000000 0.000000 -0.143838 0.000000
# 6 0.000000 0.000000 0.000000 0.000000 0.000000 0.018247
#
#
# Mechanical properties :
#
#
# Convention : Reuss Voigt Hill
#
# Bulk Modulus (GPa) = 80.75449 86.29173 83.52311
# Shear Modulus (GPa) = -98.78446 34.98548 -31.89949
#
# Velocity S-wave (km/s) = -6.90108 4.10692 -3.92161
# Velocity P-wave (km/s) = 4.95655 8.00569 4.44543
#
# Compressibility (1/GPa) = 0.01238321
#
# Stress axis : x y z
#
# Youngs Moduli (GPa) = 93.33418 132.11988 111.55416
#
# Poissons Ratio (x) = 0.07811 0.39766
# Poissons Ratio (y) = 0.05518 0.36546
# Poissons Ratio (z) = 0.33271 0.43284
#
# Static dielectric constant tensor:
#      x y z
#    x 1.762330 0.000000 0.000000 
#    y 0.000000 1.764400 0.000000 
#    z 0.000000 0.000000 1.747190 
# 
# From -- ./inp_files/11685.got.cif
#   From: 2010.05.17/outbox.cif.g08.bks.cpg/sg52_6_cif.got.tgz:11685.got - 2010.06.03 12:15:38.
