data_PCOD9413581
_publ_section_title
;
Structure prediction by ZEFSAII (Michael W. Deem and Ramdas Pophale) SiO2 
 PCOD9413581
Probable space group: P N N A
;
_chemical_formula_sum "Si O2"
_cell_formula_units_Z 28
_cell_length_a 7.175569
_cell_length_b 9.055888
_cell_length_c 18.301122
_cell_angle_alpha 90.000000
_cell_angle_beta 90.000000
_cell_angle_gamma 90.000000
_cell_volume 1189.227939
_symmetry_space_group_name_H-M "P N N A"
_symmetry_group_IT_number 52
_symmetry_cell_setting 'orthorhombic'
loop_
_space_group_symop_operation_xyz
x,y,z
1/2-x,-y,z
x,1/2-y,1/2-z
1/2-x,1/2+y,1/2-z
-x,-y,-z
1/2+x,y,-z
-x,1/2+y,1/2+z
1/2+x,1/2-y,1/2+z
loop_
_atom_site_type_symbol
_atom_site_label
_atom_site_fract_x
_atom_site_fract_y
_atom_site_fract_z
Si Si1 0.997533 0.639124 0.558095
Si Si2 0.923946 0.608902 0.212033
Si Si3 0.250000 0.000000 0.182519
Si Si4 0.337051 0.661691 0.938544
O O1 0.866665 0.601827 0.626208
O O2 0.922883 0.777178 0.512117
O O3 0.000000 0.500000 0.500000
O O4 0.196283 0.703714 0.583401
O O5 0.750000 0.500000 0.206706
O O6 0.838035 0.750000 0.250000
O O7 0.979805 0.644670 0.128740
O O8 0.095087 0.565913 0.263322
O O9 0.250000 0.500000 0.949844
#
# Coordination Sequence:
#
# PCOD9413581 Si02
#       4
#     8   8   4   8
#     4  12  23  47  77 111 147 204 265 321 383 477
#     4  11  26  48  73 108 158 203 257 324 394 467
#     4  12  26  46  84 108 152 212 270 308 400 480
#     4  11  25  45  71 109 153 192 253 332 389 449
#
# _framework density 23.544688000000001
#
# number of rings (size 3 to 8) (size 9 to 14) (size 15 to 20)
#    0.000    0.571    2.857    4.286    0.000    5.714 
#    2.571    0.000    0.000    0.000    0.000    0.000 
#    0.000    0.000    0.000    0.000    0.000    0.000 
#
# Total GULP energy -156457.530974 kJ/mol
# GULP energy per Si atom -5587.768963 kJ/mol
# Density = 2.349110 g / cm^3
# Si number density = 23.544688 Si / 1000 Ang^3
#
#
#
# Elastic Constant Matrix: (Units=GPa)
#
#
# Indices 1 2 3 4 5 6 
#
# 1 92.4867 23.6043 65.4679 0.0000 0.0000 0.0000
# 2 23.6043 108.7537 48.4777 0.0000 0.0000 0.0000
# 3 65.4679 48.4777 190.9953 0.0000 0.0000 0.0000
# 4 0.0000 0.0000 0.0000 28.7432 0.0000 0.0000
# 5 0.0000 0.0000 0.0000 0.0000 50.7643 0.0000
# 6 0.0000 0.0000 0.0000 0.0000 0.0000 24.7751
#
#
#
# Elastic Compliance Matrix: (Units=1/GPa)
#
#
# Indices 1 2 3 4 5 6 
#
# 1 0.014380 -0.001042 -0.004665 0.000000 0.000000 0.000000
# 2 -0.001042 0.010444 -0.002294 0.000000 0.000000 0.000000
# 3 -0.004665 -0.002294 0.007417 0.000000 0.000000 0.000000
# 4 0.000000 0.000000 0.000000 0.034791 0.000000 0.000000
# 5 0.000000 0.000000 0.000000 0.000000 0.019699 0.000000
# 6 0.000000 0.000000 0.000000 0.000000 0.000000 0.040363
#
#
# Mechanical properties :
#
#
# Convention : Reuss Voigt Hill
#
# Bulk Modulus (GPa) = 61.57510 74.14837 67.86174
# Shear Modulus (GPa) = 33.66836 37.83556 35.75196
#
# Velocity S-wave (km/s) = 3.78561 4.01305 3.90099
# Velocity P-wave (km/s) = 6.73179 7.28243 7.01251
#
# Compressibility (1/GPa) = 0.01624033
#
# Stress axis : x y z
#
# Youngs Moduli (GPa) = 69.53990 95.75220 134.82835
#
# Poissons Ratio (x) = 0.09975 0.62894
# Poissons Ratio (y) = 0.07245 0.30925
# Poissons Ratio (z) = 0.32438 0.21962
#
# Static dielectric constant tensor:
#      x y z
#    x 2.165120 0.000000 0.000000 
#    y 0.000000 1.932560 0.000000 
#    z 0.000000 0.000000 1.924780 
# 
# From -- ./inp_files/30676.got.cif
#   From: 2010.05.17/outbox.cif.g08.bks.cpg/sg52_16_cif.got.tgz:30676.got - 2010.06.03 12:15:38.
