data_PCOD9413999
_publ_section_title
;
Structure prediction by ZEFSAII (Michael W. Deem and Ramdas Pophale) SiO2 
 PCOD9413999
Probable space group: P N N A
;
_chemical_formula_sum "Si O2"
_cell_formula_units_Z 48
_cell_length_a 9.000000
_cell_length_b 18.000000
_cell_length_c 15.000000
_cell_angle_alpha 90.000000
_cell_angle_beta 90.000000
_cell_angle_gamma 90.000000
_cell_volume 2430.000000
_symmetry_space_group_name_H-M "P N N A"
_symmetry_group_IT_number 52
_symmetry_cell_setting 'orthorhombic'
loop_
_space_group_symop_operation_xyz
x,y,z
1/2-x,-y,z
x,1/2-y,1/2-z
1/2-x,1/2+y,1/2-z
-x,-y,-z
1/2+x,y,-z
-x,1/2+y,1/2+z
1/2+x,1/2-y,1/2+z
loop_
_atom_site_type_symbol
_atom_site_label
_atom_site_fract_x
_atom_site_fract_y
_atom_site_fract_z
Si Si1 0.842345 0.648202 0.798135
Si Si2 0.500591 0.161182 0.234888
Si Si3 0.172556 0.359423 0.900781
Si Si4 0.488578 0.077108 0.550521
Si Si5 0.706743 0.313756 0.427331
Si Si6 0.050784 0.191102 0.115116
O O1 0.669412 0.645448 0.767319
O O2 0.899317 0.586008 0.866602
O O3 0.898292 0.725548 0.847845
O O4 0.924240 0.643506 0.703932
O O5 0.509337 0.250000 0.250000
O O6 0.605073 0.120148 0.305962
O O7 0.580796 0.150389 0.138488
O O8 0.320451 0.404731 0.922932
O O9 0.210049 0.273185 0.901801
O O10 0.046217 0.366353 0.975510
O O11 0.500000 0.000000 0.500000
O O12 0.654676 0.323144 0.529447
O O13 0.882025 0.328500 0.413552
#
# Coordination Sequence:
#
# PCOD9413999 Si02
#       6
#     8   8   8   8   8   8
#     4  11  21  36  52  82 113 159 201 250 301 373
#     4  10  21  33  57  79 116 152 199 249 320 376
#     4  11  21  35  52  78 111 155 202 250 296 367
#     4  12  24  38  55  78 117 165 210 251 299 354
#     4  11  20  34  54  85 113 156 188 249 314 384
#     4  11  21  32  56  81 119 151 197 241 319 375
#
# _framework density 19.753086
#
# number of rings (size 3 to 8) (size 9 to 14) (size 15 to 20)
#    0.000    1.000    5.000    3.500    7.000    0.000 
#    0.000    0.000    0.000    0.000    0.000    1.167 
#    0.000    2.667    0.000    0.500    0.000    0.333 
#
# Total GULP energy -267359.215196 kJ/mol
# GULP energy per Si atom -5569.983650 kJ/mol
# Density = 1.970813 g / cm^3
# Si number density = 19.753086 Si / 1000 Ang^3
#
#
#
# Elastic Constant Matrix: (Units=GPa)
#
#
# Indices 1 2 3 4 5 6 
#
# 1 135.8341 27.7010 77.0222 0.0000 0.0000 0.0000
# 2 27.7010 23.0120 23.4754 0.0000 0.0000 0.0000
# 3 77.0222 23.4754 190.2614 0.0000 0.0000 0.0000
# 4 0.0000 0.0000 0.0000 25.2619 0.0000 0.0000
# 5 0.0000 0.0000 0.0000 0.0000 43.3266 0.0000
# 6 0.0000 0.0000 0.0000 0.0000 0.0000 12.3361
#
#
#
# Elastic Compliance Matrix: (Units=1/GPa)
#
#
# Indices 1 2 3 4 5 6 
#
# 1 0.011339 -0.010258 -0.003325 0.000000 0.000000 0.000000
# 2 -0.010258 0.058993 -0.003126 0.000000 0.000000 0.000000
# 3 -0.003325 -0.003126 0.006988 0.000000 0.000000 0.000000
# 4 0.000000 0.000000 0.000000 0.039585 0.000000 0.000000
# 5 0.000000 0.000000 0.000000 0.000000 0.023081 0.000000
# 6 0.000000 0.000000 0.000000 0.000000 0.000000 0.081063
#
#
# Mechanical properties :
#
#
# Convention : Reuss Voigt Hill
#
# Bulk Modulus (GPa) = 22.77804 67.27830 45.02817
# Shear Modulus (GPa) = 18.58049 30.91219 24.74634
#
# Velocity S-wave (km/s) = 3.07031 3.96021 3.54331
# Velocity P-wave (km/s) = 4.91177 7.41920 6.29166
#
# Compressibility (1/GPa) = 0.04390193
#
# Stress axis : x y z
#
# Youngs Moduli (GPa) = 88.19105 16.95120 143.11204
#
# Poissons Ratio (x) = 0.17388 0.47579
# Poissons Ratio (y) = 0.90466 0.44739
# Poissons Ratio (z) = 0.29320 0.05299
#
# Static dielectric constant tensor:
#      x y z
#    x 1.601530 0.000000 0.000000 
#    y 0.000000 1.573060 0.000000 
#    z 0.000000 0.000000 1.712730 
# 
# From -- ./inp_files/24707.got.cif
#   From: 2010.05.17/outbox.ucp.g08.bks.cvg/sg52_13_cif.got.tgz:24707.got - 2010.06.11 16:30:12.
