data_PCOD9413759
_publ_section_title
;
Structure prediction by ZEFSAII (Michael W. Deem and Ramdas Pophale) SiO2 
 PCOD9413759
Probable space group: P N N A
;
_chemical_formula_sum "Si O2"
_cell_formula_units_Z 40
_cell_length_a 13.813040
_cell_length_b 21.702435
_cell_length_c 4.738295
_cell_angle_alpha 90.000000
_cell_angle_beta 90.000000
_cell_angle_gamma 90.000000
_cell_volume 1420.429978
_symmetry_space_group_name_H-M "P N N A"
_symmetry_group_IT_number 52
_symmetry_cell_setting 'orthorhombic'
loop_
_space_group_symop_operation_xyz
x,y,z
1/2-x,-y,z
x,1/2-y,1/2-z
1/2-x,1/2+y,1/2-z
-x,-y,-z
1/2+x,y,-z
-x,1/2+y,1/2+z
1/2+x,1/2-y,1/2+z
loop_
_atom_site_type_symbol
_atom_site_label
_atom_site_fract_x
_atom_site_fract_y
_atom_site_fract_z
Si Si1 0.687617 0.750000 0.750000
Si Si2 0.744515 0.129297 0.050778
Si Si3 0.048365 0.750000 0.750000
Si Si4 0.381641 0.970547 0.149708
Si Si5 0.921950 0.067435 0.362655
Si Si6 0.031596 0.137039 0.890427
O O1 0.743170 0.808882 0.870740
O O2 0.620097 0.771563 0.495252
O O3 0.714007 0.070546 0.859079
O O4 0.642416 0.137646 0.214527
O O5 0.837530 0.112711 0.231097
O O6 0.989771 0.801714 0.928798
O O7 0.469994 0.916883 0.146182
O O8 0.102026 0.985787 0.402711
O O9 0.398944 0.009951 0.878844
O O10 0.968603 0.113936 0.631563
#
# Coordination Sequence:
#
# PCOD9413759 Si02
#       6
#     4   8   4   8   8   8
#     4  12  23  42  73 112 150 204 245 326 393 476
#     4   9  18  35  68 108 152 191 263 316 387 457
#     4  12  23  42  73 110 152 204 251 316 409 456
#     4   7  16  29  66 102 143 195 253 313 381 467
#     4   8  13  34  63 105 137 198 254 309 386 462
#     4   8  18  35  64 107 140 200 248 318 378 477
#
# _framework density 28.160488999999998
#
# number of rings (size 3 to 8) (size 9 to 14) (size 15 to 20)
#    2.400    0.400    2.000    0.600    0.000    0.000 
#    0.000    4.000    4.400    7.200    5.200    1.400 
#    0.000    0.000    0.000    0.000    0.000    0.000 
#
# Total GULP energy -223326.200415 kJ/mol
# GULP energy per Si atom -5583.155010 kJ/mol
# Density = 2.809639 g / cm^3
# Si number density = 28.160489 Si / 1000 Ang^3
#
#
#
# Elastic Constant Matrix: (Units=GPa)
#
#
# Indices 1 2 3 4 5 6 
#
# 1 207.2968 107.9095 89.9126 0.0000 0.0000 0.0000
# 2 107.9095 229.8181 114.9319 0.0000 0.0000 0.0000
# 3 89.9126 114.9319 280.6275 0.0000 0.0000 0.0000
# 4 0.0000 0.0000 0.0000 44.0599 0.0000 0.0000
# 5 0.0000 0.0000 0.0000 0.0000 76.5293 0.0000
# 6 0.0000 0.0000 0.0000 0.0000 0.0000-1168.3551
#
#
#
# Elastic Compliance Matrix: (Units=1/GPa)
#
#
# Indices 1 2 3 4 5 6 
#
# 1 0.006630 -0.002579 -0.001068 0.000000 0.000000 0.000000
# 2 -0.002579 0.006475 -0.001826 0.000000 0.000000 0.000000
# 3 -0.001068 -0.001826 0.004653 0.000000 0.000000 0.000000
# 4 0.000000 0.000000 0.000000 0.022696 0.000000 0.000000
# 5 0.000000 0.000000 0.000000 0.000000 0.013067 0.000000
# 6 0.000000 0.000000 0.000000 0.000000 0.000000 -0.000856
#
#
# Mechanical properties :
#
#
# Convention : Reuss Voigt Hill
#
# Bulk Modulus (GPa) = 146.77356 149.25005 148.01181
# Shear Modulus (GPa) = 75.89396 -182.55393 -53.32998
#
# Velocity S-wave (km/s) = 5.19702 -8.06021 -4.35649
# Velocity P-wave (km/s) = 9.39391 5.78859 5.23153
#
# Compressibility (1/GPa) = 0.00681322
#
# Stress axis : x y z
#
# Youngs Moduli (GPa) = 150.83798 154.43668 214.90007
#
# Poissons Ratio (x) = 0.39826 0.22951
# Poissons Ratio (y) = 0.38898 0.39234
# Poissons Ratio (z) = 0.16109 0.28195
#
# Static dielectric constant tensor:
#      x y z
#    x 2.364470 0.000000 0.000000 
#    y 0.000000 2.277090 0.000000 
#    z 0.000000 0.000000 1.991880 
# 
# From -- ./inp_files/1528.got.cif
#   From: 2010.05.17/outbox.cif.g08.bks.cpg/sg52_1_cif.got.tgz:1528.got - 2010.06.03 12:15:38.
