data_PCOD9413296
_publ_section_title
;
Structure prediction by ZEFSAII (Michael W. Deem and Ramdas Pophale) SiO2 
 PCOD9413296
Probable space group: P N N A
;
_chemical_formula_sum "Si O2"
_cell_formula_units_Z 36
_cell_length_a 9.015460
_cell_length_b 29.254166
_cell_length_c 5.255469
_cell_angle_alpha 90.000000
_cell_angle_beta 90.000000
_cell_angle_gamma 90.000000
_cell_volume 1386.076151
_symmetry_space_group_name_H-M "P N N A"
_symmetry_group_IT_number 52
_symmetry_cell_setting 'orthorhombic'
loop_
_space_group_symop_operation_xyz
x,y,z
1/2-x,-y,z
x,1/2-y,1/2-z
1/2-x,1/2+y,1/2-z
-x,-y,-z
1/2+x,y,-z
-x,1/2+y,1/2+z
1/2+x,1/2-y,1/2+z
loop_
_atom_site_type_symbol
_atom_site_label
_atom_site_fract_x
_atom_site_fract_y
_atom_site_fract_z
Si Si1 0.321359 0.750000 0.750000
Si Si2 0.181294 0.831839 0.969185
Si Si3 0.866437 0.466481 0.429913
Si Si4 0.135414 0.094495 0.206628
Si Si5 0.986776 0.837308 0.459748
O O1 0.234109 0.779516 0.959551
O O2 0.408212 0.789335 0.598910
O O3 0.084634 0.833974 0.714835
O O4 0.373839 0.878506 0.471904
O O5 0.092271 0.844154 0.221402
O O6 0.750000 0.500000 0.282633
O O7 0.738115 0.556154 0.649617
O O8 0.000000 0.500000 0.500000
O O9 0.969308 0.426596 0.315434
O O10 0.181042 0.133334 0.000435
#
# Coordination Sequence:
#
# PCOD9413296 Si02
#       5
#     4   8   8   8   8
#     4  12  28  50  78 122 170 236 288 360 422 496
#     4  12  27  48  75 119 165 221 284 349 411 513
#     4   9  20  43  85 125 169 217 280 356 435 529
#     4  11  22  46  78 127 166 228 275 354 433 510
#     4  12  27  48  79 116 169 222 291 345 422 510
#
# _framework density 25.972598000000001
#
# number of rings (size 3 to 8) (size 9 to 14) (size 15 to 20)
#    0.000    0.889    2.222    4.000    0.000    6.222 
#    0.000    0.000    0.000   17.333    0.000    0.000 
#    0.000    0.000    0.000    0.000    0.000    0.000 
#
# Total GULP energy -201038.614133 kJ/mol
# GULP energy per Si atom -5584.405948 kJ/mol
# Density = 2.591348 g / cm^3
# Si number density = 25.972598 Si / 1000 Ang^3
#
#
#
# Elastic Constant Matrix: (Units=GPa)
#
#
# Indices 1 2 3 4 5 6 
#
# 1 171.9974 70.0985 69.4566 0.0000 0.0000 0.0000
# 2 70.0985 182.1141 48.3351 0.0000 0.0000 0.0000
# 3 69.4566 48.3351 175.3831 0.0000 0.0000 0.0000
# 4 0.0000 0.0000 0.0000 19.3931 0.0000 0.0000
# 5 0.0000 0.0000 0.0000 0.0000 17.0136 0.0000
# 6 0.0000 0.0000 0.0000 0.0000 0.0000 86.1523
#
#
#
# Elastic Compliance Matrix: (Units=1/GPa)
#
#
# Indices 1 2 3 4 5 6 
#
# 1 0.007745 -0.002338 -0.002423 0.000000 0.000000 0.000000
# 2 -0.002338 0.006630 -0.000901 0.000000 0.000000 0.000000
# 3 -0.002423 -0.000901 0.006910 0.000000 0.000000 0.000000
# 4 0.000000 0.000000 0.000000 0.051565 0.000000 0.000000
# 5 0.000000 0.000000 0.000000 0.000000 0.058777 0.000000
# 6 0.000000 0.000000 0.000000 0.000000 0.000000 0.011607
#
#
# Mechanical properties :
#
#
# Convention : Reuss Voigt Hill
#
# Bulk Modulus (GPa) = 100.39689 100.58608 100.49148
# Shear Modulus (GPa) = 31.66977 47.28544 39.47760
#
# Velocity S-wave (km/s) = 3.49571 4.27147 3.90291
# Velocity P-wave (km/s) = 7.41837 7.94601 7.68672
#
# Compressibility (1/GPa) = 0.00996047
#
# Stress axis : x y z
#
# Youngs Moduli (GPa) = 129.10757 150.82266 144.72258
#
# Poissons Ratio (x) = 0.35266 0.35066
# Poissons Ratio (y) = 0.30189 0.13043
# Poissons Ratio (z) = 0.31283 0.13593
#
# Static dielectric constant tensor:
#      x y z
#    x 2.223880 0.000000 0.000000 
#    y 0.000000 2.133630 0.000000 
#    z 0.000000 0.000000 2.036830 
# 
# From -- ./inp_files/1213.got.cif
#   From: 2010.05.17/outbox.cif.g08.bks.cpg/sg52_1_cif.got.tgz:1213.got - 2010.06.03 12:15:38.
