data_PCOD9413536
_publ_section_title
;
Structure prediction by ZEFSAII (Michael W. Deem and Ramdas Pophale) SiO2 
 PCOD9413536
Probable space group: P N N A
;
_chemical_formula_sum "Si O2"
_cell_formula_units_Z 48
_cell_length_a 12.400005
_cell_length_b 31.857892
_cell_length_c 5.128855
_cell_angle_alpha 90.000000
_cell_angle_beta 90.000000
_cell_angle_gamma 90.000000
_cell_volume 2026.092725
_symmetry_space_group_name_H-M "P N N A"
_symmetry_group_IT_number 52
_symmetry_cell_setting 'orthorhombic'
loop_
_space_group_symop_operation_xyz
x,y,z
1/2-x,-y,z
x,1/2-y,1/2-z
1/2-x,1/2+y,1/2-z
-x,-y,-z
1/2+x,y,-z
-x,1/2+y,1/2+z
1/2+x,1/2-y,1/2+z
loop_
_atom_site_type_symbol
_atom_site_label
_atom_site_fract_x
_atom_site_fract_y
_atom_site_fract_z
Si Si1 0.753008 0.577810 0.650240
Si Si2 0.634084 0.514534 0.291504
Si Si3 0.289364 0.299758 0.759349
Si Si4 0.107894 0.362318 0.733045
Si Si5 0.622613 0.658481 0.750414
Si Si6 0.946382 0.558143 0.003195
O O1 0.671883 0.543370 0.531087
O O2 0.816970 0.606127 0.435041
O O3 0.682014 0.613489 0.792816
O O4 0.844180 0.553007 0.810695
O O5 0.750000 0.500000 0.186725
O O6 0.557377 0.543878 0.121828
O O7 0.569395 0.470353 0.264236
O O8 0.281818 0.250000 0.750000
O O9 0.178338 0.323723 0.830790
O O10 0.313207 0.315811 0.468396
O O11 0.373153 0.316423 0.977699
O O12 0.995006 0.346928 0.618992
O O13 0.061259 0.392585 0.955094
#
# Coordination Sequence:
#
# PCOD9413536 Si02
#       6
#     8   8   8   8   8   8
#     4  11  24  47  70 102 142 194 248 310 360 448
#     4  11  25  45  65 102 141 192 246 308 368 417
#     4  11  26  49  75 112 145 184 239 304 376 455
#     4  11  25  45  72 107 137 195 244 301 370 449
#     4  11  26  45  79 106 148 191 238 300 374 443
#     4  11  25  46  69  99 143 192 253 305 368 435
#
# _framework density 23.690919999999998
#
# number of rings (size 3 to 8) (size 9 to 14) (size 15 to 20)
#    0.000    1.000    3.333    1.500    9.333    2.667 
#    3.000    0.000    0.000    0.000    0.000    0.000 
#    0.000    0.000    0.000    0.000    0.000    0.000 
#
# Total GULP energy -267965.249193 kJ/mol
# GULP energy per Si atom -5582.609358 kJ/mol
# Density = 2.363700 g / cm^3
# Si number density = 23.690920 Si / 1000 Ang^3
#
#
#
# Elastic Constant Matrix: (Units=GPa)
#
#
# Indices 1 2 3 4 5 6 
#
# 1 104.1909 44.9608 4.2674 0.0000 0.0000 0.0000
# 2 44.9608 165.4016 53.7420 0.0000 0.0000 0.0000
# 3 4.2674 53.7420 68.8801 0.0000 0.0000 0.0000
# 4 0.0000 0.0000 0.0000 34.5431 0.0000 0.0000
# 5 0.0000 0.0000 0.0000 0.0000 12.6873 0.0000
# 6 0.0000 0.0000 0.0000 0.0000 0.0000 22.6319
#
#
#
# Elastic Compliance Matrix: (Units=1/GPa)
#
#
# Indices 1 2 3 4 5 6 
#
# 1 0.011125 -0.003751 0.002237 0.000000 0.000000 0.000000
# 2 -0.003751 0.009364 -0.007073 0.000000 0.000000 0.000000
# 3 0.002237 -0.007073 0.019898 0.000000 0.000000 0.000000
# 4 0.000000 0.000000 0.000000 0.028949 0.000000 0.000000
# 5 0.000000 0.000000 0.000000 0.000000 0.078819 0.000000
# 6 0.000000 0.000000 0.000000 0.000000 0.000000 0.044185
#
#
# Mechanical properties :
#
#
# Convention : Reuss Voigt Hill
#
# Bulk Modulus (GPa) = 43.07992 60.49033 51.78512
# Shear Modulus (GPa) = 23.01473 29.67263 26.34368
#
# Velocity S-wave (km/s) = 3.12020 3.54289 3.33824
# Velocity P-wave (km/s) = 5.58610 6.50574 6.06338
#
# Compressibility (1/GPa) = 0.02321267
#
# Stress axis : x y z
#
# Youngs Moduli (GPa) = 89.88954 106.79399 50.25558
#
# Poissons Ratio (x) = 0.40058 -0.11244
# Poissons Ratio (y) = 0.33717 0.35548
# Poissons Ratio (z) = -0.20112 0.75541
#
# Static dielectric constant tensor:
#      x y z
#    x 1.982810 0.000000 0.000000 
#    y 0.000000 1.883420 0.000000 
#    z 0.000000 0.000000 2.003550 
# 
# From -- ./inp_files/2566.got.cif
#   From: 2010.05.17/outbox.cif.g08.bks.cpg/sg52_2_cif.got.tgz:2566.got - 2010.06.03 12:15:38.
