data_PCOD9413591
_publ_section_title
;
Structure prediction by ZEFSAII (Michael W. Deem and Ramdas Pophale) SiO2 
 PCOD9413591
Probable space group: P N N A
;
_chemical_formula_sum "Si O2"
_cell_formula_units_Z 48
_cell_length_a 20.628754
_cell_length_b 11.257557
_cell_length_c 9.169995
_cell_angle_alpha 90.000000
_cell_angle_beta 90.000000
_cell_angle_gamma 90.000000
_cell_volume 2129.542198
_symmetry_space_group_name_H-M "P N N A"
_symmetry_group_IT_number 52
_symmetry_cell_setting 'orthorhombic'
loop_
_space_group_symop_operation_xyz
x,y,z
1/2-x,-y,z
x,1/2-y,1/2-z
1/2-x,1/2+y,1/2-z
-x,-y,-z
1/2+x,y,-z
-x,1/2+y,1/2+z
1/2+x,1/2-y,1/2+z
loop_
_atom_site_type_symbol
_atom_site_label
_atom_site_fract_x
_atom_site_fract_y
_atom_site_fract_z
Si Si1 0.518723 0.220569 0.908123
Si Si2 0.980567 0.373259 0.837795
Si Si3 0.782105 0.808131 0.592549
Si Si4 0.649546 0.940642 0.541928
Si Si5 0.088040 0.557955 0.730956
Si Si6 0.137402 0.339607 0.611666
O O1 0.545908 0.250000 0.750000
O O2 0.451767 0.350338 0.628739
O O3 0.502459 0.338165 0.999326
O O4 0.574832 0.162461 0.004274
O O5 0.978730 0.250000 0.750000
O O6 0.909325 0.425770 0.846297
O O7 0.031854 0.463463 0.772831
O O8 0.793574 0.750000 0.750000
O O9 0.709221 0.856074 0.581064
O O10 0.801396 0.710682 0.473576
O O11 0.826350 0.923236 0.553033
O O12 0.622314 0.905182 0.381883
O O13 0.142109 0.476454 0.655219
O O14 0.126926 0.250000 0.750000
#
# Coordination Sequence:
#
# PCOD9413591 Si02
#       6
#     8   8   8   8   8   8
#     4  12  24  39  67 108 143 182 229 289 361 422
#     4  12  24  43  67 104 147 176 230 300 362 428
#     4  11  26  48  75  97 134 193 249 290 348 426
#     4  11  25  46  70 101 141 186 234 299 356 415
#     4  12  24  42  71 109 141 185 234 291 370 424
#     4  12  23  44  70 104 142 188 239 288 350 433
#
# _framework density 22.540056
#
# number of rings (size 3 to 8) (size 9 to 14) (size 15 to 20)
#    0.000    0.333    6.667    2.000    4.667    0.000 
#    3.000    0.000    0.000    0.000    0.000    0.000 
#    0.000    0.000    0.000    0.000    0.000    0.000 
#
# Total GULP energy -268406.434652 kJ/mol
# GULP energy per Si atom -5591.800722 kJ/mol
# Density = 2.248875 g / cm^3
# Si number density = 22.540056 Si / 1000 Ang^3
#
#
#
# Elastic Constant Matrix: (Units=GPa)
#
#
# Indices 1 2 3 4 5 6 
#
# 1 80.3414 16.7653 11.1073 0.0000 0.0000 0.0000
# 2 16.7653 56.8811 10.2844 0.0000 0.0000 0.0000
# 3 11.1073 10.2844 102.0144 0.0000 0.0000 0.0000
# 4 0.0000 0.0000 0.0000 32.7194 0.0000 0.0000
# 5 0.0000 0.0000 0.0000 0.0000 11.5406 0.0000
# 6 0.0000 0.0000 0.0000 0.0000 0.0000 28.1747
#
#
#
# Elastic Compliance Matrix: (Units=1/GPa)
#
#
# Indices 1 2 3 4 5 6 
#
# 1 0.013378 -0.003748 -0.001079 0.000000 0.000000 0.000000
# 2 -0.003748 0.018957 -0.001503 0.000000 0.000000 0.000000
# 3 -0.001079 -0.001503 0.010072 0.000000 0.000000 0.000000
# 4 0.000000 0.000000 0.000000 0.030563 0.000000 0.000000
# 5 0.000000 0.000000 0.000000 0.000000 0.086651 0.000000
# 6 0.000000 0.000000 0.000000 0.000000 0.000000 0.035493
#
#
# Mechanical properties :
#
#
# Convention : Reuss Voigt Hill
#
# Bulk Modulus (GPa) = 33.61688 35.06122 34.33905
# Shear Modulus (GPa) = 22.96861 27.89227 25.43044
#
# Velocity S-wave (km/s) = 3.19566 3.52156 3.36256
# Velocity P-wave (km/s) = 5.34444 5.66781 5.50849
#
# Compressibility (1/GPa) = 0.02974696
#
# Stress axis : x y z
#
# Youngs Moduli (GPa) = 74.74875 52.75094 99.28987
#
# Poissons Ratio (x) = 0.19771 0.10711
# Poissons Ratio (y) = 0.28016 0.14924
# Poissons Ratio (z) = 0.08064 0.07929
#
# Static dielectric constant tensor:
#      x y z
#    x 1.818080 0.000000 0.000000 
#    y 0.000000 1.877780 0.000000 
#    z 0.000000 0.000000 1.873290 
# 
# From -- ./inp_files/14255.got.cif
#   From: 2010.05.17/outbox.cif.g08.bks.cpg/sg52_8_cif.got.tgz:14255.got - 2010.06.03 12:15:38.
