data_PCOD9413498
_publ_section_title
;
Structure prediction by ZEFSAII (Michael W. Deem and Ramdas Pophale) SiO2 
 PCOD9413498
Probable space group: P N N A
;
_chemical_formula_sum "Si O2"
_cell_formula_units_Z 40
_cell_length_a 17.775917
_cell_length_b 11.807279
_cell_length_c 8.061215
_cell_angle_alpha 90.000000
_cell_angle_beta 90.000000
_cell_angle_gamma 90.000000
_cell_volume 1691.929815
_symmetry_space_group_name_H-M "P N N A"
_symmetry_group_IT_number 52
_symmetry_cell_setting 'orthorhombic'
loop_
_space_group_symop_operation_xyz
x,y,z
1/2-x,-y,z
x,1/2-y,1/2-z
1/2-x,1/2+y,1/2-z
-x,-y,-z
1/2+x,y,-z
-x,1/2+y,1/2+z
1/2+x,1/2-y,1/2+z
loop_
_atom_site_type_symbol
_atom_site_label
_atom_site_fract_x
_atom_site_fract_y
_atom_site_fract_z
Si Si1 0.952173 0.115964 0.460006
Si Si2 0.838238 0.250000 0.250000
Si Si3 0.939721 0.827468 0.952635
Si Si4 0.802329 0.750000 0.750000
Si Si5 0.207037 0.611588 0.458861
Si Si6 0.050414 0.931935 0.185229
O O1 0.888262 0.144428 0.323952
O O2 0.920493 0.124374 0.646924
O O3 0.006432 0.221582 0.436962
O O4 0.000000 0.000000 0.500000
O O5 0.788574 0.292474 0.402642
O O6 0.859223 0.774630 0.904016
O O7 0.954219 0.931362 0.824675
O O8 0.969870 0.882778 0.125345
O O9 0.745654 0.646603 0.715413
O O10 0.250000 0.500000 0.516294
O O11 0.118096 0.591770 0.441180
#
# Coordination Sequence:
#
# PCOD9413498 Si02
#       6
#     8   4   8   4   8   8
#     4  12  25  42  76 113 149 191 256 323 384 462
#     4  12  27  52  70 109 158 206 264 316 385 486
#     4  11  24  44  76 112 148 193 262 322 378 470
#     4  12  25  48  76 109 150 196 258 316 383 468
#     4  12  27  51  74 102 157 210 247 320 397 461
#     4  11  24  48  77 105 150 206 251 317 400 460
#
# _framework density 23.641641
#
# number of rings (size 3 to 8) (size 9 to 14) (size 15 to 20)
#    0.000    0.400    4.000    4.800    2.800    0.000 
#   10.800    0.000    0.000    0.000    0.000    0.000 
#    0.000    0.000    0.000    0.000    0.000    0.000 
#
# Total GULP energy -222670.810029 kJ/mol
# GULP energy per Si atom -5566.770251 kJ/mol
# Density = 2.358783 g / cm^3
# Si number density = 23.641641 Si / 1000 Ang^3
#
#
#
# Elastic Constant Matrix: (Units=GPa)
#
#
# Indices 1 2 3 4 5 6 
#
# 1 114.6064 35.2619 39.3387 0.0000 0.0000 0.0000
# 2 35.2619 126.8943 39.2910 0.0000 0.0000 0.0000
# 3 39.3387 39.2910 105.7157 0.0000 0.0000 0.0000
# 4 0.0000 0.0000 0.0000 43.7712 0.0000 0.0000
# 5 0.0000 0.0000 0.0000 0.0000 20.7648 0.0000
# 6 0.0000 0.0000 0.0000 0.0000 0.0000 30.8973
#
#
#
# Elastic Compliance Matrix: (Units=1/GPa)
#
#
# Indices 1 2 3 4 5 6 
#
# 1 0.010398 -0.001911 -0.003159 0.000000 0.000000 0.000000
# 2 -0.001911 0.009257 -0.002729 0.000000 0.000000 0.000000
# 3 -0.003159 -0.002729 0.011649 0.000000 0.000000 0.000000
# 4 0.000000 0.000000 0.000000 0.022846 0.000000 0.000000
# 5 0.000000 0.000000 0.000000 0.000000 0.048158 0.000000
# 6 0.000000 0.000000 0.000000 0.000000 0.000000 0.032365
#
#
# Mechanical properties :
#
#
# Convention : Reuss Voigt Hill
#
# Bulk Modulus (GPa) = 63.67380 63.88883 63.78131
# Shear Modulus (GPa) = 32.15283 34.64164 33.39724
#
# Velocity S-wave (km/s) = 3.69183 3.83205 3.76259
# Velocity P-wave (km/s) = 6.72043 6.83096 6.77592
#
# Compressibility (1/GPa) = 0.01570505
#
# Stress axis : x y z
#
# Youngs Moduli (GPa) = 96.17363 108.02927 85.84319
#
# Poissons Ratio (x) = 0.20648 0.27117
# Poissons Ratio (y) = 0.18382 0.23428
# Poissons Ratio (z) = 0.30380 0.29483
#
# Static dielectric constant tensor:
#      x y z
#    x 1.927930 0.000000 0.000000 
#    y 0.000000 1.990790 0.000000 
#    z 0.000000 0.000000 2.338480 
# 
# From -- ./inp_files/11701.got.cif
#   From: 2010.05.17/outbox.cif.g08.bks.cpg/sg52_6_cif.got.tgz:11701.got - 2010.06.03 12:15:38.
