data_PCOD9413768
_publ_section_title
;
Structure prediction by ZEFSAII (Michael W. Deem and Ramdas Pophale) SiO2 
 PCOD9413768
Probable space group: P N N A
;
_chemical_formula_sum "Si O2"
_cell_formula_units_Z 20
_cell_length_a 14.023015
_cell_length_b 4.973383
_cell_length_c 12.436202
_cell_angle_alpha 90.000000
_cell_angle_beta 90.000000
_cell_angle_gamma 90.000000
_cell_volume 867.323416
_symmetry_space_group_name_H-M "P N N A"
_symmetry_group_IT_number 52
_symmetry_cell_setting 'orthorhombic'
loop_
_space_group_symop_operation_xyz
x,y,z
1/2-x,-y,z
x,1/2-y,1/2-z
1/2-x,1/2+y,1/2-z
-x,-y,-z
1/2+x,y,-z
-x,1/2+y,1/2+z
1/2+x,1/2-y,1/2+z
loop_
_atom_site_type_symbol
_atom_site_label
_atom_site_fract_x
_atom_site_fract_y
_atom_site_fract_z
Si Si1 0.750000 0.500000 0.677487
Si Si2 0.891243 0.591234 0.490486
Si Si3 0.648304 0.895147 0.349537
O O1 0.784528 0.250000 0.750000
O O2 0.835031 0.619207 0.602467
O O3 0.838480 0.341583 0.434108
O O4 0.000000 0.500000 0.500000
O O5 0.892854 0.852912 0.414221
O O6 0.595445 0.750000 0.250000
O O7 0.750000 0.000000 0.307898
#
# Coordination Sequence:
#
# PCOD9413768 Si02
#       3
#     4   8   8
#     4  12  26  48  72 100 148 200 246 298 370 444
#     4  12  26  46  72 106 148 194 249 306 366 450
#     4  12  23  44  73 106 141 183 237 304 381 434
#
# _framework density 23.059449000000001
#
# number of rings (size 3 to 8) (size 9 to 14) (size 15 to 20)
#    0.000    0.000    4.000    7.200    0.000    4.800 
#    0.000    0.000    0.000    0.000    0.000    0.000 
#    0.000    0.000    0.000    0.000    0.000    0.000 
#
# Total GULP energy -111804.930979 kJ/mol
# GULP energy per Si atom -5590.246549 kJ/mol
# Density = 2.300697 g / cm^3
# Si number density = 23.059449 Si / 1000 Ang^3
#
#
#
# Elastic Constant Matrix: (Units=GPa)
#
#
# Indices 1 2 3 4 5 6 
#
# 1 104.0757 35.4349 41.5295 0.0000 0.0000 0.0000
# 2 35.4349 208.0573 73.5571 0.0000 0.0000 0.0000
# 3 41.5295 73.5571 119.6672 0.0000 0.0000 0.0000
# 4 0.0000 0.0000 0.0000 124.1914 0.0000 0.0000
# 5 0.0000 0.0000 0.0000 0.0000 -12.3403 0.0000
# 6 0.0000 0.0000 0.0000 0.0000 0.0000 28.6410
#
#
#
# Elastic Compliance Matrix: (Units=1/GPa)
#
#
# Indices 1 2 3 4 5 6 
#
# 1 0.011228 -0.000683 -0.003477 0.000000 0.000000 0.000000
# 2 -0.000683 0.006182 -0.003563 0.000000 0.000000 0.000000
# 3 -0.003477 -0.003563 0.011753 0.000000 0.000000 0.000000
# 4 0.000000 0.000000 0.000000 0.008052 0.000000 0.000000
# 5 0.000000 0.000000 0.000000 0.000000 -0.081035 0.000000
# 6 0.000000 0.000000 0.000000 0.000000 0.000000 0.034915
#
#
# Mechanical properties :
#
#
# Convention : Reuss Voigt Hill
#
# Bulk Modulus (GPa) = 72.89735 81.42701 77.16218
# Shear Modulus (GPa) = 449.85774 46.85034 248.35404
#
# Velocity S-wave (km/s) = 13.98247 4.51235 10.38920
# Velocity P-wave (km/s) = 17.09856 7.90802 13.32099
#
# Compressibility (1/GPa) = 0.01371792
#
# Stress axis : x y z
#
# Youngs Moduli (GPa) = 89.06048 161.74848 85.08250
#
# Poissons Ratio (x) = 0.11050 0.29581
# Poissons Ratio (y) = 0.06084 0.30316
# Poissons Ratio (z) = 0.30964 0.57633
#
# Static dielectric constant tensor:
#      x y z
#    x 1.904380 0.000000 0.000000 
#    y 0.000000 1.827590 0.000000 
#    z 0.000000 0.000000 1.946980 
# 
# From -- ./inp_files/18586.got.cif
#   From: 2010.05.17/outbox.cif.g08.bks.cpg/sg52_10_cif.got.tgz:18586.got - 2010.06.03 12:15:38.
