data_PCOD9413925
_publ_section_title
;
Structure prediction by ZEFSAII (Michael W. Deem and Ramdas Pophale) SiO2 
 PCOD9413925
Probable space group: P N N A
;
_chemical_formula_sum "Si O2"
_cell_formula_units_Z 20
_cell_length_a 28.173761
_cell_length_b 5.183756
_cell_length_c 5.145680
_cell_angle_alpha 90.000000
_cell_angle_beta 90.000000
_cell_angle_gamma 90.000000
_cell_volume 751.505480
_symmetry_space_group_name_H-M "P N N A"
_symmetry_group_IT_number 52
_symmetry_cell_setting 'orthorhombic'
loop_
_space_group_symop_operation_xyz
x,y,z
1/2-x,-y,z
x,1/2-y,1/2-z
1/2-x,1/2+y,1/2-z
-x,-y,-z
1/2+x,y,-z
-x,1/2+y,1/2+z
1/2+x,1/2-y,1/2+z
loop_
_atom_site_type_symbol
_atom_site_label
_atom_site_fract_x
_atom_site_fract_y
_atom_site_fract_z
Si Si1 0.804868 0.924193 0.510015
Si Si2 0.125273 0.750000 0.750000
Si Si3 0.444730 0.996867 0.424878
O O1 0.809521 0.750000 0.250000
O O2 0.750000 0.000000 0.540935
O O3 0.836535 0.178589 0.472073
O O4 0.820186 0.750000 0.750000
O O5 0.087414 0.974056 0.681675
O O6 0.435206 0.250000 0.250000
O O7 0.434675 0.750000 0.250000
O O8 0.500000 0.000000 0.500000
#
# Coordination Sequence:
#
# PCOD9413925 Si02
#       3
#     8   4   8
#     4  12  28  51  81 116 167 220 288 365 443 531
#     4  12  30  46  82 118 164 226 290 352 444 516
#     4  12  28  50  81 118 170 225 288 356 431 513
#
# _framework density 26.613244999999999
#
# number of rings (size 3 to 8) (size 9 to 14) (size 15 to 20)
#    0.000    0.000    4.000    3.600   11.200    0.000 
#    0.000    0.000    0.000    0.000    0.000    0.000 
#    0.000    0.000    0.000    0.000    0.000    0.000 
#
# Total GULP energy -111964.811220 kJ/mol
# GULP energy per Si atom -5598.240561 kJ/mol
# Density = 2.655267 g / cm^3
# Si number density = 26.613245 Si / 1000 Ang^3
#
#
#
# Elastic Constant Matrix: (Units=GPa)
#
#
# Indices 1 2 3 4 5 6 
#
# 1 242.6361 51.2410 39.8872 0.0000 0.0000 0.0000
# 2 51.2410 220.2867 108.8816 0.0000 0.0000 0.0000
# 3 39.8872 108.8816 191.6119 0.0000 0.0000 0.0000
# 4 0.0000 0.0000 0.0000 84.4459 0.0000 0.0000
# 5 0.0000 0.0000 0.0000 0.0000 -4.0111 0.0000
# 6 0.0000 0.0000 0.0000 0.0000 0.0000 18.5809
#
#
#
# Elastic Compliance Matrix: (Units=1/GPa)
#
#
# Indices 1 2 3 4 5 6 
#
# 1 0.004363 -0.000787 -0.000461 0.000000 0.000000 0.000000
# 2 -0.000787 0.006454 -0.003504 0.000000 0.000000 0.000000
# 3 -0.000461 -0.003504 0.007306 0.000000 0.000000 0.000000
# 4 0.000000 0.000000 0.000000 0.011842 0.000000 0.000000
# 5 0.000000 0.000000 0.000000 0.000000 -0.249309 0.000000
# 6 0.000000 0.000000 0.000000 0.000000 0.000000 0.053819
#
#
# Mechanical properties :
#
#
# Convention : Reuss Voigt Hill
#
# Bulk Modulus (GPa) = 116.01216 117.17268 116.59242
# Shear Modulus (GPa) = -32.64840 50.10479 8.72820
#
# Velocity S-wave (km/s) = -3.50633 4.34372 1.81294
# Velocity P-wave (km/s) = 5.22437 8.32350 6.94891
#
# Compressibility (1/GPa) = 0.00861979
#
# Stress axis : x y z
#
# Youngs Moduli (GPa) = 229.17836 154.93121 136.87592
#
# Poissons Ratio (x) = 0.12194 0.06311
# Poissons Ratio (y) = 0.18038 0.47959
# Poissons Ratio (z) = 0.10567 0.54286
#
# Static dielectric constant tensor:
#      x y z
#    x 2.022240 0.000000 0.000000 
#    y 0.000000 2.059070 0.000000 
#    z 0.000000 0.000000 2.172590 
# 
# From -- ./inp_files/5410.got.cif
#   From: 2010.05.17/outbox.cif.g08.bks.cpg/sg52_3_cif.got.tgz:5410.got - 2010.06.03 12:15:38.
