data_PCOD9413081
_publ_section_title
;
Structure prediction by ZEFSAII (Michael W. Deem and Ramdas Pophale) SiO2 
 PCOD9413081
Probable space group: P N N A
;
_chemical_formula_sum "Si O2"
_cell_formula_units_Z 48
_cell_length_a 15.611506
_cell_length_b 9.480774
_cell_length_c 17.824603
_cell_angle_alpha 90.000000
_cell_angle_beta 90.000000
_cell_angle_gamma 90.000000
_cell_volume 2638.204521
_symmetry_space_group_name_H-M "P N N A"
_symmetry_group_IT_number 52
_symmetry_cell_setting 'orthorhombic'
loop_
_space_group_symop_operation_xyz
x,y,z
1/2-x,-y,z
x,1/2-y,1/2-z
1/2-x,1/2+y,1/2-z
-x,-y,-z
1/2+x,y,-z
-x,1/2+y,1/2+z
1/2+x,1/2-y,1/2+z
loop_
_atom_site_type_symbol
_atom_site_label
_atom_site_fract_x
_atom_site_fract_y
_atom_site_fract_z
Si Si1 0.596243 0.518529 0.086546
Si Si2 0.370778 0.722187 0.663341
Si Si3 0.282514 0.282152 0.569329
Si Si4 0.957896 0.781238 0.661178
Si Si5 0.176463 0.384105 0.050860
Si Si6 0.447332 0.031385 0.925295
O O1 0.617483 0.374951 0.127655
O O2 0.669744 0.636788 0.089894
O O3 0.518020 0.590883 0.130808
O O4 0.603214 0.464984 0.999443
O O5 0.383176 0.750000 0.750000
O O6 0.275482 0.674332 0.639628
O O7 0.431603 0.607684 0.624180
O O8 0.220210 0.238722 0.500335
O O9 0.355946 0.396533 0.553900
O O10 0.956376 0.750000 0.750000
O O11 0.866588 0.817368 0.623880
O O12 0.999570 0.644762 0.622221
O O13 0.250000 0.500000 0.066591
O O14 0.500000 0.000000 0.000000
#
# Coordination Sequence:
#
# PCOD9413081 Si02
#       6
#     8   8   8   8   8   8
#     4   9  19  36  56  78 107 147 189 224 267 333
#     4  11  21  33  53  84 117 147 184 233 289 340
#     4   9  20  36  56  80 107 145 189 233 276 328
#     4  11  22  37  57  84 115 144 179 231 285 329
#     4   9  18  36  60  81 102 142 195 230 264 328
#     4  11  23  38  57  83 116 153 188 229 283 340
#
# _framework density 18.194192999999999
#
# number of rings (size 3 to 8) (size 9 to 14) (size 15 to 20)
#    0.000    2.000    0.000    5.500    0.000    8.000 
#    0.000    1.667    0.000    1.000    0.000    0.000 
#    0.000    0.000    0.000    0.000    0.000    0.000 
#
# Total GULP energy -267450.200393 kJ/mol
# GULP energy per Si atom -5571.879175 kJ/mol
# Density = 1.815278 g / cm^3
# Si number density = 18.194193 Si / 1000 Ang^3
#
#
#
# Elastic Constant Matrix: (Units=GPa)
#
#
# Indices 1 2 3 4 5 6 
#
# 1 75.9518 25.3820 71.2166 0.0000 0.0000 0.0000
# 2 25.3820 76.0514 52.2168 0.0000 0.0000 0.0000
# 3 71.2166 52.2168 161.9745 0.0000 0.0000 0.0000
# 4 0.0000 0.0000 0.0000 21.5301 0.0000 0.0000
# 5 0.0000 0.0000 0.0000 0.0000 37.0199 0.0000
# 6 0.0000 0.0000 0.0000 0.0000 0.0000 -4.6983
#
#
#
# Elastic Compliance Matrix: (Units=1/GPa)
#
#
# Indices 1 2 3 4 5 6 
#
# 1 0.022452 -0.000919 -0.009575 0.000000 0.000000 0.000000
# 2 -0.000919 0.016924 -0.005052 0.000000 0.000000 0.000000
# 3 -0.009575 -0.005052 0.012013 0.000000 0.000000 0.000000
# 4 0.000000 0.000000 0.000000 0.046447 0.000000 0.000000
# 5 0.000000 0.000000 0.000000 0.000000 0.027012 0.000000
# 6 0.000000 0.000000 0.000000 0.000000 0.000000 -0.212841
#
#
# Mechanical properties :
#
#
# Convention : Reuss Voigt Hill
#
# Bulk Modulus (GPa) = 49.27021 67.95649 58.61335
# Shear Modulus (GPa) = -99.72840 21.78116 -38.97362
#
# Velocity S-wave (km/s) = -7.41163 3.46374 -4.63329
# Velocity P-wave (km/s) = 6.79000 7.30947 1.91367
#
# Compressibility (1/GPa) = 0.02029624
#
# Stress axis : x y z
#
# Youngs Moduli (GPa) = 44.54020 59.08635 83.24652
#
# Poissons Ratio (x) = 0.05429 0.79711
# Poissons Ratio (y) = 0.04092 0.42056
# Poissons Ratio (z) = 0.42648 0.29851
#
# Static dielectric constant tensor:
#      x y z
#    x 1.672410 0.000000 0.000000 
#    y 0.000000 1.630210 0.000000 
#    z 0.000000 0.000000 1.748490 
# 
# From -- ./inp_files/28028.got.cif
#   From: 2010.05.17/outbox.cif.g08.bks.cpg/sg52_15_cif.got.tgz:28028.got - 2010.06.03 12:15:38.
