data_PCOD9413382
_publ_section_title
;
Structure prediction by ZEFSAII (Michael W. Deem and Ramdas Pophale) SiO2 
 PCOD9413382
Probable space group: P N N A
;
_chemical_formula_sum "Si O2"
_cell_formula_units_Z 40
_cell_length_a 14.087111
_cell_length_b 16.224198
_cell_length_c 8.441350
_cell_angle_alpha 90.000000
_cell_angle_beta 90.000000
_cell_angle_gamma 90.000000
_cell_volume 1929.288085
_symmetry_space_group_name_H-M "P N N A"
_symmetry_group_IT_number 52
_symmetry_cell_setting 'orthorhombic'
loop_
_space_group_symop_operation_xyz
x,y,z
1/2-x,-y,z
x,1/2-y,1/2-z
1/2-x,1/2+y,1/2-z
-x,-y,-z
1/2+x,y,-z
-x,1/2+y,1/2+z
1/2+x,1/2-y,1/2+z
loop_
_atom_site_type_symbol
_atom_site_label
_atom_site_fract_x
_atom_site_fract_y
_atom_site_fract_z
Si Si1 0.246981 0.286512 0.576218
Si Si2 0.391119 0.483214 0.954474
Si Si3 0.628401 0.077776 0.923853
Si Si4 0.732322 0.118219 0.595100
Si Si5 0.596035 0.912946 0.103120
O O1 0.236156 0.250000 0.750000
O O2 0.173143 0.359955 0.549433
O O3 0.233886 0.213761 0.449295
O O4 0.349831 0.329004 0.565984
O O5 0.382811 0.444118 0.780951
O O6 0.500000 0.500000 0.000000
O O7 0.332729 0.568070 0.969519
O O8 0.336923 0.420995 0.074187
O O9 0.685053 0.096416 0.762542
O O10 0.516904 0.095669 0.906232
O O11 0.632451 0.983926 0.984000
#
# Coordination Sequence:
#
# PCOD9413382 Si02
#       5
#     8   8   8   8   8
#     4  12  25  44  69 101 143 183 228 288 357 420
#     4  11  23  43  73 102 140 185 237 285 351 429
#     4  11  26  46  73 102 139 185 240 290 348 423
#     4  11  25  43  69 106 138 183 231 296 350 419
#     4  11  25  46  72 103 140 189 232 290 355 424
#
# _framework density 20.733035999999998
#
# number of rings (size 3 to 8) (size 9 to 14) (size 15 to 20)
#    0.000    0.800    4.000    2.400    8.400    3.200 
#    0.000    2.000    0.000    0.000    0.000    0.000 
#    0.000    0.000    0.000    0.000    0.000    0.000 
#
# Total GULP energy -223835.784388 kJ/mol
# GULP energy per Si atom -5595.894610 kJ/mol
# Density = 2.068585 g / cm^3
# Si number density = 20.733036 Si / 1000 Ang^3
#
#
#
# Elastic Constant Matrix: (Units=GPa)
#
#
# Indices 1 2 3 4 5 6 
#
# 1 127.2045 32.9140 42.1057 0.0000 0.0000 0.0000
# 2 32.9140 57.2702 25.0013 0.0000 0.0000 0.0000
# 3 42.1057 25.0013 92.0443 0.0000 0.0000 0.0000
# 4 0.0000 0.0000 0.0000 38.7631 0.0000 0.0000
# 5 0.0000 0.0000 0.0000 0.0000 30.1504 0.0000
# 6 0.0000 0.0000 0.0000 0.0000 0.0000 10.9804
#
#
#
# Elastic Compliance Matrix: (Units=1/GPa)
#
#
# Indices 1 2 3 4 5 6 
#
# 1 0.010121 -0.004306 -0.003460 0.000000 0.000000 0.000000
# 2 -0.004306 0.021642 -0.003909 0.000000 0.000000 0.000000
# 3 -0.003460 -0.003909 0.013509 0.000000 0.000000 0.000000
# 4 0.000000 0.000000 0.000000 0.025798 0.000000 0.000000
# 5 0.000000 0.000000 0.000000 0.000000 0.033167 0.000000
# 6 0.000000 0.000000 0.000000 0.000000 0.000000 0.091071
#
#
# Mechanical properties :
#
#
# Convention : Reuss Voigt Hill
#
# Bulk Modulus (GPa) = 45.61613 52.95122 49.28367
# Shear Modulus (GPa) = 22.12729 27.74531 24.93630
#
# Velocity S-wave (km/s) = 3.27042 3.66213 3.47181
# Velocity P-wave (km/s) = 6.02580 6.59368 6.31613
#
# Compressibility (1/GPa) = 0.02192207
#
# Stress axis : x y z
#
# Youngs Moduli (GPa) = 98.80542 46.20599 74.02540
#
# Poissons Ratio (x) = 0.19897 0.25614
# Poissons Ratio (y) = 0.42547 0.28934
# Poissons Ratio (z) = 0.34188 0.18060
#
# Static dielectric constant tensor:
#      x y z
#    x 1.735480 0.000000 0.000000 
#    y 0.000000 1.725720 0.000000 
#    z 0.000000 0.000000 1.770150 
# 
# From -- ./inp_files/10031.got.cif
#   From: 2010.05.17/outbox.cif.g08.bks.cpg/sg52_6_cif.got.tgz:10031.got - 2010.06.03 12:15:38.
