data_PCOD9413938
_publ_section_title
;
Structure prediction by ZEFSAII (Michael W. Deem and Ramdas Pophale) SiO2 
 PCOD9413938
Probable space group: P N N A
;
_chemical_formula_sum "Si O2"
_cell_formula_units_Z 48
_cell_length_a 33.307867
_cell_length_b 9.249197
_cell_length_c 7.196366
_cell_angle_alpha 90.000000
_cell_angle_beta 90.000000
_cell_angle_gamma 90.000000
_cell_volume 2216.991839
_symmetry_space_group_name_H-M "P N N A"
_symmetry_group_IT_number 52
_symmetry_cell_setting 'orthorhombic'
loop_
_space_group_symop_operation_xyz
x,y,z
1/2-x,-y,z
x,1/2-y,1/2-z
1/2-x,1/2+y,1/2-z
-x,-y,-z
1/2+x,y,-z
-x,1/2+y,1/2+z
1/2+x,1/2-y,1/2+z
loop_
_atom_site_type_symbol
_atom_site_label
_atom_site_fract_x
_atom_site_fract_y
_atom_site_fract_z
Si Si1 0.926608 0.151106 0.409812
Si Si2 0.631823 0.419780 0.023434
Si Si3 0.710646 0.914717 0.472688
Si Si4 0.127248 0.411577 0.524332
Si Si5 0.708601 0.580480 0.479247
Si Si6 0.543392 0.941622 0.042197
O O1 0.902017 0.250000 0.250000
O O2 0.954285 0.063506 0.268020
O O3 0.950401 0.274498 0.515685
O O4 0.901450 0.039114 0.526757
O O5 0.673213 0.490824 0.965264
O O6 0.629404 0.415135 0.249501
O O7 0.628386 0.255049 0.963116
O O8 0.708929 0.748733 0.534584
O O9 0.709481 0.916774 0.246936
O O10 0.750000 0.000000 0.531143
O O11 0.167142 0.499922 0.465433
O O12 0.083499 0.475855 0.476232
O O13 0.750000 0.500000 0.535289
O O14 0.500000 0.000000 0.000000
#
# Coordination Sequence:
#
# PCOD9413938 Si02
#       6
#     8   8   8   8   8   8
#     4   7  15  24  37  49  61  87 110 137 178 205
#     4   9  14  22  32  44  65  81 114 142 165 202
#     4   9  15  19  27  40  59  85 109 142 170 183
#     4   9  15  21  33  47  60  87 111 141 173 194
#     4   9  15  21  28  40  60  81 113 140 165 196
#     4   8  14  25  37  49  65  84 113 140 169 210
#
# _framework density 21.650957999999999
#
# number of rings (size 3 to 8) (size 9 to 14) (size 15 to 20)
#    1.000    2.333    0.000    2.000    2.333    4.000 
#    0.000    0.833    0.000    0.000    0.000    0.000 
#    0.000    0.000    0.000    0.000    0.000   33.333 
#
# Total GULP energy -267320.631406 kJ/mol
# GULP energy per Si atom -5569.179821 kJ/mol
# Density = 2.160168 g / cm^3
# Si number density = 21.650958 Si / 1000 Ang^3
#
#
#
# Elastic Constant Matrix: (Units=GPa)
#
#
# Indices 1 2 3 4 5 6 
#
# 1 235.3048 150.8233 21.6901 0.0000 0.0000 0.0000
# 2 150.8233 223.6335 12.8181 0.0000 0.0000 0.0000
# 3 21.6901 12.8181 75.9018 0.0000 0.0000 0.0000
# 4 0.0000 0.0000 0.0000 -16.6904 0.0000 0.0000
# 5 0.0000 0.0000 0.0000 0.0000 -6.8691 0.0000
# 6 0.0000 0.0000 0.0000 0.0000 0.0000 34.3372
#
#
#
# Elastic Compliance Matrix: (Units=1/GPa)
#
#
# Indices 1 2 3 4 5 6 
#
# 1 0.007615 -0.005060 -0.001322 0.000000 0.000000 0.000000
# 2 -0.005060 0.007877 0.000116 0.000000 0.000000 0.000000
# 3 -0.001322 0.000116 0.013533 0.000000 0.000000 0.000000
# 4 0.000000 0.000000 0.000000 -0.059915 0.000000 0.000000
# 5 0.000000 0.000000 0.000000 0.000000 -0.145580 0.000000
# 6 0.000000 0.000000 0.000000 0.000000 0.000000 0.029123
#
#
# Mechanical properties :
#
#
# Convention : Reuss Voigt Hill
#
# Bulk Modulus (GPa) = 60.62917 100.61147 80.62032
# Shear Modulus (GPa) = -38.66483 25.45611 -6.60436
#
# Velocity S-wave (km/s) = -4.23049 3.43264 -1.74843
# Velocity P-wave (km/s) = 2.04966 7.89185 5.76552
#
# Compressibility (1/GPa) = 0.01649371
#
# Stress axis : x y z
#
# Youngs Moduli (GPa) = 131.32222 126.94430 73.89319
#
# Poissons Ratio (x) = 0.64232 0.09765
# Poissons Ratio (y) = 0.66447 -0.00854
# Poissons Ratio (z) = 0.17355 -0.01468
#
# Static dielectric constant tensor:
#      x y z
#    x 1.814510 0.000000 0.000000 
#    y 0.000000 1.777050 0.000000 
#    z 0.000000 0.000000 1.936090 
# 
# From -- ./inp_files/22781.got.cif
#   From: 2010.05.17/outbox.cif.g08.bks.cpg/sg52_12_cif.got.tgz:22781.got - 2010.06.03 12:15:38.
