data_PCOD9413794
_publ_section_title
;
Structure prediction by ZEFSAII (Michael W. Deem and Ramdas Pophale) SiO2 
 PCOD9413794
Probable space group: P N N A
;
_chemical_formula_sum "Si O2"
_cell_formula_units_Z 20
_cell_length_a 4.855352
_cell_length_b 6.629534
_cell_length_c 26.908638
_cell_angle_alpha 90.000000
_cell_angle_beta 90.000000
_cell_angle_gamma 90.000000
_cell_volume 866.154646
_symmetry_space_group_name_H-M "P N N A"
_symmetry_group_IT_number 52
_symmetry_cell_setting 'orthorhombic'
loop_
_space_group_symop_operation_xyz
x,y,z
1/2-x,-y,z
x,1/2-y,1/2-z
1/2-x,1/2+y,1/2-z
-x,-y,-z
1/2+x,y,-z
-x,1/2+y,1/2+z
1/2+x,1/2-y,1/2+z
loop_
_atom_site_type_symbol
_atom_site_label
_atom_site_fract_x
_atom_site_fract_y
_atom_site_fract_z
Si Si1 0.498168 0.639711 0.394065
Si Si2 0.000047 0.632448 0.797633
Si Si3 0.750000 0.500000 0.038523
O O1 0.750000 0.500000 0.378113
O O2 0.384970 0.741567 0.344005
O O3 0.649148 0.810142 0.427749
O O4 0.250000 0.500000 0.416453
O O5 0.250000 0.500000 0.817869
O O6 0.111499 0.750000 0.750000
O O7 0.750000 0.500000 0.777922
O O8 0.500000 0.500000 0.000000
#
# Coordination Sequence:
#
# PCOD9413794 Si02
#       3
#     8   8   4
#     4  12  26  46  74 105 145 190 241 301 366 436
#     4  12  24  43  70 105 148 188 236 294 358 437
#     4  12  28  48  74 106 144 190 246 308 366 426
#
# _framework density 23.090565000000002
#
# number of rings (size 3 to 8) (size 9 to 14) (size 15 to 20)
#    0.000    0.000    2.000    8.400    2.800    4.800 
#    0.000    0.000    0.000    0.000    0.000    0.000 
#    0.000    0.000    0.000    0.000    0.000    0.000 
#
# Total GULP energy -111615.571829 kJ/mol
# GULP energy per Si atom -5580.778591 kJ/mol
# Density = 2.303801 g / cm^3
# Si number density = 23.090565 Si / 1000 Ang^3
#
#
#
# Elastic Constant Matrix: (Units=GPa)
#
#
# Indices 1 2 3 4 5 6 
#
# 1 134.6745 31.2107 4.4865 0.0000 0.0000 0.0000
# 2 31.2107 93.1126 42.7437 0.0000 0.0000 0.0000
# 3 4.4865 42.7437 110.5818 0.0000 0.0000 0.0000
# 4 0.0000 0.0000 0.0000 13.0894 0.0000 0.0000
# 5 0.0000 0.0000 0.0000 0.0000 38.9231 0.0000
# 6 0.0000 0.0000 0.0000 0.0000 0.0000 53.7057
#
#
#
# Elastic Compliance Matrix: (Units=1/GPa)
#
#
# Indices 1 2 3 4 5 6 
#
# 1 0.008120 -0.003125 0.000879 0.000000 0.000000 0.000000
# 2 -0.003125 0.014259 -0.005385 0.000000 0.000000 0.000000
# 3 0.000879 -0.005385 0.011089 0.000000 0.000000 0.000000
# 4 0.000000 0.000000 0.000000 0.076398 0.000000 0.000000
# 5 0.000000 0.000000 0.000000 0.000000 0.025692 0.000000
# 6 0.000000 0.000000 0.000000 0.000000 0.000000 0.018620
#
#
# Mechanical properties :
#
#
# Convention : Reuss Voigt Hill
#
# Bulk Modulus (GPa) = 54.92894 55.02784 54.97839
# Shear Modulus (GPa) = 28.48853 38.47216 33.48034
#
# Velocity S-wave (km/s) = 3.51632 4.08627 3.81196
# Velocity P-wave (km/s) = 6.35029 6.79312 6.57543
#
# Compressibility (1/GPa) = 0.01820534
#
# Stress axis : x y z
#
# Youngs Moduli (GPa) = 123.14819 70.13035 90.18047
#
# Poissons Ratio (x) = 0.21917 -0.07923
# Poissons Ratio (y) = 0.38486 0.48561
# Poissons Ratio (z) = -0.10819 0.37764
#
# Static dielectric constant tensor:
#      x y z
#    x 1.914440 0.000000 0.000000 
#    y 0.000000 2.023790 0.000000 
#    z 0.000000 0.000000 1.853690 
# 
# From -- ./inp_files/41275.got.cif
#   From: 2010.05.17/outbox.cif.g08.bks.cpg/sg52_21_cif.got.tgz:41275.got - 2010.06.03 12:15:38.
