data_PCOD9413261
_publ_section_title
;
Structure prediction by ZEFSAII (Michael W. Deem and Ramdas Pophale) SiO2 
 PCOD9413261
Probable space group: P N N A
;
_chemical_formula_sum "Si O2"
_cell_formula_units_Z 48
_cell_length_a 15.206694
_cell_length_b 15.910961
_cell_length_c 9.463726
_cell_angle_alpha 90.000000
_cell_angle_beta 90.000000
_cell_angle_gamma 90.000000
_cell_volume 2289.777987
_symmetry_space_group_name_H-M "P N N A"
_symmetry_group_IT_number 52
_symmetry_cell_setting 'orthorhombic'
loop_
_space_group_symop_operation_xyz
x,y,z
1/2-x,-y,z
x,1/2-y,1/2-z
1/2-x,1/2+y,1/2-z
-x,-y,-z
1/2+x,y,-z
-x,1/2+y,1/2+z
1/2+x,1/2-y,1/2+z
loop_
_atom_site_type_symbol
_atom_site_label
_atom_site_fract_x
_atom_site_fract_y
_atom_site_fract_z
Si Si1 0.085706 0.179452 0.467611
Si Si2 0.657759 0.524158 0.623826
Si Si3 0.781090 0.330216 0.065871
Si Si4 0.451063 0.862473 0.144529
Si Si5 0.077082 0.658916 0.174097
Si Si6 0.838068 0.139290 0.133267
O O1 0.180783 0.156705 0.525370
O O2 0.068456 0.140848 0.312729
O O3 0.082444 0.279303 0.435022
O O4 0.011764 0.155629 0.581947
O O5 0.750000 0.500000 0.699686
O O6 0.599465 0.443317 0.587678
O O7 0.594862 0.586612 0.711936
O O8 0.689069 0.574468 0.485940
O O9 0.801230 0.231496 0.095477
O O10 0.806895 0.378670 0.208310
O O11 0.844067 0.351202 0.936698
O O12 0.555999 0.860100 0.130196
O O13 0.081275 0.750000 0.250000
#
# Coordination Sequence:
#
# PCOD9413261 Si02
#       6
#     8   8   8   8   8   8
#     4  11  23  42  74 103 137 191 240 287 354 428
#     4  12  26  44  70 106 143 182 234 296 361 426
#     4  11  22  42  70  98 135 182 239 290 341 418
#     4  11  22  45  71 103 140 188 237 294 359 415
#     4  12  24  44  70 104 140 184 241 289 352 426
#     4  11  22  45  65  97 138 181 233 297 344 416
#
# _framework density 20.962731000000002
#
# number of rings (size 3 to 8) (size 9 to 14) (size 15 to 20)
#    0.000    0.667    5.000    3.500    4.667    0.667 
#    6.000    0.833    0.000    0.000    0.000    0.000 
#    0.000    0.000    0.000    0.000    0.000    0.000 
#
# Total GULP energy -268506.839890 kJ/mol
# GULP energy per Si atom -5593.892498 kJ/mol
# Density = 2.091502 g / cm^3
# Si number density = 20.962731 Si / 1000 Ang^3
#
#
#
# Elastic Constant Matrix: (Units=GPa)
#
#
# Indices 1 2 3 4 5 6 
#
# 1 135.6363 3.6195 36.5610 0.0000 0.0000 0.0000
# 2 3.6195 46.3238 16.9504 0.0000 0.0000 0.0000
# 3 36.5610 16.9504 96.0266 0.0000 0.0000 0.0000
# 4 0.0000 0.0000 0.0000 10.9642 0.0000 0.0000
# 5 0.0000 0.0000 0.0000 0.0000 8.6616 0.0000
# 6 0.0000 0.0000 0.0000 0.0000 0.0000 24.7402
#
#
#
# Elastic Compliance Matrix: (Units=1/GPa)
#
#
# Indices 1 2 3 4 5 6 
#
# 1 0.008228 0.000538 -0.003228 0.000000 0.000000 0.000000
# 2 0.000538 0.023113 -0.004285 0.000000 0.000000 0.000000
# 3 -0.003228 -0.004285 0.012399 0.000000 0.000000 0.000000
# 4 0.000000 0.000000 0.000000 0.091206 0.000000 0.000000
# 5 0.000000 0.000000 0.000000 0.000000 0.115452 0.000000
# 6 0.000000 0.000000 0.000000 0.000000 0.000000 0.040420
#
#
# Mechanical properties :
#
#
# Convention : Reuss Voigt Hill
#
# Bulk Modulus (GPa) = 33.56656 43.58316 38.57486
# Shear Modulus (GPa) = 15.88825 23.59692 19.74258
#
# Velocity S-wave (km/s) = 2.75604 3.35873 3.07220
# Velocity P-wave (km/s) = 5.11614 5.98977 5.57011
#
# Compressibility (1/GPa) = 0.02979156
#
# Stress axis : x y z
#
# Youngs Moduli (GPa) = 121.53080 43.26579 80.65108
#
# Poissons Ratio (x) = -0.02329 0.26033
# Poissons Ratio (y) = -0.06541 0.34557
# Poissons Ratio (z) = 0.39228 0.18538
#
# Static dielectric constant tensor:
#      x y z
#    x 1.720060 0.000000 0.000000 
#    y 0.000000 1.752340 0.000000 
#    z 0.000000 0.000000 1.792310 
# 
# From -- ./inp_files/10509.got.cif
#   From: 2010.05.17/outbox.cif.g08.bks.cpg/sg52_6_cif.got.tgz:10509.got - 2010.06.03 12:15:38.
