data_PCOD9413641
_publ_section_title
;
Structure prediction by ZEFSAII (Michael W. Deem and Ramdas Pophale) SiO2 
 PCOD9413641
Probable space group: P N N A
;
_chemical_formula_sum "Si O2"
_cell_formula_units_Z 40
_cell_length_a 26.278825
_cell_length_b 4.912300
_cell_length_c 12.746727
_cell_angle_alpha 90.000000
_cell_angle_beta 90.000000
_cell_angle_gamma 90.000000
_cell_volume 1645.468259
_symmetry_space_group_name_H-M "P N N A"
_symmetry_group_IT_number 52
_symmetry_cell_setting 'orthorhombic'
loop_
_space_group_symop_operation_xyz
x,y,z
1/2-x,-y,z
x,1/2-y,1/2-z
1/2-x,1/2+y,1/2-z
-x,-y,-z
1/2+x,y,-z
-x,1/2+y,1/2+z
1/2+x,1/2-y,1/2+z
loop_
_atom_site_type_symbol
_atom_site_label
_atom_site_fract_x
_atom_site_fract_y
_atom_site_fract_z
Si Si1 0.158521 0.750000 0.750000
Si Si2 0.014419 0.250000 0.250000
Si Si3 0.750000 0.000000 0.983093
Si Si4 0.156682 0.798289 0.373941
Si Si5 0.094991 0.189132 0.065460
Si Si6 0.078893 0.441799 0.841983
Si Si7 0.250000 0.500000 0.864610
O O1 0.116695 0.702384 0.842437
O O2 0.200993 0.542730 0.792789
O O3 0.051123 0.188520 0.152795
O O4 0.975775 0.471266 0.202046
O O5 0.709253 0.836428 0.912613
O O6 0.764987 0.756430 0.062240
O O7 0.152204 0.750000 0.250000
O O8 0.115142 0.615670 0.432739
O O9 0.141414 0.109114 0.399023
O O10 0.076880 0.294157 0.952751
O O11 0.101646 0.250000 0.750000
#
# Coordination Sequence:
#
# PCOD9413641 Si02
#       7
#     4   4   4   8   8   8   4
#     4  11  26  46  68 110 152 196 254 299 382 448
#     4  11  26  50  74 114 146 202 258 317 388 446
#     4  12  27  45  74 112 148 198 256 316 384 450
#     4  12  26  49  77 108 151 199 251 318 377 459
#     4  12  27  49  78 111 151 197 260 311 384 455
#     4  11  28  46  77 110 154 201 249 321 377 460
#     4  12  27  45  76 108 150 206 252 308 380 468
#
# _framework density 24.309189
#
# number of rings (size 3 to 8) (size 9 to 14) (size 15 to 20)
#    0.000    0.400    2.000    4.800   15.400    3.200 
#    0.000    0.000    0.000    0.000    0.000    0.000 
#    0.000    0.000    0.000    0.000    0.000    0.000 
#
# Total GULP energy -223293.694217 kJ/mol
# GULP energy per Si atom -5582.342355 kJ/mol
# Density = 2.425386 g / cm^3
# Si number density = 24.309189 Si / 1000 Ang^3
#
#
#
# Elastic Constant Matrix: (Units=GPa)
#
#
# Indices 1 2 3 4 5 6 
#
# 1 127.5008 1.3308 44.5433 0.0000 0.0000 0.0000
# 2 1.3308 79.1799 32.6252 0.0000 0.0000 0.0000
# 3 44.5433 32.6252 205.8228 0.0000 0.0000 0.0000
# 4 0.0000 0.0000 0.0000 40.2157 0.0000 0.0000
# 5 0.0000 0.0000 0.0000 0.0000 -142.9042 0.0000
# 6 0.0000 0.0000 0.0000 0.0000 0.0000 8.7133
#
#
#
# Elastic Compliance Matrix: (Units=1/GPa)
#
#
# Indices 1 2 3 4 5 6 
#
# 1 0.008517 0.000659 -0.001948 0.000000 0.000000 0.000000
# 2 0.000659 0.013563 -0.002293 0.000000 0.000000 0.000000
# 3 -0.001948 -0.002293 0.005643 0.000000 0.000000 0.000000
# 4 0.000000 0.000000 0.000000 0.024866 0.000000 0.000000
# 5 0.000000 0.000000 0.000000 0.000000 -0.006998 0.000000
# 6 0.000000 0.000000 0.000000 0.000000 0.000000 0.114767
#
#
# Mechanical properties :
#
#
# Convention : Reuss Voigt Hill
#
# Bulk Modulus (GPa) = 48.63492 63.27802 55.95647
# Shear Modulus (GPa) = 28.67395 3.47190 16.07293
#
# Velocity S-wave (km/s) = 3.43819 1.19638 2.57415
# Velocity P-wave (km/s) = 5.98429 5.29107 5.64833
#
# Compressibility (1/GPa) = 0.02056136
#
# Stress axis : x y z
#
# Youngs Moduli (GPa) = 117.41734 73.72990 177.19659
#
# Poissons Ratio (x) = -0.04861 0.34512
# Poissons Ratio (y) = -0.07742 0.40624
# Poissons Ratio (z) = 0.22869 0.16903
#
# Static dielectric constant tensor:
#      x y z
#    x 1.939190 0.000000 0.000000 
#    y 0.000000 2.028170 0.000000 
#    z 0.000000 0.000000 1.962350 
# 
# From -- ./inp_files/22710.got.cif
#   From: 2010.05.17/outbox.cif.g08.bks.cpg/sg52_12_cif.got.tgz:22710.got - 2010.06.03 12:15:38.
