data_PCOD9413633
_publ_section_title
;
Structure prediction by ZEFSAII (Michael W. Deem and Ramdas Pophale) SiO2 
 PCOD9413633
Probable space group: P N N A
;
_chemical_formula_sum "Si O2"
_cell_formula_units_Z 32
_cell_length_a 14.374706
_cell_length_b 14.240498
_cell_length_c 6.988161
_cell_angle_alpha 90.000000
_cell_angle_beta 90.000000
_cell_angle_gamma 90.000000
_cell_volume 1430.497326
_symmetry_space_group_name_H-M "P N N A"
_symmetry_group_IT_number 52
_symmetry_cell_setting 'orthorhombic'
loop_
_space_group_symop_operation_xyz
x,y,z
1/2-x,-y,z
x,1/2-y,1/2-z
1/2-x,1/2+y,1/2-z
-x,-y,-z
1/2+x,y,-z
-x,1/2+y,1/2+z
1/2+x,1/2-y,1/2+z
loop_
_atom_site_type_symbol
_atom_site_label
_atom_site_fract_x
_atom_site_fract_y
_atom_site_fract_z
Si Si1 0.618808 0.432110 0.047732
Si Si2 0.511680 0.550887 0.300892
Si Si3 0.884964 0.750000 0.250000
Si Si4 0.737730 0.717648 0.966397
Si Si5 0.073786 0.750000 0.750000
O O1 0.568046 0.466763 0.856534
O O2 0.716363 0.385369 0.992194
O O3 0.606629 0.512677 0.203791
O O4 0.568015 0.340411 0.151768
O O5 0.500000 0.500000 0.500000
O O6 0.514325 0.662425 0.318313
O O7 0.812685 0.717672 0.417137
O O8 0.731827 0.750000 0.750000
O O9 0.641035 0.723413 0.075109
#
# Coordination Sequence:
#
# PCOD9413633 Si02
#       5
#     8   8   4   8   4
#     4   9  22  41  64  97 129 179 229 267 343 418
#     4  11  26  41  66 102 138 183 223 284 348 414
#     4   7  18  36  68  86 123 168 226 269 320 412
#     4   9  20  40  67  94 129 183 216 281 343 394
#     4  11  26  42  64 104 139 162 244 287 324 418
#
# _framework density 22.369844000000001
#
# number of rings (size 3 to 8) (size 9 to 14) (size 15 to 20)
#    1.500    1.000    0.000    0.000    8.750    5.000 
#    0.000    0.000    0.000    0.000    0.000    0.000 
#    0.000    0.000    0.000    0.000    0.000    0.000 
#
# Total GULP energy -178350.804866 kJ/mol
# GULP energy per Si atom -5573.462652 kJ/mol
# Density = 2.231893 g / cm^3
# Si number density = 22.369844 Si / 1000 Ang^3
#
#
#
# Elastic Constant Matrix: (Units=GPa)
#
#
# Indices 1 2 3 4 5 6 
#
# 1 32.6780 -0.8810 34.2985 0.0000 0.0000 0.0000
# 2 -0.8810 101.7384 46.7771 0.0000 0.0000 0.0000
# 3 34.2985 46.7771 189.3836 0.0000 0.0000 0.0000
# 4 0.0000 0.0000 0.0000 34.9749 0.0000 0.0000
# 5 0.0000 0.0000 0.0000 0.0000 11.4246 0.0000
# 6 0.0000 0.0000 0.0000 0.0000 0.0000 12.7698
#
#
#
# Elastic Compliance Matrix: (Units=1/GPa)
#
#
# Indices 1 2 3 4 5 6 
#
# 1 0.039221 0.004067 -0.008108 0.000000 0.000000 0.000000
# 2 0.004067 0.011510 -0.003580 0.000000 0.000000 0.000000
# 3 -0.008108 -0.003580 0.007633 0.000000 0.000000 0.000000
# 4 0.000000 0.000000 0.000000 0.028592 0.000000 0.000000
# 5 0.000000 0.000000 0.000000 0.000000 0.087530 0.000000
# 6 0.000000 0.000000 0.000000 0.000000 0.000000 0.078310
#
#
# Mechanical properties :
#
#
# Convention : Reuss Voigt Hill
#
# Bulk Modulus (GPa) = 23.18885 53.79878 38.49382
# Shear Modulus (GPa) = 17.70471 28.07424 22.88947
#
# Velocity S-wave (km/s) = 2.81633 3.54645 3.20227
# Velocity P-wave (km/s) = 4.57867 6.39309 5.56039
#
# Compressibility (1/GPa) = 0.04312417
#
# Stress axis : x y z
#
# Youngs Moduli (GPa) = 25.49643 86.87968 131.01336
#
# Poissons Ratio (x) = -0.35338 1.06223
# Poissons Ratio (y) = -0.10371 0.46898
# Poissons Ratio (z) = 0.20672 0.31099
#
# Static dielectric constant tensor:
#      x y z
#    x 1.879900 0.000000 0.000000 
#    y 0.000000 1.897470 0.000000 
#    z 0.000000 0.000000 1.809720 
# 
# From -- ./inp_files/3028.got.cif
#   From: 2010.05.17/outbox.cif.g08.bks.cpg/sg52_2_cif.got.tgz:3028.got - 2010.06.03 12:15:38.
