data_PCOD9413767
_publ_section_title
;
Structure prediction by ZEFSAII (Michael W. Deem and Ramdas Pophale) SiO2 
 PCOD9413767
Probable space group: P N N A
;
_chemical_formula_sum "Si O2"
_cell_formula_units_Z 40
_cell_length_a 18.464038
_cell_length_b 19.105795
_cell_length_c 4.911718
_cell_angle_alpha 90.000000
_cell_angle_beta 90.000000
_cell_angle_gamma 90.000000
_cell_volume 1732.707372
_symmetry_space_group_name_H-M "P N N A"
_symmetry_group_IT_number 52
_symmetry_cell_setting 'orthorhombic'
loop_
_space_group_symop_operation_xyz
x,y,z
1/2-x,-y,z
x,1/2-y,1/2-z
1/2-x,1/2+y,1/2-z
-x,-y,-z
1/2+x,y,-z
-x,1/2+y,1/2+z
1/2+x,1/2-y,1/2+z
loop_
_atom_site_type_symbol
_atom_site_label
_atom_site_fract_x
_atom_site_fract_y
_atom_site_fract_z
Si Si1 0.508306 0.250000 0.750000
Si Si2 0.078585 0.529991 0.061409
Si Si3 0.889804 0.750000 0.250000
Si Si4 0.735802 0.353124 0.315462
Si Si5 0.796541 0.565304 0.810671
Si Si6 0.395549 0.130753 0.927914
O O1 0.558450 0.226118 0.496659
O O2 0.457441 0.186593 0.853335
O O3 0.123045 0.461130 0.145584
O O4 0.087129 0.589967 0.292499
O O5 0.107170 0.568668 0.793133
O O6 0.000000 0.500000 0.000000
O O7 0.832825 0.695419 0.377668
O O8 0.720365 0.420633 0.498577
O O9 0.816642 0.331929 0.405727
O O10 0.728141 0.370164 0.996713
O O11 0.750000 0.500000 0.906110
#
# Coordination Sequence:
#
# PCOD9413767 Si02
#       6
#     4   8   4   8   8   8
#     4  12  29  48  71 100 144 184 236 296 355 412
#     4  12  27  42  71 108 145 181 228 285 359 421
#     4  12  29  48  71 106 132 188 244 298 347 402
#     4  12  25  46  75 100 140 184 240 287 344 416
#     4  12  23  44  72 106 140 177 228 290 344 418
#     4  12  25  49  70 102 143 190 233 283 354 425
#
# _framework density 23.085259000000001
#
# number of rings (size 3 to 8) (size 9 to 14) (size 15 to 20)
#    0.000    0.000    4.000    5.400    8.400    0.000 
#    0.000    6.000    0.000    0.000    0.000    0.000 
#    0.000    0.000    0.000    0.000    0.000    0.000 
#
# Total GULP energy -223678.667364 kJ/mol
# GULP energy per Si atom -5591.966684 kJ/mol
# Density = 2.303272 g / cm^3
# Si number density = 23.085259 Si / 1000 Ang^3
#
#
#
# Elastic Constant Matrix: (Units=GPa)
#
#
# Indices 1 2 3 4 5 6 
#
# 1 196.0846 35.1033 37.9875 0.0000 0.0000 0.0000
# 2 35.1033 41.8469 4.2759 0.0000 0.0000 0.0000
# 3 37.9875 4.2759 105.5940 0.0000 0.0000 0.0000
# 4 0.0000 0.0000 0.0000 23.8367 0.0000 0.0000
# 5 0.0000 0.0000 0.0000 0.0000 64.9658 0.0000
# 6 0.0000 0.0000 0.0000 0.0000 0.0000 25.3196
#
#
#
# Elastic Compliance Matrix: (Units=1/GPa)
#
#
# Indices 1 2 3 4 5 6 
#
# 1 0.006436 -0.005183 -0.002105 0.000000 0.000000 0.000000
# 2 -0.005183 0.028171 0.000724 0.000000 0.000000 0.000000
# 3 -0.002105 0.000724 0.010198 0.000000 0.000000 0.000000
# 4 0.000000 0.000000 0.000000 0.041952 0.000000 0.000000
# 5 0.000000 0.000000 0.000000 0.000000 0.015393 0.000000
# 6 0.000000 0.000000 0.000000 0.000000 0.000000 0.039495
#
#
# Mechanical properties :
#
#
# Convention : Reuss Voigt Hill
#
# Bulk Modulus (GPa) = 31.57039 55.36210 43.46625
# Shear Modulus (GPa) = 30.24207 40.56834 35.40521
#
# Velocity S-wave (km/s) = 3.62334 4.19660 3.92046
# Velocity P-wave (km/s) = 5.58660 6.89315 6.27398
#
# Compressibility (1/GPa) = 0.03167525
#
# Stress axis : x y z
#
# Youngs Moduli (GPa) = 155.38438 35.49775 98.05547
#
# Poissons Ratio (x) = 0.18400 0.20644
# Poissons Ratio (y) = 0.80543 -0.07099
# Poissons Ratio (z) = 0.32714 -0.02570
#
# Static dielectric constant tensor:
#      x y z
#    x 2.042270 0.000000 0.000000 
#    y 0.000000 1.845230 0.000000 
#    z 0.000000 0.000000 1.691490 
# 
# From -- ./inp_files/3257.got.cif
#   From: 2010.05.17/outbox.cif.g08.bks.cpg/sg52_2_cif.got.tgz:3257.got - 2010.06.03 12:15:38.
