data_PCOD9413998
_publ_section_title
;
Structure prediction by ZEFSAII (Michael W. Deem and Ramdas Pophale) SiO2 
 PCOD9413998
Probable space group: P N N A
;
_chemical_formula_sum "Si O2"
_cell_formula_units_Z 48
_cell_length_a 30.000000
_cell_length_b 9.000000
_cell_length_c 9.000000
_cell_angle_alpha 90.000000
_cell_angle_beta 90.000000
_cell_angle_gamma 90.000000
_cell_volume 2430.000000
_symmetry_space_group_name_H-M "P N N A"
_symmetry_group_IT_number 52
_symmetry_cell_setting 'orthorhombic'
loop_
_space_group_symop_operation_xyz
x,y,z
1/2-x,-y,z
x,1/2-y,1/2-z
1/2-x,1/2+y,1/2-z
-x,-y,-z
1/2+x,y,-z
-x,1/2+y,1/2+z
1/2+x,1/2-y,1/2+z
loop_
_atom_site_type_symbol
_atom_site_label
_atom_site_fract_x
_atom_site_fract_y
_atom_site_fract_z
Si Si1 0.448375 0.491569 0.545841
Si Si2 0.409446 0.250000 0.750000
Si Si3 0.413519 0.750000 0.750000
Si Si4 0.140383 0.881146 0.126078
Si Si5 0.297342 0.915728 0.314515
Si Si6 0.789334 0.389723 0.363159
Si Si7 0.149937 0.011162 0.618267
O O1 0.500000 0.500000 0.500000
O O2 0.440786 0.357351 0.658767
O O3 0.439007 0.642354 0.636832
O O4 0.407064 0.448462 0.432641
O O5 0.379583 0.141420 0.642952
O O6 0.383660 0.644317 0.852531
O O7 0.134431 0.750000 0.250000
O O8 0.166769 0.012161 0.205688
O O9 0.176963 0.839507 0.995552
O O10 0.289826 0.750000 0.250000
O O11 0.250000 0.000000 0.314083
O O12 0.320272 0.948091 0.475378
O O13 0.750000 0.500000 0.418888
O O14 0.777284 0.250000 0.250000
O O15 0.817508 0.498116 0.258061
#
# Coordination Sequence:
#
# PCOD9413998 Si02
#       7
#     8   4   4   8   8   8   8
#     4  11  24  44  71 103 133 176 225 287 348 413
#     4  10  20  46  73  98 132 174 231 284 344 406
#     4  10  22  44  71 100 132 172 235 286 338 408
#     4  12  25  46  69  96 142 180 224 284 360 412
#     4  12  27  43  63 101 143 185 227 278 341 409
#     4  12  25  41  68 100 130 182 238 283 332 406
#     4  11  22  45  72  97 134 182 229 284 333 406
#
# _framework density 19.753086
#
# number of rings (size 3 to 8) (size 9 to 14) (size 15 to 20)
#    0.000    0.667    4.167    4.500    2.333    2.667 
#    4.500    2.500    0.000    0.000    0.000    0.000 
#    0.000    0.000    0.000    0.000    0.000    0.000 
#
# Total GULP energy -267501.401581 kJ/mol
# GULP energy per Si atom -5572.945866 kJ/mol
# Density = 1.970813 g / cm^3
# Si number density = 19.753086 Si / 1000 Ang^3
#
#
#
# Elastic Constant Matrix: (Units=GPa)
#
#
# Indices 1 2 3 4 5 6 
#
# 1 191.3771 98.8459 77.3787 0.0000 0.0000 0.0000
# 2 98.8459 169.0850 70.1835 0.0000 0.0000 0.0000
# 3 77.3787 70.1835 124.2705 0.0000 0.0000 0.0000
# 4 0.0000 0.0000 0.0000 25.7735 0.0000 0.0000
# 5 0.0000 0.0000 0.0000 0.0000 64.4948 0.0000
# 6 0.0000 0.0000 0.0000 0.0000 0.0000 115.3458
#
#
#
# Elastic Compliance Matrix: (Units=1/GPa)
#
#
# Indices 1 2 3 4 5 6 
#
# 1 0.008354 -0.003559 -0.003192 0.000000 0.000000 0.000000
# 2 -0.003559 0.009241 -0.003003 0.000000 0.000000 0.000000
# 3 -0.003192 -0.003003 0.011730 0.000000 0.000000 0.000000
# 4 0.000000 0.000000 0.000000 0.038799 0.000000 0.000000
# 5 0.000000 0.000000 0.000000 0.000000 0.015505 0.000000
# 6 0.000000 0.000000 0.000000 0.000000 0.000000 0.008670
#
#
# Mechanical properties :
#
#
# Convention : Reuss Voigt Hill
#
# Bulk Modulus (GPa) = 101.85322 108.61654 105.23488
# Shear Modulus (GPa) = 43.44806 57.01113 50.22960
#
# Velocity S-wave (km/s) = 4.69503 5.37815 5.04816
# Velocity P-wave (km/s) = 9.00368 9.67846 9.34716
#
# Compressibility (1/GPa) = 0.00981805
#
# Stress axis : x y z
#
# Youngs Moduli (GPa) = 119.70418 108.21132 85.24820
#
# Poissons Ratio (x) = 0.38510 0.27210
# Poissons Ratio (y) = 0.42600 0.25601
# Poissons Ratio (z) = 0.38207 0.32497
#
# Static dielectric constant tensor:
#      x y z
#    x 1.714460 0.000000 0.000000 
#    y 0.000000 1.685900 0.000000 
#    z 0.000000 0.000000 1.690010 
# 
# From -- ./inp_files/15565.got.cif
#   From: 2010.05.17/outbox.ucp.g08.bks.cvg/sg52_8_cif.got.tgz:15565.got - 2010.06.11 16:30:12.
