data_PCOD9413920
_publ_section_title
;
Structure prediction by ZEFSAII (Michael W. Deem and Ramdas Pophale) SiO2 
 PCOD9413920
Probable space group: P N N A
;
_chemical_formula_sum "Si O2"
_cell_formula_units_Z 24
_cell_length_a 8.431654
_cell_length_b 8.420967
_cell_length_c 12.729678
_cell_angle_alpha 90.000000
_cell_angle_beta 90.000000
_cell_angle_gamma 90.000000
_cell_volume 903.841255
_symmetry_space_group_name_H-M "P N N A"
_symmetry_group_IT_number 52
_symmetry_cell_setting 'orthorhombic'
loop_
_space_group_symop_operation_xyz
x,y,z
1/2-x,-y,z
x,1/2-y,1/2-z
1/2-x,1/2+y,1/2-z
-x,-y,-z
1/2+x,y,-z
-x,1/2+y,1/2+z
1/2+x,1/2-y,1/2+z
loop_
_atom_site_type_symbol
_atom_site_label
_atom_site_fract_x
_atom_site_fract_y
_atom_site_fract_z
Si Si1 0.046145 0.621630 0.094432
Si Si2 0.924666 0.428224 0.288552
Si Si3 0.662722 0.337317 0.527342
O O1 0.025103 0.533163 0.204488
O O2 0.215344 0.706936 0.075874
O O3 0.916990 0.759446 0.074744
O O4 0.000000 0.500000 0.000000
O O5 0.750000 0.500000 0.290755
O O6 0.901163 0.250000 0.250000
O O7 0.028395 0.391987 0.391467
O O8 0.750000 0.500000 0.505108
#
# Coordination Sequence:
#
# PCOD9413920 Si02
#       3
#     8   8   8
#     4  12  27  54  84 125 176 222 291 373 441 523
#     4  12  30  52  85 124 178 234 293 364 445 528
#     4  12  30  51  87 127 172 234 295 361 447 532
#
# _framework density 26.553336000000002
#
# number of rings (size 3 to 8) (size 9 to 14) (size 15 to 20)
#    0.000    0.000    3.333    4.000    9.333    1.333 
#    0.000    0.000    0.000    0.000    0.000    0.000 
#    0.000    0.000    0.000    0.000    0.000    0.000 
#
# Total GULP energy -134803.689676 kJ/mol
# GULP energy per Si atom -5616.820403 kJ/mol
# Density = 2.649290 g / cm^3
# Si number density = 26.553336 Si / 1000 Ang^3
#
#
#
# Elastic Constant Matrix: (Units=GPa)
#
#
# Indices 1 2 3 4 5 6 
#
# 1 182.6998 80.2831 51.4244 0.0000 0.0000 0.0000
# 2 80.2831 176.9765 51.6620 0.0000 0.0000 0.0000
# 3 51.4244 51.6620 132.9362 0.0000 0.0000 0.0000
# 4 0.0000 0.0000 0.0000 57.8751 0.0000 0.0000
# 5 0.0000 0.0000 0.0000 0.0000 32.3274 0.0000
# 6 0.0000 0.0000 0.0000 0.0000 0.0000 65.0797
#
#
#
# Elastic Compliance Matrix: (Units=1/GPa)
#
#
# Indices 1 2 3 4 5 6 
#
# 1 0.007162 -0.002752 -0.001701 0.000000 0.000000 0.000000
# 2 -0.002752 0.007431 -0.001823 0.000000 0.000000 0.000000
# 3 -0.001701 -0.001823 0.008889 0.000000 0.000000 0.000000
# 4 0.000000 0.000000 0.000000 0.017279 0.000000 0.000000
# 5 0.000000 0.000000 0.000000 0.000000 0.030934 0.000000
# 6 0.000000 0.000000 0.000000 0.000000 0.000000 0.015366
#
#
# Mechanical properties :
#
#
# Convention : Reuss Voigt Hill
#
# Bulk Modulus (GPa) = 91.49885 95.48349 93.49117
# Shear Modulus (GPa) = 48.42368 51.67264 50.04816
#
# Velocity S-wave (km/s) = 4.27504 4.41613 4.34616
# Velocity P-wave (km/s) = 7.67472 7.87655 7.77629
#
# Compressibility (1/GPa) = 0.01092910
#
# Stress axis : x y z
#
# Youngs Moduli (GPa) = 139.63365 134.56699 112.50014
#
# Poissons Ratio (x) = 0.37037 0.19134
# Poissons Ratio (y) = 0.38431 0.20512
# Poissons Ratio (z) = 0.23748 0.24535
#
# Static dielectric constant tensor:
#      x y z
#    x 2.045210 0.000000 0.000000 
#    y 0.000000 2.101780 0.000000 
#    z 0.000000 0.000000 2.256160 
# 
# From -- ./inp_files/23895.got.cif
#   From: 2010.05.17/outbox.cif.g08.bks.cpg/sg52_12_cif.got.tgz:23895.got - 2010.06.03 12:15:38.
