data_PCOD9413014
_publ_section_title
;
Structure prediction by ZEFSAII (Michael W. Deem and Ramdas Pophale) SiO2 
 PCOD9413014
Probable space group: P N N A
;
_chemical_formula_sum "Si O2"
_cell_formula_units_Z 56
_cell_length_a 15.145312
_cell_length_b 13.119740
_cell_length_c 12.751344
_cell_angle_alpha 90.000000
_cell_angle_beta 90.000000
_cell_angle_gamma 90.000000
_cell_volume 2533.724641
_symmetry_space_group_name_H-M "P N N A"
_symmetry_group_IT_number 52
_symmetry_cell_setting 'orthorhombic'
loop_
_space_group_symop_operation_xyz
x,y,z
1/2-x,-y,z
x,1/2-y,1/2-z
1/2-x,1/2+y,1/2-z
-x,-y,-z
1/2+x,y,-z
-x,1/2+y,1/2+z
1/2+x,1/2-y,1/2+z
loop_
_atom_site_type_symbol
_atom_site_label
_atom_site_fract_x
_atom_site_fract_y
_atom_site_fract_z
Si Si1 0.218981 0.750000 0.750000
Si Si2 0.523247 0.323737 0.844604
Si Si3 0.551358 0.656962 0.491757
Si Si4 0.762794 0.838925 0.030939
Si Si5 0.084069 0.045994 0.880674
Si Si6 0.278789 0.808891 0.348875
Si Si7 0.125565 0.537153 0.832105
Si Si8 0.750000 0.500000 0.980689
O O1 0.267117 0.784011 0.856133
O O2 0.170649 0.643957 0.789877
O O3 0.493045 0.250000 0.750000
O O4 0.491556 0.258488 0.944871
O O5 0.624273 0.347303 0.818416
O O6 0.473351 0.429314 0.852906
O O7 0.658041 0.660404 0.498399
O O8 0.493501 0.625016 0.592256
O O9 0.541555 0.563434 0.409246
O O10 0.830378 0.932754 0.045686
O O11 0.801218 0.773285 0.937369
O O12 0.122983 0.039934 0.764534
O O13 0.237049 0.750000 0.250000
O O14 0.232752 0.902454 0.407339
O O15 0.170260 0.492769 0.935662
#
# Coordination Sequence:
#
# PCOD9413014 Si02
#       8
#     4   8   8   8   8   8   8   4
#     4  12  20  36  70 102 138 178 230 298 368 424
#     4  11  19  41  65  92 135 194 228 282 362 436
#     4  11  21  36  62  99 145 177 234 282 357 436
#     4  12  22  42  66  98 142 186 223 301 367 417
#     4  11  23  36  61 111 138 178 238 299 352 434
#     4  11  27  47  69  94 137 193 245 294 359 444
#     4  12  21  39  72 101 139 179 235 299 366 427
#     4  12  26  48  70 106 136 188 254 304 370 440
#
# _framework density 22.101849999999999
#
# number of rings (size 3 to 8) (size 9 to 14) (size 15 to 20)
#    0.000    0.571    7.857    1.286    0.000    0.571 
#    5.143    0.000    1.571    0.000    0.000    0.000 
#    0.000    0.000    0.000    0.000    0.000    0.000 
#
# Total GULP energy -312104.734631 kJ/mol
# GULP energy per Si atom -5573.298833 kJ/mol
# Density = 2.205155 g / cm^3
# Si number density = 22.101850 Si / 1000 Ang^3
#
#
#
# Elastic Constant Matrix: (Units=GPa)
#
#
# Indices 1 2 3 4 5 6 
#
# 1 65.6136 2.4757 9.6201 0.0000 0.0000 0.0000
# 2 2.4757 41.7855 38.8065 0.0000 0.0000 0.0000
# 3 9.6201 38.8065 110.1943 0.0000 0.0000 0.0000
# 4 0.0000 0.0000 0.0000 40.6973 0.0000 0.0000
# 5 0.0000 0.0000 0.0000 0.0000 18.8653 0.0000
# 6 0.0000 0.0000 0.0000 0.0000 0.0000 -20.1470
#
#
#
# Elastic Compliance Matrix: (Units=1/GPa)
#
#
# Indices 1 2 3 4 5 6 
#
# 1 0.015445 0.000501 -0.001525 0.000000 0.000000 0.000000
# 2 0.000501 0.035579 -0.012573 0.000000 0.000000 0.000000
# 3 -0.001525 -0.012573 0.013636 0.000000 0.000000 0.000000
# 4 0.000000 0.000000 0.000000 0.024572 0.000000 0.000000
# 5 0.000000 0.000000 0.000000 0.000000 0.053007 0.000000
# 6 0.000000 0.000000 0.000000 0.000000 0.000000 -0.049635
#
#
# Mechanical properties :
#
#
# Convention : Reuss Voigt Hill
#
# Bulk Modulus (GPa) = 26.69089 35.48865 31.08977
# Shear Modulus (GPa) = 37.79649 18.99587 28.39618
#
# Velocity S-wave (km/s) = 4.13983 2.93485 3.58828
# Velocity P-wave (km/s) = 5.91214 5.25130 5.59149
#
# Compressibility (1/GPa) = 0.03746597
#
# Stress axis : x y z
#
# Youngs Moduli (GPa) = 64.74414 28.10637 73.33577
#
# Poissons Ratio (x) = -0.01408 0.11183
# Poissons Ratio (y) = -0.03244 0.92208
# Poissons Ratio (z) = 0.09873 0.35339
#
# Static dielectric constant tensor:
#      x y z
#    x 1.894330 0.000000 0.000000 
#    y 0.000000 1.873220 0.000000 
#    z 0.000000 0.000000 1.817610 
# 
# From -- ./inp_files/19683.got.cif
#   From: 2010.05.17/outbox.cif.g08.bks.cpg/sg52_10_cif.got.tgz:19683.got - 2010.06.03 12:15:38.
