data_PCOD9413343
_publ_section_title
;
Structure prediction by ZEFSAII (Michael W. Deem and Ramdas Pophale) SiO2 
 PCOD9413343
Probable space group: P N N A
;
_chemical_formula_sum "Si O2"
_cell_formula_units_Z 40
_cell_length_a 22.972707
_cell_length_b 9.671059
_cell_length_c 7.680118
_cell_angle_alpha 90.000000
_cell_angle_beta 90.000000
_cell_angle_gamma 90.000000
_cell_volume 1706.294925
_symmetry_space_group_name_H-M "P N N A"
_symmetry_group_IT_number 52
_symmetry_cell_setting 'orthorhombic'
loop_
_space_group_symop_operation_xyz
x,y,z
1/2-x,-y,z
x,1/2-y,1/2-z
1/2-x,1/2+y,1/2-z
-x,-y,-z
1/2+x,y,-z
-x,1/2+y,1/2+z
1/2+x,1/2-y,1/2+z
loop_
_atom_site_type_symbol
_atom_site_label
_atom_site_fract_x
_atom_site_fract_y
_atom_site_fract_z
Si Si1 0.135641 0.929702 0.005898
Si Si2 0.598610 0.261114 0.540922
Si Si3 0.223384 0.750000 0.250000
Si Si4 0.631687 0.529708 0.102828
Si Si5 0.750000 0.500000 0.925862
Si Si6 0.535206 0.758336 0.460819
O O1 0.182234 0.843926 0.120786
O O2 0.131879 0.094387 0.018236
O O3 0.072638 0.864196 0.046492
O O4 0.139801 0.913690 0.797549
O O5 0.596711 0.250000 0.750000
O O6 0.624573 0.133293 0.431711
O O7 0.530864 0.256741 0.479679
O O8 0.267202 0.634424 0.179121
O O9 0.576206 0.605766 0.014018
O O10 0.693877 0.559821 0.019456
O O11 0.532399 0.750000 0.250000
#
# Coordination Sequence:
#
# PCOD9413343 Si02
#       6
#     8   8   4   8   4   8
#     4  11  24  47  69 104 140 181 235 290 358 429
#     4  11  23  41  70 107 143 181 228 289 353 430
#     4  12  28  48  74 102 142 186 242 302 360 434
#     4  11  24  47  70 102 139 183 237 289 354 427
#     4  12  28  48  72 100 132 186 236 298 358 420
#     4   9  20  42  71 101 139 180 229 287 354 425
#
# _framework density 23.442606000000001
#
# number of rings (size 3 to 8) (size 9 to 14) (size 15 to 20)
#    0.000    1.200    2.000    3.000    4.200    0.800 
#    7.200    0.000    0.000    0.000    0.000    0.000 
#    0.000    0.000    0.000    0.000    0.000    0.000 
#
# Total GULP energy -223029.514702 kJ/mol
# GULP energy per Si atom -5575.737868 kJ/mol
# Density = 2.338925 g / cm^3
# Si number density = 23.442606 Si / 1000 Ang^3
#
#
#
# Elastic Constant Matrix: (Units=GPa)
#
#
# Indices 1 2 3 4 5 6 
#
# 1 81.3196 17.4577 20.6109 0.0000 0.0000 0.0000
# 2 17.4577 148.9007 26.2448 0.0000 0.0000 0.0000
# 3 20.6109 26.2448 70.3972 0.0000 0.0000 0.0000
# 4 0.0000 0.0000 0.0000 18.6701 0.0000 0.0000
# 5 0.0000 0.0000 0.0000 0.0000 21.1222 0.0000
# 6 0.0000 0.0000 0.0000 0.0000 0.0000 31.2598
#
#
#
# Elastic Compliance Matrix: (Units=1/GPa)
#
#
# Indices 1 2 3 4 5 6 
#
# 1 0.013405 -0.000942 -0.003574 0.000000 0.000000 0.000000
# 2 -0.000942 0.007254 -0.002429 0.000000 0.000000 0.000000
# 3 -0.003574 -0.002429 0.016157 0.000000 0.000000 0.000000
# 4 0.000000 0.000000 0.000000 0.053562 0.000000 0.000000
# 5 0.000000 0.000000 0.000000 0.000000 0.047343 0.000000
# 6 0.000000 0.000000 0.000000 0.000000 0.000000 0.031990
#
#
# Mechanical properties :
#
#
# Convention : Reuss Voigt Hill
#
# Bulk Modulus (GPa) = 43.61487 47.69381 45.65434
# Shear Modulus (GPa) = 26.14484 29.96405 28.05444
#
# Velocity S-wave (km/s) = 3.34319 3.57905 3.46313
# Velocity P-wave (km/s) = 5.79206 6.12116 5.95888
#
# Compressibility (1/GPa) = 0.02292796
#
# Stress axis : x y z
#
# Youngs Moduli (GPa) = 74.59850 137.84752 61.89320
#
# Poissons Ratio (x) = 0.12982 0.22118
# Poissons Ratio (y) = 0.07026 0.15032
# Poissons Ratio (z) = 0.26659 0.33480
#
# Static dielectric constant tensor:
#      x y z
#    x 2.114940 0.000000 0.000000 
#    y 0.000000 2.342010 0.000000 
#    z 0.000000 0.000000 2.060250 
# 
# From -- ./inp_files/14028.got.cif
#   From: 2010.05.17/outbox.cif.g08.bks.cpg/sg52_8_cif.got.tgz:14028.got - 2010.06.03 12:15:38.
