data_PCOD9413174
_publ_section_title
;
Structure prediction by ZEFSAII (Michael W. Deem and Ramdas Pophale) SiO2 
 PCOD9413174
Probable space group: P N N A
;
_chemical_formula_sum "Si O2"
_cell_formula_units_Z 48
_cell_length_a 9.662573
_cell_length_b 13.699949
_cell_length_c 17.512899
_cell_angle_alpha 90.000000
_cell_angle_beta 90.000000
_cell_angle_gamma 90.000000
_cell_volume 2318.300781
_symmetry_space_group_name_H-M "P N N A"
_symmetry_group_IT_number 52
_symmetry_cell_setting 'orthorhombic'
loop_
_space_group_symop_operation_xyz
x,y,z
1/2-x,-y,z
x,1/2-y,1/2-z
1/2-x,1/2+y,1/2-z
-x,-y,-z
1/2+x,y,-z
-x,1/2+y,1/2+z
1/2+x,1/2-y,1/2+z
loop_
_atom_site_type_symbol
_atom_site_label
_atom_site_fract_x
_atom_site_fract_y
_atom_site_fract_z
Si Si1 0.277877 0.283411 0.413694
Si Si2 0.502619 0.045153 0.087586
Si Si3 0.583666 0.022369 0.750198
Si Si4 0.990246 0.783308 0.664913
Si Si5 0.723168 0.280869 0.409955
Si Si6 0.005077 0.675962 0.179128
O O1 0.371930 0.380190 0.405744
O O2 0.257144 0.267630 0.502174
O O3 0.358861 0.199264 0.369036
O O4 0.127546 0.276907 0.378166
O O5 0.479351 0.974720 0.161904
O O6 0.641259 0.113997 0.097215
O O7 0.500000 0.000000 0.000000
O O8 0.508825 0.928447 0.715627
O O9 0.750000 0.000000 0.755778
O O10 0.551951 0.104305 0.684812
O O11 0.992851 0.750000 0.750000
O O12 0.134888 0.747430 0.630971
O O13 0.617063 0.201703 0.377730
O O14 0.998445 0.750000 0.250000
#
# Coordination Sequence:
#
# PCOD9413174 Si02
#       6
#     8   8   8   8   8   8
#     4  11  23  47  72 101 149 194 237 293 375 439
#     4  11  27  46  73 110 148 188 239 308 379 449
#     4  12  25  45  78 109 138 194 265 290 360 463
#     4  12  26  44  71 108 146 194 248 304 360 448
#     4  11  26  46  69 105 154 186 229 306 395 419
#     4  11  21  47  72  99 145 198 234 301 364 439
#
# _framework density 20.704822
#
# number of rings (size 3 to 8) (size 9 to 14) (size 15 to 20)
#    0.000    0.667    5.000    4.000    7.000    0.667 
#    0.000    5.833    0.000    0.000    0.000    0.000 
#    0.000    0.000    0.000    0.000    0.000    0.000 
#
# Total GULP energy -267493.314240 kJ/mol
# GULP energy per Si atom -5572.777380 kJ/mol
# Density = 2.065770 g / cm^3
# Si number density = 20.704822 Si / 1000 Ang^3
#
#
#
# Elastic Constant Matrix: (Units=GPa)
#
#
# Indices 1 2 3 4 5 6 
#
# 1 177.9718 35.7967 82.1595 0.0000 0.0000 0.0000
# 2 35.7967 117.0238 42.4007 0.0000 0.0000 0.0000
# 3 82.1595 42.4007 170.4284 0.0000 0.0000 0.0000
# 4 0.0000 0.0000 0.0000 30.3638 0.0000 0.0000
# 5 0.0000 0.0000 0.0000 0.0000 53.9222 0.0000
# 6 0.0000 0.0000 0.0000 0.0000 0.0000 21.1815
#
#
#
# Elastic Compliance Matrix: (Units=1/GPa)
#
#
# Indices 1 2 3 4 5 6 
#
# 1 0.007345 -0.001059 -0.003277 0.000000 0.000000 0.000000
# 2 -0.001059 0.009545 -0.001864 0.000000 0.000000 0.000000
# 3 -0.003277 -0.001864 0.007911 0.000000 0.000000 0.000000
# 4 0.000000 0.000000 0.000000 0.032934 0.000000 0.000000
# 5 0.000000 0.000000 0.000000 0.000000 0.018545 0.000000
# 6 0.000000 0.000000 0.000000 0.000000 0.000000 0.047211
#
#
# Mechanical properties :
#
#
# Convention : Reuss Voigt Hill
#
# Bulk Modulus (GPa) = 80.64700 87.34864 83.99782
# Shear Modulus (GPa) = 35.70793 41.43132 38.56962
#
# Velocity S-wave (km/s) = 4.15736 4.47816 4.32074
# Velocity P-wave (km/s) = 7.87910 8.30769 8.09623
#
# Compressibility (1/GPa) = 0.01239972
#
# Stress axis : x y z
#
# Youngs Moduli (GPa) = 136.14990 104.77063 126.40363
#
# Poissons Ratio (x) = 0.11098 0.41425
# Poissons Ratio (y) = 0.14423 0.23561
# Poissons Ratio (z) = 0.44619 0.19529
#
# Static dielectric constant tensor:
#      x y z
#    x 1.785930 0.000000 0.000000 
#    y 0.000000 1.670470 0.000000 
#    z 0.000000 0.000000 1.754880 
# 
# From -- ./inp_files/31256.got.cif
#   From: 2010.05.17/outbox.cif.g08.bks.cpg/sg52_16_cif.got.tgz:31256.got - 2010.06.03 12:15:38.
