data_PCOD9413977
_publ_section_title
;
Structure prediction by ZEFSAII (Michael W. Deem and Ramdas Pophale) SiO2 
 PCOD9413977
Probable space group: P N N A
;
_chemical_formula_sum "Si O2"
_cell_formula_units_Z 64
_cell_length_a 24.000000
_cell_length_b 15.000000
_cell_length_c 9.000000
_cell_angle_alpha 90.000000
_cell_angle_beta 90.000000
_cell_angle_gamma 90.000000
_cell_volume 3240.000000
_symmetry_space_group_name_H-M "P N N A"
_symmetry_group_IT_number 52
_symmetry_cell_setting 'orthorhombic'
loop_
_space_group_symop_operation_xyz
x,y,z
1/2-x,-y,z
x,1/2-y,1/2-z
1/2-x,1/2+y,1/2-z
-x,-y,-z
1/2+x,y,-z
-x,1/2+y,1/2+z
1/2+x,1/2-y,1/2+z
loop_
_atom_site_type_symbol
_atom_site_label
_atom_site_fract_x
_atom_site_fract_y
_atom_site_fract_z
Si Si1 0.813614 0.487899 0.784436
Si Si2 0.217272 0.686646 0.391922
Si Si3 0.838764 0.672154 0.624923
Si Si4 0.476231 0.181710 0.882808
Si Si5 0.564458 0.314098 0.391247
Si Si6 0.607959 0.752704 0.930136
Si Si7 0.916815 0.056687 0.530123
Si Si8 0.016151 0.490559 0.755580
O O1 0.750000 0.500000 0.835348
O O2 0.808968 0.405778 0.667886
O O3 0.836011 0.577992 0.710049
O O4 0.854986 0.465211 0.916684
O O5 0.225990 0.750000 0.250000
O O6 0.278277 0.677681 0.452687
O O7 0.171003 0.737478 0.483221
O O8 0.848096 0.750000 0.750000
O O9 0.881845 0.673653 0.492022
O O10 0.464972 0.250000 0.750000
O O11 0.493210 0.084855 0.824659
O O12 0.521543 0.226378 0.990048
O O13 0.424716 0.167822 0.993761
O O14 0.571129 0.250000 0.250000
O O15 0.538447 0.408421 0.340563
O O16 0.605299 0.750000 0.750000
O O17 0.582062 0.662284 0.988897
O O18 0.958983 0.034369 0.663064
O O19 0.938276 0.007736 0.384610
#
# Coordination Sequence:
#
# PCOD9413977 Si02
#       8
#     8   8   8   8   8   8   8   8
#     4  10  20  36  67  96 121 162 211 259 310 374
#     4   9  18  36  65  97 118 155 208 263 309 363
#     4  10  23  41  63  92 124 163 214 262 308 374
#     4  12  24  41  64  93 122 159 210 258 314 372
#     4  12  27  42  61  87 126 173 208 248 317 386
#     4  11  20  37  67  94 123 155 205 262 309 362
#     4  11  21  40  63  94 129 161 207 264 313 372
#     4  11  26  40  62  92 130 168 203 258 319 380
#
# _framework density 19.753086
#
# number of rings (size 3 to 8) (size 9 to 14) (size 15 to 20)
#    0.000    1.250    3.750    3.375    5.250    0.000 
#    0.000    0.625    2.750    0.000    0.000    0.000 
#    0.000    0.000    0.000    0.000    0.000    0.000 
#
# Total GULP energy -356751.521808 kJ/mol
# GULP energy per Si atom -5574.242528 kJ/mol
# Density = 1.970813 g / cm^3
# Si number density = 19.753086 Si / 1000 Ang^3
#
#
#
# Elastic Constant Matrix: (Units=GPa)
#
#
# Indices 1 2 3 4 5 6 
#
# 1 100.0307 16.6611 51.3618 0.0000 0.0000 0.0000
# 2 16.6611 93.5783 32.2212 0.0000 0.0000 0.0000
# 3 51.3618 32.2212 86.0826 0.0000 0.0000 0.0000
# 4 0.0000 0.0000 0.0000 -14.7542 0.0000 0.0000
# 5 0.0000 0.0000 0.0000 0.0000 36.5575 0.0000
# 6 0.0000 0.0000 0.0000 0.0000 0.0000 11.8306
#
#
#
# Elastic Compliance Matrix: (Units=1/GPa)
#
#
# Indices 1 2 3 4 5 6 
#
# 1 0.014429 0.000454 -0.008779 0.000000 0.000000 0.000000
# 2 0.000454 0.012282 -0.004868 0.000000 0.000000 0.000000
# 3 -0.008779 -0.004868 0.018677 0.000000 0.000000 0.000000
# 4 0.000000 0.000000 0.000000 -0.067777 0.000000 0.000000
# 5 0.000000 0.000000 0.000000 0.000000 0.027354 0.000000
# 6 0.000000 0.000000 0.000000 0.000000 0.000000 0.084527
#
#
# Mechanical properties :
#
#
# Convention : Reuss Voigt Hill
#
# Bulk Modulus (GPa) = 52.62784 53.35332 52.99058
# Shear Modulus (GPa) = 40.91294 18.68996 29.80145
#
# Velocity S-wave (km/s) = 4.55600 3.07934 3.88841
# Velocity P-wave (km/s) = 7.37407 6.30173 6.85889
#
# Compressibility (1/GPa) = 0.01900135
#
# Stress axis : x y z
#
# Youngs Moduli (GPa) = 69.30459 81.42295 53.54198
#
# Poissons Ratio (x) = -0.03695 0.47005
# Poissons Ratio (y) = -0.03145 0.26063
# Poissons Ratio (z) = 0.60843 0.39635
#
# Static dielectric constant tensor:
#      x y z
#    x 1.930670 0.000000 0.000000 
#    y 0.000000 1.585150 0.000000 
#    z 0.000000 0.000000 1.661220 
# 
# From -- ./inp_files/14507.got.cif
#   From: 2010.05.17/outbox.ucp.g08.bks.cvg/sg52_8_cif.got.tgz:14507.got - 2010.06.11 16:30:12.
