data_PCOD9413372
_publ_section_title
;
Structure prediction by ZEFSAII (Michael W. Deem and Ramdas Pophale) SiO2 
 PCOD9413372
Probable space group: P N N A
;
_chemical_formula_sum "Si O2"
_cell_formula_units_Z 24
_cell_length_a 16.599177
_cell_length_b 4.640719
_cell_length_c 12.273701
_cell_angle_alpha 90.000000
_cell_angle_beta 90.000000
_cell_angle_gamma 90.000000
_cell_volume 945.469160
_symmetry_space_group_name_H-M "P N N A"
_symmetry_group_IT_number 52
_symmetry_cell_setting 'orthorhombic'
loop_
_space_group_symop_operation_xyz
x,y,z
1/2-x,-y,z
x,1/2-y,1/2-z
1/2-x,1/2+y,1/2-z
-x,-y,-z
1/2+x,y,-z
-x,1/2+y,1/2+z
1/2+x,1/2-y,1/2+z
loop_
_atom_site_type_symbol
_atom_site_label
_atom_site_fract_x
_atom_site_fract_y
_atom_site_fract_z
Si Si1 0.570902 0.497313 0.668966
Si Si2 0.604076 0.398246 0.366260
Si Si3 0.835661 0.132328 0.491663
O O1 0.548155 0.750000 0.750000
O O2 0.481674 0.432397 0.623266
O O3 0.629029 0.658570 0.584752
O O4 0.603773 0.250000 0.750000
O O5 0.616920 0.250000 0.250000
O O6 0.667913 0.648948 0.390563
O O7 0.610376 0.141556 0.455890
O O8 0.750000 0.000000 0.522142
#
# Coordination Sequence:
#
# PCOD9413372 Si02
#       3
#     8   8   8
#     4  11  23  44  73 102 135 187 248 299 348 420
#     4  11  23  43  69 102 141 187 242 295 352 425
#     4  12  25  43  69 104 146 188 231 296 371 433
#
# _framework density 25.384225000000001
#
# number of rings (size 3 to 8) (size 9 to 14) (size 15 to 20)
#    0.000    0.667    0.000   10.000    0.000    2.667 
#    0.000    6.667    0.000    0.000    0.000    2.333 
#    0.000    0.000    0.000    0.000    0.000    0.000 
#
# Total GULP energy -134115.930613 kJ/mol
# GULP energy per Si atom -5588.163776 kJ/mol
# Density = 2.532645 g / cm^3
# Si number density = 25.384225 Si / 1000 Ang^3
#
#
#
# Elastic Constant Matrix: (Units=GPa)
#
#
# Indices 1 2 3 4 5 6 
#
# 1 117.4550 49.2696 45.4817 0.0000 0.0000 0.0000
# 2 49.2696 166.1968 42.3936 0.0000 0.0000 0.0000
# 3 45.4817 42.3936 80.7332 0.0000 0.0000 0.0000
# 4 0.0000 0.0000 0.0000 76.5073 0.0000 0.0000
# 5 0.0000 0.0000 0.0000 0.0000 14.7426 0.0000
# 6 0.0000 0.0000 0.0000 0.0000 0.0000 38.9278
#
#
#
# Elastic Compliance Matrix: (Units=1/GPa)
#
#
# Indices 1 2 3 4 5 6 
#
# 1 0.011448 -0.002019 -0.005389 0.000000 0.000000 0.000000
# 2 -0.002019 0.007304 -0.002698 0.000000 0.000000 0.000000
# 3 -0.005389 -0.002698 0.016839 0.000000 0.000000 0.000000
# 4 0.000000 0.000000 0.000000 0.013071 0.000000 0.000000
# 5 0.000000 0.000000 0.000000 0.000000 0.067831 0.000000
# 6 0.000000 0.000000 0.000000 0.000000 0.000000 0.025689
#
#
# Mechanical properties :
#
#
# Convention : Reuss Voigt Hill
#
# Bulk Modulus (GPa) = 65.02446 70.96386 67.99416
# Shear Modulus (GPa) = 29.84758 41.18489 35.51623
#
# Velocity S-wave (km/s) = 3.43276 4.03235 3.74457
# Velocity P-wave (km/s) = 6.43300 7.04956 6.74833
#
# Compressibility (1/GPa) = 0.01537883
#
# Stress axis : x y z
#
# Youngs Moduli (GPa) = 87.35485 136.91756 59.38619
#
# Poissons Ratio (x) = 0.27645 0.32002
# Poissons Ratio (y) = 0.17638 0.16021
# Poissons Ratio (z) = 0.47074 0.36937
#
# Static dielectric constant tensor:
#      x y z
#    x 2.034450 0.000000 0.000000 
#    y 0.000000 1.972760 0.000000 
#    z 0.000000 0.000000 2.061780 
# 
# From -- ./inp_files/26543.got.cif
#   From: 2010.05.17/outbox.cif.g08.bks.cpg/sg52_14_cif.got.tgz:26543.got - 2010.06.03 12:15:38.
