data_PCOD9413856
_publ_section_title
;
Structure prediction by ZEFSAII (Michael W. Deem and Ramdas Pophale) SiO2 
 PCOD9413856
Probable space group: P N N A
;
_chemical_formula_sum "Si O2"
_cell_formula_units_Z 32
_cell_length_a 13.991592
_cell_length_b 4.719554
_cell_length_c 19.983549
_cell_angle_alpha 90.000000
_cell_angle_beta 90.000000
_cell_angle_gamma 90.000000
_cell_volume 1319.595153
_symmetry_space_group_name_H-M "P N N A"
_symmetry_group_IT_number 52
_symmetry_cell_setting 'orthorhombic'
loop_
_space_group_symop_operation_xyz
x,y,z
1/2-x,-y,z
x,1/2-y,1/2-z
1/2-x,1/2+y,1/2-z
-x,-y,-z
1/2+x,y,-z
-x,1/2+y,1/2+z
1/2+x,1/2-y,1/2+z
loop_
_atom_site_type_symbol
_atom_site_label
_atom_site_fract_x
_atom_site_fract_y
_atom_site_fract_z
Si Si1 0.250000 0.000000 0.443739
Si Si2 0.404576 0.250000 0.250000
Si Si3 0.959224 0.250000 0.250000
Si Si4 0.586433 0.603002 0.044815
Si Si5 0.638022 0.423919 0.370140
Si Si6 0.250000 0.500000 0.351081
O O1 0.328008 0.128411 0.492417
O O2 0.288872 0.752273 0.396883
O O3 0.469412 0.506497 0.221553
O O4 0.335056 0.378051 0.305983
O O5 0.895054 0.442861 0.299497
O O6 0.619398 0.397072 0.106224
O O7 0.572073 0.905291 0.077843
O O8 0.500000 0.500000 0.000000
O O9 0.750000 0.500000 0.378677
#
# Coordination Sequence:
#
# PCOD9413856 Si02
#       6
#     4   4   4   8   8   4
#     4  12  25  46  78 110 141 198 240 302 372 448
#     4  12  27  51  68 116 146 196 246 311 359 450
#     4  12  29  45  82 104 144 196 258 303 367 438
#     4  12  27  47  76 109 147 192 246 304 369 440
#     4  12  26  52  73 106 150 192 245 310 366 436
#     4  12  27  46  76 100 159 186 238 298 380 432
#
# _framework density 24.249863000000001
#
# number of rings (size 3 to 8) (size 9 to 14) (size 15 to 20)
#    0.000    0.000    2.500    6.750   10.500    3.000 
#    0.000    0.000    0.000    0.000    0.000    0.000 
#    0.000    0.000    0.000    0.000    0.000    0.000 
#
# Total GULP energy -179119.746598 kJ/mol
# GULP energy per Si atom -5597.492081 kJ/mol
# Density = 2.419467 g / cm^3
# Si number density = 24.249863 Si / 1000 Ang^3
#
#
#
# Elastic Constant Matrix: (Units=GPa)
#
#
# Indices 1 2 3 4 5 6 
#
# 1 78.5419 -2.3801 21.2697 0.0000 0.0000 0.0000
# 2 -2.3801 121.3749 27.0979 0.0000 0.0000 0.0000
# 3 21.2697 27.0979 110.0005 0.0000 0.0000 0.0000
# 4 0.0000 0.0000 0.0000 24.1064 0.0000 0.0000
# 5 0.0000 0.0000 0.0000 0.0000 48.8959 0.0000
# 6 0.0000 0.0000 0.0000 0.0000 0.0000 35.4446
#
#
#
# Elastic Compliance Matrix: (Units=1/GPa)
#
#
# Indices 1 2 3 4 5 6 
#
# 1 0.013528 0.000899 -0.002837 0.000000 0.000000 0.000000
# 2 0.000899 0.008778 -0.002336 0.000000 0.000000 0.000000
# 3 -0.002837 -0.002336 0.010215 0.000000 0.000000 0.000000
# 4 0.000000 0.000000 0.000000 0.041483 0.000000 0.000000
# 5 0.000000 0.000000 0.000000 0.000000 0.020452 0.000000
# 6 0.000000 0.000000 0.000000 0.000000 0.000000 0.028213
#
#
# Mechanical properties :
#
#
# Convention : Reuss Voigt Hill
#
# Bulk Modulus (GPa) = 41.71628 44.65470 43.18549
# Shear Modulus (GPa) = 35.91754 39.28471 37.60112
#
# Velocity S-wave (km/s) = 3.85274 4.02929 3.94200
# Velocity P-wave (km/s) = 6.08535 6.33255 6.21018
#
# Compressibility (1/GPa) = 0.02397146
#
# Stress axis : x y z
#
# Youngs Moduli (GPa) = 73.92303 113.91942 97.89576
#
# Poissons Ratio (x) = -0.10238 0.27774
# Poissons Ratio (y) = -0.06643 0.22870
# Poissons Ratio (z) = 0.20973 0.26614
#
# Static dielectric constant tensor:
#      x y z
#    x 1.759740 0.000000 0.000000 
#    y 0.000000 1.915670 0.000000 
#    z 0.000000 0.000000 1.949210 
# 
# From -- ./inp_files/32681.got.cif
#   From: 2010.05.17/outbox.cif.g08.bks.cpg/sg52_17_cif.got.tgz:32681.got - 2010.06.03 12:15:38.
