data_PCOD9413665
_publ_section_title
;
Structure prediction by ZEFSAII (Michael W. Deem and Ramdas Pophale) SiO2 
 PCOD9413665
Probable space group: P N N A
;
_chemical_formula_sum "Si O2"
_cell_formula_units_Z 32
_cell_length_a 19.241498
_cell_length_b 7.949080
_cell_length_c 8.621886
_cell_angle_alpha 90.000000
_cell_angle_beta 90.000000
_cell_angle_gamma 90.000000
_cell_volume 1318.736492
_symmetry_space_group_name_H-M "P N N A"
_symmetry_group_IT_number 52
_symmetry_cell_setting 'orthorhombic'
loop_
_space_group_symop_operation_xyz
x,y,z
1/2-x,-y,z
x,1/2-y,1/2-z
1/2-x,1/2+y,1/2-z
-x,-y,-z
1/2+x,y,-z
-x,1/2+y,1/2+z
1/2+x,1/2-y,1/2+z
loop_
_atom_site_type_symbol
_atom_site_label
_atom_site_fract_x
_atom_site_fract_y
_atom_site_fract_z
Si Si1 0.805291 0.383920 0.132211
Si Si2 0.294919 0.664363 0.413546
Si Si3 0.573363 0.562859 0.937139
Si Si4 0.074639 0.964766 0.073306
O O1 0.750000 0.500000 0.222166
O O2 0.837409 0.250000 0.250000
O O3 0.756382 0.215540 0.489238
O O4 0.863030 0.494236 0.045132
O O5 0.250000 0.500000 0.374361
O O6 0.365212 0.588013 0.490087
O O7 0.811744 0.750000 0.750000
O O8 0.584413 0.764656 0.946575
O O9 0.576143 0.510286 0.758781
O O10 0.500000 0.500000 0.000000
O O11 0.000000 0.000000 0.000000
#
# Coordination Sequence:
#
# PCOD9413665 Si02
#       4
#     8   8   8   8
#     4  12  28  48  74 110 147 196 251 312 382 454
#     4  12  24  46  77 107 150 195 249 312 378 458
#     4  11  27  49  71 104 149 191 246 311 377 454
#     4  11  27  46  72 108 142 195 249 304 379 455
#
# _framework density 24.265650999999998
#
# number of rings (size 3 to 8) (size 9 to 14) (size 15 to 20)
#    0.000    0.500    2.500    4.500   10.500    0.000 
#    0.000    0.000    0.000    0.000    0.000    0.000 
#    0.000    0.000    0.000    0.000    0.000    0.000 
#
# Total GULP energy -179171.757482 kJ/mol
# GULP energy per Si atom -5599.117421 kJ/mol
# Density = 2.421042 g / cm^3
# Si number density = 24.265651 Si / 1000 Ang^3
#
#
#
# Elastic Constant Matrix: (Units=GPa)
#
#
# Indices 1 2 3 4 5 6 
#
# 1 203.8695 42.7707 49.9179 0.0000 0.0000 0.0000
# 2 42.7707 55.0068 6.0944 0.0000 0.0000 0.0000
# 3 49.9179 6.0944 91.9060 0.0000 0.0000 0.0000
# 4 0.0000 0.0000 0.0000 34.4600 0.0000 0.0000
# 5 0.0000 0.0000 0.0000 0.0000 45.0341 0.0000
# 6 0.0000 0.0000 0.0000 0.0000 0.0000 57.8688
#
#
#
# Elastic Compliance Matrix: (Units=1/GPa)
#
#
# Indices 1 2 3 4 5 6 
#
# 1 0.006746 -0.004875 -0.003341 0.000000 0.000000 0.000000
# 2 -0.004875 0.021837 0.001200 0.000000 0.000000 0.000000
# 3 -0.003341 0.001200 0.012616 0.000000 0.000000 0.000000
# 4 0.000000 0.000000 0.000000 0.029019 0.000000 0.000000
# 5 0.000000 0.000000 0.000000 0.000000 0.022205 0.000000
# 6 0.000000 0.000000 0.000000 0.000000 0.000000 0.017280
#
#
# Mechanical properties :
#
#
# Convention : Reuss Voigt Hill
#
# Bulk Modulus (GPa) = 36.80967 60.92757 48.86862
# Shear Modulus (GPa) = 37.65308 44.27253 40.96280
#
# Velocity S-wave (km/s) = 3.94344 4.27604 4.11310
# Velocity P-wave (km/s) = 5.99472 7.03864 6.53755
#
# Compressibility (1/GPa) = 0.02716678
#
# Stress axis : x y z
#
# Youngs Moduli (GPa) = 148.23952 45.79320 79.26709
#
# Poissons Ratio (x) = 0.22325 0.26480
# Poissons Ratio (y) = 0.72269 -0.09511
# Poissons Ratio (z) = 0.49522 -0.05494
#
# Static dielectric constant tensor:
#      x y z
#    x 1.946910 0.000000 0.000000 
#    y 0.000000 2.118180 0.000000 
#    z 0.000000 0.000000 1.927120 
# 
# From -- ./inp_files/11537.got.cif
#   From: 2010.05.17/outbox.cif.g08.bks.cpg/sg52_6_cif.got.tgz:11537.got - 2010.06.03 12:15:38.
