data_PCOD9413602
_publ_section_title
;
Structure prediction by ZEFSAII (Michael W. Deem and Ramdas Pophale) SiO2 
 PCOD9413602
Probable space group: P N N A
;
_chemical_formula_sum "Si O2"
_cell_formula_units_Z 40
_cell_length_a 8.793115
_cell_length_b 14.645690
_cell_length_c 13.942910
_cell_angle_alpha 90.000000
_cell_angle_beta 90.000000
_cell_angle_gamma 90.000000
_cell_volume 1795.585189
_symmetry_space_group_name_H-M "P N N A"
_symmetry_group_IT_number 52
_symmetry_cell_setting 'orthorhombic'
loop_
_space_group_symop_operation_xyz
x,y,z
1/2-x,-y,z
x,1/2-y,1/2-z
1/2-x,1/2+y,1/2-z
-x,-y,-z
1/2+x,y,-z
-x,1/2+y,1/2+z
1/2+x,1/2-y,1/2+z
loop_
_atom_site_type_symbol
_atom_site_label
_atom_site_fract_x
_atom_site_fract_y
_atom_site_fract_z
Si Si1 0.616449 0.434949 0.056446
Si Si2 0.363657 0.419673 0.205469
Si Si3 0.982051 0.154825 0.010653
Si Si4 0.590852 0.023447 0.134160
Si Si5 0.277723 0.722879 0.088496
O O1 0.750000 0.500000 0.091321
O O2 0.511673 0.398377 0.141176
O O3 0.500000 0.500000 0.000000
O O4 0.686294 0.356624 0.989656
O O5 0.250000 0.500000 0.171700
O O6 0.440559 0.457694 0.302320
O O7 0.265220 0.329096 0.186543
O O8 0.071322 0.216474 0.086939
O O9 0.928150 0.064231 0.065508
O O10 0.857190 0.214038 0.953850
O O11 0.097823 0.114386 0.930897
O O12 0.750000 0.000000 0.185976
#
# Coordination Sequence:
#
# PCOD9413602 Si02
#       5
#     8   8   8   8   8
#     4  12  20  40  67  99 144 190 231 287 377 441
#     4  12  26  42  70 107 146 184 242 315 369 436
#     4  11  25  46  78 101 138 197 248 298 369 450
#     4  11  26  50  71 102 147 197 239 303 389 445
#     4  12  22  43  73 107 135 188 254 301 355 443
#
# _framework density 22.276861
#
# number of rings (size 3 to 8) (size 9 to 14) (size 15 to 20)
#    0.000    0.400    8.000    0.600    2.800    0.800 
#    0.000    0.000    0.000    0.000    0.000    0.000 
#    0.000    0.000    0.000    0.000    0.000    0.000 
#
# Total GULP energy -223126.189959 kJ/mol
# GULP energy per Si atom -5578.154749 kJ/mol
# Density = 2.222616 g / cm^3
# Si number density = 22.276861 Si / 1000 Ang^3
#
#
#
# Elastic Constant Matrix: (Units=GPa)
#
#
# Indices 1 2 3 4 5 6 
#
# 1 78.1427 29.4560 1.9096 0.0000 0.0000 0.0000
# 2 29.4560 130.3318 21.3839 0.0000 0.0000 0.0000
# 3 1.9096 21.3839 25.8519 0.0000 0.0000 0.0000
# 4 0.0000 0.0000 0.0000 36.5020 0.0000 0.0000
# 5 0.0000 0.0000 0.0000 0.0000 31.6459 0.0000
# 6 0.0000 0.0000 0.0000 0.0000 0.0000 25.7213
#
#
#
# Elastic Compliance Matrix: (Units=1/GPa)
#
#
# Indices 1 2 3 4 5 6 
#
# 1 0.014064 -0.003480 0.001840 0.000000 0.000000 0.000000
# 2 -0.003480 0.009739 -0.007799 0.000000 0.000000 0.000000
# 3 0.001840 -0.007799 0.044997 0.000000 0.000000 0.000000
# 4 0.000000 0.000000 0.000000 0.027396 0.000000 0.000000
# 5 0.000000 0.000000 0.000000 0.000000 0.031600 0.000000
# 6 0.000000 0.000000 0.000000 0.000000 0.000000 0.038878
#
#
# Mechanical properties :
#
#
# Convention : Reuss Voigt Hill
#
# Bulk Modulus (GPa) = 20.03142 37.75837 28.89490
# Shear Modulus (GPa) = 24.72899 30.87897 27.80398
#
# Velocity S-wave (km/s) = 3.33539 3.72714 3.53669
# Velocity P-wave (km/s) = 4.88310 5.95890 5.44762
#
# Compressibility (1/GPa) = 0.04992157
#
# Stress axis : x y z
#
# Youngs Moduli (GPa) = 71.10302 102.68128 22.22389
#
# Poissons Ratio (x) = 0.35738 -0.04089
# Poissons Ratio (y) = 0.24747 0.17331
# Poissons Ratio (z) = -0.13083 0.80077
#
# Static dielectric constant tensor:
#      x y z
#    x 1.857660 0.000000 0.000000 
#    y 0.000000 1.807550 0.000000 
#    z 0.000000 0.000000 1.910780 
# 
# From -- ./inp_files/24402.got.cif
#   From: 2010.05.17/outbox.cif.g08.bks.cpg/sg52_13_cif.got.tgz:24402.got - 2010.06.03 12:15:38.
