data_PCOD9413614
_publ_section_title
;
Structure prediction by ZEFSAII (Michael W. Deem and Ramdas Pophale) SiO2 
 PCOD9413614
Probable space group: P N N A
;
_chemical_formula_sum "Si O2"
_cell_formula_units_Z 32
_cell_length_a 16.326050
_cell_length_b 12.398987
_cell_length_c 6.798608
_cell_angle_alpha 90.000000
_cell_angle_beta 90.000000
_cell_angle_gamma 90.000000
_cell_volume 1376.218298
_symmetry_space_group_name_H-M "P N N A"
_symmetry_group_IT_number 52
_symmetry_cell_setting 'orthorhombic'
loop_
_space_group_symop_operation_xyz
x,y,z
1/2-x,-y,z
x,1/2-y,1/2-z
1/2-x,1/2+y,1/2-z
-x,-y,-z
1/2+x,y,-z
-x,1/2+y,1/2+z
1/2+x,1/2-y,1/2+z
loop_
_atom_site_type_symbol
_atom_site_label
_atom_site_fract_x
_atom_site_fract_y
_atom_site_fract_z
Si Si1 0.395478 0.750000 0.750000
Si Si2 0.943800 0.644442 0.619537
Si Si3 0.831516 0.250000 0.750000
Si Si4 0.118045 0.571111 0.544306
Si Si5 0.246298 0.883327 0.599840
O O1 0.452124 0.702259 0.587029
O O2 0.334116 0.841583 0.670628
O O3 0.921059 0.750000 0.750000
O O4 0.882036 0.546231 0.564289
O O5 0.031749 0.589543 0.661291
O O6 0.876351 0.345926 0.635808
O O7 0.782525 0.197373 0.568364
O O8 0.187584 0.599423 0.707924
O O9 0.250000 0.000000 0.504632
#
# Coordination Sequence:
#
# PCOD9413614 Si02
#       5
#     4   8   4   8   8
#     4  12  25  44  70 105 146 182 246 310 355 438
#     4  11  26  44  72 104 142 192 243 295 367 443
#     4  12  25  42  72  97 134 188 236 288 371 436
#     4  11  25  48  69 102 148 188 242 301 365 439
#     4  12  26  45  70 103 144 184 240 307 368 434
#
# _framework density 23.252123999999998
#
# number of rings (size 3 to 8) (size 9 to 14) (size 15 to 20)
#    0.000    0.500    5.000    2.250    5.250    1.000 
#    0.000    6.250    0.000    0.000    0.000    0.000 
#    0.000    0.000    0.000    0.000    0.000    0.000 
#
# Total GULP energy -178440.124811 kJ/mol
# GULP energy per Si atom -5576.253900 kJ/mol
# Density = 2.319920 g / cm^3
# Si number density = 23.252124 Si / 1000 Ang^3
#
#
#
# Elastic Constant Matrix: (Units=GPa)
#
#
# Indices 1 2 3 4 5 6 
#
# 1 68.0380 -2.4641 29.2010 0.0000 0.0000 0.0000
# 2 -2.4641 157.1870 58.9924 0.0000 0.0000 0.0000
# 3 29.2010 58.9924 105.3287 0.0000 0.0000 0.0000
# 4 0.0000 0.0000 0.0000 52.0507 0.0000 0.0000
# 5 0.0000 0.0000 0.0000 0.0000 17.5318 0.0000
# 6 0.0000 0.0000 0.0000 0.0000 0.0000 -0.4346
#
#
#
# Elastic Compliance Matrix: (Units=1/GPa)
#
#
# Indices 1 2 3 4 5 6 
#
# 1 0.017516 0.002655 -0.006343 0.000000 0.000000 0.000000
# 2 0.002655 0.008457 -0.005473 0.000000 0.000000 0.000000
# 3 -0.006343 -0.005473 0.014318 0.000000 0.000000 0.000000
# 4 0.000000 0.000000 0.000000 0.019212 0.000000 0.000000
# 5 0.000000 0.000000 0.000000 0.000000 0.057039 0.000000
# 6 0.000000 0.000000 0.000000 0.000000 0.000000 -2.300938
#
#
# Mechanical properties :
#
#
# Convention : Reuss Voigt Hill
#
# Bulk Modulus (GPa) = 45.51734 55.77916 50.64825
# Shear Modulus (GPa) = -2.31616 30.15122 13.91753
#
# Velocity S-wave (km/s) = -0.99913 3.60489 2.44918
# Velocity P-wave (km/s) = 4.27633 6.43179 5.46145
#
# Compressibility (1/GPa) = 0.02196965
#
# Stress axis : x y z
#
# Youngs Moduli (GPa) = 57.08973 118.23839 69.84221
#
# Poissons Ratio (x) = -0.31395 0.44303
# Poissons Ratio (y) = -0.15159 0.38225
# Poissons Ratio (z) = 0.36214 0.64712
#
# Static dielectric constant tensor:
#      x y z
#    x 1.867740 0.000000 0.000000 
#    y 0.000000 1.395490 0.000000 
#    z 0.000000 0.000000 1.855060 
# 
# From -- ./inp_files/3934.got.cif
#   From: 2010.05.17/outbox.cif.g08.bks.cpg/sg52_2_cif.got.tgz:3934.got - 2010.06.03 12:15:38.
