data_PCOD9413956
_publ_section_title
;
Structure prediction by ZEFSAII (Michael W. Deem and Ramdas Pophale) SiO2 
 PCOD9413956
Probable space group: P N N A
;
_chemical_formula_sum "Si O2"
_cell_formula_units_Z 32
_cell_length_a 8.595834
_cell_length_b 10.931801
_cell_length_c 14.456221
_cell_angle_alpha 90.000000
_cell_angle_beta 90.000000
_cell_angle_gamma 90.000000
_cell_volume 1358.421405
_symmetry_space_group_name_H-M "P N N A"
_symmetry_group_IT_number 52
_symmetry_cell_setting 'orthorhombic'
loop_
_space_group_symop_operation_xyz
x,y,z
1/2-x,-y,z
x,1/2-y,1/2-z
1/2-x,1/2+y,1/2-z
-x,-y,-z
1/2+x,y,-z
-x,1/2+y,1/2+z
1/2+x,1/2-y,1/2+z
loop_
_atom_site_type_symbol
_atom_site_label
_atom_site_fract_x
_atom_site_fract_y
_atom_site_fract_z
Si Si1 0.834366 0.702007 0.537830
Si Si2 0.574935 0.099423 0.318329
Si Si3 0.381148 0.353672 0.900944
Si Si4 0.535533 0.865178 0.873146
O O1 0.730116 0.804752 0.483755
O O2 0.712855 0.627131 0.597499
O O3 0.918755 0.620919 0.459259
O O4 0.970968 0.765754 0.596285
O O5 0.756278 0.139821 0.317224
O O6 0.515707 0.061686 0.217364
O O7 0.485358 0.221090 0.347494
O O8 0.559043 0.993114 0.394408
#
# Coordination Sequence:
#
# PCOD9413956 Si02
#       4
#     8   8   8   8
#     4   9  18  32  54  79 102 135 178 218 256 310
#     4   9  18  31  48  76 111 136 163 217 272 313
#     4   9  18  31  54  78 105 137 171 216 269 312
#     4   9  18  32  48  72 108 137 170 214 259 308
#
# _framework density 23.556754999999999
#
# number of rings (size 3 to 8) (size 9 to 14) (size 15 to 20)
#    0.000    3.000    0.000    0.000    0.000   19.000 
#    0.000   15.000    0.000    6.000    0.000    0.000 
#    0.000   16.000    0.000    0.000    0.000    0.000 
#
# Total GULP energy -178487.247146 kJ/mol
# GULP energy per Si atom -5577.726473 kJ/mol
# Density = 2.350314 g / cm^3
# Si number density = 23.556755 Si / 1000 Ang^3
#
#
#
# Elastic Constant Matrix: (Units=GPa)
#
#
# Indices 1 2 3 4 5 6 
#
# 1 180.6926 27.9844 84.2989 0.0000 0.0000 0.0000
# 2 27.9844 90.7497 32.2102 0.0000 0.0000 0.0000
# 3 84.2989 32.2102 102.7063 0.0000 0.0000 0.0000
# 4 0.0000 0.0000 0.0000 24.6199 0.0000 0.0000
# 5 0.0000 0.0000 0.0000 0.0000 -40.2476 0.0000
# 6 0.0000 0.0000 0.0000 0.0000 0.0000 8.0322
#
#
#
# Elastic Compliance Matrix: (Units=1/GPa)
#
#
# Indices 1 2 3 4 5 6 
#
# 1 0.008971 -0.000172 -0.007309 0.000000 0.000000 0.000000
# 2 -0.000172 0.012403 -0.003748 0.000000 0.000000 0.000000
# 3 -0.007309 -0.003748 0.016911 0.000000 0.000000 0.000000
# 4 0.000000 0.000000 0.000000 0.040618 0.000000 0.000000
# 5 0.000000 0.000000 0.000000 0.000000 -0.024846 0.000000
# 6 0.000000 0.000000 0.000000 0.000000 0.000000 0.124499
#
#
# Mechanical properties :
#
#
# Convention : Reuss Voigt Hill
#
# Bulk Modulus (GPa) = 63.18876 73.68176 68.43526
# Shear Modulus (GPa) = 24.23777 13.79123 19.01450
#
# Velocity S-wave (km/s) = 3.21114 2.42223 2.84417
# Velocity P-wave (km/s) = 6.37423 6.25853 6.31665
#
# Compressibility (1/GPa) = 0.01582560
#
# Stress axis : x y z
#
# Youngs Moduli (GPa) = 111.47238 80.62664 59.13239
#
# Poissons Ratio (x) = 0.01387 0.43220
# Poissons Ratio (y) = 0.01918 0.22166
# Poissons Ratio (z) = 0.81476 0.30223
#
# Static dielectric constant tensor:
#      x y z
#    x 1.889900 0.000000 0.000000 
#    y 0.000000 1.986040 0.000000 
#    z 0.000000 0.000000 2.013660 
# 
# From -- ./inp_files/24244.got.cif
#   From: 2010.05.17/outbox.cif.g08.bks.cpg/sg52_13_cif.got.tgz:24244.got - 2010.06.03 12:15:38.
