data_PCOD9413046
_publ_section_title
;
Structure prediction by ZEFSAII (Michael W. Deem and Ramdas Pophale) SiO2 
 PCOD9413046
Probable space group: P N N A
;
_chemical_formula_sum "Si O2"
_cell_formula_units_Z 40
_cell_length_a 17.828803
_cell_length_b 8.715546
_cell_length_c 11.685938
_cell_angle_alpha 90.000000
_cell_angle_beta 90.000000
_cell_angle_gamma 90.000000
_cell_volume 1815.851644
_symmetry_space_group_name_H-M "P N N A"
_symmetry_group_IT_number 52
_symmetry_cell_setting 'orthorhombic'
loop_
_space_group_symop_operation_xyz
x,y,z
1/2-x,-y,z
x,1/2-y,1/2-z
1/2-x,1/2+y,1/2-z
-x,-y,-z
1/2+x,y,-z
-x,1/2+y,1/2+z
1/2+x,1/2-y,1/2+z
loop_
_atom_site_type_symbol
_atom_site_label
_atom_site_fract_x
_atom_site_fract_y
_atom_site_fract_z
Si Si1 0.522438 0.363647 0.354396
Si Si2 0.511369 0.345529 0.927689
Si Si3 0.102086 0.750000 0.750000
Si Si4 0.136340 0.250000 0.250000
Si Si5 0.646715 0.582969 0.690123
Si Si6 0.169149 0.559741 0.573675
O O1 0.543061 0.250000 0.250000
O O2 0.498189 0.281348 0.473600
O O3 0.444574 0.439846 0.311497
O O4 0.596320 0.459397 0.388808
O O5 0.454848 0.357497 0.820478
O O6 0.587589 0.291150 0.864149
O O7 0.500000 0.500000 0.000000
O O8 0.155654 0.707951 0.647587
O O9 0.176724 0.415052 0.268717
O O10 0.659565 0.750000 0.750000
O O11 0.669941 0.594681 0.559283
O O12 0.250000 0.500000 0.606978
#
# Coordination Sequence:
#
# PCOD9413046 Si02
#       6
#     8   8   4   4   8   8
#     4  11  21  40  70  99 137 180 235 296 351 404
#     4  11  20  37  67 106 135 172 232 304 357 405
#     4  11  24  42  66  98 142 183 234 288 353 428
#     4  11  22  36  68 102 132 171 228 290 357 406
#     4  11  23  46  73 102 136 178 237 307 347 405
#     4  12  26  45  66  98 149 192 229 283 356 438
#
# _framework density 22.028231999999999
#
# number of rings (size 3 to 8) (size 9 to 14) (size 15 to 20)
#    0.000    0.800    4.000    6.600    1.400    0.000 
#    1.800    0.000    0.000    0.000    0.000    0.000 
#    0.000    0.000    0.000    0.000    0.000    0.000 
#
# Total GULP energy -222816.871145 kJ/mol
# GULP energy per Si atom -5570.421779 kJ/mol
# Density = 2.197809 g / cm^3
# Si number density = 22.028232 Si / 1000 Ang^3
#
#
#
# Elastic Constant Matrix: (Units=GPa)
#
#
# Indices 1 2 3 4 5 6 
#
# 1 55.0227 17.6669 -5.9395 0.0000 0.0000 0.0000
# 2 17.6669 98.7417 38.7927 0.0000 0.0000 0.0000
# 3 -5.9395 38.7927 121.8038 0.0000 0.0000 0.0000
# 4 0.0000 0.0000 0.0000 49.6855 0.0000 0.0000
# 5 0.0000 0.0000 0.0000 0.0000 80.4859 0.0000
# 6 0.0000 0.0000 0.0000 0.0000 0.0000 6.9655
#
#
#
# Elastic Compliance Matrix: (Units=1/GPa)
#
#
# Indices 1 2 3 4 5 6 
#
# 1 0.019879 -0.004501 0.002403 0.000000 0.000000 0.000000
# 2 -0.004501 0.012595 -0.004231 0.000000 0.000000 0.000000
# 3 0.002403 -0.004231 0.009675 0.000000 0.000000 0.000000
# 4 0.000000 0.000000 0.000000 0.020127 0.000000 0.000000
# 5 0.000000 0.000000 0.000000 0.000000 0.012425 0.000000
# 6 0.000000 0.000000 0.000000 0.000000 0.000000 0.143565
#
#
# Mechanical properties :
#
#
# Convention : Reuss Voigt Hill
#
# Bulk Modulus (GPa) = 33.90892 41.84539 37.87716
# Shear Modulus (GPa) = 20.76824 42.43058 31.59941
#
# Velocity S-wave (km/s) = 3.07384 4.39360 3.79158
# Velocity P-wave (km/s) = 5.29384 6.69147 6.03327
#
# Compressibility (1/GPa) = 0.02949076
#
# Stress axis : x y z
#
# Youngs Moduli (GPa) = 50.30492 79.39762 103.36438
#
# Poissons Ratio (x) = 0.35734 -0.24836
# Poissons Ratio (y) = 0.22641 0.43731
# Poissons Ratio (z) = -0.12087 0.33591
#
# Static dielectric constant tensor:
#      x y z
#    x 1.877840 0.000000 0.000000 
#    y 0.000000 2.002630 0.000000 
#    z 0.000000 0.000000 1.754490 
# 
# From -- ./inp_files/20394.got.cif
#   From: 2010.05.17/outbox.cif.g08.bks.cpg/sg52_11_cif.got.tgz:20394.got - 2010.06.03 12:15:38.
