data_PCOD9413100
_publ_section_title
;
Structure prediction by ZEFSAII (Michael W. Deem and Ramdas Pophale) SiO2 
 PCOD9413100
Probable space group: P N N A
;
_chemical_formula_sum "Si O2"
_cell_formula_units_Z 48
_cell_length_a 9.079784
_cell_length_b 23.848783
_cell_length_c 11.175807
_cell_angle_alpha 90.000000
_cell_angle_beta 90.000000
_cell_angle_gamma 90.000000
_cell_volume 2420.029345
_symmetry_space_group_name_H-M "P N N A"
_symmetry_group_IT_number 52
_symmetry_cell_setting 'orthorhombic'
loop_
_space_group_symop_operation_xyz
x,y,z
1/2-x,-y,z
x,1/2-y,1/2-z
1/2-x,1/2+y,1/2-z
-x,-y,-z
1/2+x,y,-z
-x,1/2+y,1/2+z
1/2+x,1/2-y,1/2+z
loop_
_atom_site_type_symbol
_atom_site_label
_atom_site_fract_x
_atom_site_fract_y
_atom_site_fract_z
Si Si1 0.678435 0.948868 0.849602
Si Si2 0.520719 0.305633 0.670053
Si Si3 0.207069 0.935825 0.554298
Si Si4 0.745971 0.848968 0.015848
Si Si5 0.891488 0.905186 0.650768
Si Si6 0.153026 0.055746 0.804664
O O1 0.797898 0.941023 0.745421
O O2 0.516256 0.961870 0.804817
O O3 0.750000 0.000000 0.923335
O O4 0.667196 0.891474 0.923331
O O5 0.524339 0.250000 0.750000
O O6 0.645847 0.311911 0.566627
O O7 0.368665 0.315306 0.597929
O O8 0.548491 0.354929 0.766886
O O9 0.269381 0.895024 0.451979
O O10 0.294846 0.922988 0.675597
O O11 0.034458 0.931164 0.585337
O O12 0.250000 0.000000 0.520414
O O13 0.825493 0.894034 0.101963
O O14 0.250000 0.000000 0.824211
#
# Coordination Sequence:
#
# PCOD9413100 Si02
#       6
#     8   8   8   8   8   8
#     4  11  22  36  63  99 140 175 217 258 326 406
#     4  11  26  48  70  95 126 168 228 287 342 384
#     4  11  21  36  61  95 142 179 218 258 320 398
#     4  11  23  44  68  95 132 169 216 279 328 399
#     4  11  23  40  62  95 134 180 222 273 322 388
#     4  11  22  36  63 101 140 184 213 257 330 398
#
# _framework density 19.834471000000001
#
# number of rings (size 3 to 8) (size 9 to 14) (size 15 to 20)
#    0.000    1.000    3.333    4.500    2.333    2.667 
#    0.000    0.833    0.000    0.000    0.000    0.000 
#    0.000    0.000    0.000    0.000    0.000    0.000 
#
# Total GULP energy -267801.935113 kJ/mol
# GULP energy per Si atom -5579.206982 kJ/mol
# Density = 1.978933 g / cm^3
# Si number density = 19.834471 Si / 1000 Ang^3
#
#
#
# Elastic Constant Matrix: (Units=GPa)
#
#
# Indices 1 2 3 4 5 6 
#
# 1 139.0492 64.5799 50.1092 0.0000 0.0000 0.0000
# 2 64.5799 91.6322 47.8512 0.0000 0.0000 0.0000
# 3 50.1092 47.8512 132.7615 0.0000 0.0000 0.0000
# 4 0.0000 0.0000 0.0000 27.2947 0.0000 0.0000
# 5 0.0000 0.0000 0.0000 0.0000 6.2716 0.0000
# 6 0.0000 0.0000 0.0000 0.0000 0.0000 15.5677
#
#
#
# Elastic Compliance Matrix: (Units=1/GPa)
#
#
# Indices 1 2 3 4 5 6 
#
# 1 0.010984 -0.006869 -0.001670 0.000000 0.000000 0.000000
# 2 -0.006869 0.017739 -0.003801 0.000000 0.000000 0.000000
# 3 -0.001670 -0.003801 0.009533 0.000000 0.000000 0.000000
# 4 0.000000 0.000000 0.000000 0.036637 0.000000 0.000000
# 5 0.000000 0.000000 0.000000 0.000000 0.159450 0.000000
# 6 0.000000 0.000000 0.000000 0.000000 0.000000 0.064235
#
#
# Mechanical properties :
#
#
# Convention : Reuss Voigt Hill
#
# Bulk Modulus (GPa) = 73.66172 76.50260 75.08216
# Shear Modulus (GPa) = 15.25397 23.22031 19.23714
#
# Velocity S-wave (km/s) = 2.77621 3.42527 3.11768
# Velocity P-wave (km/s) = 6.89168 7.36869 7.13417
#
# Compressibility (1/GPa) = 0.01357557
#
# Stress axis : x y z
#
# Youngs Moduli (GPa) = 91.04395 56.37215 104.90297
#
# Poissons Ratio (x) = 0.38722 0.17517
# Poissons Ratio (y) = 0.62538 0.39875
# Poissons Ratio (z) = 0.15203 0.21428
#
# Static dielectric constant tensor:
#      x y z
#    x 1.715140 0.000000 0.000000 
#    y 0.000000 3.024570 0.000000 
#    z 0.000000 0.000000 1.739200 
# 
# From -- ./inp_files/16922.got.cif
#   From: 2010.05.17/outbox.cif.g08.bks.cpg/sg52_9_cif.got.tgz:16922.got - 2010.06.03 12:15:38.
