data_PCOD9413902
_publ_section_title
;
Structure prediction by ZEFSAII (Michael W. Deem and Ramdas Pophale) SiO2 
 PCOD9413902
Probable space group: P N N A
;
_chemical_formula_sum "Si O2"
_cell_formula_units_Z 16
_cell_length_a 7.708218
_cell_length_b 5.062529
_cell_length_c 16.880145
_cell_angle_alpha 90.000000
_cell_angle_beta 90.000000
_cell_angle_gamma 90.000000
_cell_volume 658.715201
_symmetry_space_group_name_H-M "P N N A"
_symmetry_group_IT_number 52
_symmetry_cell_setting 'orthorhombic'
loop_
_space_group_symop_operation_xyz
x,y,z
1/2-x,-y,z
x,1/2-y,1/2-z
1/2-x,1/2+y,1/2-z
-x,-y,-z
1/2+x,y,-z
-x,1/2+y,1/2+z
1/2+x,1/2-y,1/2+z
loop_
_atom_site_type_symbol
_atom_site_label
_atom_site_fract_x
_atom_site_fract_y
_atom_site_fract_z
Si Si1 0.250000 0.500000 0.453235
Si Si2 0.933612 0.846230 0.662977
Si Si3 0.750000 0.000000 0.433711
O O1 0.099490 0.404890 0.393889
O O2 0.221784 0.750926 0.509076
O O3 0.983535 0.750000 0.750000
O O4 0.081818 0.018464 0.621786
O O5 0.750000 0.000000 0.668295
#
# Coordination Sequence:
#
# PCOD9413902 Si02
#       3
#     4   8   4
#     4  12  26  52  78 114 152 202 256 320 382 458
#     4  12  28  49  79 112 158 204 255 318 390 456
#     4  12  30  48  80 114 152 200 260 316 382 462
#
# _framework density 24.289709999999999
#
# number of rings (size 3 to 8) (size 9 to 14) (size 15 to 20)
#    0.000    0.000    5.000    3.000    7.000    4.000 
#    0.000    0.000    0.000    0.000    0.000    0.000 
#    0.000    0.000    0.000    0.000    0.000    0.000 
#
# Total GULP energy -89724.172111 kJ/mol
# GULP energy per Si atom -5607.760757 kJ/mol
# Density = 2.423443 g / cm^3
# Si number density = 24.289710 Si / 1000 Ang^3
#
#
#
# Elastic Constant Matrix: (Units=GPa)
#
#
# Indices 1 2 3 4 5 6 
#
# 1 86.1954 21.5073 55.6436 0.0000 0.0000 0.0000
# 2 21.5073 142.6485 62.5762 0.0000 0.0000 0.0000
# 3 55.6436 62.5762 205.8777 0.0000 0.0000 0.0000
# 4 0.0000 0.0000 0.0000 -11.1406 0.0000 0.0000
# 5 0.0000 0.0000 0.0000 0.0000 -122.1571 0.0000
# 6 0.0000 0.0000 0.0000 0.0000 0.0000 24.2168
#
#
#
# Elastic Compliance Matrix: (Units=1/GPa)
#
#
# Indices 1 2 3 4 5 6 
#
# 1 0.014087 -0.000524 -0.003648 0.000000 0.000000 0.000000
# 2 -0.000524 0.008108 -0.002323 0.000000 0.000000 0.000000
# 3 -0.003648 -0.002323 0.006549 0.000000 0.000000 0.000000
# 4 0.000000 0.000000 0.000000 -0.089762 0.000000 0.000000
# 5 0.000000 0.000000 0.000000 0.000000 -0.008186 0.000000
# 6 0.000000 0.000000 0.000000 0.000000 0.000000 0.041294
#
#
# Mechanical properties :
#
#
# Convention : Reuss Voigt Hill
#
# Bulk Modulus (GPa) = 63.47094 79.35286 71.41190
# Shear Modulus (GPa) = -517.15462 -2.14985 -259.65224
#
# Velocity S-wave (km/s) = -14.60730 -0.94181 -10.35037
# Velocity P-wave (km/s) = 16.07203 5.61761 10.64783
#
# Compressibility (1/GPa) = 0.01575524
#
# Stress axis : x y z
#
# Youngs Moduli (GPa) = 70.98561 123.33188 152.68638
#
# Poissons Ratio (x) = 0.06457 0.55705
# Poissons Ratio (y) = 0.03716 0.35469
# Poissons Ratio (z) = 0.25898 0.28650
#
# Static dielectric constant tensor:
#      x y z
#    x 1.987730 0.000000 0.000000 
#    y 0.000000 1.937260 0.000000 
#    z 0.000000 0.000000 1.884920 
# 
# From -- ./inp_files/23799.got.cif
#   From: 2010.05.17/outbox.cif.g08.bks.cpg/sg52_12_cif.got.tgz:23799.got - 2010.06.03 12:15:38.
