data_PCOD9413923
_publ_section_title
;
Structure prediction by ZEFSAII (Michael W. Deem and Ramdas Pophale) SiO2 
 PCOD9413923
Probable space group: P N N A
;
_chemical_formula_sum "Si O2"
_cell_formula_units_Z 24
_cell_length_a 9.103132
_cell_length_b 4.979500
_cell_length_c 21.033434
_cell_angle_alpha 90.000000
_cell_angle_beta 90.000000
_cell_angle_gamma 90.000000
_cell_volume 953.425493
_symmetry_space_group_name_H-M "P N N A"
_symmetry_group_IT_number 52
_symmetry_cell_setting 'orthorhombic'
loop_
_space_group_symop_operation_xyz
x,y,z
1/2-x,-y,z
x,1/2-y,1/2-z
1/2-x,1/2+y,1/2-z
-x,-y,-z
1/2+x,y,-z
-x,1/2+y,1/2+z
1/2+x,1/2-y,1/2+z
loop_
_atom_site_type_symbol
_atom_site_label
_atom_site_fract_x
_atom_site_fract_y
_atom_site_fract_z
Si Si1 0.250000 0.000000 0.042851
Si Si2 0.250000 0.500000 0.951083
Si Si3 0.250000 0.000000 0.796040
Si Si4 0.002256 0.272415 0.872227
Si Si5 0.662497 0.750000 0.750000
O O1 0.384839 0.117443 0.084213
O O2 0.218521 0.247501 0.996142
O O3 0.397143 0.507288 0.907910
O O4 0.223481 0.750000 0.750000
O O5 0.384306 0.936387 0.841807
O O6 0.924003 0.381881 0.808811
O O7 0.750000 0.500000 0.721556
#
# Coordination Sequence:
#
# PCOD9413923 Si02
#       5
#     4   4   4   8   4
#     4  12  29  52  82 112 164 209 274 322 396 476
#     4  12  29  52  80 118 154 219 268 328 390 478
#     4  12  28  46  76 120 158 198 254 320 404 476
#     4  12  28  52  83 116 162 208 268 336 402 482
#     4  12  30  48  80 120 158 204 260 336 412 472
#
# _framework density 25.172394000000001
#
# number of rings (size 3 to 8) (size 9 to 14) (size 15 to 20)
#    0.000    0.000    3.333    4.000    4.667    8.000 
#    0.000    0.000    0.000    0.000    0.000    0.000 
#    0.000    0.000    0.000    0.000    0.000    0.000 
#
# Total GULP energy -134466.735240 kJ/mol
# GULP energy per Si atom -5602.780635 kJ/mol
# Density = 2.511510 g / cm^3
# Si number density = 25.172394 Si / 1000 Ang^3
#
#
#
# Elastic Constant Matrix: (Units=GPa)
#
#
# Indices 1 2 3 4 5 6 
#
# 1 103.4490 -9.0486 36.7312 0.0000 0.0000 0.0000
# 2 -9.0486 71.4540 1.1053 0.0000 0.0000 0.0000
# 3 36.7312 1.1053 122.4783 0.0000 0.0000 0.0000
# 4 0.0000 0.0000 0.0000 40.6649 0.0000 0.0000
# 5 0.0000 0.0000 0.0000 0.0000 34.6102 0.0000
# 6 0.0000 0.0000 0.0000 0.0000 0.0000 43.5955
#
#
#
# Elastic Compliance Matrix: (Units=1/GPa)
#
#
# Indices 1 2 3 4 5 6 
#
# 1 0.010965 0.001440 -0.003301 0.000000 0.000000 0.000000
# 2 0.001440 0.014186 -0.000560 0.000000 0.000000 0.000000
# 3 -0.003301 -0.000560 0.009160 0.000000 0.000000 0.000000
# 4 0.000000 0.000000 0.000000 0.024591 0.000000 0.000000
# 5 0.000000 0.000000 0.000000 0.000000 0.028893 0.000000
# 6 0.000000 0.000000 0.000000 0.000000 0.000000 0.022938
#
#
# Mechanical properties :
#
#
# Convention : Reuss Voigt Hill
#
# Bulk Modulus (GPa) = 33.93561 39.43969 36.68765
# Shear Modulus (GPa) = 39.87287 41.68035 40.77661
#
# Velocity S-wave (km/s) = 3.98426 4.07356 4.02916
# Velocity P-wave (km/s) = 5.88866 6.15037 6.02094
#
# Compressibility (1/GPa) = 0.02946757
#
# Stress axis : x y z
#
# Youngs Moduli (GPa) = 91.20176 70.49209 109.17244
#
# Poissons Ratio (x) = -0.10148 0.36041
# Poissons Ratio (y) = -0.13129 0.06111
# Poissons Ratio (z) = 0.30108 0.03946
#
# Static dielectric constant tensor:
#      x y z
#    x 2.176190 0.000000 0.000000 
#    y 0.000000 1.931890 0.000000 
#    z 0.000000 0.000000 1.995430 
# 
# From -- ./inp_files/39064.got.cif
#   From: 2010.05.17/outbox.cif.g08.bks.cpg/sg52_20_cif.got.tgz:39064.got - 2010.06.03 12:15:38.
