data_PCOD9413615
_publ_section_title
;
Structure prediction by ZEFSAII (Michael W. Deem and Ramdas Pophale) SiO2 
 PCOD9413615
Probable space group: P N N A
;
_chemical_formula_sum "Si O2"
_cell_formula_units_Z 48
_cell_length_a 24.010924
_cell_length_b 11.055402
_cell_length_c 8.083177
_cell_angle_alpha 90.000000
_cell_angle_beta 90.000000
_cell_angle_gamma 90.000000
_cell_volume 2145.682707
_symmetry_space_group_name_H-M "P N N A"
_symmetry_group_IT_number 52
_symmetry_cell_setting 'orthorhombic'
loop_
_space_group_symop_operation_xyz
x,y,z
1/2-x,-y,z
x,1/2-y,1/2-z
1/2-x,1/2+y,1/2-z
-x,-y,-z
1/2+x,y,-z
-x,1/2+y,1/2+z
1/2+x,1/2-y,1/2+z
loop_
_atom_site_type_symbol
_atom_site_label
_atom_site_fract_x
_atom_site_fract_y
_atom_site_fract_z
Si Si1 0.858371 0.910493 0.080759
Si Si2 0.551000 0.573201 0.577222
Si Si3 0.987962 0.187349 0.424771
Si Si4 0.804040 0.250000 0.750000
Si Si5 0.391245 0.088973 0.421961
Si Si6 0.750000 0.000000 0.904462
Si Si7 0.611132 0.146910 0.459922
O O1 0.871547 0.880410 0.271375
O O2 0.872683 0.782879 0.992675
O O3 0.897198 0.018439 0.019177
O O4 0.798023 0.950685 0.024830
O O5 0.500000 0.500000 0.500000
O O6 0.535084 0.709440 0.544064
O O7 0.566834 0.567066 0.768487
O O8 0.000252 0.250000 0.250000
O O9 0.932404 0.105494 0.420570
O O10 0.044893 0.139943 0.503059
O O11 0.847353 0.195383 0.612578
O O12 0.771653 0.125520 0.809112
O O13 0.360353 0.960587 0.438116
#
# Coordination Sequence:
#
# PCOD9413615 Si02
#       7
#     8   8   8   4   8   4   8
#     4  11  25  48  71 103 148 193 255 325 374 454
#     4  12  21  39  71 101 151 193 240 307 373 453
#     4  12  23  39  68 109 155 199 240 301 370 463
#     4  12  28  50  82 108 150 190 264 322 378 460
#     4  12  24  45  69 110 147 201 245 301 380 453
#     4  12  28  52  76 112 142 200 258 322 394 434
#     4  11  26  44  71 109 148 198 249 303 379 455
#
# _framework density 22.370501999999998
#
# number of rings (size 3 to 8) (size 9 to 14) (size 15 to 20)
#    0.000    0.333    5.000    3.500    4.667    0.000 
#    6.000    0.000    0.000    0.000    0.000    0.000 
#    0.000    0.000    0.000    0.000    0.000    0.000 
#
# Total GULP energy -267773.905047 kJ/mol
# GULP energy per Si atom -5578.623022 kJ/mol
# Density = 2.231959 g / cm^3
# Si number density = 22.370502 Si / 1000 Ang^3
#
#
#
# Elastic Constant Matrix: (Units=GPa)
#
#
# Indices 1 2 3 4 5 6 
#
# 1 128.2054 36.2380 42.6550 0.0000 0.0000 0.0000
# 2 36.2380 155.0931 37.3524 0.0000 0.0000 0.0000
# 3 42.6550 37.3524 78.1637 0.0000 0.0000 0.0000
# 4 0.0000 0.0000 0.0000 29.3715 0.0000 0.0000
# 5 0.0000 0.0000 0.0000 0.0000 -4.6897 0.0000
# 6 0.0000 0.0000 0.0000 0.0000 0.0000 25.7837
#
#
#
# Elastic Compliance Matrix: (Units=1/GPa)
#
#
# Indices 1 2 3 4 5 6 
#
# 1 0.009700 -0.001120 -0.004758 0.000000 0.000000 0.000000
# 2 -0.001120 0.007416 -0.002932 0.000000 0.000000 0.000000
# 3 -0.004758 -0.002932 0.016791 0.000000 0.000000 0.000000
# 4 0.000000 0.000000 0.000000 0.034047 0.000000 0.000000
# 5 0.000000 0.000000 0.000000 0.000000 -0.213234 0.000000
# 6 0.000000 0.000000 0.000000 0.000000 0.000000 0.038784
#
#
# Mechanical properties :
#
#
# Convention : Reuss Voigt Hill
#
# Bulk Modulus (GPa) = 61.40417 65.99478 63.69947
# Shear Modulus (GPa) = -59.91866 26.44087 -16.73889
#
# Velocity S-wave (km/s) = -5.18101 3.44168 -2.73840
# Velocity P-wave (km/s) = 2.87787 6.73487 4.30560
#
# Compressibility (1/GPa) = 0.01628554
#
# Stress axis : x y z
#
# Youngs Moduli (GPa) = 103.09645 134.84790 59.55454
#
# Poissons Ratio (x) = 0.15110 0.28335
# Poissons Ratio (y) = 0.11552 0.17463
# Poissons Ratio (z) = 0.49051 0.39542
#
# Static dielectric constant tensor:
#      x y z
#    x 1.905690 0.000000 0.000000 
#    y 0.000000 1.614150 0.000000 
#    z 0.000000 0.000000 1.869150 
# 
# From -- ./inp_files/14302.got.cif
#   From: 2010.05.17/outbox.cif.g08.bks.cpg/sg52_8_cif.got.tgz:14302.got - 2010.06.03 12:15:38.
