data_PCOD9413124
_publ_section_title
;
Structure prediction by ZEFSAII (Michael W. Deem and Ramdas Pophale) SiO2 
 PCOD9413124
Probable space group: P N N A
;
_chemical_formula_sum "Si O2"
_cell_formula_units_Z 48
_cell_length_a 16.902622
_cell_length_b 14.954585
_cell_length_c 10.417178
_cell_angle_alpha 90.000000
_cell_angle_beta 90.000000
_cell_angle_gamma 90.000000
_cell_volume 2633.167765
_symmetry_space_group_name_H-M "P N N A"
_symmetry_group_IT_number 52
_symmetry_cell_setting 'orthorhombic'
loop_
_space_group_symop_operation_xyz
x,y,z
1/2-x,-y,z
x,1/2-y,1/2-z
1/2-x,1/2+y,1/2-z
-x,-y,-z
1/2+x,y,-z
-x,1/2+y,1/2+z
1/2+x,1/2-y,1/2+z
loop_
_atom_site_type_symbol
_atom_site_label
_atom_site_fract_x
_atom_site_fract_y
_atom_site_fract_z
Si Si1 0.200709 0.407320 0.516831
Si Si2 0.950035 0.004663 0.629887
Si Si3 0.199889 0.407174 0.218814
Si Si4 0.851843 0.312314 0.869873
Si Si5 0.345724 0.195688 0.881447
Si Si6 0.442002 0.009770 0.879647
O O1 0.250000 0.500000 0.508527
O O2 0.184963 0.381541 0.368100
O O3 0.256756 0.337509 0.588087
O O4 0.123640 0.433445 0.596998
O O5 0.902446 0.097642 0.633462
O O6 0.008975 0.000390 0.750004
O O7 0.882666 0.928373 0.648800
O O8 0.000000 0.000000 0.500000
O O9 0.250000 0.500000 0.221919
O O10 0.259374 0.339140 0.149063
O O11 0.872959 0.250000 0.750000
O O12 0.867329 0.259221 0.999977
O O13 0.351584 0.250000 0.750000
O O14 0.399347 0.106492 0.880081
O O15 0.500000 0.000000 0.000000
#
# Coordination Sequence:
#
# PCOD9413124 Si02
#       6
#     8   8   8   8   8   8
#     4   9  18  36  61  83 108 157 206 232 283 371
#     4  11  23  39  60  91 126 159 194 246 311 363
#     4   9  18  36  61  83 109 155 205 234 280 370
#     4  11  21  39  64  87 115 158 209 254 292 350
#     4  11  23  39  59  91 123 153 202 266 307 338
#     4  11  21  39  65  86 119 168 203 236 300 387
#
# _framework density 18.228994
#
# number of rings (size 3 to 8) (size 9 to 14) (size 15 to 20)
#    0.000    1.667    3.333    2.000    0.000    1.333 
#    0.000   15.000    0.000    0.000    0.000    0.000 
#    0.000    0.000    0.000    0.000    0.000    0.000 
#
# Total GULP energy -267908.753657 kJ/mol
# GULP energy per Si atom -5581.432368 kJ/mol
# Density = 1.818750 g / cm^3
# Si number density = 18.228994 Si / 1000 Ang^3
#
#
#
# Elastic Constant Matrix: (Units=GPa)
#
#
# Indices 1 2 3 4 5 6 
#
# 1 128.3255 44.2264 76.1585 0.0000 0.0000 0.0000
# 2 44.2264 88.5888 56.4962 0.0000 0.0000 0.0000
# 3 76.1585 56.4962 179.1490 0.0000 0.0000 0.0000
# 4 0.0000 0.0000 0.0000 31.2442 0.0000 0.0000
# 5 0.0000 0.0000 0.0000 0.0000 -143.7304 0.0000
# 6 0.0000 0.0000 0.0000 0.0000 0.0000 41.9643
#
#
#
# Elastic Compliance Matrix: (Units=1/GPa)
#
#
# Indices 1 2 3 4 5 6 
#
# 1 0.011089 -0.003167 -0.003716 0.000000 0.000000 0.000000
# 2 -0.003167 0.015034 -0.003395 0.000000 0.000000 0.000000
# 3 -0.003716 -0.003395 0.008232 0.000000 0.000000 0.000000
# 4 0.000000 0.000000 0.000000 0.032006 0.000000 0.000000
# 5 0.000000 0.000000 0.000000 0.000000 -0.006957 0.000000
# 6 0.000000 0.000000 0.000000 0.000000 0.000000 0.023830
#
#
# Mechanical properties :
#
#
# Convention : Reuss Voigt Hill
#
# Bulk Modulus (GPa) = 72.45759 83.31393 77.88576
# Shear Modulus (GPa) = 46.13063 0.50778 23.31921
#
# Velocity S-wave (km/s) = 5.03598 0.52836 3.58052
# Velocity P-wave (km/s) = 8.58194 6.79526 7.74032
#
# Compressibility (1/GPa) = 0.01380118
#
# Stress axis : x y z
#
# Youngs Moduli (GPa) = 90.17882 66.51574 121.47569
#
# Poissons Ratio (x) = 0.21062 0.45135
# Poissons Ratio (y) = 0.28555 0.41241
# Poissons Ratio (z) = 0.33506 0.22582
#
# Static dielectric constant tensor:
#      x y z
#    x 1.632450 0.000000 0.000000 
#    y 0.000000 1.643050 0.000000 
#    z 0.000000 0.000000 1.579020 
# 
# From -- ./inp_files/12043.got.cif
#   From: 2010.05.17/outbox.cif.g08.bks.cpg/sg52_7_cif.got.tgz:12043.got - 2010.06.03 12:15:38.
