data_PCOD9413521
_publ_section_title
;
Structure prediction by ZEFSAII (Michael W. Deem and Ramdas Pophale) SiO2 
 PCOD9413521
Probable space group: P N N A
;
_chemical_formula_sum "Si O2"
_cell_formula_units_Z 36
_cell_length_a 12.417290
_cell_length_b 5.461835
_cell_length_c 22.551328
_cell_angle_alpha 90.000000
_cell_angle_beta 90.000000
_cell_angle_gamma 90.000000
_cell_volume 1529.457881
_symmetry_space_group_name_H-M "P N N A"
_symmetry_group_IT_number 52
_symmetry_cell_setting 'orthorhombic'
loop_
_space_group_symop_operation_xyz
x,y,z
1/2-x,-y,z
x,1/2-y,1/2-z
1/2-x,1/2+y,1/2-z
-x,-y,-z
1/2+x,y,-z
-x,1/2+y,1/2+z
1/2+x,1/2-y,1/2+z
loop_
_atom_site_type_symbol
_atom_site_label
_atom_site_fract_x
_atom_site_fract_y
_atom_site_fract_z
Si Si1 0.363082 0.644464 0.087740
Si Si2 0.464324 0.692092 0.850239
Si Si3 0.695218 0.250000 0.250000
Si Si4 0.367967 0.943794 0.203597
Si Si5 0.319629 0.755473 0.958235
O O1 0.250000 0.500000 0.086329
O O2 0.464401 0.503276 0.114845
O O3 0.345795 0.844682 0.137927
O O4 0.382425 0.720055 0.020259
O O5 0.374158 0.625511 0.802564
O O6 0.398193 0.814246 0.903650
O O7 0.549736 0.842868 0.811191
O O8 0.750000 0.500000 0.275845
O O9 0.417190 0.750000 0.250000
O O10 0.250000 0.000000 0.229911
O O11 0.250000 0.500000 0.947811
O O12 0.250000 0.000000 0.967033
#
# Coordination Sequence:
#
# PCOD9413521 Si02
#       5
#     8   8   4   8   8
#     4  11  24  46  72 110 151 196 249 320 375 452
#     4  12  27  47  76 108 143 209 249 309 382 453
#     4  12  30  52  74 106 150 192 254 312 364 446
#     4  12  26  43  71 106 153 191 252 313 383 451
#     4  11  27  49  76 111 156 202 256 315 371 448
#
# _framework density 23.537749999999999
#
# number of rings (size 3 to 8) (size 9 to 14) (size 15 to 20)
#    0.000    0.444    2.222    4.667   12.444    0.889 
#    0.000    0.000    0.000    0.000    0.000    0.000 
#    0.000    0.000    0.000    0.000    0.000    0.000 
#
# Total GULP energy -200997.353485 kJ/mol
# GULP energy per Si atom -5583.259819 kJ/mol
# Density = 2.348418 g / cm^3
# Si number density = 23.537750 Si / 1000 Ang^3
#
#
#
# Elastic Constant Matrix: (Units=GPa)
#
#
# Indices 1 2 3 4 5 6 
#
# 1 72.0425 34.4345 41.0049 0.0000 0.0000 0.0000
# 2 34.4345 95.3549 24.8073 0.0000 0.0000 0.0000
# 3 41.0049 24.8073 156.9781 0.0000 0.0000 0.0000
# 4 0.0000 0.0000 0.0000 -42.2225 0.0000 0.0000
# 5 0.0000 0.0000 0.0000 0.0000 51.2410 0.0000
# 6 0.0000 0.0000 0.0000 0.0000 0.0000 12.5882
#
#
#
# Elastic Compliance Matrix: (Units=1/GPa)
#
#
# Indices 1 2 3 4 5 6 
#
# 1 0.018945 -0.005792 -0.004033 0.000000 0.000000 0.000000
# 2 -0.005792 0.012708 -0.000495 0.000000 0.000000 0.000000
# 3 -0.004033 -0.000495 0.007502 0.000000 0.000000 0.000000
# 4 0.000000 0.000000 0.000000 -0.023684 0.000000 0.000000
# 5 0.000000 0.000000 0.000000 0.000000 0.019516 0.000000
# 6 0.000000 0.000000 0.000000 0.000000 0.000000 0.079440
#
#
# Mechanical properties :
#
#
# Convention : Reuss Voigt Hill
#
# Bulk Modulus (GPa) = 54.01505 58.31878 56.16691
# Shear Modulus (GPa) = 35.40119 19.26325 27.33222
#
# Velocity S-wave (km/s) = 3.88237 2.86387 3.41135
# Velocity P-wave (km/s) = 6.56469 5.98048 6.27938
#
# Compressibility (1/GPa) = 0.01851336
#
# Stress axis : x y z
#
# Youngs Moduli (GPa) = 52.78487 78.69316 133.29535
#
# Poissons Ratio (x) = 0.45579 0.53762
# Poissons Ratio (y) = 0.30573 0.06601
# Poissons Ratio (z) = 0.21290 0.03897
#
# Static dielectric constant tensor:
#      x y z
#    x 2.024850 0.000000 0.000000 
#    y 0.000000 2.011120 0.000000 
#    z 0.000000 0.000000 1.891770 
# 
# From -- ./inp_files/39888.got.cif
#   From: 2010.05.17/outbox.cif.g08.bks.cpg/sg52_20_cif.got.tgz:39888.got - 2010.06.03 12:15:38.
