data_PCOD9413398
_publ_section_title
;
Structure prediction by ZEFSAII (Michael W. Deem and Ramdas Pophale) SiO2 
 PCOD9413398
Probable space group: P N N A
;
_chemical_formula_sum "Si O2"
_cell_formula_units_Z 32
_cell_length_a 9.294735
_cell_length_b 23.573863
_cell_length_c 6.492922
_cell_angle_alpha 90.000000
_cell_angle_beta 90.000000
_cell_angle_gamma 90.000000
_cell_volume 1422.682381
_symmetry_space_group_name_H-M "P N N A"
_symmetry_group_IT_number 52
_symmetry_cell_setting 'orthorhombic'
loop_
_space_group_symop_operation_xyz
x,y,z
1/2-x,-y,z
x,1/2-y,1/2-z
1/2-x,1/2+y,1/2-z
-x,-y,-z
1/2+x,y,-z
-x,1/2+y,1/2+z
1/2+x,1/2-y,1/2+z
loop_
_atom_site_type_symbol
_atom_site_label
_atom_site_fract_x
_atom_site_fract_y
_atom_site_fract_z
Si Si1 0.704788 0.184238 0.774956
Si Si2 0.427756 0.382847 0.545232
Si Si3 0.053438 0.951903 0.337954
Si Si4 0.724483 0.107791 0.430313
O O1 0.669886 0.250000 0.750000
O O2 0.572146 0.146163 0.864318
O O3 0.743064 0.166735 0.541963
O O4 0.841183 0.164368 0.911824
O O5 0.450465 0.440576 0.409271
O O6 0.320787 0.398870 0.730238
O O7 0.941800 0.901866 0.393568
O O8 0.214283 0.936982 0.404691
O O9 0.000000 0.000000 0.500000
#
# Coordination Sequence:
#
# PCOD9413398 Si02
#       4
#     8   8   8   8
#     4  11  26  42  70 103 143 192 236 292 359 419
#     4  11  24  46  69 102 145 184 241 300 348 434
#     4  11  24  44  72  99 138 186 234 297 364 427
#     4  11  23  45  65 104 141 176 243 299 340 437
#
# _framework density 22.492719999999998
#
# number of rings (size 3 to 8) (size 9 to 14) (size 15 to 20)
#    0.000    1.000    5.000    0.750    3.500    1.000 
#    0.000    2.500    0.000    0.000    0.000    0.000 
#    0.000    0.000    0.000    0.000    0.000    0.000 
#
# Total GULP energy -178147.843258 kJ/mol
# GULP energy per Si atom -5567.120102 kJ/mol
# Density = 2.244153 g / cm^3
# Si number density = 22.492720 Si / 1000 Ang^3
#
#
#
# Elastic Constant Matrix: (Units=GPa)
#
#
# Indices 1 2 3 4 5 6 
#
# 1 96.7860 3.3835 15.9503 0.0000 0.0000 0.0000
# 2 3.3835 86.9725 53.5934 0.0000 0.0000 0.0000
# 3 15.9503 53.5934 132.3176 0.0000 0.0000 0.0000
# 4 0.0000 0.0000 0.0000 40.0780 0.0000 0.0000
# 5 0.0000 0.0000 0.0000 0.0000 51.6195 0.0000
# 6 0.0000 0.0000 0.0000 0.0000 0.0000 18.6373
#
#
#
# Elastic Compliance Matrix: (Units=1/GPa)
#
#
# Indices 1 2 3 4 5 6 
#
# 1 0.010558 0.000498 -0.001474 0.000000 0.000000 0.000000
# 2 0.000498 0.015346 -0.006276 0.000000 0.000000 0.000000
# 3 -0.001474 -0.006276 0.010277 0.000000 0.000000 0.000000
# 4 0.000000 0.000000 0.000000 0.024951 0.000000 0.000000
# 5 0.000000 0.000000 0.000000 0.000000 0.019373 0.000000
# 6 0.000000 0.000000 0.000000 0.000000 0.000000 0.053656
#
#
# Mechanical properties :
#
#
# Convention : Reuss Voigt Hill
#
# Bulk Modulus (GPa) = 46.13352 51.32560 48.72956
# Shear Modulus (GPa) = 32.07398 38.27688 35.17543
#
# Velocity S-wave (km/s) = 3.78030 4.12970 3.95886
# Velocity P-wave (km/s) = 6.29358 6.75333 6.52751
#
# Compressibility (1/GPa) = 0.02167621
#
# Stress axis : x y z
#
# Youngs Moduli (GPa) = 94.71818 65.16540 97.30368
#
# Poissons Ratio (x) = -0.03244 0.14345
# Poissons Ratio (y) = -0.04715 0.61063
# Poissons Ratio (z) = 0.13964 0.40895
#
# Static dielectric constant tensor:
#      x y z
#    x 1.792120 0.000000 0.000000 
#    y 0.000000 1.896510 0.000000 
#    z 0.000000 0.000000 1.911590 
# 
# From -- ./inp_files/442.got.cif
#   From: 2010.05.17/outbox.cif.g08.bks.cpg/sg52_1_cif.got.tgz:442.got - 2010.06.03 12:15:38.
