data_PCOD9413737
_publ_section_title
;
Structure prediction by ZEFSAII (Michael W. Deem and Ramdas Pophale) SiO2 
 PCOD9413737
Probable space group: P N N A
;
_chemical_formula_sum "Si O2"
_cell_formula_units_Z 40
_cell_length_a 11.900159
_cell_length_b 10.883818
_cell_length_c 15.279358
_cell_angle_alpha 90.000000
_cell_angle_beta 90.000000
_cell_angle_gamma 90.000000
_cell_volume 1978.969686
_symmetry_space_group_name_H-M "P N N A"
_symmetry_group_IT_number 52
_symmetry_cell_setting 'orthorhombic'
loop_
_space_group_symop_operation_xyz
x,y,z
1/2-x,-y,z
x,1/2-y,1/2-z
1/2-x,1/2+y,1/2-z
-x,-y,-z
1/2+x,y,-z
-x,1/2+y,1/2+z
1/2+x,1/2-y,1/2+z
loop_
_atom_site_type_symbol
_atom_site_label
_atom_site_fract_x
_atom_site_fract_y
_atom_site_fract_z
Si Si1 0.736866 0.144581 0.405547
Si Si2 0.245858 0.770457 0.401357
Si Si3 0.422210 0.570062 0.217514
Si Si4 0.750000 0.500000 0.640328
Si Si5 0.499110 0.681818 0.839690
Si Si6 0.885667 0.250000 0.250000
O O1 0.768261 0.163226 0.506279
O O2 0.609162 0.193965 0.400413
O O3 0.811331 0.218946 0.334950
O O4 0.750000 0.000000 0.383255
O O5 0.336587 0.841497 0.338329
O O6 0.271658 0.625677 0.411500
O O7 0.121743 0.768131 0.361164
O O8 0.353261 0.498799 0.291668
O O9 0.477874 0.464330 0.160349
O O10 0.525499 0.640101 0.261822
O O11 0.465483 0.750000 0.750000
#
# Coordination Sequence:
#
# PCOD9413737 Si02
#       6
#     8   8   8   4   8   4
#     4  12  28  46  68 100 140 183 228 277 347 405
#     4  12  26  43  71 108 133 177 233 287 338 398
#     4  12  22  42  75  99 138 177 227 283 341 406
#     4  12  22  44  68 110 132 174 230 282 344 400
#     4  12  23  44  71 101 138 179 228 278 338 418
#     4  12  26  46  68  98 138 182 226 280 348 408
#
# _framework density 20.212537000000001
#
# number of rings (size 3 to 8) (size 9 to 14) (size 15 to 20)
#    0.000    0.000    9.000    1.200    2.800    1.600 
#    5.400    2.000    0.000    0.000    0.000    0.000 
#    0.000    0.000    0.000    0.000    0.000    0.000 
#
# Total GULP energy -222991.775378 kJ/mol
# GULP energy per Si atom -5574.794384 kJ/mol
# Density = 2.016653 g / cm^3
# Si number density = 20.212537 Si / 1000 Ang^3
#
#
#
# Elastic Constant Matrix: (Units=GPa)
#
#
# Indices 1 2 3 4 5 6 
#
# 1 89.6735 24.8414 18.6299 0.0000 0.0000 0.0000
# 2 24.8414 101.1227 21.1907 0.0000 0.0000 0.0000
# 3 18.6299 21.1907 66.7351 0.0000 0.0000 0.0000
# 4 0.0000 0.0000 0.0000 28.4583 0.0000 0.0000
# 5 0.0000 0.0000 0.0000 0.0000 22.0496 0.0000
# 6 0.0000 0.0000 0.0000 0.0000 0.0000 5.6948
#
#
#
# Elastic Compliance Matrix: (Units=1/GPa)
#
#
# Indices 1 2 3 4 5 6 
#
# 1 0.012395 -0.002485 -0.002671 0.000000 0.000000 0.000000
# 2 -0.002485 0.011092 -0.002828 0.000000 0.000000 0.000000
# 3 -0.002671 -0.002828 0.016628 0.000000 0.000000 0.000000
# 4 0.000000 0.000000 0.000000 0.035139 0.000000 0.000000
# 5 0.000000 0.000000 0.000000 0.000000 0.045352 0.000000
# 6 0.000000 0.000000 0.000000 0.000000 0.000000 0.175600
#
#
# Mechanical properties :
#
#
# Convention : Reuss Voigt Hill
#
# Bulk Modulus (GPa) = 41.41428 42.98393 42.19911
# Shear Modulus (GPa) = 15.61402 24.09850 19.85626
#
# Velocity S-wave (km/s) = 2.78239 3.45665 3.13768
# Velocity P-wave (km/s) = 5.55483 6.10274 5.83522
#
# Compressibility (1/GPa) = 0.02414626
#
# Stress axis : x y z
#
# Youngs Moduli (GPa) = 80.67814 90.15371 60.13816
#
# Poissons Ratio (x) = 0.22405 0.16063
# Poissons Ratio (y) = 0.20050 0.17009
# Poissons Ratio (z) = 0.21550 0.25499
#
# Static dielectric constant tensor:
#      x y z
#    x 1.735000 0.000000 0.000000 
#    y 0.000000 1.861040 0.000000 
#    z 0.000000 0.000000 1.705090 
# 
# From -- ./inp_files/25866.got.cif
#   From: 2010.05.17/outbox.cif.g08.bks.cpg/sg52_13_cif.got.tgz:25866.got - 2010.06.03 12:15:38.
