data_PCOD9413879
_publ_section_title
;
Structure prediction by ZEFSAII (Michael W. Deem and Ramdas Pophale) SiO2 
 PCOD9413879
Probable space group: P N N A
;
_chemical_formula_sum "Si O2"
_cell_formula_units_Z 40
_cell_length_a 24.010345
_cell_length_b 6.697074
_cell_length_c 11.969261
_cell_angle_alpha 90.000000
_cell_angle_beta 90.000000
_cell_angle_gamma 90.000000
_cell_volume 1924.645885
_symmetry_space_group_name_H-M "P N N A"
_symmetry_group_IT_number 52
_symmetry_cell_setting 'orthorhombic'
loop_
_space_group_symop_operation_xyz
x,y,z
1/2-x,-y,z
x,1/2-y,1/2-z
1/2-x,1/2+y,1/2-z
-x,-y,-z
1/2+x,y,-z
-x,1/2+y,1/2+z
1/2+x,1/2-y,1/2+z
loop_
_atom_site_type_symbol
_atom_site_label
_atom_site_fract_x
_atom_site_fract_y
_atom_site_fract_z
Si Si1 0.028388 0.250000 0.250000
Si Si2 0.860744 0.817366 0.376198
Si Si3 0.292811 0.322672 0.374874
Si Si4 0.250000 0.000000 0.545002
Si Si5 0.954495 0.120496 0.431247
Si Si6 0.907403 0.996919 0.943910
O O1 0.062215 0.365058 0.347500
O O2 0.984871 0.110279 0.312314
O O3 0.872994 0.750000 0.250000
O O4 0.795888 0.876202 0.386776
O O5 0.880058 0.646332 0.462662
O O6 0.896432 0.008930 0.414768
O O7 0.250000 0.500000 0.401389
O O8 0.280465 0.250000 0.250000
O O9 0.282524 0.149585 0.463478
O O10 0.356152 0.394087 0.383286
O O11 0.944044 0.335115 0.491064
O O12 0.000000 0.000000 0.500000
#
# Coordination Sequence:
#
# PCOD9413879 Si02
#       6
#     4   8   8   4   8   8
#     4  12  28  46  76 106 152 186 244 304 366 434
#     4  12  28  50  77 103 150 196 249 304 371 439
#     4  12  26  43  75 106 151 187 236 302 369 438
#     4  12  26  50  70 112 140 198 246 298 374 442
#     4  12  27  48  73 106 149 195 243 300 368 444
#     4  12  28  48  72 114 144 193 248 302 369 450
#
# _framework density 20.783044
#
# number of rings (size 3 to 8) (size 9 to 14) (size 15 to 20)
#    0.000    0.000    7.000    1.800    9.800    1.600 
#    1.800    0.000    0.000    0.000    0.000    0.000 
#    0.000    0.000    0.000    0.000    0.000    0.000 
#
# Total GULP energy -223438.561542 kJ/mol
# GULP energy per Si atom -5585.964039 kJ/mol
# Density = 2.073574 g / cm^3
# Si number density = 20.783044 Si / 1000 Ang^3
#
#
#
# Elastic Constant Matrix: (Units=GPa)
#
#
# Indices 1 2 3 4 5 6 
#
# 1 113.7522 38.6275 26.5058 0.0000 0.0000 0.0000
# 2 38.6275 97.1947 40.3262 0.0000 0.0000 0.0000
# 3 26.5058 40.3262 102.3052 0.0000 0.0000 0.0000
# 4 0.0000 0.0000 0.0000 41.7292 0.0000 0.0000
# 5 0.0000 0.0000 0.0000 0.0000 14.7534 0.0000
# 6 0.0000 0.0000 0.0000 0.0000 0.0000 23.1635
#
#
#
# Elastic Compliance Matrix: (Units=1/GPa)
#
#
# Indices 1 2 3 4 5 6 
#
# 1 0.010297 -0.003569 -0.001261 0.000000 0.000000 0.000000
# 2 -0.003569 0.013537 -0.004411 0.000000 0.000000 0.000000
# 3 -0.001261 -0.004411 0.011840 0.000000 0.000000 0.000000
# 4 0.000000 0.000000 0.000000 0.023964 0.000000 0.000000
# 5 0.000000 0.000000 0.000000 0.000000 0.067781 0.000000
# 6 0.000000 0.000000 0.000000 0.000000 0.000000 0.043171
#
#
# Mechanical properties :
#
#
# Convention : Reuss Voigt Hill
#
# Bulk Modulus (GPa) = 58.16780 58.24125 58.20453
# Shear Modulus (GPa) = 25.66684 29.78207 27.72446
#
# Velocity S-wave (km/s) = 3.51805 3.78960 3.65635
# Velocity P-wave (km/s) = 6.67466 6.87258 6.77435
#
# Compressibility (1/GPa) = 0.01719164
#
# Stress axis : x y z
#
# Youngs Moduli (GPa) = 97.11745 73.86969 84.45784
#
# Poissons Ratio (x) = 0.26364 0.10649
# Poissons Ratio (y) = 0.34662 0.37258
# Poissons Ratio (z) = 0.12246 0.32587
#
# Static dielectric constant tensor:
#      x y z
#    x 1.729920 0.000000 0.000000 
#    y 0.000000 1.786180 0.000000 
#    z 0.000000 0.000000 1.683430 
# 
# From -- ./inp_files/22694.got.cif
#   From: 2010.05.17/outbox.cif.g08.bks.cpg/sg52_12_cif.got.tgz:22694.got - 2010.06.03 12:15:38.
