data_PCOD9413815
_publ_section_title
;
Structure prediction by ZEFSAII (Michael W. Deem and Ramdas Pophale) SiO2 
 PCOD9413815
Probable space group: P N N A
;
_chemical_formula_sum "Si O2"
_cell_formula_units_Z 20
_cell_length_a 7.123797
_cell_length_b 6.900418
_cell_length_c 18.087329
_cell_angle_alpha 90.000000
_cell_angle_beta 90.000000
_cell_angle_gamma 90.000000
_cell_volume 889.122034
_symmetry_space_group_name_H-M "P N N A"
_symmetry_group_IT_number 52
_symmetry_cell_setting 'orthorhombic'
loop_
_space_group_symop_operation_xyz
x,y,z
1/2-x,-y,z
x,1/2-y,1/2-z
1/2-x,1/2+y,1/2-z
-x,-y,-z
1/2+x,y,-z
-x,1/2+y,1/2+z
1/2+x,1/2-y,1/2+z
loop_
_atom_site_type_symbol
_atom_site_label
_atom_site_fract_x
_atom_site_fract_y
_atom_site_fract_z
Si Si1 0.750000 0.500000 0.165909
Si Si2 0.455300 0.750000 0.250000
Si Si3 0.750000 0.500000 0.623064
Si Si4 0.569458 0.627937 0.930163
O O1 0.592562 0.595123 0.214786
O O2 0.623067 0.359582 0.116572
O O3 0.348835 0.644409 0.317320
O O4 0.640386 0.650668 0.569873
O O5 0.750000 0.500000 0.902146
O O6 0.500000 0.500000 0.000000
#
# Coordination Sequence:
#
# PCOD9413815 Si02
#       4
#     4   4   4   8
#     4  12  24  46  74 108 148 196 260 312 384 460
#     4  12  24  46  78 114 150 200 256 316 390 450
#     4  12  26  48  80 110 156 202 252 330 384 456
#     4  12  26  50  73 110 155 203 261 313 381 468
#
# _framework density 22.4941
#
# number of rings (size 3 to 8) (size 9 to 14) (size 15 to 20)
#    0.000    0.000    6.000    4.800    0.000    1.600 
#    0.000    0.000    0.000    0.000    0.000    0.000 
#    0.000    0.000    0.000    0.000    0.000    0.000 
#
# Total GULP energy -111335.492279 kJ/mol
# GULP energy per Si atom -5566.774614 kJ/mol
# Density = 2.244290 g / cm^3
# Si number density = 22.494100 Si / 1000 Ang^3
#
#
#
# Elastic Constant Matrix: (Units=GPa)
#
#
# Indices 1 2 3 4 5 6 
#
# 1 81.7437 38.0991 18.9820 0.0000 0.0000 0.0000
# 2 38.0991 156.5993 54.8857 0.0000 0.0000 0.0000
# 3 18.9820 54.8857 84.0622 0.0000 0.0000 0.0000
# 4 0.0000 0.0000 0.0000 27.2480 0.0000 0.0000
# 5 0.0000 0.0000 0.0000 0.0000 252.0391 0.0000
# 6 0.0000 0.0000 0.0000 0.0000 0.0000 17.4161
#
#
#
# Elastic Compliance Matrix: (Units=1/GPa)
#
#
# Indices 1 2 3 4 5 6 
#
# 1 0.013892 -0.002957 -0.001206 0.000000 0.000000 0.000000
# 2 -0.002957 0.008910 -0.005150 0.000000 0.000000 0.000000
# 3 -0.001206 -0.005150 0.015531 0.000000 0.000000 0.000000
# 4 0.000000 0.000000 0.000000 0.036700 0.000000 0.000000
# 5 0.000000 0.000000 0.000000 0.000000 0.003968 0.000000
# 6 0.000000 0.000000 0.000000 0.000000 0.000000 0.057418
#
#
# Mechanical properties :
#
#
# Convention : Reuss Voigt Hill
#
# Bulk Modulus (GPa) = 50.74480 60.70432 55.72456
# Shear Modulus (GPa) = 30.93812 73.36987 52.15400
#
# Velocity S-wave (km/s) = 3.71265 5.71736 4.82037
# Velocity P-wave (km/s) = 6.40207 8.40414 7.47048
#
# Compressibility (1/GPa) = 0.01970645
#
# Stress axis : x y z
#
# Youngs Moduli (GPa) = 71.98581 112.23271 64.38835
#
# Poissons Ratio (x) = 0.33186 0.07767
# Poissons Ratio (y) = 0.21286 0.33159
# Poissons Ratio (z) = 0.08683 0.57798
#
# Static dielectric constant tensor:
#      x y z
#    x 1.817480 0.000000 0.000000 
#    y 0.000000 1.817880 0.000000 
#    z 0.000000 0.000000 2.918840 
# 
# From -- ./inp_files/29864.got.cif
#   From: 2010.05.17/outbox.cif.g08.bks.cpg/sg52_15_cif.got.tgz:29864.got - 2010.06.03 12:15:38.
