data_PCOD9413771
_publ_section_title
;
Structure prediction by ZEFSAII (Michael W. Deem and Ramdas Pophale) SiO2 
 PCOD9413771
Probable space group: P N N A
;
_chemical_formula_sum "Si O2"
_cell_formula_units_Z 32
_cell_length_a 19.168521
_cell_length_b 12.827210
_cell_length_c 5.911985
_cell_angle_alpha 90.000000
_cell_angle_beta 90.000000
_cell_angle_gamma 90.000000
_cell_volume 1453.630857
_symmetry_space_group_name_H-M "P N N A"
_symmetry_group_IT_number 52
_symmetry_cell_setting 'orthorhombic'
loop_
_space_group_symop_operation_xyz
x,y,z
1/2-x,-y,z
x,1/2-y,1/2-z
1/2-x,1/2+y,1/2-z
-x,-y,-z
1/2+x,y,-z
-x,1/2+y,1/2+z
1/2+x,1/2-y,1/2+z
loop_
_atom_site_type_symbol
_atom_site_label
_atom_site_fract_x
_atom_site_fract_y
_atom_site_fract_z
Si Si1 0.666911 0.129023 0.762911
Si Si2 0.534639 0.522299 0.749607
Si Si3 0.095875 0.750000 0.250000
Si Si4 0.789678 0.335771 0.083886
Si Si5 0.750000 0.500000 0.376459
O O1 0.642600 0.250000 0.750000
O O2 0.728920 0.127762 0.580807
O O3 0.604020 0.048919 0.734425
O O4 0.707946 0.084380 0.979671
O O5 0.500000 0.500000 0.500000
O O6 0.551841 0.645172 0.728000
O O7 0.500000 0.500000 0.000000
O O8 0.147803 0.779310 0.455488
O O9 0.759602 0.250000 0.250000
O O10 0.806913 0.437113 0.229970
#
# Coordination Sequence:
#
# PCOD9413771 Si02
#       5
#     8   8   4   8   4
#     4  12  26  49  77 120 155 198 269 330 402 477
#     4  12  33  54  82 113 160 227 272 323 390 489
#     4  12  28  54  78 116 164 204 276 334 416 478
#     4  12  23  44  81 115 153 202 245 344 415 479
#     4  12  24  44  78 120 158 198 254 332 430 476
#
# _framework density 22.013839999999998
#
# number of rings (size 3 to 8) (size 9 to 14) (size 15 to 20)
#    0.000    0.000    3.750    5.250   14.000    0.000 
#    0.000    0.000    0.000    0.000    0.000    0.000 
#    0.000    0.000    0.000    0.000    0.000    0.000 
#
# Total GULP energy -178484.951973 kJ/mol
# GULP energy per Si atom -5577.654749 kJ/mol
# Density = 2.196374 g / cm^3
# Si number density = 22.013840 Si / 1000 Ang^3
#
#
#
# Elastic Constant Matrix: (Units=GPa)
#
#
# Indices 1 2 3 4 5 6 
#
# 1 93.2756 69.0579 68.3918 0.0000 0.0000 0.0000
# 2 69.0579 238.8682 99.0803 0.0000 0.0000 0.0000
# 3 68.3918 99.0803 167.2967 0.0000 0.0000 0.0000
# 4 0.0000 0.0000 0.0000 55.0989 0.0000 0.0000
# 5 0.0000 0.0000 0.0000 0.0000 -9.9973 0.0000
# 6 0.0000 0.0000 0.0000 0.0000 0.0000 54.0315
#
#
#
# Elastic Compliance Matrix: (Units=1/GPa)
#
#
# Indices 1 2 3 4 5 6 
#
# 1 0.016450 -0.002607 -0.005181 0.000000 0.000000 0.000000
# 2 -0.002607 0.005963 -0.002466 0.000000 0.000000 0.000000
# 3 -0.005181 -0.002466 0.009556 0.000000 0.000000 0.000000
# 4 0.000000 0.000000 0.000000 0.018149 0.000000 0.000000
# 5 0.000000 0.000000 0.000000 0.000000 -0.100027 0.000000
# 6 0.000000 0.000000 0.000000 0.000000 0.000000 0.018508
#
#
# Mechanical properties :
#
#
# Convention : Reuss Voigt Hill
#
# Bulk Modulus (GPa) = 87.24961 108.05561 97.65261
# Shear Modulus (GPa) = -706.70753 37.35399 -334.67677
#
# Velocity S-wave (km/s) = -17.93671 4.12374 -12.34343
# Velocity P-wave (km/s) = 19.72936 8.47735 12.59726
#
# Compressibility (1/GPa) = 0.01146137
#
# Stress axis : x y z
#
# Youngs Moduli (GPa) = 60.79195 167.70650 104.64911
#
# Poissons Ratio (x) = 0.43715 0.54218
# Poissons Ratio (y) = 0.15846 0.25804
# Poissons Ratio (z) = 0.31496 0.41353
#
# Static dielectric constant tensor:
#      x y z
#    x 1.816210 0.000000 0.000000 
#    y 0.000000 1.812100 0.000000 
#    z 0.000000 0.000000 1.844140 
# 
# From -- ./inp_files/3974.got.cif
#   From: 2010.05.17/outbox.cif.g08.bks.cpg/sg52_2_cif.got.tgz:3974.got - 2010.06.03 12:15:38.
