data_PCOD9413587
_publ_section_title
;
Structure prediction by ZEFSAII (Michael W. Deem and Ramdas Pophale) SiO2 
 PCOD9413587
Probable space group: P N N A
;
_chemical_formula_sum "Si O2"
_cell_formula_units_Z 24
_cell_length_a 14.325940
_cell_length_b 4.920877
_cell_length_c 13.320053
_cell_angle_alpha 90.000000
_cell_angle_beta 90.000000
_cell_angle_gamma 90.000000
_cell_volume 939.012969
_symmetry_space_group_name_H-M "P N N A"
_symmetry_group_IT_number 52
_symmetry_cell_setting 'orthorhombic'
loop_
_space_group_symop_operation_xyz
x,y,z
1/2-x,-y,z
x,1/2-y,1/2-z
1/2-x,1/2+y,1/2-z
-x,-y,-z
1/2+x,y,-z
-x,1/2+y,1/2+z
1/2+x,1/2-y,1/2+z
loop_
_atom_site_type_symbol
_atom_site_label
_atom_site_fract_x
_atom_site_fract_y
_atom_site_fract_z
Si Si1 0.950130 0.051906 0.845718
Si Si2 0.158044 0.352544 0.639395
Si Si3 0.858558 0.965852 0.558481
O O1 0.929972 0.250000 0.750000
O O2 0.915368 0.255831 0.932182
O O3 0.060247 0.994339 0.845998
O O4 0.899104 0.769764 0.868901
O O5 0.250000 0.500000 0.599473
O O6 0.183343 0.250000 0.750000
O O7 0.136538 0.126499 0.556786
O O8 0.750000 0.000000 0.585564
#
# Coordination Sequence:
#
# PCOD9413587 Si02
#       3
#     8   8   8
#     4  11  26  47  74 103 141 186 234 287 347 414
#     4  11  25  45  73 107 141 182 233 292 353 416
#     4  12  25  46  72 104 142 186 232 287 347 414
#
# _framework density 25.558751000000001
#
# number of rings (size 3 to 8) (size 9 to 14) (size 15 to 20)
#    0.000    0.667    0.000    7.000    0.000   10.667 
#    0.000    1.667    0.000    0.000    0.000    0.000 
#    0.000    0.000    0.000    0.000    0.000    0.000 
#
# Total GULP energy -134530.404131 kJ/mol
# GULP energy per Si atom -5605.433505 kJ/mol
# Density = 2.550058 g / cm^3
# Si number density = 25.558751 Si / 1000 Ang^3
#
#
#
# Elastic Constant Matrix: (Units=GPa)
#
#
# Indices 1 2 3 4 5 6 
#
# 1 154.4977 52.8440 -10.7892 0.0000 0.0000 0.0000
# 2 52.8440 131.6300 16.0879 0.0000 0.0000 0.0000
# 3 -10.7892 16.0879 93.6621 0.0000 0.0000 0.0000
# 4 0.0000 0.0000 0.0000 42.5501 0.0000 0.0000
# 5 0.0000 0.0000 0.0000 0.0000 56.4550 0.0000
# 6 0.0000 0.0000 0.0000 0.0000 0.0000 34.1491
#
#
#
# Elastic Compliance Matrix: (Units=1/GPa)
#
#
# Indices 1 2 3 4 5 6 
#
# 1 0.007690 -0.003264 0.001446 0.000000 0.000000 0.000000
# 2 -0.003264 0.009145 -0.001947 0.000000 0.000000 0.000000
# 3 0.001446 -0.001947 0.011178 0.000000 0.000000 0.000000
# 4 0.000000 0.000000 0.000000 0.023502 0.000000 0.000000
# 5 0.000000 0.000000 0.000000 0.000000 0.017713 0.000000
# 6 0.000000 0.000000 0.000000 0.000000 0.000000 0.029283
#
#
# Mechanical properties :
#
#
# Convention : Reuss Voigt Hill
#
# Bulk Modulus (GPa) = 48.81782 55.11946 51.96864
# Shear Modulus (GPa) = 44.29944 48.07398 46.18671
#
# Velocity S-wave (km/s) = 4.16774 4.34166 4.25559
# Velocity P-wave (km/s) = 6.50398 6.83710 6.67262
#
# Compressibility (1/GPa) = 0.02048432
#
# Stress axis : x y z
#
# Youngs Moduli (GPa) = 130.03874 109.34501 89.46379
#
# Poissons Ratio (x) = 0.35690 -0.12941
# Poissons Ratio (y) = 0.42445 0.17417
# Poissons Ratio (z) = -0.18810 0.21288
#
# Static dielectric constant tensor:
#      x y z
#    x 1.948260 0.000000 0.000000 
#    y 0.000000 2.010020 0.000000 
#    z 0.000000 0.000000 2.070340 
# 
# From -- ./inp_files/26468.got.cif
#   From: 2010.05.17/outbox.cif.g08.bks.cpg/sg52_14_cif.got.tgz:26468.got - 2010.06.03 12:15:38.
