data_PCOD9413131
_publ_section_title
;
Structure prediction by ZEFSAII (Michael W. Deem and Ramdas Pophale) SiO2 
 PCOD9413131
Probable space group: P N N A
;
_chemical_formula_sum "Si O2"
_cell_formula_units_Z 48
_cell_length_a 8.799175
_cell_length_b 9.203657
_cell_length_c 30.006841
_cell_angle_alpha 90.000000
_cell_angle_beta 90.000000
_cell_angle_gamma 90.000000
_cell_volume 2430.091673
_symmetry_space_group_name_H-M "P N N A"
_symmetry_group_IT_number 52
_symmetry_cell_setting 'orthorhombic'
loop_
_space_group_symop_operation_xyz
x,y,z
1/2-x,-y,z
x,1/2-y,1/2-z
1/2-x,1/2+y,1/2-z
-x,-y,-z
1/2+x,y,-z
-x,1/2+y,1/2+z
1/2+x,1/2-y,1/2+z
loop_
_atom_site_type_symbol
_atom_site_label
_atom_site_fract_x
_atom_site_fract_y
_atom_site_fract_z
Si Si1 0.824011 0.660812 0.361610
Si Si2 0.668267 0.847593 0.889126
Si Si3 0.345463 0.144667 0.709806
Si Si4 0.893908 0.892795 0.637408
Si Si5 0.622565 0.620942 0.510083
Si Si6 0.654191 0.856235 0.434451
O O1 0.750000 0.500000 0.361542
O O2 0.765655 0.754707 0.319995
O O3 0.757428 0.752260 0.403136
O O4 0.006267 0.652409 0.364412
O O5 0.800132 0.754939 0.866306
O O6 0.630141 0.810329 0.940587
O O7 0.750000 0.000000 0.892224
O O8 0.393555 0.250000 0.750000
O O9 0.490456 0.100804 0.679174
O O10 0.250000 0.000000 0.722709
O O11 0.005917 0.902448 0.594482
O O12 0.750000 0.000000 0.638237
O O13 0.750000 0.500000 0.504471
O O14 0.500000 0.500000 0.500000
O O15 0.614254 0.754266 0.475940
O O16 0.750000 0.000000 0.445988
#
# Coordination Sequence:
#
# PCOD9413131 Si02
#       6
#     8   8   8   8   8   8
#     4  11  21  40  66  91 123 166 209 251 307 380
#     4  11  22  37  60  91 125 165 211 262 318 367
#     4  11  24  45  70  96 123 159 204 251 310 388
#     4  11  23  42  63  90 128 161 200 260 322 372
#     4  11  22  38  58  86 125 169 219 271 314 370
#     4  11  22  38  61  88 121 170 221 263 311 373
#
# _framework density 19.752341000000001
#
# number of rings (size 3 to 8) (size 9 to 14) (size 15 to 20)
#    0.000    1.000    0.000   11.000    0.000    0.667 
#    0.000   10.833    0.000    1.000    0.000    0.000 
#    0.000    0.000    0.000    0.000    0.000    0.000 
#
# Total GULP energy -267541.832064 kJ/mol
# GULP energy per Si atom -5573.788168 kJ/mol
# Density = 1.970738 g / cm^3
# Si number density = 19.752341 Si / 1000 Ang^3
#
#
#
# Elastic Constant Matrix: (Units=GPa)
#
#
# Indices 1 2 3 4 5 6 
#
# 1 193.3986 62.8896 81.0224 0.0000 0.0000 0.0000
# 2 62.8896 160.6363 92.7118 0.0000 0.0000 0.0000
# 3 81.0224 92.7118 140.9138 0.0000 0.0000 0.0000
# 4 0.0000 0.0000 0.0000 32.1650 0.0000 0.0000
# 5 0.0000 0.0000 0.0000 0.0000 13.0550 0.0000
# 6 0.0000 0.0000 0.0000 0.0000 0.0000 44.2008
#
#
#
# Elastic Compliance Matrix: (Units=1/GPa)
#
#
# Indices 1 2 3 4 5 6 
#
# 1 0.006854 -0.000659 -0.003507 0.000000 0.000000 0.000000
# 2 -0.000659 0.010100 -0.006266 0.000000 0.000000 0.000000
# 3 -0.003507 -0.006266 0.013236 0.000000 0.000000 0.000000
# 4 0.000000 0.000000 0.000000 0.031090 0.000000 0.000000
# 5 0.000000 0.000000 0.000000 0.000000 0.076599 0.000000
# 6 0.000000 0.000000 0.000000 0.000000 0.000000 0.022624
#
#
# Mechanical properties :
#
#
# Convention : Reuss Voigt Hill
#
# Bulk Modulus (GPa) = 107.24049 107.57736 107.40893
# Shear Modulus (GPa) = 27.10376 35.10580 31.10478
#
# Velocity S-wave (km/s) = 3.70831 4.22037 3.97260
# Velocity P-wave (km/s) = 8.52912 8.85043 8.69126
#
# Compressibility (1/GPa) = 0.00932484
#
# Stress axis : x y z
#
# Youngs Moduli (GPa) = 145.89094 99.01269 75.55277
#
# Poissons Ratio (x) = 0.06527 0.26500
# Poissons Ratio (y) = 0.09617 0.47341
# Poissons Ratio (z) = 0.51170 0.62040
#
# Static dielectric constant tensor:
#      x y z
#    x 1.650390 0.000000 0.000000 
#    y 0.000000 1.635080 0.000000 
#    z 0.000000 0.000000 1.729070 
# 
# From -- ./inp_files/44343.got.cif
#   From: 2010.05.17/outbox.cif.g08.bks.cpg/sg52_23_cif.got.tgz:44343.got - 2010.06.03 12:15:38.
