data_PCOD9413660
_publ_section_title
;
Structure prediction by ZEFSAII (Michael W. Deem and Ramdas Pophale) SiO2 
 PCOD9413660
Probable space group: P N N A
;
_chemical_formula_sum "Si O2"
_cell_formula_units_Z 28
_cell_length_a 13.446762
_cell_length_b 9.005998
_cell_length_c 7.554989
_cell_angle_alpha 90.000000
_cell_angle_beta 90.000000
_cell_angle_gamma 90.000000
_cell_volume 914.920589
_symmetry_space_group_name_H-M "P N N A"
_symmetry_group_IT_number 52
_symmetry_cell_setting 'orthorhombic'
loop_
_space_group_symop_operation_xyz
x,y,z
1/2-x,-y,z
x,1/2-y,1/2-z
1/2-x,1/2+y,1/2-z
-x,-y,-z
1/2+x,y,-z
-x,1/2+y,1/2+z
1/2+x,1/2-y,1/2+z
loop_
_atom_site_type_symbol
_atom_site_label
_atom_site_fract_x
_atom_site_fract_y
_atom_site_fract_z
Si Si1 0.250000 0.000000 0.166818
Si Si2 0.912879 0.571379 0.990807
Si Si3 0.289470 0.281543 0.938981
Si Si4 0.970607 0.900898 0.828920
O O1 0.352495 0.919044 0.232127
O O2 0.206288 0.867359 0.049179
O O3 0.969926 0.730528 0.905740
O O4 0.012653 0.492532 0.841263
O O5 0.822704 0.664408 0.085824
O O6 0.845715 0.413988 0.970644
O O7 0.337055 0.250000 0.750000
O O8 0.000000 0.000000 0.000000
#
# Coordination Sequence:
#
# PCOD9413660 Si02
#       4
#     4   8   8   8
#     4  12  26  48  82 110 172 216 302 356 468 536
#     4  11  27  49  79 119 170 219 295 362 461 550
#     4  11  26  49  82 122 168 228 292 375 460 553
#     4  12  30  53  84 126 174 236 305 382 469 560
#
# _framework density 30.603748
#
# number of rings (size 3 to 8) (size 9 to 14) (size 15 to 20)
#    0.000    0.571    2.857    3.429   12.000    0.000 
#    0.000    0.000    0.000    0.000    0.000    0.000 
#    0.000    0.000    0.000    0.000    0.000    0.000 
#
# Total GULP energy -155963.174812 kJ/mol
# GULP energy per Si atom -5570.113386 kJ/mol
# Density = 3.053409 g / cm^3
# Si number density = 30.603748 Si / 1000 Ang^3
#
#
#
# Elastic Constant Matrix: (Units=GPa)
#
#
# Indices 1 2 3 4 5 6 
#
# 1 228.1828 80.8498 3.1557 0.0000 0.0000 0.0000
# 2 80.8498 324.3498 119.5366 0.0000 0.0000 0.0000
# 3 3.1557 119.5366 180.3224 0.0000 0.0000 0.0000
# 4 0.0000 0.0000 0.0000 39.8978 0.0000 0.0000
# 5 0.0000 0.0000 0.0000 0.0000 -42.4707 0.0000
# 6 0.0000 0.0000 0.0000 0.0000 0.0000 85.4394
#
#
#
# Elastic Compliance Matrix: (Units=1/GPa)
#
#
# Indices 1 2 3 4 5 6 
#
# 1 0.004930 -0.001584 0.000964 0.000000 0.000000 0.000000
# 2 -0.001584 0.004589 -0.003014 0.000000 0.000000 0.000000
# 3 0.000964 -0.003014 0.007527 0.000000 0.000000 0.000000
# 4 0.000000 0.000000 0.000000 0.025064 0.000000 0.000000
# 5 0.000000 0.000000 0.000000 0.000000 -0.023546 0.000000
# 6 0.000000 0.000000 0.000000 0.000000 0.000000 0.011704
#
#
# Mechanical properties :
#
#
# Convention : Reuss Voigt Hill
#
# Bulk Modulus (GPa) = 102.28010 126.65991 114.47000
# Shear Modulus (GPa) = 122.55801 51.86084 87.20942
#
# Velocity S-wave (km/s) = 6.33511 4.12101 5.34399
# Velocity P-wave (km/s) = 9.32764 8.00753 8.69268
#
# Compressibility (1/GPa) = 0.00977707
#
# Stress axis : x y z
#
# Youngs Moduli (GPa) = 202.82119 217.91826 132.85635
#
# Poissons Ratio (x) = 0.34524 -0.12806
# Poissons Ratio (y) = 0.32132 0.40046
# Poissons Ratio (z) = -0.19550 0.65686
#
# Static dielectric constant tensor:
#      x y z
#    x 3.048380 0.000000 0.000000 
#    y 0.000000 2.276280 0.000000 
#    z 0.000000 0.000000 3.209050 
# 
# From -- ./inp_files/11370.got.cif
#   From: 2010.05.17/outbox.cif.g08.bks.cpg/sg52_6_cif.got.tgz:11370.got - 2010.06.03 12:15:38.
