data_PCOD9413175
_publ_section_title
;
Structure prediction by ZEFSAII (Michael W. Deem and Ramdas Pophale) SiO2 
 PCOD9413175
Probable space group: P N N A
;
_chemical_formula_sum "Si O2"
_cell_formula_units_Z 56
_cell_length_a 14.032031
_cell_length_b 12.023261
_cell_length_c 15.250496
_cell_angle_alpha 90.000000
_cell_angle_beta 90.000000
_cell_angle_gamma 90.000000
_cell_volume 2572.922939
_symmetry_space_group_name_H-M "P N N A"
_symmetry_group_IT_number 52
_symmetry_cell_setting 'orthorhombic'
loop_
_space_group_symop_operation_xyz
x,y,z
1/2-x,-y,z
x,1/2-y,1/2-z
1/2-x,1/2+y,1/2-z
-x,-y,-z
1/2+x,y,-z
-x,1/2+y,1/2+z
1/2+x,1/2-y,1/2+z
loop_
_atom_site_type_symbol
_atom_site_label
_atom_site_fract_x
_atom_site_fract_y
_atom_site_fract_z
Si Si1 0.089610 0.476085 0.445230
Si Si2 0.750000 0.000000 0.501784
Si Si3 0.373771 0.881717 0.644957
Si Si4 0.308255 0.301923 0.387806
Si Si5 0.220696 0.172634 0.929833
Si Si6 0.750000 0.500000 0.293533
Si Si7 0.882245 0.868743 0.782548
Si Si8 0.099857 0.574263 0.147267
O O1 0.130863 0.587721 0.403077
O O2 0.161217 0.413369 0.510167
O O3 0.055872 0.401248 0.365199
O O4 0.000000 0.500000 0.500000
O O5 0.811324 0.926570 0.435326
O O6 0.665165 0.959259 0.565006
O O7 0.348299 0.751072 0.629463
O O8 0.329668 0.943893 0.730399
O O9 0.485757 0.910437 0.637031
O O10 0.278205 0.269889 0.488974
O O11 0.219912 0.342629 0.328211
O O12 0.359750 0.199508 0.339940
O O13 0.280392 0.100199 0.859491
O O14 0.916212 0.750000 0.750000
O O15 0.881282 0.972071 0.715350
#
# Coordination Sequence:
#
# PCOD9413175 Si02
#       8
#     8   4   8   8   8   4   8   8
#     4  11  25  44  72 107 149 196 257 309 381 463
#     4  11  24  48  71 102 156 194 233 320 394 449
#     4  11  26  46  74 113 143 200 260 310 387 458
#     4  11  24  45  76 105 146 208 240 312 389 451
#     4  11  21  47  74  99 149 198 250 310 386 454
#     4  11  24  46  73 100 152 194 253 322 370 453
#     4  11  27  45  73 112 151 198 250 310 388 447
#     4  12  26  47  78 111 154 194 260 316 373 465
#
# _framework density 21.765129999999999
#
# number of rings (size 3 to 8) (size 9 to 14) (size 15 to 20)
#    0.000    0.857    2.857    3.857   10.000    0.000 
#    5.143    2.857    0.000    0.000    0.000    0.000 
#    0.000    0.000    0.000    0.000    0.000    0.000 
#
# Total GULP energy -311969.681040 kJ/mol
# GULP energy per Si atom -5570.887161 kJ/mol
# Density = 2.171559 g / cm^3
# Si number density = 21.765130 Si / 1000 Ang^3
#
#
#
# Elastic Constant Matrix: (Units=GPa)
#
#
# Indices 1 2 3 4 5 6 
#
# 1 82.4877 56.1427 50.9762 0.0000 0.0000 0.0000
# 2 56.1427 153.0499 91.3631 0.0000 0.0000 0.0000
# 3 50.9762 91.3631 149.7497 0.0000 0.0000 0.0000
# 4 0.0000 0.0000 0.0000 108.3692 0.0000 0.0000
# 5 0.0000 0.0000 0.0000 0.0000 24.9640 0.0000
# 6 0.0000 0.0000 0.0000 0.0000 0.0000 14.7271
#
#
#
# Elastic Compliance Matrix: (Units=1/GPa)
#
#
# Indices 1 2 3 4 5 6 
#
# 1 0.017039 -0.004385 -0.003125 0.000000 0.000000 0.000000
# 2 -0.004385 0.011405 -0.005466 0.000000 0.000000 0.000000
# 3 -0.003125 -0.005466 0.011076 0.000000 0.000000 0.000000
# 4 0.000000 0.000000 0.000000 0.009228 0.000000 0.000000
# 5 0.000000 0.000000 0.000000 0.000000 0.040058 0.000000
# 6 0.000000 0.000000 0.000000 0.000000 0.000000 0.067902
#
#
# Mechanical properties :
#
#
# Convention : Reuss Voigt Hill
#
# Bulk Modulus (GPa) = 73.69698 86.91679 80.30689
# Shear Modulus (GPa) = 26.71219 42.06576 34.38898
#
# Velocity S-wave (km/s) = 3.50707 4.40103 3.97924
# Velocity P-wave (km/s) = 7.09458 8.11456 7.62165
#
# Compressibility (1/GPa) = 0.01356908
#
# Stress axis : x y z
#
# Youngs Moduli (GPa) = 58.69059 87.68115 90.28406
#
# Poissons Ratio (x) = 0.38446 0.28213
# Poissons Ratio (y) = 0.25734 0.49346
# Poissons Ratio (z) = 0.18340 0.47923
#
# Static dielectric constant tensor:
#      x y z
#    x 1.791920 0.000000 0.000000 
#    y 0.000000 1.850010 0.000000 
#    z 0.000000 0.000000 1.847570 
# 
# From -- ./inp_files/27332.got.cif
#   From: 2010.05.17/outbox.cif.g08.bks.cpg/sg52_14_cif.got.tgz:27332.got - 2010.06.03 12:15:38.
