data_PCOD9413973
_publ_section_title
;
Structure prediction by ZEFSAII (Michael W. Deem and Ramdas Pophale) SiO2 
 PCOD9413973
Probable space group: P N N A
;
_chemical_formula_sum "Si O2"
_cell_formula_units_Z 36
_cell_length_a 12.000000
_cell_length_b 6.000000
_cell_length_c 24.000000
_cell_angle_alpha 90.000000
_cell_angle_beta 90.000000
_cell_angle_gamma 90.000000
_cell_volume 1728.000000
_symmetry_space_group_name_H-M "P N N A"
_symmetry_group_IT_number 52
_symmetry_cell_setting 'orthorhombic'
loop_
_space_group_symop_operation_xyz
x,y,z
1/2-x,-y,z
x,1/2-y,1/2-z
1/2-x,1/2+y,1/2-z
-x,-y,-z
1/2+x,y,-z
-x,1/2+y,1/2+z
1/2+x,1/2-y,1/2+z
loop_
_atom_site_type_symbol
_atom_site_label
_atom_site_fract_x
_atom_site_fract_y
_atom_site_fract_z
Si Si1 0.060648 0.324313 0.879368
Si Si2 0.750000 0.000000 0.110141
Si Si3 0.615131 0.997979 0.272373
Si Si4 0.620703 0.952743 0.928745
Si Si5 0.427016 0.214081 0.541308
O O1 0.167080 0.174229 0.861903
O O2 0.058953 0.510673 0.833112
O O3 0.078373 0.459588 0.937362
O O4 0.953061 0.168233 0.881743
O O5 0.664621 0.852131 0.075441
O O6 0.580854 0.250000 0.250000
O O7 0.750000 0.000000 0.272431
O O8 0.585705 0.750000 0.250000
O O9 0.750000 0.000000 0.917337
O O10 0.547614 0.170143 0.946971
O O11 0.610611 0.775109 0.979222
#
# Coordination Sequence:
#
# PCOD9413973 Si02
#       5
#     8   4   8   8   8
#     4  11  23  37  63  91 127 171 211 264 330 393
#     4  10  20  34  60  86 128 162 208 258 316 386
#     4  10  23  39  64  97 132 164 207 272 339 403
#     4  10  22  39  58  90 128 169 220 262 311 384
#     4  10  20  37  58  88 125 170 210 260 316 377
#
# _framework density 20.833333
#
# number of rings (size 3 to 8) (size 9 to 14) (size 15 to 20)
#    0.000    1.778    1.111    2.667   10.889    0.889 
#    4.000    0.000    0.000    0.000    5.778    0.000 
#    0.000    0.000    0.000    0.000    0.000    0.000 
#
# Total GULP energy -200503.157166 kJ/mol
# GULP energy per Si atom -5569.532144 kJ/mol
# Density = 2.078592 g / cm^3
# Si number density = 20.833333 Si / 1000 Ang^3
#
#
#
# Elastic Constant Matrix: (Units=GPa)
#
#
# Indices 1 2 3 4 5 6 
#
# 1 137.7284 38.0531 29.0632 0.0000 0.0000 0.0000
# 2 38.0531 118.0886 36.6842 0.0000 0.0000 0.0000
# 3 29.0632 36.6842 65.7982 0.0000 0.0000 0.0000
# 4 0.0000 0.0000 0.0000 29.9086 0.0000 0.0000
# 5 0.0000 0.0000 0.0000 0.0000 2.2425 0.0000
# 6 0.0000 0.0000 0.0000 0.0000 0.0000 18.7055
#
#
#
# Elastic Compliance Matrix: (Units=1/GPa)
#
#
# Indices 1 2 3 4 5 6 
#
# 1 0.008333 -0.001865 -0.002641 0.000000 0.000000 0.000000
# 2 -0.001865 0.010659 -0.005119 0.000000 0.000000 0.000000
# 3 -0.002641 -0.005119 0.019219 0.000000 0.000000 0.000000
# 4 0.000000 0.000000 0.000000 0.033435 0.000000 0.000000
# 5 0.000000 0.000000 0.000000 0.000000 0.445934 0.000000
# 6 0.000000 0.000000 0.000000 0.000000 0.000000 0.053460
#
#
# Mechanical properties :
#
#
# Convention : Reuss Voigt Hill
#
# Bulk Modulus (GPa) = 52.73981 58.80178 55.77079
# Shear Modulus (GPa) = 8.38066 24.69230 16.53648
#
# Velocity S-wave (km/s) = 2.00785 3.44645 2.82042
# Velocity P-wave (km/s) = 5.54485 6.64255 6.11837
#
# Compressibility (1/GPa) = 0.01896101
#
# Stress axis : x y z
#
# Youngs Moduli (GPa) = 120.00144 93.81368 52.03277
#
# Poissons Ratio (x) = 0.17495 0.13742
# Poissons Ratio (y) = 0.22379 0.26637
# Poissons Ratio (z) = 0.31694 0.48025
#
# Static dielectric constant tensor:
#      x y z
#    x 1.697910 0.000000 0.000000 
#    y 0.000000 1.809700 0.000000 
#    z 0.000000 0.000000 1.914060 
# 
# From -- ./inp_files/39912.got.cif
#   From: 2010.05.17/outbox.ucp.g08.bks.cvg/sg52_20_cif.got.tgz:39912.got - 2010.06.11 16:30:12.
