data_PCOD9413024
_publ_section_title
;
Structure prediction by ZEFSAII (Michael W. Deem and Ramdas Pophale) SiO2 
 PCOD9413024
Probable space group: P N N A
;
_chemical_formula_sum "Si O2"
_cell_formula_units_Z 36
_cell_length_a 21.659472
_cell_length_b 8.176193
_cell_length_c 11.719724
_cell_angle_alpha 90.000000
_cell_angle_beta 90.000000
_cell_angle_gamma 90.000000
_cell_volume 2075.469636
_symmetry_space_group_name_H-M "P N N A"
_symmetry_group_IT_number 52
_symmetry_cell_setting 'orthorhombic'
loop_
_space_group_symop_operation_xyz
x,y,z
1/2-x,-y,z
x,1/2-y,1/2-z
1/2-x,1/2+y,1/2-z
-x,-y,-z
1/2+x,y,-z
-x,1/2+y,1/2+z
1/2+x,1/2-y,1/2+z
loop_
_atom_site_type_symbol
_atom_site_label
_atom_site_fract_x
_atom_site_fract_y
_atom_site_fract_z
Si Si1 0.319230 0.568453 0.692187
Si Si2 0.914128 0.587410 0.488079
Si Si3 0.471431 0.416039 0.317771
Si Si4 0.990412 0.631360 0.898988
Si Si5 0.901025 0.250000 0.250000
O O1 0.250000 0.500000 0.694511
O O2 0.324345 0.750000 0.750000
O O3 0.347206 0.594313 0.565943
O O4 0.360273 0.415808 0.740992
O O5 0.923744 0.444453 0.579993
O O6 0.962683 0.578172 0.382566
O O7 0.939435 0.744244 0.555399
O O8 0.464530 0.250000 0.250000
O O9 0.468978 0.549265 0.218506
O O10 0.054132 0.719461 0.859572
O O11 0.000000 0.500000 0.000000
#
# Coordination Sequence:
#
# PCOD9413024 Si02
#       5
#     8   8   8   8   4
#     4  12  25  43  63  90 127 173 221 268 318 391
#     4  11  21  37  57  89 128 159 204 260 323 381
#     4  11  20  34  56  91 126 159 201 256 325 381
#     4  12  21  34  61  96 127 163 201 261 331 388
#     4  12  22  42  64  94 134 162 212 264 326 378
#
# _framework density 17.345472000000001
#
# number of rings (size 3 to 8) (size 9 to 14) (size 15 to 20)
#    0.000    0.444    7.778    3.333    0.000    0.000 
#    0.000    0.000    0.000    2.667    0.000    0.000 
#    0.000    0.000    0.000    0.000    0.000    0.000 
#
# Total GULP energy -200687.862341 kJ/mol
# GULP energy per Si atom -5574.662843 kJ/mol
# Density = 1.730599 g / cm^3
# Si number density = 17.345472 Si / 1000 Ang^3
#
#
#
# Elastic Constant Matrix: (Units=GPa)
#
#
# Indices 1 2 3 4 5 6 
#
# 1 60.7237 54.7673 33.3144 0.0000 0.0000 0.0000
# 2 54.7673 148.0945 66.9400 0.0000 0.0000 0.0000
# 3 33.3144 66.9400 126.4430 0.0000 0.0000 0.0000
# 4 0.0000 0.0000 0.0000 58.6533 0.0000 0.0000
# 5 0.0000 0.0000 0.0000 0.0000 21.6066 0.0000
# 6 0.0000 0.0000 0.0000 0.0000 0.0000 24.6632
#
#
#
# Elastic Compliance Matrix: (Units=1/GPa)
#
#
# Indices 1 2 3 4 5 6 
#
# 1 0.025184 -0.008300 -0.002241 0.000000 0.000000 0.000000
# 2 -0.008300 0.011612 -0.003961 0.000000 0.000000 0.000000
# 3 -0.002241 -0.003961 0.010596 0.000000 0.000000 0.000000
# 4 0.000000 0.000000 0.000000 0.017049 0.000000 0.000000
# 5 0.000000 0.000000 0.000000 0.000000 0.046282 0.000000
# 6 0.000000 0.000000 0.000000 0.000000 0.000000 0.040546
#
#
# Mechanical properties :
#
#
# Convention : Reuss Voigt Hill
#
# Bulk Modulus (GPa) = 54.38365 71.70050 63.04208
# Shear Modulus (GPa) = 26.82362 33.00058 29.91210
#
# Velocity S-wave (km/s) = 3.93674 4.36655 4.15720
# Velocity P-wave (km/s) = 7.21701 8.17611 7.71148
#
# Compressibility (1/GPa) = 0.01838788
#
# Stress axis : x y z
#
# Youngs Moduli (GPa) = 39.70844 86.11564 94.37537
#
# Poissons Ratio (x) = 0.71478 0.21149
# Poissons Ratio (y) = 0.32959 0.37380
# Poissons Ratio (z) = 0.08898 0.34108
#
# Static dielectric constant tensor:
#      x y z
#    x 1.592780 0.000000 0.000000 
#    y 0.000000 1.705730 0.000000 
#    z 0.000000 0.000000 1.592620 
# 
# From -- ./inp_files/21391.got.cif
#   From: 2010.05.17/outbox.cif.g08.bks.cpg/sg52_11_cif.got.tgz:21391.got - 2010.06.03 12:15:38.
