data_PCOD9413087
_publ_section_title
;
Structure prediction by ZEFSAII (Michael W. Deem and Ramdas Pophale) SiO2 
 PCOD9413087
Probable space group: P N N A
;
_chemical_formula_sum "Si O2"
_cell_formula_units_Z 48
_cell_length_a 9.542764
_cell_length_b 22.173983
_cell_length_c 9.894725
_cell_angle_alpha 90.000000
_cell_angle_beta 90.000000
_cell_angle_gamma 90.000000
_cell_volume 2093.734563
_symmetry_space_group_name_H-M "P N N A"
_symmetry_group_IT_number 52
_symmetry_cell_setting 'orthorhombic'
loop_
_space_group_symop_operation_xyz
x,y,z
1/2-x,-y,z
x,1/2-y,1/2-z
1/2-x,1/2+y,1/2-z
-x,-y,-z
1/2+x,y,-z
-x,1/2+y,1/2+z
1/2+x,1/2-y,1/2+z
loop_
_atom_site_type_symbol
_atom_site_label
_atom_site_fract_x
_atom_site_fract_y
_atom_site_fract_z
Si Si1 0.397981 0.299578 0.146727
Si Si2 0.038450 0.380106 0.366226
Si Si3 0.901927 0.507688 0.324660
Si Si4 0.095872 0.175153 0.404270
Si Si5 0.371944 0.393287 0.380286
Si Si6 0.631164 0.042122 0.476065
O O1 0.450944 0.250000 0.250000
O O2 0.238128 0.287483 0.104634
O O3 0.395315 0.360916 0.235783
O O4 0.488511 0.302066 0.013775
O O5 0.964380 0.440763 0.308678
O O6 0.948021 0.359407 0.495150
O O7 0.036896 0.332258 0.245734
O O8 0.203100 0.394252 0.398084
O O9 0.750000 0.500000 0.397125
O O10 0.858006 0.542839 0.186759
O O11 0.032737 0.546050 0.382015
O O12 0.131716 0.107198 0.457513
O O13 0.750000 0.000000 0.537802
O O14 0.500000 0.000000 0.500000
#
# Coordination Sequence:
#
# PCOD9413087 Si02
#       6
#     8   8   8   8   8   8
#     4  11  27  48  73  99 132 175 233 297 347 397
#     4  11  24  39  66  96 140 184 220 272 337 419
#     4  11  22  36  61  99 141 181 222 263 339 412
#     4  11  24  45  72 102 136 178 230 284 347 412
#     4  11  24  43  63  97 142 181 230 280 340 401
#     4  11  21  34  64 102 139 175 217 271 336 414
#
# _framework density 22.925540999999999
#
# number of rings (size 3 to 8) (size 9 to 14) (size 15 to 20)
#    0.000    1.000    3.333    3.000    4.667    4.000 
#    0.000    0.833    0.000    0.000    0.000    0.000 
#    0.000    0.000    0.000    0.000    0.000    0.000 
#
# Total GULP energy -268225.472271 kJ/mol
# GULP energy per Si atom -5588.030672 kJ/mol
# Density = 2.287336 g / cm^3
# Si number density = 22.925541 Si / 1000 Ang^3
#
#
#
# Elastic Constant Matrix: (Units=GPa)
#
#
# Indices 1 2 3 4 5 6 
#
# 1 167.5629 21.2561 55.0786 0.0000 0.0000 0.0000
# 2 21.2561 25.8117 -1.4884 0.0000 0.0000 0.0000
# 3 55.0786 -1.4884 133.3867 0.0000 0.0000 0.0000
# 4 0.0000 0.0000 0.0000 26.8011 0.0000 0.0000
# 5 0.0000 0.0000 0.0000 0.0000 46.9093 0.0000
# 6 0.0000 0.0000 0.0000 0.0000 0.0000 13.1913
#
#
#
# Elastic Compliance Matrix: (Units=1/GPa)
#
#
# Indices 1 2 3 4 5 6 
#
# 1 0.007919 -0.006714 -0.003345 0.000000 0.000000 0.000000
# 2 -0.006714 0.044460 0.003269 0.000000 0.000000 0.000000
# 3 -0.003345 0.003269 0.008915 0.000000 0.000000 0.000000
# 4 0.000000 0.000000 0.000000 0.037312 0.000000 0.000000
# 5 0.000000 0.000000 0.000000 0.000000 0.021318 0.000000
# 6 0.000000 0.000000 0.000000 0.000000 0.000000 0.075807
#
#
# Mechanical properties :
#
#
# Convention : Reuss Voigt Hill
#
# Bulk Modulus (GPa) = 20.95891 52.93933 36.94912
# Shear Modulus (GPa) = 22.20091 34.17470 28.18781
#
# Velocity S-wave (km/s) = 3.11528 3.86512 3.51028
# Velocity P-wave (km/s) = 4.70127 6.56208 5.70801
#
# Compressibility (1/GPa) = 0.04771241
#
# Stress axis : x y z
#
# Youngs Moduli (GPa) = 126.27631 22.49219 112.17463
#
# Poissons Ratio (x) = 0.15102 0.37522
# Poissons Ratio (y) = 0.84786 -0.36666
# Poissons Ratio (z) = 0.42239 -0.07352
#
# Static dielectric constant tensor:
#      x y z
#    x 1.856550 0.000000 0.000000 
#    y 0.000000 1.895520 0.000000 
#    z 0.000000 0.000000 1.969130 
# 
# From -- ./inp_files/16974.got.cif
#   From: 2010.05.17/outbox.cif.g08.bks.cpg/sg52_9_cif.got.tgz:16974.got - 2010.06.03 12:15:38.
