data_PCOD9413736
_publ_section_title
;
Structure prediction by ZEFSAII (Michael W. Deem and Ramdas Pophale) SiO2 
 PCOD9413736
Probable space group: P N N A
;
_chemical_formula_sum "Si O2"
_cell_formula_units_Z 48
_cell_length_a 19.480206
_cell_length_b 19.189817
_cell_length_c 6.169643
_cell_angle_alpha 90.000000
_cell_angle_beta 90.000000
_cell_angle_gamma 90.000000
_cell_volume 2306.345745
_symmetry_space_group_name_H-M "P N N A"
_symmetry_group_IT_number 52
_symmetry_cell_setting 'orthorhombic'
loop_
_space_group_symop_operation_xyz
x,y,z
1/2-x,-y,z
x,1/2-y,1/2-z
1/2-x,1/2+y,1/2-z
-x,-y,-z
1/2+x,y,-z
-x,1/2+y,1/2+z
1/2+x,1/2-y,1/2+z
loop_
_atom_site_type_symbol
_atom_site_label
_atom_site_fract_x
_atom_site_fract_y
_atom_site_fract_z
Si Si1 0.142783 0.551603 0.793955
Si Si2 0.251637 0.891815 0.363104
Si Si3 0.990653 0.423203 0.386420
Si Si4 0.250000 0.000000 0.006300
Si Si5 0.599507 0.425500 0.995406
Si Si6 0.180130 0.250000 0.250000
Si Si7 0.917831 0.817457 0.128608
O O1 0.089235 0.594472 0.652681
O O2 0.184837 0.495763 0.650639
O O3 0.196788 0.590619 0.948836
O O4 0.088598 0.503217 0.919892
O O5 0.231080 0.931163 0.142357
O O6 0.325107 0.929739 0.391762
O O7 0.271609 0.811129 0.343920
O O8 0.000000 0.500000 0.500000
O O9 0.039640 0.412754 0.175771
O O10 0.022244 0.364962 0.539779
O O11 0.610711 0.366796 0.178753
O O12 0.133466 0.288592 0.437282
O O13 0.944576 0.750000 0.250000
#
# Coordination Sequence:
#
# PCOD9413736 Si02
#       7
#     8   8   8   4   8   4   8
#     4  12  25  41  68 109 140 178 233 300 361 412
#     4  12  24  41  73 101 143 180 240 287 352 434
#     4  12  26  42  74 106 141 183 239 303 360 428
#     4  12  22  42  72 102 140 180 230 288 356 420
#     4  12  22  45  74 106 133 183 238 293 354 427
#     4  12  26  46  72 104 132 194 234 288 358 440
#     4  12  24  43  75  99 138 182 245 294 352 438
#
# _framework density 20.812144
#
# number of rings (size 3 to 8) (size 9 to 14) (size 15 to 20)
#    0.000    0.000    8.333    2.500    0.000    0.000 
#    0.000    0.000   18.333    0.000    0.000    0.000 
#    0.000    0.000    0.000    0.000    0.000    0.000 
#
# Total GULP energy -267448.188886 kJ/mol
# GULP energy per Si atom -5571.837268 kJ/mol
# Density = 2.076478 g / cm^3
# Si number density = 20.812144 Si / 1000 Ang^3
#
#
#
# Elastic Constant Matrix: (Units=GPa)
#
#
# Indices 1 2 3 4 5 6 
#
# 1 106.1742 35.7975 45.7280 0.0000 0.0000 0.0000
# 2 35.7975 140.3828 43.7942 0.0000 0.0000 0.0000
# 3 45.7280 43.7942 82.3968 0.0000 0.0000 0.0000
# 4 0.0000 0.0000 0.0000 37.7704 0.0000 0.0000
# 5 0.0000 0.0000 0.0000 0.0000 21.2088 0.0000
# 6 0.0000 0.0000 0.0000 0.0000 0.0000 32.6904
#
#
#
# Elastic Compliance Matrix: (Units=1/GPa)
#
#
# Indices 1 2 3 4 5 6 
#
# 1 0.012552 -0.001232 -0.006311 0.000000 0.000000 0.000000
# 2 -0.001232 0.008660 -0.003919 0.000000 0.000000 0.000000
# 3 -0.006311 -0.003919 0.017722 0.000000 0.000000 0.000000
# 4 0.000000 0.000000 0.000000 0.026476 0.000000 0.000000
# 5 0.000000 0.000000 0.000000 0.000000 0.047150 0.000000
# 6 0.000000 0.000000 0.000000 0.000000 0.000000 0.030590
#
#
# Mechanical properties :
#
#
# Convention : Reuss Voigt Hill
#
# Bulk Modulus (GPa) = 62.46314 64.39925 63.43120
# Shear Modulus (GPa) = 29.16955 31.90952 30.53953
#
# Velocity S-wave (km/s) = 3.74781 3.91988 3.83481
# Velocity P-wave (km/s) = 6.98613 7.17618 7.08179
#
# Compressibility (1/GPa) = 0.01600944
#
# Stress axis : x y z
#
# Youngs Moduli (GPa) = 79.66838 115.47121 56.42673
#
# Poissons Ratio (x) = 0.14225 0.35613
# Poissons Ratio (y) = 0.09814 0.22115
# Poissons Ratio (z) = 0.50281 0.45256
#
# Static dielectric constant tensor:
#      x y z
#    x 1.746700 0.000000 0.000000 
#    y 0.000000 1.666290 0.000000 
#    z 0.000000 0.000000 2.049770 
# 
# From -- ./inp_files/4403.got.cif
#   From: 2010.05.17/outbox.cif.g08.bks.cpg/sg52_3_cif.got.tgz:4403.got - 2010.06.03 12:15:38.
