data_PCOD9413335
_publ_section_title
;
Structure prediction by ZEFSAII (Michael W. Deem and Ramdas Pophale) SiO2 
 PCOD9413335
Probable space group: P N N A
;
_chemical_formula_sum "Si O2"
_cell_formula_units_Z 40
_cell_length_a 10.027863
_cell_length_b 8.259314
_cell_length_c 22.963680
_cell_angle_alpha 90.000000
_cell_angle_beta 90.000000
_cell_angle_gamma 90.000000
_cell_volume 1901.927052
_symmetry_space_group_name_H-M "P N N A"
_symmetry_group_IT_number 52
_symmetry_cell_setting 'orthorhombic'
loop_
_space_group_symop_operation_xyz
x,y,z
1/2-x,-y,z
x,1/2-y,1/2-z
1/2-x,1/2+y,1/2-z
-x,-y,-z
1/2+x,y,-z
-x,1/2+y,1/2+z
1/2+x,1/2-y,1/2+z
loop_
_atom_site_type_symbol
_atom_site_label
_atom_site_fract_x
_atom_site_fract_y
_atom_site_fract_z
Si Si1 0.205420 0.817295 0.685710
Si Si2 0.699606 0.816227 0.594093
Si Si3 0.018644 0.192650 0.818394
Si Si4 0.473871 0.667520 0.364788
Si Si5 0.122112 0.886921 0.982222
O O1 0.213809 0.750000 0.750000
O O2 0.329762 0.717984 0.657858
O O3 0.049220 0.801929 0.672471
O O4 0.250000 0.000000 0.680840
O O5 0.583217 0.794108 0.641622
O O6 0.649795 0.745572 0.532164
O O7 0.825549 0.708890 0.615529
O O8 0.750000 0.000000 0.588862
O O9 0.007956 0.250000 0.750000
O O10 0.983878 0.004166 0.831376
O O11 0.572313 0.675382 0.420452
O O12 0.250000 0.000000 0.977143
O O13 0.000000 0.000000 0.000000
#
# Coordination Sequence:
#
# PCOD9413335 Si02
#       5
#     8   8   8   8   8
#     4  11  23  41  65 100 136 176 229 282 343 409
#     4  12  27  44  65 103 139 177 234 290 347 412
#     4  11  23  43  69  99 134 182 231 281 349 418
#     4  12  25  44  73  98 139 183 233 282 348 418
#     4  12  23  46  72  98 135 183 227 278 344 418
#
# _framework density 21.031300000000002
#
# number of rings (size 3 to 8) (size 9 to 14) (size 15 to 20)
#    0.000    0.400    4.000    6.000    0.000    4.000 
#    0.000    0.000    0.000    0.000    0.000    0.000 
#    0.000    0.000    0.000    0.000    0.000    0.000 
#
# Total GULP energy -223212.073950 kJ/mol
# GULP energy per Si atom -5580.301849 kJ/mol
# Density = 2.098343 g / cm^3
# Si number density = 21.031300 Si / 1000 Ang^3
#
#
#
# Elastic Constant Matrix: (Units=GPa)
#
#
# Indices 1 2 3 4 5 6 
#
# 1 113.7269 1.6958 28.2515 0.0000 0.0000 0.0000
# 2 1.6958 96.4512 17.0792 0.0000 0.0000 0.0000
# 3 28.2515 17.0792 86.1412 0.0000 0.0000 0.0000
# 4 0.0000 0.0000 0.0000 22.9762 0.0000 0.0000
# 5 0.0000 0.0000 0.0000 0.0000 46.2553 0.0000
# 6 0.0000 0.0000 0.0000 0.0000 0.0000 43.8119
#
#
#
# Elastic Compliance Matrix: (Units=1/GPa)
#
#
# Indices 1 2 3 4 5 6 
#
# 1 0.009588 0.000402 -0.003224 0.000000 0.000000 0.000000
# 2 0.000402 0.010762 -0.002266 0.000000 0.000000 0.000000
# 3 -0.003224 -0.002266 0.013116 0.000000 0.000000 0.000000
# 4 0.000000 0.000000 0.000000 0.043523 0.000000 0.000000
# 5 0.000000 0.000000 0.000000 0.000000 0.021619 0.000000
# 6 0.000000 0.000000 0.000000 0.000000 0.000000 0.022825
#
#
# Mechanical properties :
#
#
# Convention : Reuss Voigt Hill
#
# Bulk Modulus (GPa) = 42.93656 43.37472 43.15564
# Shear Modulus (GPa) = 35.87526 39.22818 37.55172
#
# Velocity S-wave (km/s) = 4.13462 4.32351 4.23012
# Velocity P-wave (km/s) = 6.57672 6.75221 6.66505
#
# Compressibility (1/GPa) = 0.02329017
#
# Stress axis : x y z
#
# Youngs Moduli (GPa) = 104.29742 92.91883 76.24534
#
# Poissons Ratio (x) = -0.03739 0.24584
# Poissons Ratio (y) = -0.04197 0.17275
# Poissons Ratio (z) = 0.33629 0.21053
#
# Static dielectric constant tensor:
#      x y z
#    x 3.331980 0.000000 0.000000 
#    y 0.000000 1.634770 0.000000 
#    z 0.000000 0.000000 0.927310 
# 
# From -- ./inp_files/39245.got.cif
#   From: 2010.05.17/outbox.cif.g08.bks.cpg/sg52_20_cif.got.tgz:39245.got - 2010.06.03 12:15:38.
