data_PCOD9413182
_publ_section_title
;
Structure prediction by ZEFSAII (Michael W. Deem and Ramdas Pophale) SiO2 
 PCOD9413182
Probable space group: P N N A
;
_chemical_formula_sum "Si O2"
_cell_formula_units_Z 32
_cell_length_a 37.828270
_cell_length_b 5.166614
_cell_length_c 7.116145
_cell_angle_alpha 90.000000
_cell_angle_beta 90.000000
_cell_angle_gamma 90.000000
_cell_volume 1390.808337
_symmetry_space_group_name_H-M "P N N A"
_symmetry_group_IT_number 52
_symmetry_cell_setting 'orthorhombic'
loop_
_space_group_symop_operation_xyz
x,y,z
1/2-x,-y,z
x,1/2-y,1/2-z
1/2-x,1/2+y,1/2-z
-x,-y,-z
1/2+x,y,-z
-x,1/2+y,1/2+z
1/2+x,1/2-y,1/2+z
loop_
_atom_site_type_symbol
_atom_site_label
_atom_site_fract_x
_atom_site_fract_y
_atom_site_fract_z
Si Si1 0.035902 0.505820 0.883348
Si Si2 0.771922 0.746255 0.478352
Si Si3 0.606815 0.765859 0.477735
Si Si4 0.147018 0.257259 0.520853
O O1 0.042173 0.250000 0.750000
O O2 0.069092 0.594932 0.013243
O O3 0.031305 0.750000 0.750000
O O4 0.000000 0.500000 0.000000
O O5 0.750000 0.500000 0.538839
O O6 0.772931 0.750000 0.250000
O O7 0.812516 0.708089 0.536398
O O8 0.750000 0.000000 0.534068
O O9 0.607528 0.750000 0.250000
O O10 0.619217 0.480694 0.538213
O O11 0.635325 0.973798 0.541486
O O12 0.146043 0.250000 0.750000
#
# Coordination Sequence:
#
# PCOD9413182 Si02
#       4
#     8   8   8   8
#     4  11  22  37  56  79 106 137 177 225 274 324
#     4   9  15  21  29  45  71 105 147 193 233 275
#     4   9  16  27  42  61  84 115 157 203 244 293
#     4   9  15  23  36  53  77 111 153 199 239 282
#
# _framework density 23.008202000000001
#
# number of rings (size 3 to 8) (size 9 to 14) (size 15 to 20)
#    0.000    2.500    0.000    6.000    0.000    6.000 
#    0.000    0.000    0.000    0.000    0.000    0.000 
#    0.000    0.000    0.000    0.000    0.000   70.000 
#
# Total GULP energy -178516.793528 kJ/mol
# GULP energy per Si atom -5578.649798 kJ/mol
# Density = 2.295583 g / cm^3
# Si number density = 23.008202 Si / 1000 Ang^3
#
#
#
# Elastic Constant Matrix: (Units=GPa)
#
#
# Indices 1 2 3 4 5 6 
#
# 1 191.7139 67.6553 -0.7277 0.0000 0.0000 0.0000
# 2 67.6553 183.2361 -2.4366 0.0000 0.0000 0.0000
# 3 -0.7277 -2.4366 82.8643 0.0000 0.0000 0.0000
# 4 0.0000 0.0000 0.0000 -18.6461 0.0000 0.0000
# 5 0.0000 0.0000 0.0000 0.0000 -13.6944 0.0000
# 6 0.0000 0.0000 0.0000 0.0000 0.0000 40.1505
#
#
#
# Elastic Compliance Matrix: (Units=1/GPa)
#
#
# Indices 1 2 3 4 5 6 
#
# 1 0.005998 -0.002215 -0.000012 0.000000 0.000000 0.000000
# 2 -0.002215 0.006277 0.000165 0.000000 0.000000 0.000000
# 3 -0.000012 0.000165 0.012073 0.000000 0.000000 0.000000
# 4 0.000000 0.000000 0.000000 -0.053631 0.000000 0.000000
# 5 0.000000 0.000000 0.000000 0.000000 -0.073022 0.000000
# 6 0.000000 0.000000 0.000000 0.000000 0.000000 0.024906
#
#
# Mechanical properties :
#
#
# Convention : Reuss Voigt Hill
#
# Bulk Modulus (GPa) = 49.44692 65.19959 57.32326
# Shear Modulus (GPa) = -75.14953 27.78356 -23.68299
#
# Velocity S-wave (km/s) = -5.72127 3.47875 -3.21179
# Velocity P-wave (km/s) = 4.70173 6.67343 3.34876
#
# Compressibility (1/GPa) = 0.02022371
#
# Stress axis : x y z
#
# Youngs Moduli (GPa) = 166.73359 159.30342 82.83173
#
# Poissons Ratio (x) = 0.35280 0.00103
# Poissons Ratio (y) = 0.36925 -0.01368
# Poissons Ratio (z) = 0.00208 -0.02631
#
# Static dielectric constant tensor:
#      x y z
#    x 2.101990 0.000000 0.000000 
#    y 0.000000 1.786090 0.000000 
#    z 0.000000 0.000000 1.777220 
# 
# From -- ./inp_files/15283.got.cif
#   From: 2010.05.17/outbox.cif.g08.bks.cpg/sg52_8_cif.got.tgz:15283.got - 2010.06.03 12:15:38.
