data_PCOD9413265
_publ_section_title
;
Structure prediction by ZEFSAII (Michael W. Deem and Ramdas Pophale) SiO2 
 PCOD9413265
Probable space group: P N N A
;
_chemical_formula_sum "Si O2"
_cell_formula_units_Z 32
_cell_length_a 12.158751
_cell_length_b 8.346866
_cell_length_c 13.273770
_cell_angle_alpha 90.000000
_cell_angle_beta 90.000000
_cell_angle_gamma 90.000000
_cell_volume 1347.121273
_symmetry_space_group_name_H-M "P N N A"
_symmetry_group_IT_number 52
_symmetry_cell_setting 'orthorhombic'
loop_
_space_group_symop_operation_xyz
x,y,z
1/2-x,-y,z
x,1/2-y,1/2-z
1/2-x,1/2+y,1/2-z
-x,-y,-z
1/2+x,y,-z
-x,1/2+y,1/2+z
1/2+x,1/2-y,1/2+z
loop_
_atom_site_type_symbol
_atom_site_label
_atom_site_fract_x
_atom_site_fract_y
_atom_site_fract_z
Si Si1 0.411386 0.620203 0.045863
Si Si2 0.954161 0.362728 0.346438
Si Si3 0.634866 0.939563 0.756783
Si Si4 0.726766 0.312603 0.148599
O O1 0.475740 0.783366 0.066447
O O2 0.370557 0.533457 0.148488
O O3 0.500000 0.500000 0.000000
O O4 0.325470 0.665437 0.960347
O O5 0.976134 0.250000 0.250000
O O6 0.021429 0.520043 0.315735
O O7 0.827045 0.315708 0.364117
O O8 0.643799 0.750000 0.750000
O O9 0.750000 0.000000 0.805654
O O10 0.750000 0.500000 0.174669
O O11 0.667125 0.250000 0.250000
#
# Coordination Sequence:
#
# PCOD9413265 Si02
#       4
#     8   8   8   8
#     4  11  22  42  74 109 152 200 252 324 403 472
#     4   9  21  44  72 107 148 193 261 316 389 485
#     4  11  24  46  79 107 153 205 262 334 402 472
#     4  11  23  44  72 105 154 206 252 320 394 477
#
# _framework density 23.754355
#
# number of rings (size 3 to 8) (size 9 to 14) (size 15 to 20)
#    0.000    1.500    2.500    3.000    0.000    1.000 
#    0.000    7.500    0.000    0.000    0.000    0.000 
#    0.000    0.000    0.000    0.000    0.000    0.000 
#
# Total GULP energy -178295.887262 kJ/mol
# GULP energy per Si atom -5571.746477 kJ/mol
# Density = 2.370029 g / cm^3
# Si number density = 23.754355 Si / 1000 Ang^3
#
#
#
# Elastic Constant Matrix: (Units=GPa)
#
#
# Indices 1 2 3 4 5 6 
#
# 1 145.5900 78.4649 46.2043 0.0000 0.0000 0.0000
# 2 78.4649 118.5317 26.4222 0.0000 0.0000 0.0000
# 3 46.2043 26.4222 103.9183 0.0000 0.0000 0.0000
# 4 0.0000 0.0000 0.0000 23.3662 0.0000 0.0000
# 5 0.0000 0.0000 0.0000 0.0000 -170.5814 0.0000
# 6 0.0000 0.0000 0.0000 0.0000 0.0000 34.4725
#
#
#
# Elastic Compliance Matrix: (Units=1/GPa)
#
#
# Indices 1 2 3 4 5 6 
#
# 1 0.011732 -0.007000 -0.003436 0.000000 0.000000 0.000000
# 2 -0.007000 0.013120 -0.000224 0.000000 0.000000 0.000000
# 3 -0.003436 -0.000224 0.011208 0.000000 0.000000 0.000000
# 4 0.000000 0.000000 0.000000 0.042797 0.000000 0.000000
# 5 0.000000 0.000000 0.000000 0.000000 -0.005862 0.000000
# 6 0.000000 0.000000 0.000000 0.000000 0.000000 0.029009
#
#
# Mechanical properties :
#
#
# Convention : Reuss Voigt Hill
#
# Bulk Modulus (GPa) = 67.84412 74.46922 71.15667
# Shear Modulus (GPa) = 38.99049 -8.08529 15.45260
#
# Velocity S-wave (km/s) = 4.05582 -1.84692 2.55329
# Velocity P-wave (km/s) = 7.11025 5.18359 6.22195
#
# Compressibility (1/GPa) = 0.01473967
#
# Stress axis : x y z
#
# Youngs Moduli (GPa) = 85.23787 76.21763 89.22460
#
# Poissons Ratio (x) = 0.53354 0.30661
# Poissons Ratio (y) = 0.59668 0.01995
# Poissons Ratio (z) = 0.29291 0.01704
#
# Static dielectric constant tensor:
#      x y z
#    x 2.085740 0.000000 0.000000 
#    y 0.000000 2.058920 0.000000 
#    z 0.000000 0.000000 1.924560 
# 
# From -- ./inp_files/25608.got.cif
#   From: 2010.05.17/outbox.cif.g08.bks.cpg/sg52_13_cif.got.tgz:25608.got - 2010.06.03 12:15:38.
