data_PCOD9413287
_publ_section_title
;
Structure prediction by ZEFSAII (Michael W. Deem and Ramdas Pophale) SiO2 
 PCOD9413287
Probable space group: P N N A
;
_chemical_formula_sum "Si O2"
_cell_formula_units_Z 32
_cell_length_a 21.383764
_cell_length_b 5.422584
_cell_length_c 11.912457
_cell_angle_alpha 90.000000
_cell_angle_beta 90.000000
_cell_angle_gamma 90.000000
_cell_volume 1381.312007
_symmetry_space_group_name_H-M "P N N A"
_symmetry_group_IT_number 52
_symmetry_cell_setting 'orthorhombic'
loop_
_space_group_symop_operation_xyz
x,y,z
1/2-x,-y,z
x,1/2-y,1/2-z
1/2-x,1/2+y,1/2-z
-x,-y,-z
1/2+x,y,-z
-x,1/2+y,1/2+z
1/2+x,1/2-y,1/2+z
loop_
_atom_site_type_symbol
_atom_site_label
_atom_site_fract_x
_atom_site_fract_y
_atom_site_fract_z
Si Si1 0.464718 0.250000 0.250000
Si Si2 0.750000 0.000000 0.508115
Si Si3 0.451927 0.801471 0.556312
Si Si4 0.250000 0.500000 0.632875
Si Si5 0.141154 0.250000 0.750000
Si Si6 0.630132 0.369791 0.859543
O O1 0.505221 0.353837 0.356165
O O2 0.421541 0.455235 0.195849
O O3 0.748495 0.748683 0.438395
O O4 0.813787 0.002658 0.578180
O O5 0.400357 0.873575 0.651027
O O6 0.408021 0.712497 0.453581
O O7 0.500000 0.000000 0.500000
O O8 0.187158 0.460614 0.703794
O O9 0.659875 0.250000 0.750000
#
# Coordination Sequence:
#
# PCOD9413287 Si02
#       6
#     4   4   8   4   4   8
#     4   9  22  42  74  98 146 191 256 314 378 451
#     4  12  29  49  76 110 162 197 259 318 378 456
#     4   9  20  45  71 109 147 193 253 313 382 454
#     4  12  27  49  78 118 150 203 255 328 382 452
#     4  11  22  44  80 110 154 195 256 318 390 455
#     4  11  25  43  68 104 148 202 250 308 380 453
#
# _framework density 23.166381000000001
#
# number of rings (size 3 to 8) (size 9 to 14) (size 15 to 20)
#    0.000    1.500    2.500    0.750    5.250    1.000 
#    0.000   20.000    0.000    0.000    0.000    0.000 
#    0.000    0.000    0.000    0.000    0.000    0.000 
#
# Total GULP energy -178220.219503 kJ/mol
# GULP energy per Si atom -5569.381859 kJ/mol
# Density = 2.311365 g / cm^3
# Si number density = 23.166381 Si / 1000 Ang^3
#
#
#
# Elastic Constant Matrix: (Units=GPa)
#
#
# Indices 1 2 3 4 5 6 
#
# 1 145.2780 28.9255 83.2916 0.0000 0.0000 0.0000
# 2 28.9255 69.4923 53.9404 0.0000 0.0000 0.0000
# 3 83.2916 53.9404 182.8095 0.0000 0.0000 0.0000
# 4 0.0000 0.0000 0.0000 36.8671 0.0000 0.0000
# 5 0.0000 0.0000 0.0000 0.0000 -38.4282 0.0000
# 6 0.0000 0.0000 0.0000 0.0000 0.0000 32.3818
#
#
#
# Elastic Compliance Matrix: (Units=1/GPa)
#
#
# Indices 1 2 3 4 5 6 
#
# 1 0.009348 -0.000759 -0.004035 0.000000 0.000000 0.000000
# 2 -0.000759 0.018726 -0.005180 0.000000 0.000000 0.000000
# 3 -0.004035 -0.005180 0.008837 0.000000 0.000000 0.000000
# 4 0.000000 0.000000 0.000000 0.027124 0.000000 0.000000
# 5 0.000000 0.000000 0.000000 0.000000 -0.026023 0.000000
# 6 0.000000 0.000000 0.000000 0.000000 0.000000 0.030882
#
#
# Mechanical properties :
#
#
# Convention : Reuss Voigt Hill
#
# Bulk Modulus (GPa) = 58.94877 81.09941 70.02409
# Shear Modulus (GPa) = 52.91169 21.59231 37.25200
#
# Velocity S-wave (km/s) = 4.78429 3.05627 4.01436
# Velocity P-wave (km/s) = 7.48467 6.89476 7.19576
#
# Compressibility (1/GPa) = 0.01696388
#
# Stress axis : x y z
#
# Youngs Moduli (GPa) = 106.97571 53.40028 113.16004
#
# Poissons Ratio (x) = 0.04052 0.45662
# Poissons Ratio (y) = 0.08118 0.58614
# Poissons Ratio (z) = 0.43167 0.27660
#
# Static dielectric constant tensor:
#      x y z
#    x 1.344980 0.000000 0.000000 
#    y 0.000000 1.572930 0.000000 
#    z 0.000000 0.000000 2.016020 
# 
# From -- ./inp_files/21299.got.cif
#   From: 2010.05.17/outbox.cif.g08.bks.cpg/sg52_11_cif.got.tgz:21299.got - 2010.06.03 12:15:38.
