data_PCOD9413327
_publ_section_title
;
Structure prediction by ZEFSAII (Michael W. Deem and Ramdas Pophale) SiO2 
 PCOD9413327
Probable space group: P N N A
;
_chemical_formula_sum "Si O2"
_cell_formula_units_Z 60
_cell_length_a 18.485124
_cell_length_b 8.736593
_cell_length_c 18.338731
_cell_angle_alpha 90.000000
_cell_angle_beta 90.000000
_cell_angle_gamma 90.000000
_cell_volume 2961.650131
_symmetry_space_group_name_H-M "P N N A"
_symmetry_group_IT_number 52
_symmetry_cell_setting 'orthorhombic'
loop_
_space_group_symop_operation_xyz
x,y,z
1/2-x,-y,z
x,1/2-y,1/2-z
1/2-x,1/2+y,1/2-z
-x,-y,-z
1/2+x,y,-z
-x,1/2+y,1/2+z
1/2+x,1/2-y,1/2+z
loop_
_atom_site_type_symbol
_atom_site_label
_atom_site_fract_x
_atom_site_fract_y
_atom_site_fract_z
Si Si1 0.081429 0.484986 0.713457
Si Si2 0.787701 0.340800 0.673795
Si Si3 0.290287 0.661761 0.045223
Si Si4 0.208093 0.250000 0.750000
Si Si5 0.777742 0.328595 0.098951
Si Si6 0.552226 0.780427 0.835960
Si Si7 0.449319 0.964851 0.431459
Si Si8 0.069536 0.684729 0.856074
O O1 0.153759 0.386945 0.726753
O O2 0.066783 0.549665 0.795366
O O3 0.085394 0.646410 0.672894
O O4 0.021764 0.382612 0.668977
O O5 0.750000 0.500000 0.688958
O O6 0.788496 0.250000 0.750000
O O7 0.738944 0.256251 0.613544
O O8 0.870634 0.358696 0.645207
O O9 0.250000 0.500000 0.048705
O O10 0.373021 0.608827 0.047723
O O11 0.264669 0.741963 0.969639
O O12 0.258018 0.267817 0.821006
O O13 0.750000 0.500000 0.103075
O O14 0.863768 0.339975 0.089066
O O15 0.559083 0.750000 0.750000
O O16 0.552224 0.622169 0.882889
O O17 0.491270 0.829771 0.389848
O O18 0.500000 0.000000 0.500000
#
# Coordination Sequence:
#
# PCOD9413327 Si02
#       8
#     8   8   8   4   8   8   8   8
#     4  11  23  40  68  99 138 171 226 277 340 406
#     4  11  26  45  71  99 133 178 231 289 344 403
#     4  11  24  46  69  97 132 183 230 281 340 402
#     4  12  22  42  70 100 134 184 226 276 348 408
#     4  11  24  42  69  98 139 177 230 279 336 416
#     4  11  23  43  67  99 136 176 223 279 338 406
#     4  12  25  44  72  99 138 182 227 276 350 415
#     4  11  24  42  64 105 130 177 223 279 340 409
#
# _framework density 20.258977000000002
#
# number of rings (size 3 to 8) (size 9 to 14) (size 15 to 20)
#    0.000    0.800    4.667    2.800    5.600    0.000 
#    2.400    0.667    0.000    0.000    0.000    0.000 
#    0.000    0.000    0.000    0.000    0.000    0.000 
#
# Total GULP energy -334228.117521 kJ/mol
# GULP energy per Si atom -5570.468625 kJ/mol
# Density = 2.021287 g / cm^3
# Si number density = 20.258977 Si / 1000 Ang^3
#
#
#
# Elastic Constant Matrix: (Units=GPa)
#
#
# Indices 1 2 3 4 5 6 
#
# 1 155.3481 24.9166 35.3151 0.0000 0.0000 0.0000
# 2 24.9166 55.2763 19.3950 0.0000 0.0000 0.0000
# 3 35.3151 19.3950 105.7761 0.0000 0.0000 0.0000
# 4 0.0000 0.0000 0.0000 17.4531 0.0000 0.0000
# 5 0.0000 0.0000 0.0000 0.0000 29.0390 0.0000
# 6 0.0000 0.0000 0.0000 0.0000 0.0000 -11.6395
#
#
#
# Elastic Compliance Matrix: (Units=1/GPa)
#
#
# Indices 1 2 3 4 5 6 
#
# 1 0.007300 -0.002603 -0.001960 0.000000 0.000000 0.000000
# 2 -0.002603 0.020263 -0.002846 0.000000 0.000000 0.000000
# 3 -0.001960 -0.002846 0.010630 0.000000 0.000000 0.000000
# 4 0.000000 0.000000 0.000000 0.057296 0.000000 0.000000
# 5 0.000000 0.000000 0.000000 0.000000 0.034436 0.000000
# 6 0.000000 0.000000 0.000000 0.000000 0.000000 -0.085915
#
#
# Mechanical properties :
#
#
# Convention : Reuss Voigt Hill
#
# Bulk Modulus (GPa) = 42.78122 52.85042 47.81582
# Shear Modulus (GPa) = 75.05020 22.75544 48.90282
#
# Velocity S-wave (km/s) = 6.09310 3.35509 4.91846
# Velocity P-wave (km/s) = 8.40620 6.41505 7.47720
#
# Compressibility (1/GPa) = 0.02337474
#
# Stress axis : x y z
#
# Youngs Moduli (GPa) = 136.98220 49.35111 94.07149
#
# Poissons Ratio (x) = 0.12846 0.18438
# Poissons Ratio (y) = 0.35656 0.26776
# Poissons Ratio (z) = 0.26849 0.14047
#
# Static dielectric constant tensor:
#      x y z
#    x 1.763040 0.000000 0.000000 
#    y 0.000000 1.708580 0.000000 
#    z 0.000000 0.000000 1.796240 
# 
# From -- ./inp_files/33785.got.cif
#   From: 2010.05.17/outbox.cif.g08.bks.cpg/sg52_17_cif.got.tgz:33785.got - 2010.06.03 12:15:38.
