data_PCOD9413388
_publ_section_title
;
Structure prediction by ZEFSAII (Michael W. Deem and Ramdas Pophale) SiO2 
 PCOD9413388
Probable space group: P N N A
;
_chemical_formula_sum "Si O2"
_cell_formula_units_Z 32
_cell_length_a 12.947481
_cell_length_b 17.277461
_cell_length_c 6.515579
_cell_angle_alpha 90.000000
_cell_angle_beta 90.000000
_cell_angle_gamma 90.000000
_cell_volume 1457.532403
_symmetry_space_group_name_H-M "P N N A"
_symmetry_group_IT_number 52
_symmetry_cell_setting 'orthorhombic'
loop_
_space_group_symop_operation_xyz
x,y,z
1/2-x,-y,z
x,1/2-y,1/2-z
1/2-x,1/2+y,1/2-z
-x,-y,-z
1/2+x,y,-z
-x,1/2+y,1/2+z
1/2+x,1/2-y,1/2+z
loop_
_atom_site_type_symbol
_atom_site_label
_atom_site_fract_x
_atom_site_fract_y
_atom_site_fract_z
Si Si1 0.307587 0.418467 0.944165
Si Si2 0.056550 0.830423 0.270159
Si Si3 0.507488 0.919752 0.120921
Si Si4 0.625693 0.177009 0.595995
O O1 0.250000 0.500000 0.942523
O O2 0.376892 0.401358 0.144045
O O3 0.223573 0.349852 0.961549
O O4 0.387956 0.416168 0.755993
O O5 0.117864 0.750000 0.250000
O O6 0.967513 0.812873 0.435070
O O7 0.013002 0.855094 0.053318
O O8 0.411697 0.896494 0.265846
O O9 0.500000 0.000000 0.000000
O O10 0.637725 0.250000 0.750000
#
# Coordination Sequence:
#
# PCOD9413388 Si02
#       4
#     8   8   8   8
#     4  11  25  42  66 104 138 180 242 290 345 422
#     4  11  23  44  68 100 141 183 229 288 357 423
#     4  11  24  44  71  97 143 190 230 286 357 416
#     4  11  23  45  70 103 139 181 235 291 353 421
#
# _framework density 21.954915
#
# number of rings (size 3 to 8) (size 9 to 14) (size 15 to 20)
#    0.000    1.000    2.500    3.750    0.000    9.000 
#    4.500    0.000    0.000    0.000    0.000    0.000 
#    0.000    0.000    0.000    0.000    0.000    0.000 
#
# Total GULP energy -178720.480873 kJ/mol
# GULP energy per Si atom -5585.015027 kJ/mol
# Density = 2.190494 g / cm^3
# Si number density = 21.954915 Si / 1000 Ang^3
#
#
#
# Elastic Constant Matrix: (Units=GPa)
#
#
# Indices 1 2 3 4 5 6 
#
# 1 91.3089 31.4041 28.7507 0.0000 0.0000 0.0000
# 2 31.4041 119.8435 40.9182 0.0000 0.0000 0.0000
# 3 28.7507 40.9182 94.2172 0.0000 0.0000 0.0000
# 4 0.0000 0.0000 0.0000 34.5411 0.0000 0.0000
# 5 0.0000 0.0000 0.0000 0.0000 22.6462 0.0000
# 6 0.0000 0.0000 0.0000 0.0000 0.0000 32.6412
#
#
#
# Elastic Compliance Matrix: (Units=1/GPa)
#
#
# Indices 1 2 3 4 5 6 
#
# 1 0.012654 -0.002345 -0.002843 0.000000 0.000000 0.000000
# 2 -0.002345 0.010232 -0.003728 0.000000 0.000000 0.000000
# 3 -0.002843 -0.003728 0.013100 0.000000 0.000000 0.000000
# 4 0.000000 0.000000 0.000000 0.028951 0.000000 0.000000
# 5 0.000000 0.000000 0.000000 0.000000 0.044158 0.000000
# 6 0.000000 0.000000 0.000000 0.000000 0.000000 0.030636
#
#
# Mechanical properties :
#
#
# Convention : Reuss Voigt Hill
#
# Bulk Modulus (GPa) = 55.08521 56.39064 55.73792
# Shear Modulus (GPa) = 30.55994 31.58548 31.07271
#
# Velocity S-wave (km/s) = 3.73492 3.79707 3.76612
# Velocity P-wave (km/s) = 6.61393 6.70553 6.65989
#
# Compressibility (1/GPa) = 0.01815369
#
# Stress axis : x y z
#
# Youngs Moduli (GPa) = 79.02939 97.73677 76.33434
#
# Poissons Ratio (x) = 0.22921 0.21700
# Poissons Ratio (y) = 0.18534 0.28457
# Poissons Ratio (z) = 0.22466 0.36435
#
# Static dielectric constant tensor:
#      x y z
#    x 1.835620 0.000000 0.000000 
#    y 0.000000 1.866750 0.000000 
#    z 0.000000 0.000000 1.763290 
# 
# From -- ./inp_files/1027.got.cif
#   From: 2010.05.17/outbox.cif.g08.bks.cpg/sg52_1_cif.got.tgz:1027.got - 2010.06.03 12:15:38.
