data_PCOD9413108
_publ_section_title
;
Structure prediction by ZEFSAII (Michael W. Deem and Ramdas Pophale) SiO2 
 PCOD9413108
Probable space group: P N N A
;
_chemical_formula_sum "Si O2"
_cell_formula_units_Z 56
_cell_length_a 15.012578
_cell_length_b 11.428854
_cell_length_c 14.838985
_cell_angle_alpha 90.000000
_cell_angle_beta 90.000000
_cell_angle_gamma 90.000000
_cell_volume 2546.022032
_symmetry_space_group_name_H-M "P N N A"
_symmetry_group_IT_number 52
_symmetry_cell_setting 'orthorhombic'
loop_
_space_group_symop_operation_xyz
x,y,z
1/2-x,-y,z
x,1/2-y,1/2-z
1/2-x,1/2+y,1/2-z
-x,-y,-z
1/2+x,y,-z
-x,1/2+y,1/2+z
1/2+x,1/2-y,1/2+z
loop_
_atom_site_type_symbol
_atom_site_label
_atom_site_fract_x
_atom_site_fract_y
_atom_site_fract_z
Si Si1 0.655154 0.837087 0.414045
Si Si2 0.656719 0.398803 0.047221
Si Si3 0.156915 0.690357 0.403973
Si Si4 0.009339 0.173722 0.666699
Si Si5 0.155704 0.272171 0.127111
Si Si6 0.995324 0.403752 0.220198
Si Si7 0.051941 0.046323 0.086637
O O1 0.759095 0.862253 0.390246
O O2 0.655300 0.735004 0.490111
O O3 0.584364 0.834659 0.331634
O O4 0.632350 0.964817 0.455328
O O5 0.574478 0.323807 0.081856
O O6 0.682666 0.366946 0.946925
O O7 0.250161 0.711170 0.352963
O O8 0.122339 0.557730 0.393905
O O9 0.084136 0.771508 0.357593
O O10 0.045770 0.250000 0.750000
O O11 0.002261 0.037008 0.687057
O O12 0.088542 0.340131 0.193959
O O13 0.102272 0.168635 0.077091
O O14 0.989637 0.424530 0.327324
O O15 0.000000 0.000000 0.000000
#
# Coordination Sequence:
#
# PCOD9413108 Si02
#       7
#     8   8   8   8   8   8   8
#     4   9  19  39  69  96 126 161 218 281 336 396
#     4   9  19  38  66  97 126 161 213 276 339 397
#     4  11  23  42  63  97 132 174 215 277 339 406
#     4  11  21  37  62  95 128 163 211 273 338 393
#     4  11  24  41  64  93 131 176 222 271 337 403
#     4  11  23  41  66  97 127 175 223 281 333 402
#     4  12  25  43  64  90 135 183 227 274 337 414
#
# _framework density 21.995097000000001
#
# number of rings (size 3 to 8) (size 9 to 14) (size 15 to 20)
#    0.000    1.429    1.429    4.286    0.000    5.143 
#    2.571    4.286    6.286    0.000    0.000    0.000 
#    0.000    0.000    0.000    0.000    0.000    0.000 
#
# Total GULP energy -312160.790444 kJ/mol
# GULP energy per Si atom -5574.299829 kJ/mol
# Density = 2.194504 g / cm^3
# Si number density = 21.995097 Si / 1000 Ang^3
#
#
#
# Elastic Constant Matrix: (Units=GPa)
#
#
# Indices 1 2 3 4 5 6 
#
# 1 53.2601 3.8598 30.0712 0.0000 0.0000 0.0000
# 2 3.8598 119.0640 29.1404 0.0000 0.0000 0.0000
# 3 30.0712 29.1404 90.5241 0.0000 0.0000 0.0000
# 4 0.0000 0.0000 0.0000 37.4479 0.0000 0.0000
# 5 0.0000 0.0000 0.0000 0.0000 -11.1917 0.0000
# 6 0.0000 0.0000 0.0000 0.0000 0.0000 29.5355
#
#
#
# Elastic Compliance Matrix: (Units=1/GPa)
#
#
# Indices 1 2 3 4 5 6 
#
# 1 0.023276 0.001235 -0.008130 0.000000 0.000000 0.000000
# 2 0.001235 0.009183 -0.003366 0.000000 0.000000 0.000000
# 3 -0.008130 -0.003366 0.014831 0.000000 0.000000 0.000000
# 4 0.000000 0.000000 0.000000 0.026704 0.000000 0.000000
# 5 0.000000 0.000000 0.000000 0.000000 -0.089352 0.000000
# 6 0.000000 0.000000 0.000000 0.000000 0.000000 0.033858
#
#
# Mechanical properties :
#
#
# Convention : Reuss Voigt Hill
#
# Bulk Modulus (GPa) = 37.35759 43.22122 40.28941
# Shear Modulus (GPa) = 104.28770 24.47678 64.38224
#
# Velocity S-wave (km/s) = 6.89326 3.33953 5.41615
# Velocity P-wave (km/s) = 8.96534 5.87903 7.58091
#
# Compressibility (1/GPa) = 0.02676832
#
# Stress axis : x y z
#
# Youngs Moduli (GPa) = 42.96187 108.90058 67.42605
#
# Poissons Ratio (x) = -0.13451 0.54816
# Poissons Ratio (y) = -0.05306 0.22698
# Poissons Ratio (z) = 0.34927 0.36659
#
# Static dielectric constant tensor:
#      x y z
#    x 1.858690 0.000000 0.000000 
#    y 0.000000 1.903530 0.000000 
#    z 0.000000 0.000000 1.979340 
# 
# From -- ./inp_files/27298.got.cif
#   From: 2010.05.17/outbox.cif.g08.bks.cpg/sg52_14_cif.got.tgz:27298.got - 2010.06.03 12:15:38.
