data_PCOD9413506
_publ_section_title
;
Structure prediction by ZEFSAII (Michael W. Deem and Ramdas Pophale) SiO2 
 PCOD9413506
Probable space group: P N N A
;
_chemical_formula_sum "Si O2"
_cell_formula_units_Z 28
_cell_length_a 14.488115
_cell_length_b 9.435252
_cell_length_c 10.039791
_cell_angle_alpha 90.000000
_cell_angle_beta 90.000000
_cell_angle_gamma 90.000000
_cell_volume 1372.429551
_symmetry_space_group_name_H-M "P N N A"
_symmetry_group_IT_number 52
_symmetry_cell_setting 'orthorhombic'
loop_
_space_group_symop_operation_xyz
x,y,z
1/2-x,-y,z
x,1/2-y,1/2-z
1/2-x,1/2+y,1/2-z
-x,-y,-z
1/2+x,y,-z
-x,1/2+y,1/2+z
1/2+x,1/2-y,1/2+z
loop_
_atom_site_type_symbol
_atom_site_label
_atom_site_fract_x
_atom_site_fract_y
_atom_site_fract_z
Si Si1 0.662406 0.109769 0.341239
Si Si2 0.897423 0.784526 0.904661
Si Si3 0.413739 0.387073 0.659366
Si Si4 0.750000 0.000000 0.985256
O O1 0.681448 0.250000 0.250000
O O2 0.626326 0.165886 0.484457
O O3 0.750000 0.000000 0.354033
O O4 0.584671 0.021089 0.259930
O O5 0.906764 0.750000 0.750000
O O6 0.996481 0.857983 0.930927
O O7 0.812745 0.891933 0.907702
O O8 0.399732 0.250000 0.750000
O O9 0.323215 0.414123 0.572933
#
# Coordination Sequence:
#
# PCOD9413506 Si02
#       4
#     8   8   8   4
#     4  12  23  43  75  99 132 184 233 273 328 410
#     4  11  27  44  65 104 142 173 224 286 345 398
#     4  11  24  45  72 102 131 179 235 276 332 411
#     4  12  22  44  68  98 136 182 220 282 332 412
#
# _framework density 20.401776999999999
#
# number of rings (size 3 to 8) (size 9 to 14) (size 15 to 20)
#    0.000    0.571    4.286    3.429    2.000    4.571 
#    5.143    0.000    0.000    0.000    0.000    0.000 
#    0.000    0.000    0.000    0.000    0.000    0.000 
#
# Total GULP energy -156179.632219 kJ/mol
# GULP energy per Si atom -5577.844008 kJ/mol
# Density = 2.035534 g / cm^3
# Si number density = 20.401777 Si / 1000 Ang^3
#
#
#
# Elastic Constant Matrix: (Units=GPa)
#
#
# Indices 1 2 3 4 5 6 
#
# 1 144.3506 46.8466 50.3737 0.0000 0.0000 0.0000
# 2 46.8466 127.6798 46.2244 0.0000 0.0000 0.0000
# 3 50.3737 46.2244 99.3853 0.0000 0.0000 0.0000
# 4 0.0000 0.0000 0.0000 -12.4196 0.0000 0.0000
# 5 0.0000 0.0000 0.0000 0.0000 -11.5775 0.0000
# 6 0.0000 0.0000 0.0000 0.0000 0.0000 25.8591
#
#
#
# Elastic Compliance Matrix: (Units=1/GPa)
#
#
# Indices 1 2 3 4 5 6 
#
# 1 0.008799 -0.001940 -0.003557 0.000000 0.000000 0.000000
# 2 -0.001940 0.009846 -0.003596 0.000000 0.000000 0.000000
# 3 -0.003557 -0.003596 0.013537 0.000000 0.000000 0.000000
# 4 0.000000 0.000000 0.000000 -0.080518 0.000000 0.000000
# 5 0.000000 0.000000 0.000000 0.000000 -0.086374 0.000000
# 6 0.000000 0.000000 0.000000 0.000000 0.000000 0.038671
#
#
# Mechanical properties :
#
#
# Convention : Reuss Voigt Hill
#
# Bulk Modulus (GPa) = 71.45440 73.14501 72.29971
# Shear Modulus (GPa) = -68.31780 15.57045 -26.37368
#
# Velocity S-wave (km/s) = -5.79300 2.76559 -3.59933
# Velocity P-wave (km/s) = 3.10573 6.79177 4.27098
#
# Compressibility (1/GPa) = 0.01399494
#
# Stress axis : x y z
#
# Youngs Moduli (GPa) = 113.65395 101.56536 73.87053
#
# Poissons Ratio (x) = 0.19709 0.26276
# Poissons Ratio (y) = 0.22054 0.26562
# Poissons Ratio (z) = 0.40428 0.36521
#
# Static dielectric constant tensor:
#      x y z
#    x 1.844470 0.000000 0.000000 
#    y 0.000000 1.735290 0.000000 
#    z 0.000000 0.000000 1.767020 
# 
# From -- ./inp_files/18777.got.cif
#   From: 2010.05.17/outbox.cif.g08.bks.cpg/sg52_10_cif.got.tgz:18777.got - 2010.06.03 12:15:38.
