data_PCOD9413192
_publ_section_title
;
Structure prediction by ZEFSAII (Michael W. Deem and Ramdas Pophale) SiO2 
 PCOD9413192
Probable space group: P N N A
;
_chemical_formula_sum "Si O2"
_cell_formula_units_Z 48
_cell_length_a 13.264520
_cell_length_b 10.562609
_cell_length_c 15.105268
_cell_angle_alpha 90.000000
_cell_angle_beta 90.000000
_cell_angle_gamma 90.000000
_cell_volume 2116.367957
_symmetry_space_group_name_H-M "P N N A"
_symmetry_group_IT_number 52
_symmetry_cell_setting 'orthorhombic'
loop_
_space_group_symop_operation_xyz
x,y,z
1/2-x,-y,z
x,1/2-y,1/2-z
1/2-x,1/2+y,1/2-z
-x,-y,-z
1/2+x,y,-z
-x,1/2+y,1/2+z
1/2+x,1/2-y,1/2+z
loop_
_atom_site_type_symbol
_atom_site_label
_atom_site_fract_x
_atom_site_fract_y
_atom_site_fract_z
Si Si1 0.636464 0.552185 0.738851
Si Si2 0.519954 0.328312 0.661165
Si Si3 0.907715 0.310171 0.579516
Si Si4 0.304861 0.374812 0.581702
Si Si5 0.131894 0.530933 0.057185
Si Si6 0.889749 0.730142 0.020857
O O1 0.750000 0.500000 0.738695
O O2 0.561031 0.467258 0.680797
O O3 0.637934 0.676594 0.676373
O O4 0.597297 0.537119 0.839601
O O5 0.539264 0.250000 0.750000
O O6 0.401011 0.330375 0.638659
O O7 0.585837 0.274846 0.579524
O O8 0.857437 0.409638 0.512844
O O9 0.882717 0.176097 0.531525
O O10 0.027459 0.301833 0.579765
O O11 0.250000 0.500000 0.617976
O O12 0.216900 0.273940 0.559487
O O13 0.250000 0.500000 0.062233
O O14 0.094426 0.421838 0.990113
#
# Coordination Sequence:
#
# PCOD9413192 Si02
#       6
#     8   8   8   8   8   8
#     4  11  23  37  65  98 130 168 215 280 340 391
#     4  11  23  43  68  95 136 175 220 278 348 402
#     4  11  22  38  63  94 128 167 225 272 330 401
#     4  11  23  41  66  95 132 174 227 280 336 405
#     4  11  22  38  61  91 133 169 212 277 340 399
#     4  11  22  41  65  91 127 175 217 275 332 408
#
# _framework density 22.680367
#
# number of rings (size 3 to 8) (size 9 to 14) (size 15 to 20)
#    0.000    1.000    3.333    4.500    0.000    2.667 
#    0.000    3.333    0.000    0.000    0.000    0.000 
#    0.000    0.000    0.000    0.000    0.000    0.000 
#
# Total GULP energy -267740.935981 kJ/mol
# GULP energy per Si atom -5577.936166 kJ/mol
# Density = 2.262875 g / cm^3
# Si number density = 22.680367 Si / 1000 Ang^3
#
#
#
# Elastic Constant Matrix: (Units=GPa)
#
#
# Indices 1 2 3 4 5 6 
#
# 1 100.4298 3.8646 1.6740 0.0000 0.0000 0.0000
# 2 3.8646 52.5879 -4.1724 0.0000 0.0000 0.0000
# 3 1.6740 -4.1724 57.4039 0.0000 0.0000 0.0000
# 4 0.0000 0.0000 0.0000 21.8602 0.0000 0.0000
# 5 0.0000 0.0000 0.0000 0.0000 14.6067 0.0000
# 6 0.0000 0.0000 0.0000 0.0000 0.0000 21.3990
#
#
#
# Elastic Compliance Matrix: (Units=1/GPa)
#
#
# Indices 1 2 3 4 5 6 
#
# 1 0.009992 -0.000762 -0.000347 0.000000 0.000000 0.000000
# 2 -0.000762 0.019184 0.001417 0.000000 0.000000 0.000000
# 3 -0.000347 0.001417 0.017534 0.000000 0.000000 0.000000
# 4 0.000000 0.000000 0.000000 0.045745 0.000000 0.000000
# 5 0.000000 0.000000 0.000000 0.000000 0.068462 0.000000
# 6 0.000000 0.000000 0.000000 0.000000 0.000000 0.046731
#
#
# Mechanical properties :
#
#
# Convention : Reuss Voigt Hill
#
# Bulk Modulus (GPa) = 21.13003 23.68377 22.40690
# Shear Modulus (GPa) = 22.44092 25.51022 23.97557
#
# Velocity S-wave (km/s) = 3.14895 3.35740 3.25485
# Velocity P-wave (km/s) = 4.74951 5.04922 4.90166
#
# Compressibility (1/GPa) = 0.04732602
#
# Stress axis : x y z
#
# Youngs Moduli (GPa) = 100.07707 52.12635 57.03366
#
# Poissons Ratio (x) = 0.03971 0.01978
# Poissons Ratio (y) = 0.07624 -0.08079
# Poissons Ratio (z) = 0.03470 -0.07384
#
# Static dielectric constant tensor:
#      x y z
#    x 1.889530 0.000000 0.000000 
#    y 0.000000 2.059270 0.000000 
#    z 0.000000 0.000000 1.832310 
# 
# From -- ./inp_files/32200.got.cif
#   From: 2010.05.17/outbox.cif.g08.bks.cpg/sg52_17_cif.got.tgz:32200.got - 2010.06.03 12:15:38.
