data_PCOD9413853
_publ_section_title
;
Structure prediction by ZEFSAII (Michael W. Deem and Ramdas Pophale) SiO2 
 PCOD9413853
Probable space group: P N N A
;
_chemical_formula_sum "Si O2"
_cell_formula_units_Z 40
_cell_length_a 9.271015
_cell_length_b 16.656929
_cell_length_c 10.811660
_cell_angle_alpha 90.000000
_cell_angle_beta 90.000000
_cell_angle_gamma 90.000000
_cell_volume 1669.608312
_symmetry_space_group_name_H-M "P N N A"
_symmetry_group_IT_number 52
_symmetry_cell_setting 'orthorhombic'
loop_
_space_group_symop_operation_xyz
x,y,z
1/2-x,-y,z
x,1/2-y,1/2-z
1/2-x,1/2+y,1/2-z
-x,-y,-z
1/2+x,y,-z
-x,1/2+y,1/2+z
1/2+x,1/2-y,1/2+z
loop_
_atom_site_type_symbol
_atom_site_label
_atom_site_fract_x
_atom_site_fract_y
_atom_site_fract_z
Si Si1 0.750000 0.500000 0.792795
Si Si2 0.338147 0.164389 0.604793
Si Si3 0.410130 0.918685 0.502730
Si Si4 0.678926 0.317450 0.496798
Si Si5 0.548124 0.250000 0.750000
Si Si6 0.568673 0.571688 0.579335
O O1 0.686684 0.429234 0.879062
O O2 0.621851 0.535583 0.709403
O O3 0.211223 0.098954 0.604571
O O4 0.462880 0.146352 0.503182
O O5 0.258268 0.246633 0.575067
O O6 0.439244 0.176079 0.722243
O O7 0.500000 0.000000 0.500000
O O8 0.634946 0.277992 0.629450
O O9 0.787371 0.390673 0.520670
O O10 0.544328 0.354935 0.423664
O O11 0.500000 0.500000 0.500000
#
# Coordination Sequence:
#
# PCOD9413853 Si02
#       6
#     4   8   8   8   4   8
#     4  12  26  46  80 102 152 196 242 306 384 410
#     4  12  25  47  76 107 148 191 248 304 360 449
#     4  12  25  49  74 110 147 192 250 304 363 446
#     4  12  25  48  73 108 150 190 248 308 361 446
#     4  12  26  46  82 104 152 192 248 304 386 422
#     4  12  25  46  75 108 147 192 248 299 365 443
#
# _framework density 23.957716999999999
#
# number of rings (size 3 to 8) (size 9 to 14) (size 15 to 20)
#    0.000    0.000    8.000    1.200    0.000    1.600 
#    0.000    4.000    0.000    0.000    0.000    0.000 
#    0.000    0.000    0.000    0.000    0.000    0.000 
#
# Total GULP energy -223603.944399 kJ/mol
# GULP energy per Si atom -5590.098610 kJ/mol
# Density = 2.390319 g / cm^3
# Si number density = 23.957717 Si / 1000 Ang^3
#
#
#
# Elastic Constant Matrix: (Units=GPa)
#
#
# Indices 1 2 3 4 5 6 
#
# 1 144.8308 40.1322 25.8619 0.0000 0.0000 0.0000
# 2 40.1322 94.4929 14.7714 0.0000 0.0000 0.0000
# 3 25.8619 14.7714 56.6015 0.0000 0.0000 0.0000
# 4 0.0000 0.0000 0.0000 35.2848 0.0000 0.0000
# 5 0.0000 0.0000 0.0000 0.0000 53.4672 0.0000
# 6 0.0000 0.0000 0.0000 0.0000 0.0000 78.0173
#
#
#
# Elastic Compliance Matrix: (Units=1/GPa)
#
#
# Indices 1 2 3 4 5 6 
#
# 1 0.008284 -0.003051 -0.002989 0.000000 0.000000 0.000000
# 2 -0.003051 0.012157 -0.001779 0.000000 0.000000 0.000000
# 3 -0.002989 -0.001779 0.019497 0.000000 0.000000 0.000000
# 4 0.000000 0.000000 0.000000 0.028341 0.000000 0.000000
# 5 0.000000 0.000000 0.000000 0.000000 0.018703 0.000000
# 6 0.000000 0.000000 0.000000 0.000000 0.000000 0.012818
#
#
# Mechanical properties :
#
#
# Convention : Reuss Voigt Hill
#
# Bulk Modulus (GPa) = 41.15051 50.82846 45.98948
# Shear Modulus (GPa) = 40.47415 47.69786 44.08601
#
# Velocity S-wave (km/s) = 4.11469 4.46681 4.29436
# Velocity P-wave (km/s) = 6.30776 6.91847 6.62016
#
# Compressibility (1/GPa) = 0.02430104
#
# Stress axis : x y z
#
# Youngs Moduli (GPa) = 120.71890 82.25979 51.28970
#
# Poissons Ratio (x) = 0.25097 0.15329
# Poissons Ratio (y) = 0.36831 0.09122
# Poissons Ratio (z) = 0.36079 0.14630
#
# Static dielectric constant tensor:
#      x y z
#    x 1.914310 0.000000 0.000000 
#    y 0.000000 1.651950 0.000000 
#    z 0.000000 0.000000 1.937050 
# 
# From -- ./inp_files/16702.got.cif
#   From: 2010.05.17/outbox.cif.g08.bks.cpg/sg52_9_cif.got.tgz:16702.got - 2010.06.03 12:15:38.
