data_PCOD9413706
_publ_section_title
;
Structure prediction by ZEFSAII (Michael W. Deem and Ramdas Pophale) SiO2 
 PCOD9413706
Probable space group: P N N A
;
_chemical_formula_sum "Si O2"
_cell_formula_units_Z 36
_cell_length_a 12.879749
_cell_length_b 5.265271
_cell_length_c 24.919759
_cell_angle_alpha 90.000000
_cell_angle_beta 90.000000
_cell_angle_gamma 90.000000
_cell_volume 1689.942649
_symmetry_space_group_name_H-M "P N N A"
_symmetry_group_IT_number 52
_symmetry_cell_setting 'orthorhombic'
loop_
_space_group_symop_operation_xyz
x,y,z
1/2-x,-y,z
x,1/2-y,1/2-z
1/2-x,1/2+y,1/2-z
-x,-y,-z
1/2+x,y,-z
-x,1/2+y,1/2+z
1/2+x,1/2-y,1/2+z
loop_
_atom_site_type_symbol
_atom_site_label
_atom_site_fract_x
_atom_site_fract_y
_atom_site_fract_z
Si Si1 0.250000 0.500000 0.382567
Si Si2 0.638708 0.362215 0.805949
Si Si3 0.508018 0.040187 0.393635
Si Si4 0.345084 0.340235 0.026116
Si Si5 0.129636 0.945997 0.920252
O O1 0.335157 0.630165 0.345537
O O2 0.297567 0.293014 0.421723
O O3 0.750000 0.500000 0.796415
O O4 0.599885 0.250000 0.750000
O O5 0.560203 0.536028 0.839499
O O6 0.435442 0.995199 0.446556
O O7 0.563520 0.306986 0.404989
O O8 0.586904 0.805221 0.391090
O O9 0.250000 0.500000 0.000909
O O10 0.378384 0.130554 0.983258
O O11 0.250000 0.000000 0.908908
#
# Coordination Sequence:
#
# PCOD9413706 Si02
#       5
#     4   8   8   8   8
#     4  12  20  40  64 100 150 180 216 270 356 434
#     4  12  25  42  71 103 140 179 218 294 372 438
#     4  12  25  44  68 101 138 184 241 285 346 417
#     4  12  23  39  66 102 147 186 228 277 355 434
#     4  12  27  44  65  96 141 195 241 286 331 400
#
# _framework density 21.302499000000001
#
# number of rings (size 3 to 8) (size 9 to 14) (size 15 to 20)
#    0.000    0.000    6.667    4.667    0.000    0.000 
#    0.000    0.000    0.000    2.667    0.000    0.000 
#    0.000    0.000    0.000    0.000    0.000    0.000 
#
# Total GULP energy -201535.801029 kJ/mol
# GULP energy per Si atom -5598.216695 kJ/mol
# Density = 2.125401 g / cm^3
# Si number density = 21.302499 Si / 1000 Ang^3
#
#
#
# Elastic Constant Matrix: (Units=GPa)
#
#
# Indices 1 2 3 4 5 6 
#
# 1 108.0062 58.3969 46.3945 0.0000 0.0000 0.0000
# 2 58.3969 136.0066 47.3555 0.0000 0.0000 0.0000
# 3 46.3945 47.3555 129.4886 0.0000 0.0000 0.0000
# 4 0.0000 0.0000 0.0000 21.0414 0.0000 0.0000
# 5 0.0000 0.0000 0.0000 0.0000 -31.1450 0.0000
# 6 0.0000 0.0000 0.0000 0.0000 0.0000 53.4573
#
#
#
# Elastic Compliance Matrix: (Units=1/GPa)
#
#
# Indices 1 2 3 4 5 6 
#
# 1 0.013000 -0.004538 -0.002998 0.000000 0.000000 0.000000
# 2 -0.004538 0.010009 -0.002035 0.000000 0.000000 0.000000
# 3 -0.002998 -0.002035 0.009541 0.000000 0.000000 0.000000
# 4 0.000000 0.000000 0.000000 0.047525 0.000000 0.000000
# 5 0.000000 0.000000 0.000000 0.000000 -0.032108 0.000000
# 6 0.000000 0.000000 0.000000 0.000000 0.000000 0.018707
#
#
# Mechanical properties :
#
#
# Convention : Reuss Voigt Hill
#
# Bulk Modulus (GPa) = 74.57699 75.31057 74.94378
# Shear Modulus (GPa) = 55.37948 23.42771 39.40359
#
# Velocity S-wave (km/s) = 5.10423 3.31987 4.30550
# Velocity P-wave (km/s) = 8.35596 7.07990 7.74426
#
# Compressibility (1/GPa) = 0.01340896
#
# Stress axis : x y z
#
# Youngs Moduli (GPa) = 76.92178 99.90536 104.81024
#
# Poissons Ratio (x) = 0.45336 0.31425
# Poissons Ratio (y) = 0.34907 0.21326
# Poissons Ratio (z) = 0.23063 0.20328
#
# Static dielectric constant tensor:
#      x y z
#    x 1.857560 0.000000 0.000000 
#    y 0.000000 1.817790 0.000000 
#    z 0.000000 0.000000 1.739310 
# 
# From -- ./inp_files/39893.got.cif
#   From: 2010.05.17/outbox.cif.g08.bks.cpg/sg52_20_cif.got.tgz:39893.got - 2010.06.03 12:15:38.
