data_PCOD9413721
_publ_section_title
;
Structure prediction by ZEFSAII (Michael W. Deem and Ramdas Pophale) SiO2 
 PCOD9413721
Probable space group: P N N A
;
_chemical_formula_sum "Si O2"
_cell_formula_units_Z 28
_cell_length_a 7.428759
_cell_length_b 12.880609
_cell_length_c 13.245248
_cell_angle_alpha 90.000000
_cell_angle_beta 90.000000
_cell_angle_gamma 90.000000
_cell_volume 1267.397251
_symmetry_space_group_name_H-M "P N N A"
_symmetry_group_IT_number 52
_symmetry_cell_setting 'orthorhombic'
loop_
_space_group_symop_operation_xyz
x,y,z
1/2-x,-y,z
x,1/2-y,1/2-z
1/2-x,1/2+y,1/2-z
-x,-y,-z
1/2+x,y,-z
-x,1/2+y,1/2+z
1/2+x,1/2-y,1/2+z
loop_
_atom_site_type_symbol
_atom_site_label
_atom_site_fract_x
_atom_site_fract_y
_atom_site_fract_z
Si Si1 0.492030 0.104340 0.373533
Si Si2 0.277274 0.715459 0.386748
Si Si3 0.250000 0.500000 0.274184
Si Si4 0.640927 0.816425 0.423394
O O1 0.372387 0.205356 0.344872
O O2 0.417429 0.013960 0.303023
O O3 0.439608 0.103599 0.492853
O O4 0.798463 0.871750 0.362762
O O5 0.263994 0.601046 0.343852
O O6 0.473297 0.764739 0.368930
O O7 0.240382 0.728135 0.507494
#
# Coordination Sequence:
#
# PCOD9413721 Si02
#       4
#     8   8   4   8
#     4   9  19  39  59  84 115 160 191 249 283 357
#     4   9  19  39  59  84 115 160 191 249 283 357
#     4  12  22  32  62  94 128 140 198 256 310 318
#     4   8  18  41  65  72 118 166 202 218 298 358
#
# _framework density 22.092521000000001
#
# number of rings (size 3 to 8) (size 9 to 14) (size 15 to 20)
#    1.714    1.143    0.000    0.857    0.000    2.286 
#    0.000    8.571    0.000    0.000    0.000    0.000 
#    0.000    0.000    0.000    0.000    0.000    0.000 
#
# Total GULP energy -156112.596827 kJ/mol
# GULP energy per Si atom -5575.449887 kJ/mol
# Density = 2.204224 g / cm^3
# Si number density = 22.092521 Si / 1000 Ang^3
#
#
#
# Elastic Constant Matrix: (Units=GPa)
#
#
# Indices 1 2 3 4 5 6 
#
# 1 163.1070 49.9330 15.1657 0.0000 0.0000 0.0000
# 2 49.9330 139.3285 37.1555 0.0000 0.0000 0.0000
# 3 15.1657 37.1555 59.1220 0.0000 0.0000 0.0000
# 4 0.0000 0.0000 0.0000 17.4887 0.0000 0.0000
# 5 0.0000 0.0000 0.0000 0.0000 -31.3633 0.0000
# 6 0.0000 0.0000 0.0000 0.0000 0.0000 -205.3350
#
#
#
# Elastic Compliance Matrix: (Units=1/GPa)
#
#
# Indices 1 2 3 4 5 6 
#
# 1 0.006890 -0.002400 -0.000259 0.000000 0.000000 0.000000
# 2 -0.002400 0.009458 -0.005329 0.000000 0.000000 0.000000
# 3 -0.000259 -0.005329 0.020329 0.000000 0.000000 0.000000
# 4 0.000000 0.000000 0.000000 0.057180 0.000000 0.000000
# 5 0.000000 0.000000 0.000000 0.000000 -0.031884 0.000000
# 6 0.000000 0.000000 0.000000 0.000000 0.000000 -0.004870
#
#
# Mechanical properties :
#
#
# Convention : Reuss Voigt Hill
#
# Bulk Modulus (GPa) = 48.30374 62.89621 55.59997
# Shear Modulus (GPa) = 62.51660 -26.55501 17.98079
#
# Velocity S-wave (km/s) = 5.32532 -3.47074 2.85596
# Velocity P-wave (km/s) = 7.72812 3.53128 6.00807
#
# Compressibility (1/GPa) = 0.02070233
#
# Stress axis : x y z
#
# Youngs Moduli (GPa) = 145.14234 105.72572 49.18998
#
# Poissons Ratio (x) = 0.25376 0.01274
# Poissons Ratio (y) = 0.34836 0.26211
# Poissons Ratio (z) = 0.03759 0.56336
#
# Static dielectric constant tensor:
#      x y z
#    x 1.797820 0.000000 0.000000 
#    y 0.000000 1.796880 0.000000 
#    z 0.000000 0.000000 1.906730 
# 
# From -- ./inp_files/30733.got.cif
#   From: 2010.05.17/outbox.cif.g08.bks.cpg/sg52_16_cif.got.tgz:30733.got - 2010.06.03 12:15:38.
