data_PCOD9413095
_publ_section_title
;
Structure prediction by ZEFSAII (Michael W. Deem and Ramdas Pophale) SiO2 
 PCOD9413095
Probable space group: P N N A
;
_chemical_formula_sum "Si O2"
_cell_formula_units_Z 40
_cell_length_a 9.160507
_cell_length_b 14.083028
_cell_length_c 12.980491
_cell_angle_alpha 90.000000
_cell_angle_beta 90.000000
_cell_angle_gamma 90.000000
_cell_volume 1674.582985
_symmetry_space_group_name_H-M "P N N A"
_symmetry_group_IT_number 52
_symmetry_cell_setting 'orthorhombic'
loop_
_space_group_symop_operation_xyz
x,y,z
1/2-x,-y,z
x,1/2-y,1/2-z
1/2-x,1/2+y,1/2-z
-x,-y,-z
1/2+x,y,-z
-x,1/2+y,1/2+z
1/2+x,1/2-y,1/2+z
loop_
_atom_site_type_symbol
_atom_site_label
_atom_site_fract_x
_atom_site_fract_y
_atom_site_fract_z
Si Si1 0.419605 0.479006 0.194311
Si Si2 0.827510 0.900554 0.423168
Si Si3 0.125011 0.647976 0.737710
Si Si4 0.790258 0.694290 0.473116
Si Si5 0.436153 0.414578 0.426086
O O1 0.250000 0.500000 0.177168
O O2 0.503888 0.424448 0.102234
O O3 0.509529 0.574572 0.218557
O O4 0.444276 0.430910 0.305060
O O5 0.762252 0.868149 0.312558
O O6 0.787072 0.807677 0.490110
O O7 0.750000 0.000000 0.450399
O O8 0.054731 0.750000 0.750000
O O9 0.194008 0.653849 0.623735
O O10 0.728157 0.622499 0.557729
O O11 0.958049 0.672356 0.452795
O O12 0.500000 0.500000 0.500000
#
# Coordination Sequence:
#
# PCOD9413095 Si02
#       5
#     8   8   8   8   8
#     4  11  21  36  58  94 124 157 209 272 317 364
#     4   9  20  41  66  84 114 169 219 257 306 382
#     4   9  18  36  59  84 121 166 208 248 306 382
#     4  11  22  39  59  90 125 170 207 252 327 379
#     4  12  23  35  58  90 132 164 199 253 321 385
#
# _framework density 23.886544000000001
#
# number of rings (size 3 to 8) (size 9 to 14) (size 15 to 20)
#    0.000    1.600    4.000    1.800    0.000    0.000 
#    3.600    3.000    0.000    0.000    0.000    0.000 
#    0.000    0.000    0.000    0.000    0.000    0.000 
#
# Total GULP energy -223144.143687 kJ/mol
# GULP energy per Si atom -5578.603592 kJ/mol
# Density = 2.383218 g / cm^3
# Si number density = 23.886544 Si / 1000 Ang^3
#
#
#
# Elastic Constant Matrix: (Units=GPa)
#
#
# Indices 1 2 3 4 5 6 
#
# 1 127.0931 23.0837 -6.7162 0.0000 0.0000 0.0000
# 2 23.0837 128.1977 9.6599 0.0000 0.0000 0.0000
# 3 -6.7162 9.6599 48.9511 0.0000 0.0000 0.0000
# 4 0.0000 0.0000 0.0000 8.7943 0.0000 0.0000
# 5 0.0000 0.0000 0.0000 0.0000 3.3300 0.0000
# 6 0.0000 0.0000 0.0000 0.0000 0.0000 73.3260
#
#
#
# Elastic Compliance Matrix: (Units=1/GPa)
#
#
# Indices 1 2 3 4 5 6 
#
# 1 0.008234 -0.001591 0.001444 0.000000 0.000000 0.000000
# 2 -0.001591 0.008226 -0.001842 0.000000 0.000000 0.000000
# 3 0.001444 -0.001842 0.020990 0.000000 0.000000 0.000000
# 4 0.000000 0.000000 0.000000 0.113710 0.000000 0.000000
# 5 0.000000 0.000000 0.000000 0.000000 0.300304 0.000000
# 6 0.000000 0.000000 0.000000 0.000000 0.000000 0.013638
#
#
# Mechanical properties :
#
#
# Convention : Reuss Voigt Hill
#
# Bulk Modulus (GPa) = 29.87671 39.58851 34.73261
# Shear Modulus (GPa) = 10.41153 35.63769 23.02461
#
# Velocity S-wave (km/s) = 2.09003 3.86678 3.10807
# Velocity P-wave (km/s) = 4.28476 6.04529 5.23950
#
# Compressibility (1/GPa) = 0.03347088
#
# Stress axis : x y z
#
# Youngs Moduli (GPa) = 121.45400 121.56928 47.64167
#
# Poissons Ratio (x) = 0.19346 -0.06878
# Poissons Ratio (y) = 0.19328 0.08774
# Poissons Ratio (z) = -0.17534 0.22388
#
# Static dielectric constant tensor:
#      x y z
#    x 2.001810 0.000000 0.000000 
#    y 0.000000 2.130460 0.000000 
#    z 0.000000 0.000000 1.767560 
# 
# From -- ./inp_files/24394.got.cif
#   From: 2010.05.17/outbox.cif.g08.bks.cpg/sg52_13_cif.got.tgz:24394.got - 2010.06.03 12:15:38.
