data_PCOD9413939
_publ_section_title
;
Structure prediction by ZEFSAII (Michael W. Deem and Ramdas Pophale) SiO2 
 PCOD9413939
Probable space group: P N N A
;
_chemical_formula_sum "Si O2"
_cell_formula_units_Z 28
_cell_length_a 11.557795
_cell_length_b 7.196459
_cell_length_c 13.902712
_cell_angle_alpha 90.000000
_cell_angle_beta 90.000000
_cell_angle_gamma 90.000000
_cell_volume 1156.360821
_symmetry_space_group_name_H-M "P N N A"
_symmetry_group_IT_number 52
_symmetry_cell_setting 'orthorhombic'
loop_
_space_group_symop_operation_xyz
x,y,z
1/2-x,-y,z
x,1/2-y,1/2-z
1/2-x,1/2+y,1/2-z
-x,-y,-z
1/2+x,y,-z
-x,1/2+y,1/2+z
1/2+x,1/2-y,1/2+z
loop_
_atom_site_type_symbol
_atom_site_label
_atom_site_fract_x
_atom_site_fract_y
_atom_site_fract_z
Si Si1 0.750000 0.000000 0.152200
Si Si2 0.884900 0.463669 0.631793
Si Si3 0.048966 0.533763 0.786809
Si Si4 0.570253 0.748748 0.457198
O O1 0.564377 0.943437 0.400631
O O2 0.686541 0.851631 0.084379
O O3 0.750000 0.500000 0.629243
O O4 0.918158 0.281703 0.570477
O O5 0.930810 0.464117 0.740506
O O6 0.958187 0.628070 0.577655
O O7 0.058807 0.750000 0.750000
O O8 0.149465 0.437327 0.725152
#
# Coordination Sequence:
#
# PCOD9413939 Si02
#       4
#     4   8   8   8
#     4   8  12  24  40  60  90 124 156 194 236 282
#     4   9  15  25  44  69  97 128 164 205 242 302
#     4   8  16  26  42  69 101 126 159 209 252 290
#     4   9  16  26  43  71 101 126 160 211 251 292
#
# _framework density 24.213895000000001
#
# number of rings (size 3 to 8) (size 9 to 14) (size 15 to 20)
#    0.000    4.000    1.429    0.000    0.000    0.000 
#    0.000    0.000    0.000   61.714    0.000   18.000 
#    0.000    0.000    0.000    0.000    0.000    0.000 
#
# Total GULP energy -156034.820295 kJ/mol
# GULP energy per Si atom -5572.672153 kJ/mol
# Density = 2.415878 g / cm^3
# Si number density = 24.213895 Si / 1000 Ang^3
#
#
#
# Elastic Constant Matrix: (Units=GPa)
#
#
# Indices 1 2 3 4 5 6 
#
# 1 166.7787 28.6749 33.7852 0.0000 0.0000 0.0000
# 2 28.6749 76.2000 21.4142 0.0000 0.0000 0.0000
# 3 33.7852 21.4142 122.9325 0.0000 0.0000 0.0000
# 4 0.0000 0.0000 0.0000 10.3619 0.0000 0.0000
# 5 0.0000 0.0000 0.0000 0.0000 49.5000 0.0000
# 6 0.0000 0.0000 0.0000 0.0000 0.0000 4.4920
#
#
#
# Elastic Compliance Matrix: (Units=1/GPa)
#
#
# Indices 1 2 3 4 5 6 
#
# 1 0.006652 -0.002092 -0.001464 0.000000 0.000000 0.000000
# 2 -0.002092 0.014457 -0.001943 0.000000 0.000000 0.000000
# 3 -0.001464 -0.001943 0.008875 0.000000 0.000000 0.000000
# 4 0.000000 0.000000 0.000000 0.096507 0.000000 0.000000
# 5 0.000000 0.000000 0.000000 0.000000 0.020202 0.000000
# 6 0.000000 0.000000 0.000000 0.000000 0.000000 0.222616
#
#
# Mechanical properties :
#
#
# Convention : Reuss Voigt Hill
#
# Bulk Modulus (GPa) = 52.67018 59.29554 55.98286
# Shear Modulus (GPa) = 12.93206 31.67326 22.30266
#
# Velocity S-wave (km/s) = 2.31352 3.62064 3.03820
# Velocity P-wave (km/s) = 5.37920 6.48229 5.95633
#
# Compressibility (1/GPa) = 0.01898607
#
# Stress axis : x y z
#
# Youngs Moduli (GPa) = 150.32689 69.17201 112.67152
#
# Poissons Ratio (x) = 0.14470 0.16493
# Poissons Ratio (y) = 0.31447 0.21896
# Poissons Ratio (z) = 0.22005 0.13443
#
# Static dielectric constant tensor:
#      x y z
#    x 1.946060 0.000000 0.000000 
#    y 0.000000 1.990210 0.000000 
#    z 0.000000 0.000000 2.054250 
# 
# From -- ./inp_files/25668.got.cif
#   From: 2010.05.17/outbox.cif.g08.bks.cpg/sg52_13_cif.got.tgz:25668.got - 2010.06.03 12:15:38.
