data_PCOD9413399
_publ_section_title
;
Structure prediction by ZEFSAII (Michael W. Deem and Ramdas Pophale) SiO2 
 PCOD9413399
Probable space group: P N N A
;
_chemical_formula_sum "Si O2"
_cell_formula_units_Z 48
_cell_length_a 21.105622
_cell_length_b 11.163075
_cell_length_c 8.314857
_cell_angle_alpha 90.000000
_cell_angle_beta 90.000000
_cell_angle_gamma 90.000000
_cell_volume 1959.010586
_symmetry_space_group_name_H-M "P N N A"
_symmetry_group_IT_number 52
_symmetry_cell_setting 'orthorhombic'
loop_
_space_group_symop_operation_xyz
x,y,z
1/2-x,-y,z
x,1/2-y,1/2-z
1/2-x,1/2+y,1/2-z
-x,-y,-z
1/2+x,y,-z
-x,1/2+y,1/2+z
1/2+x,1/2-y,1/2+z
loop_
_atom_site_type_symbol
_atom_site_label
_atom_site_fract_x
_atom_site_fract_y
_atom_site_fract_z
Si Si1 0.576549 0.181341 0.607700
Si Si2 0.196643 0.229155 0.557101
Si Si3 0.719459 0.750000 0.750000
Si Si4 0.116127 0.563864 0.171954
Si Si5 0.975065 0.888672 0.290330
Si Si6 0.380985 0.108297 0.710379
Si Si7 0.750000 0.000000 0.322343
O O1 0.542917 0.250000 0.750000
O O2 0.626436 0.256991 0.504413
O O3 0.531003 0.116635 0.484336
O O4 0.619006 0.078560 0.687893
O O5 0.202541 0.250000 0.750000
O O6 0.241708 0.271129 0.414366
O O7 0.211976 0.088946 0.563915
O O8 0.673760 0.635849 0.757927
O O9 0.048350 0.594507 0.252742
O O10 0.115970 0.600765 0.983663
O O11 0.958888 0.750000 0.250000
O O12 0.929715 0.000033 0.235417
O O13 0.390866 0.250000 0.750000
O O14 0.308815 0.068722 0.764250
#
# Coordination Sequence:
#
# PCOD9413399 Si02
#       7
#     8   8   4   8   8   8   4
#     4  11  23  45  71 105 146 198 259 315 391 459
#     4  12  24  45  71 107 148 195 247 319 384 463
#     4  12  24  46  74 108 148 198 264 304 394 458
#     4  11  24  45  71 100 152 203 249 322 387 454
#     4  11  24  46  74 105 148 205 259 315 383 455
#     4  11  24  43  74 106 149 196 247 315 390 454
#     4  12  22  42  70 100 152 192 236 308 394 442
#
# _framework density 24.502165000000002
#
# number of rings (size 3 to 8) (size 9 to 14) (size 15 to 20)
#    0.000    0.667    6.667    3.000    0.000    3.333 
#    6.000    1.667    0.000    0.000    0.000    0.000 
#    0.000    0.000    0.000    0.000    0.000    0.000 
#
# Total GULP energy -267570.598492 kJ/mol
# GULP energy per Si atom -5574.387469 kJ/mol
# Density = 2.444640 g / cm^3
# Si number density = 24.502165 Si / 1000 Ang^3
#
#
#
# Elastic Constant Matrix: (Units=GPa)
#
#
# Indices 1 2 3 4 5 6 
#
# 1 160.1051 35.3543 52.3771 0.0000 0.0000 0.0000
# 2 35.3543 121.1482 56.1265 0.0000 0.0000 0.0000
# 3 52.3771 56.1265 94.6792 0.0000 0.0000 0.0000
# 4 0.0000 0.0000 0.0000 35.4961 0.0000 0.0000
# 5 0.0000 0.0000 0.0000 0.0000 -36.5714 0.0000
# 6 0.0000 0.0000 0.0000 0.0000 0.0000 16.6262
#
#
#
# Elastic Compliance Matrix: (Units=1/GPa)
#
#
# Indices 1 2 3 4 5 6 
#
# 1 0.007638 -0.000374 -0.004004 0.000000 0.000000 0.000000
# 2 -0.000374 0.011398 -0.006550 0.000000 0.000000 0.000000
# 3 -0.004004 -0.006550 0.016660 0.000000 0.000000 0.000000
# 4 0.000000 0.000000 0.000000 0.028172 0.000000 0.000000
# 5 0.000000 0.000000 0.000000 0.000000 -0.027344 0.000000
# 6 0.000000 0.000000 0.000000 0.000000 0.000000 0.060146
#
#
# Mechanical properties :
#
#
# Convention : Reuss Voigt Hill
#
# Bulk Modulus (GPa) = 72.25179 73.73871 72.99525
# Shear Modulus (GPa) = 40.60444 18.58183 29.59313
#
# Velocity S-wave (km/s) = 4.07526 2.75685 3.47908
# Velocity P-wave (km/s) = 7.18997 6.34773 6.78194
#
# Compressibility (1/GPa) = 0.01384049
#
# Stress axis : x y z
#
# Youngs Moduli (GPa) = 130.91882 87.73467 60.02518
#
# Poissons Ratio (x) = 0.03283 0.24033
# Poissons Ratio (y) = 0.04899 0.39315
# Poissons Ratio (z) = 0.52417 0.57465
#
# Static dielectric constant tensor:
#      x y z
#    x 2.019380 0.000000 0.000000 
#    y 0.000000 2.003620 0.000000 
#    z 0.000000 0.000000 2.032310 
# 
# From -- ./inp_files/14309.got.cif
#   From: 2010.05.17/outbox.cif.g08.bks.cpg/sg52_8_cif.got.tgz:14309.got - 2010.06.03 12:15:38.
