data_PCOD9413059
_publ_section_title
;
Structure prediction by ZEFSAII (Michael W. Deem and Ramdas Pophale) SiO2 
 PCOD9413059
Probable space group: P N N A
;
_chemical_formula_sum "Si O2"
_cell_formula_units_Z 40
_cell_length_a 17.501709
_cell_length_b 9.013860
_cell_length_c 10.477915
_cell_angle_alpha 90.000000
_cell_angle_beta 90.000000
_cell_angle_gamma 90.000000
_cell_volume 1652.974440
_symmetry_space_group_name_H-M "P N N A"
_symmetry_group_IT_number 52
_symmetry_cell_setting 'orthorhombic'
loop_
_space_group_symop_operation_xyz
x,y,z
1/2-x,-y,z
x,1/2-y,1/2-z
1/2-x,1/2+y,1/2-z
-x,-y,-z
1/2+x,y,-z
-x,1/2+y,1/2+z
1/2+x,1/2-y,1/2+z
loop_
_atom_site_type_symbol
_atom_site_label
_atom_site_fract_x
_atom_site_fract_y
_atom_site_fract_z
Si Si1 0.260058 0.323640 0.380549
Si Si2 0.853034 0.837608 0.454702
Si Si3 0.973853 0.582131 0.234949
Si Si4 0.512118 0.306706 0.612207
Si Si5 0.897023 0.134430 0.551150
O O1 0.250000 0.500000 0.373396
O O2 0.227246 0.250000 0.250000
O O3 0.219672 0.260492 0.508798
O O4 0.346827 0.264723 0.387563
O O5 0.887978 0.896588 0.319682
O O6 0.921562 0.734600 0.512691
O O7 0.842442 0.995816 0.523042
O O8 0.999726 0.750000 0.250000
O O9 0.987392 0.475402 0.354370
O O10 0.035510 0.546689 0.125465
O O11 0.538257 0.250000 0.750000
O O12 0.438178 0.213866 0.567941
#
# Coordination Sequence:
#
# PCOD9413059 Si02
#       5
#     8   8   8   8   8
#     4  12  28  44  66  94 136 176 220 277 340 397
#     4  11  23  42  66  98 131 176 222 276 328 405
#     4  11  24  38  68 101 134 169 222 275 335 389
#     4  11  20  40  71  98 132 172 218 273 334 393
#     4  11  23  42  67  98 131 173 226 271 331 403
#
# _framework density 24.198799999999999
#
# number of rings (size 3 to 8) (size 9 to 14) (size 15 to 20)
#    0.000    0.800    4.000    4.200    8.400    1.600 
#    0.000    1.000    0.000    0.000    0.000    0.000 
#    0.000    0.000    0.000    0.000    0.000    0.000 
#
# Total GULP energy -222966.918935 kJ/mol
# GULP energy per Si atom -5574.172973 kJ/mol
# Density = 2.414372 g / cm^3
# Si number density = 24.198800 Si / 1000 Ang^3
#
#
#
# Elastic Constant Matrix: (Units=GPa)
#
#
# Indices 1 2 3 4 5 6 
#
# 1 82.2912 25.3299 21.4034 0.0000 0.0000 0.0000
# 2 25.3299 198.8834 29.3069 0.0000 0.0000 0.0000
# 3 21.4034 29.3069 56.4287 0.0000 0.0000 0.0000
# 4 0.0000 0.0000 0.0000 50.3726 0.0000 0.0000
# 5 0.0000 0.0000 0.0000 0.0000 14.7867 0.0000
# 6 0.0000 0.0000 0.0000 0.0000 0.0000 37.6762
#
#
#
# Elastic Compliance Matrix: (Units=1/GPa)
#
#
# Indices 1 2 3 4 5 6 
#
# 1 0.013685 -0.001059 -0.004641 0.000000 0.000000 0.000000
# 2 -0.001059 0.005527 -0.002469 0.000000 0.000000 0.000000
# 3 -0.004641 -0.002469 0.020764 0.000000 0.000000 0.000000
# 4 0.000000 0.000000 0.000000 0.019852 0.000000 0.000000
# 5 0.000000 0.000000 0.000000 0.000000 0.067628 0.000000
# 6 0.000000 0.000000 0.000000 0.000000 0.000000 0.026542
#
#
# Mechanical properties :
#
#
# Convention : Reuss Voigt Hill
#
# Bulk Modulus (GPa) = 42.30352 54.40930 48.35641
# Shear Modulus (GPa) = 28.05616 38.00465 33.03040
#
# Velocity S-wave (km/s) = 3.40869 3.96728 3.69855
# Velocity P-wave (km/s) = 5.74560 6.59688 6.18590
#
# Compressibility (1/GPa) = 0.02363869
#
# Stress axis : x y z
#
# Youngs Moduli (GPa) = 73.07290 180.93876 48.16077
#
# Poissons Ratio (x) = 0.19163 0.22350
# Poissons Ratio (y) = 0.07739 0.11889
# Poissons Ratio (z) = 0.33911 0.44667
#
# Static dielectric constant tensor:
#      x y z
#    x 1.924040 0.000000 0.000000 
#    y 0.000000 2.073490 0.000000 
#    z 0.000000 0.000000 2.206900 
# 
# From -- ./inp_files/20333.got.cif
#   From: 2010.05.17/outbox.cif.g08.bks.cpg/sg52_11_cif.got.tgz:20333.got - 2010.06.03 12:15:38.
