data_PCOD9413221
_publ_section_title
;
Structure prediction by ZEFSAII (Michael W. Deem and Ramdas Pophale) SiO2 
 PCOD9413221
Probable space group: P N N A
;
_chemical_formula_sum "Si O2"
_cell_formula_units_Z 48
_cell_length_a 15.022398
_cell_length_b 17.260554
_cell_length_c 9.381008
_cell_angle_alpha 90.000000
_cell_angle_beta 90.000000
_cell_angle_gamma 90.000000
_cell_volume 2432.447643
_symmetry_space_group_name_H-M "P N N A"
_symmetry_group_IT_number 52
_symmetry_cell_setting 'orthorhombic'
loop_
_space_group_symop_operation_xyz
x,y,z
1/2-x,-y,z
x,1/2-y,1/2-z
1/2-x,1/2+y,1/2-z
-x,-y,-z
1/2+x,y,-z
-x,1/2+y,1/2+z
1/2+x,1/2-y,1/2+z
loop_
_atom_site_type_symbol
_atom_site_label
_atom_site_fract_x
_atom_site_fract_y
_atom_site_fract_z
Si Si1 0.479563 0.234836 0.079799
Si Si2 0.704865 0.680496 0.496418
Si Si3 0.567677 0.429363 0.496714
Si Si4 0.280742 0.918691 0.763620
Si Si5 0.211187 0.083961 0.238616
Si Si6 0.653728 0.185607 0.493276
O O1 0.478185 0.250000 0.250000
O O2 0.516672 0.149419 0.043186
O O3 0.380439 0.234525 0.016669
O O4 0.549319 0.294506 0.010258
O O5 0.706197 0.626719 0.356293
O O6 0.717558 0.626480 0.635119
O O7 0.792489 0.733791 0.488437
O O8 0.500000 0.500000 0.500000
O O9 0.643581 0.440150 0.377913
O O10 0.622097 0.424415 0.643919
O O11 0.320244 0.861816 0.646889
O O12 0.250000 0.000000 0.699041
O O13 0.187006 0.137536 0.371471
O O14 0.250000 0.000000 0.277799
#
# Coordination Sequence:
#
# PCOD9413221 Si02
#       6
#     8   8   8   8   8   8
#     4  12  22  41  68  97 132 174 219 278 330 391
#     4  11  23  42  71  93 127 179 225 257 329 405
#     4  11  22  40  67  95 126 173 229 262 321 398
#     4  11  22  43  66  95 136 171 217 277 329 391
#     4  11  23  42  66  95 136 173 220 275 333 396
#     4  12  23  44  64 100 134 171 215 283 335 386
#
# _framework density 19.73321
#
# number of rings (size 3 to 8) (size 9 to 14) (size 15 to 20)
#    0.000    0.667    5.000    6.500    0.000    0.000 
#    9.000    0.833    0.000    0.000    0.000    0.000 
#    0.000    0.000    0.000    0.000    0.000    0.000 
#
# Total GULP energy -268394.779553 kJ/mol
# GULP energy per Si atom -5591.557907 kJ/mol
# Density = 1.968830 g / cm^3
# Si number density = 19.733210 Si / 1000 Ang^3
#
#
#
# Elastic Constant Matrix: (Units=GPa)
#
#
# Indices 1 2 3 4 5 6 
#
# 1 82.3918 14.1356 15.8673 0.0000 0.0000 0.0000
# 2 14.1356 101.3267 38.7164 0.0000 0.0000 0.0000
# 3 15.8673 38.7164 62.0111 0.0000 0.0000 0.0000
# 4 0.0000 0.0000 0.0000 50.2675 0.0000 0.0000
# 5 0.0000 0.0000 0.0000 0.0000 10.1211 0.0000
# 6 0.0000 0.0000 0.0000 0.0000 0.0000 46.0444
#
#
#
# Elastic Compliance Matrix: (Units=1/GPa)
#
#
# Indices 1 2 3 4 5 6 
#
# 1 0.012804 -0.000702 -0.002838 0.000000 0.000000 0.000000
# 2 -0.000702 0.013000 -0.007937 0.000000 0.000000 0.000000
# 3 -0.002838 -0.007937 0.021808 0.000000 0.000000 0.000000
# 4 0.000000 0.000000 0.000000 0.019894 0.000000 0.000000
# 5 0.000000 0.000000 0.000000 0.000000 0.098803 0.000000
# 6 0.000000 0.000000 0.000000 0.000000 0.000000 0.021718
#
#
# Mechanical properties :
#
#
# Convention : Reuss Voigt Hill
#
# Bulk Modulus (GPa) = 40.55465 42.57424 41.56445
# Shear Modulus (GPa) = 22.81035 33.08729 27.94882
#
# Velocity S-wave (km/s) = 3.40360 4.09923 3.76750
# Velocity P-wave (km/s) = 6.00350 6.63526 6.32727
#
# Compressibility (1/GPa) = 0.02465808
#
# Stress axis : x y z
#
# Youngs Moduli (GPa) = 78.09990 76.92595 45.85566
#
# Poissons Ratio (x) = 0.05399 0.13014
# Poissons Ratio (y) = 0.05481 0.36394
# Poissons Ratio (z) = 0.22166 0.61053
#
# Static dielectric constant tensor:
#      x y z
#    x 1.693950 0.000000 0.000000 
#    y 0.000000 1.695060 0.000000 
#    z 0.000000 0.000000 1.672880 
# 
# From -- ./inp_files/10486.got.cif
#   From: 2010.05.17/outbox.cif.g08.bks.cpg/sg52_6_cif.got.tgz:10486.got - 2010.06.03 12:15:38.
