data_PCOD9413643
_publ_section_title
;
Structure prediction by ZEFSAII (Michael W. Deem and Ramdas Pophale) SiO2 
 PCOD9413643
Probable space group: P N N A
;
_chemical_formula_sum "Si O2"
_cell_formula_units_Z 24
_cell_length_a 8.630803
_cell_length_b 4.732577
_cell_length_c 22.372744
_cell_angle_alpha 90.000000
_cell_angle_beta 90.000000
_cell_angle_gamma 90.000000
_cell_volume 913.835754
_symmetry_space_group_name_H-M "P N N A"
_symmetry_group_IT_number 52
_symmetry_cell_setting 'orthorhombic'
loop_
_space_group_symop_operation_xyz
x,y,z
1/2-x,-y,z
x,1/2-y,1/2-z
1/2-x,1/2+y,1/2-z
-x,-y,-z
1/2+x,y,-z
-x,1/2+y,1/2+z
1/2+x,1/2-y,1/2+z
loop_
_atom_site_type_symbol
_atom_site_label
_atom_site_fract_x
_atom_site_fract_y
_atom_site_fract_z
Si Si1 0.250000 0.000000 0.026720
Si Si2 0.250000 0.500000 0.937774
Si Si3 0.250000 0.000000 0.793635
Si Si4 0.998527 0.100986 0.878427
Si Si5 0.750000 0.500000 0.712004
O O1 0.101671 0.044399 0.069493
O O2 0.203108 0.747454 0.983317
O O3 0.106584 0.354019 0.902635
O O4 0.199404 0.250000 0.750000
O O5 0.115202 0.911020 0.839375
O O6 0.868419 0.172795 0.829712
O O7 0.828141 0.750000 0.750000
#
# Coordination Sequence:
#
# PCOD9413643 Si02
#       5
#     4   4   4   8   4
#     4  11  27  46  72 104 144 190 243 299 364 440
#     4  12  25  45  72 108 144 189 243 302 364 438
#     4  12  26  44  69 102 139 182 236 298 364 434
#     4  11  26  46  73 105 144 191 243 303 369 441
#     4  11  26  47  73 106 145 193 248 307 374 448
#
# _framework density 26.262927000000001
#
# number of rings (size 3 to 8) (size 9 to 14) (size 15 to 20)
#    0.000    0.667    0.000    6.000    0.000   16.000 
#    0.000    0.000    0.000    0.000    0.000    0.000 
#    0.000    0.000    0.000    0.000    0.000    0.000 
#
# Total GULP energy -134241.517210 kJ/mol
# GULP energy per Si atom -5593.396550 kJ/mol
# Density = 2.620315 g / cm^3
# Si number density = 26.262927 Si / 1000 Ang^3
#
#
#
# Elastic Constant Matrix: (Units=GPa)
#
#
# Indices 1 2 3 4 5 6 
#
# 1 177.6154 29.8192 92.5858 0.0000 0.0000 0.0000
# 2 29.8192 80.7995 56.9232 0.0000 0.0000 0.0000
# 3 92.5858 56.9232 160.5357 0.0000 0.0000 0.0000
# 4 0.0000 0.0000 0.0000 24.3562 0.0000 0.0000
# 5 0.0000 0.0000 0.0000 0.0000 69.1962 0.0000
# 6 0.0000 0.0000 0.0000 0.0000 0.0000 38.4472
#
#
#
# Elastic Compliance Matrix: (Units=1/GPa)
#
#
# Indices 1 2 3 4 5 6 
#
# 1 0.008060 0.000400 -0.004790 0.000000 0.000000 0.000000
# 2 0.000400 0.016517 -0.006088 0.000000 0.000000 0.000000
# 3 -0.004790 -0.006088 0.011150 0.000000 0.000000 0.000000
# 4 0.000000 0.000000 0.000000 0.041057 0.000000 0.000000
# 5 0.000000 0.000000 0.000000 0.000000 0.014452 0.000000
# 6 0.000000 0.000000 0.000000 0.000000 0.000000 0.026010
#
#
# Mechanical properties :
#
#
# Convention : Reuss Voigt Hill
#
# Bulk Modulus (GPa) = 67.69404 86.40078 77.04741
# Shear Modulus (GPa) = 34.93424 42.37474 38.65449
#
# Velocity S-wave (km/s) = 3.65111 4.02117 3.84060
# Velocity P-wave (km/s) = 6.60345 7.38442 7.00483
#
# Compressibility (1/GPa) = 0.01477235
#
# Stress axis : x y z
#
# Youngs Moduli (GPa) = 124.06884 60.54258 89.68233
#
# Poissons Ratio (x) = -0.02423 0.42961
# Poissons Ratio (y) = -0.04966 0.54595
# Poissons Ratio (z) = 0.59434 0.36856
#
# Static dielectric constant tensor:
#      x y z
#    x 2.078820 0.000000 0.000000 
#    y 0.000000 1.945790 0.000000 
#    z 0.000000 0.000000 2.056010 
# 
# From -- ./inp_files/39072.got.cif
#   From: 2010.05.17/outbox.cif.g08.bks.cpg/sg52_20_cif.got.tgz:39072.got - 2010.06.03 12:15:38.
