data_PCOD9413565
_publ_section_title
;
Structure prediction by ZEFSAII (Michael W. Deem and Ramdas Pophale) SiO2 
 PCOD9413565
Probable space group: P N N A
;
_chemical_formula_sum "Si O2"
_cell_formula_units_Z 40
_cell_length_a 19.909417
_cell_length_b 11.291659
_cell_length_c 8.493697
_cell_angle_alpha 90.000000
_cell_angle_beta 90.000000
_cell_angle_gamma 90.000000
_cell_volume 1909.470975
_symmetry_space_group_name_H-M "P N N A"
_symmetry_group_IT_number 52
_symmetry_cell_setting 'orthorhombic'
loop_
_space_group_symop_operation_xyz
x,y,z
1/2-x,-y,z
x,1/2-y,1/2-z
1/2-x,1/2+y,1/2-z
-x,-y,-z
1/2+x,y,-z
-x,1/2+y,1/2+z
1/2+x,1/2-y,1/2+z
loop_
_atom_site_type_symbol
_atom_site_label
_atom_site_fract_x
_atom_site_fract_y
_atom_site_fract_z
Si Si1 0.495714 0.810922 0.950242
Si Si2 0.605959 0.829217 0.409621
Si Si3 0.755484 0.633404 0.136061
Si Si4 0.505977 0.478846 0.759395
Si Si5 0.121906 0.336478 0.100086
O O1 0.493097 0.889076 0.795820
O O2 0.565734 0.742825 0.960732
O O3 0.497370 0.898029 0.102552
O O4 0.431460 0.731853 0.989215
O O5 0.607836 0.750000 0.250000
O O6 0.682612 0.854480 0.444761
O O7 0.555722 0.935942 0.366177
O O8 0.750000 0.500000 0.213452
O O9 0.764609 0.750000 0.250000
O O10 0.813893 0.634259 0.005505
O O11 0.578363 0.446331 0.831624
O O12 0.137307 0.250000 0.250000
#
# Coordination Sequence:
#
# PCOD9413565 Si02
#       5
#     8   8   8   8   8
#     4   8  14  29  60  92 122 159 210 258 325 385
#     4   8  16  32  54  86 119 158 211 261 306 376
#     4  11  25  44  63  88 132 178 220 265 320 392
#     4   8  14  29  60  92 123 160 208 266 317 377
#     4   9  19  38  61  95 129 167 212 270 328 382
#
# _framework density 20.948211000000001
#
# number of rings (size 3 to 8) (size 9 to 14) (size 15 to 20)
#    0.000    3.200    0.000    2.400    2.800    0.000 
#    7.200    4.000    0.000    0.000    0.000    0.000 
#    0.000    0.000    0.000    0.000    0.000    0.000 
#
# Total GULP energy -223160.394776 kJ/mol
# GULP energy per Si atom -5579.009869 kJ/mol
# Density = 2.090053 g / cm^3
# Si number density = 20.948211 Si / 1000 Ang^3
#
#
#
# Elastic Constant Matrix: (Units=GPa)
#
#
# Indices 1 2 3 4 5 6 
#
# 1 163.3846 41.5813 39.8968 0.0000 0.0000 0.0000
# 2 41.5813 112.7260 44.6728 0.0000 0.0000 0.0000
# 3 39.8968 44.6728 82.2688 0.0000 0.0000 0.0000
# 4 0.0000 0.0000 0.0000 42.4250 0.0000 0.0000
# 5 0.0000 0.0000 0.0000 0.0000 12.2346 0.0000
# 6 0.0000 0.0000 0.0000 0.0000 0.0000 4.8330
#
#
#
# Elastic Compliance Matrix: (Units=1/GPa)
#
#
# Indices 1 2 3 4 5 6 
#
# 1 0.007166 -0.001613 -0.002599 0.000000 0.000000 0.000000
# 2 -0.001613 0.011667 -0.005553 0.000000 0.000000 0.000000
# 3 -0.002599 -0.005553 0.016431 0.000000 0.000000 0.000000
# 4 0.000000 0.000000 0.000000 0.023571 0.000000 0.000000
# 5 0.000000 0.000000 0.000000 0.000000 0.081735 0.000000
# 6 0.000000 0.000000 0.000000 0.000000 0.000000 0.206910
#
#
# Mechanical properties :
#
#
# Convention : Reuss Voigt Hill
#
# Bulk Modulus (GPa) = 63.55990 67.85345 65.70667
# Shear Modulus (GPa) = 13.43169 27.38043 20.40606
#
# Velocity S-wave (km/s) = 2.53491 3.61924 3.12447
# Velocity P-wave (km/s) = 6.24300 7.06587 6.66714
#
# Compressibility (1/GPa) = 0.01573319
#
# Stress axis : x y z
#
# Youngs Moduli (GPa) = 139.55247 85.71414 60.86083
#
# Poissons Ratio (x) = 0.13828 0.15818
# Poissons Ratio (y) = 0.22513 0.33795
# Poissons Ratio (z) = 0.36271 0.47595
#
# Static dielectric constant tensor:
#      x y z
#    x 1.689560 0.000000 0.000000 
#    y 0.000000 1.882970 0.000000 
#    z 0.000000 0.000000 1.758040 
# 
# From -- ./inp_files/11619.got.cif
#   From: 2010.05.17/outbox.cif.g08.bks.cpg/sg52_6_cif.got.tgz:11619.got - 2010.06.03 12:15:38.
