data_PCOD9413571
_publ_section_title
;
Structure prediction by ZEFSAII (Michael W. Deem and Ramdas Pophale) SiO2 
 PCOD9413571
Probable space group: P N N A
;
_chemical_formula_sum "Si O2"
_cell_formula_units_Z 24
_cell_length_a 13.961529
_cell_length_b 12.209218
_cell_length_c 5.182608
_cell_angle_alpha 90.000000
_cell_angle_beta 90.000000
_cell_angle_gamma 90.000000
_cell_volume 883.423997
_symmetry_space_group_name_H-M "P N N A"
_symmetry_group_IT_number 52
_symmetry_cell_setting 'orthorhombic'
loop_
_space_group_symop_operation_xyz
x,y,z
1/2-x,-y,z
x,1/2-y,1/2-z
1/2-x,1/2+y,1/2-z
-x,-y,-z
1/2+x,y,-z
-x,1/2+y,1/2+z
1/2+x,1/2-y,1/2+z
loop_
_atom_site_type_symbol
_atom_site_label
_atom_site_fract_x
_atom_site_fract_y
_atom_site_fract_z
Si Si1 0.637417 0.028079 0.521769
Si Si2 0.112302 0.716042 0.007495
Si Si3 0.910627 0.840641 0.041963
O O1 0.607088 0.057879 0.230637
O O2 0.750000 0.000000 0.526829
O O3 0.587504 0.909651 0.551464
O O4 0.617942 0.115582 0.753813
O O5 0.163928 0.750000 0.750000
O O6 0.175316 0.750000 0.250000
O O7 0.018118 0.793309 0.005399
O O8 0.869548 0.750000 0.250000
#
# Coordination Sequence:
#
# PCOD9413571 Si02
#       3
#     8   8   8
#     4  12  27  47  71 106 148 185 233 302 367 420
#     4  11  25  44  71 103 140 188 242 291 350 429
#     4  11  25  45  73 103 140 189 241 290 353 435
#
# _framework density 27.167023
#
# number of rings (size 3 to 8) (size 9 to 14) (size 15 to 20)
#    0.000    0.667    0.000    8.000    0.000   22.667 
#    0.000    0.000    0.000    0.000    0.000    0.000 
#    0.000    0.000    0.000    0.000    0.000    0.000 
#
# Total GULP energy -133893.137512 kJ/mol
# GULP energy per Si atom -5578.880730 kJ/mol
# Density = 2.710519 g / cm^3
# Si number density = 27.167023 Si / 1000 Ang^3
#
#
#
# Elastic Constant Matrix: (Units=GPa)
#
#
# Indices 1 2 3 4 5 6 
#
# 1 145.7248 15.3194 24.6455 0.0000 0.0000 0.0000
# 2 15.3194 87.3558 19.7396 0.0000 0.0000 0.0000
# 3 24.6455 19.7396 252.6105 0.0000 0.0000 0.0000
# 4 0.0000 0.0000 0.0000 76.2142 0.0000 0.0000
# 5 0.0000 0.0000 0.0000 0.0000 -38.0781 0.0000
# 6 0.0000 0.0000 0.0000 0.0000 0.0000 152.1916
#
#
#
# Elastic Compliance Matrix: (Units=1/GPa)
#
#
# Indices 1 2 3 4 5 6 
#
# 1 0.007081 -0.001105 -0.000604 0.000000 0.000000 0.000000
# 2 -0.001105 0.011826 -0.000816 0.000000 0.000000 0.000000
# 3 -0.000604 -0.000816 0.004081 0.000000 0.000000 0.000000
# 4 0.000000 0.000000 0.000000 0.013121 0.000000 0.000000
# 5 0.000000 0.000000 0.000000 0.000000 -0.026262 0.000000
# 6 0.000000 0.000000 0.000000 0.000000 0.000000 0.006571
#
#
# Mechanical properties :
#
#
# Convention : Reuss Voigt Hill
#
# Bulk Modulus (GPa) = 55.75358 67.23333 61.49346
# Shear Modulus (GPa) = 182.16327 66.46466 124.31397
#
# Velocity S-wave (km/s) = 8.19748 4.95160 6.77189
# Velocity P-wave (km/s) = 10.49596 7.58241 9.15582
#
# Compressibility (1/GPa) = 0.01793607
#
# Stress axis : x y z
#
# Youngs Moduli (GPa) = 141.22985 84.56161 245.01269
#
# Poissons Ratio (x) = 0.09345 0.14810
# Poissons Ratio (y) = 0.15608 0.20000
# Poissons Ratio (z) = 0.08537 0.06903
#
# Static dielectric constant tensor:
#      x y z
#    x 2.127390 0.000000 0.000000 
#    y 0.000000 1.802370 0.000000 
#    z 0.000000 0.000000 2.437980 
# 
# From -- ./inp_files/2832.got.cif
#   From: 2010.05.17/outbox.cif.g08.bks.cpg/sg52_2_cif.got.tgz:2832.got - 2010.06.03 12:15:38.
