data_PCOD9413289
_publ_section_title
;
Structure prediction by ZEFSAII (Michael W. Deem and Ramdas Pophale) SiO2 
 PCOD9413289
Probable space group: P N N A
;
_chemical_formula_sum "Si O2"
_cell_formula_units_Z 32
_cell_length_a 10.635681
_cell_length_b 6.701050
_cell_length_c 21.738426
_cell_angle_alpha 90.000000
_cell_angle_beta 90.000000
_cell_angle_gamma 90.000000
_cell_volume 1549.302624
_symmetry_space_group_name_H-M "P N N A"
_symmetry_group_IT_number 52
_symmetry_cell_setting 'orthorhombic'
loop_
_space_group_symop_operation_xyz
x,y,z
1/2-x,-y,z
x,1/2-y,1/2-z
1/2-x,1/2+y,1/2-z
-x,-y,-z
1/2+x,y,-z
-x,1/2+y,1/2+z
1/2+x,1/2-y,1/2+z
loop_
_atom_site_type_symbol
_atom_site_label
_atom_site_fract_x
_atom_site_fract_y
_atom_site_fract_z
Si Si1 0.438446 0.250000 0.250000
Si Si2 0.750000 0.500000 0.667257
Si Si3 0.884602 0.533410 0.152894
Si Si4 0.448521 0.700963 0.415124
Si Si5 0.131812 0.351357 0.547185
O O1 0.351277 0.393533 0.290092
O O2 0.522643 0.373842 0.202688
O O3 0.674645 0.343118 0.625120
O O4 0.750000 0.500000 0.184639
O O5 0.847730 0.689373 0.099451
O O6 0.957466 0.350570 0.119746
O O7 0.405575 0.758770 0.483920
O O8 0.519762 0.492040 0.427997
O O9 0.250000 0.500000 0.536818
#
# Coordination Sequence:
#
# PCOD9413289 Si02
#       5
#     4   4   8   8   8
#     4  12  28  46  68 102 140 192 242 274 344 420
#     4  12  24  48  68  98 140 184 232 296 340 418
#     4  12  26  45  71 103 140 185 235 289 345 419
#     4  11  24  43  74 103 137 181 229 293 358 412
#     4  11  22  45  70 106 142 175 231 291 358 419
#
# _framework density 20.654454999999999
#
# number of rings (size 3 to 8) (size 9 to 14) (size 15 to 20)
#    0.000    0.500    6.250    2.250    0.000    3.000 
#    4.500    0.000    0.000    0.000    0.000    0.000 
#    0.000    0.000    0.000    0.000    0.000    0.000 
#
# Total GULP energy -178901.856207 kJ/mol
# GULP energy per Si atom -5590.683006 kJ/mol
# Density = 2.060744 g / cm^3
# Si number density = 20.654455 Si / 1000 Ang^3
#
#
#
# Elastic Constant Matrix: (Units=GPa)
#
#
# Indices 1 2 3 4 5 6 
#
# 1 147.1612 38.2729 65.1359 0.0000 0.0000 0.0000
# 2 38.2729 56.5903 43.6043 0.0000 0.0000 0.0000
# 3 65.1359 43.6043 117.8597 0.0000 0.0000 0.0000
# 4 0.0000 0.0000 0.0000 1.7112 0.0000 0.0000
# 5 0.0000 0.0000 0.0000 0.0000 57.4651 0.0000
# 6 0.0000 0.0000 0.0000 0.0000 0.0000 40.5929
#
#
#
# Elastic Compliance Matrix: (Units=1/GPa)
#
#
# Indices 1 2 3 4 5 6 
#
# 1 0.009416 -0.003299 -0.003984 0.000000 0.000000 0.000000
# 2 -0.003299 0.025873 -0.007749 0.000000 0.000000 0.000000
# 3 -0.003984 -0.007749 0.013553 0.000000 0.000000 0.000000
# 4 0.000000 0.000000 0.000000 0.584378 0.000000 0.000000
# 5 0.000000 0.000000 0.000000 0.000000 0.017402 0.000000
# 6 0.000000 0.000000 0.000000 0.000000 0.000000 0.024635
#
#
# Mechanical properties :
#
#
# Convention : Reuss Voigt Hill
#
# Bulk Modulus (GPa) = 53.24997 68.40418 60.82707
# Shear Modulus (GPa) = 7.02662 31.59371 19.31017
#
# Velocity S-wave (km/s) = 1.84645 3.91529 3.06096
# Velocity P-wave (km/s) = 5.51209 7.32323 6.48123
#
# Compressibility (1/GPa) = 0.01877935
#
# Stress axis : x y z
#
# Youngs Moduli (GPa) = 106.19721 38.65067 73.78442
#
# Poissons Ratio (x) = 0.12751 0.29392
# Poissons Ratio (y) = 0.35035 0.57174
# Poissons Ratio (z) = 0.42304 0.29950
#
# Static dielectric constant tensor:
#      x y z
#    x 1.787130 0.000000 0.000000 
#    y 0.000000 1.735250 0.000000 
#    z 0.000000 0.000000 1.754120 
# 
# From -- ./inp_files/31905.got.cif
#   From: 2010.05.17/outbox.cif.g08.bks.cpg/sg52_16_cif.got.tgz:31905.got - 2010.06.03 12:15:38.
