data_PCOD9413303
_publ_section_title
;
Structure prediction by ZEFSAII (Michael W. Deem and Ramdas Pophale) SiO2 
 PCOD9413303
Probable space group: P N N A
;
_chemical_formula_sum "Si O2"
_cell_formula_units_Z 40
_cell_length_a 12.820235
_cell_length_b 12.317127
_cell_length_c 10.346418
_cell_angle_alpha 90.000000
_cell_angle_beta 90.000000
_cell_angle_gamma 90.000000
_cell_volume 1633.786960
_symmetry_space_group_name_H-M "P N N A"
_symmetry_group_IT_number 52
_symmetry_cell_setting 'orthorhombic'
loop_
_space_group_symop_operation_xyz
x,y,z
1/2-x,-y,z
x,1/2-y,1/2-z
1/2-x,1/2+y,1/2-z
-x,-y,-z
1/2+x,y,-z
-x,1/2+y,1/2+z
1/2+x,1/2-y,1/2+z
loop_
_atom_site_type_symbol
_atom_site_label
_atom_site_fract_x
_atom_site_fract_y
_atom_site_fract_z
Si Si1 0.368815 0.520711 0.791153
Si Si2 0.122200 0.125620 0.991451
Si Si3 0.745037 0.807502 0.608439
Si Si4 0.517657 0.699036 0.891720
Si Si5 0.066105 0.380239 0.235770
O O1 0.250000 0.500000 0.830712
O O2 0.364954 0.558824 0.639404
O O3 0.425169 0.613879 0.873903
O O4 0.453823 0.425504 0.799039
O O5 0.019825 0.201370 0.978305
O O6 0.216311 0.211272 0.013552
O O7 0.104671 0.066600 0.128459
O O8 0.735021 0.750000 0.750000
O O9 0.630367 0.846947 0.572035
O O10 0.838503 0.891695 0.635191
O O11 0.526103 0.750000 0.750000
O O12 0.056596 0.250000 0.250000
#
# Coordination Sequence:
#
# PCOD9413303 Si02
#       5
#     8   8   8   8   8
#     4  11  23  36  56  93 124 154 195 250 303 359
#     4   9  19  37  62  91 112 155 201 250 301 350
#     4   8  17  37  60  83 115 159 195 241 300 354
#     4   9  19  37  59  84 120 155 196 245 302 359
#     4   9  20  39  59  85 121 159 199 246 301 353
#
# _framework density 24.482994999999999
#
# number of rings (size 3 to 8) (size 9 to 14) (size 15 to 20)
#    0.000    3.200    0.000    0.600    2.800    3.200 
#   10.800    4.000    0.000    0.000    0.000    0.000 
#    0.000    0.000    0.000    0.000    0.000    0.000 
#
# Total GULP energy -223316.997201 kJ/mol
# GULP energy per Si atom -5582.924930 kJ/mol
# Density = 2.442727 g / cm^3
# Si number density = 24.482995 Si / 1000 Ang^3
#
#
#
# Elastic Constant Matrix: (Units=GPa)
#
#
# Indices 1 2 3 4 5 6 
#
# 1 266.4175 58.7602 36.9906 0.0000 0.0000 0.0000
# 2 58.7602 48.3182 -1.6512 0.0000 0.0000 0.0000
# 3 36.9906 -1.6512 102.2146 0.0000 0.0000 0.0000
# 4 0.0000 0.0000 0.0000 11.2856 0.0000 0.0000
# 5 0.0000 0.0000 0.0000 0.0000 -10.3662 0.0000
# 6 0.0000 0.0000 0.0000 0.0000 0.0000 31.3095
#
#
#
# Elastic Compliance Matrix: (Units=1/GPa)
#
#
# Indices 1 2 3 4 5 6 
#
# 1 0.005553 -0.006826 -0.002120 0.000000 0.000000 0.000000
# 2 -0.006826 0.029098 0.002940 0.000000 0.000000 0.000000
# 3 -0.002120 0.002940 0.010598 0.000000 0.000000 0.000000
# 4 0.000000 0.000000 0.000000 0.088609 0.000000 0.000000
# 5 0.000000 0.000000 0.000000 0.000000 -0.096467 0.000000
# 6 0.000000 0.000000 0.000000 0.000000 0.000000 0.031939
#
#
# Mechanical properties :
#
#
# Convention : Reuss Voigt Hill
#
# Bulk Modulus (GPa) = 30.08616 67.23882 48.66249
# Shear Modulus (GPa) = 54.10051 27.96915 41.03483
#
# Velocity S-wave (km/s) = 4.70586 3.38359 4.09841
# Velocity P-wave (km/s) = 6.46855 6.54126 6.50500
#
# Compressibility (1/GPa) = 0.03323788
#
# Stress axis : x y z
#
# Youngs Moduli (GPa) = 180.07100 34.36698 94.35704
#
# Poissons Ratio (x) = 0.23459 0.20004
# Poissons Ratio (y) = 1.22915 -0.27744
# Poissons Ratio (z) = 0.38175 -0.10105
#
# Static dielectric constant tensor:
#      x y z
#    x 1.984240 0.000000 0.000000 
#    y 0.000000 2.016860 0.000000 
#    z 0.000000 0.000000 2.008370 
# 
# From -- ./inp_files/18003.got.cif
#   From: 2010.05.17/outbox.cif.g08.bks.cpg/sg52_10_cif.got.tgz:18003.got - 2010.06.03 12:15:38.
