data_PCOD9413700
_publ_section_title
;
Structure prediction by ZEFSAII (Michael W. Deem and Ramdas Pophale) SiO2 
 PCOD9413700
Probable space group: P N N A
;
_chemical_formula_sum "Si O2"
_cell_formula_units_Z 36
_cell_length_a 9.276464
_cell_length_b 19.489434
_cell_length_c 11.018528
_cell_angle_alpha 90.000000
_cell_angle_beta 90.000000
_cell_angle_gamma 90.000000
_cell_volume 1992.073095
_symmetry_space_group_name_H-M "P N N A"
_symmetry_group_IT_number 52
_symmetry_cell_setting 'orthorhombic'
loop_
_space_group_symop_operation_xyz
x,y,z
1/2-x,-y,z
x,1/2-y,1/2-z
1/2-x,1/2+y,1/2-z
-x,-y,-z
1/2+x,y,-z
-x,1/2+y,1/2+z
1/2+x,1/2-y,1/2+z
loop_
_atom_site_type_symbol
_atom_site_label
_atom_site_fract_x
_atom_site_fract_y
_atom_site_fract_z
Si Si1 0.258388 0.319812 0.330635
Si Si2 0.914295 0.351710 0.073044
Si Si3 0.796261 0.578536 0.884970
Si Si4 0.544892 0.215774 0.039340
Si Si5 0.734028 0.750000 0.250000
O O1 0.261588 0.250000 0.250000
O O2 0.248765 0.382032 0.237394
O O3 0.404186 0.322079 0.409762
O O4 0.122707 0.314899 0.421234
O O5 0.859490 0.310851 0.191257
O O6 0.033497 0.408703 0.100772
O O7 0.784819 0.383729 0.996176
O O8 0.990576 0.292112 0.994051
O O9 0.750000 0.500000 0.882533
O O10 0.664274 0.221570 0.143767
#
# Coordination Sequence:
#
# PCOD9413700 Si02
#       5
#     8   8   8   8   4
#     4  12  22  39  65  92 126 161 209 259 314 365
#     4  12  21  40  65  94 124 162 205 260 313 367
#     4  12  26  43  62  91 132 170 206 253 318 381
#     4  12  21  36  65  97 122 155 206 269 308 361
#     4  12  20  34  68  96 124 150 208 262 316 354
#
# _framework density 18.071625000000001
#
# number of rings (size 3 to 8) (size 9 to 14) (size 15 to 20)
#    0.000    0.000   10.000    2.000    0.000    0.000 
#    0.000    1.111    0.000    0.000    0.000    0.000 
#    0.000    0.000    0.000    0.000    0.000    0.000 
#
# Total GULP energy -201302.434800 kJ/mol
# GULP energy per Si atom -5591.734300 kJ/mol
# Density = 1.803049 g / cm^3
# Si number density = 18.071625 Si / 1000 Ang^3
#
#
#
# Elastic Constant Matrix: (Units=GPa)
#
#
# Indices 1 2 3 4 5 6 
#
# 1 85.2075 10.5183 34.0704 0.0000 0.0000 0.0000
# 2 10.5183 73.8702 31.7447 0.0000 0.0000 0.0000
# 3 34.0704 31.7447 89.6168 0.0000 0.0000 0.0000
# 4 0.0000 0.0000 0.0000 17.2207 0.0000 0.0000
# 5 0.0000 0.0000 0.0000 0.0000 236.9903 0.0000
# 6 0.0000 0.0000 0.0000 0.0000 0.0000 10.1318
#
#
#
# Elastic Compliance Matrix: (Units=1/GPa)
#
#
# Indices 1 2 3 4 5 6 
#
# 1 0.013847 0.000343 -0.005386 0.000000 0.000000 0.000000
# 2 0.000343 0.015976 -0.005790 0.000000 0.000000 0.000000
# 3 -0.005386 -0.005790 0.015257 0.000000 0.000000 0.000000
# 4 0.000000 0.000000 0.000000 0.058070 0.000000 0.000000
# 5 0.000000 0.000000 0.000000 0.000000 0.004220 0.000000
# 6 0.000000 0.000000 0.000000 0.000000 0.000000 0.098699
#
#
# Mechanical properties :
#
#
# Convention : Reuss Voigt Hill
#
# Bulk Modulus (GPa) = 42.70689 44.59569 43.65129
# Shear Modulus (GPa) = 21.22788 64.35930 42.79359
#
# Velocity S-wave (km/s) = 3.43104 5.97418 4.87149
# Velocity P-wave (km/s) = 6.27530 8.50403 7.47321
#
# Compressibility (1/GPa) = 0.02341543
#
# Stress axis : x y z
#
# Youngs Moduli (GPa) = 72.21633 62.59202 65.54336
#
# Poissons Ratio (x) = -0.02146 0.35301
# Poissons Ratio (y) = -0.02476 0.37947
# Poissons Ratio (z) = 0.38895 0.36239
#
# Static dielectric constant tensor:
#      x y z
#    x 1.654780 0.000000 0.000000 
#    y 0.000000 1.575380 0.000000 
#    z 0.000000 0.000000 1.629690 
# 
# From -- ./inp_files/16670.got.cif
#   From: 2010.05.17/outbox.cif.g08.bks.cpg/sg52_9_cif.got.tgz:16670.got - 2010.06.03 12:15:38.
