data_PCOD9413421
_publ_section_title
;
Structure prediction by ZEFSAII (Michael W. Deem and Ramdas Pophale) SiO2 
 PCOD9413421
Probable space group: P N N A
;
_chemical_formula_sum "Si O2"
_cell_formula_units_Z 40
_cell_length_a 10.004023
_cell_length_b 28.772614
_cell_length_c 5.084112
_cell_angle_alpha 90.000000
_cell_angle_beta 90.000000
_cell_angle_gamma 90.000000
_cell_volume 1463.420418
_symmetry_space_group_name_H-M "P N N A"
_symmetry_group_IT_number 52
_symmetry_cell_setting 'orthorhombic'
loop_
_space_group_symop_operation_xyz
x,y,z
1/2-x,-y,z
x,1/2-y,1/2-z
1/2-x,1/2+y,1/2-z
-x,-y,-z
1/2+x,y,-z
-x,1/2+y,1/2+z
1/2+x,1/2-y,1/2+z
loop_
_atom_site_type_symbol
_atom_site_label
_atom_site_fract_x
_atom_site_fract_y
_atom_site_fract_z
Si Si1 0.588432 0.455342 0.944057
Si Si2 0.993579 0.793928 0.087408
Si Si3 0.098340 0.616539 0.145464
Si Si4 0.770995 0.172025 0.214767
Si Si5 0.749734 0.569830 0.458648
O O1 0.489361 0.410952 0.932023
O O2 0.702985 0.447511 0.170938
O O3 0.500000 0.500000 0.000000
O O4 0.657234 0.457031 0.662088
O O5 0.045761 0.750000 0.250000
O O6 0.011794 0.841975 0.242308
O O7 0.833621 0.791339 0.092694
O O8 0.083563 0.804522 0.834144
O O9 0.115417 0.574893 0.362169
O O10 0.215807 0.646171 0.997897
O O11 0.738635 0.126040 0.043098
#
# Coordination Sequence:
#
# PCOD9413421 Si02
#       5
#     8   8   8   8   8
#     4  12  26  46  72 110 153 201 264 326 390 470
#     4  11  26  44  75 113 149 204 256 326 389 480
#     4  11  24  46  77 103 152 206 253 324 395 472
#     4  11  24  50  76 108 158 202 260 319 403 470
#     4  11  23  47  69 105 147 198 251 311 388 463
#
# _framework density 27.333223
#
# number of rings (size 3 to 8) (size 9 to 14) (size 15 to 20)
#    0.000    0.800    4.000    1.800    5.600    2.400 
#    3.600    0.000    0.000    0.000    0.000    0.000 
#    0.000    0.000    0.000    0.000    0.000    0.000 
#
# Total GULP energy -222790.321104 kJ/mol
# GULP energy per Si atom -5569.758028 kJ/mol
# Density = 2.727101 g / cm^3
# Si number density = 27.333223 Si / 1000 Ang^3
#
#
#
# Elastic Constant Matrix: (Units=GPa)
#
#
# Indices 1 2 3 4 5 6 
#
# 1 93.0836 2.5185 21.1875 0.0000 0.0000 0.0000
# 2 2.5185 84.7278 -17.4973 0.0000 0.0000 0.0000
# 3 21.1875 -17.4973 136.4005 0.0000 0.0000 0.0000
# 4 0.0000 0.0000 0.0000 32.3867 0.0000 0.0000
# 5 0.0000 0.0000 0.0000 0.0000 16.5163 0.0000
# 6 0.0000 0.0000 0.0000 0.0000 0.0000 34.2638
#
#
#
# Elastic Compliance Matrix: (Units=1/GPa)
#
#
# Indices 1 2 3 4 5 6 
#
# 1 0.011178 -0.000710 -0.001827 0.000000 0.000000 0.000000
# 2 -0.000710 0.012169 0.001671 0.000000 0.000000 0.000000
# 3 -0.001827 0.001671 0.007830 0.000000 0.000000 0.000000
# 4 0.000000 0.000000 0.000000 0.030877 0.000000 0.000000
# 5 0.000000 0.000000 0.000000 0.000000 0.060546 0.000000
# 6 0.000000 0.000000 0.000000 0.000000 0.000000 0.029185
#
#
# Mechanical properties :
#
#
# Convention : Reuss Voigt Hill
#
# Bulk Modulus (GPa) = 33.96173 36.29213 35.12693
# Shear Modulus (GPa) = 30.61261 37.16690 33.88976
#
# Velocity S-wave (km/s) = 3.35024 3.69151 3.52500
# Velocity P-wave (km/s) = 5.23617 5.61036 5.42649
#
# Compressibility (1/GPa) = 0.02944491
#
# Stress axis : x y z
#
# Youngs Moduli (GPa) = 89.46004 82.17791 127.72071
#
# Poissons Ratio (x) = 0.05832 0.23339
# Poissons Ratio (y) = 0.06348 -0.21345
# Poissons Ratio (z) = 0.16348 -0.13734
#
# Static dielectric constant tensor:
#      x y z
#    x 2.453610 0.000000 0.000000 
#    y 0.000000 1.905970 0.000000 
#    z 0.000000 0.000000 2.713450 
# 
# From -- ./inp_files/1505.got.cif
#   From: 2010.05.17/outbox.cif.g08.bks.cpg/sg52_1_cif.got.tgz:1505.got - 2010.06.03 12:15:38.
