data_PCOD9413578
_publ_section_title
;
Structure prediction by ZEFSAII (Michael W. Deem and Ramdas Pophale) SiO2 
 PCOD9413578
Probable space group: P N N A
;
_chemical_formula_sum "Si O2"
_cell_formula_units_Z 48
_cell_length_a 24.258284
_cell_length_b 8.753019
_cell_length_c 9.210770
_cell_angle_alpha 90.000000
_cell_angle_beta 90.000000
_cell_angle_gamma 90.000000
_cell_volume 1955.752460
_symmetry_space_group_name_H-M "P N N A"
_symmetry_group_IT_number 52
_symmetry_cell_setting 'orthorhombic'
loop_
_space_group_symop_operation_xyz
x,y,z
1/2-x,-y,z
x,1/2-y,1/2-z
1/2-x,1/2+y,1/2-z
-x,-y,-z
1/2+x,y,-z
-x,1/2+y,1/2+z
1/2+x,1/2-y,1/2+z
loop_
_atom_site_type_symbol
_atom_site_label
_atom_site_fract_x
_atom_site_fract_y
_atom_site_fract_z
Si Si1 0.093530 0.047359 0.963061
Si Si2 0.320170 0.725358 0.999502
Si Si3 0.481818 0.750000 0.750000
Si Si4 0.860684 0.054828 0.323635
Si Si5 0.171520 0.750000 0.250000
Si Si6 0.750000 0.000000 0.706086
Si Si7 0.427183 0.279702 0.043132
Si Si8 0.239935 0.750000 0.750000
O O1 0.134227 0.154795 0.056433
O O2 0.054521 0.147570 0.858527
O O3 0.131533 0.961532 0.846713
O O4 0.064594 0.904332 0.039641
O O5 0.355180 0.605294 0.903782
O O6 0.279401 0.803331 0.881400
O O7 0.285508 0.621111 0.110712
O O8 0.522962 0.659029 0.859428
O O9 0.913360 0.142157 0.390929
O O10 0.801286 0.135054 0.331975
O O11 0.209159 0.892031 0.204993
O O12 0.130863 0.694922 0.124781
#
# Coordination Sequence:
#
# PCOD9413578 Si02
#       8
#     8   8   4   8   4   4   8   4
#     4  12  24  44  67 102 127 168 223 283 334 396
#     4  12  23  38  65  96 139 167 218 267 319 388
#     4  11  25  46  70  90 128 172 231 283 338 392
#     4  12  21  40  64  98 138 168 215 268 332 385
#     4  11  26  46  63  94 139 180 228 253 320 402
#     4  12  26  44  62  98 138 192 214 260 316 410
#     4  11  25  45  69  92 132 176 219 281 332 391
#     4  12  19  34  63 100 133 176 201 260 326 382
#
# _framework density 24.542985000000002
#
# number of rings (size 3 to 8) (size 9 to 14) (size 15 to 20)
#    0.000    0.333    8.333    0.500    2.333    0.667 
#    0.000    0.000    0.000    0.000    0.000    0.000 
#    0.000    0.000    0.000    0.000    0.000    0.000 
#
# Total GULP energy -268201.560479 kJ/mol
# GULP energy per Si atom -5587.532510 kJ/mol
# Density = 2.448712 g / cm^3
# Si number density = 24.542985 Si / 1000 Ang^3
#
#
#
# Elastic Constant Matrix: (Units=GPa)
#
#
# Indices 1 2 3 4 5 6 
#
# 1 107.9924 43.2349 12.1770 0.0000 0.0000 0.0000
# 2 43.2349 81.2441 11.8918 0.0000 0.0000 0.0000
# 3 12.1770 11.8918 36.5025 0.0000 0.0000 0.0000
# 4 0.0000 0.0000 0.0000 40.5300 0.0000 0.0000
# 5 0.0000 0.0000 0.0000 0.0000 -4.2212 0.0000
# 6 0.0000 0.0000 0.0000 0.0000 0.0000 18.3185
#
#
#
# Elastic Compliance Matrix: (Units=1/GPa)
#
#
# Indices 1 2 3 4 5 6 
#
# 1 0.011905 -0.006042 -0.002003 0.000000 0.000000 0.000000
# 2 -0.006042 0.015991 -0.003194 0.000000 0.000000 0.000000
# 3 -0.002003 -0.003194 0.029104 0.000000 0.000000 0.000000
# 4 0.000000 0.000000 0.000000 0.024673 0.000000 0.000000
# 5 0.000000 0.000000 0.000000 0.000000 -0.236897 0.000000
# 6 0.000000 0.000000 0.000000 0.000000 0.000000 0.054590
#
#
# Mechanical properties :
#
#
# Convention : Reuss Voigt Hill
#
# Bulk Modulus (GPa) = 28.96698 40.03849 34.50273
# Shear Modulus (GPa) = -75.02035 21.48780 -26.76628
#
# Velocity S-wave (km/s) = -5.53473 2.96212 -3.30599
# Velocity P-wave (km/s) = 5.38667 5.29603 0.69580
#
# Compressibility (1/GPa) = 0.03452207
#
# Stress axis : x y z
#
# Youngs Moduli (GPa) = 84.00043 62.53341 34.35937
#
# Poissons Ratio (x) = 0.37783 0.06882
# Poissons Ratio (y) = 0.50753 0.10975
# Poissons Ratio (z) = 0.16825 0.19974
#
# Static dielectric constant tensor:
#      x y z
#    x 1.962490 0.000000 0.000000 
#    y 0.000000 2.095340 0.000000 
#    z 0.000000 0.000000 1.968100 
# 
# From -- ./inp_files/22388.got.cif
#   From: 2010.05.17/outbox.cif.g08.bks.cpg/sg52_12_cif.got.tgz:22388.got - 2010.06.03 12:15:38.
