data_PCOD9413417
_publ_section_title
;
Structure prediction by ZEFSAII (Michael W. Deem and Ramdas Pophale) SiO2 
 PCOD9413417
Probable space group: P N N A
;
_chemical_formula_sum "Si O2"
_cell_formula_units_Z 36
_cell_length_a 9.283649
_cell_length_b 20.628159
_cell_length_c 7.091250
_cell_angle_alpha 90.000000
_cell_angle_beta 90.000000
_cell_angle_gamma 90.000000
_cell_volume 1358.006907
_symmetry_space_group_name_H-M "P N N A"
_symmetry_group_IT_number 52
_symmetry_cell_setting 'orthorhombic'
loop_
_space_group_symop_operation_xyz
x,y,z
1/2-x,-y,z
x,1/2-y,1/2-z
1/2-x,1/2+y,1/2-z
-x,-y,-z
1/2+x,y,-z
-x,1/2+y,1/2+z
1/2+x,1/2-y,1/2+z
loop_
_atom_site_type_symbol
_atom_site_label
_atom_site_fract_x
_atom_site_fract_y
_atom_site_fract_z
Si Si1 0.927035 0.558979 0.608174
Si Si2 0.377300 0.750000 0.750000
Si Si3 0.081277 0.650057 0.121024
Si Si4 0.824173 0.564170 0.032917
Si Si5 0.687665 0.855332 0.036225
O O1 0.875479 0.545924 0.820653
O O2 0.791507 0.583103 0.488261
O O3 0.000000 0.500000 0.500000
O O4 0.038122 0.619355 0.620609
O O5 0.479828 0.712899 0.902695
O O6 0.275095 0.699873 0.642099
O O7 0.206373 0.621903 0.988200
O O8 0.154039 0.663486 0.321333
O O9 0.965246 0.591829 0.132837
O O10 0.750000 0.500000 0.112983
#
# Coordination Sequence:
#
# PCOD9413417 Si02
#       5
#     8   4   8   8   8
#     4  11  23  46  76 114 159 206 264 323 403 471
#     4  12  28  48  78 106 164 202 280 314 390 484
#     4  11  27  49  76 115 153 212 256 326 393 467
#     4  11  26  47  77 117 159 197 264 326 397 471
#     4  11  25  48  74 113 151 211 261 323 397 468
#
# _framework density 26.509440000000001
#
# number of rings (size 3 to 8) (size 9 to 14) (size 15 to 20)
#    0.000    0.889    2.222    4.000    6.222    0.000 
#    0.000    0.000    0.000    0.000    0.000    0.000 
#    0.000    0.000    0.000    0.000    0.000    0.000 
#
# Total GULP energy -201974.918773 kJ/mol
# GULP energy per Si atom -5610.414410 kJ/mol
# Density = 2.644910 g / cm^3
# Si number density = 26.509440 Si / 1000 Ang^3
#
#
#
# Elastic Constant Matrix: (Units=GPa)
#
#
# Indices 1 2 3 4 5 6 
#
# 1 150.3754 55.8546 16.2502 0.0000 0.0000 0.0000
# 2 55.8546 132.2791 24.9659 0.0000 0.0000 0.0000
# 3 16.2502 24.9659 70.8590 0.0000 0.0000 0.0000
# 4 0.0000 0.0000 0.0000 1.3064 0.0000 0.0000
# 5 0.0000 0.0000 0.0000 0.0000 40.6112 0.0000
# 6 0.0000 0.0000 0.0000 0.0000 0.0000 68.4805
#
#
#
# Elastic Compliance Matrix: (Units=1/GPa)
#
#
# Indices 1 2 3 4 5 6 
#
# 1 0.007918 -0.003214 -0.000683 0.000000 0.000000 0.000000
# 2 -0.003214 0.009403 -0.002576 0.000000 0.000000 0.000000
# 3 -0.000683 -0.002576 0.015177 0.000000 0.000000 0.000000
# 4 0.000000 0.000000 0.000000 0.765464 0.000000 0.000000
# 5 0.000000 0.000000 0.000000 0.000000 0.024624 0.000000
# 6 0.000000 0.000000 0.000000 0.000000 0.000000 0.014603
#
#
# Mechanical properties :
#
#
# Convention : Reuss Voigt Hill
#
# Bulk Modulus (GPa) = 51.14890 60.85054 55.99972
# Shear Modulus (GPa) = 5.83667 39.17580 22.50624
#
# Velocity S-wave (km/s) = 1.48543 3.84839 2.91690
# Velocity P-wave (km/s) = 4.72001 6.53842 5.70217
#
# Compressibility (1/GPa) = 0.01955076
#
# Stress axis : x y z
#
# Youngs Moduli (GPa) = 126.29823 106.34708 65.89001
#
# Poissons Ratio (x) = 0.34183 0.04502
# Poissons Ratio (y) = 0.40596 0.16973
# Poissons Ratio (z) = 0.08630 0.27394
#
# Static dielectric constant tensor:
#      x y z
#    x 2.066010 0.000000 0.000000 
#    y 0.000000 2.094850 0.000000 
#    z 0.000000 0.000000 2.078180 
# 
# From -- ./inp_files/7295.got.cif
#   From: 2010.05.17/outbox.cif.g08.bks.cpg/sg52_4_cif.got.tgz:7295.got - 2010.06.03 12:15:38.
