data_PCOD9413315
_publ_section_title
;
Structure prediction by ZEFSAII (Michael W. Deem and Ramdas Pophale) SiO2 
 PCOD9413315
Probable space group: P N N A
;
_chemical_formula_sum "Si O2"
_cell_formula_units_Z 40
_cell_length_a 10.723603
_cell_length_b 9.690662
_cell_length_c 18.810900
_cell_angle_alpha 90.000000
_cell_angle_beta 90.000000
_cell_angle_gamma 90.000000
_cell_volume 1954.806382
_symmetry_space_group_name_H-M "P N N A"
_symmetry_group_IT_number 52
_symmetry_cell_setting 'orthorhombic'
loop_
_space_group_symop_operation_xyz
x,y,z
1/2-x,-y,z
x,1/2-y,1/2-z
1/2-x,1/2+y,1/2-z
-x,-y,-z
1/2+x,y,-z
-x,1/2+y,1/2+z
1/2+x,1/2-y,1/2+z
loop_
_atom_site_type_symbol
_atom_site_label
_atom_site_fract_x
_atom_site_fract_y
_atom_site_fract_z
Si Si1 0.597412 0.018299 0.566580
Si Si2 0.872980 0.947252 0.075156
Si Si3 0.703942 0.134392 0.794470
Si Si4 0.465626 0.264408 0.167675
Si Si5 0.421602 0.660181 0.431064
O O1 0.549142 0.911483 0.627386
O O2 0.750000 0.000000 0.553648
O O3 0.500000 0.000000 0.500000
O O4 0.579443 0.178907 0.585573
O O5 0.952565 0.837567 0.119445
O O6 0.750000 0.000000 0.113846
O O7 0.841141 0.871550 0.000814
O O8 0.947368 0.086706 0.054938
O O9 0.633658 0.250000 0.750000
O O10 0.823912 0.211557 0.825464
O O11 0.626592 0.084494 0.860981
O O12 0.750000 0.000000 0.752364
O O13 0.511464 0.250000 0.250000
#
# Coordination Sequence:
#
# PCOD9413315 Si02
#       5
#     8   8   8   8   8
#     4  12  26  43  70 109 142 181 233 296 355 421
#     4  11  25  44  68  94 132 184 228 281 345 421
#     4  11  23  39  65  99 134 168 218 283 344 401
#     4  11  25  44  66  98 142 177 225 292 347 414
#     4  11  24  40  69  98 132 170 228 277 341 413
#
# _framework density 20.462385000000001
#
# number of rings (size 3 to 8) (size 9 to 14) (size 15 to 20)
#    0.000    0.800    6.000    0.600   11.200    0.000 
#    0.000    4.000    0.000    0.000    0.000    0.000 
#    0.000    0.000    0.000    0.000    0.000    0.000 
#
# Total GULP energy -222838.894180 kJ/mol
# GULP energy per Si atom -5570.972355 kJ/mol
# Density = 2.041581 g / cm^3
# Si number density = 20.462385 Si / 1000 Ang^3
#
#
#
# Elastic Constant Matrix: (Units=GPa)
#
#
# Indices 1 2 3 4 5 6 
#
# 1 70.3959 30.7852 22.4041 0.0000 0.0000 0.0000
# 2 30.7852 172.5345 43.2945 0.0000 0.0000 0.0000
# 3 22.4041 43.2945 114.8432 0.0000 0.0000 0.0000
# 4 0.0000 0.0000 0.0000 34.5333 0.0000 0.0000
# 5 0.0000 0.0000 0.0000 0.0000 18.0161 0.0000
# 6 0.0000 0.0000 0.0000 0.0000 0.0000 26.3390
#
#
#
# Elastic Compliance Matrix: (Units=1/GPa)
#
#
# Indices 1 2 3 4 5 6 
#
# 1 0.015916 -0.002276 -0.002247 0.000000 0.000000 0.000000
# 2 -0.002276 0.006727 -0.002092 0.000000 0.000000 0.000000
# 3 -0.002247 -0.002092 0.009935 0.000000 0.000000 0.000000
# 4 0.000000 0.000000 0.000000 0.028958 0.000000 0.000000
# 5 0.000000 0.000000 0.000000 0.000000 0.055506 0.000000
# 6 0.000000 0.000000 0.000000 0.000000 0.000000 0.037967
#
#
# Mechanical properties :
#
#
# Convention : Reuss Voigt Hill
#
# Bulk Modulus (GPa) = 51.68620 61.19345 56.43983
# Shear Modulus (GPa) = 28.62275 33.19700 30.90988
#
# Velocity S-wave (km/s) = 3.74411 4.03220 3.89082
# Velocity P-wave (km/s) = 6.63363 7.18669 6.91569
#
# Compressibility (1/GPa) = 0.01934752
#
# Stress axis : x y z
#
# Youngs Moduli (GPa) = 62.83063 148.65475 100.65921
#
# Poissons Ratio (x) = 0.33834 0.22617
# Poissons Ratio (y) = 0.14300 0.21058
# Poissons Ratio (z) = 0.14117 0.31098
#
# Static dielectric constant tensor:
#      x y z
#    x 1.769610 0.000000 0.000000 
#    y 0.000000 1.774530 0.000000 
#    z 0.000000 0.000000 1.841920 
# 
# From -- ./inp_files/31973.got.cif
#   From: 2010.05.17/outbox.cif.g08.bks.cpg/sg52_16_cif.got.tgz:31973.got - 2010.06.03 12:15:38.
