data_PCOD9413924
_publ_section_title
;
Structure prediction by ZEFSAII (Michael W. Deem and Ramdas Pophale) SiO2 
 PCOD9413924
Probable space group: P N N A
;
_chemical_formula_sum "Si O2"
_cell_formula_units_Z 24
_cell_length_a 9.333079
_cell_length_b 9.309101
_cell_length_c 10.568602
_cell_angle_alpha 90.000000
_cell_angle_beta 90.000000
_cell_angle_gamma 90.000000
_cell_volume 918.227356
_symmetry_space_group_name_H-M "P N N A"
_symmetry_group_IT_number 52
_symmetry_cell_setting 'orthorhombic'
loop_
_space_group_symop_operation_xyz
x,y,z
1/2-x,-y,z
x,1/2-y,1/2-z
1/2-x,1/2+y,1/2-z
-x,-y,-z
1/2+x,y,-z
-x,1/2+y,1/2+z
1/2+x,1/2-y,1/2+z
loop_
_atom_site_type_symbol
_atom_site_label
_atom_site_fract_x
_atom_site_fract_y
_atom_site_fract_z
Si Si1 0.348228 0.364545 0.138857
Si Si2 0.750000 0.500000 0.334598
Si Si3 0.611010 0.249747 0.015382
Si Si4 0.055567 0.750000 0.750000
O O1 0.250000 0.500000 0.177148
O O2 0.339593 0.250000 0.250000
O O3 0.232260 0.691689 0.014481
O O4 0.514702 0.358704 0.098221
O O5 0.639550 0.403135 0.418271
O O6 0.843225 0.388371 0.256239
O O7 0.539839 0.240425 0.876633
#
# Coordination Sequence:
#
# PCOD9413924 Si02
#       4
#     8   4   8   4
#     4  12  30  50  81 119 165 215 274 340 415 496
#     4  12  30  54  80 124 164 220 274 346 416 496
#     4  12  28  51  82 117 164 212 277 337 411 489
#     4  12  28  48  86 112 166 210 274 332 422 488
#
# _framework density 26.137319999999999
#
# number of rings (size 3 to 8) (size 9 to 14) (size 15 to 20)
#    0.000    0.000    5.000    2.000   11.667    0.000 
#    0.000    0.000    0.000    0.000    0.000    0.000 
#    0.000    0.000    0.000    0.000    0.000    0.000 
#
# Total GULP energy -134476.874462 kJ/mol
# GULP energy per Si atom -5603.203103 kJ/mol
# Density = 2.607783 g / cm^3
# Si number density = 26.137320 Si / 1000 Ang^3
#
#
#
# Elastic Constant Matrix: (Units=GPa)
#
#
# Indices 1 2 3 4 5 6 
#
# 1 130.3403 34.5125 55.5457 0.0000 0.0000 0.0000
# 2 34.5125 154.0321 74.5136 0.0000 0.0000 0.0000
# 3 55.5457 74.5136 159.3572 0.0000 0.0000 0.0000
# 4 0.0000 0.0000 0.0000 60.5104 0.0000 0.0000
# 5 0.0000 0.0000 0.0000 0.0000 57.2285 0.0000
# 6 0.0000 0.0000 0.0000 0.0000 0.0000 60.4696
#
#
#
# Elastic Compliance Matrix: (Units=1/GPa)
#
#
# Indices 1 2 3 4 5 6 
#
# 1 0.009061 -0.000649 -0.002855 0.000000 0.000000 0.000000
# 2 -0.000649 0.008436 -0.003719 0.000000 0.000000 0.000000
# 3 -0.002855 -0.003719 0.009009 0.000000 0.000000 0.000000
# 4 0.000000 0.000000 0.000000 0.016526 0.000000 0.000000
# 5 0.000000 0.000000 0.000000 0.000000 0.017474 0.000000
# 6 0.000000 0.000000 0.000000 0.000000 0.000000 0.016537
#
#
# Mechanical properties :
#
#
# Convention : Reuss Voigt Hill
#
# Bulk Modulus (GPa) = 82.90916 85.87480 84.39198
# Shear Modulus (GPa) = 52.35147 54.25223 53.30185
#
# Velocity S-wave (km/s) = 4.48028 4.56089 4.52076
# Velocity P-wave (km/s) = 7.65201 7.78859 7.72060
#
# Compressibility (1/GPa) = 0.01206139
#
# Stress axis : x y z
#
# Youngs Moduli (GPa) = 110.36738 118.53321 111.00070
#
# Poissons Ratio (x) = 0.07695 0.31687
# Poissons Ratio (y) = 0.07165 0.41276
# Poissons Ratio (z) = 0.31506 0.44077
#
# Static dielectric constant tensor:
#      x y z
#    x 2.088580 0.000000 0.000000 
#    y 0.000000 2.070010 0.000000 
#    z 0.000000 0.000000 2.048720 
# 
# From -- ./inp_files/17479.got.cif
#   From: 2010.05.17/outbox.cif.g08.bks.cpg/sg52_9_cif.got.tgz:17479.got - 2010.06.03 12:15:38.
