data_PCOD9413849
_publ_section_title
;
Structure prediction by ZEFSAII (Michael W. Deem and Ramdas Pophale) SiO2 
 PCOD9413849
Probable space group: P N N A
;
_chemical_formula_sum "Si O2"
_cell_formula_units_Z 40
_cell_length_a 11.675067
_cell_length_b 16.276471
_cell_length_c 9.960476
_cell_angle_alpha 90.000000
_cell_angle_beta 90.000000
_cell_angle_gamma 90.000000
_cell_volume 1892.778193
_symmetry_space_group_name_H-M "P N N A"
_symmetry_group_IT_number 52
_symmetry_cell_setting 'orthorhombic'
loop_
_space_group_symop_operation_xyz
x,y,z
1/2-x,-y,z
x,1/2-y,1/2-z
1/2-x,1/2+y,1/2-z
-x,-y,-z
1/2+x,y,-z
-x,1/2+y,1/2+z
1/2+x,1/2-y,1/2+z
loop_
_atom_site_type_symbol
_atom_site_label
_atom_site_fract_x
_atom_site_fract_y
_atom_site_fract_z
Si Si1 0.222229 0.162251 0.453556
Si Si2 0.817038 0.912581 0.260564
Si Si3 0.052636 0.546359 0.374908
Si Si4 0.750000 0.500000 0.797665
Si Si5 0.851763 0.317303 0.439226
Si Si6 0.453058 0.750000 0.250000
O O1 0.175810 0.130367 0.595616
O O2 0.312618 0.231889 0.495223
O O3 0.127945 0.200316 0.353080
O O4 0.272816 0.081356 0.383288
O O5 0.747476 0.856184 0.154490
O O6 0.945572 0.926432 0.212384
O O7 0.750000 0.000000 0.268409
O O8 0.139169 0.488890 0.294446
O O9 0.121792 0.621849 0.438526
O O10 0.000000 0.500000 0.500000
O O11 0.961717 0.304221 0.343009
#
# Coordination Sequence:
#
# PCOD9413849 Si02
#       6
#     8   8   8   4   8   4
#     4  12  27  48  72 109 149 193 255 307 383 448
#     4  12  25  47  77 108 149 201 246 311 379 453
#     4  12  25  45  77 106 149 191 256 302 380 453
#     4  12  28  46  74 108 142 198 248 312 368 452
#     4  12  25  49  73 108 148 198 246 314 374 454
#     4  12  26  46  76 102 154 196 244 312 384 450
#
# _framework density 21.132957000000001
#
# number of rings (size 3 to 8) (size 9 to 14) (size 15 to 20)
#    0.000    0.000    5.000    4.800    2.800    0.800 
#    0.000    0.000    0.000    0.000    0.000    0.000 
#    0.000    0.000    0.000    0.000    0.000    0.000 
#
# Total GULP energy -223923.946402 kJ/mol
# GULP energy per Si atom -5598.098660 kJ/mol
# Density = 2.108486 g / cm^3
# Si number density = 21.132957 Si / 1000 Ang^3
#
#
#
# Elastic Constant Matrix: (Units=GPa)
#
#
# Indices 1 2 3 4 5 6 
#
# 1 97.3604 28.3878 58.0708 0.0000 0.0000 0.0000
# 2 28.3878 114.0324 59.2207 0.0000 0.0000 0.0000
# 3 58.0708 59.2207 120.9471 0.0000 0.0000 0.0000
# 4 0.0000 0.0000 0.0000 59.2477 0.0000 0.0000
# 5 0.0000 0.0000 0.0000 0.0000 41.9020 0.0000
# 6 0.0000 0.0000 0.0000 0.0000 0.0000 41.8876
#
#
#
# Elastic Compliance Matrix: (Units=1/GPa)
#
#
# Indices 1 2 3 4 5 6 
#
# 1 0.014393 0.000008 -0.006914 0.000000 0.000000 0.000000
# 2 0.000008 0.011760 -0.005762 0.000000 0.000000 0.000000
# 3 -0.006914 -0.005762 0.014409 0.000000 0.000000 0.000000
# 4 0.000000 0.000000 0.000000 0.016878 0.000000 0.000000
# 5 0.000000 0.000000 0.000000 0.000000 0.023865 0.000000
# 6 0.000000 0.000000 0.000000 0.000000 0.000000 0.023873
#
#
# Mechanical properties :
#
#
# Convention : Reuss Voigt Hill
#
# Bulk Modulus (GPa) = 65.68110 69.29984 67.49047
# Shear Modulus (GPa) = 36.87575 41.05150 38.96362
#
# Velocity S-wave (km/s) = 4.18178 4.41220 4.29853
# Velocity P-wave (km/s) = 7.37996 7.66943 7.52609
#
# Compressibility (1/GPa) = 0.01522508
#
# Stress axis : x y z
#
# Youngs Moduli (GPa) = 69.47866 85.03554 69.40057
#
# Poissons Ratio (x) = -0.00066 0.47986
# Poissons Ratio (y) = -0.00054 0.39987
# Poissons Ratio (z) = 0.48040 0.48996
#
# Static dielectric constant tensor:
#      x y z
#    x 1.697270 0.000000 0.000000 
#    y 0.000000 1.583900 0.000000 
#    z 0.000000 0.000000 1.721170 
# 
# From -- ./inp_files/8559.got.cif
#   From: 2010.05.17/outbox.cif.g08.bks.cpg/sg52_5_cif.got.tgz:8559.got - 2010.06.03 12:15:38.
