data_PCOD9413009
_publ_section_title
;
Structure prediction by ZEFSAII (Michael W. Deem and Ramdas Pophale) SiO2 
 PCOD9413009
Probable space group: P N N A
;
_chemical_formula_sum "Si O2"
_cell_formula_units_Z 40
_cell_length_a 10.058456
_cell_length_b 12.078814
_cell_length_c 18.148698
_cell_angle_alpha 90.000000
_cell_angle_beta 90.000000
_cell_angle_gamma 90.000000
_cell_volume 2204.961892
_symmetry_space_group_name_H-M "P N N A"
_symmetry_group_IT_number 52
_symmetry_cell_setting 'orthorhombic'
loop_
_space_group_symop_operation_xyz
x,y,z
1/2-x,-y,z
x,1/2-y,1/2-z
1/2-x,1/2+y,1/2-z
-x,-y,-z
1/2+x,y,-z
-x,1/2+y,1/2+z
1/2+x,1/2-y,1/2+z
loop_
_atom_site_type_symbol
_atom_site_label
_atom_site_fract_x
_atom_site_fract_y
_atom_site_fract_z
Si Si1 0.776260 0.312639 0.143910
Si Si2 0.356606 0.086019 0.800498
Si Si3 0.111238 0.936038 0.221804
Si Si4 0.458146 0.215057 0.360809
Si Si5 0.369729 0.424312 0.006240
O O1 0.855517 0.197615 0.152224
O O2 0.804374 0.378473 0.219374
O O3 0.619006 0.286746 0.139694
O O4 0.824299 0.379970 0.073290
O O5 0.250000 0.000000 0.831994
O O6 0.495570 0.024893 0.792101
O O7 0.087710 0.875538 0.300226
O O8 0.094577 0.834740 0.164301
O O9 0.250000 0.000000 0.218781
O O10 0.403088 0.175368 0.438869
O O11 0.250000 0.500000 0.036086
O O12 0.500000 0.500000 0.000000
#
# Coordination Sequence:
#
# PCOD9413009 Si02
#       5
#     8   8   8   8   8
#     4  11  22  38  64  94 116 159 213 238 296 370
#     4  11  19  38  68  87 114 159 204 248 290 357
#     4  11  23  39  64  93 123 154 199 255 309 347
#     4  11  22  41  62  89 125 160 197 252 303 359
#     4  12  24  39  62  89 124 157 199 250 302 356
#
# _framework density 18.140903999999999
#
# number of rings (size 3 to 8) (size 9 to 14) (size 15 to 20)
#    0.000    0.800    6.000    3.600    0.000    4.800 
#    0.000    2.000    0.000    0.000    0.000    0.000 
#    0.000    0.000    0.000    0.000    0.000    0.000 
#
# Total GULP energy -223561.401915 kJ/mol
# GULP energy per Si atom -5589.035048 kJ/mol
# Density = 1.809961 g / cm^3
# Si number density = 18.140904 Si / 1000 Ang^3
#
#
#
# Elastic Constant Matrix: (Units=GPa)
#
#
# Indices 1 2 3 4 5 6 
#
# 1 142.9647 55.9794 12.8439 0.0000 0.0000 0.0000
# 2 55.9794 116.7625 25.3184 0.0000 0.0000 0.0000
# 3 12.8439 25.3184 68.8829 0.0000 0.0000 0.0000
# 4 0.0000 0.0000 0.0000 22.6028 0.0000 0.0000
# 5 0.0000 0.0000 0.0000 0.0000 15.8306 0.0000
# 6 0.0000 0.0000 0.0000 0.0000 0.0000 35.3704
#
#
#
# Elastic Compliance Matrix: (Units=1/GPa)
#
#
# Indices 1 2 3 4 5 6 
#
# 1 0.008612 -0.004108 -0.000096 0.000000 0.000000 0.000000
# 2 -0.004108 0.011266 -0.003375 0.000000 0.000000 0.000000
# 3 -0.000096 -0.003375 0.015776 0.000000 0.000000 0.000000
# 4 0.000000 0.000000 0.000000 0.044242 0.000000 0.000000
# 5 0.000000 0.000000 0.000000 0.000000 0.063169 0.000000
# 6 0.000000 0.000000 0.000000 0.000000 0.000000 0.028272
#
#
# Mechanical properties :
#
#
# Convention : Reuss Voigt Hill
#
# Bulk Modulus (GPa) = 48.79012 57.43260 53.11136
# Shear Modulus (GPa) = 25.86308 30.39200 28.12754
#
# Velocity S-wave (km/s) = 3.77991 4.09752 3.94192
# Velocity P-wave (km/s) = 6.78261 7.35623 7.07523
#
# Compressibility (1/GPa) = 0.02049595
#
# Stress axis : x y z
#
# Youngs Moduli (GPa) = 116.11874 88.76525 63.38862
#
# Poissons Ratio (x) = 0.36465 0.00608
# Poissons Ratio (y) = 0.47702 0.21392
# Poissons Ratio (z) = 0.01113 0.29956
#
# Static dielectric constant tensor:
#      x y z
#    x 1.675800 0.000000 0.000000 
#    y 0.000000 1.744780 0.000000 
#    z 0.000000 0.000000 1.630140 
# 
# From -- ./inp_files/30845.got.cif
#   From: 2010.05.17/outbox.cif.g08.bks.cpg/sg52_16_cif.got.tgz:30845.got - 2010.06.03 12:15:38.
