data_PCOD9413035
_publ_section_title
;
Structure prediction by ZEFSAII (Michael W. Deem and Ramdas Pophale) SiO2 
 PCOD9413035
Probable space group: P N N A
;
_chemical_formula_sum "Si O2"
_cell_formula_units_Z 48
_cell_length_a 9.209968
_cell_length_b 13.533999
_cell_length_c 18.829165
_cell_angle_alpha 90.000000
_cell_angle_beta 90.000000
_cell_angle_gamma 90.000000
_cell_volume 2347.012067
_symmetry_space_group_name_H-M "P N N A"
_symmetry_group_IT_number 52
_symmetry_cell_setting 'orthorhombic'
loop_
_space_group_symop_operation_xyz
x,y,z
1/2-x,-y,z
x,1/2-y,1/2-z
1/2-x,1/2+y,1/2-z
-x,-y,-z
1/2+x,y,-z
-x,1/2+y,1/2+z
1/2+x,1/2-y,1/2+z
loop_
_atom_site_type_symbol
_atom_site_label
_atom_site_fract_x
_atom_site_fract_y
_atom_site_fract_z
Si Si1 0.666656 0.349958 0.438086
Si Si2 0.367723 0.073515 0.509248
Si Si3 0.577572 0.874857 0.839718
Si Si4 0.750000 0.000000 0.728794
Si Si5 0.983526 0.263924 0.442646
Si Si6 0.747221 0.186012 0.632583
Si Si7 0.750000 0.500000 0.544994
O O1 0.590106 0.369909 0.363414
O O2 0.840362 0.331665 0.435679
O O3 0.568501 0.269707 0.481158
O O4 0.647215 0.439262 0.493085
O O5 0.412853 0.156978 0.562918
O O6 0.309451 0.131441 0.438660
O O7 0.250000 0.000000 0.538519
O O8 0.500000 0.000000 0.500000
O O9 0.636466 0.762315 0.833977
O O10 0.661013 0.924340 0.906735
O O11 0.624891 0.948753 0.776936
O O12 0.701446 0.093842 0.681589
O O13 0.113752 0.259594 0.386526
#
# Coordination Sequence:
#
# PCOD9413035 Si02
#       7
#     8   8   8   4   8   8   4
#     4  12  21  36  63 101 138 159 204 269 349 402
#     4  12  20  32  58  96 134 161 206 261 332 397
#     4  11  24  40  66  93 127 172 221 267 323 395
#     4  11  26  44  66  86 120 181 240 264 312 395
#     4  12  21  37  62 102 135 163 202 272 349 395
#     4  12  22  43  64  94 128 176 222 272 323 398
#     4  11  20  36  64 102 134 159 202 266 344 397
#
# _framework density 20.451533999999999
#
# number of rings (size 3 to 8) (size 9 to 14) (size 15 to 20)
#    0.000    0.333    9.167    1.000    0.000    0.000 
#    0.000    0.000    0.000   10.000    0.000    0.000 
#    0.000    0.000    0.000    0.000    0.000    0.000 
#
# Total GULP energy -267383.726920 kJ/mol
# GULP energy per Si atom -5570.494311 kJ/mol
# Density = 2.040499 g / cm^3
# Si number density = 20.451534 Si / 1000 Ang^3
#
#
#
# Elastic Constant Matrix: (Units=GPa)
#
#
# Indices 1 2 3 4 5 6 
#
# 1 113.8547 11.5255 25.9662 0.0000 0.0000 0.0000
# 2 11.5255 83.6036 8.9648 0.0000 0.0000 0.0000
# 3 25.9662 8.9648 54.7712 0.0000 0.0000 0.0000
# 4 0.0000 0.0000 0.0000 35.2254 0.0000 0.0000
# 5 0.0000 0.0000 0.0000 0.0000 19.4717 0.0000
# 6 0.0000 0.0000 0.0000 0.0000 0.0000 41.7765
#
#
#
# Elastic Compliance Matrix: (Units=1/GPa)
#
#
# Indices 1 2 3 4 5 6 
#
# 1 0.009911 -0.000878 -0.004555 0.000000 0.000000 0.000000
# 2 -0.000878 0.012253 -0.001589 0.000000 0.000000 0.000000
# 3 -0.004555 -0.001589 0.020677 0.000000 0.000000 0.000000
# 4 0.000000 0.000000 0.000000 0.028389 0.000000 0.000000
# 5 0.000000 0.000000 0.000000 0.000000 0.051357 0.000000
# 6 0.000000 0.000000 0.000000 0.000000 0.000000 0.023937
#
#
# Mechanical properties :
#
#
# Convention : Reuss Voigt Hill
#
# Bulk Modulus (GPa) = 34.72623 38.34915 36.53769
# Shear Modulus (GPa) = 29.38312 33.01293 31.19802
#
# Velocity S-wave (km/s) = 3.79452 4.02207 3.90995
# Velocity P-wave (km/s) = 6.01785 6.35306 6.18772
#
# Compressibility (1/GPa) = 0.02879668
#
# Stress axis : x y z
#
# Youngs Moduli (GPa) = 100.90006 81.61502 48.36223
#
# Poissons Ratio (x) = 0.07165 0.22028
# Poissons Ratio (y) = 0.08858 0.07686
# Poissons Ratio (z) = 0.45959 0.12971
#
# Static dielectric constant tensor:
#      x y z
#    x 2.006670 0.000000 0.000000 
#    y 0.000000 1.929090 0.000000 
#    z 0.000000 0.000000 1.757570 
# 
# From -- ./inp_files/31278.got.cif
#   From: 2010.05.17/outbox.cif.g08.bks.cpg/sg52_16_cif.got.tgz:31278.got - 2010.06.03 12:15:38.
