data_PCOD9413674
_publ_section_title
;
Structure prediction by ZEFSAII (Michael W. Deem and Ramdas Pophale) SiO2 
 PCOD9413674
Probable space group: P N N A
;
_chemical_formula_sum "Si O2"
_cell_formula_units_Z 32
_cell_length_a 13.941411
_cell_length_b 5.539023
_cell_length_c 18.092644
_cell_angle_alpha 90.000000
_cell_angle_beta 90.000000
_cell_angle_gamma 90.000000
_cell_volume 1397.146467
_symmetry_space_group_name_H-M "P N N A"
_symmetry_group_IT_number 52
_symmetry_cell_setting 'orthorhombic'
loop_
_space_group_symop_operation_xyz
x,y,z
1/2-x,-y,z
x,1/2-y,1/2-z
1/2-x,1/2+y,1/2-z
-x,-y,-z
1/2+x,y,-z
-x,1/2+y,1/2+z
1/2+x,1/2-y,1/2+z
loop_
_atom_site_type_symbol
_atom_site_label
_atom_site_fract_x
_atom_site_fract_y
_atom_site_fract_z
Si Si1 0.072180 0.807402 0.030474
Si Si2 0.750000 0.000000 0.294352
Si Si3 0.054736 0.548471 0.879311
Si Si4 0.250000 0.500000 0.198985
Si Si5 0.750000 0.000000 0.890395
Si Si6 0.071352 0.250000 0.250000
O O1 0.023298 0.649846 0.095022
O O2 0.158650 0.964331 0.059389
O O3 0.092547 0.648818 0.957920
O O4 0.000000 0.000000 0.000000
O O5 0.735064 0.750000 0.250000
O O6 0.650610 0.040055 0.338705
O O7 0.996869 0.725865 0.822278
O O8 0.247051 0.258145 0.151045
O O9 0.148466 0.471796 0.243261
#
# Coordination Sequence:
#
# PCOD9413674 Si02
#       6
#     8   4   8   4   4   4
#     4  11  27  48  81 114 158 216 272 338 409 483
#     4  12  30  50  82 118 158 218 270 326 406 484
#     4  11  27  52  80 116 163 216 272 342 405 492
#     4  12  27  47  82 117 149 216 254 336 410 484
#     4  12  27  49  78 115 159 200 270 324 410 478
#     4  12  24  54  76 116 168 204 274 334 414 490
#
# _framework density 22.903827
#
# number of rings (size 3 to 8) (size 9 to 14) (size 15 to 20)
#    0.000    0.500    3.750    2.250   10.500    2.000 
#    6.750    0.000    0.000    0.000    0.000    0.000 
#    0.000    0.000    0.000    0.000    0.000    0.000 
#
# Total GULP energy -178609.683453 kJ/mol
# GULP energy per Si atom -5581.552608 kJ/mol
# Density = 2.285170 g / cm^3
# Si number density = 22.903827 Si / 1000 Ang^3
#
#
#
# Elastic Constant Matrix: (Units=GPa)
#
#
# Indices 1 2 3 4 5 6 
#
# 1 159.7064 57.2807 90.3659 0.0000 0.0000 0.0000
# 2 57.2807 137.4477 69.1328 0.0000 0.0000 0.0000
# 3 90.3659 69.1328 124.2170 0.0000 0.0000 0.0000
# 4 0.0000 0.0000 0.0000 38.4773 0.0000 0.0000
# 5 0.0000 0.0000 0.0000 0.0000 54.4180 0.0000
# 6 0.0000 0.0000 0.0000 0.0000 0.0000 45.9510
#
#
#
# Elastic Compliance Matrix: (Units=1/GPa)
#
#
# Indices 1 2 3 4 5 6 
#
# 1 0.010698 -0.000755 -0.007362 0.000000 0.000000 0.000000
# 2 -0.000755 0.010157 -0.005103 0.000000 0.000000 0.000000
# 3 -0.007362 -0.005103 0.016247 0.000000 0.000000 0.000000
# 4 0.000000 0.000000 0.000000 0.025989 0.000000 0.000000
# 5 0.000000 0.000000 0.000000 0.000000 0.018376 0.000000
# 6 0.000000 0.000000 0.000000 0.000000 0.000000 0.021762
#
#
# Mechanical properties :
#
#
# Convention : Reuss Voigt Hill
#
# Bulk Modulus (GPa) = 93.81057 94.99220 94.40139
# Shear Modulus (GPa) = 37.53025 41.40871 39.46948
#
# Velocity S-wave (km/s) = 4.05236 4.25660 4.15573
# Velocity P-wave (km/s) = 7.93365 8.10695 8.02077
#
# Compressibility (1/GPa) = 0.01065978
#
# Stress axis : x y z
#
# Youngs Moduli (GPa) = 93.47339 98.45234 61.55065
#
# Poissons Ratio (x) = 0.07436 0.45316
# Poissons Ratio (y) = 0.07060 0.31412
# Poissons Ratio (z) = 0.68819 0.50245
#
# Static dielectric constant tensor:
#      x y z
#    x 1.924610 0.000000 0.000000 
#    y 0.000000 1.881220 0.000000 
#    z 0.000000 0.000000 1.713420 
# 
# From -- ./inp_files/32749.got.cif
#   From: 2010.05.17/outbox.cif.g08.bks.cpg/sg52_17_cif.got.tgz:32749.got - 2010.06.03 12:15:38.
