data_PCOD9413937
_publ_section_title
;
Structure prediction by ZEFSAII (Michael W. Deem and Ramdas Pophale) SiO2 
 PCOD9413937
Probable space group: P N N A
;
_chemical_formula_sum "Si O2"
_cell_formula_units_Z 32
_cell_length_a 7.645372
_cell_length_b 7.082161
_cell_length_c 21.120310
_cell_angle_alpha 90.000000
_cell_angle_beta 90.000000
_cell_angle_gamma 90.000000
_cell_volume 1143.575139
_symmetry_space_group_name_H-M "P N N A"
_symmetry_group_IT_number 52
_symmetry_cell_setting 'orthorhombic'
loop_
_space_group_symop_operation_xyz
x,y,z
1/2-x,-y,z
x,1/2-y,1/2-z
1/2-x,1/2+y,1/2-z
-x,-y,-z
1/2+x,y,-z
-x,1/2+y,1/2+z
1/2+x,1/2-y,1/2+z
loop_
_atom_site_type_symbol
_atom_site_label
_atom_site_fract_x
_atom_site_fract_y
_atom_site_fract_z
Si Si1 0.053167 0.332394 0.096333
Si Si2 0.459864 0.558204 0.642829
Si Si3 0.798409 0.777755 0.032162
Si Si4 0.455119 0.465155 0.776153
O O1 0.073086 0.120668 0.123211
O O2 0.856645 0.323706 0.068997
O O3 0.057966 0.467065 0.157441
O O4 0.160696 0.328252 0.032082
O O5 0.250000 0.500000 0.647859
O O6 0.455270 0.700690 0.583612
O O7 0.506951 0.591952 0.715494
O O8 0.750000 0.000000 0.018230
O O9 0.250000 0.500000 0.791036
O O10 0.465508 0.250000 0.750000
#
# Coordination Sequence:
#
# PCOD9413937 Si02
#       4
#     8   8   8   8
#     4   9  16  25  42  68  95 124 160 205 252 299
#     4   7  12  23  41  64  88 115 160 210 238 271
#     4   9  15  26  43  69  98 125 162 207 250 299
#     4   9  16  28  46  71  97 128 171 216 252 293
#
# _framework density 27.982420000000001
#
# number of rings (size 3 to 8) (size 9 to 14) (size 15 to 20)
#    0.000    4.000    0.000    4.500    0.000    0.000 
#    0.000    1.250    0.000    0.000    0.000  103.250 
#    0.000    0.000    0.000    0.000    0.000    0.000 
#
# Total GULP energy -178751.497699 kJ/mol
# GULP energy per Si atom -5585.984303 kJ/mol
# Density = 2.791873 g / cm^3
# Si number density = 27.982420 Si / 1000 Ang^3
#
#
#
# Elastic Constant Matrix: (Units=GPa)
#
#
# Indices 1 2 3 4 5 6 
#
# 1 48.0553 28.9062 58.5711 0.0000 0.0000 0.0000
# 2 28.9062 74.3172 77.2293 0.0000 0.0000 0.0000
# 3 58.5711 77.2293 347.8017 0.0000 0.0000 0.0000
# 4 0.0000 0.0000 0.0000 40.9086 0.0000 0.0000
# 5 0.0000 0.0000 0.0000 0.0000 25.8864 0.0000
# 6 0.0000 0.0000 0.0000 0.0000 0.0000 19.0504
#
#
#
# Elastic Compliance Matrix: (Units=1/GPa)
#
#
# Indices 1 2 3 4 5 6 
#
# 1 0.029613 -0.008236 -0.003158 0.000000 0.000000 0.000000
# 2 -0.008236 0.019783 -0.003006 0.000000 0.000000 0.000000
# 3 -0.003158 -0.003006 0.004074 0.000000 0.000000 0.000000
# 4 0.000000 0.000000 0.000000 0.024445 0.000000 0.000000
# 5 0.000000 0.000000 0.000000 0.000000 0.038630 0.000000
# 6 0.000000 0.000000 0.000000 0.000000 0.000000 0.052492
#
#
# Mechanical properties :
#
#
# Convention : Reuss Voigt Hill
#
# Bulk Modulus (GPa) = 40.53518 88.84305 64.68911
# Shear Modulus (GPa) = 24.26465 37.53358 30.89912
#
# Velocity S-wave (km/s) = 2.94792 3.66639 3.32661
# Velocity P-wave (km/s) = 5.10924 7.05278 6.15817
#
# Compressibility (1/GPa) = 0.02466993
#
# Stress axis : x y z
#
# Youngs Moduli (GPa) = 33.76927 50.54852 245.43143
#
# Poissons Ratio (x) = 0.41633 0.77508
# Poissons Ratio (y) = 0.27813 0.73771
# Poissons Ratio (z) = 0.10664 0.15194
#
# Static dielectric constant tensor:
#      x y z
#    x 2.221920 0.000000 0.000000 
#    y 0.000000 1.764610 0.000000 
#    z 0.000000 0.000000 2.169530 
# 
# From -- ./inp_files/32081.got.cif
#   From: 2010.05.17/outbox.cif.g08.bks.cpg/sg52_17_cif.got.tgz:32081.got - 2010.06.03 12:15:38.
