data_PCOD9413551
_publ_section_title
;
Structure prediction by ZEFSAII (Michael W. Deem and Ramdas Pophale) SiO2 
 PCOD9413551
Probable space group: P N N A
;
_chemical_formula_sum "Si O2"
_cell_formula_units_Z 40
_cell_length_a 10.980575
_cell_length_b 5.876720
_cell_length_c 26.962293
_cell_angle_alpha 90.000000
_cell_angle_beta 90.000000
_cell_angle_gamma 90.000000
_cell_volume 1739.870423
_symmetry_space_group_name_H-M "P N N A"
_symmetry_group_IT_number 52
_symmetry_cell_setting 'orthorhombic'
loop_
_space_group_symop_operation_xyz
x,y,z
1/2-x,-y,z
x,1/2-y,1/2-z
1/2-x,1/2+y,1/2-z
-x,-y,-z
1/2+x,y,-z
-x,1/2+y,1/2+z
1/2+x,1/2-y,1/2+z
loop_
_atom_site_type_symbol
_atom_site_label
_atom_site_fract_x
_atom_site_fract_y
_atom_site_fract_z
Si Si1 0.250000 0.000000 0.678111
Si Si2 0.455832 0.674420 0.883223
Si Si3 0.637778 0.177266 0.589256
Si Si4 0.120181 0.510992 0.319563
Si Si5 0.318115 0.757292 0.975451
Si Si6 0.936018 0.250000 0.250000
O O1 0.174017 0.170557 0.643707
O O2 0.349482 0.117592 0.712322
O O3 0.507424 0.430470 0.898086
O O4 0.555561 0.773648 0.845383
O O5 0.430490 0.778987 0.937041
O O6 0.649379 0.357145 0.632622
O O7 0.642055 0.257013 0.532776
O O8 0.750000 0.000000 0.593586
O O9 0.250000 0.500000 0.291962
O O10 0.020916 0.412915 0.282212
O O11 0.250000 0.500000 0.968073
O O12 0.250000 0.000000 0.968014
#
# Coordination Sequence:
#
# PCOD9413551 Si02
#       6
#     4   8   8   8   8   4
#     4  12  26  50  72 112 142 202 256 320 400 468
#     4  12  26  46  79 105 158 198 258 323 391 476
#     4  11  24  49  73 110 154 203 256 321 384 473
#     4  12  27  47  77 110 146 204 258 332 398 466
#     4  11  27  46  77 118 160 208 260 317 395 483
#     4  12  28  48  76 104 152 194 266 328 396 468
#
# _framework density 22.990217000000001
#
# number of rings (size 3 to 8) (size 9 to 14) (size 15 to 20)
#    0.000    0.400    5.000    2.400    8.400    3.200 
#    0.000    0.000    0.000    0.000    0.000    0.000 
#    0.000    0.000    0.000    0.000    0.000    0.000 
#
# Total GULP energy -223242.136023 kJ/mol
# GULP energy per Si atom -5581.053401 kJ/mol
# Density = 2.293789 g / cm^3
# Si number density = 22.990217 Si / 1000 Ang^3
#
#
#
# Elastic Constant Matrix: (Units=GPa)
#
#
# Indices 1 2 3 4 5 6 
#
# 1 119.3643 16.5623 18.3941 0.0000 0.0000 0.0000
# 2 16.5623 57.3484 -5.3927 0.0000 0.0000 0.0000
# 3 18.3941 -5.3927 47.4180 0.0000 0.0000 0.0000
# 4 0.0000 0.0000 0.0000 -7.0824 0.0000 0.0000
# 5 0.0000 0.0000 0.0000 0.0000 832.0170 0.0000
# 6 0.0000 0.0000 0.0000 0.0000 0.0000 35.0729
#
#
#
# Elastic Compliance Matrix: (Units=1/GPa)
#
#
# Indices 1 2 3 4 5 6 
#
# 1 0.009425 -0.003099 -0.004009 0.000000 0.000000 0.000000
# 2 -0.003099 0.018645 0.003323 0.000000 0.000000 0.000000
# 3 -0.004009 0.003323 0.023022 0.000000 0.000000 0.000000
# 4 0.000000 0.000000 0.000000 -0.141195 0.000000 0.000000
# 5 0.000000 0.000000 0.000000 0.000000 0.001202 0.000000
# 6 0.000000 0.000000 0.000000 0.000000 0.000000 0.028512
#
#
# Mechanical properties :
#
#
# Convention : Reuss Voigt Hill
#
# Bulk Modulus (GPa) = 22.97705 31.47312 27.22509
# Shear Modulus (GPa) = -130.50816 184.97264 27.23224
#
# Velocity S-wave (km/s) = -7.54255 8.97952 3.44541
# Velocity P-wave (km/s) = 8.11403 11.01038 5.26266
#
# Compressibility (1/GPa) = 0.04352169
#
# Stress axis : x y z
#
# Youngs Moduli (GPa) = 106.09560 53.63454 43.43689
#
# Poissons Ratio (x) = 0.16622 0.17413
# Poissons Ratio (y) = 0.32879 -0.14432
# Poissons Ratio (z) = 0.42531 -0.17820
#
# Static dielectric constant tensor:
#      x y z
#    x 1.960360 0.000000 0.000000 
#    y 0.000000 1.856820 0.000000 
#    z 0.000000 0.000000 1.841530 
# 
# From -- ./inp_files/44750.got.cif
#   From: 2010.05.17/outbox.cif.g08.bks.cpg/sg52_23_cif.got.tgz:44750.got - 2010.06.03 12:15:38.
