data_PCOD9413432
_publ_section_title
;
Structure prediction by ZEFSAII (Michael W. Deem and Ramdas Pophale) SiO2 
 PCOD9413432
Probable space group: P N N A
;
_chemical_formula_sum "Si O2"
_cell_formula_units_Z 32
_cell_length_a 12.382743
_cell_length_b 9.569347
_cell_length_c 10.964201
_cell_angle_alpha 90.000000
_cell_angle_beta 90.000000
_cell_angle_gamma 90.000000
_cell_volume 1299.200416
_symmetry_space_group_name_H-M "P N N A"
_symmetry_group_IT_number 52
_symmetry_cell_setting 'orthorhombic'
loop_
_space_group_symop_operation_xyz
x,y,z
1/2-x,-y,z
x,1/2-y,1/2-z
1/2-x,1/2+y,1/2-z
-x,-y,-z
1/2+x,y,-z
-x,1/2+y,1/2+z
1/2+x,1/2-y,1/2+z
loop_
_atom_site_type_symbol
_atom_site_label
_atom_site_fract_x
_atom_site_fract_y
_atom_site_fract_z
Si Si1 0.654257 0.596297 0.697990
Si Si2 0.750000 0.000000 0.172423
Si Si3 0.889277 0.250000 0.250000
Si Si4 0.428144 0.809272 0.888906
Si Si5 0.440724 0.605681 0.088002
O O1 0.750000 0.500000 0.646419
O O2 0.691630 0.750000 0.750000
O O3 0.552796 0.638365 0.612253
O O4 0.611663 0.492237 0.807696
O O5 0.690354 0.880446 0.247147
O O6 0.849071 0.937562 0.100026
O O7 0.973216 0.286114 0.143577
O O8 0.419411 0.750000 0.750000
O O9 0.381193 0.701489 0.988654
O O10 0.500000 0.500000 0.000000
#
# Coordination Sequence:
#
# PCOD9413432 Si02
#       5
#     8   4   4   8   8
#     4  11  25  47  79 114 155 204 261 311 388 466
#     4  12  24  48  80 118 160 186 266 322 382 466
#     4  12  28  46  80 118 150 208 254 318 390 460
#     4  11  23  49  77 114 150 202 257 310 383 456
#     4  12  25  51  78 106 158 203 253 317 379 453
#
# _framework density 24.630534999999998
#
# number of rings (size 3 to 8) (size 9 to 14) (size 15 to 20)
#    0.000    0.500    8.750    0.000    1.750    3.000 
#    4.500    0.000    0.000    0.000    0.000    0.000 
#    0.000    0.000    0.000    0.000    0.000    0.000 
#
# Total GULP energy -178540.325077 kJ/mol
# GULP energy per Si atom -5579.385159 kJ/mol
# Density = 2.457448 g / cm^3
# Si number density = 24.630535 Si / 1000 Ang^3
#
#
#
# Elastic Constant Matrix: (Units=GPa)
#
#
# Indices 1 2 3 4 5 6 
#
# 1 56.8577 44.1459 15.4818 0.0000 0.0000 0.0000
# 2 44.1459 114.3143 38.5018 0.0000 0.0000 0.0000
# 3 15.4818 38.5018 107.6179 0.0000 0.0000 0.0000
# 4 0.0000 0.0000 0.0000 39.7366 0.0000 0.0000
# 5 0.0000 0.0000 0.0000 0.0000 7.7109 0.0000
# 6 0.0000 0.0000 0.0000 0.0000 0.0000 66.1489
#
#
#
# Elastic Compliance Matrix: (Units=1/GPa)
#
#
# Indices 1 2 3 4 5 6 
#
# 1 0.025122 -0.009647 -0.000163 0.000000 0.000000 0.000000
# 2 -0.009647 0.013651 -0.003496 0.000000 0.000000 0.000000
# 3 -0.000163 -0.003496 0.010566 0.000000 0.000000 0.000000
# 4 0.000000 0.000000 0.000000 0.025166 0.000000 0.000000
# 5 0.000000 0.000000 0.000000 0.000000 0.129686 0.000000
# 6 0.000000 0.000000 0.000000 0.000000 0.000000 0.015117
#
#
# Mechanical properties :
#
#
# Convention : Reuss Voigt Hill
#
# Bulk Modulus (GPa) = 43.99852 52.78320 48.39086
# Shear Modulus (GPa) = 19.72422 34.76331 27.24376
#
# Velocity S-wave (km/s) = 2.83292 3.76092 3.32941
# Velocity P-wave (km/s) = 5.34815 6.35106 5.87106
#
# Compressibility (1/GPa) = 0.02272804
#
# Stress axis : x y z
#
# Youngs Moduli (GPa) = 39.80549 73.25635 94.64073
#
# Poissons Ratio (x) = 0.70669 0.01540
# Poissons Ratio (y) = 0.38400 0.33086
# Poissons Ratio (z) = 0.00648 0.25610
#
# Static dielectric constant tensor:
#      x y z
#    x 1.805910 0.000000 0.000000 
#    y 0.000000 -0.444830 0.000000 
#    z 0.000000 0.000000 -6.291560 
# 
# From -- ./inp_files/18918.got.cif
#   From: 2010.05.17/outbox.cif.g08.bks.cpg/sg52_10_cif.got.tgz:18918.got - 2010.06.03 12:15:38.
