data_PCOD9413044
_publ_section_title
;
Structure prediction by ZEFSAII (Michael W. Deem and Ramdas Pophale) SiO2 
 PCOD9413044
Probable space group: P N N A
;
_chemical_formula_sum "Si O2"
_cell_formula_units_Z 32
_cell_length_a 7.784784
_cell_length_b 18.971152
_cell_length_c 10.738474
_cell_angle_alpha 90.000000
_cell_angle_beta 90.000000
_cell_angle_gamma 90.000000
_cell_volume 1585.925713
_symmetry_space_group_name_H-M "P N N A"
_symmetry_group_IT_number 52
_symmetry_cell_setting 'orthorhombic'
loop_
_space_group_symop_operation_xyz
x,y,z
1/2-x,-y,z
x,1/2-y,1/2-z
1/2-x,1/2+y,1/2-z
-x,-y,-z
1/2+x,y,-z
-x,1/2+y,1/2+z
1/2+x,1/2-y,1/2+z
loop_
_atom_site_type_symbol
_atom_site_label
_atom_site_fract_x
_atom_site_fract_y
_atom_site_fract_z
Si Si1 0.313250 0.287352 0.636957
Si Si2 0.300881 0.425252 0.792721
Si Si3 0.694441 0.229230 0.617318
Si Si4 0.847427 0.574290 0.951742
O O1 0.210255 0.250000 0.750000
O O2 0.329215 0.366400 0.688209
O O3 0.489726 0.242536 0.628006
O O4 0.241384 0.277603 0.499754
O O5 0.250000 0.500000 0.734813
O O6 0.471760 0.429961 0.879297
O O7 0.153696 0.413379 0.898463
O O8 0.770931 0.250000 0.750000
O O9 0.734424 0.147421 0.594844
O O10 0.750000 0.500000 0.929468
#
# Coordination Sequence:
#
# PCOD9413044 Si02
#       4
#     8   8   8   8
#     4  11  22  42  64  91 127 162 211 258 311 375
#     4  11  22  40  63  95 130 165 208 266 316 376
#     4  11  22  42  64  92 128 164 210 257 314 378
#     4  11  20  37  65  94 126 163 209 260 312 372
#
# _framework density 20.177488
#
# number of rings (size 3 to 8) (size 9 to 14) (size 15 to 20)
#    0.000    1.000    7.500    3.000    0.000    1.000 
#    9.000    2.500    0.000    0.000    0.000    0.000 
#    0.000    0.000    0.000    0.000    0.000    0.000 
#
# Total GULP energy -178210.106930 kJ/mol
# GULP energy per Si atom -5569.065842 kJ/mol
# Density = 2.013156 g / cm^3
# Si number density = 20.177488 Si / 1000 Ang^3
#
#
#
# Elastic Constant Matrix: (Units=GPa)
#
#
# Indices 1 2 3 4 5 6 
#
# 1 39.6236 25.2093 19.7467 0.0000 0.0000 0.0000
# 2 25.2093 193.3964 72.5906 0.0000 0.0000 0.0000
# 3 19.7467 72.5906 146.6529 0.0000 0.0000 0.0000
# 4 0.0000 0.0000 0.0000 44.8826 0.0000 0.0000
# 5 0.0000 0.0000 0.0000 0.0000 14.0843 0.0000
# 6 0.0000 0.0000 0.0000 0.0000 0.0000 30.8161
#
#
#
# Elastic Compliance Matrix: (Units=1/GPa)
#
#
# Indices 1 2 3 4 5 6 
#
# 1 0.028207 -0.002765 -0.002430 0.000000 0.000000 0.000000
# 2 -0.002765 0.006622 -0.002905 0.000000 0.000000 0.000000
# 3 -0.002430 -0.002905 0.008584 0.000000 0.000000 0.000000
# 4 0.000000 0.000000 0.000000 0.022280 0.000000 0.000000
# 5 0.000000 0.000000 0.000000 0.000000 0.071001 0.000000
# 6 0.000000 0.000000 0.000000 0.000000 0.000000 0.032451
#
#
# Mechanical properties :
#
#
# Convention : Reuss Voigt Hill
#
# Bulk Modulus (GPa) = 36.74639 68.30733 52.52686
# Shear Modulus (GPa) = 25.71811 35.43170 30.57491
#
# Velocity S-wave (km/s) = 3.57402 4.19501 3.89691
# Velocity P-wave (km/s) = 5.93992 7.57568 6.80711
#
# Compressibility (1/GPa) = 0.02721356
#
# Stress axis : x y z
#
# Youngs Moduli (GPa) = 35.45173 151.02034 116.49559
#
# Poissons Ratio (x) = 0.41756 0.28303
# Poissons Ratio (y) = 0.09802 0.33845
# Poissons Ratio (z) = 0.08613 0.43876
#
# Static dielectric constant tensor:
#      x y z
#    x 1.817000 0.000000 0.000000 
#    y 0.000000 1.756960 0.000000 
#    z 0.000000 0.000000 1.768610 
# 
# From -- ./inp_files/7211.got.cif
#   From: 2010.05.17/outbox.cif.g08.bks.cpg/sg52_4_cif.got.tgz:7211.got - 2010.06.03 12:15:38.
