data_PCOD9413400
_publ_section_title
;
Structure prediction by ZEFSAII (Michael W. Deem and Ramdas Pophale) SiO2 
 PCOD9413400
Probable space group: P N N A
;
_chemical_formula_sum "Si O2"
_cell_formula_units_Z 56
_cell_length_a 14.023627
_cell_length_b 12.130380
_cell_length_c 14.194326
_cell_angle_alpha 90.000000
_cell_angle_beta 90.000000
_cell_angle_gamma 90.000000
_cell_volume 2414.624113
_symmetry_space_group_name_H-M "P N N A"
_symmetry_group_IT_number 52
_symmetry_cell_setting 'orthorhombic'
loop_
_space_group_symop_operation_xyz
x,y,z
1/2-x,-y,z
x,1/2-y,1/2-z
1/2-x,1/2+y,1/2-z
-x,-y,-z
1/2+x,y,-z
-x,1/2+y,1/2+z
1/2+x,1/2-y,1/2+z
loop_
_atom_site_type_symbol
_atom_site_label
_atom_site_fract_x
_atom_site_fract_y
_atom_site_fract_z
Si Si1 0.809915 0.612279 0.383313
Si Si2 0.829484 0.778181 0.920562
Si Si3 0.875109 0.318021 0.953366
Si Si4 0.013872 0.831895 0.166726
Si Si5 0.883448 0.279479 0.353815
Si Si6 0.543681 0.069690 0.807302
Si Si7 0.064914 0.454714 0.087598
O O1 0.750000 0.500000 0.379118
O O2 0.841556 0.642361 0.489045
O O3 0.728084 0.695976 0.352003
O O4 0.904636 0.628449 0.322343
O O5 0.717613 0.749932 0.921135
O O6 0.873129 0.843817 0.832219
O O7 0.883627 0.661147 0.932713
O O8 0.966010 0.248011 0.919825
O O9 0.865759 0.438806 0.910260
O O10 0.888681 0.312770 0.066143
O O11 0.042393 0.750000 0.250000
O O12 0.069539 0.946459 0.160021
O O13 0.915913 0.250000 0.250000
O O14 0.952943 0.384791 0.368537
O O15 0.525308 0.056660 0.694742
O O16 0.000000 0.500000 0.000000
#
# Coordination Sequence:
#
# PCOD9413400 Si02
#       7
#     8   8   8   8   8   8   8
#     4  11  24  45  70 104 142 184 239 299 368 435
#     4  11  27  44  70 106 144 193 246 296 369 443
#     4  11  26  47  72 106 148 196 244 304 370 445
#     4  12  25  45  71 107 142 188 242 305 368 436
#     4  11  23  45  71 106 140 185 241 299 372 447
#     4  12  25  43  74 103 143 191 243 302 367 444
#     4  12  24  48  73 104 147 194 247 308 377 442
#
# _framework density 23.192015999999999
#
# number of rings (size 3 to 8) (size 9 to 14) (size 15 to 20)
#    0.000    0.571    2.857    5.571    4.000    2.286 
#    2.571    0.000    0.000    0.000    0.000    0.000 
#    0.000    0.000    0.000    0.000    0.000    0.000 
#
# Total GULP energy -312486.963020 kJ/mol
# GULP energy per Si atom -5580.124340 kJ/mol
# Density = 2.313923 g / cm^3
# Si number density = 23.192016 Si / 1000 Ang^3
#
#
#
# Elastic Constant Matrix: (Units=GPa)
#
#
# Indices 1 2 3 4 5 6 
#
# 1 64.6572 18.6197 11.3454 0.0000 0.0000 0.0000
# 2 18.6197 147.1091 44.0739 0.0000 0.0000 0.0000
# 3 11.3454 44.0739 90.8100 0.0000 0.0000 0.0000
# 4 0.0000 0.0000 0.0000 38.1493 0.0000 0.0000
# 5 0.0000 0.0000 0.0000 0.0000 27.6528 0.0000
# 6 0.0000 0.0000 0.0000 0.0000 0.0000 29.0170
#
#
#
# Elastic Compliance Matrix: (Units=1/GPa)
#
#
# Indices 1 2 3 4 5 6 
#
# 1 0.016162 -0.001686 -0.001201 0.000000 0.000000 0.000000
# 2 -0.001686 0.008130 -0.003735 0.000000 0.000000 0.000000
# 3 -0.001201 -0.003735 0.012975 0.000000 0.000000 0.000000
# 4 0.000000 0.000000 0.000000 0.026213 0.000000 0.000000
# 5 0.000000 0.000000 0.000000 0.000000 0.036163 0.000000
# 6 0.000000 0.000000 0.000000 0.000000 0.000000 0.034463
#
#
# Mechanical properties :
#
#
# Convention : Reuss Voigt Hill
#
# Bulk Modulus (GPa) = 41.62649 50.07269 45.84959
# Shear Modulus (GPa) = 32.18381 34.19965 33.19173
#
# Velocity S-wave (km/s) = 3.72924 3.84426 3.78719
# Velocity P-wave (km/s) = 6.04405 6.42976 6.23989
#
# Compressibility (1/GPa) = 0.02402316
#
# Stress axis : x y z
#
# Youngs Moduli (GPa) = 61.87190 122.99907 77.07170
#
# Poissons Ratio (x) = 0.20736 0.09257
# Poissons Ratio (y) = 0.10431 0.28788
# Poissons Ratio (z) = 0.07431 0.45943
#
# Static dielectric constant tensor:
#      x y z
#    x 1.893610 0.000000 0.000000 
#    y 0.000000 1.950230 0.000000 
#    z 0.000000 0.000000 1.970950 
# 
# From -- ./inp_files/27295.got.cif
#   From: 2010.05.17/outbox.cif.g08.bks.cpg/sg52_14_cif.got.tgz:27295.got - 2010.06.03 12:15:38.
