data_PCOD9413758
_publ_section_title
;
Structure prediction by ZEFSAII (Michael W. Deem and Ramdas Pophale) SiO2 
 PCOD9413758
Probable space group: P N N A
;
_chemical_formula_sum "Si O2"
_cell_formula_units_Z 20
_cell_length_a 27.933659
_cell_length_b 4.965799
_cell_length_c 7.026583
_cell_angle_alpha 90.000000
_cell_angle_beta 90.000000
_cell_angle_gamma 90.000000
_cell_volume 974.677957
_symmetry_space_group_name_H-M "P N N A"
_symmetry_group_IT_number 52
_symmetry_cell_setting 'orthorhombic'
loop_
_space_group_symop_operation_xyz
x,y,z
1/2-x,-y,z
x,1/2-y,1/2-z
1/2-x,1/2+y,1/2-z
-x,-y,-z
1/2+x,y,-z
-x,1/2+y,1/2+z
1/2+x,1/2-y,1/2+z
loop_
_atom_site_type_symbol
_atom_site_label
_atom_site_fract_x
_atom_site_fract_y
_atom_site_fract_z
Si Si1 0.534697 0.746444 0.535822
Si Si2 0.379602 0.250000 0.750000
Si Si3 0.750000 0.000000 0.896857
Si Si4 0.188021 0.250000 0.750000
O O1 0.550384 0.750000 0.750000
O O2 0.500000 0.500000 0.500000
O O3 0.582690 0.710416 0.418069
O O4 0.500000 0.000000 0.500000
O O5 0.345787 0.499027 0.797190
O O6 0.764721 0.250000 0.750000
O O7 0.716119 0.152947 0.057090
#
# Coordination Sequence:
#
# PCOD9413758 Si02
#       4
#     8   4   4   4
#     4  12  23  42  66  95 135 189 238 286 352 411
#     4  12  25  42  72 104 150 184 244 308 343 436
#     4  12  26  50  82 106 150 196 238 304 390 460
#     4  12  27  48  72 114 146 186 244 306 373 436
#
# _framework density 20.519597000000001
#
# number of rings (size 3 to 8) (size 9 to 14) (size 15 to 20)
#    0.000    0.000    4.000    7.200    0.000    4.800 
#    0.000    0.000    0.000    0.000    0.000    0.000 
#    0.000    0.000    0.000    0.000    0.000    0.000 
#
# Total GULP energy -111388.231554 kJ/mol
# GULP energy per Si atom -5569.411578 kJ/mol
# Density = 2.047289 g / cm^3
# Si number density = 20.519597 Si / 1000 Ang^3
#
#
#
# Elastic Constant Matrix: (Units=GPa)
#
#
# Indices 1 2 3 4 5 6 
#
# 1 141.4953 82.0039 78.1836 0.0000 0.0000 0.0000
# 2 82.0039 196.5008 40.0796 0.0000 0.0000 0.0000
# 3 78.1836 40.0796 200.1322 0.0000 0.0000 0.0000
# 4 0.0000 0.0000 0.0000 37.1720 0.0000 0.0000
# 5 0.0000 0.0000 0.0000 0.0000 109.4327 0.0000
# 6 0.0000 0.0000 0.0000 0.0000 0.0000 53.8576
#
#
#
# Elastic Compliance Matrix: (Units=1/GPa)
#
#
# Indices 1 2 3 4 5 6 
#
# 1 0.011416 -0.004019 -0.003655 0.000000 0.000000 0.000000
# 2 -0.004019 0.006720 0.000224 0.000000 0.000000 0.000000
# 3 -0.003655 0.000224 0.006380 0.000000 0.000000 0.000000
# 4 0.000000 0.000000 0.000000 0.026902 0.000000 0.000000
# 5 0.000000 0.000000 0.000000 0.000000 0.009138 0.000000
# 6 0.000000 0.000000 0.000000 0.000000 0.000000 0.018567
#
#
# Mechanical properties :
#
#
# Convention : Reuss Voigt Hill
#
# Bulk Modulus (GPa) = 103.98310 104.29583 104.13947
# Shear Modulus (GPa) = 51.42546 62.61656 57.02101
#
# Velocity S-wave (km/s) = 5.01159 5.53008 5.27720
# Velocity P-wave (km/s) = 9.18004 9.57671 9.38047
#
# Compressibility (1/GPa) = 0.00961695
#
# Stress axis : x y z
#
# Youngs Moduli (GPa) = 87.59697 148.80083 156.74791
#
# Poissons Ratio (x) = 0.59797 0.57291
# Poissons Ratio (y) = 0.35202 -0.03512
# Poissons Ratio (z) = 0.32016 -0.03334
#
# Static dielectric constant tensor:
#      x y z
#    x 1.689680 0.000000 0.000000 
#    y 0.000000 1.709610 0.000000 
#    z 0.000000 0.000000 1.742000 
# 
# From -- ./inp_files/5422.got.cif
#   From: 2010.05.17/outbox.cif.g08.bks.cpg/sg52_3_cif.got.tgz:5422.got - 2010.06.03 12:15:38.
