data_PCOD9413330
_publ_section_title
;
Structure prediction by ZEFSAII (Michael W. Deem and Ramdas Pophale) SiO2 
 PCOD9413330
Probable space group: P N N A
;
_chemical_formula_sum "Si O2"
_cell_formula_units_Z 56
_cell_length_a 14.071159
_cell_length_b 15.783996
_cell_length_c 11.345698
_cell_angle_alpha 90.000000
_cell_angle_beta 90.000000
_cell_angle_gamma 90.000000
_cell_volume 2519.869512
_symmetry_space_group_name_H-M "P N N A"
_symmetry_group_IT_number 52
_symmetry_cell_setting 'orthorhombic'
loop_
_space_group_symop_operation_xyz
x,y,z
1/2-x,-y,z
x,1/2-y,1/2-z
1/2-x,1/2+y,1/2-z
-x,-y,-z
1/2+x,y,-z
-x,1/2+y,1/2+z
1/2+x,1/2-y,1/2+z
loop_
_atom_site_type_symbol
_atom_site_label
_atom_site_fract_x
_atom_site_fract_y
_atom_site_fract_z
Si Si1 0.152091 0.924537 0.132509
Si Si2 0.564413 0.661538 0.289572
Si Si3 0.236736 0.096513 0.724832
Si Si4 0.021495 0.700916 0.462615
Si Si5 0.565608 0.026125 0.673604
Si Si6 0.662725 0.409901 0.493535
Si Si7 0.066022 0.380652 0.935779
O O1 0.254206 0.891670 0.088744
O O2 0.074100 0.850594 0.139502
O O3 0.144999 0.975724 0.254267
O O4 0.127928 0.996190 0.032524
O O5 0.519138 0.750000 0.250000
O O6 0.662302 0.642953 0.222289
O O7 0.586537 0.678129 0.425480
O O8 0.493503 0.585186 0.263495
O O9 0.156541 0.139693 0.645425
O O10 0.250000 0.000000 0.681302
O O11 0.202641 0.089629 0.860536
O O12 0.921466 0.656930 0.492308
O O13 0.001477 0.799143 0.446476
O O14 0.596177 0.085031 0.564591
O O15 0.491813 0.957024 0.623878
#
# Coordination Sequence:
#
# PCOD9413330 Si02
#       7
#     8   8   8   8   8   8   8
#     4  11  23  42  74 107 139 185 246 303 358 436
#     4  12  24  43  74 101 140 194 240 301 359 432
#     4  12  23  43  69 105 141 182 246 297 359 439
#     4  12  24  43  74 107 145 184 243 310 369 425
#     4  11  24  48  70  98 147 198 233 291 377 436
#     4  11  23  40  72 110 135 180 245 309 365 423
#     4  11  27  45  69 105 149 194 235 294 376 455
#
# _framework density 22.223372999999999
#
# number of rings (size 3 to 8) (size 9 to 14) (size 15 to 20)
#    0.000    0.571    7.143    1.286    2.000    1.714 
#    2.571    0.000    9.429    0.000    0.000    0.000 
#    0.000    0.000    0.000    0.000    0.000    0.000 
#
# Total GULP energy -313082.207553 kJ/mol
# GULP energy per Si atom -5590.753706 kJ/mol
# Density = 2.217279 g / cm^3
# Si number density = 22.223373 Si / 1000 Ang^3
#
#
#
# Elastic Constant Matrix: (Units=GPa)
#
#
# Indices 1 2 3 4 5 6 
#
# 1 95.4234 31.2806 25.0937 0.0000 0.0000 0.0000
# 2 31.2806 118.0826 15.0861 0.0000 0.0000 0.0000
# 3 25.0937 15.0861 80.6504 0.0000 0.0000 0.0000
# 4 0.0000 0.0000 0.0000 20.2736 0.0000 0.0000
# 5 0.0000 0.0000 0.0000 0.0000 29.4128 0.0000
# 6 0.0000 0.0000 0.0000 0.0000 0.0000 23.8981
#
#
#
# Elastic Compliance Matrix: (Units=1/GPa)
#
#
# Indices 1 2 3 4 5 6 
#
# 1 0.012272 -0.002831 -0.003289 0.000000 0.000000 0.000000
# 2 -0.002831 0.009329 -0.000864 0.000000 0.000000 0.000000
# 3 -0.003289 -0.000864 0.013584 0.000000 0.000000 0.000000
# 4 0.000000 0.000000 0.000000 0.049325 0.000000 0.000000
# 5 0.000000 0.000000 0.000000 0.000000 0.033999 0.000000
# 6 0.000000 0.000000 0.000000 0.000000 0.000000 0.041844
#
#
# Mechanical properties :
#
#
# Convention : Reuss Voigt Hill
#
# Bulk Modulus (GPa) = 47.13079 48.56415 47.84747
# Shear Modulus (GPa) = 27.56421 29.56329 28.56375
#
# Velocity S-wave (km/s) = 3.52565 3.65126 3.58900
# Velocity P-wave (km/s) = 6.15040 6.29887 6.22507
#
# Compressibility (1/GPa) = 0.02121755
#
# Stress axis : x y z
#
# Youngs Moduli (GPa) = 81.48299 107.19298 73.61497
#
# Poissons Ratio (x) = 0.30345 0.24212
# Poissons Ratio (y) = 0.23067 0.06362
# Poissons Ratio (z) = 0.26799 0.09264
#
# Static dielectric constant tensor:
#      x y z
#    x 1.820420 0.000000 0.000000 
#    y 0.000000 1.821510 0.000000 
#    z 0.000000 0.000000 1.897390 
# 
# From -- ./inp_files/19610.got.cif
#   From: 2010.05.17/outbox.cif.g08.bks.cpg/sg52_10_cif.got.tgz:19610.got - 2010.06.03 12:15:38.
