data_PCOD9413274
_publ_section_title
;
Structure prediction by ZEFSAII (Michael W. Deem and Ramdas Pophale) SiO2 
 PCOD9413274
Probable space group: P N N A
;
_chemical_formula_sum "Si O2"
_cell_formula_units_Z 40
_cell_length_a 10.995857
_cell_length_b 8.701518
_cell_length_c 21.225670
_cell_angle_alpha 90.000000
_cell_angle_beta 90.000000
_cell_angle_gamma 90.000000
_cell_volume 2030.885852
_symmetry_space_group_name_H-M "P N N A"
_symmetry_group_IT_number 52
_symmetry_cell_setting 'orthorhombic'
loop_
_space_group_symop_operation_xyz
x,y,z
1/2-x,-y,z
x,1/2-y,1/2-z
1/2-x,1/2+y,1/2-z
-x,-y,-z
1/2+x,y,-z
-x,1/2+y,1/2+z
1/2+x,1/2-y,1/2+z
loop_
_atom_site_type_symbol
_atom_site_label
_atom_site_fract_x
_atom_site_fract_y
_atom_site_fract_z
Si Si1 0.580999 0.750000 0.250000
Si Si2 0.250000 0.500000 0.804158
Si Si3 0.125109 0.173129 0.156774
Si Si4 0.137309 0.120820 0.455581
Si Si5 0.607043 0.810254 0.816640
Si Si6 0.941150 0.617059 0.094617
O O1 0.668265 0.606308 0.240061
O O2 0.491197 0.753829 0.190381
O O3 0.158522 0.414058 0.851859
O O4 0.139151 0.222262 0.084367
O O5 0.251924 0.240126 0.182830
O O6 0.112273 0.993488 0.173515
O O7 0.121680 0.161155 0.528852
O O8 0.250000 0.000000 0.448610
O O9 0.021715 0.029686 0.426581
O O10 0.554802 0.750000 0.750000
O O11 0.533913 0.737204 0.874297
#
# Coordination Sequence:
#
# PCOD9413274 Si02
#       6
#     4   4   8   8   8   8
#     4  12  26  44  62  96 136 176 218 274 342 414
#     4  12  26  42  64  98 138 178 220 278 348 412
#     4  11  24  42  68  98 132 173 226 285 339 396
#     4  11  22  43  70  97 131 180 230 285 332 404
#     4  11  24  41  70 101 131 173 225 289 340 405
#     4  11  24  42  68  97 133 177 230 276 342 408
#
# _framework density 19.695838999999999
#
# number of rings (size 3 to 8) (size 9 to 14) (size 15 to 20)
#    0.000    0.800    6.000    1.200    4.200    0.800 
#    0.000    0.000    0.000    0.000    0.000    0.000 
#    0.000    0.000    0.000    0.000    0.000    0.000 
#
# Total GULP energy -223110.126380 kJ/mol
# GULP energy per Si atom -5577.753159 kJ/mol
# Density = 1.965101 g / cm^3
# Si number density = 19.695839 Si / 1000 Ang^3
#
#
#
# Elastic Constant Matrix: (Units=GPa)
#
#
# Indices 1 2 3 4 5 6 
#
# 1 107.9048 27.0464 27.7620 0.0000 0.0000 0.0000
# 2 27.0464 52.5237 42.1275 0.0000 0.0000 0.0000
# 3 27.7620 42.1275 123.4449 0.0000 0.0000 0.0000
# 4 0.0000 0.0000 0.0000 28.7957 0.0000 0.0000
# 5 0.0000 0.0000 0.0000 0.0000 27.6492 0.0000
# 6 0.0000 0.0000 0.0000 0.0000 0.0000 22.3634
#
#
#
# Elastic Compliance Matrix: (Units=1/GPa)
#
#
# Indices 1 2 3 4 5 6 
#
# 1 0.010688 -0.004923 -0.000723 0.000000 0.000000 0.000000
# 2 -0.004923 0.028482 -0.008613 0.000000 0.000000 0.000000
# 3 -0.000723 -0.008613 0.011203 0.000000 0.000000 0.000000
# 4 0.000000 0.000000 0.000000 0.034727 0.000000 0.000000
# 5 0.000000 0.000000 0.000000 0.000000 0.036167 0.000000
# 6 0.000000 0.000000 0.000000 0.000000 0.000000 0.044716
#
#
# Mechanical properties :
#
#
# Convention : Reuss Voigt Hill
#
# Bulk Modulus (GPa) = 45.75895 53.08278 49.42086
# Shear Modulus (GPa) = 24.77866 28.22417 26.50141
#
# Velocity S-wave (km/s) = 3.55077 3.78961 3.67213
# Velocity P-wave (km/s) = 6.33197 6.79396 6.56703
#
# Compressibility (1/GPa) = 0.02185365
#
# Stress axis : x y z
#
# Youngs Moduli (GPa) = 93.56686 35.10969 89.26394
#
# Poissons Ratio (x) = 0.17285 0.06458
# Poissons Ratio (y) = 0.46064 0.76881
# Poissons Ratio (z) = 0.06769 0.30239
#
# Static dielectric constant tensor:
#      x y z
#    x 1.735690 0.000000 0.000000 
#    y 0.000000 1.700000 0.000000 
#    z 0.000000 0.000000 1.713240 
# 
# From -- ./inp_files/32040.got.cif
#   From: 2010.05.17/outbox.cif.g08.bks.cpg/sg52_17_cif.got.tgz:32040.got - 2010.06.03 12:15:38.
