data_PCOD9413275
_publ_section_title
;
Structure prediction by ZEFSAII (Michael W. Deem and Ramdas Pophale) SiO2 
 PCOD9413275
Probable space group: P N N A
;
_chemical_formula_sum "Si O2"
_cell_formula_units_Z 64
_cell_length_a 13.428253
_cell_length_b 13.000480
_cell_length_c 17.622532
_cell_angle_alpha 90.000000
_cell_angle_beta 90.000000
_cell_angle_gamma 90.000000
_cell_volume 3076.431224
_symmetry_space_group_name_H-M "P N N A"
_symmetry_group_IT_number 52
_symmetry_cell_setting 'orthorhombic'
loop_
_space_group_symop_operation_xyz
x,y,z
1/2-x,-y,z
x,1/2-y,1/2-z
1/2-x,1/2+y,1/2-z
-x,-y,-z
1/2+x,y,-z
-x,1/2+y,1/2+z
1/2+x,1/2-y,1/2+z
loop_
_atom_site_type_symbol
_atom_site_label
_atom_site_fract_x
_atom_site_fract_y
_atom_site_fract_z
Si Si1 0.635620 0.004983 0.632727
Si Si2 0.021724 0.339003 0.685636
Si Si3 0.718786 0.112919 0.095448
Si Si4 0.936451 0.567420 0.708687
Si Si5 0.496821 0.156271 0.558114
Si Si6 0.112910 0.771352 0.827685
Si Si7 0.875684 0.212742 0.590065
Si Si8 0.167407 0.327959 0.429188
O O1 0.620345 0.069241 0.710363
O O2 0.564131 0.055825 0.569971
O O3 0.750000 0.000000 0.607120
O O4 0.613649 0.885081 0.645474
O O5 0.022778 0.250000 0.750000
O O6 0.129294 0.346371 0.646595
O O7 0.986739 0.454734 0.705976
O O8 0.944449 0.302200 0.621713
O O9 0.816296 0.180722 0.109346
O O10 0.750000 0.000000 0.120462
O O11 0.687291 0.113370 0.007697
O O12 0.860584 0.596457 0.640315
O O13 0.024207 0.651280 0.696854
O O14 0.433217 0.170498 0.634660
O O15 0.422459 0.170005 0.488118
O O16 0.574474 0.251362 0.557127
O O17 0.170497 0.750000 0.750000
O O18 0.764061 0.256694 0.586071
#
# Coordination Sequence:
#
# PCOD9413275 Si02
#       8
#     8   8   8   8   8   8   8   8
#     4  12  25  44  69  99 140 179 232 284 341 418
#     4  12  26  45  68  98 140 179 225 285 350 411
#     4  12  25  43  69  98 137 179 230 285 339 413
#     4  11  26  43  66 104 135 176 231 281 350 415
#     4  11  23  45  70  98 136 179 230 286 346 420
#     4  11  22  43  72  94 134 181 228 287 342 411
#     4  12  25  44  71  96 139 182 223 288 346 409
#     4  11  26  42  67 106 135 173 232 282 347 415
#
# _framework density 20.803325000000001
#
# number of rings (size 3 to 8) (size 9 to 14) (size 15 to 20)
#    0.000    0.500    7.500    0.750    3.500    0.500 
#    0.000    0.000    0.000    0.000    0.000    0.000 
#    0.000    0.000    0.000    0.000    0.000    0.000 
#
# Total GULP energy -357321.605558 kJ/mol
# GULP energy per Si atom -5583.150087 kJ/mol
# Density = 2.075598 g / cm^3
# Si number density = 20.803325 Si / 1000 Ang^3
#
#
#
# Elastic Constant Matrix: (Units=GPa)
#
#
# Indices 1 2 3 4 5 6 
#
# 1 78.2845 6.3478 29.7325 0.0000 0.0000 0.0000
# 2 6.3478 62.9533 2.5420 0.0000 0.0000 0.0000
# 3 29.7325 2.5420 101.6334 0.0000 0.0000 0.0000
# 4 0.0000 0.0000 0.0000 27.6599 0.0000 0.0000
# 5 0.0000 0.0000 0.0000 0.0000 50.0861 0.0000
# 6 0.0000 0.0000 0.0000 0.0000 0.0000 35.4481
#
#
#
# Elastic Compliance Matrix: (Units=1/GPa)
#
#
# Indices 1 2 3 4 5 6 
#
# 1 0.014475 -0.001290 -0.004202 0.000000 0.000000 0.000000
# 2 -0.001290 0.016016 -0.000023 0.000000 0.000000 0.000000
# 3 -0.004202 -0.000023 0.011069 0.000000 0.000000 0.000000
# 4 0.000000 0.000000 0.000000 0.036153 0.000000 0.000000
# 5 0.000000 0.000000 0.000000 0.000000 0.019966 0.000000
# 6 0.000000 0.000000 0.000000 0.000000 0.000000 0.028210
#
#
# Mechanical properties :
#
#
# Convention : Reuss Voigt Hill
#
# Bulk Modulus (GPa) = 32.75583 35.56844 34.16213
# Shear Modulus (GPa) = 33.99147 36.25540 35.12343
#
# Velocity S-wave (km/s) = 4.04659 4.17918 4.11342
# Velocity P-wave (km/s) = 6.13293 6.35783 6.24639
#
# Compressibility (1/GPa) = 0.03052892
#
# Stress axis : x y z
#
# Youngs Moduli (GPa) = 69.08689 62.43842 90.34062
#
# Poissons Ratio (x) = 0.08054 0.37963
# Poissons Ratio (y) = 0.08911 0.00210
# Poissons Ratio (z) = 0.29032 0.00145
#
# Static dielectric constant tensor:
#      x y z
#    x 1.752270 0.000000 0.000000 
#    y 0.000000 1.778620 0.000000 
#    z 0.000000 0.000000 1.757810 
# 
# From -- ./inp_files/33290.got.cif
#   From: 2010.05.17/outbox.cif.g08.bks.cpg/sg52_17_cif.got.tgz:33290.got - 2010.06.03 12:15:38.
