data_PCOD9413609
_publ_section_title
;
Structure prediction by ZEFSAII (Michael W. Deem and Ramdas Pophale) SiO2 
 PCOD9413609
Probable space group: P N N A
;
_chemical_formula_sum "Si O2"
_cell_formula_units_Z 24
_cell_length_a 7.943845
_cell_length_b 9.662967
_cell_length_c 11.945938
_cell_angle_alpha 90.000000
_cell_angle_beta 90.000000
_cell_angle_gamma 90.000000
_cell_volume 916.983486
_symmetry_space_group_name_H-M "P N N A"
_symmetry_group_IT_number 52
_symmetry_cell_setting 'orthorhombic'
loop_
_space_group_symop_operation_xyz
x,y,z
1/2-x,-y,z
x,1/2-y,1/2-z
1/2-x,1/2+y,1/2-z
-x,-y,-z
1/2+x,y,-z
-x,1/2+y,1/2+z
1/2+x,1/2-y,1/2+z
loop_
_atom_site_type_symbol
_atom_site_label
_atom_site_fract_x
_atom_site_fract_y
_atom_site_fract_z
Si Si1 0.918619 0.827698 0.104208
Si Si2 0.054872 0.962441 0.316209
Si Si3 0.034385 0.747982 0.873778
O O1 0.723451 0.804033 0.130043
O O2 0.987570 0.944246 0.188404
O O3 0.020515 0.688273 0.133659
O O4 0.938410 0.830136 0.970635
O O5 0.250000 0.000000 0.319313
O O6 0.958661 0.081036 0.386147
O O7 0.953286 0.750000 0.750000
#
# Coordination Sequence:
#
# PCOD9413609 Si02
#       3
#     8   8   8
#     4  11  26  48  75 112 147 200 257 308 387 453
#     4  11  25  47  76 110 150 197 255 311 378 452
#     4  12  26  47  76 106 154 195 250 310 382 447
#
# _framework density 26.172771999999998
#
# number of rings (size 3 to 8) (size 9 to 14) (size 15 to 20)
#    0.000    0.667    3.333    4.000    9.333    1.333 
#    0.000    0.000    0.000    0.000    0.000    0.000 
#    0.000    0.000    0.000    0.000    0.000    0.000 
#
# Total GULP energy -134475.680613 kJ/mol
# GULP energy per Si atom -5603.153359 kJ/mol
# Density = 2.611320 g / cm^3
# Si number density = 26.172772 Si / 1000 Ang^3
#
#
#
# Elastic Constant Matrix: (Units=GPa)
#
#
# Indices 1 2 3 4 5 6 
#
# 1 97.7583 13.7668 -0.3826 0.0000 0.0000 0.0000
# 2 13.7668 57.1591 6.6018 0.0000 0.0000 0.0000
# 3 -0.3826 6.6018 183.3119 0.0000 0.0000 0.0000
# 4 0.0000 0.0000 0.0000 63.6079 0.0000 0.0000
# 5 0.0000 0.0000 0.0000 0.0000 31.2067 0.0000
# 6 0.0000 0.0000 0.0000 0.0000 0.0000 43.0414
#
#
#
# Elastic Compliance Matrix: (Units=1/GPa)
#
#
# Indices 1 2 3 4 5 6 
#
# 1 0.010591 -0.002564 0.000114 0.000000 0.000000 0.000000
# 2 -0.002564 0.018189 -0.000660 0.000000 0.000000 0.000000
# 3 0.000114 -0.000660 0.005479 0.000000 0.000000 0.000000
# 4 0.000000 0.000000 0.000000 0.015721 0.000000 0.000000
# 5 0.000000 0.000000 0.000000 0.000000 0.032044 0.000000
# 6 0.000000 0.000000 0.000000 0.000000 0.000000 0.023233
#
#
# Mechanical properties :
#
#
# Convention : Reuss Voigt Hill
#
# Bulk Modulus (GPa) = 35.66473 42.02238 38.84355
# Shear Modulus (GPa) = 41.38239 48.78742 45.08491
#
# Velocity S-wave (km/s) = 3.98065 4.32215 4.15491
# Velocity P-wave (km/s) = 5.89777 6.40302 6.15558
#
# Compressibility (1/GPa) = 0.02803891
#
# Stress axis : x y z
#
# Youngs Moduli (GPa) = 94.42122 54.97877 182.50823
#
# Poissons Ratio (x) = 0.14097 -0.02089
# Poissons Ratio (y) = 0.24210 0.12053
# Poissons Ratio (z) = -0.01081 0.03631
#
# Static dielectric constant tensor:
#      x y z
#    x 1.914450 0.000000 0.000000 
#    y 0.000000 2.226190 0.000000 
#    z 0.000000 0.000000 1.974410 
# 
# From -- ./inp_files/16236.got.cif
#   From: 2010.05.17/outbox.cif.g08.bks.cpg/sg52_9_cif.got.tgz:16236.got - 2010.06.03 12:15:38.
