data_PCOD9413801
_publ_section_title
;
Structure prediction by ZEFSAII (Michael W. Deem and Ramdas Pophale) SiO2 
 PCOD9413801
Probable space group: P N N A
;
_chemical_formula_sum "Si O2"
_cell_formula_units_Z 36
_cell_length_a 11.885907
_cell_length_b 11.186050
_cell_length_c 12.229838
_cell_angle_alpha 90.000000
_cell_angle_beta 90.000000
_cell_angle_gamma 90.000000
_cell_volume 1626.034622
_symmetry_space_group_name_H-M "P N N A"
_symmetry_group_IT_number 52
_symmetry_cell_setting 'orthorhombic'
loop_
_space_group_symop_operation_xyz
x,y,z
1/2-x,-y,z
x,1/2-y,1/2-z
1/2-x,1/2+y,1/2-z
-x,-y,-z
1/2+x,y,-z
-x,1/2+y,1/2+z
1/2+x,1/2-y,1/2+z
loop_
_atom_site_type_symbol
_atom_site_label
_atom_site_fract_x
_atom_site_fract_y
_atom_site_fract_z
Si Si1 0.679286 0.692196 0.922044
Si Si2 0.250000 0.500000 0.902899
Si Si3 0.431077 0.811904 0.359947
Si Si4 0.017690 0.630590 0.452497
Si Si5 0.475845 0.572610 0.799193
O O1 0.795862 0.680391 0.859267
O O2 0.648573 0.827317 0.954478
O O3 0.568707 0.657637 0.854101
O O4 0.691585 0.599886 0.021313
O O5 0.346694 0.569859 0.837534
O O6 0.473330 0.750000 0.250000
O O7 0.461127 0.731030 0.466483
O O8 0.478772 0.944639 0.344359
O O9 0.000000 0.500000 0.500000
O O10 0.977822 0.608171 0.327910
#
# Coordination Sequence:
#
# PCOD9413801 Si02
#       5
#     8   4   8   8   8
#     4  12  25  46  77 105 145 201 259 314 385 470
#     4  12  24  44  80 102 146 202 256 318 394 466
#     4  12  24  46  75 105 150 204 254 320 387 463
#     4  12  27  46  70 112 157 194 252 321 393 470
#     4  12  25  48  74 112 147 197 263 321 385 468
#
# _framework density 22.139749999999999
#
# number of rings (size 3 to 8) (size 9 to 14) (size 15 to 20)
#    0.000    0.000    6.667    4.000    0.000    2.667 
#    0.000    2.222    0.000    0.000    0.000    0.000 
#    0.000    0.000    0.000    0.000    0.000    0.000 
#
# Total GULP energy -200844.984118 kJ/mol
# GULP energy per Si atom -5579.027337 kJ/mol
# Density = 2.208936 g / cm^3
# Si number density = 22.139750 Si / 1000 Ang^3
#
#
#
# Elastic Constant Matrix: (Units=GPa)
#
#
# Indices 1 2 3 4 5 6 
#
# 1 104.4558 25.5407 66.2848 0.0000 0.0000 0.0000
# 2 25.5407 134.0613 62.2858 0.0000 0.0000 0.0000
# 3 66.2848 62.2858 188.8193 0.0000 0.0000 0.0000
# 4 0.0000 0.0000 0.0000 37.7857 0.0000 0.0000
# 5 0.0000 0.0000 0.0000 0.0000 8.9374 0.0000
# 6 0.0000 0.0000 0.0000 0.0000 0.0000 37.7591
#
#
#
# Elastic Compliance Matrix: (Units=1/GPa)
#
#
# Indices 1 2 3 4 5 6 
#
# 1 0.012335 -0.000399 -0.004199 0.000000 0.000000 0.000000
# 2 -0.000399 0.008822 -0.002770 0.000000 0.000000 0.000000
# 3 -0.004199 -0.002770 0.007684 0.000000 0.000000 0.000000
# 4 0.000000 0.000000 0.000000 0.026465 0.000000 0.000000
# 5 0.000000 0.000000 0.000000 0.000000 0.111889 0.000000
# 6 0.000000 0.000000 0.000000 0.000000 0.000000 0.026484
#
#
# Mechanical properties :
#
#
# Convention : Reuss Voigt Hill
#
# Bulk Modulus (GPa) = 70.89447 81.72879 76.31163
# Shear Modulus (GPa) = 23.46130 35.11144 29.28637
#
# Velocity S-wave (km/s) = 3.25882 3.98666 3.64097
# Velocity P-wave (km/s) = 6.80079 7.62800 7.22624
#
# Compressibility (1/GPa) = 0.01410547
#
# Stress axis : x y z
#
# Youngs Moduli (GPa) = 81.06757 113.34870 130.14523
#
# Poissons Ratio (x) = 0.04527 0.54643
# Poissons Ratio (y) = 0.03238 0.36050
# Poissons Ratio (z) = 0.34037 0.31398
#
# Static dielectric constant tensor:
#      x y z
#    x 1.816370 0.000000 0.000000 
#    y 0.000000 1.943660 0.000000 
#    z 0.000000 0.000000 1.861490 
# 
# From -- ./inp_files/17771.got.cif
#   From: 2010.05.17/outbox.cif.g08.bks.cpg/sg52_9_cif.got.tgz:17771.got - 2010.06.03 12:15:38.
