data_PCOD9413671
_publ_section_title
;
Structure prediction by ZEFSAII (Michael W. Deem and Ramdas Pophale) SiO2 
 PCOD9413671
Probable space group: P N N A
;
_chemical_formula_sum "Si O2"
_cell_formula_units_Z 24
_cell_length_a 25.950851
_cell_length_b 7.756998
_cell_length_c 5.156664
_cell_angle_alpha 90.000000
_cell_angle_beta 90.000000
_cell_angle_gamma 90.000000
_cell_volume 1038.040069
_symmetry_space_group_name_H-M "P N N A"
_symmetry_group_IT_number 52
_symmetry_cell_setting 'orthorhombic'
loop_
_space_group_symop_operation_xyz
x,y,z
1/2-x,-y,z
x,1/2-y,1/2-z
1/2-x,1/2+y,1/2-z
-x,-y,-z
1/2+x,y,-z
-x,1/2+y,1/2+z
1/2+x,1/2-y,1/2+z
loop_
_atom_site_type_symbol
_atom_site_label
_atom_site_fract_x
_atom_site_fract_y
_atom_site_fract_z
Si Si1 0.224874 0.750000 0.750000
Si Si2 0.298414 0.750000 0.250000
Si Si3 0.033087 0.453272 0.747625
Si Si4 0.852840 0.554350 0.366535
O O1 0.260008 0.765660 0.493529
O O2 0.189519 0.580458 0.729879
O O3 0.336797 0.593787 0.333250
O O4 0.039222 0.250000 0.750000
O O5 0.091133 0.520952 0.702213
O O6 0.000000 0.500000 0.500000
O O7 0.000000 0.500000 0.000000
O O8 0.851812 0.750000 0.250000
#
# Coordination Sequence:
#
# PCOD9413671 Si02
#       4
#     4   4   8   8
#     4  12  30  46  79 108 151 204 250 304 374 462
#     4  12  28  48  75 112 151 196 252 306 376 444
#     4  11  27  48  78 108 148 193 249 315 378 444
#     4  11  29  49  76 111 152 197 253 312 376 448
#
# _framework density 23.120494000000001
#
# number of rings (size 3 to 8) (size 9 to 14) (size 15 to 20)
#    0.000    0.667    1.667    2.000   23.333    0.000 
#    0.000    0.000    0.000    0.000    0.000    0.000 
#    0.000    0.000    0.000    0.000    0.000    0.000 
#
# Total GULP energy -134086.702129 kJ/mol
# GULP energy per Si atom -5586.945922 kJ/mol
# Density = 2.306787 g / cm^3
# Si number density = 23.120494 Si / 1000 Ang^3
#
#
#
# Elastic Constant Matrix: (Units=GPa)
#
#
# Indices 1 2 3 4 5 6 
#
# 1 244.7425 43.8828 114.4238 0.0000 0.0000 0.0000
# 2 43.8828 84.7043 30.1935 0.0000 0.0000 0.0000
# 3 114.4238 30.1935 196.9509 0.0000 0.0000 0.0000
# 4 0.0000 0.0000 0.0000 38.8819 0.0000 0.0000
# 5 0.0000 0.0000 0.0000 0.0000 30.6149 0.0000
# 6 0.0000 0.0000 0.0000 0.0000 0.0000 36.9398
#
#
#
# Elastic Compliance Matrix: (Units=1/GPa)
#
#
# Indices 1 2 3 4 5 6 
#
# 1 0.005896 -0.001940 -0.003128 0.000000 0.000000 0.000000
# 2 -0.001940 0.013126 -0.000885 0.000000 0.000000 0.000000
# 3 -0.003128 -0.000885 0.007031 0.000000 0.000000 0.000000
# 4 0.000000 0.000000 0.000000 0.025719 0.000000 0.000000
# 5 0.000000 0.000000 0.000000 0.000000 0.032664 0.000000
# 6 0.000000 0.000000 0.000000 0.000000 0.000000 0.027071
#
#
# Mechanical properties :
#
#
# Convention : Reuss Voigt Hill
#
# Bulk Modulus (GPa) = 70.68879 100.37754 85.53316
# Shear Modulus (GPa) = 39.02320 43.81383 41.41851
#
# Velocity S-wave (km/s) = 4.11276 4.35791 4.23711
# Velocity P-wave (km/s) = 7.29339 8.29645 7.81104
#
# Compressibility (1/GPa) = 0.01414651
#
# Stress axis : x y z
#
# Youngs Moduli (GPa) = 169.60009 76.18323 142.23591
#
# Poissons Ratio (x) = 0.14776 0.44494
# Poissons Ratio (y) = 0.32895 0.12594
# Poissons Ratio (z) = 0.53055 0.06746
#
# Static dielectric constant tensor:
#      x y z
#    x 1.940920 0.000000 0.000000 
#    y 0.000000 1.881920 0.000000 
#    z 0.000000 0.000000 1.929950 
# 
# From -- ./inp_files/4724.got.cif
#   From: 2010.05.17/outbox.cif.g08.bks.cpg/sg52_3_cif.got.tgz:4724.got - 2010.06.03 12:15:38.
