data_PCOD9413150
_publ_section_title
;
Structure prediction by ZEFSAII (Michael W. Deem and Ramdas Pophale) SiO2 
 PCOD9413150
Probable space group: P N N A
;
_chemical_formula_sum "Si O2"
_cell_formula_units_Z 32
_cell_length_a 32.274102
_cell_length_b 4.995463
_cell_length_c 9.636170
_cell_angle_alpha 90.000000
_cell_angle_beta 90.000000
_cell_angle_gamma 90.000000
_cell_volume 1553.582666
_symmetry_space_group_name_H-M "P N N A"
_symmetry_group_IT_number 52
_symmetry_cell_setting 'orthorhombic'
loop_
_space_group_symop_operation_xyz
x,y,z
1/2-x,-y,z
x,1/2-y,1/2-z
1/2-x,1/2+y,1/2-z
-x,-y,-z
1/2+x,y,-z
-x,1/2+y,1/2+z
1/2+x,1/2-y,1/2+z
loop_
_atom_site_type_symbol
_atom_site_label
_atom_site_fract_x
_atom_site_fract_y
_atom_site_fract_z
Si Si1 0.162818 0.675171 0.501571
Si Si2 0.721741 0.750000 0.750000
Si Si3 0.522772 0.012912 0.350345
Si Si4 0.383289 0.693856 0.907693
Si Si5 0.222885 0.750000 0.750000
O O1 0.191370 0.646003 0.369016
O O2 0.124927 0.467953 0.511260
O O3 0.193855 0.636065 0.629795
O O4 0.144131 0.969230 0.519713
O O5 0.750000 0.500000 0.796832
O O6 0.522288 0.750000 0.250000
O O7 0.506346 0.250000 0.250000
O O8 0.500000 0.000000 0.500000
O O9 0.569982 0.090884 0.390517
O O10 0.369237 0.750000 0.750000
O O11 0.250000 0.500000 0.802372
#
# Coordination Sequence:
#
# PCOD9413150 Si02
#       5
#     8   4   8   8   4
#     4  12  23  41  65  93 126 170 220 266 335 395
#     4  12  26  46  62  88 136 176 214 276 350 400
#     4  11  24  45  73 105 144 183 225 280 346 413
#     4  11  21  42  68  96 131 169 217 273 330 386
#     4  12  22  36  60  94 118 156 218 272 314 386
#
# _framework density 20.597555
#
# number of rings (size 3 to 8) (size 9 to 14) (size 15 to 20)
#    0.000    0.500    2.500    8.250    0.000    0.000 
#    6.750    0.000    0.000    0.000    0.000    0.000 
#    0.000    0.000    0.000    0.000    0.000    0.000 
#
# Total GULP energy -178786.443554 kJ/mol
# GULP energy per Si atom -5587.076361 kJ/mol
# Density = 2.055067 g / cm^3
# Si number density = 20.597555 Si / 1000 Ang^3
#
#
#
# Elastic Constant Matrix: (Units=GPa)
#
#
# Indices 1 2 3 4 5 6 
#
# 1 61.7217 22.7207 49.3811 0.0000 0.0000 0.0000
# 2 22.7207 118.7816 25.4946 0.0000 0.0000 0.0000
# 3 49.3811 25.4946 121.9477 0.0000 0.0000 0.0000
# 4 0.0000 0.0000 0.0000 28.5603 0.0000 0.0000
# 5 0.0000 0.0000 0.0000 0.0000 29.7938 0.0000
# 6 0.0000 0.0000 0.0000 0.0000 0.0000 32.6777
#
#
#
# Elastic Compliance Matrix: (Units=1/GPa)
#
#
# Indices 1 2 3 4 5 6 
#
# 1 0.024770 -0.002707 -0.009465 0.000000 0.000000 0.000000
# 2 -0.002707 0.009110 -0.000809 0.000000 0.000000 0.000000
# 3 -0.009465 -0.000809 0.012202 0.000000 0.000000 0.000000
# 4 0.000000 0.000000 0.000000 0.035014 0.000000 0.000000
# 5 0.000000 0.000000 0.000000 0.000000 0.033564 0.000000
# 6 0.000000 0.000000 0.000000 0.000000 0.000000 0.030602
#
#
# Mechanical properties :
#
#
# Convention : Reuss Voigt Hill
#
# Bulk Modulus (GPa) = 49.69512 55.29375 52.49443
# Shear Modulus (GPa) = 28.10111 31.86333 29.98222
#
# Velocity S-wave (km/s) = 3.69764 3.93739 3.81940
# Velocity P-wave (km/s) = 6.51223 6.89738 6.70757
#
# Compressibility (1/GPa) = 0.02012270
#
# Stress axis : x y z
#
# Youngs Moduli (GPa) = 40.37089 109.76836 81.95508
#
# Poissons Ratio (x) = 0.29711 0.77567
# Poissons Ratio (y) = 0.10927 0.06626
# Poissons Ratio (z) = 0.38209 0.08875
#
# Static dielectric constant tensor:
#      x y z
#    x 1.731400 0.000000 0.000000 
#    y 0.000000 1.781850 0.000000 
#    z 0.000000 0.000000 1.691160 
# 
# From -- ./inp_files/15192.got.cif
#   From: 2010.05.17/outbox.cif.g08.bks.cpg/sg52_8_cif.got.tgz:15192.got - 2010.06.03 12:15:38.
