data_PCOD9413534
_publ_section_title
;
Structure prediction by ZEFSAII (Michael W. Deem and Ramdas Pophale) SiO2 
 PCOD9413534
Probable space group: P N N A
;
_chemical_formula_sum "Si O2"
_cell_formula_units_Z 48
_cell_length_a 17.378225
_cell_length_b 15.080203
_cell_length_c 9.067411
_cell_angle_alpha 90.000000
_cell_angle_beta 90.000000
_cell_angle_gamma 90.000000
_cell_volume 2376.270656
_symmetry_space_group_name_H-M "P N N A"
_symmetry_group_IT_number 52
_symmetry_cell_setting 'orthorhombic'
loop_
_space_group_symop_operation_xyz
x,y,z
1/2-x,-y,z
x,1/2-y,1/2-z
1/2-x,1/2+y,1/2-z
-x,-y,-z
1/2+x,y,-z
-x,1/2+y,1/2+z
1/2+x,1/2-y,1/2+z
loop_
_atom_site_type_symbol
_atom_site_label
_atom_site_fract_x
_atom_site_fract_y
_atom_site_fract_z
Si Si1 0.297639 0.750000 0.250000
Si Si2 0.570669 0.656998 0.279023
Si Si3 0.196341 0.913052 0.297821
Si Si4 0.163438 0.967534 0.978664
Si Si5 0.963766 0.750000 0.250000
Si Si6 0.462102 0.095349 0.459630
Si Si7 0.915218 0.847207 0.966495
O O1 0.244706 0.824397 0.325836
O O2 0.352550 0.800692 0.136507
O O3 0.612000 0.750000 0.250000
O O4 0.628446 0.585032 0.342488
O O5 0.499361 0.660616 0.392940
O O6 0.535551 0.638356 0.119972
O O7 0.124300 0.922380 0.404541
O O8 0.250000 0.000000 0.306402
O O9 0.167182 0.909005 0.127739
O O10 0.250000 0.000000 0.949406
O O11 0.109494 0.051059 0.015256
O O12 0.916855 0.700181 0.376363
O O13 0.006313 0.831746 0.339594
O O14 0.500000 0.000000 0.500000
#
# Coordination Sequence:
#
# PCOD9413534 Si02
#       7
#     4   8   8   8   4   8   8
#     4  12  23  44  72  99 140 188 232 294 355 434
#     4  12  25  43  72 102 137 181 235 291 343 422
#     4  11  25  44  73 102 142 186 234 285 359 429
#     4  11  24  47  68 101 140 190 231 287 362 422
#     4  12  25  44  72 103 136 182 240 296 349 422
#     4  12  26  45  71 105 141 181 238 294 352 420
#     4  12  23  46  72 100 139 182 238 286 357 422
#
# _framework density 20.199719999999999
#
# number of rings (size 3 to 8) (size 9 to 14) (size 15 to 20)
#    0.000    0.333    5.833    4.000    4.667    0.667 
#    4.500    0.000    0.000    0.000    0.000    0.000 
#    0.000    0.000    0.000    0.000    0.000    0.000 
#
# Total GULP energy -268043.393961 kJ/mol
# GULP energy per Si atom -5584.237374 kJ/mol
# Density = 2.015374 g / cm^3
# Si number density = 20.199720 Si / 1000 Ang^3
#
#
#
# Elastic Constant Matrix: (Units=GPa)
#
#
# Indices 1 2 3 4 5 6 
#
# 1 70.5196 18.4772 16.4425 0.0000 0.0000 0.0000
# 2 18.4772 114.3118 22.7124 0.0000 0.0000 0.0000
# 3 16.4425 22.7124 79.3022 0.0000 0.0000 0.0000
# 4 0.0000 0.0000 0.0000 34.1066 0.0000 0.0000
# 5 0.0000 0.0000 0.0000 0.0000 25.6167 0.0000
# 6 0.0000 0.0000 0.0000 0.0000 0.0000 28.8361
#
#
#
# Elastic Compliance Matrix: (Units=1/GPa)
#
#
# Indices 1 2 3 4 5 6 
#
# 1 0.015302 -0.001954 -0.002613 0.000000 0.000000 0.000000
# 2 -0.001954 0.009525 -0.002323 0.000000 0.000000 0.000000
# 3 -0.002613 -0.002323 0.013817 0.000000 0.000000 0.000000
# 4 0.000000 0.000000 0.000000 0.029320 0.000000 0.000000
# 5 0.000000 0.000000 0.000000 0.000000 0.039037 0.000000
# 6 0.000000 0.000000 0.000000 0.000000 0.000000 0.034679
#
#
# Mechanical properties :
#
#
# Convention : Reuss Voigt Hill
#
# Bulk Modulus (GPa) = 40.21873 42.15530 41.18701
# Shear Modulus (GPa) = 30.53475 31.47867 31.00671
#
# Velocity S-wave (km/s) = 3.89220 3.95190 3.92217
# Velocity P-wave (km/s) = 6.33662 6.46049 6.39886
#
# Compressibility (1/GPa) = 0.02486404
#
# Stress axis : x y z
#
# Youngs Moduli (GPa) = 65.35212 104.98238 72.37430
#
# Poissons Ratio (x) = 0.20515 0.18911
# Poissons Ratio (y) = 0.12771 0.16812
# Poissons Ratio (z) = 0.17076 0.24387
#
# Static dielectric constant tensor:
#      x y z
#    x 1.697190 0.000000 0.000000 
#    y 0.000000 1.981130 0.000000 
#    z 0.000000 0.000000 1.700580 
# 
# From -- ./inp_files/12152.got.cif
#   From: 2010.05.17/outbox.cif.g08.bks.cpg/sg52_7_cif.got.tgz:12152.got - 2010.06.03 12:15:38.
