data_PCOD9413673
_publ_section_title
;
Structure prediction by ZEFSAII (Michael W. Deem and Ramdas Pophale) SiO2 
 PCOD9413673
Probable space group: P N N A
;
_chemical_formula_sum "Si O2"
_cell_formula_units_Z 36
_cell_length_a 18.958086
_cell_length_b 5.514019
_cell_length_c 14.946155
_cell_angle_alpha 90.000000
_cell_angle_beta 90.000000
_cell_angle_gamma 90.000000
_cell_volume 1562.399996
_symmetry_space_group_name_H-M "P N N A"
_symmetry_group_IT_number 52
_symmetry_cell_setting 'orthorhombic'
loop_
_space_group_symop_operation_xyz
x,y,z
1/2-x,-y,z
x,1/2-y,1/2-z
1/2-x,1/2+y,1/2-z
-x,-y,-z
1/2+x,y,-z
-x,1/2+y,1/2+z
1/2+x,1/2-y,1/2+z
loop_
_atom_site_type_symbol
_atom_site_label
_atom_site_fract_x
_atom_site_fract_y
_atom_site_fract_z
Si Si1 0.250000 0.000000 0.691140
Si Si2 0.470708 0.207366 0.064174
Si Si3 0.824363 0.750000 0.750000
Si Si4 0.385917 0.528024 0.942656
Si Si5 0.594916 0.750000 0.750000
Si Si6 0.283673 0.738601 0.447526
O O1 0.251202 0.750000 0.750000
O O2 0.323999 0.003399 0.632033
O O3 0.534806 0.397488 0.084739
O O4 0.446474 0.151594 0.163857
O O5 0.402961 0.309521 0.010335
O O6 0.500000 0.000000 0.000000
O O7 0.863586 0.496738 0.773461
O O8 0.783541 0.712415 0.658245
O O9 0.359749 0.739566 0.008721
O O10 0.250000 0.500000 0.488944
O O11 0.250000 0.000000 0.468042
#
# Coordination Sequence:
#
# PCOD9413673 Si02
#       6
#     4   8   4   8   4   8
#     4  12  32  52  80 116 156 212 272 334 408 484
#     4  11  27  48  80 114 157 216 263 338 401 476
#     4  12  24  45  68 110 151 188 248 300 380 472
#     4  11  27  50  75 112 154 203 267 322 404 466
#     4  12  26  45  74 112 151 198 262 314 390 476
#     4  12  25  43  72 106 148 196 239 306 383 465
#
# _framework density 23.041473
#
# number of rings (size 3 to 8) (size 9 to 14) (size 15 to 20)
#    0.000    0.444    3.333    3.333   12.444    0.000 
#    0.000    0.000    0.000    0.000    0.000    0.000 
#    0.000    0.000    0.000    0.000    0.000    0.000 
#
# Total GULP energy -200656.050873 kJ/mol
# GULP energy per Si atom -5573.779191 kJ/mol
# Density = 2.298903 g / cm^3
# Si number density = 23.041473 Si / 1000 Ang^3
#
#
#
# Elastic Constant Matrix: (Units=GPa)
#
#
# Indices 1 2 3 4 5 6 
#
# 1 113.9037 48.9303 47.7869 0.0000 0.0000 0.0000
# 2 48.9303 122.2640 55.5194 0.0000 0.0000 0.0000
# 3 47.7869 55.5194 128.4729 0.0000 0.0000 0.0000
# 4 0.0000 0.0000 0.0000 26.3113 0.0000 0.0000
# 5 0.0000 0.0000 0.0000 0.0000 53.2232 0.0000
# 6 0.0000 0.0000 0.0000 0.0000 0.0000 60.1820
#
#
#
# Elastic Compliance Matrix: (Units=1/GPa)
#
#
# Indices 1 2 3 4 5 6 
#
# 1 0.011365 -0.003270 -0.002814 0.000000 0.000000 0.000000
# 2 -0.003270 0.011117 -0.003588 0.000000 0.000000 0.000000
# 3 -0.002814 -0.003588 0.010381 0.000000 0.000000 0.000000
# 4 0.000000 0.000000 0.000000 0.038007 0.000000 0.000000
# 5 0.000000 0.000000 0.000000 0.000000 0.018789 0.000000
# 6 0.000000 0.000000 0.000000 0.000000 0.000000 0.016616
#
#
# Mechanical properties :
#
#
# Convention : Reuss Voigt Hill
#
# Bulk Modulus (GPa) = 73.97292 74.34598 74.15945
# Shear Modulus (GPa) = 38.42470 42.10356 40.26413
#
# Velocity S-wave (km/s) = 4.08810 4.27932 4.18480
# Velocity P-wave (km/s) = 7.37952 7.53346 7.45689
#
# Compressibility (1/GPa) = 0.01351846
#
# Stress axis : x y z
#
# Youngs Moduli (GPa) = 87.99105 89.95215 96.33112
#
# Poissons Ratio (x) = 0.29418 0.27107
# Poissons Ratio (y) = 0.28777 0.34561
# Poissons Ratio (z) = 0.24760 0.32273
#
# Static dielectric constant tensor:
#      x y z
#    x 1.936770 0.000000 0.000000 
#    y 0.000000 1.954110 0.000000 
#    z 0.000000 0.000000 1.840650 
# 
# From -- ./inp_files/28506.got.cif
#   From: 2010.05.17/outbox.cif.g08.bks.cpg/sg52_15_cif.got.tgz:28506.got - 2010.06.03 12:15:38.
