data_PCOD9413839
_publ_section_title
;
Structure prediction by ZEFSAII (Michael W. Deem and Ramdas Pophale) SiO2 
 PCOD9413839
Probable space group: P N N A
;
_chemical_formula_sum "Si O2"
_cell_formula_units_Z 40
_cell_length_a 11.918776
_cell_length_b 8.704449
_cell_length_c 15.343733
_cell_angle_alpha 90.000000
_cell_angle_beta 90.000000
_cell_angle_gamma 90.000000
_cell_volume 1591.856721
_symmetry_space_group_name_H-M "P N N A"
_symmetry_group_IT_number 52
_symmetry_cell_setting 'orthorhombic'
loop_
_space_group_symop_operation_xyz
x,y,z
1/2-x,-y,z
x,1/2-y,1/2-z
1/2-x,1/2+y,1/2-z
-x,-y,-z
1/2+x,y,-z
-x,1/2+y,1/2+z
1/2+x,1/2-y,1/2+z
loop_
_atom_site_type_symbol
_atom_site_label
_atom_site_fract_x
_atom_site_fract_y
_atom_site_fract_z
Si Si1 0.468098 0.818860 0.003986
Si Si2 0.974504 0.922391 0.270813
Si Si3 0.706500 0.349196 0.360480
Si Si4 0.343037 0.871447 0.177023
Si Si5 0.859418 0.401600 0.080830
O O1 0.389385 0.796265 0.088646
O O2 0.573146 0.703071 0.011697
O O3 0.394515 0.788007 0.919220
O O4 0.500000 0.000000 0.000000
O O5 0.020801 0.750000 0.250000
O O6 0.852038 0.909339 0.226319
O O7 0.948059 0.999221 0.363822
O O8 0.051634 0.039951 0.219043
O O9 0.750000 0.500000 0.409039
O O10 0.804469 0.227064 0.356014
O O11 0.303729 0.750000 0.250000
O O12 0.250000 0.000000 0.157843
O O13 0.750000 0.500000 0.050260
#
# Coordination Sequence:
#
# PCOD9413839 Si02
#       5
#     8   8   8   8   8
#     4  12  25  46  75 110 156 206 261 320 395 478
#     4  12  25  45  74 109 149 193 258 326 388 463
#     4  12  25  42  75 112 150 199 257 315 400 463
#     4  12  26  48  76 107 152 205 266 318 389 467
#     4  12  26  47  75 116 152 203 261 330 397 466
#
# _framework density 25.127887999999999
#
# number of rings (size 3 to 8) (size 9 to 14) (size 15 to 20)
#    0.000    0.000    8.000    1.800    0.000    2.400 
#    0.000    1.000    0.000    0.000    0.000    0.000 
#    0.000    0.000    0.000    0.000    0.000    0.000 
#
# Total GULP energy -223809.863929 kJ/mol
# GULP energy per Si atom -5595.246598 kJ/mol
# Density = 2.507070 g / cm^3
# Si number density = 25.127888 Si / 1000 Ang^3
#
#
#
# Elastic Constant Matrix: (Units=GPa)
#
#
# Indices 1 2 3 4 5 6 
#
# 1 72.1113 32.7885 -7.4896 0.0000 0.0000 0.0000
# 2 32.7885 139.7188 19.8529 0.0000 0.0000 0.0000
# 3 -7.4896 19.8529 37.7726 0.0000 0.0000 0.0000
# 4 0.0000 0.0000 0.0000 34.9346 0.0000 0.0000
# 5 0.0000 0.0000 0.0000 0.0000 24.9743 0.0000
# 6 0.0000 0.0000 0.0000 0.0000 0.0000 70.3201
#
#
#
# Elastic Compliance Matrix: (Units=1/GPa)
#
#
# Indices 1 2 3 4 5 6 
#
# 1 0.016613 -0.004719 0.005774 0.000000 0.000000 0.000000
# 2 -0.004719 0.009075 -0.005706 0.000000 0.000000 0.000000
# 3 0.005774 -0.005706 0.030618 0.000000 0.000000 0.000000
# 4 0.000000 0.000000 0.000000 0.028625 0.000000 0.000000
# 5 0.000000 0.000000 0.000000 0.000000 0.040041 0.000000
# 6 0.000000 0.000000 0.000000 0.000000 0.000000 0.014221
#
#
# Mechanical properties :
#
#
# Convention : Reuss Voigt Hill
#
# Bulk Modulus (GPa) = 21.27408 37.76736 29.52072
# Shear Modulus (GPa) = 30.45761 39.67585 35.06673
#
# Velocity S-wave (km/s) = 3.48531 3.97792 3.73973
# Velocity P-wave (km/s) = 4.96801 6.01341 5.51554
#
# Compressibility (1/GPa) = 0.04700555
#
# Stress axis : x y z
#
# Youngs Moduli (GPa) = 60.19403 110.18766 32.66048
#
# Poissons Ratio (x) = 0.51999 -0.18859
# Poissons Ratio (y) = 0.28406 0.18635
# Poissons Ratio (z) = -0.34758 0.62870
#
# Static dielectric constant tensor:
#      x y z
#    x 2.011440 0.000000 0.000000 
#    y 0.000000 2.100490 0.000000 
#    z 0.000000 0.000000 2.006430 
# 
# From -- ./inp_files/31919.got.cif
#   From: 2010.05.17/outbox.cif.g08.bks.cpg/sg52_16_cif.got.tgz:31919.got - 2010.06.03 12:15:38.
