data_PCOD9413555
_publ_section_title
;
Structure prediction by ZEFSAII (Michael W. Deem and Ramdas Pophale) SiO2 
 PCOD9413555
Probable space group: P N N A
;
_chemical_formula_sum "Si O2"
_cell_formula_units_Z 32
_cell_length_a 13.000692
_cell_length_b 20.685798
_cell_length_c 4.928601
_cell_angle_alpha 90.000000
_cell_angle_beta 90.000000
_cell_angle_gamma 90.000000
_cell_volume 1325.447132
_symmetry_space_group_name_H-M "P N N A"
_symmetry_group_IT_number 52
_symmetry_cell_setting 'orthorhombic'
loop_
_space_group_symop_operation_xyz
x,y,z
1/2-x,-y,z
x,1/2-y,1/2-z
1/2-x,1/2+y,1/2-z
-x,-y,-z
1/2+x,y,-z
-x,1/2+y,1/2+z
1/2+x,1/2-y,1/2+z
loop_
_atom_site_type_symbol
_atom_site_label
_atom_site_fract_x
_atom_site_fract_y
_atom_site_fract_z
Si Si1 0.780838 0.637181 0.203280
Si Si2 0.858234 0.348285 0.698863
Si Si3 0.044956 0.309901 0.436129
Si Si4 0.965642 0.926341 0.506841
O O1 0.706855 0.621428 0.453508
O O2 0.869789 0.681817 0.332187
O O3 0.718155 0.666053 0.948679
O O4 0.848972 0.577326 0.102078
O O5 0.930309 0.296434 0.546814
O O6 0.946913 0.393209 0.822569
O O7 0.074327 0.250000 0.250000
O O8 0.039410 0.377743 0.267235
O O9 0.000000 0.000000 0.500000
#
# Coordination Sequence:
#
# PCOD9413555 Si02
#       4
#     8   8   8   8
#     4  11  24  50  75 115 150 200 254 314 381 457
#     4  11  24  50  75 115 150 200 254 314 381 457
#     4  11  26  52  79 113 158 202 259 323 388 466
#     4  11  26  50  73 109 157 201 253 323 384 456
#
# _framework density 24.142796000000001
#
# number of rings (size 3 to 8) (size 9 to 14) (size 15 to 20)
#    0.000    1.000    5.000    0.000    0.000    9.000 
#   18.000    0.000    0.000    0.000    0.000    0.000 
#    0.000    0.000    0.000    0.000    0.000    0.000 
#
# Total GULP energy -178749.137501 kJ/mol
# GULP energy per Si atom -5585.910547 kJ/mol
# Density = 2.408785 g / cm^3
# Si number density = 24.142796 Si / 1000 Ang^3
#
#
#
# Elastic Constant Matrix: (Units=GPa)
#
#
# Indices 1 2 3 4 5 6 
#
# 1 161.8540 -3.2609 64.5415 0.0000 0.0000 0.0000
# 2 -3.2609 63.3679 19.8296 0.0000 0.0000 0.0000
# 3 64.5415 19.8296 161.7947 0.0000 0.0000 0.0000
# 4 0.0000 0.0000 0.0000 16.4295 0.0000 0.0000
# 5 0.0000 0.0000 0.0000 0.0000 69.5958 0.0000
# 6 0.0000 0.0000 0.0000 0.0000 0.0000 5.4075
#
#
#
# Elastic Compliance Matrix: (Units=1/GPa)
#
#
# Indices 1 2 3 4 5 6 
#
# 1 0.007459 0.001367 -0.003143 0.000000 0.000000 0.000000
# 2 0.001367 0.016661 -0.002587 0.000000 0.000000 0.000000
# 3 -0.003143 -0.002587 0.007752 0.000000 0.000000 0.000000
# 4 0.000000 0.000000 0.000000 0.060866 0.000000 0.000000
# 5 0.000000 0.000000 0.000000 0.000000 0.014369 0.000000
# 6 0.000000 0.000000 0.000000 0.000000 0.000000 0.184929
#
#
# Mechanical properties :
#
#
# Convention : Reuss Voigt Hill
#
# Bulk Modulus (GPa) = 43.20492 61.02632 52.11562
# Shear Modulus (GPa) = 16.20864 38.68031 27.44448
#
# Velocity S-wave (km/s) = 2.59388 4.00703 3.37524
# Velocity P-wave (km/s) = 5.18704 6.83670 6.06819
#
# Compressibility (1/GPa) = 0.02314551
#
# Stress axis : x y z
#
# Youngs Moduli (GPa) = 134.05993 60.02069 129.00488
#
# Poissons Ratio (x) = -0.08208 0.40549
# Poissons Ratio (y) = -0.18332 0.33379
# Poissons Ratio (z) = 0.42138 0.15530
#
# Static dielectric constant tensor:
#      x y z
#    x 1.962200 0.000000 0.000000 
#    y 0.000000 2.038000 0.000000 
#    z 0.000000 0.000000 1.994910 
# 
# From -- ./inp_files/1153.got.cif
#   From: 2010.05.17/outbox.cif.g08.bks.cpg/sg52_1_cif.got.tgz:1153.got - 2010.06.03 12:15:38.
