data_PCOD9413156
_publ_section_title
;
Structure prediction by ZEFSAII (Michael W. Deem and Ramdas Pophale) SiO2 
 PCOD9413156
Probable space group: P N N A
;
_chemical_formula_sum "Si O2"
_cell_formula_units_Z 40
_cell_length_a 19.484141
_cell_length_b 14.453091
_cell_length_c 5.821550
_cell_angle_alpha 90.000000
_cell_angle_beta 90.000000
_cell_angle_gamma 90.000000
_cell_volume 1639.383776
_symmetry_space_group_name_H-M "P N N A"
_symmetry_group_IT_number 52
_symmetry_cell_setting 'orthorhombic'
loop_
_space_group_symop_operation_xyz
x,y,z
1/2-x,-y,z
x,1/2-y,1/2-z
1/2-x,1/2+y,1/2-z
-x,-y,-z
1/2+x,y,-z
-x,1/2+y,1/2+z
1/2+x,1/2-y,1/2+z
loop_
_atom_site_type_symbol
_atom_site_label
_atom_site_fract_x
_atom_site_fract_y
_atom_site_fract_z
Si Si1 0.536835 0.175038 0.434182
Si Si2 0.763228 0.702774 0.001655
Si Si3 0.574672 0.008547 0.115172
Si Si4 0.112474 0.630778 0.963166
Si Si5 0.633718 0.431606 0.809421
O O1 0.560030 0.250000 0.250000
O O2 0.555401 0.077026 0.319498
O O3 0.456444 0.184887 0.474938
O O4 0.577584 0.151910 0.665787
O O5 0.782181 0.750000 0.250000
O O6 0.681987 0.686100 0.014642
O O7 0.777024 0.750000 0.750000
O O8 0.803336 0.605931 0.959989
O O9 0.600359 0.911056 0.209903
O O10 0.634287 0.054811 0.964038
O O11 0.500000 0.000000 0.000000
O O12 0.117385 0.537720 0.118387
#
# Coordination Sequence:
#
# PCOD9413156 Si02
#       5
#     8   8   8   8   8
#     4  11  23  39  69 108 146 184 245 310 379 436
#     4  12  31  51  71 110 155 200 255 314 383 451
#     4  11  21  42  75 105 141 187 252 307 375 454
#     4  11  24  46  72 105 146 195 251 309 376 454
#     4  11  24  46  71 103 144 201 247 303 370 463
#
# _framework density 24.399412999999999
#
# number of rings (size 3 to 8) (size 9 to 14) (size 15 to 20)
#    0.000    0.800    4.000    3.000   11.200    1.600 
#    0.000    0.000    0.000    0.000    0.000    0.000 
#    0.000    0.000    0.000    0.000    0.000    0.000 
#
# Total GULP energy -223101.671026 kJ/mol
# GULP energy per Si atom -5577.541776 kJ/mol
# Density = 2.434388 g / cm^3
# Si number density = 24.399413 Si / 1000 Ang^3
#
#
#
# Elastic Constant Matrix: (Units=GPa)
#
#
# Indices 1 2 3 4 5 6 
#
# 1 118.4571 -0.4717 13.1523 0.0000 0.0000 0.0000
# 2 -0.4717 49.0002 25.2103 0.0000 0.0000 0.0000
# 3 13.1523 25.2103 111.6972 0.0000 0.0000 0.0000
# 4 0.0000 0.0000 0.0000 48.6383 0.0000 0.0000
# 5 0.0000 0.0000 0.0000 0.0000 27.9901 0.0000
# 6 0.0000 0.0000 0.0000 0.0000 0.0000 33.0497
#
#
#
# Elastic Compliance Matrix: (Units=1/GPa)
#
#
# Indices 1 2 3 4 5 6 
#
# 1 0.008574 0.000681 -0.001163 0.000000 0.000000 0.000000
# 2 0.000681 0.023143 -0.005304 0.000000 0.000000 0.000000
# 3 -0.001163 -0.005304 0.010287 0.000000 0.000000 0.000000
# 4 0.000000 0.000000 0.000000 0.020560 0.000000 0.000000
# 5 0.000000 0.000000 0.000000 0.000000 0.035727 0.000000
# 6 0.000000 0.000000 0.000000 0.000000 0.000000 0.030257
#
#
# Mechanical properties :
#
#
# Convention : Reuss Voigt Hill
#
# Bulk Modulus (GPa) = 32.86012 39.43737 36.14875
# Shear Modulus (GPa) = 33.27473 38.01985 35.64729
#
# Velocity S-wave (km/s) = 3.69691 3.95172 3.82644
# Velocity P-wave (km/s) = 5.63202 6.08439 5.86257
#
# Compressibility (1/GPa) = 0.03043202
#
# Stress axis : x y z
#
# Youngs Moduli (GPa) = 116.63520 43.20895 97.21189
#
# Poissons Ratio (x) = -0.02943 0.11308
# Poissons Ratio (y) = -0.07943 0.51558
# Poissons Ratio (z) = 0.13568 0.22917
#
# Static dielectric constant tensor:
#      x y z
#    x 2.273830 0.000000 0.000000 
#    y 0.000000 2.071150 0.000000 
#    z 0.000000 0.000000 11.193340 
# 
# From -- ./inp_files/3198.got.cif
#   From: 2010.05.17/outbox.cif.g08.bks.cpg/sg52_2_cif.got.tgz:3198.got - 2010.06.03 12:15:38.
