data_PCOD9413041
_publ_section_title
;
Structure prediction by ZEFSAII (Michael W. Deem and Ramdas Pophale) SiO2 
 PCOD9413041
Probable space group: P N N A
;
_chemical_formula_sum "Si O2"
_cell_formula_units_Z 60
_cell_length_a 12.592848
_cell_length_b 11.354334
_cell_length_c 21.064553
_cell_angle_alpha 90.000000
_cell_angle_beta 90.000000
_cell_angle_gamma 90.000000
_cell_volume 3011.881454
_symmetry_space_group_name_H-M "P N N A"
_symmetry_group_IT_number 52
_symmetry_cell_setting 'orthorhombic'
loop_
_space_group_symop_operation_xyz
x,y,z
1/2-x,-y,z
x,1/2-y,1/2-z
1/2-x,1/2+y,1/2-z
-x,-y,-z
1/2+x,y,-z
-x,1/2+y,1/2+z
1/2+x,1/2-y,1/2+z
loop_
_atom_site_type_symbol
_atom_site_label
_atom_site_fract_x
_atom_site_fract_y
_atom_site_fract_z
Si Si1 0.750000 0.000000 0.036549
Si Si2 0.216652 0.369734 0.061770
Si Si3 0.029558 0.858374 0.565821
Si Si4 0.661433 0.416533 0.080978
Si Si5 0.871275 0.186982 0.959029
Si Si6 0.596453 0.704998 0.322062
Si Si7 0.534410 0.025365 0.116974
Si Si8 0.839963 0.792648 0.178963
O O1 0.858995 0.977056 0.074025
O O2 0.718719 0.886592 0.995746
O O3 0.250000 0.500000 0.081555
O O4 0.304229 0.276869 0.084068
O O5 0.095233 0.347618 0.078167
O O6 0.214608 0.370114 0.984134
O O7 0.061763 0.770859 0.507598
O O8 0.086346 0.811329 0.628858
O O9 0.067330 0.994601 0.559689
O O10 0.750000 0.500000 0.112641
O O11 0.636242 0.309386 0.127316
O O12 0.943585 0.090011 0.923655
O O13 0.578023 0.750000 0.250000
O O14 0.521432 0.602911 0.351640
O O15 0.718759 0.662029 0.329672
O O16 0.569862 0.110754 0.172845
O O17 0.840958 0.750000 0.250000
#
# Coordination Sequence:
#
# PCOD9413041 Si02
#       8
#     4   8   8   8   8   8   8   8
#     4  12  22  40  60  94 134 168 206 258 332 402
#     4  11  24  39  61  93 126 162 208 259 326 387
#     4  12  22  40  65  89 130 166 211 258 323 389
#     4  11  20  37  60  92 128 163 207 259 321 392
#     4  12  24  38  63  97 129 170 208 267 323 395
#     4  11  24  41  62  90 124 170 211 260 321 390
#     4  12  24  40  62  93 134 166 215 266 327 393
#     4  11  23  38  61  90 128 167 211 263 320 382
#
# _framework density 19.921102999999999
#
# number of rings (size 3 to 8) (size 9 to 14) (size 15 to 20)
#    0.000    0.533    6.667    3.200    5.600    0.000 
#    0.000    0.000    0.000    2.400    0.000    0.000 
#    0.000    0.000    0.000    0.000    0.000    0.000 
#
# Total GULP energy -334862.445828 kJ/mol
# GULP energy per Si atom -5581.040764 kJ/mol
# Density = 1.987576 g / cm^3
# Si number density = 19.921103 Si / 1000 Ang^3
#
#
#
# Elastic Constant Matrix: (Units=GPa)
#
#
# Indices 1 2 3 4 5 6 
#
# 1 78.3400 35.8934 16.5774 0.0000 0.0000 0.0000
# 2 35.8934 108.4765 19.5734 0.0000 0.0000 0.0000
# 3 16.5774 19.5734 45.5771 0.0000 0.0000 0.0000
# 4 0.0000 0.0000 0.0000 1.2652 0.0000 0.0000
# 5 0.0000 0.0000 0.0000 0.0000 5.2254 0.0000
# 6 0.0000 0.0000 0.0000 0.0000 0.0000 37.1796
#
#
#
# Elastic Compliance Matrix: (Units=1/GPa)
#
#
# Indices 1 2 3 4 5 6 
#
# 1 0.015616 -0.004490 -0.003752 0.000000 0.000000 0.000000
# 2 -0.004490 0.011284 -0.003213 0.000000 0.000000 0.000000
# 3 -0.003752 -0.003213 0.024685 0.000000 0.000000 0.000000
# 4 0.000000 0.000000 0.000000 0.790366 0.000000 0.000000
# 5 0.000000 0.000000 0.000000 0.000000 0.191373 0.000000
# 6 0.000000 0.000000 0.000000 0.000000 0.000000 0.026896
#
#
# Mechanical properties :
#
#
# Convention : Reuss Voigt Hill
#
# Bulk Modulus (GPa) = 34.87231 41.83135 38.35183
# Shear Modulus (GPa) = 4.57587 19.42401 11.99994
#
# Velocity S-wave (km/s) = 1.51723 3.12596 2.45699
# Velocity P-wave (km/s) = 4.54010 5.83720 5.22903
#
# Compressibility (1/GPa) = 0.02867605
#
# Stress axis : x y z
#
# Youngs Moduli (GPa) = 64.03671 88.62060 40.51023
#
# Poissons Ratio (x) = 0.39793 0.15198
# Poissons Ratio (y) = 0.28754 0.13015
# Poissons Ratio (z) = 0.24024 0.28472
#
# Static dielectric constant tensor:
#      x y z
#    x 1.738040 0.000000 0.000000 
#    y 0.000000 1.668580 0.000000 
#    z 0.000000 0.000000 1.727780 
# 
# From -- ./inp_files/36887.got.cif
#   From: 2010.05.17/outbox.cif.g08.bks.cpg/sg52_19_cif.got.tgz:36887.got - 2010.06.03 12:15:38.
