data_PCOD9413145
_publ_section_title
;
Structure prediction by ZEFSAII (Michael W. Deem and Ramdas Pophale) SiO2 
 PCOD9413145
Probable space group: P N N A
;
_chemical_formula_sum "Si O2"
_cell_formula_units_Z 48
_cell_length_a 14.626636
_cell_length_b 9.881691
_cell_length_c 17.247255
_cell_angle_alpha 90.000000
_cell_angle_beta 90.000000
_cell_angle_gamma 90.000000
_cell_volume 2492.847478
_symmetry_space_group_name_H-M "P N N A"
_symmetry_group_IT_number 52
_symmetry_cell_setting 'orthorhombic'
loop_
_space_group_symop_operation_xyz
x,y,z
1/2-x,-y,z
x,1/2-y,1/2-z
1/2-x,1/2+y,1/2-z
-x,-y,-z
1/2+x,y,-z
-x,1/2+y,1/2+z
1/2+x,1/2-y,1/2+z
loop_
_atom_site_type_symbol
_atom_site_label
_atom_site_fract_x
_atom_site_fract_y
_atom_site_fract_z
Si Si1 0.750000 0.000000 0.115021
Si Si2 0.250000 0.500000 0.216540
Si Si3 0.013910 0.840770 0.517059
Si Si4 0.167385 0.166914 0.021249
Si Si5 0.919733 0.326031 0.331336
Si Si6 0.604725 0.009032 0.834960
Si Si7 0.342216 0.228396 0.385228
O O1 0.826268 0.090014 0.157479
O O2 0.695299 0.102832 0.059580
O O3 0.323652 0.572023 0.273449
O O4 0.309055 0.400266 0.163425
O O5 0.058618 0.779719 0.597315
O O6 0.077942 0.795197 0.446713
O O7 0.914519 0.772202 0.513981
O O8 0.000000 0.000000 0.500000
O O9 0.133758 0.048188 0.078117
O O10 0.254041 0.229261 0.064606
O O11 0.916556 0.250000 0.250000
O O12 0.004161 0.431849 0.326171
O O13 0.622131 0.849365 0.830549
#
# Coordination Sequence:
#
# PCOD9413145 Si02
#       7
#     4   4   8   8   8   8   8
#     4  12  21  50  69  94 126 178 238 278 315 410
#     4  12  25  36  65 104 148 168 214 282 351 410
#     4  11  25  44  67 102 138 175 226 283 344 406
#     4  11  21  41  73  96 126 177 229 277 325 405
#     4  11  27  46  69  97 135 181 227 285 344 400
#     4  11  23  41  67 100 135 172 224 277 344 410
#     4  12  22  41  64 104 131 183 222 273 345 404
#
# _framework density 19.255088000000001
#
# number of rings (size 3 to 8) (size 9 to 14) (size 15 to 20)
#    0.000    0.667    5.000    2.500    7.000    2.667 
#    3.000    1.667    0.000    0.000    0.000    0.000 
#    0.000    0.000    0.000    0.000    0.000    0.000 
#
# Total GULP energy -268046.627974 kJ/mol
# GULP energy per Si atom -5584.304749 kJ/mol
# Density = 1.921126 g / cm^3
# Si number density = 19.255088 Si / 1000 Ang^3
#
#
#
# Elastic Constant Matrix: (Units=GPa)
#
#
# Indices 1 2 3 4 5 6 
#
# 1 138.8520 63.2862 54.5440 0.0000 0.0000 0.0000
# 2 63.2862 107.8704 49.0800 0.0000 0.0000 0.0000
# 3 54.5440 49.0800 93.5214 0.0000 0.0000 0.0000
# 4 0.0000 0.0000 0.0000 19.4858 0.0000 0.0000
# 5 0.0000 0.0000 0.0000 0.0000 16.3186 0.0000
# 6 0.0000 0.0000 0.0000 0.0000 0.0000 25.3835
#
#
#
# Elastic Compliance Matrix: (Units=1/GPa)
#
#
# Indices 1 2 3 4 5 6 
#
# 1 0.010821 -0.004568 -0.003914 0.000000 0.000000 0.000000
# 2 -0.004568 0.014107 -0.004739 0.000000 0.000000 0.000000
# 3 -0.003914 -0.004739 0.015463 0.000000 0.000000 0.000000
# 4 0.000000 0.000000 0.000000 0.051320 0.000000 0.000000
# 5 0.000000 0.000000 0.000000 0.000000 0.061280 0.000000
# 6 0.000000 0.000000 0.000000 0.000000 0.000000 0.039396
#
#
# Mechanical properties :
#
#
# Convention : Reuss Voigt Hill
#
# Bulk Modulus (GPa) = 71.69210 74.89601 73.29406
# Shear Modulus (GPa) = 22.37370 23.79316 23.08343
#
# Velocity S-wave (km/s) = 3.41246 3.51904 3.46616
# Velocity P-wave (km/s) = 7.26912 7.44934 7.35978
#
# Compressibility (1/GPa) = 0.01394854
#
# Stress axis : x y z
#
# Youngs Moduli (GPa) = 92.40929 70.88923 64.67244
#
# Poissons Ratio (x) = 0.32382 0.25313
# Poissons Ratio (y) = 0.42212 0.30648
# Poissons Ratio (z) = 0.36170 0.33594
#
# Static dielectric constant tensor:
#      x y z
#    x 1.677180 0.000000 0.000000 
#    y 0.000000 1.724910 0.000000 
#    z 0.000000 0.000000 1.676750 
# 
# From -- ./inp_files/33107.got.cif
#   From: 2010.05.17/outbox.cif.g08.bks.cpg/sg52_17_cif.got.tgz:33107.got - 2010.06.03 12:15:38.
