data_PCOD9413922
_publ_section_title
;
Structure prediction by ZEFSAII (Michael W. Deem and Ramdas Pophale) SiO2 
 PCOD9413922
Probable space group: P N N A
;
_chemical_formula_sum "Si O2"
_cell_formula_units_Z 28
_cell_length_a 13.486652
_cell_length_b 15.477056
_cell_length_c 4.672275
_cell_angle_alpha 90.000000
_cell_angle_beta 90.000000
_cell_angle_gamma 90.000000
_cell_volume 975.261100
_symmetry_space_group_name_H-M "P N N A"
_symmetry_group_IT_number 52
_symmetry_cell_setting 'orthorhombic'
loop_
_space_group_symop_operation_xyz
x,y,z
1/2-x,-y,z
x,1/2-y,1/2-z
1/2-x,1/2+y,1/2-z
-x,-y,-z
1/2+x,y,-z
-x,1/2+y,1/2+z
1/2+x,1/2-y,1/2+z
loop_
_atom_site_type_symbol
_atom_site_label
_atom_site_fract_x
_atom_site_fract_y
_atom_site_fract_z
Si Si1 0.161579 0.131804 0.166110
Si Si2 0.343743 0.327101 0.982367
Si Si3 0.035280 0.250000 0.750000
Si Si4 0.396408 0.516106 0.837153
O O1 0.273221 0.162456 0.237717
O O2 0.101689 0.295278 0.507421
O O3 0.374333 0.952093 0.984567
O O4 0.139573 0.099369 0.485503
O O5 0.324366 0.250000 0.750000
O O6 0.343230 0.423345 0.850423
O O7 0.455372 0.311818 0.095220
O O8 0.500000 0.500000 0.000000
#
# Coordination Sequence:
#
# PCOD9413922 Si02
#       4
#     8   8   4   8
#     4  12  31  58  93 136 188 254 327 399 493 591
#     4  12  31  58  97 141 196 253 333 405 502 592
#     4  12  30  60  96 138 198 256 322 416 484 600
#     4  12  27  59  92 131 193 254 321 401 493 587
#
# _framework density 28.710260999999999
#
# number of rings (size 3 to 8) (size 9 to 14) (size 15 to 20)
#    0.000    0.000    2.857    3.429    8.000    4.571 
#    5.143    0.000    0.000    0.000    0.000    0.000 
#    0.000    0.000    0.000    0.000    0.000    0.000 
#
# Total GULP energy -156517.149819 kJ/mol
# GULP energy per Si atom -5589.898208 kJ/mol
# Density = 2.864491 g / cm^3
# Si number density = 28.710261 Si / 1000 Ang^3
#
#
#
# Elastic Constant Matrix: (Units=GPa)
#
#
# Indices 1 2 3 4 5 6 
#
# 1 216.9105 60.8842 80.0890 0.0000 0.0000 0.0000
# 2 60.8842 190.4125 55.2174 0.0000 0.0000 0.0000
# 3 80.0890 55.2174 189.0617 0.0000 0.0000 0.0000
# 4 0.0000 0.0000 0.0000 84.9756 0.0000 0.0000
# 5 0.0000 0.0000 0.0000 0.0000 56.6581 0.0000
# 6 0.0000 0.0000 0.0000 0.0000 0.0000 18.6993
#
#
#
# Elastic Compliance Matrix: (Units=1/GPa)
#
#
# Indices 1 2 3 4 5 6 
#
# 1 0.005717 -0.001230 -0.002063 0.000000 0.000000 0.000000
# 2 -0.001230 0.006002 -0.001232 0.000000 0.000000 0.000000
# 3 -0.002063 -0.001232 0.006523 0.000000 0.000000 0.000000
# 4 0.000000 0.000000 0.000000 0.011768 0.000000 0.000000
# 5 0.000000 0.000000 0.000000 0.000000 0.017650 0.000000
# 6 0.000000 0.000000 0.000000 0.000000 0.000000 0.053478
#
#
# Mechanical properties :
#
#
# Convention : Reuss Voigt Hill
#
# Bulk Modulus (GPa) = 108.77712 109.86286 109.31999
# Shear Modulus (GPa) = 44.14964 58.74621 51.44792
#
# Velocity S-wave (km/s) = 3.92569 4.52837 4.23776
# Velocity P-wave (km/s) = 7.64972 8.10498 7.88064
#
# Compressibility (1/GPa) = 0.00919311
#
# Stress axis : x y z
#
# Youngs Moduli (GPa) = 174.91794 166.60331 153.30730
#
# Poissons Ratio (x) = 0.20490 0.31621
# Poissons Ratio (y) = 0.21513 0.18888
# Poissons Ratio (z) = 0.36078 0.20526
#
# Static dielectric constant tensor:
#      x y z
#    x 2.305470 0.000000 0.000000 
#    y 0.000000 2.279110 0.000000 
#    z 0.000000 0.000000 2.147330 
# 
# From -- ./inp_files/9770.got.cif
#   From: 2010.05.17/outbox.cif.g08.bks.cpg/sg52_5_cif.got.tgz:9770.got - 2010.06.03 12:15:38.
