data_PCOD9413042
_publ_section_title
;
Structure prediction by ZEFSAII (Michael W. Deem and Ramdas Pophale) SiO2 
 PCOD9413042
Probable space group: P N N A
;
_chemical_formula_sum "Si O2"
_cell_formula_units_Z 36
_cell_length_a 17.651730
_cell_length_b 14.976483
_cell_length_c 7.478831
_cell_angle_alpha 90.000000
_cell_angle_beta 90.000000
_cell_angle_gamma 90.000000
_cell_volume 1977.110002
_symmetry_space_group_name_H-M "P N N A"
_symmetry_group_IT_number 52
_symmetry_cell_setting 'orthorhombic'
loop_
_space_group_symop_operation_xyz
x,y,z
1/2-x,-y,z
x,1/2-y,1/2-z
1/2-x,1/2+y,1/2-z
-x,-y,-z
1/2+x,y,-z
-x,1/2+y,1/2+z
1/2+x,1/2-y,1/2+z
loop_
_atom_site_type_symbol
_atom_site_label
_atom_site_fract_x
_atom_site_fract_y
_atom_site_fract_z
Si Si1 0.333852 0.809003 0.402929
Si Si2 0.304422 0.086083 0.242847
Si Si3 0.318636 0.071257 0.836035
Si Si4 0.737472 0.250000 0.250000
Si Si5 0.410559 0.504406 0.979654
O O1 0.373699 0.750000 0.250000
O O2 0.253836 0.840407 0.315771
O O3 0.314129 0.749284 0.574068
O O4 0.378171 0.897234 0.469006
O O5 0.250000 0.000000 0.236464
O O6 0.370006 0.063523 0.382461
O O7 0.335236 0.096642 0.041770
O O8 0.287857 0.161257 0.744880
O O9 0.250000 0.000000 0.833761
O O10 0.383719 0.025983 0.717603
O O11 0.500000 0.500000 0.000000
#
# Coordination Sequence:
#
# PCOD9413042 Si02
#       5
#     8   8   8   4   8
#     4  11  21  38  63  93 116 157 218 268 302 357
#     4   9  19  35  60  86 110 150 208 254 296 347
#     4  11  20  37  63  90 116 158 210 261 304 351
#     4  12  20  34  68  90 114 150 214 274 302 344
#     4  11  23  40  58  86 135 168 193 244 322 389
#
# _framework density 18.208394999999999
#
# number of rings (size 3 to 8) (size 9 to 14) (size 15 to 20)
#    0.000    1.333    6.667    0.667    0.000    0.889 
#    2.000    0.000    2.444    0.000    0.000    0.000 
#    0.000    0.000    0.000    0.000    0.000    0.000 
#
# Total GULP energy -200788.284958 kJ/mol
# GULP energy per Si atom -5577.452360 kJ/mol
# Density = 1.816695 g / cm^3
# Si number density = 18.208395 Si / 1000 Ang^3
#
#
#
# Elastic Constant Matrix: (Units=GPa)
#
#
# Indices 1 2 3 4 5 6 
#
# 1 101.2802 16.7945 39.3352 0.0000 0.0000 0.0000
# 2 16.7945 84.4147 12.1284 0.0000 0.0000 0.0000
# 3 39.3352 12.1284 131.5701 0.0000 0.0000 0.0000
# 4 0.0000 0.0000 0.0000 32.1072 0.0000 0.0000
# 5 0.0000 0.0000 0.0000 0.0000 2.1740 0.0000
# 6 0.0000 0.0000 0.0000 0.0000 0.0000 9.2038
#
#
#
# Elastic Compliance Matrix: (Units=1/GPa)
#
#
# Indices 1 2 3 4 5 6 
#
# 1 0.011437 -0.001808 -0.003253 0.000000 0.000000 0.000000
# 2 -0.001808 0.012291 -0.000592 0.000000 0.000000 0.000000
# 3 -0.003253 -0.000592 0.008628 0.000000 0.000000 0.000000
# 4 0.000000 0.000000 0.000000 0.031146 0.000000 0.000000
# 5 0.000000 0.000000 0.000000 0.000000 0.459972 0.000000
# 6 0.000000 0.000000 0.000000 0.000000 0.000000 0.108651
#
#
# Mechanical properties :
#
#
# Convention : Reuss Voigt Hill
#
# Bulk Modulus (GPa) = 47.50773 50.42015 48.96394
# Shear Modulus (GPa) = 7.68703 25.29747 16.49225
#
# Velocity S-wave (km/s) = 2.05691 3.73142 3.01283
# Velocity P-wave (km/s) = 5.63816 6.80554 6.24917
#
# Compressibility (1/GPa) = 0.02104921
#
# Stress axis : x y z
#
# Youngs Moduli (GPa) = 87.43849 81.35960 115.90815
#
# Poissons Ratio (x) = 0.14710 0.37699
# Poissons Ratio (y) = 0.15809 0.06867
# Poissons Ratio (z) = 0.28439 0.04820
#
# Static dielectric constant tensor:
#      x y z
#    x 1.573050 0.000000 0.000000 
#    y 0.000000 -2.093360 0.000000 
#    z 0.000000 0.000000 1.691260 
# 
# From -- ./inp_files/9961.got.cif
#   From: 2010.05.17/outbox.cif.g08.bks.cpg/sg52_5_cif.got.tgz:9961.got - 2010.06.03 12:15:38.
