data_PCOD9413324
_publ_section_title
;
Structure prediction by ZEFSAII (Michael W. Deem and Ramdas Pophale) SiO2 
 PCOD9413324
Probable space group: P N N A
;
_chemical_formula_sum "Si O2"
_cell_formula_units_Z 40
_cell_length_a 9.625258
_cell_length_b 26.052612
_cell_length_c 7.393889
_cell_angle_alpha 90.000000
_cell_angle_beta 90.000000
_cell_angle_gamma 90.000000
_cell_volume 1854.114616
_symmetry_space_group_name_H-M "P N N A"
_symmetry_group_IT_number 52
_symmetry_cell_setting 'orthorhombic'
loop_
_space_group_symop_operation_xyz
x,y,z
1/2-x,-y,z
x,1/2-y,1/2-z
1/2-x,1/2+y,1/2-z
-x,-y,-z
1/2+x,y,-z
-x,1/2+y,1/2+z
1/2+x,1/2-y,1/2+z
loop_
_atom_site_type_symbol
_atom_site_label
_atom_site_fract_x
_atom_site_fract_y
_atom_site_fract_z
Si Si1 0.315988 0.620277 0.548857
Si Si2 0.116721 0.536176 0.917086
Si Si3 0.372140 0.690654 0.204397
Si Si4 0.334041 0.353899 0.924044
Si Si5 0.561890 0.943834 0.020354
O O1 0.332485 0.660837 0.389004
O O2 0.249156 0.641691 0.732733
O O3 0.465906 0.595911 0.584326
O O4 0.219956 0.572162 0.483118
O O5 0.250000 0.500000 0.878685
O O6 0.162638 0.588664 0.013856
O O7 0.052834 0.560919 0.736511
O O8 0.000000 0.500000 0.000000
O O9 0.393190 0.750000 0.250000
O O10 0.513198 0.667277 0.119478
O O11 0.249819 0.682101 0.060092
O O12 0.500000 0.000000 0.000000
#
# Coordination Sequence:
#
# PCOD9413324 Si02
#       5
#     8   8   8   8   8
#     4  11  24  47  68 104 149 184 243 300 353 432
#     4  11  23  40  68 105 144 187 235 287 361 435
#     4  12  29  48  77 105 136 197 243 304 368 414
#     4  11  27  50  72 110 146 183 248 296 360 441
#     4  11  23  40  67 101 142 195 231 284 360 428
#
# _framework density 21.573640000000001
#
# number of rings (size 3 to 8) (size 9 to 14) (size 15 to 20)
#    0.000    0.800    4.000    4.200    8.400    0.000 
#    0.000    0.000    0.000    0.000    0.000    0.000 
#    0.000    0.000    0.000    0.000    0.000    0.000 
#
# Total GULP energy -223408.133255 kJ/mol
# GULP energy per Si atom -5585.203331 kJ/mol
# Density = 2.152454 g / cm^3
# Si number density = 21.573640 Si / 1000 Ang^3
#
#
#
# Elastic Constant Matrix: (Units=GPa)
#
#
# Indices 1 2 3 4 5 6 
#
# 1 94.6564 31.4763 24.3554 0.0000 0.0000 0.0000
# 2 31.4763 138.1615 24.3673 0.0000 0.0000 0.0000
# 3 24.3554 24.3673 66.8804 0.0000 0.0000 0.0000
# 4 0.0000 0.0000 0.0000 33.4835 0.0000 0.0000
# 5 0.0000 0.0000 0.0000 0.0000 32.8590 0.0000
# 6 0.0000 0.0000 0.0000 0.0000 0.0000 32.8841
#
#
#
# Elastic Compliance Matrix: (Units=1/GPa)
#
#
# Indices 1 2 3 4 5 6 
#
# 1 0.012220 -0.002136 -0.003672 0.000000 0.000000 0.000000
# 2 -0.002136 0.008108 -0.002176 0.000000 0.000000 0.000000
# 3 -0.003672 -0.002176 0.017082 0.000000 0.000000 0.000000
# 4 0.000000 0.000000 0.000000 0.029865 0.000000 0.000000
# 5 0.000000 0.000000 0.000000 0.000000 0.030433 0.000000
# 6 0.000000 0.000000 0.000000 0.000000 0.000000 0.030410
#
#
# Mechanical properties :
#
#
# Convention : Reuss Voigt Hill
#
# Bulk Modulus (GPa) = 46.63811 51.12183 48.87997
# Shear Modulus (GPa) = 33.06134 34.47862 33.76998
#
# Velocity S-wave (km/s) = 3.91895 4.00206 3.96072
# Velocity P-wave (km/s) = 6.49173 6.71589 6.60476
#
# Compressibility (1/GPa) = 0.02144169
#
# Stress axis : x y z
#
# Youngs Moduli (GPa) = 81.83537 123.32824 58.54111
#
# Poissons Ratio (x) = 0.26347 0.21494
# Poissons Ratio (y) = 0.17483 0.12740
# Poissons Ratio (z) = 0.30047 0.26839
#
# Static dielectric constant tensor:
#      x y z
#    x 1.805600 0.000000 0.000000 
#    y 0.000000 1.785430 0.000000 
#    z 0.000000 0.000000 1.883450 
# 
# From -- ./inp_files/7395.got.cif
#   From: 2010.05.17/outbox.cif.g08.bks.cpg/sg52_4_cif.got.tgz:7395.got - 2010.06.03 12:15:38.
