data_PCOD9413325
_publ_section_title
;
Structure prediction by ZEFSAII (Michael W. Deem and Ramdas Pophale) SiO2 
 PCOD9413325
Probable space group: P N N A
;
_chemical_formula_sum "Si O2"
_cell_formula_units_Z 40
_cell_length_a 26.544253
_cell_length_b 6.390984
_cell_length_c 10.344927
_cell_angle_alpha 90.000000
_cell_angle_beta 90.000000
_cell_angle_gamma 90.000000
_cell_volume 1754.953722
_symmetry_space_group_name_H-M "P N N A"
_symmetry_group_IT_number 52
_symmetry_cell_setting 'orthorhombic'
loop_
_space_group_symop_operation_xyz
x,y,z
1/2-x,-y,z
x,1/2-y,1/2-z
1/2-x,1/2+y,1/2-z
-x,-y,-z
1/2+x,y,-z
-x,1/2+y,1/2+z
1/2+x,1/2-y,1/2+z
loop_
_atom_site_type_symbol
_atom_site_label
_atom_site_fract_x
_atom_site_fract_y
_atom_site_fract_z
Si Si1 0.882928 0.750000 0.750000
Si Si2 0.041153 0.750000 0.750000
Si Si3 0.964090 0.680155 0.942849
Si Si4 0.389094 0.886893 0.639838
Si Si5 0.805488 0.073007 0.851906
Si Si6 0.702414 0.655464 0.104072
O O1 0.921736 0.614026 0.837180
O O2 0.846512 0.610065 0.661314
O O3 0.075907 0.563538 0.796731
O O4 0.003544 0.821340 0.865228
O O5 0.927467 0.752982 0.056718
O O6 0.000000 0.500000 0.000000
O O7 0.363702 0.750000 0.750000
O O8 0.345659 0.012334 0.569187
O O9 0.821612 0.250000 0.750000
O O10 0.750000 0.000000 0.808247
O O11 0.798214 0.164400 0.995792
O O12 0.750000 0.500000 0.096444
O O13 0.698510 0.750000 0.250000
#
# Coordination Sequence:
#
# PCOD9413325 Si02
#       6
#     4   4   8   8   8   8
#     4  11  24  44  78 106 144 196 236 311 378 432
#     4   9  20  44  62  96 132 180 232 297 354 434
#     4   9  21  42  69 101 140 180 243 297 364 434
#     4  11  23  40  67  96 136 184 235 296 361 433
#     4  12  26  46  73 107 147 190 250 311 377 459
#     4  12  27  46  70 105 148 196 254 305 376 451
#
# _framework density 22.792624
#
# number of rings (size 3 to 8) (size 9 to 14) (size 15 to 20)
#    0.000    1.200    2.000    3.000    5.600    0.800 
#    0.000   25.000    0.000    0.000    0.000    0.000 
#    0.000    0.000    0.000    0.000    0.000    0.000 
#
# Total GULP energy -223185.964435 kJ/mol
# GULP energy per Si atom -5579.649111 kJ/mol
# Density = 2.274075 g / cm^3
# Si number density = 22.792624 Si / 1000 Ang^3
#
#
#
# Elastic Constant Matrix: (Units=GPa)
#
#
# Indices 1 2 3 4 5 6 
#
# 1 156.2969 45.0706 30.2398 0.0000 0.0000 0.0000
# 2 45.0706 52.6820 31.8748 0.0000 0.0000 0.0000
# 3 30.2398 31.8748 91.5044 0.0000 0.0000 0.0000
# 4 0.0000 0.0000 0.0000 33.6895 0.0000 0.0000
# 5 0.0000 0.0000 0.0000 0.0000 42.2606 0.0000
# 6 0.0000 0.0000 0.0000 0.0000 0.0000 27.5088
#
#
#
# Elastic Compliance Matrix: (Units=1/GPa)
#
#
# Indices 1 2 3 4 5 6 
#
# 1 0.008502 -0.007062 -0.000350 0.000000 0.000000 0.000000
# 2 -0.007062 0.029917 -0.008087 0.000000 0.000000 0.000000
# 3 -0.000350 -0.008087 0.013861 0.000000 0.000000 0.000000
# 4 0.000000 0.000000 0.000000 0.029683 0.000000 0.000000
# 5 0.000000 0.000000 0.000000 0.000000 0.023663 0.000000
# 6 0.000000 0.000000 0.000000 0.000000 0.000000 0.036352
#
#
# Mechanical properties :
#
#
# Convention : Reuss Voigt Hill
#
# Bulk Modulus (GPa) = 46.98891 57.20597 52.09744
# Shear Modulus (GPa) = 27.76686 33.57830 30.67258
#
# Velocity S-wave (km/s) = 3.49411 3.84240 3.67239
# Velocity P-wave (km/s) = 6.07775 6.69615 6.39443
#
# Compressibility (1/GPa) = 0.02128162
#
# Stress axis : x y z
#
# Youngs Moduli (GPa) = 117.61588 33.42582 72.14383
#
# Poissons Ratio (x) = 0.23606 0.02523
# Poissons Ratio (y) = 0.83064 0.58346
# Poissons Ratio (z) = 0.04113 0.27033
#
# Static dielectric constant tensor:
#      x y z
#    x 1.785080 0.000000 0.000000 
#    y 0.000000 1.866640 0.000000 
#    z 0.000000 0.000000 1.953810 
# 
# From -- ./inp_files/22681.got.cif
#   From: 2010.05.17/outbox.cif.g08.bks.cpg/sg52_12_cif.got.tgz:22681.got - 2010.06.03 12:15:38.
