data_PCOD9413548
_publ_section_title
;
Structure prediction by ZEFSAII (Michael W. Deem and Ramdas Pophale) SiO2 
 PCOD9413548
Probable space group: P N N A
;
_chemical_formula_sum "Si O2"
_cell_formula_units_Z 36
_cell_length_a 12.766335
_cell_length_b 5.588003
_cell_length_c 22.588236
_cell_angle_alpha 90.000000
_cell_angle_beta 90.000000
_cell_angle_gamma 90.000000
_cell_volume 1611.406769
_symmetry_space_group_name_H-M "P N N A"
_symmetry_group_IT_number 52
_symmetry_cell_setting 'orthorhombic'
loop_
_space_group_symop_operation_xyz
x,y,z
1/2-x,-y,z
x,1/2-y,1/2-z
1/2-x,1/2+y,1/2-z
-x,-y,-z
1/2+x,y,-z
-x,1/2+y,1/2+z
1/2+x,1/2-y,1/2+z
loop_
_atom_site_type_symbol
_atom_site_label
_atom_site_fract_x
_atom_site_fract_y
_atom_site_fract_z
Si Si1 0.250000 0.500000 0.712993
Si Si2 0.431790 0.250000 0.250000
Si Si3 0.450318 0.588091 0.638370
Si Si4 0.187021 0.258938 0.964606
Si Si5 0.250000 0.500000 0.199790
Si Si6 0.155217 0.182699 0.096277
O O1 0.261787 0.750000 0.750000
O O2 0.351989 0.465803 0.671482
O O3 0.498041 0.256710 0.309273
O O4 0.347453 0.458531 0.243252
O O5 0.404831 0.731752 0.583114
O O6 0.543374 0.423863 0.614072
O O7 0.250000 0.500000 0.948571
O O8 0.250000 0.000000 0.961472
O O9 0.146479 0.302964 0.031657
O O10 0.200078 0.321573 0.152177
O O11 0.250000 0.000000 0.085593
#
# Coordination Sequence:
#
# PCOD9413548 Si02
#       6
#     4   4   8   8   4   8
#     4  12  30  50  71 109 152 204 258 302 370 462
#     4  12  26  42  74 110 152 200 250 308 388 452
#     4  12  26  47  76 107 154 203 254 314 384 465
#     4  11  26  49  77 113 152 198 258 318 382 453
#     4  12  24  48  71 111 154 190 258 320 392 452
#     4  11  24  48  73 111 144 197 255 325 386 449
#
# _framework density 22.340727999999999
#
# number of rings (size 3 to 8) (size 9 to 14) (size 15 to 20)
#    0.000    0.444    5.556    2.000    4.667    1.778 
#    0.000    4.444    0.000    0.000    0.000    0.000 
#    0.000    0.000    0.000    0.000    0.000    0.000 
#
# Total GULP energy -200753.176767 kJ/mol
# GULP energy per Si atom -5576.477132 kJ/mol
# Density = 2.228988 g / cm^3
# Si number density = 22.340728 Si / 1000 Ang^3
#
#
#
# Elastic Constant Matrix: (Units=GPa)
#
#
# Indices 1 2 3 4 5 6 
#
# 1 156.3371 37.5078 54.4067 0.0000 0.0000 0.0000
# 2 37.5078 83.9508 39.7308 0.0000 0.0000 0.0000
# 3 54.4067 39.7308 127.9662 0.0000 0.0000 0.0000
# 4 0.0000 0.0000 0.0000 25.2221 0.0000 0.0000
# 5 0.0000 0.0000 0.0000 0.0000 57.2239 0.0000
# 6 0.0000 0.0000 0.0000 0.0000 0.0000 28.6813
#
#
#
# Elastic Compliance Matrix: (Units=1/GPa)
#
#
# Indices 1 2 3 4 5 6 
#
# 1 0.007857 -0.002262 -0.002638 0.000000 0.000000 0.000000
# 2 -0.002262 0.014615 -0.003576 0.000000 0.000000 0.000000
# 3 -0.002638 -0.003576 0.010047 0.000000 0.000000 0.000000
# 4 0.000000 0.000000 0.000000 0.039648 0.000000 0.000000
# 5 0.000000 0.000000 0.000000 0.000000 0.017475 0.000000
# 6 0.000000 0.000000 0.000000 0.000000 0.000000 0.034866
#
#
# Mechanical properties :
#
#
# Convention : Reuss Voigt Hill
#
# Bulk Modulus (GPa) = 64.24162 70.17164 67.20663
# Shear Modulus (GPa) = 34.09520 37.99939 36.04729
#
# Velocity S-wave (km/s) = 3.91083 4.12867 4.02123
# Velocity P-wave (km/s) = 7.01503 7.36246 7.19084
#
# Compressibility (1/GPa) = 0.01556623
#
# Stress axis : x y z
#
# Youngs Moduli (GPa) = 127.27065 68.42467 99.53674
#
# Poissons Ratio (x) = 0.15477 0.26262
# Poissons Ratio (y) = 0.28787 0.35593
# Poissons Ratio (z) = 0.33579 0.24468
#
# Static dielectric constant tensor:
#      x y z
#    x 1.805850 0.000000 0.000000 
#    y 0.000000 1.943050 0.000000 
#    z 0.000000 0.000000 2.440230 
# 
# From -- ./inp_files/39963.got.cif
#   From: 2010.05.17/outbox.cif.g08.bks.cpg/sg52_20_cif.got.tgz:39963.got - 2010.06.03 12:15:38.
