data_PCOD9413832
_publ_section_title
;
Structure prediction by ZEFSAII (Michael W. Deem and Ramdas Pophale) SiO2 
 PCOD9413832
Probable space group: P N N A
;
_chemical_formula_sum "Si O2"
_cell_formula_units_Z 40
_cell_length_a 18.378606
_cell_length_b 16.443279
_cell_length_c 4.563280
_cell_angle_alpha 90.000000
_cell_angle_beta 90.000000
_cell_angle_gamma 90.000000
_cell_volume 1379.043961
_symmetry_space_group_name_H-M "P N N A"
_symmetry_group_IT_number 52
_symmetry_cell_setting 'orthorhombic'
loop_
_space_group_symop_operation_xyz
x,y,z
1/2-x,-y,z
x,1/2-y,1/2-z
1/2-x,1/2+y,1/2-z
-x,-y,-z
1/2+x,y,-z
-x,1/2+y,1/2+z
1/2+x,1/2-y,1/2+z
loop_
_atom_site_type_symbol
_atom_site_label
_atom_site_fract_x
_atom_site_fract_y
_atom_site_fract_z
Si Si1 0.624998 0.112265 0.314935
Si Si2 0.126815 0.613301 0.569386
Si Si3 0.250000 0.000000 0.931697
Si Si4 0.476595 0.880810 0.259215
Si Si5 0.963823 0.250000 0.750000
Si Si6 0.708465 0.750000 0.250000
Si Si7 0.312258 0.750000 0.250000
O O1 0.573177 0.064567 0.536272
O O2 0.742421 0.214472 0.989267
O O3 0.695958 0.060245 0.243108
O O4 0.575166 0.136839 0.030112
O O5 0.186862 0.555513 0.425282
O O6 0.088997 0.684896 0.391276
O O7 0.164494 0.668138 0.824409
O O8 0.050972 0.574759 0.672469
O O9 0.497788 0.803689 0.482988
O O10 0.351837 0.813460 0.466247
#
# Coordination Sequence:
#
# PCOD9413832 Si02
#       7
#     8   8   4   8   4   4   4
#     4  12  30  55  88 135 189 241 310 385 472 565
#     4  12  27  54  91 132 190 244 314 382 476 556
#     4  12  32  64  84 142 194 256 296 396 484 572
#     4  12  28  54  91 133 178 243 317 390 464 554
#     4  12  25  55  92 141 179 248 326 402 457 557
#     4  12  24  48  86 134 176 246 306 374 456 560
#     4  12  27  49  86 137 177 240 308 386 447 559
#
# _framework density 29.005604000000002
#
# number of rings (size 3 to 8) (size 9 to 14) (size 15 to 20)
#    0.000    0.000    6.000    1.800    2.800    3.200 
#    3.600    0.000    0.000    0.000    0.000    0.000 
#    0.000    0.000    0.000    0.000    0.000    0.000 
#
# Total GULP energy -222909.620228 kJ/mol
# GULP energy per Si atom -5572.740506 kJ/mol
# Density = 2.893959 g / cm^3
# Si number density = 29.005604 Si / 1000 Ang^3
#
#
#
# Elastic Constant Matrix: (Units=GPa)
#
#
# Indices 1 2 3 4 5 6 
#
# 1 237.0801 69.4321 69.5883 0.0000 0.0000 0.0000
# 2 69.4321 104.9190 52.8278 0.0000 0.0000 0.0000
# 3 69.5883 52.8278 180.1542 0.0000 0.0000 0.0000
# 4 0.0000 0.0000 0.0000 46.1746 0.0000 0.0000
# 5 0.0000 0.0000 0.0000 0.0000 78.9599 0.0000
# 6 0.0000 0.0000 0.0000 0.0000 0.0000 28.3055
#
#
#
# Elastic Compliance Matrix: (Units=1/GPa)
#
#
# Indices 1 2 3 4 5 6 
#
# 1 0.005455 -0.002990 -0.001230 0.000000 0.000000 0.000000
# 2 -0.002990 0.012822 -0.002605 0.000000 0.000000 0.000000
# 3 -0.001230 -0.002605 0.006790 0.000000 0.000000 0.000000
# 4 0.000000 0.000000 0.000000 0.021657 0.000000 0.000000
# 5 0.000000 0.000000 0.000000 0.000000 0.012665 0.000000
# 6 0.000000 0.000000 0.000000 0.000000 0.000000 0.035329
#
#
# Mechanical properties :
#
#
# Convention : Reuss Voigt Hill
#
# Bulk Modulus (GPa) = 87.59838 100.64997 94.12417
# Shear Modulus (GPa) = 44.57429 52.70835 48.64132
#
# Velocity S-wave (km/s) = 3.92439 4.26746 4.09952
# Velocity P-wave (km/s) = 7.12745 7.68487 7.41140
#
# Compressibility (1/GPa) = 0.01141574
#
# Stress axis : x y z
#
# Youngs Moduli (GPa) = 183.32296 77.99327 147.28095
#
# Poissons Ratio (x) = 0.23324 0.18118
# Poissons Ratio (y) = 0.54822 0.38361
# Poissons Ratio (z) = 0.22551 0.20314
#
# Static dielectric constant tensor:
#      x y z
#    x 2.500960 0.000000 0.000000 
#    y 0.000000 2.327680 0.000000 
#    z 0.000000 0.000000 2.325000 
# 
# From -- ./inp_files/3277.got.cif
#   From: 2010.05.17/outbox.cif.g08.bks.cpg/sg52_2_cif.got.tgz:3277.got - 2010.06.03 12:15:38.
