data_PCOD9413020
_publ_section_title
;
Structure prediction by ZEFSAII (Michael W. Deem and Ramdas Pophale) SiO2 
 PCOD9413020
Probable space group: P N N A
;
_chemical_formula_sum "Si O2"
_cell_formula_units_Z 64
_cell_length_a 12.674859
_cell_length_b 9.858971
_cell_length_c 31.585875
_cell_angle_alpha 90.000000
_cell_angle_beta 90.000000
_cell_angle_gamma 90.000000
_cell_volume 3947.004652
_symmetry_space_group_name_H-M "P N N A"
_symmetry_group_IT_number 52
_symmetry_cell_setting 'orthorhombic'
loop_
_space_group_symop_operation_xyz
x,y,z
1/2-x,-y,z
x,1/2-y,1/2-z
1/2-x,1/2+y,1/2-z
-x,-y,-z
1/2+x,y,-z
-x,1/2+y,1/2+z
1/2+x,1/2-y,1/2+z
loop_
_atom_site_type_symbol
_atom_site_label
_atom_site_fract_x
_atom_site_fract_y
_atom_site_fract_z
Si Si1 0.571863 0.516030 0.063260
Si Si2 0.365993 0.161901 0.709619
Si Si3 0.847967 0.585310 0.972659
Si Si4 0.847391 0.598831 0.516233
Si Si5 0.162444 0.741095 0.616637
Si Si6 0.890529 0.849907 0.287870
Si Si7 0.586794 0.251143 0.120358
Si Si8 0.955574 0.501689 0.430200
O O1 0.454383 0.572519 0.054797
O O2 0.640080 0.626251 0.088368
O O3 0.567246 0.379660 0.090490
O O4 0.622657 0.480966 0.018004
O O5 0.399635 0.250000 0.750000
O O6 0.384360 0.228434 0.663466
O O7 0.237836 0.153813 0.711013
O O8 0.412721 0.010667 0.714205
O O9 0.750000 0.500000 0.954893
O O10 0.820346 0.742820 0.979508
O O11 0.750000 0.500000 0.524383
O O12 0.889305 0.566636 0.468986
O O13 0.941129 0.561741 0.548456
O O14 0.287819 0.718065 0.619124
O O15 0.108869 0.614689 0.593672
O O16 0.923349 0.750000 0.250000
O O17 0.935035 0.791861 0.331581
O O18 0.524303 0.123064 0.102472
#
# Coordination Sequence:
#
# PCOD9413020 Si02
#       8
#     8   8   8   8   8   8   8   8
#     4  11  22  36  53  76 103 133 183 217 249 302
#     4   9  18  30  46  68 101 139 168 206 252 301
#     4  11  24  37  56  75 100 138 174 220 265 303
#     4  11  24  39  53  73 106 137 171 219 268 304
#     4  11  20  35  51  74 106 140 178 211 249 304
#     4   9  18  30  45  70 102 134 172 205 250 305
#     4  11  20  33  53  76 102 144 173 213 253 300
#     4  11  24  36  51  76 104 137 178 213 255 310
#
# _framework density 16.214828000000001
#
# number of rings (size 3 to 8) (size 9 to 14) (size 15 to 20)
#    0.000    1.500    3.750    2.250    5.250    0.000 
#    0.000    0.000    0.000    0.000    0.000    0.000 
#    0.000    6.000    0.000    0.000    0.000    0.000 
#
# Total GULP energy -357235.500059 kJ/mol
# GULP energy per Si atom -5581.804688 kJ/mol
# Density = 1.617792 g / cm^3
# Si number density = 16.214828 Si / 1000 Ang^3
#
#
#
# Elastic Constant Matrix: (Units=GPa)
#
#
# Indices 1 2 3 4 5 6 
#
# 1 37.6212 11.9484 4.8605 0.0000 0.0000 0.0000
# 2 11.9484 112.4954 32.6131 0.0000 0.0000 0.0000
# 3 4.8605 32.6131 91.4729 0.0000 0.0000 0.0000
# 4 0.0000 0.0000 0.0000 19.5441 0.0000 0.0000
# 5 0.0000 0.0000 0.0000 0.0000 19.7091 0.0000
# 6 0.0000 0.0000 0.0000 0.0000 0.0000 22.1716
#
#
#
# Elastic Compliance Matrix: (Units=1/GPa)
#
#
# Indices 1 2 3 4 5 6 
#
# 1 0.027527 -0.002788 -0.000469 0.000000 0.000000 0.000000
# 2 -0.002788 0.010196 -0.003487 0.000000 0.000000 0.000000
# 3 -0.000469 -0.003487 0.012200 0.000000 0.000000 0.000000
# 4 0.000000 0.000000 0.000000 0.051166 0.000000 0.000000
# 5 0.000000 0.000000 0.000000 0.000000 0.050738 0.000000
# 6 0.000000 0.000000 0.000000 0.000000 0.000000 0.045103
#
#
# Mechanical properties :
#
#
# Convention : Reuss Voigt Hill
#
# Bulk Modulus (GPa) = 27.44536 37.82593 32.63564
# Shear Modulus (GPa) = 22.46553 25.09613 23.78083
#
# Velocity S-wave (km/s) = 3.72626 3.93838 3.83379
# Velocity P-wave (km/s) = 5.95619 6.63776 6.30619
#
# Compressibility (1/GPa) = 0.03643603
#
# Stress axis : x y z
#
# Youngs Moduli (GPa) = 36.32838 98.07472 81.96452
#
# Poissons Ratio (x) = 0.27341 0.03842
# Poissons Ratio (y) = 0.10128 0.28583
# Poissons Ratio (z) = 0.01703 0.34200
#
# Static dielectric constant tensor:
#      x y z
#    x 1.530460 0.000000 0.000000 
#    y 0.000000 1.558320 0.000000 
#    z 0.000000 0.000000 1.543310 
# 
# From -- ./inp_files/44837.got.cif
#   From: 2010.05.17/outbox.cif.g08.bks.cpg/sg52_23_cif.got.tgz:44837.got - 2010.06.03 12:15:38.
