data_PCOD9413883
_publ_section_title
;
Structure prediction by ZEFSAII (Michael W. Deem and Ramdas Pophale) SiO2 
 PCOD9413883
Probable space group: P N N A
;
_chemical_formula_sum "Si O2"
_cell_formula_units_Z 20
_cell_length_a 5.089612
_cell_length_b 5.512938
_cell_length_c 32.017148
_cell_angle_alpha 90.000000
_cell_angle_beta 90.000000
_cell_angle_gamma 90.000000
_cell_volume 898.360044
_symmetry_space_group_name_H-M "P N N A"
_symmetry_group_IT_number 52
_symmetry_cell_setting 'orthorhombic'
loop_
_space_group_symop_operation_xyz
x,y,z
1/2-x,-y,z
x,1/2-y,1/2-z
1/2-x,1/2+y,1/2-z
-x,-y,-z
1/2+x,y,-z
-x,1/2+y,1/2+z
1/2+x,1/2-y,1/2+z
loop_
_atom_site_type_symbol
_atom_site_label
_atom_site_fract_x
_atom_site_fract_y
_atom_site_fract_z
Si Si1 0.504263 0.139574 0.292236
Si Si2 0.750000 0.500000 0.416989
Si Si3 0.750000 0.500000 0.030092
Si Si4 0.250000 0.500000 0.358860
O O1 0.625681 0.250000 0.250000
O O2 0.372350 0.302978 0.327491
O O3 0.250000 0.000000 0.275217
O O4 0.750000 0.000000 0.312102
O O5 0.722639 0.250665 0.443500
O O6 0.495389 0.555869 0.388553
O O7 0.500000 0.500000 0.000000
#
# Coordination Sequence:
#
# PCOD9413883 Si02
#       4
#     8   4   4   4
#     4  12  26  45  70 100 147 204 262 312 374 446
#     4  12  28  47  80 115 152 192 246 315 388 447
#     4  12  26  52  80 112 148 194 242 300 380 486
#     4  12  28  47  68 113 150 196 248 321 376 439
#
# _framework density 22.262788
#
# number of rings (size 3 to 8) (size 9 to 14) (size 15 to 20)
#    0.000    0.000    2.000    7.200   11.200    0.000 
#    0.000    0.000    0.000    0.000    0.000    0.000 
#    0.000    0.000    0.000    0.000    0.000    0.000 
#
# Total GULP energy -111701.441404 kJ/mol
# GULP energy per Si atom -5585.072070 kJ/mol
# Density = 2.221212 g / cm^3
# Si number density = 22.262788 Si / 1000 Ang^3
#
#
#
# Elastic Constant Matrix: (Units=GPa)
#
#
# Indices 1 2 3 4 5 6 
#
# 1 207.1162 60.5270 71.5481 0.0000 0.0000 0.0000
# 2 60.5270 143.3143 78.8452 0.0000 0.0000 0.0000
# 3 71.5481 78.8452 147.9190 0.0000 0.0000 0.0000
# 4 0.0000 0.0000 0.0000 0.2788 0.0000 0.0000
# 5 0.0000 0.0000 0.0000 0.0000 74.2428 0.0000
# 6 0.0000 0.0000 0.0000 0.0000 0.0000 54.7598
#
#
#
# Elastic Compliance Matrix: (Units=1/GPa)
#
#
# Indices 1 2 3 4 5 6 
#
# 1 0.005968 -0.001319 -0.002184 0.000000 0.000000 0.000000
# 2 -0.001319 0.010165 -0.004780 0.000000 0.000000 0.000000
# 3 -0.002184 -0.004780 0.010364 0.000000 0.000000 0.000000
# 4 0.000000 0.000000 0.000000 3.586648 0.000000 0.000000
# 5 0.000000 0.000000 0.000000 0.000000 0.013469 0.000000
# 6 0.000000 0.000000 0.000000 0.000000 0.000000 0.018262
#
#
# Mechanical properties :
#
#
# Convention : Reuss Voigt Hill
#
# Bulk Modulus (GPa) = 100.68771 102.24334 101.46553
# Shear Modulus (GPa) = 1.36435 45.01824 23.19130
#
# Velocity S-wave (km/s) = 0.78369 4.50169 3.23105
# Velocity P-wave (km/s) = 6.79294 8.54667 7.71977
#
# Compressibility (1/GPa) = 0.00993170
#
# Stress axis : x y z
#
# Youngs Moduli (GPa) = 167.55923 98.38151 96.48382
#
# Poissons Ratio (x) = 0.12979 0.21068
# Poissons Ratio (y) = 0.22105 0.46118
# Poissons Ratio (z) = 0.36587 0.47025
#
# Static dielectric constant tensor:
#      x y z
#    x 1.776800 0.000000 0.000000 
#    y 0.000000 2.010540 0.000000 
#    z 0.000000 0.000000 1.838610 
# 
# From -- ./inp_files/43401.got.cif
#   From: 2010.05.17/outbox.cif.g08.bks.cpg/sg52_22_cif.got.tgz:43401.got - 2010.06.03 12:15:38.
