data_PCOD9413056
_publ_section_title
;
Structure prediction by ZEFSAII (Michael W. Deem and Ramdas Pophale) SiO2 
 PCOD9413056
Probable space group: P N N A
;
_chemical_formula_sum "Si O2"
_cell_formula_units_Z 56
_cell_length_a 14.421492
_cell_length_b 14.354276
_cell_length_c 12.525610
_cell_angle_alpha 90.000000
_cell_angle_beta 90.000000
_cell_angle_gamma 90.000000
_cell_volume 2592.927484
_symmetry_space_group_name_H-M "P N N A"
_symmetry_group_IT_number 52
_symmetry_cell_setting 'orthorhombic'
loop_
_space_group_symop_operation_xyz
x,y,z
1/2-x,-y,z
x,1/2-y,1/2-z
1/2-x,1/2+y,1/2-z
-x,-y,-z
1/2+x,y,-z
-x,1/2+y,1/2+z
1/2+x,1/2-y,1/2+z
loop_
_atom_site_type_symbol
_atom_site_label
_atom_site_fract_x
_atom_site_fract_y
_atom_site_fract_z
Si Si1 0.370866 0.088522 0.571145
Si Si2 0.644468 0.384864 0.790720
Si Si3 0.558860 0.594038 0.520377
Si Si4 0.850332 0.098327 0.759758
Si Si5 0.836532 0.626293 0.030476
Si Si6 0.986628 0.297498 0.899954
Si Si7 0.943276 0.147411 0.213732
O O1 0.271264 0.137763 0.557314
O O2 0.444280 0.145218 0.500721
O O3 0.404766 0.082693 0.692626
O O4 0.358042 0.983559 0.532801
O O5 0.746546 0.362681 0.747633
O O6 0.642985 0.497704 0.797044
O O7 0.555618 0.357474 0.720675
O O8 0.641410 0.342565 0.909514
O O9 0.500000 0.500000 0.500000
O O10 0.629638 0.576448 0.616593
O O11 0.513146 0.689031 0.567376
O O12 0.592606 0.622026 0.402695
O O13 0.922461 0.164853 0.696970
O O14 0.907112 0.673159 0.112067
O O15 0.915047 0.250000 0.250000
#
# Coordination Sequence:
#
# PCOD9413056 Si02
#       7
#     8   8   8   8   8   8   8
#     4  11  21  39  69 103 132 169 219 282 348 401
#     4  11  20  39  70 106 132 170 232 286 345 410
#     4  12  27  46  64  94 143 190 233 273 347 419
#     4  11  23  42  68 102 138 173 225 292 348 410
#     4  11  21  39  71 108 135 163 231 288 343 412
#     4  12  22  42  71 100 134 181 223 291 340 401
#     4  12  24  43  68  94 134 187 228 273 339 421
#
# _framework density 21.597211999999999
#
# number of rings (size 3 to 8) (size 9 to 14) (size 15 to 20)
#    0.000    0.571    7.143    2.571    0.000    1.143 
#    2.571    5.714    0.000    0.000    0.000    0.000 
#    0.000    0.000    0.000    0.000    0.000    0.000 
#
# Total GULP energy -312759.336870 kJ/mol
# GULP energy per Si atom -5584.988158 kJ/mol
# Density = 2.154806 g / cm^3
# Si number density = 21.597212 Si / 1000 Ang^3
#
#
#
# Elastic Constant Matrix: (Units=GPa)
#
#
# Indices 1 2 3 4 5 6 
#
# 1 94.6361 -2.9261 31.5313 0.0000 0.0000 0.0000
# 2 -2.9261 74.1998 5.6258 0.0000 0.0000 0.0000
# 3 31.5313 5.6258 166.3772 0.0000 0.0000 0.0000
# 4 0.0000 0.0000 0.0000 19.6150 0.0000 0.0000
# 5 0.0000 0.0000 0.0000 0.0000 6.2098 0.0000
# 6 0.0000 0.0000 0.0000 0.0000 0.0000 0.4995
#
#
#
# Elastic Compliance Matrix: (Units=1/GPa)
#
#
# Indices 1 2 3 4 5 6 
#
# 1 0.011306 0.000610 -0.002163 0.000000 0.000000 0.000000
# 2 0.000610 0.013545 -0.000574 0.000000 0.000000 0.000000
# 3 -0.002163 -0.000574 0.006440 0.000000 0.000000 0.000000
# 4 0.000000 0.000000 0.000000 0.050981 0.000000 0.000000
# 5 0.000000 0.000000 0.000000 0.000000 0.161037 0.000000
# 6 0.000000 0.000000 0.000000 0.000000 0.000000 2.002015
#
#
# Mechanical properties :
#
#
# Convention : Reuss Voigt Hill
#
# Bulk Modulus (GPa) = 36.98660 44.85280 40.91970
# Shear Modulus (GPa) = 2.21377 25.33032 13.77205
#
# Velocity S-wave (km/s) = 1.01353 3.42841 2.52797
# Velocity P-wave (km/s) = 4.30494 6.04027 5.24487
#
# Compressibility (1/GPa) = 0.02703682
#
# Stress axis : x y z
#
# Youngs Moduli (GPa) = 88.44503 73.82979 155.28354
#
# Poissons Ratio (x) = -0.04503 0.33594
# Poissons Ratio (y) = -0.05394 0.08907
# Poissons Ratio (z) = 0.19134 0.04235
#
# Static dielectric constant tensor:
#      x y z
#    x 1.773510 0.000000 0.000000 
#    y 0.000000 1.853120 0.000000 
#    z 0.000000 0.000000 1.813300 
# 
# From -- ./inp_files/19622.got.cif
#   From: 2010.05.17/outbox.cif.g08.bks.cpg/sg52_10_cif.got.tgz:19622.got - 2010.06.03 12:15:38.
