data_PCOD9413129
_publ_section_title
;
Structure prediction by ZEFSAII (Michael W. Deem and Ramdas Pophale) SiO2 
 PCOD9413129
Probable space group: P N N A
;
_chemical_formula_sum "Si O2"
_cell_formula_units_Z 40
_cell_length_a 20.604011
_cell_length_b 4.884314
_cell_length_c 20.666098
_cell_angle_alpha 90.000000
_cell_angle_beta 90.000000
_cell_angle_gamma 90.000000
_cell_volume 2079.762932
_symmetry_space_group_name_H-M "P N N A"
_symmetry_group_IT_number 52
_symmetry_cell_setting 'orthorhombic'
loop_
_space_group_symop_operation_xyz
x,y,z
1/2-x,-y,z
x,1/2-y,1/2-z
1/2-x,1/2+y,1/2-z
-x,-y,-z
1/2+x,y,-z
-x,1/2+y,1/2+z
1/2+x,1/2-y,1/2+z
loop_
_atom_site_type_symbol
_atom_site_label
_atom_site_fract_x
_atom_site_fract_y
_atom_site_fract_z
Si Si1 0.496562 0.110399 0.399574
Si Si2 0.041457 0.124378 0.180972
Si Si3 0.605263 0.402205 0.002238
Si Si4 0.679451 0.631021 0.540057
Si Si5 0.324213 0.089187 0.185218
O O1 0.475717 0.317833 0.342546
O O2 0.495288 0.809628 0.370282
O O3 0.564615 0.169524 0.433906
O O4 0.443024 0.080395 0.456244
O O5 0.022912 0.250000 0.250000
O O6 0.120136 0.140550 0.177764
O O7 0.664349 0.615785 0.006789
O O8 0.629815 0.120419 0.971150
O O9 0.750000 0.500000 0.531161
O O10 0.676056 0.733616 0.615009
O O11 0.343688 0.250000 0.250000
O O12 0.250000 0.000000 0.195518
#
# Coordination Sequence:
#
# PCOD9413129 Si02
#       5
#     8   8   8   8   8
#     4  11  22  38  59  81 112 151 197 233 294 344
#     4  12  23  38  56  83 114 151 198 244 281 331
#     4  11  21  40  59  82 111 152 195 238 293 348
#     4  11  23  38  59  84 116 148 201 245 284 329
#     4  11  23  36  52  75 114 164 207 239 272 314
#
# _framework density 19.232963000000002
#
# number of rings (size 3 to 8) (size 9 to 14) (size 15 to 20)
#    0.000    0.800    4.000    4.200    0.000    6.400 
#    0.000    0.000    0.000    0.000    0.000    0.000 
#    0.000   44.800    0.000    0.000    0.000    0.000 
#
# Total GULP energy -223173.745757 kJ/mol
# GULP energy per Si atom -5579.343644 kJ/mol
# Density = 1.918919 g / cm^3
# Si number density = 19.232963 Si / 1000 Ang^3
#
#
#
# Elastic Constant Matrix: (Units=GPa)
#
#
# Indices 1 2 3 4 5 6 
#
# 1 66.1900 21.8889 49.3030 0.0000 0.0000 0.0000
# 2 21.8889 82.9206 13.7388 0.0000 0.0000 0.0000
# 3 49.3030 13.7388 65.6030 0.0000 0.0000 0.0000
# 4 0.0000 0.0000 0.0000 37.4214 0.0000 0.0000
# 5 0.0000 0.0000 0.0000 0.0000 31.5433 0.0000
# 6 0.0000 0.0000 0.0000 0.0000 0.0000 26.6173
#
#
#
# Elastic Compliance Matrix: (Units=1/GPa)
#
#
# Indices 1 2 3 4 5 6 
#
# 1 0.036408 -0.005260 -0.026260 0.000000 0.000000 0.000000
# 2 -0.005260 0.013253 0.001177 0.000000 0.000000 0.000000
# 3 -0.026260 0.001177 0.034732 0.000000 0.000000 0.000000
# 4 0.000000 0.000000 0.000000 0.026723 0.000000 0.000000
# 5 0.000000 0.000000 0.000000 0.000000 0.031702 0.000000
# 6 0.000000 0.000000 0.000000 0.000000 0.000000 0.037570
#
#
# Mechanical properties :
#
#
# Convention : Reuss Voigt Hill
#
# Bulk Modulus (GPa) = 42.18022 42.73059 42.45540
# Shear Modulus (GPa) = 20.08223 27.76859 23.92541
#
# Velocity S-wave (km/s) = 3.23485 3.80386 3.53084
# Velocity P-wave (km/s) = 5.99426 6.44656 6.22452
#
# Compressibility (1/GPa) = 0.02370779
#
# Stress axis : x y z
#
# Youngs Moduli (GPa) = 27.46646 75.45405 28.79167
#
# Poissons Ratio (x) = 0.39687 0.75608
# Poissons Ratio (y) = 0.14447 -0.03390
# Poissons Ratio (z) = 0.72128 -0.08884
#
# Static dielectric constant tensor:
#      x y z
#    x 1.711730 0.000000 0.000000 
#    y 0.000000 1.720220 0.000000 
#    z 0.000000 0.000000 1.680070 
# 
# From -- ./inp_files/33947.got.cif
#   From: 2010.05.17/outbox.cif.g08.bks.cpg/sg52_17_cif.got.tgz:33947.got - 2010.06.03 12:15:38.
