data_PCOD9413288
_publ_section_title
;
Structure prediction by ZEFSAII (Michael W. Deem and Ramdas Pophale) SiO2 
 PCOD9413288
Probable space group: P N N A
;
_chemical_formula_sum "Si O2"
_cell_formula_units_Z 32
_cell_length_a 8.892377
_cell_length_b 10.565467
_cell_length_c 15.500188
_cell_angle_alpha 90.000000
_cell_angle_beta 90.000000
_cell_angle_gamma 90.000000
_cell_volume 1456.275457
_symmetry_space_group_name_H-M "P N N A"
_symmetry_group_IT_number 52
_symmetry_cell_setting 'orthorhombic'
loop_
_space_group_symop_operation_xyz
x,y,z
1/2-x,-y,z
x,1/2-y,1/2-z
1/2-x,1/2+y,1/2-z
-x,-y,-z
1/2+x,y,-z
-x,1/2+y,1/2+z
1/2+x,1/2-y,1/2+z
loop_
_atom_site_type_symbol
_atom_site_label
_atom_site_fract_x
_atom_site_fract_y
_atom_site_fract_z
Si Si1 0.907605 0.056441 0.769520
Si Si2 0.556997 0.131860 0.545726
Si Si3 0.859353 0.117035 0.284104
Si Si4 0.887951 0.218604 0.604715
O O1 0.952989 0.133482 0.683243
O O2 0.871972 0.147219 0.848844
O O3 0.750000 0.000000 0.742698
O O4 0.026542 0.945750 0.785255
O O5 0.460289 0.145323 0.632290
O O6 0.731486 0.157186 0.569604
O O7 0.504362 0.229274 0.472955
O O8 0.500000 0.000000 0.500000
O O9 0.793750 0.250000 0.250000
O O10 0.750000 0.000000 0.304008
#
# Coordination Sequence:
#
# PCOD9413288 Si02
#       4
#     8   8   8   8
#     4  11  22  45  68 100 139 190 231 283 359 429
#     4  12  22  42  68 110 136 184 241 299 341 423
#     4  12  27  44  70 104 144 185 238 296 358 424
#     4  11  24  39  73 101 140 177 238 295 350 409
#
# _framework density 21.973863999999999
#
# number of rings (size 3 to 8) (size 9 to 14) (size 15 to 20)
#    0.000    0.500    5.000    3.750    3.500    0.000 
#    0.000    6.250    0.000    0.000    0.000    0.000 
#    0.000    0.000    0.000    0.000    0.000    0.000 
#
# Total GULP energy -178621.367498 kJ/mol
# GULP energy per Si atom -5581.917734 kJ/mol
# Density = 2.192385 g / cm^3
# Si number density = 21.973864 Si / 1000 Ang^3
#
#
#
# Elastic Constant Matrix: (Units=GPa)
#
#
# Indices 1 2 3 4 5 6 
#
# 1 97.3304 32.2324 34.5930 0.0000 0.0000 0.0000
# 2 32.2324 97.9193 41.2014 0.0000 0.0000 0.0000
# 3 34.5930 41.2014 94.4372 0.0000 0.0000 0.0000
# 4 0.0000 0.0000 0.0000 35.9596 0.0000 0.0000
# 5 0.0000 0.0000 0.0000 0.0000 24.6311 0.0000
# 6 0.0000 0.0000 0.0000 0.0000 0.0000 28.8684
#
#
#
# Elastic Compliance Matrix: (Units=1/GPa)
#
#
# Indices 1 2 3 4 5 6 
#
# 1 0.012348 -0.002647 -0.003368 0.000000 0.000000 0.000000
# 2 -0.002647 0.013076 -0.004735 0.000000 0.000000 0.000000
# 3 -0.003368 -0.004735 0.013889 0.000000 0.000000 0.000000
# 4 0.000000 0.000000 0.000000 0.027809 0.000000 0.000000
# 5 0.000000 0.000000 0.000000 0.000000 0.040599 0.000000
# 6 0.000000 0.000000 0.000000 0.000000 0.000000 0.034640
#
#
# Mechanical properties :
#
#
# Convention : Reuss Voigt Hill
#
# Bulk Modulus (GPa) = 56.14333 56.19339 56.16836
# Shear Modulus (GPa) = 29.44637 30.00249 29.72443
#
# Velocity S-wave (km/s) = 3.66466 3.69910 3.68192
# Velocity P-wave (km/s) = 6.59635 6.62366 6.61002
#
# Compressibility (1/GPa) = 0.01781156
#
# Stress axis : x y z
#
# Youngs Moduli (GPa) = 80.98388 76.47361 72.00075
#
# Poissons Ratio (x) = 0.20246 0.24251
# Poissons Ratio (y) = 0.21440 0.34094
# Poissons Ratio (z) = 0.27277 0.36212
#
# Static dielectric constant tensor:
#      x y z
#    x 1.845570 0.000000 0.000000 
#    y 0.000000 1.917650 0.000000 
#    z 0.000000 0.000000 1.787010 
# 
# From -- ./inp_files/24081.got.cif
#   From: 2010.05.17/outbox.cif.g08.bks.cpg/sg52_13_cif.got.tgz:24081.got - 2010.06.03 12:15:38.
