data_PCOD9413695
_publ_section_title
;
Structure prediction by ZEFSAII (Michael W. Deem and Ramdas Pophale) SiO2 
 PCOD9413695
Probable space group: P N N A
;
_chemical_formula_sum "Si O2"
_cell_formula_units_Z 40
_cell_length_a 8.866260
_cell_length_b 11.621326
_cell_length_c 15.914490
_cell_angle_alpha 90.000000
_cell_angle_beta 90.000000
_cell_angle_gamma 90.000000
_cell_volume 1639.792412
_symmetry_space_group_name_H-M "P N N A"
_symmetry_group_IT_number 52
_symmetry_cell_setting 'orthorhombic'
loop_
_space_group_symop_operation_xyz
x,y,z
1/2-x,-y,z
x,1/2-y,1/2-z
1/2-x,1/2+y,1/2-z
-x,-y,-z
1/2+x,y,-z
-x,1/2+y,1/2+z
1/2+x,1/2-y,1/2+z
loop_
_atom_site_type_symbol
_atom_site_label
_atom_site_fract_x
_atom_site_fract_y
_atom_site_fract_z
Si Si1 0.330844 0.874932 0.798579
Si Si2 0.611073 0.071607 0.442005
Si Si3 0.627958 0.600972 0.790122
Si Si4 0.931682 0.622397 0.481177
Si Si5 0.774400 0.252543 0.928495
O O1 0.289919 0.750000 0.750000
O O2 0.513025 0.886871 0.786588
O O3 0.321113 0.865237 0.900076
O O4 0.250000 0.000000 0.778520
O O5 0.502600 0.094654 0.363123
O O6 0.697226 0.157568 0.506443
O O7 0.750000 0.000000 0.406343
O O8 0.500000 0.000000 0.500000
O O9 0.750000 0.500000 0.781784
O O10 0.721811 0.701892 0.834435
O O11 0.837444 0.647306 0.564410
O O12 0.000000 0.500000 0.500000
O O13 0.065164 0.713407 0.464614
#
# Coordination Sequence:
#
# PCOD9413695 Si02
#       5
#     8   8   8   8   8
#     4  12  27  56  79 113 168 216 273 344 423 502
#     4  12  19  35  63 103 146 185 240 306 395 480
#     4  12  25  43  72 116 154 198 258 338 414 480
#     4  12  27  47  76 109 149 217 279 329 405 503
#     4  12  21  42  70 103 148 195 265 324 388 479
#
# _framework density 24.393332999999998
#
# number of rings (size 3 to 8) (size 9 to 14) (size 15 to 20)
#    0.000    0.000    8.000    2.400    0.000    1.600 
#    3.600    0.000    0.000    0.000    0.000    0.000 
#    0.000    0.000    0.000    0.000    0.000    0.000 
#
# Total GULP energy -222919.641866 kJ/mol
# GULP energy per Si atom -5572.991047 kJ/mol
# Density = 2.433781 g / cm^3
# Si number density = 24.393333 Si / 1000 Ang^3
#
#
#
# Elastic Constant Matrix: (Units=GPa)
#
#
# Indices 1 2 3 4 5 6 
#
# 1 104.2768 58.8111 24.4492 0.0000 0.0000 0.0000
# 2 58.8111 123.7613 34.9059 0.0000 0.0000 0.0000
# 3 24.4492 34.9059 95.1668 0.0000 0.0000 0.0000
# 4 0.0000 0.0000 0.0000 22.8341 0.0000 0.0000
# 5 0.0000 0.0000 0.0000 0.0000 38.2618 0.0000
# 6 0.0000 0.0000 0.0000 0.0000 0.0000 70.3954
#
#
#
# Elastic Compliance Matrix: (Units=1/GPa)
#
#
# Indices 1 2 3 4 5 6 
#
# 1 0.013227 -0.005941 -0.001219 0.000000 0.000000 0.000000
# 2 -0.005941 0.011681 -0.002758 0.000000 0.000000 0.000000
# 3 -0.001219 -0.002758 0.011833 0.000000 0.000000 0.000000
# 4 0.000000 0.000000 0.000000 0.043794 0.000000 0.000000
# 5 0.000000 0.000000 0.000000 0.000000 0.026136 0.000000
# 6 0.000000 0.000000 0.000000 0.000000 0.000000 0.014205
#
#
# Mechanical properties :
#
#
# Convention : Reuss Voigt Hill
#
# Bulk Modulus (GPa) = 59.15844 62.17081 60.66463
# Shear Modulus (GPa) = 34.16532 39.96752 37.06642
#
# Velocity S-wave (km/s) = 3.74652 4.05218 3.90235
# Velocity P-wave (km/s) = 6.55894 6.88736 6.72516
#
# Compressibility (1/GPa) = 0.01690376
#
# Stress axis : x y z
#
# Youngs Moduli (GPa) = 75.60547 85.60639 84.51205
#
# Poissons Ratio (x) = 0.50863 0.10300
# Poissons Ratio (y) = 0.44921 0.23310
# Poissons Ratio (z) = 0.09214 0.23612
#
# Static dielectric constant tensor:
#      x y z
#    x 1.925250 0.000000 0.000000 
#    y 0.000000 2.191020 0.000000 
#    z 0.000000 0.000000 1.993050 
# 
# From -- ./inp_files/30872.got.cif
#   From: 2010.05.17/outbox.cif.g08.bks.cpg/sg52_16_cif.got.tgz:30872.got - 2010.06.03 12:15:38.
