data_PCOD9413646
_publ_section_title
;
Structure prediction by ZEFSAII (Michael W. Deem and Ramdas Pophale) SiO2 
 PCOD9413646
Probable space group: P N N A
;
_chemical_formula_sum "Si O2"
_cell_formula_units_Z 40
_cell_length_a 22.487608
_cell_length_b 8.680719
_cell_length_c 8.816678
_cell_angle_alpha 90.000000
_cell_angle_beta 90.000000
_cell_angle_gamma 90.000000
_cell_volume 1721.091422
_symmetry_space_group_name_H-M "P N N A"
_symmetry_group_IT_number 52
_symmetry_cell_setting 'orthorhombic'
loop_
_space_group_symop_operation_xyz
x,y,z
1/2-x,-y,z
x,1/2-y,1/2-z
1/2-x,1/2+y,1/2-z
-x,-y,-z
1/2+x,y,-z
-x,1/2+y,1/2+z
1/2+x,1/2-y,1/2+z
loop_
_atom_site_type_symbol
_atom_site_label
_atom_site_fract_x
_atom_site_fract_y
_atom_site_fract_z
Si Si1 0.655721 0.895582 0.339855
Si Si2 0.439766 0.060168 0.081154
Si Si3 0.684896 0.433683 0.454764
Si Si4 0.941485 0.068804 0.570956
Si Si5 0.751836 0.319024 0.912177
O O1 0.627096 0.750000 0.250000
O O2 0.611330 0.972139 0.457423
O O3 0.704303 0.809597 0.443736
O O4 0.680939 0.022574 0.223550
O O5 0.437184 0.013140 0.257161
O O6 0.442162 0.245355 0.074467
O O7 0.500000 0.000000 0.000000
O O8 0.377113 0.002852 0.013470
O O9 0.750000 0.500000 0.504944
O O10 0.692529 0.264060 0.526549
O O11 0.000000 0.000000 0.500000
O O12 0.750000 0.500000 0.884780
O O13 0.771529 0.250000 0.750000
#
# Coordination Sequence:
#
# PCOD9413646 Si02
#       5
#     8   8   8   8   8
#     4  12  25  45  81 112 161 213 266 341 411 496
#     4  11  26  49  80 111 163 209 270 338 397 491
#     4  12  25  50  78 115 159 212 267 335 415 481
#     4  11  26  46  78 114 152 220 270 327 410 481
#     4  12  30  48  77 117 166 215 272 340 416 500
#
# _framework density 23.241064999999999
#
# number of rings (size 3 to 8) (size 9 to 14) (size 15 to 20)
#    0.000    0.400    4.000    2.400    8.400    1.600 
#    0.000    4.000    0.000    0.000    0.000    0.000 
#    0.000    0.000    0.000    0.000    0.000    0.000 
#
# Total GULP energy -223555.469190 kJ/mol
# GULP energy per Si atom -5588.886730 kJ/mol
# Density = 2.318817 g / cm^3
# Si number density = 23.241065 Si / 1000 Ang^3
#
#
#
# Elastic Constant Matrix: (Units=GPa)
#
#
# Indices 1 2 3 4 5 6 
#
# 1 167.9544 50.9454 81.6392 0.0000 0.0000 0.0000
# 2 50.9454 98.7171 47.1510 0.0000 0.0000 0.0000
# 3 81.6392 47.1510 201.8370 0.0000 0.0000 0.0000
# 4 0.0000 0.0000 0.0000 39.3923 0.0000 0.0000
# 5 0.0000 0.0000 0.0000 0.0000 47.1975 0.0000
# 6 0.0000 0.0000 0.0000 0.0000 0.0000 50.5755
#
#
#
# Elastic Compliance Matrix: (Units=1/GPa)
#
#
# Indices 1 2 3 4 5 6 
#
# 1 0.008107 -0.002946 -0.002591 0.000000 0.000000 0.000000
# 2 -0.002946 0.012473 -0.001722 0.000000 0.000000 0.000000
# 3 -0.002591 -0.001722 0.006405 0.000000 0.000000 0.000000
# 4 0.000000 0.000000 0.000000 0.025386 0.000000 0.000000
# 5 0.000000 0.000000 0.000000 0.000000 0.021188 0.000000
# 6 0.000000 0.000000 0.000000 0.000000 0.000000 0.019772
#
#
# Mechanical properties :
#
#
# Convention : Reuss Voigt Hill
#
# Bulk Modulus (GPa) = 80.21655 91.99776 86.10715
# Shear Modulus (GPa) = 44.64108 46.68460 45.66284
#
# Velocity S-wave (km/s) = 4.38743 4.48673 4.43736
# Velocity P-wave (km/s) = 7.76247 8.15543 7.96138
#
# Compressibility (1/GPa) = 0.01246625
#
# Stress axis : x y z
#
# Youngs Moduli (GPa) = 123.34903 80.17304 156.13447
#
# Poissons Ratio (x) = 0.23622 0.40452
# Poissons Ratio (y) = 0.36343 0.26887
# Poissons Ratio (z) = 0.31958 0.13806
#
# Static dielectric constant tensor:
#      x y z
#    x 1.903830 0.000000 0.000000 
#    y 0.000000 2.004330 0.000000 
#    z 0.000000 0.000000 1.901590 
# 
# From -- ./inp_files/13990.got.cif
#   From: 2010.05.17/outbox.cif.g08.bks.cpg/sg52_7_cif.got.tgz:13990.got - 2010.06.03 12:15:38.
