data_PCOD9413523
_publ_section_title
;
Structure prediction by ZEFSAII (Michael W. Deem and Ramdas Pophale) SiO2 
 PCOD9413523
Probable space group: P N N A
;
_chemical_formula_sum "Si O2"
_cell_formula_units_Z 24
_cell_length_a 10.172665
_cell_length_b 8.618690
_cell_length_c 12.693925
_cell_angle_alpha 90.000000
_cell_angle_beta 90.000000
_cell_angle_gamma 90.000000
_cell_volume 1112.940460
_symmetry_space_group_name_H-M "P N N A"
_symmetry_group_IT_number 52
_symmetry_cell_setting 'orthorhombic'
loop_
_space_group_symop_operation_xyz
x,y,z
1/2-x,-y,z
x,1/2-y,1/2-z
1/2-x,1/2+y,1/2-z
-x,-y,-z
1/2+x,y,-z
-x,1/2+y,1/2+z
1/2+x,1/2-y,1/2+z
loop_
_atom_site_type_symbol
_atom_site_label
_atom_site_fract_x
_atom_site_fract_y
_atom_site_fract_z
Si Si1 0.110442 0.414415 0.067680
Si Si2 0.379584 0.587607 0.550024
Si Si3 0.879664 0.429176 0.225787
O O1 0.250000 0.500000 0.082185
O O2 0.024217 0.408757 0.174976
O O3 0.128947 0.256127 0.001889
O O4 0.000000 0.500000 0.000000
O O5 0.250000 0.500000 0.515284
O O6 0.500000 0.500000 0.500000
O O7 0.390384 0.547663 0.674919
O O8 0.750000 0.500000 0.165768
O O9 0.842772 0.250000 0.250000
#
# Coordination Sequence:
#
# PCOD9413523 Si02
#       3
#     8   8   8
#     4  12  27  47  75 112 152 196 255 310 376 451
#     4  11  24  46  74 105 149 196 249 311 377 445
#     4  11  26  48  76 107 149 199 252 308 385 452
#
# _framework density 21.564496999999999
#
# number of rings (size 3 to 8) (size 9 to 14) (size 15 to 20)
#    0.000    0.667    3.333    3.000   14.000    1.333 
#    6.000    0.000    0.000    0.000    0.000    0.000 
#    0.000    0.000    0.000    0.000    0.000    0.000 
#
# Total GULP energy -133652.125977 kJ/mol
# GULP energy per Si atom -5568.838582 kJ/mol
# Density = 2.151542 g / cm^3
# Si number density = 21.564497 Si / 1000 Ang^3
#
#
#
# Elastic Constant Matrix: (Units=GPa)
#
#
# Indices 1 2 3 4 5 6 
#
# 1 209.9159 117.0874 76.4538 0.0000 0.0000 0.0000
# 2 117.0874 202.0190 65.2059 0.0000 0.0000 0.0000
# 3 76.4538 65.2059 78.0079 0.0000 0.0000 0.0000
# 4 0.0000 0.0000 0.0000 34.5956 0.0000 0.0000
# 5 0.0000 0.0000 0.0000 0.0000 40.7755 0.0000
# 6 0.0000 0.0000 0.0000 0.0000 0.0000 55.9866
#
#
#
# Elastic Compliance Matrix: (Units=1/GPa)
#
#
# Indices 1 2 3 4 5 6 
#
# 1 0.008635 -0.003113 -0.005861 0.000000 0.000000 0.000000
# 2 -0.003113 0.007901 -0.003554 0.000000 0.000000 0.000000
# 3 -0.005861 -0.003554 0.021534 0.000000 0.000000 0.000000
# 4 0.000000 0.000000 0.000000 0.028905 0.000000 0.000000
# 5 0.000000 0.000000 0.000000 0.000000 0.024525 0.000000
# 6 0.000000 0.000000 0.000000 0.000000 0.000000 0.017861
#
#
# Mechanical properties :
#
#
# Convention : Reuss Voigt Hill
#
# Bulk Modulus (GPa) = 76.83393 111.93745 94.38569
# Shear Modulus (GPa) = 36.03516 41.68459 38.85987
#
# Velocity S-wave (km/s) = 4.09227 4.40138 4.24964
# Velocity P-wave (km/s) = 7.61814 8.82329 8.24277
#
# Compressibility (1/GPa) = 0.01301508
#
# Stress axis : x y z
#
# Youngs Moduli (GPa) = 115.81300 126.56241 46.43921
#
# Poissons Ratio (x) = 0.39397 0.27216
# Poissons Ratio (y) = 0.36051 0.16503
# Poissons Ratio (z) = 0.67873 0.44976
#
# Static dielectric constant tensor:
#      x y z
#    x 1.811500 0.000000 0.000000 
#    y 0.000000 1.805080 0.000000 
#    z 0.000000 0.000000 2.207100 
# 
# From -- ./inp_files/23901.got.cif
#   From: 2010.05.17/outbox.cif.g08.bks.cpg/sg52_12_cif.got.tgz:23901.got - 2010.06.03 12:15:38.
