data_PCOD9413420
_publ_section_title
;
Structure prediction by ZEFSAII (Michael W. Deem and Ramdas Pophale) SiO2 
 PCOD9413420
Probable space group: P N N A
;
_chemical_formula_sum "Si O2"
_cell_formula_units_Z 32
_cell_length_a 12.690237
_cell_length_b 20.518089
_cell_length_c 4.859212
_cell_angle_alpha 90.000000
_cell_angle_beta 90.000000
_cell_angle_gamma 90.000000
_cell_volume 1265.238764
_symmetry_space_group_name_H-M "P N N A"
_symmetry_group_IT_number 52
_symmetry_cell_setting 'orthorhombic'
loop_
_space_group_symop_operation_xyz
x,y,z
1/2-x,-y,z
x,1/2-y,1/2-z
1/2-x,1/2+y,1/2-z
-x,-y,-z
1/2+x,y,-z
-x,1/2+y,1/2+z
1/2+x,1/2-y,1/2+z
loop_
_atom_site_type_symbol
_atom_site_label
_atom_site_fract_x
_atom_site_fract_y
_atom_site_fract_z
Si Si1 0.811417 0.685685 0.443542
Si Si2 0.358787 0.011437 0.159597
Si Si3 0.190550 0.631452 0.029264
Si Si4 0.996900 0.888949 0.810009
O O1 0.805674 0.750000 0.250000
O O2 0.734274 0.674038 0.710470
O O3 0.927350 0.666599 0.544447
O O4 0.772257 0.635662 0.217185
O O5 0.321792 0.056436 0.404748
O O6 0.250000 0.000000 0.000306
O O7 0.412524 0.945378 0.268980
O O8 0.433057 0.063748 0.003785
O O9 0.073692 0.646396 0.907751
#
# Coordination Sequence:
#
# PCOD9413420 Si02
#       4
#     8   8   8   8
#     4  12  29  54  81 116 169 224 289 346 404 502
#     4  11  23  46  81 125 172 209 271 352 429 508
#     4  12  25  51  77 122 164 215 275 348 419 496
#     4  11  25  48  84 124 165 223 273 342 438 507
#
# _framework density 25.29167
#
# number of rings (size 3 to 8) (size 9 to 14) (size 15 to 20)
#    0.000    0.500    5.000    1.500    3.500    5.000 
#    4.500    0.000    0.000    0.000    0.000    1.750 
#    0.000    0.000    0.000    0.000    0.000    0.000 
#
# Total GULP energy -178450.829341 kJ/mol
# GULP energy per Si atom -5576.588417 kJ/mol
# Density = 2.523410 g / cm^3
# Si number density = 25.291670 Si / 1000 Ang^3
#
#
#
# Elastic Constant Matrix: (Units=GPa)
#
#
# Indices 1 2 3 4 5 6 
#
# 1 151.2483 20.0929 74.7998 0.0000 0.0000 0.0000
# 2 20.0929 52.5910 49.0379 0.0000 0.0000 0.0000
# 3 74.7998 49.0379 168.1622 0.0000 0.0000 0.0000
# 4 0.0000 0.0000 0.0000 50.9812 0.0000 0.0000
# 5 0.0000 0.0000 0.0000 0.0000 91.5413 0.0000
# 6 0.0000 0.0000 0.0000 0.0000 0.0000 -12.8700
#
#
#
# Elastic Compliance Matrix: (Units=1/GPa)
#
#
# Indices 1 2 3 4 5 6 
#
# 1 0.008482 0.000381 -0.003884 0.000000 0.000000 0.000000
# 2 0.000381 0.026133 -0.007790 0.000000 0.000000 0.000000
# 3 -0.003884 -0.007790 0.009946 0.000000 0.000000 0.000000
# 4 0.000000 0.000000 0.000000 0.019615 0.000000 0.000000
# 5 0.000000 0.000000 0.000000 0.000000 0.010924 0.000000
# 6 0.000000 0.000000 0.000000 0.000000 0.000000 -0.077700
#
#
# Mechanical properties :
#
#
# Convention : Reuss Voigt Hill
#
# Bulk Modulus (GPa) = 45.50717 73.31807 59.41262
# Shear Modulus (GPa) = 183.07919 41.13522 112.10721
#
# Velocity S-wave (km/s) = 8.51729 4.03728 6.66498
# Velocity P-wave (km/s) = 10.71250 7.12635 9.09787
#
# Compressibility (1/GPa) = 0.02197456
#
# Stress axis : x y z
#
# Youngs Moduli (GPa) = 117.89957 38.26593 100.54423
#
# Poissons Ratio (x) = -0.01458 0.39050
# Poissons Ratio (y) = -0.04491 0.78325
# Poissons Ratio (z) = 0.45790 0.29809
#
# Static dielectric constant tensor:
#      x y z
#    x 2.486350 0.000000 0.000000 
#    y 0.000000 -12.125590 0.000000 
#    z 0.000000 0.000000 2.135390 
# 
# From -- ./inp_files/2073.got.cif
#   From: 2010.05.17/outbox.cif.g08.bks.cpg/sg52_2_cif.got.tgz:2073.got - 2010.06.03 12:15:38.
