data_PCOD9413857
_publ_section_title
;
Structure prediction by ZEFSAII (Michael W. Deem and Ramdas Pophale) SiO2 
 PCOD9413857
Probable space group: P N N A
;
_chemical_formula_sum "Si O2"
_cell_formula_units_Z 32
_cell_length_a 16.329198
_cell_length_b 4.871306
_cell_length_c 16.186034
_cell_angle_alpha 90.000000
_cell_angle_beta 90.000000
_cell_angle_gamma 90.000000
_cell_volume 1287.510308
_symmetry_space_group_name_H-M "P N N A"
_symmetry_group_IT_number 52
_symmetry_cell_setting 'orthorhombic'
loop_
_space_group_symop_operation_xyz
x,y,z
1/2-x,-y,z
x,1/2-y,1/2-z
1/2-x,1/2+y,1/2-z
-x,-y,-z
1/2+x,y,-z
-x,1/2+y,1/2+z
1/2+x,1/2-y,1/2+z
loop_
_atom_site_type_symbol
_atom_site_label
_atom_site_fract_x
_atom_site_fract_y
_atom_site_fract_z
Si Si1 0.909775 0.890848 0.099471
Si Si2 0.661316 0.351609 0.930965
Si Si3 0.250000 0.500000 0.308900
Si Si4 0.506483 0.385390 0.841116
Si Si5 0.750000 0.000000 0.190701
O O1 0.943514 0.638267 0.154282
O O2 0.830144 0.038543 0.136705
O O3 0.975765 0.136119 0.099592
O O4 0.877140 0.753028 0.015702
O O5 0.750000 0.500000 0.942067
O O6 0.590299 0.504295 0.880005
O O7 0.679627 0.099932 0.869556
O O8 0.272909 0.250000 0.250000
O O9 0.513815 0.250000 0.750000
O O10 0.765276 0.750000 0.250000
#
# Coordination Sequence:
#
# PCOD9413857 Si02
#       5
#     8   8   4   8   4
#     4  12  28  50  77 116 156 204 262 322 396 462
#     4  12  30  50  82 116 159 207 262 322 393 466
#     4  12  27  48  77 114 154 202 260 316 381 458
#     4  12  28  51  78 113 159 207 260 322 391 465
#     4  12  25  46  81 110 152 202 262 320 383 464
#
# _framework density 24.854171999999998
#
# number of rings (size 3 to 8) (size 9 to 14) (size 15 to 20)
#    0.000    0.000    1.250    7.500   12.250    0.000 
#    0.000    0.000    0.000    0.000    0.000    0.000 
#    0.000    0.000    0.000    0.000    0.000    0.000 
#
# Total GULP energy -179250.493259 kJ/mol
# GULP energy per Si atom -5601.577914 kJ/mol
# Density = 2.479760 g / cm^3
# Si number density = 24.854172 Si / 1000 Ang^3
#
#
#
# Elastic Constant Matrix: (Units=GPa)
#
#
# Indices 1 2 3 4 5 6 
#
# 1 154.5350 24.4851 52.3467 0.0000 0.0000 0.0000
# 2 24.4851 98.6408 9.0596 0.0000 0.0000 0.0000
# 3 52.3467 9.0596 117.1159 0.0000 0.0000 0.0000
# 4 0.0000 0.0000 0.0000 125.9654 0.0000 0.0000
# 5 0.0000 0.0000 0.0000 0.0000 52.5824 0.0000
# 6 0.0000 0.0000 0.0000 0.0000 0.0000 48.7170
#
#
#
# Elastic Compliance Matrix: (Units=1/GPa)
#
#
# Indices 1 2 3 4 5 6 
#
# 1 0.007882 -0.001645 -0.003396 0.000000 0.000000 0.000000
# 2 -0.001645 0.010553 -0.000081 0.000000 0.000000 0.000000
# 3 -0.003396 -0.000081 0.010063 0.000000 0.000000 0.000000
# 4 0.000000 0.000000 0.000000 0.007939 0.000000 0.000000
# 5 0.000000 0.000000 0.000000 0.000000 0.019018 0.000000
# 6 0.000000 0.000000 0.000000 0.000000 0.000000 0.020527
#
#
# Mechanical properties :
#
#
# Convention : Reuss Voigt Hill
#
# Bulk Modulus (GPa) = 54.78023 60.23051 57.50537
# Shear Modulus (GPa) = 54.16579 64.41298 59.28938
#
# Velocity S-wave (km/s) = 4.67341 5.09633 4.88945
# Velocity P-wave (km/s) = 7.15608 7.67570 7.42044
#
# Compressibility (1/GPa) = 0.01825476
#
# Stress axis : x y z
#
# Youngs Moduli (GPa) = 126.87379 94.75542 99.37793
#
# Poissons Ratio (x) = 0.15583 0.33746
# Poissons Ratio (y) = 0.20866 0.00808
# Poissons Ratio (z) = 0.43082 0.00770
#
# Static dielectric constant tensor:
#      x y z
#    x 2.031990 0.000000 0.000000 
#    y 0.000000 1.940810 0.000000 
#    z 0.000000 0.000000 1.942220 
# 
# From -- ./inp_files/32730.got.cif
#   From: 2010.05.17/outbox.cif.g08.bks.cpg/sg52_17_cif.got.tgz:32730.got - 2010.06.03 12:15:38.
