data_PCOD9413451
_publ_section_title
;
Structure prediction by ZEFSAII (Michael W. Deem and Ramdas Pophale) SiO2 
 PCOD9413451
Probable space group: P N N A
;
_chemical_formula_sum "Si O2"
_cell_formula_units_Z 36
_cell_length_a 22.401760
_cell_length_b 8.971741
_cell_length_c 7.878841
_cell_angle_alpha 90.000000
_cell_angle_beta 90.000000
_cell_angle_gamma 90.000000
_cell_volume 1583.511436
_symmetry_space_group_name_H-M "P N N A"
_symmetry_group_IT_number 52
_symmetry_cell_setting 'orthorhombic'
loop_
_space_group_symop_operation_xyz
x,y,z
1/2-x,-y,z
x,1/2-y,1/2-z
1/2-x,1/2+y,1/2-z
-x,-y,-z
1/2+x,y,-z
-x,1/2+y,1/2+z
1/2+x,1/2-y,1/2+z
loop_
_atom_site_type_symbol
_atom_site_label
_atom_site_fract_x
_atom_site_fract_y
_atom_site_fract_z
Si Si1 0.215214 0.750000 0.250000
Si Si2 0.695719 0.267209 0.437378
Si Si3 0.416623 0.903880 0.452668
Si Si4 0.039613 0.768611 0.548722
Si Si5 0.123750 0.981874 0.112181
O O1 0.256467 0.759363 0.415351
O O2 0.172438 0.889877 0.219581
O O3 0.721746 0.250000 0.250000
O O4 0.643434 0.147464 0.459051
O O5 0.661444 0.423143 0.476085
O O6 0.470814 0.794689 0.504432
O O7 0.431308 0.072986 0.502967
O O8 0.407456 0.911404 0.249325
O O9 0.041934 0.750000 0.750000
O O10 0.075323 0.632960 0.462854
#
# Coordination Sequence:
#
# PCOD9413451 Si02
#       5
#     4   8   8   8   8
#     4  12  26  50  74 104 152 200 248 314 380 450
#     4  12  27  47  76 110 145 194 254 312 374 451
#     4  11  24  46  71 106 151 195 245 310 379 447
#     4  11  24  41  72 109 144 195 249 303 372 457
#     4  12  24  49  72 102 153 201 240 316 384 446
#
# _framework density 22.734285
#
# number of rings (size 3 to 8) (size 9 to 14) (size 15 to 20)
#    0.000    0.444    4.444    3.333    0.000    8.000 
#    8.000    0.000    0.000    0.000    0.000    0.000 
#    0.000    0.000    0.000    0.000    0.000    0.000 
#
# Total GULP energy -201645.828956 kJ/mol
# GULP energy per Si atom -5601.273027 kJ/mol
# Density = 2.268254 g / cm^3
# Si number density = 22.734285 Si / 1000 Ang^3
#
#
#
# Elastic Constant Matrix: (Units=GPa)
#
#
# Indices 1 2 3 4 5 6 
#
# 1 107.8947 21.8051 47.8463 0.0000 0.0000 0.0000
# 2 21.8051 80.8563 34.2410 0.0000 0.0000 0.0000
# 3 47.8463 34.2410 143.9530 0.0000 0.0000 0.0000
# 4 0.0000 0.0000 0.0000 34.0077 0.0000 0.0000
# 5 0.0000 0.0000 0.0000 0.0000 35.2390 0.0000
# 6 0.0000 0.0000 0.0000 0.0000 0.0000 75.7437
#
#
#
# Elastic Compliance Matrix: (Units=1/GPa)
#
#
# Indices 1 2 3 4 5 6 
#
# 1 0.011050 -0.001584 -0.003296 0.000000 0.000000 0.000000
# 2 -0.001584 0.013980 -0.002799 0.000000 0.000000 0.000000
# 3 -0.003296 -0.002799 0.008708 0.000000 0.000000 0.000000
# 4 0.000000 0.000000 0.000000 0.029405 0.000000 0.000000
# 5 0.000000 0.000000 0.000000 0.000000 0.028378 0.000000
# 6 0.000000 0.000000 0.000000 0.000000 0.000000 0.013202
#
#
# Mechanical properties :
#
#
# Convention : Reuss Voigt Hill
#
# Bulk Modulus (GPa) = 54.40629 60.05430 57.23029
# Shear Modulus (GPa) = 39.61721 44.25219 41.93470
#
# Velocity S-wave (km/s) = 4.17900 4.41670 4.29949
# Velocity P-wave (km/s) = 6.87522 7.24449 7.06227
#
# Compressibility (1/GPa) = 0.01838023
#
# Stress axis : x y z
#
# Youngs Moduli (GPa) = 90.49733 71.53038 114.83787
#
# Poissons Ratio (x) = 0.11332 0.37850
# Poissons Ratio (y) = 0.14336 0.32141
# Poissons Ratio (z) = 0.29827 0.20020
#
# Static dielectric constant tensor:
#      x y z
#    x 1.832680 0.000000 0.000000 
#    y 0.000000 1.918660 0.000000 
#    z 0.000000 0.000000 1.855890 
# 
# From -- ./inp_files/12915.got.cif
#   From: 2010.05.17/outbox.cif.g08.bks.cpg/sg52_7_cif.got.tgz:12915.got - 2010.06.03 12:15:38.
