data_PCOD9413017
_publ_section_title
;
Structure prediction by ZEFSAII (Michael W. Deem and Ramdas Pophale) SiO2 
 PCOD9413017
Probable space group: P N N A
;
_chemical_formula_sum "Si O2"
_cell_formula_units_Z 32
_cell_length_a 29.283000
_cell_length_b 4.930174
_cell_length_c 11.795759
_cell_angle_alpha 90.000000
_cell_angle_beta 90.000000
_cell_angle_gamma 90.000000
_cell_volume 1702.957091
_symmetry_space_group_name_H-M "P N N A"
_symmetry_group_IT_number 52
_symmetry_cell_setting 'orthorhombic'
loop_
_space_group_symop_operation_xyz
x,y,z
1/2-x,-y,z
x,1/2-y,1/2-z
1/2-x,1/2+y,1/2-z
-x,-y,-z
1/2+x,y,-z
-x,1/2+y,1/2+z
1/2+x,1/2-y,1/2+z
loop_
_atom_site_type_symbol
_atom_site_label
_atom_site_fract_x
_atom_site_fract_y
_atom_site_fract_z
Si Si1 0.280532 0.253170 0.387909
Si Si2 0.936659 0.736451 0.538106
Si Si3 0.979472 0.494175 0.176938
Si Si4 0.615316 0.775160 0.614266
O O1 0.250000 0.500000 0.425454
O O2 0.282765 0.250000 0.250000
O O3 0.332966 0.278521 0.424200
O O4 0.250000 0.000000 0.423076
O O5 0.921585 0.425681 0.554949
O O6 0.980449 0.829226 0.612232
O O7 0.947911 0.848650 0.413393
O O8 0.895605 0.915200 0.585996
O O9 0.957037 0.250000 0.250000
O O10 0.998011 0.750000 0.250000
O O11 0.611780 0.750000 0.750000
#
# Coordination Sequence:
#
# PCOD9413017 Si02
#       4
#     8   8   8   8
#     4   9  17  29  45  68 100 136 165 194 244 303
#     4  11  22  34  52  76  99 134 179 212 251 308
#     4  11  22  37  53  71 102 137 172 218 263 300
#     4  11  20  32  51  75 106 137 170 211 249 301
#
# _framework density 18.790842000000001
#
# number of rings (size 3 to 8) (size 9 to 14) (size 15 to 20)
#    0.000    1.500    0.000    7.500    0.000    8.000 
#    0.000    0.000    0.000    0.000    0.000    0.000 
#    0.000   56.000    0.000    0.000    0.000    0.000 
#
# Total GULP energy -178514.846897 kJ/mol
# GULP energy per Si atom -5578.588966 kJ/mol
# Density = 1.874807 g / cm^3
# Si number density = 18.790842 Si / 1000 Ang^3
#
#
#
# Elastic Constant Matrix: (Units=GPa)
#
#
# Indices 1 2 3 4 5 6 
#
# 1 67.9980 -2.9808 11.1903 0.0000 0.0000 0.0000
# 2 -2.9808 93.9876 10.2644 0.0000 0.0000 0.0000
# 3 11.1903 10.2644 50.8838 0.0000 0.0000 0.0000
# 4 0.0000 0.0000 0.0000 26.0228 0.0000 0.0000
# 5 0.0000 0.0000 0.0000 0.0000 9.1065 0.0000
# 6 0.0000 0.0000 0.0000 0.0000 0.0000 96.8901
#
#
#
# Elastic Compliance Matrix: (Units=1/GPa)
#
#
# Indices 1 2 3 4 5 6 
#
# 1 0.015328 0.000874 -0.003547 0.000000 0.000000 0.000000
# 2 0.000874 0.010929 -0.002397 0.000000 0.000000 0.000000
# 3 -0.003547 -0.002397 0.020916 0.000000 0.000000 0.000000
# 4 0.000000 0.000000 0.000000 0.038428 0.000000 0.000000
# 5 0.000000 0.000000 0.000000 0.000000 0.109811 0.000000
# 6 0.000000 0.000000 0.000000 0.000000 0.000000 0.010321
#
#
# Mechanical properties :
#
#
# Convention : Reuss Voigt Hill
#
# Bulk Modulus (GPa) = 27.00306 27.75746 27.38026
# Shear Modulus (GPa) = 21.90878 39.36358 30.63618
#
# Velocity S-wave (km/s) = 3.41827 4.58189 4.04217
# Velocity P-wave (km/s) = 5.47549 6.54183 6.03227
#
# Compressibility (1/GPa) = 0.03703284
#
# Stress axis : x y z
#
# Youngs Moduli (GPa) = 65.23851 91.49837 47.80980
#
# Poissons Ratio (x) = -0.07993 0.16959
# Poissons Ratio (y) = -0.05699 0.11459
# Poissons Ratio (z) = 0.23142 0.21930
#
# Static dielectric constant tensor:
#      x y z
#    x 1.642070 0.000000 0.000000 
#    y 0.000000 1.632630 0.000000 
#    z 0.000000 0.000000 1.717740 
# 
# From -- ./inp_files/15162.got.cif
#   From: 2010.05.17/outbox.cif.g08.bks.cpg/sg52_8_cif.got.tgz:15162.got - 2010.06.03 12:15:38.
