data_PCOD9413991
_publ_section_title
;
Structure prediction by ZEFSAII (Michael W. Deem and Ramdas Pophale) SiO2 
 PCOD9413991
Probable space group: P N N A
;
_chemical_formula_sum "Si O2"
_cell_formula_units_Z 60
_cell_length_a 18.000000
_cell_length_b 12.000000
_cell_length_c 15.000000
_cell_angle_alpha 90.000000
_cell_angle_beta 90.000000
_cell_angle_gamma 90.000000
_cell_volume 3240.000000
_symmetry_space_group_name_H-M "P N N A"
_symmetry_group_IT_number 52
_symmetry_cell_setting 'orthorhombic'
loop_
_space_group_symop_operation_xyz
x,y,z
1/2-x,-y,z
x,1/2-y,1/2-z
1/2-x,1/2+y,1/2-z
-x,-y,-z
1/2+x,y,-z
-x,1/2+y,1/2+z
1/2+x,1/2-y,1/2+z
loop_
_atom_site_type_symbol
_atom_site_label
_atom_site_fract_x
_atom_site_fract_y
_atom_site_fract_z
Si Si1 0.815621 0.818149 0.556400
Si Si2 0.750000 0.500000 0.838674
Si Si3 0.425887 0.264367 0.987109
Si Si4 0.789521 0.114979 0.972053
Si Si5 0.623628 0.969305 0.798312
Si Si6 0.947587 0.702129 0.654719
Si Si7 0.994379 0.164003 0.680541
Si Si8 0.421653 0.987341 0.553128
O O1 0.774561 0.708497 0.520989
O O2 0.874373 0.771523 0.627844
O O3 0.863741 0.902003 0.493656
O O4 0.750415 0.891233 0.600504
O O5 0.679187 0.486821 0.776852
O O6 0.361927 0.170901 0.983216
O O7 0.457915 0.283317 0.089131
O O8 0.492924 0.226208 0.922790
O O9 0.395592 0.384254 0.951086
O O10 0.750000 0.000000 0.002314
O O11 0.823775 0.087598 0.873136
O O12 0.576812 0.072745 0.837973
O O13 0.569512 0.888409 0.743206
O O14 0.974055 0.750000 0.750000
O O15 0.031598 0.250000 0.750000
O O16 0.051121 0.069559 0.644872
O O17 0.500000 0.000000 0.500000
#
# Coordination Sequence:
#
# PCOD9413991 Si02
#       8
#     8   4   8   8   8   8   8   8
#     4  12  22  38  63  92 134 174 217 269 336 403
#     4  12  22  34  58  96 138 174 206 264 334 414
#     4  11  24  44  67  92 138 183 229 279 330 405
#     4  12  25  41  58  97 140 176 214 271 347 423
#     4  12  23  36  58  97 143 169 206 262 343 411
#     4  12  23  41  66  98 132 177 228 279 332 397
#     4  11  21  38  64  95 133 173 225 274 328 389
#     4  10  20  40  63  91 127 175 230 272 317 395
#
# _framework density 18.518519000000001
#
# number of rings (size 3 to 8) (size 9 to 14) (size 15 to 20)
#    0.000    0.533    7.333    4.000    0.000    0.533 
#    2.400    0.000    0.000    0.800    0.000    0.000 
#    0.000    0.000    0.000    0.000    0.000    0.000 
#
# Total GULP energy -334612.664556 kJ/mol
# GULP energy per Si atom -5576.877743 kJ/mol
# Density = 1.847637 g / cm^3
# Si number density = 18.518519 Si / 1000 Ang^3
#
#
#
# Elastic Constant Matrix: (Units=GPa)
#
#
# Indices 1 2 3 4 5 6 
#
# 1 74.5700 48.4664 32.1777 0.0000 0.0000 0.0000
# 2 48.4664 119.8658 38.4489 0.0000 0.0000 0.0000
# 3 32.1777 38.4489 68.9653 0.0000 0.0000 0.0000
# 4 0.0000 0.0000 0.0000 37.3345 0.0000 0.0000
# 5 0.0000 0.0000 0.0000 0.0000 6.9801 0.0000
# 6 0.0000 0.0000 0.0000 0.0000 0.0000 49.0742
#
#
#
# Elastic Compliance Matrix: (Units=1/GPa)
#
#
# Indices 1 2 3 4 5 6 
#
# 1 0.019964 -0.006192 -0.005863 0.000000 0.000000 0.000000
# 2 -0.006192 0.012080 -0.003846 0.000000 0.000000 0.000000
# 3 -0.005863 -0.003846 0.019380 0.000000 0.000000 0.000000
# 4 0.000000 0.000000 0.000000 0.026785 0.000000 0.000000
# 5 0.000000 0.000000 0.000000 0.000000 0.143264 0.000000
# 6 0.000000 0.000000 0.000000 0.000000 0.000000 0.020377
#
#
# Mechanical properties :
#
#
# Convention : Reuss Voigt Hill
#
# Bulk Modulus (GPa) = 50.96068 55.73189 53.34629
# Shear Modulus (GPa) = 17.84490 28.29831 23.07161
#
# Velocity S-wave (km/s) = 3.10760 3.91334 3.53351
# Velocity P-wave (km/s) = 6.36040 7.11193 6.74664
#
# Compressibility (1/GPa) = 0.01962297
#
# Stress axis : x y z
#
# Youngs Moduli (GPa) = 50.08896 82.78287 51.60065
#
# Poissons Ratio (x) = 0.51257 0.30254
# Poissons Ratio (y) = 0.31014 0.19844
# Poissons Ratio (z) = 0.29367 0.31836
#
# Static dielectric constant tensor:
#      x y z
#    x 1.654050 0.000000 0.000000 
#    y 0.000000 1.727890 0.000000 
#    z 0.000000 0.000000 1.637360 
# 
# From -- ./inp_files/28266.got.cif
#   From: 2010.05.17/outbox.ucp.g08.bks.cvg/sg52_15_cif.got.tgz:28266.got - 2010.06.11 16:30:12.
