data_PCOD9413405
_publ_section_title
;
Structure prediction by ZEFSAII (Michael W. Deem and Ramdas Pophale) SiO2 
 PCOD9413405
Probable space group: P N N A
;
_chemical_formula_sum "Si O2"
_cell_formula_units_Z 36
_cell_length_a 18.078859
_cell_length_b 8.739609
_cell_length_c 9.349457
_cell_angle_alpha 90.000000
_cell_angle_beta 90.000000
_cell_angle_gamma 90.000000
_cell_volume 1477.234390
_symmetry_space_group_name_H-M "P N N A"
_symmetry_group_IT_number 52
_symmetry_cell_setting 'orthorhombic'
loop_
_space_group_symop_operation_xyz
x,y,z
1/2-x,-y,z
x,1/2-y,1/2-z
1/2-x,1/2+y,1/2-z
-x,-y,-z
1/2+x,y,-z
-x,1/2+y,1/2+z
1/2+x,1/2-y,1/2+z
loop_
_atom_site_type_symbol
_atom_site_label
_atom_site_fract_x
_atom_site_fract_y
_atom_site_fract_z
Si Si1 0.615179 0.188144 0.398702
Si Si2 0.614676 0.385486 0.662604
Si Si3 0.335726 0.165859 0.600417
Si Si4 0.750000 0.000000 0.636854
Si Si5 0.550621 0.808542 0.898313
O O1 0.643851 0.250000 0.250000
O O2 0.643791 0.301283 0.521909
O O3 0.527020 0.221769 0.406723
O O4 0.631406 0.007609 0.393069
O O5 0.576710 0.250000 0.750000
O O6 0.553999 0.510612 0.623584
O O7 0.681549 0.450464 0.761063
O O8 0.314318 0.250000 0.750000
O O9 0.398701 0.269943 0.531376
O O10 0.275815 0.133671 0.473889
O O11 0.586704 0.750000 0.750000
#
# Coordination Sequence:
#
# PCOD9413405 Si02
#       5
#     8   8   8   4   8
#     4  11  25  47  73 116 153 200 254 321 396 463
#     4  12  25  47  79 108 152 200 262 321 382 469
#     4  12  27  49  74 111 157 201 261 324 389 466
#     4  12  28  50  80 116 156 214 278 312 402 478
#     4  11  23  45  77 113 153 199 254 319 394 475
#
# _framework density 24.369862000000001
#
# number of rings (size 3 to 8) (size 9 to 14) (size 15 to 20)
#    0.000    0.444    4.444    2.667    3.111    5.333 
#    4.000    0.000    0.000    0.000    0.000    0.000 
#    0.000    0.000    0.000    0.000    0.000    0.000 
#
# Total GULP energy -201079.572546 kJ/mol
# GULP energy per Si atom -5585.543682 kJ/mol
# Density = 2.431440 g / cm^3
# Si number density = 24.369862 Si / 1000 Ang^3
#
#
#
# Elastic Constant Matrix: (Units=GPa)
#
#
# Indices 1 2 3 4 5 6 
#
# 1 103.0798 34.3069 37.7829 0.0000 0.0000 0.0000
# 2 34.3069 146.5430 38.4252 0.0000 0.0000 0.0000
# 3 37.7829 38.4252 181.5245 0.0000 0.0000 0.0000
# 4 0.0000 0.0000 0.0000 34.8286 0.0000 0.0000
# 5 0.0000 0.0000 0.0000 0.0000 32.6459 0.0000
# 6 0.0000 0.0000 0.0000 0.0000 0.0000 33.7694
#
#
#
# Elastic Compliance Matrix: (Units=1/GPa)
#
#
# Indices 1 2 3 4 5 6 
#
# 1 0.011085 -0.002107 -0.001861 0.000000 0.000000 0.000000
# 2 -0.002107 0.007625 -0.001176 0.000000 0.000000 0.000000
# 3 -0.001861 -0.001176 0.006145 0.000000 0.000000 0.000000
# 4 0.000000 0.000000 0.000000 0.028712 0.000000 0.000000
# 5 0.000000 0.000000 0.000000 0.000000 0.030632 0.000000
# 6 0.000000 0.000000 0.000000 0.000000 0.000000 0.029613
#
#
# Mechanical properties :
#
#
# Convention : Reuss Voigt Hill
#
# Bulk Modulus (GPa) = 68.64494 72.46414 70.55454
# Shear Modulus (GPa) = 38.77321 41.62428 40.19874
#
# Velocity S-wave (km/s) = 3.99310 4.13731 4.06584
# Velocity P-wave (km/s) = 7.03484 7.25416 7.14534
#
# Compressibility (1/GPa) = 0.01456772
#
# Stress axis : x y z
#
# Youngs Moduli (GPa) = 90.21469 131.13963 162.73025
#
# Poissons Ratio (x) = 0.27631 0.30287
# Poissons Ratio (y) = 0.19008 0.19131
# Poissons Ratio (z) = 0.16791 0.15417
#
# Static dielectric constant tensor:
#      x y z
#    x 2.002830 0.000000 0.000000 
#    y 0.000000 2.592270 0.000000 
#    z 0.000000 0.000000 2.041510 
# 
# From -- ./inp_files/12948.got.cif
#   From: 2010.05.17/outbox.cif.g08.bks.cpg/sg52_7_cif.got.tgz:12948.got - 2010.06.03 12:15:38.
