data_PCOD9413179
_publ_section_title
;
Structure prediction by ZEFSAII (Michael W. Deem and Ramdas Pophale) SiO2 
 PCOD9413179
Probable space group: P N N A
;
_chemical_formula_sum "Si O2"
_cell_formula_units_Z 40
_cell_length_a 8.922328
_cell_length_b 19.802077
_cell_length_c 12.675266
_cell_angle_alpha 90.000000
_cell_angle_beta 90.000000
_cell_angle_gamma 90.000000
_cell_volume 2239.473933
_symmetry_space_group_name_H-M "P N N A"
_symmetry_group_IT_number 52
_symmetry_cell_setting 'orthorhombic'
loop_
_space_group_symop_operation_xyz
x,y,z
1/2-x,-y,z
x,1/2-y,1/2-z
1/2-x,1/2+y,1/2-z
-x,-y,-z
1/2+x,y,-z
-x,1/2+y,1/2+z
1/2+x,1/2-y,1/2+z
loop_
_atom_site_type_symbol
_atom_site_label
_atom_site_fract_x
_atom_site_fract_y
_atom_site_fract_z
Si Si1 0.190014 0.691907 0.890784
Si Si2 0.452873 0.334229 0.679382
Si Si3 0.689732 0.839680 0.828623
Si Si4 0.948558 0.305406 0.887964
Si Si5 0.870943 0.053280 0.012654
O O1 0.370626 0.693173 0.890292
O O2 0.120162 0.651148 0.792974
O O3 0.125406 0.766802 0.866008
O O4 0.123545 0.669851 0.002860
O O5 0.632573 0.325714 0.684208
O O6 0.414102 0.392653 0.599209
O O7 0.609676 0.772220 0.874755
O O8 0.614588 0.845838 0.713223
O O9 0.668126 0.903246 0.907179
O O10 0.750000 0.000000 0.050678
O O11 0.000000 0.000000 0.000000
#
# Coordination Sequence:
#
# PCOD9413179 Si02
#       5
#     8   8   8   8   8
#     4  11  22  36  61  88 122 155 195 258 303 356
#     4  11  22  38  59  88 121 156 204 244 305 354
#     4  11  22  38  59  88 121 156 204 245 303 357
#     4  11  22  36  61  88 122 155 195 257 305 352
#     4  12  26  40  62  88 124 164 200 247 291 358
#
# _framework density 17.861336999999999
#
# number of rings (size 3 to 8) (size 9 to 14) (size 15 to 20)
#    0.000    0.800    4.000    7.200    5.600    0.000 
#    0.000    0.000    0.000    2.400    0.000    0.000 
#    0.000    0.000    0.000    0.000    0.000    0.000 
#
# Total GULP energy -223115.749881 kJ/mol
# GULP energy per Si atom -5577.893747 kJ/mol
# Density = 1.782068 g / cm^3
# Si number density = 17.861337 Si / 1000 Ang^3
#
#
#
# Elastic Constant Matrix: (Units=GPa)
#
#
# Indices 1 2 3 4 5 6 
#
# 1 197.4010 27.0435 62.4373 0.0000 0.0000 0.0000
# 2 27.0435 60.2040 33.7886 0.0000 0.0000 0.0000
# 3 62.4373 33.7886 162.3827 0.0000 0.0000 0.0000
# 4 0.0000 0.0000 0.0000 15.4956 0.0000 0.0000
# 5 0.0000 0.0000 0.0000 0.0000 46.4190 0.0000
# 6 0.0000 0.0000 0.0000 0.0000 0.0000 22.3494
#
#
#
# Elastic Compliance Matrix: (Units=1/GPa)
#
#
# Indices 1 2 3 4 5 6 
#
# 1 0.005893 -0.001557 -0.001942 0.000000 0.000000 0.000000
# 2 -0.001557 0.019218 -0.003400 0.000000 0.000000 0.000000
# 3 -0.001942 -0.003400 0.007612 0.000000 0.000000 0.000000
# 4 0.000000 0.000000 0.000000 0.064534 0.000000 0.000000
# 5 0.000000 0.000000 0.000000 0.000000 0.021543 0.000000
# 6 0.000000 0.000000 0.000000 0.000000 0.000000 0.044744
#
#
# Mechanical properties :
#
#
# Convention : Reuss Voigt Hill
#
# Bulk Modulus (GPa) = 52.84014 74.05851 63.44932
# Shear Modulus (GPa) = 27.22533 36.63401 31.92967
#
# Velocity S-wave (km/s) = 3.90841 4.53373 4.23264
# Velocity P-wave (km/s) = 7.07215 8.30418 7.71280
#
# Compressibility (1/GPa) = 0.01892501
#
# Stress axis : x y z
#
# Youngs Moduli (GPa) = 169.68011 52.03459 131.36301
#
# Poissons Ratio (x) = 0.08104 0.25511
# Poissons Ratio (y) = 0.26426 0.44664
# Poissons Ratio (z) = 0.32952 0.17692
#
# Static dielectric constant tensor:
#      x y z
#    x 1.583520 0.000000 0.000000 
#    y 0.000000 1.566590 0.000000 
#    z 0.000000 0.000000 1.651850 
# 
# From -- ./inp_files/16811.got.cif
#   From: 2010.05.17/outbox.cif.g08.bks.cpg/sg52_9_cif.got.tgz:16811.got - 2010.06.03 12:15:38.
