data_PCOD9413588
_publ_section_title
;
Structure prediction by ZEFSAII (Michael W. Deem and Ramdas Pophale) SiO2 
 PCOD9413588
Probable space group: P N N A
;
_chemical_formula_sum "Si O2"
_cell_formula_units_Z 32
_cell_length_a 15.475181
_cell_length_b 5.097272
_cell_length_c 17.282412
_cell_angle_alpha 90.000000
_cell_angle_beta 90.000000
_cell_angle_gamma 90.000000
_cell_volume 1363.257515
_symmetry_space_group_name_H-M "P N N A"
_symmetry_group_IT_number 52
_symmetry_cell_setting 'orthorhombic'
loop_
_space_group_symop_operation_xyz
x,y,z
1/2-x,-y,z
x,1/2-y,1/2-z
1/2-x,1/2+y,1/2-z
-x,-y,-z
1/2+x,y,-z
-x,1/2+y,1/2+z
1/2+x,1/2-y,1/2+z
loop_
_atom_site_type_symbol
_atom_site_label
_atom_site_fract_x
_atom_site_fract_y
_atom_site_fract_z
Si Si1 0.164334 0.345832 0.338143
Si Si2 0.154160 0.482366 0.565092
Si Si3 0.984089 0.993677 0.197612
Si Si4 0.601952 0.982774 0.524133
O O1 0.250000 0.500000 0.364020
O O2 0.180904 0.250000 0.250000
O O3 0.081299 0.536473 0.333576
O O4 0.131581 0.106027 0.393158
O O5 0.250000 0.500000 0.597700
O O6 0.145034 0.190762 0.533466
O O7 0.080994 0.529910 0.627900
O O8 0.136373 0.695382 0.497713
O O9 0.984398 0.250000 0.250000
O O10 0.959059 0.750000 0.250000
O O11 0.500000 0.000000 0.500000
#
# Coordination Sequence:
#
# PCOD9413588 Si02
#       4
#     8   8   8   8
#     4  11  26  46  76 111 157 200 263 319 397 464
#     4  12  27  47  74 111 148 196 255 314 383 457
#     4  11  25  45  74 107 151 198 253 314 385 459
#     4  12  26  49  77 107 151 203 251 318 384 459
#
# _framework density 23.473189000000001
#
# number of rings (size 3 to 8) (size 9 to 14) (size 15 to 20)
#    0.000    0.500    2.500    4.500    3.500    5.000 
#    0.000    0.000    0.000    0.000    0.000    0.000 
#    0.000    0.000    0.000    0.000    0.000    0.000 
#
# Total GULP energy -179317.271690 kJ/mol
# GULP energy per Si atom -5603.664740 kJ/mol
# Density = 2.341976 g / cm^3
# Si number density = 23.473189 Si / 1000 Ang^3
#
#
#
# Elastic Constant Matrix: (Units=GPa)
#
#
# Indices 1 2 3 4 5 6 
#
# 1 167.5960 19.8908 62.1176 0.0000 0.0000 0.0000
# 2 19.8908 72.4169 32.9750 0.0000 0.0000 0.0000
# 3 62.1176 32.9750 144.6886 0.0000 0.0000 0.0000
# 4 0.0000 0.0000 0.0000 39.8067 0.0000 0.0000
# 5 0.0000 0.0000 0.0000 0.0000 28.1499 0.0000
# 6 0.0000 0.0000 0.0000 0.0000 0.0000 38.1534
#
#
#
# Elastic Compliance Matrix: (Units=1/GPa)
#
#
# Indices 1 2 3 4 5 6 
#
# 1 0.007121 -0.000629 -0.002914 0.000000 0.000000 0.000000
# 2 -0.000629 0.015463 -0.003254 0.000000 0.000000 0.000000
# 3 -0.002914 -0.003254 0.008904 0.000000 0.000000 0.000000
# 4 0.000000 0.000000 0.000000 0.025121 0.000000 0.000000
# 5 0.000000 0.000000 0.000000 0.000000 0.035524 0.000000
# 6 0.000000 0.000000 0.000000 0.000000 0.000000 0.026210
#
#
# Mechanical properties :
#
#
# Convention : Reuss Voigt Hill
#
# Bulk Modulus (GPa) = 55.88304 68.29650 62.08977
# Shear Modulus (GPa) = 36.25717 39.20319 37.73018
#
# Velocity S-wave (km/s) = 3.93443 4.09115 4.01356
# Velocity P-wave (km/s) = 6.67072 7.17464 6.92726
#
# Compressibility (1/GPa) = 0.01789452
#
# Stress axis : x y z
#
# Youngs Moduli (GPa) = 140.42113 64.66851 112.30862
#
# Poissons Ratio (x) = 0.04069 0.32727
# Poissons Ratio (y) = 0.08835 0.36546
# Poissons Ratio (z) = 0.40918 0.21044
#
# Static dielectric constant tensor:
#      x y z
#    x 1.950010 0.000000 0.000000 
#    y 0.000000 1.857720 0.000000 
#    z 0.000000 0.000000 1.998150 
# 
# From -- ./inp_files/32704.got.cif
#   From: 2010.05.17/outbox.cif.g08.bks.cpg/sg52_17_cif.got.tgz:32704.got - 2010.06.03 12:15:38.
