data_PCOD9413090
_publ_section_title
;
Structure prediction by ZEFSAII (Michael W. Deem and Ramdas Pophale) SiO2 
 PCOD9413090
Probable space group: P N N A
;
_chemical_formula_sum "Si O2"
_cell_formula_units_Z 64
_cell_length_a 24.494230
_cell_length_b 12.095272
_cell_length_c 11.181744
_cell_angle_alpha 90.000000
_cell_angle_beta 90.000000
_cell_angle_gamma 90.000000
_cell_volume 3312.752390
_symmetry_space_group_name_H-M "P N N A"
_symmetry_group_IT_number 52
_symmetry_cell_setting 'orthorhombic'
loop_
_space_group_symop_operation_xyz
x,y,z
1/2-x,-y,z
x,1/2-y,1/2-z
1/2-x,1/2+y,1/2-z
-x,-y,-z
1/2+x,y,-z
-x,1/2+y,1/2+z
1/2+x,1/2-y,1/2+z
loop_
_atom_site_type_symbol
_atom_site_label
_atom_site_fract_x
_atom_site_fract_y
_atom_site_fract_z
Si Si1 0.116389 0.693201 0.379346
Si Si2 0.030466 0.539186 0.307516
Si Si3 0.816577 0.662696 0.357780
Si Si4 0.293386 0.251714 0.562966
Si Si5 0.023430 0.646940 0.043323
Si Si6 0.547053 0.621485 0.220474
Si Si7 0.170667 0.928810 0.740901
Si Si8 0.563301 0.200089 0.115727
O O1 0.119115 0.750000 0.250000
O O2 0.089079 0.571817 0.362256
O O3 0.172577 0.716349 0.446084
O O4 0.070110 0.758837 0.452679
O O5 0.030855 0.586787 0.170883
O O6 0.004792 0.418508 0.297736
O O7 0.982614 0.605849 0.376296
O O8 0.816623 0.750000 0.250000
O O9 0.769669 0.711146 0.443662
O O10 0.807026 0.545121 0.291575
O O11 0.876388 0.661936 0.416930
O O12 0.306472 0.128585 0.617626
O O13 0.315925 0.336448 0.661759
O O14 0.963838 0.702328 0.039915
O O15 0.033686 0.591496 0.917102
O O16 0.555915 0.750000 0.250000
O O17 0.604897 0.561091 0.240018
O O18 0.566377 0.250000 0.250000
#
# Coordination Sequence:
#
# PCOD9413090 Si02
#       8
#     8   8   8   8   8   8   8   8
#     4   9  18  36  59  86 110 147 202 240 282 353
#     4   9  18  33  54  78 115 151 191 230 285 351
#     4  11  21  35  57  83 116 146 190 245 296 358
#     4  11  21  37  58  86 115 150 195 247 297 349
#     4   9  17  33  54  78 113 149 182 233 288 347
#     4  12  20  33  52  81 122 149 186 240 298 350
#     4  11  21  36  54  88 118 147 189 241 304 350
#     4   8  16  31  50  77 104 139 184 227 278 344
#
# _framework density 19.319282000000001
#
# number of rings (size 3 to 8) (size 9 to 14) (size 15 to 20)
#    0.000    2.000    5.000    2.250    0.000    0.000 
#    2.250    1.875    0.000    0.750    6.500    0.000 
#    0.000    0.000    0.000    0.000    0.000    0.000 
#
# Total GULP energy -356275.842005 kJ/mol
# GULP energy per Si atom -5566.810031 kJ/mol
# Density = 1.927531 g / cm^3
# Si number density = 19.319282 Si / 1000 Ang^3
#
#
#
# Elastic Constant Matrix: (Units=GPa)
#
#
# Indices 1 2 3 4 5 6 
#
# 1 100.3725 7.0847 15.4280 0.0000 0.0000 0.0000
# 2 7.0847 62.0798 -6.6445 0.0000 0.0000 0.0000
# 3 15.4280 -6.6445 26.5047 0.0000 0.0000 0.0000
# 4 0.0000 0.0000 0.0000 11.8579 0.0000 0.0000
# 5 0.0000 0.0000 0.0000 0.0000 25.8880 0.0000
# 6 0.0000 0.0000 0.0000 0.0000 0.0000 18.2076
#
#
#
# Elastic Compliance Matrix: (Units=1/GPa)
#
#
# Indices 1 2 3 4 5 6 
#
# 1 0.011185 -0.002028 -0.007019 0.000000 0.000000 0.000000
# 2 -0.002028 0.016920 0.005422 0.000000 0.000000 0.000000
# 3 -0.007019 0.005422 0.043174 0.000000 0.000000 0.000000
# 4 0.000000 0.000000 0.000000 0.084332 0.000000 0.000000
# 5 0.000000 0.000000 0.000000 0.000000 0.038628 0.000000
# 6 0.000000 0.000000 0.000000 0.000000 0.000000 0.054922
#
#
# Mechanical properties :
#
#
# Convention : Reuss Voigt Hill
#
# Bulk Modulus (GPa) = 15.61775 24.52149 20.06962
# Shear Modulus (GPa) = 18.00158 22.72996 20.36577
#
# Velocity S-wave (km/s) = 3.05584 3.43380 3.25032
# Velocity P-wave (km/s) = 4.53348 5.33307 4.94945
#
# Compressibility (1/GPa) = 0.06402971
#
# Stress axis : x y z
#
# Youngs Moduli (GPa) = 89.40655 59.10157 23.16214
#
# Poissons Ratio (x) = 0.11984 0.16257
# Poissons Ratio (y) = 0.18129 -0.12559
# Poissons Ratio (z) = 0.62753 -0.32045
#
# Static dielectric constant tensor:
#      x y z
#    x 1.754400 0.000000 0.000000 
#    y 0.000000 1.766350 0.000000 
#    z 0.000000 0.000000 1.689650 
# 
# From -- ./inp_files/22491.got.cif
#   From: 2010.05.17/outbox.cif.g08.bks.cpg/sg52_12_cif.got.tgz:22491.got - 2010.06.03 12:15:38.
