data_PCOD9413603
_publ_section_title
;
Structure prediction by ZEFSAII (Michael W. Deem and Ramdas Pophale) SiO2 
 PCOD9413603
Probable space group: P N N A
;
_chemical_formula_sum "Si O2"
_cell_formula_units_Z 60
_cell_length_a 9.304942
_cell_length_b 16.770812
_cell_length_c 17.703120
_cell_angle_alpha 90.000000
_cell_angle_beta 90.000000
_cell_angle_gamma 90.000000
_cell_volume 2762.597244
_symmetry_space_group_name_H-M "P N N A"
_symmetry_group_IT_number 52
_symmetry_cell_setting 'orthorhombic'
loop_
_space_group_symop_operation_xyz
x,y,z
1/2-x,-y,z
x,1/2-y,1/2-z
1/2-x,1/2+y,1/2-z
-x,-y,-z
1/2+x,y,-z
-x,1/2+y,1/2+z
1/2+x,1/2-y,1/2+z
loop_
_atom_site_type_symbol
_atom_site_label
_atom_site_fract_x
_atom_site_fract_y
_atom_site_fract_z
Si Si1 0.702600 0.781422 0.335088
Si Si2 0.168794 0.081143 0.211084
Si Si3 0.898296 0.454060 0.206262
Si Si4 0.707794 0.750000 0.750000
Si Si5 0.097067 0.675008 0.537991
Si Si6 0.085696 0.969023 0.426291
Si Si7 0.174675 0.418436 0.463488
Si Si8 0.524340 0.786216 0.602069
O O1 0.719439 0.750000 0.250000
O O2 0.638362 0.869329 0.330253
O O3 0.602069 0.722534 0.383708
O O4 0.857715 0.788460 0.374322
O O5 0.205299 0.165897 0.250100
O O6 0.214035 0.092714 0.124407
O O7 0.000854 0.061561 0.222193
O O8 0.250000 0.000000 0.237984
O O9 0.750000 0.500000 0.222884
O O10 0.996163 0.500421 0.145995
O O11 0.610693 0.753362 0.674719
O O12 0.255485 0.647157 0.516841
O O13 0.994077 0.598096 0.535684
O O14 0.048113 0.732467 0.470974
O O15 0.081164 0.873739 0.419752
O O16 0.250000 0.000000 0.427461
O O17 0.000000 0.000000 0.500000
O O18 0.250000 0.500000 0.486145
#
# Coordination Sequence:
#
# PCOD9413603 Si02
#       8
#     8   8   8   4   8   8   8   8
#     4  12  27  47  75 109 150 193 251 310 382 457
#     4  11  26  46  74 110 146 199 255 317 383 458
#     4  12  25  46  71 107 153 191 244 311 383 460
#     4  12  24  46  76 108 156 200 264 314 392 466
#     4  12  25  47  72 107 144 193 243 306 375 452
#     4  12  27  47  73 109 149 200 253 316 390 469
#     4  11  25  47  72 104 141 188 251 307 371 447
#     4  12  25  44  75 107 149 202 248 315 383 463
#
# _framework density 21.718692999999998
#
# number of rings (size 3 to 8) (size 9 to 14) (size 15 to 20)
#    0.000    0.267    4.667    4.400    4.667    1.067 
#    0.000    1.333    0.000    0.000    0.000    0.000 
#    0.000    0.000    0.000    0.000    0.000    0.000 
#
# Total GULP energy -335521.340998 kJ/mol
# GULP energy per Si atom -5592.022350 kJ/mol
# Density = 2.166926 g / cm^3
# Si number density = 21.718693 Si / 1000 Ang^3
#
#
#
# Elastic Constant Matrix: (Units=GPa)
#
#
# Indices 1 2 3 4 5 6 
#
# 1 126.8276 59.5190 8.5748 0.0000 0.0000 0.0000
# 2 59.5190 131.7844 37.1962 0.0000 0.0000 0.0000
# 3 8.5748 37.1962 73.5862 0.0000 0.0000 0.0000
# 4 0.0000 0.0000 0.0000 28.8184 0.0000 0.0000
# 5 0.0000 0.0000 0.0000 0.0000 18.4710 0.0000
# 6 0.0000 0.0000 0.0000 0.0000 0.0000 16.5793
#
#
#
# Elastic Compliance Matrix: (Units=1/GPa)
#
#
# Indices 1 2 3 4 5 6 
#
# 1 0.010114 -0.004940 0.001319 0.000000 0.000000 0.000000
# 2 -0.004940 0.011264 -0.005118 0.000000 0.000000 0.000000
# 3 0.001319 -0.005118 0.016023 0.000000 0.000000 0.000000
# 4 0.000000 0.000000 0.000000 0.034700 0.000000 0.000000
# 5 0.000000 0.000000 0.000000 0.000000 0.054139 0.000000
# 6 0.000000 0.000000 0.000000 0.000000 0.000000 0.060316
#
#
# Mechanical properties :
#
#
# Convention : Reuss Voigt Hill
#
# Bulk Modulus (GPa) = 50.19655 60.30868 55.25261
# Shear Modulus (GPa) = 23.73326 27.90098 25.81712
#
# Velocity S-wave (km/s) = 3.30927 3.58809 3.45150
# Velocity P-wave (km/s) = 6.14525 6.70778 6.43266
#
# Compressibility (1/GPa) = 0.01992169
#
# Stress axis : x y z
#
# Youngs Moduli (GPa) = 98.87435 88.78026 62.41080
#
# Poissons Ratio (x) = 0.43857 -0.08229
# Poissons Ratio (y) = 0.48843 0.31942
# Poissons Ratio (z) = -0.13037 0.45437
#
# Static dielectric constant tensor:
#      x y z
#    x 1.779060 0.000000 0.000000 
#    y 0.000000 1.811940 0.000000 
#    z 0.000000 0.000000 1.822340 
# 
# From -- ./inp_files/31488.got.cif
#   From: 2010.05.17/outbox.cif.g08.bks.cpg/sg52_16_cif.got.tgz:31488.got - 2010.06.03 12:15:38.
