data_PCOD9413250
_publ_section_title
;
Structure prediction by ZEFSAII (Michael W. Deem and Ramdas Pophale) SiO2 
 PCOD9413250
Probable space group: P N N A
;
_chemical_formula_sum "Si O2"
_cell_formula_units_Z 44
_cell_length_a 13.306844
_cell_length_b 8.936988
_cell_length_c 17.905060
_cell_angle_alpha 90.000000
_cell_angle_beta 90.000000
_cell_angle_gamma 90.000000
_cell_volume 2129.325333
_symmetry_space_group_name_H-M "P N N A"
_symmetry_group_IT_number 52
_symmetry_cell_setting 'orthorhombic'
loop_
_space_group_symop_operation_xyz
x,y,z
1/2-x,-y,z
x,1/2-y,1/2-z
1/2-x,1/2+y,1/2-z
-x,-y,-z
1/2+x,y,-z
-x,1/2+y,1/2+z
1/2+x,1/2-y,1/2+z
loop_
_atom_site_type_symbol
_atom_site_label
_atom_site_fract_x
_atom_site_fract_y
_atom_site_fract_z
Si Si1 0.112730 0.899172 0.792898
Si Si2 0.922022 0.637514 0.184607
Si Si3 0.256440 0.246997 0.586639
Si Si4 0.036359 0.427418 0.421587
Si Si5 0.750000 0.000000 0.960789
Si Si6 0.967713 0.087036 0.426863
O O1 0.074151 0.750000 0.750000
O O2 0.201183 0.842196 0.844508
O O3 0.032258 0.967765 0.850792
O O4 0.142297 0.021071 0.733155
O O5 0.958161 0.750000 0.250000
O O6 0.852474 0.700118 0.117623
O O7 0.995797 0.522935 0.141871
O O8 0.252008 0.354847 0.515093
O O9 0.347048 0.126878 0.573890
O O10 0.149474 0.482760 0.413393
O O11 0.000000 0.500000 0.500000
O O12 0.021821 0.248106 0.425642
O O13 0.000000 0.000000 0.500000
#
# Coordination Sequence:
#
# PCOD9413250 Si02
#       6
#     8   8   8   8   4   8
#     4  11  22  42  61  92 144 174 216 288 353 410
#     4  12  25  36  63 100 135 181 223 287 360 418
#     4  11  23  37  63 102 136 170 227 280 353 421
#     4  11  23  44  65  96 134 183 231 279 341 417
#     4  12  22  42  74  98 130 188 236 288 336 426
#     4  11  24  41  59  94 146 179 219 281 346 419
#
# _framework density 20.663820000000001
#
# number of rings (size 3 to 8) (size 9 to 14) (size 15 to 20)
#    0.000    0.727    7.273    3.273    5.091    0.000 
#    0.000    0.000    0.000    3.273    0.000    0.000 
#    0.000    0.000    0.000    0.000    0.000    0.000 
#
# Total GULP energy -245481.965643 kJ/mol
# GULP energy per Si atom -5579.135583 kJ/mol
# Density = 2.061679 g / cm^3
# Si number density = 20.663820 Si / 1000 Ang^3
#
#
#
# Elastic Constant Matrix: (Units=GPa)
#
#
# Indices 1 2 3 4 5 6 
#
# 1 53.7196 12.7176 4.1451 0.0000 0.0000 0.0000
# 2 12.7176 103.7854 37.6586 0.0000 0.0000 0.0000
# 3 4.1451 37.6586 74.1045 0.0000 0.0000 0.0000
# 4 0.0000 0.0000 0.0000 57.0848 0.0000 0.0000
# 5 0.0000 0.0000 0.0000 0.0000 20.8134 0.0000
# 6 0.0000 0.0000 0.0000 0.0000 0.0000 31.1990
#
#
#
# Elastic Compliance Matrix: (Units=1/GPa)
#
#
# Indices 1 2 3 4 5 6 
#
# 1 0.019173 -0.002403 0.000149 0.000000 0.000000 0.000000
# 2 -0.002403 0.012115 -0.006022 0.000000 0.000000 0.000000
# 3 0.000149 -0.006022 0.016546 0.000000 0.000000 0.000000
# 4 0.000000 0.000000 0.000000 0.017518 0.000000 0.000000
# 5 0.000000 0.000000 0.000000 0.000000 0.048046 0.000000
# 6 0.000000 0.000000 0.000000 0.000000 0.000000 0.032052
#
#
# Mechanical properties :
#
#
# Convention : Reuss Voigt Hill
#
# Bulk Modulus (GPa) = 31.96847 37.85023 34.90935
# Shear Modulus (GPa) = 28.99723 33.62532 31.31127
#
# Velocity S-wave (km/s) = 3.75011 4.03830 3.89687
# Velocity P-wave (km/s) = 5.85281 6.33252 6.09738
#
# Compressibility (1/GPa) = 0.03128082
#
# Stress axis : x y z
#
# Youngs Moduli (GPa) = 52.15755 82.54285 60.43578
#
# Poissons Ratio (x) = 0.19838 -0.00900
# Poissons Ratio (y) = 0.12536 0.36395
# Poissons Ratio (z) = -0.00777 0.49709
#
# Static dielectric constant tensor:
#      x y z
#    x 1.755540 0.000000 0.000000 
#    y 0.000000 1.779460 0.000000 
#    z 0.000000 0.000000 1.759640 
# 
# From -- ./inp_files/32954.got.cif
#   From: 2010.05.17/outbox.cif.g08.bks.cpg/sg52_17_cif.got.tgz:32954.got - 2010.06.03 12:15:38.
