data_PCOD9413623
_publ_section_title
;
Structure prediction by ZEFSAII (Michael W. Deem and Ramdas Pophale) SiO2 
 PCOD9413623
Probable space group: P N N A
;
_chemical_formula_sum "Si O2"
_cell_formula_units_Z 32
_cell_length_a 5.319090
_cell_length_b 7.911939
_cell_length_c 34.491102
_cell_angle_alpha 90.000000
_cell_angle_beta 90.000000
_cell_angle_gamma 90.000000
_cell_volume 1451.534422
_symmetry_space_group_name_H-M "P N N A"
_symmetry_group_IT_number 52
_symmetry_cell_setting 'orthorhombic'
loop_
_space_group_symop_operation_xyz
x,y,z
1/2-x,-y,z
x,1/2-y,1/2-z
1/2-x,1/2+y,1/2-z
-x,-y,-z
1/2+x,y,-z
-x,1/2+y,1/2+z
1/2+x,1/2-y,1/2+z
loop_
_atom_site_type_symbol
_atom_site_label
_atom_site_fract_x
_atom_site_fract_y
_atom_site_fract_z
Si Si1 0.471909 0.708259 0.974390
Si Si2 0.502846 0.888996 0.216858
Si Si3 0.577672 0.169247 0.870571
Si Si4 0.250000 0.000000 0.931748
Si Si5 0.750000 0.500000 0.912226
O O1 0.533634 0.571079 0.941150
O O2 0.206254 0.693339 0.996281
O O3 0.454559 0.897067 0.956336
O O4 0.487386 0.750000 0.250000
O O5 0.520908 0.816032 0.173175
O O6 0.250000 0.000000 0.218304
O O7 0.750000 0.000000 0.223422
O O8 0.702435 0.340654 0.884712
O O9 0.750000 0.000000 0.871492
O O10 0.369534 0.136143 0.903091
#
# Coordination Sequence:
#
# PCOD9413623 Si02
#       5
#     8   8   8   4   4
#     4  12  27  47  72 107 146 194 254 318 378 446
#     4  11  25  49  78 114 156 195 244 301 366 445
#     4  11  25  49  73 111 151 198 248 306 368 446
#     4  12  24  48  74 104 148 200 246 314 380 444
#     4  12  26  48  78 106 148 198 252 314 376 442
#
# _framework density 22.045638
#
# number of rings (size 3 to 8) (size 9 to 14) (size 15 to 20)
#    0.000    0.500    3.750    3.750    1.750    3.000 
#    4.500    0.000    0.000    0.000    0.000    0.000 
#    0.000    0.000    0.000    0.000    0.000    0.000 
#
# Total GULP energy -179072.615392 kJ/mol
# GULP energy per Si atom -5596.019231 kJ/mol
# Density = 2.199546 g / cm^3
# Si number density = 22.045638 Si / 1000 Ang^3
#
#
#
# Elastic Constant Matrix: (Units=GPa)
#
#
# Indices 1 2 3 4 5 6 
#
# 1 115.2649 55.1855 35.9718 0.0000 0.0000 0.0000
# 2 55.1855 152.9899 91.0534 0.0000 0.0000 0.0000
# 3 35.9718 91.0534 119.7729 0.0000 0.0000 0.0000
# 4 0.0000 0.0000 0.0000 49.7209 0.0000 0.0000
# 5 0.0000 0.0000 0.0000 0.0000 34.8707 0.0000
# 6 0.0000 0.0000 0.0000 0.0000 0.0000 43.6035
#
#
#
# Elastic Compliance Matrix: (Units=1/GPa)
#
#
# Indices 1 2 3 4 5 6 
#
# 1 0.010503 -0.003491 -0.000501 0.000000 0.000000 0.000000
# 2 -0.003491 0.013098 -0.008909 0.000000 0.000000 0.000000
# 3 -0.000501 -0.008909 0.015272 0.000000 0.000000 0.000000
# 4 0.000000 0.000000 0.000000 0.020112 0.000000 0.000000
# 5 0.000000 0.000000 0.000000 0.000000 0.028677 0.000000
# 6 0.000000 0.000000 0.000000 0.000000 0.000000 0.022934
#
#
# Mechanical properties :
#
#
# Convention : Reuss Voigt Hill
#
# Bulk Modulus (GPa) = 76.49567 83.60545 80.05056
# Shear Modulus (GPa) = 35.52299 39.36015 37.44157
#
# Velocity S-wave (km/s) = 4.01850 4.22998 4.12560
# Velocity P-wave (km/s) = 7.50368 7.86531 7.68662
#
# Compressibility (1/GPa) = 0.01307263
#
# Stress axis : x y z
#
# Youngs Moduli (GPa) = 95.20959 76.35043 65.47906
#
# Poissons Ratio (x) = 0.26650 0.03280
# Poissons Ratio (y) = 0.33233 0.58333
# Poissons Ratio (z) = 0.04769 0.68018
#
# Static dielectric constant tensor:
#      x y z
#    x 1.806880 0.000000 0.000000 
#    y 0.000000 1.830200 0.000000 
#    z 0.000000 0.000000 1.791640 
# 
# From -- ./inp_files/43586.got.cif
#   From: 2010.05.17/outbox.cif.g08.bks.cpg/sg52_22_cif.got.tgz:43586.got - 2010.06.03 12:15:38.
