data_PCOD9413297
_publ_section_title
;
Structure prediction by ZEFSAII (Michael W. Deem and Ramdas Pophale) SiO2 
 PCOD9413297
Probable space group: P N N A
;
_chemical_formula_sum "Si O2"
_cell_formula_units_Z 32
_cell_length_a 13.703282
_cell_length_b 11.736904
_cell_length_c 7.870080
_cell_angle_alpha 90.000000
_cell_angle_beta 90.000000
_cell_angle_gamma 90.000000
_cell_volume 1265.777276
_symmetry_space_group_name_H-M "P N N A"
_symmetry_group_IT_number 52
_symmetry_cell_setting 'orthorhombic'
loop_
_space_group_symop_operation_xyz
x,y,z
1/2-x,-y,z
x,1/2-y,1/2-z
1/2-x,1/2+y,1/2-z
-x,-y,-z
1/2+x,y,-z
-x,1/2+y,1/2+z
1/2+x,1/2-y,1/2+z
loop_
_atom_site_type_symbol
_atom_site_label
_atom_site_fract_x
_atom_site_fract_y
_atom_site_fract_z
Si Si1 0.616638 0.096644 0.034306
Si Si2 0.691684 0.602616 0.919590
Si Si3 0.341480 0.750000 0.250000
Si Si4 0.332957 0.380267 0.701348
Si Si5 0.526632 0.750000 0.750000
O O1 0.724424 0.117495 0.119900
O O2 0.542579 0.177678 0.130559
O O3 0.605066 0.961508 0.075244
O O4 0.607944 0.143510 0.841384
O O5 0.750000 0.500000 0.830780
O O6 0.772697 0.700783 0.898950
O O7 0.596744 0.657844 0.839013
O O8 0.666295 0.566100 0.110073
O O9 0.361914 0.250000 0.750000
#
# Coordination Sequence:
#
# PCOD9413297 Si02
#       5
#     8   8   4   8   4
#     4  11  23  45  74 113 154 208 260 331 394 489
#     4  11  24  44  74 106 147 215 254 337 399 483
#     4  11  24  44  74 107 160 210 265 310 428 480
#     4  11  22  46  80 107 155 206 262 318 418 477
#     4  11  26  48  72 115 158 196 279 330 398 482
#
# _framework density 25.280906999999999
#
# number of rings (size 3 to 8) (size 9 to 14) (size 15 to 20)
#    0.000    1.000    6.250    0.000    3.500    1.000 
#    2.250    2.500    2.750    0.000    0.000    0.000 
#    0.000    0.000    0.000    0.000    0.000    0.000 
#
# Total GULP energy -178642.197369 kJ/mol
# GULP energy per Si atom -5582.568668 kJ/mol
# Density = 2.522337 g / cm^3
# Si number density = 25.280907 Si / 1000 Ang^3
#
#
#
# Elastic Constant Matrix: (Units=GPa)
#
#
# Indices 1 2 3 4 5 6 
#
# 1 102.1444 64.1001 49.1540 0.0000 0.0000 0.0000
# 2 64.1001 153.7185 50.7047 0.0000 0.0000 0.0000
# 3 49.1540 50.7047 122.7937 0.0000 0.0000 0.0000
# 4 0.0000 0.0000 0.0000 158.3661 0.0000 0.0000
# 5 0.0000 0.0000 0.0000 0.0000 -199.9540 0.0000
# 6 0.0000 0.0000 0.0000 0.0000 0.0000 46.7656
#
#
#
# Elastic Compliance Matrix: (Units=1/GPa)
#
#
# Indices 1 2 3 4 5 6 
#
# 1 0.014702 -0.004850 -0.003882 0.000000 0.000000 0.000000
# 2 -0.004850 0.009131 -0.001829 0.000000 0.000000 0.000000
# 3 -0.003882 -0.001829 0.010453 0.000000 0.000000 0.000000
# 4 0.000000 0.000000 0.000000 0.006314 0.000000 0.000000
# 5 0.000000 0.000000 0.000000 0.000000 -0.005001 0.000000
# 6 0.000000 0.000000 0.000000 0.000000 0.000000 0.021383
#
#
# Mechanical properties :
#
#
# Convention : Reuss Voigt Hill
#
# Bulk Modulus (GPa) = 75.96926 78.50826 77.23876
# Shear Modulus (GPa) = 60.61069 15.34871 37.97970
#
# Velocity S-wave (km/s) = 4.90173 2.46667 3.88017
# Velocity P-wave (km/s) = 7.88360 6.26374 7.11989
#
# Compressibility (1/GPa) = 0.01316322
#
# Stress axis : x y z
#
# Youngs Moduli (GPa) = 68.01797 109.51505 95.66507
#
# Poissons Ratio (x) = 0.53115 0.37142
# Poissons Ratio (y) = 0.32989 0.17498
# Poissons Ratio (z) = 0.26408 0.20031
#
# Static dielectric constant tensor:
#      x y z
#    x 2.003930 0.000000 0.000000 
#    y 0.000000 2.118700 0.000000 
#    z 0.000000 0.000000 2.009880 
# 
# From -- ./inp_files/9723.got.cif
#   From: 2010.05.17/outbox.cif.g08.bks.cpg/sg52_5_cif.got.tgz:9723.got - 2010.06.03 12:15:38.
