data_PCOD9413322
_publ_section_title
;
Structure prediction by ZEFSAII (Michael W. Deem and Ramdas Pophale) SiO2 
 PCOD9413322
Probable space group: P N N A
;
_chemical_formula_sum "Si O2"
_cell_formula_units_Z 48
_cell_length_a 8.928534
_cell_length_b 9.290676
_cell_length_c 24.661606
_cell_angle_alpha 90.000000
_cell_angle_beta 90.000000
_cell_angle_gamma 90.000000
_cell_volume 2045.732415
_symmetry_space_group_name_H-M "P N N A"
_symmetry_group_IT_number 52
_symmetry_cell_setting 'orthorhombic'
loop_
_space_group_symop_operation_xyz
x,y,z
1/2-x,-y,z
x,1/2-y,1/2-z
1/2-x,1/2+y,1/2-z
-x,-y,-z
1/2+x,y,-z
-x,1/2+y,1/2+z
1/2+x,1/2-y,1/2+z
loop_
_atom_site_type_symbol
_atom_site_label
_atom_site_fract_x
_atom_site_fract_y
_atom_site_fract_z
Si Si1 0.074083 0.462383 0.782253
Si Si2 0.075955 0.844213 0.991440
Si Si3 0.546401 0.808074 0.825843
Si Si4 0.381673 0.792269 0.333380
Si Si5 0.315203 0.654231 0.042474
Si Si6 0.095245 0.946252 0.873638
O O1 0.250000 0.500000 0.781408
O O2 0.044165 0.340660 0.828001
O O3 0.017761 0.391944 0.726372
O O4 0.959442 0.590552 0.795674
O O5 0.135517 0.868646 0.930036
O O6 0.959881 0.712044 0.988899
O O7 0.202316 0.787347 0.031563
O O8 0.000000 0.000000 0.000000
O O9 0.720158 0.770527 0.817414
O O10 0.510561 0.912883 0.876019
O O11 0.354722 0.854009 0.393948
O O12 0.502628 0.666599 0.339104
O O13 0.250000 0.500000 0.024958
O O14 0.250000 0.000000 0.849130
#
# Coordination Sequence:
#
# PCOD9413322 Si02
#       6
#     8   8   8   8   8   8
#     4  11  25  46  68  97 134 177 225 277 338 409
#     4  11  23  40  66  96 131 174 224 281 342 408
#     4  11  24  42  67  97 132 176 224 280 338 405
#     4  11  25  44  69 100 135 178 228 282 342 410
#     4  11  23  43  67  98 136 179 229 286 348 416
#     4  11  23  41  64  96 132 175 222 274 337 402
#
# _framework density 23.463480000000001
#
# number of rings (size 3 to 8) (size 9 to 14) (size 15 to 20)
#    0.000    1.000    0.000    6.500    0.000   10.000 
#    0.000   10.000    0.000    0.000    0.000    0.000 
#    0.000    0.000    0.000    0.000    0.000    0.000 
#
# Total GULP energy -268436.164917 kJ/mol
# GULP energy per Si atom -5592.420102 kJ/mol
# Density = 2.341008 g / cm^3
# Si number density = 23.463480 Si / 1000 Ang^3
#
#
#
# Elastic Constant Matrix: (Units=GPa)
#
#
# Indices 1 2 3 4 5 6 
#
# 1 170.7680 64.8506 24.7251 0.0000 0.0000 0.0000
# 2 64.8506 123.9782 5.9130 0.0000 0.0000 0.0000
# 3 24.7251 5.9130 35.6221 0.0000 0.0000 0.0000
# 4 0.0000 0.0000 0.0000 12.7664 0.0000 0.0000
# 5 0.0000 0.0000 0.0000 0.0000 -10.9584 0.0000
# 6 0.0000 0.0000 0.0000 0.0000 0.0000 54.0680
#
#
#
# Elastic Compliance Matrix: (Units=1/GPa)
#
#
# Indices 1 2 3 4 5 6 
#
# 1 0.008090 -0.003996 -0.004952 0.000000 0.000000 0.000000
# 2 -0.003996 0.010104 0.001096 0.000000 0.000000 0.000000
# 3 -0.004952 0.001096 0.031328 0.000000 0.000000 0.000000
# 4 0.000000 0.000000 0.000000 0.078331 0.000000 0.000000
# 5 0.000000 0.000000 0.000000 0.000000 -0.091254 0.000000
# 6 0.000000 0.000000 0.000000 0.000000 0.000000 0.018495
#
#
# Mechanical properties :
#
#
# Convention : Reuss Voigt Hill
#
# Bulk Modulus (GPa) = 29.56957 57.92731 43.74844
# Shear Modulus (GPa) = 60.92396 26.83384 43.87890
#
# Velocity S-wave (km/s) = 5.10116 3.38545 4.32915
# Velocity P-wave (km/s) = 6.87935 6.32642 6.60867
#
# Compressibility (1/GPa) = 0.03381855
#
# Stress axis : x y z
#
# Youngs Moduli (GPa) = 123.60461 98.97342 31.92052
#
# Poissons Ratio (x) = 0.39547 0.15808
# Poissons Ratio (y) = 0.49389 -0.03499
# Poissons Ratio (z) = 0.61211 -0.10850
#
# Static dielectric constant tensor:
#      x y z
#    x 2.090130 0.000000 0.000000 
#    y 0.000000 1.909780 0.000000 
#    z 0.000000 0.000000 1.964320 
# 
# From -- ./inp_files/44367.got.cif
#   From: 2010.05.17/outbox.cif.g08.bks.cpg/sg52_23_cif.got.tgz:44367.got - 2010.06.03 12:15:38.
