data_PCOD9413121
_publ_section_title
;
Structure prediction by ZEFSAII (Michael W. Deem and Ramdas Pophale) SiO2 
 PCOD9413121
Probable space group: P N N A
;
_chemical_formula_sum "Si O2"
_cell_formula_units_Z 40
_cell_length_a 17.086815
_cell_length_b 8.662604
_cell_length_c 11.342656
_cell_angle_alpha 90.000000
_cell_angle_beta 90.000000
_cell_angle_gamma 90.000000
_cell_volume 1678.898109
_symmetry_space_group_name_H-M "P N N A"
_symmetry_group_IT_number 52
_symmetry_cell_setting 'orthorhombic'
loop_
_space_group_symop_operation_xyz
x,y,z
1/2-x,-y,z
x,1/2-y,1/2-z
1/2-x,1/2+y,1/2-z
-x,-y,-z
1/2+x,y,-z
-x,1/2+y,1/2+z
1/2+x,1/2-y,1/2+z
loop_
_atom_site_type_symbol
_atom_site_label
_atom_site_fract_x
_atom_site_fract_y
_atom_site_fract_z
Si Si1 0.551741 0.181820 0.133288
Si Si2 0.102010 0.851193 0.467985
Si Si3 0.028020 0.593452 0.799169
Si Si4 0.149819 0.415904 0.211044
Si Si5 0.839241 0.015080 0.975248
O O1 0.593739 0.250000 0.250000
O O2 0.478215 0.291428 0.098936
O O3 0.520995 0.477062 0.309327
O O4 0.607987 0.121596 0.030756
O O5 0.076387 0.945719 0.583809
O O6 0.135533 0.687216 0.507605
O O7 0.162297 0.950401 0.388094
O O8 0.063469 0.750000 0.750000
O O9 0.938089 0.626992 0.832046
O O10 0.187290 0.250000 0.250000
O O11 0.154584 0.504732 0.334201
O O12 0.750000 0.000000 0.012679
#
# Coordination Sequence:
#
# PCOD9413121 Si02
#       5
#     8   8   8   8   8
#     4  12  23  43  71 102 135 178 234 298 350 412
#     4  12  23  45  72 105 141 174 232 296 359 405
#     4  11  21  38  70 104 135 172 224 290 354 409
#     4  11  24  41  70 107 137 173 228 293 357 419
#     4  12  27  47  67  97 146 192 234 284 349 430
#
# _framework density 23.825150000000001
#
# number of rings (size 3 to 8) (size 9 to 14) (size 15 to 20)
#    0.000    0.400    6.000    4.200    2.800    1.600 
#    3.600    0.000    0.000    0.000    0.000    0.000 
#    0.000    0.000    0.000    0.000    0.000    0.000 
#
# Total GULP energy -222984.755336 kJ/mol
# GULP energy per Si atom -5574.618883 kJ/mol
# Density = 2.377092 g / cm^3
# Si number density = 23.825150 Si / 1000 Ang^3
#
#
#
# Elastic Constant Matrix: (Units=GPa)
#
#
# Indices 1 2 3 4 5 6 
#
# 1 74.2732 33.3227 31.4922 0.0000 0.0000 0.0000
# 2 33.3227 99.7890 10.2718 0.0000 0.0000 0.0000
# 3 31.4922 10.2718 75.4657 0.0000 0.0000 0.0000
# 4 0.0000 0.0000 0.0000 55.7345 0.0000 0.0000
# 5 0.0000 0.0000 0.0000 0.0000 -12.5899 0.0000
# 6 0.0000 0.0000 0.0000 0.0000 0.0000 23.6289
#
#
#
# Elastic Compliance Matrix: (Units=1/GPa)
#
#
# Indices 1 2 3 4 5 6 
#
# 1 0.019025 -0.005614 -0.007175 0.000000 0.000000 0.000000
# 2 -0.005614 0.011820 0.000734 0.000000 0.000000 0.000000
# 3 -0.007175 0.000734 0.016145 0.000000 0.000000 0.000000
# 4 0.000000 0.000000 0.000000 0.017942 0.000000 0.000000
# 5 0.000000 0.000000 0.000000 0.000000 -0.079429 0.000000
# 6 0.000000 0.000000 0.000000 0.000000 0.000000 0.042321
#
#
# Mechanical properties :
#
#
# Convention : Reuss Voigt Hill
#
# Bulk Modulus (GPa) = 43.70663 44.41126 44.05894
# Shear Modulus (GPa) = 83.94515 24.98413 54.46464
#
# Velocity S-wave (km/s) = 5.94225 3.24179 4.78642
# Velocity P-wave (km/s) = 8.09104 5.71780 7.00565
#
# Compressibility (1/GPa) = 0.02287982
#
# Stress axis : x y z
#
# Youngs Moduli (GPa) = 52.56251 84.59930 61.93751
#
# Poissons Ratio (x) = 0.47498 0.44440
# Poissons Ratio (y) = 0.29511 -0.04546
# Poissons Ratio (z) = 0.37714 -0.06210
#
# Static dielectric constant tensor:
#      x y z
#    x 1.941910 0.000000 0.000000 
#    y 0.000000 2.011000 0.000000 
#    z 0.000000 0.000000 1.943370 
# 
# From -- ./inp_files/20309.got.cif
#   From: 2010.05.17/outbox.cif.g08.bks.cpg/sg52_11_cif.got.tgz:20309.got - 2010.06.03 12:15:38.
