data_PCOD9413661
_publ_section_title
;
Structure prediction by ZEFSAII (Michael W. Deem and Ramdas Pophale) SiO2 
 PCOD9413661
Probable space group: P N N A
;
_chemical_formula_sum "Si O2"
_cell_formula_units_Z 32
_cell_length_a 7.856718
_cell_length_b 5.273569
_cell_length_c 29.487623
_cell_angle_alpha 90.000000
_cell_angle_beta 90.000000
_cell_angle_gamma 90.000000
_cell_volume 1221.759047
_symmetry_space_group_name_H-M "P N N A"
_symmetry_group_IT_number 52
_symmetry_cell_setting 'orthorhombic'
loop_
_space_group_symop_operation_xyz
x,y,z
1/2-x,-y,z
x,1/2-y,1/2-z
1/2-x,1/2+y,1/2-z
-x,-y,-z
1/2+x,y,-z
-x,1/2+y,1/2+z
1/2+x,1/2-y,1/2+z
loop_
_atom_site_type_symbol
_atom_site_label
_atom_site_fract_x
_atom_site_fract_y
_atom_site_fract_z
Si Si1 0.750000 0.500000 0.294556
Si Si2 0.453397 0.791741 0.408862
Si Si3 0.750000 0.500000 0.991215
Si Si4 0.750000 0.500000 0.146622
Si Si5 0.954417 0.750000 0.750000
Si Si6 0.250000 0.500000 0.165963
Si Si7 0.750000 0.500000 0.446596
O O1 0.760807 0.749548 0.324159
O O2 0.919280 0.472094 0.265538
O O3 0.397829 0.921595 0.455708
O O4 0.582707 0.977848 0.383155
O O5 0.574281 0.546425 0.418370
O O6 0.294413 0.786090 0.374052
O O7 0.753844 0.249758 0.022229
O O8 0.858983 0.648973 0.794377
#
# Coordination Sequence:
#
# PCOD9413661 Si02
#       7
#     4   8   4   4   4   4   4
#     4  12  28  50  85 108 163 215 280 327 422 501
#     4  11  26  50  78 117 165 213 272 346 415 506
#     4  11  27  50  81 122 158 212 276 349 418 492
#     4  12  26  50  78 118 154 220 270 332 416 509
#     4  12  28  50  84 120 168 216 284 350 420 510
#     4  11  28  48  74 124 163 211 277 349 422 477
#     4  12  25  50  84 116 164 216 275 337 426 515
#
# _framework density 26.191742999999999
#
# number of rings (size 3 to 8) (size 9 to 14) (size 15 to 20)
#    0.000    0.500    2.500    3.750    3.500    4.000 
#    0.000    0.000    0.000    0.000    0.000    0.000 
#    0.000    0.000    0.000    0.000    0.000    0.000 
#
# Total GULP energy -178385.277878 kJ/mol
# GULP energy per Si atom -5574.539934 kJ/mol
# Density = 2.613213 g / cm^3
# Si number density = 26.191743 Si / 1000 Ang^3
#
#
#
# Elastic Constant Matrix: (Units=GPa)
#
#
# Indices 1 2 3 4 5 6 
#
# 1 97.8491 66.8285 58.6030 0.0000 0.0000 0.0000
# 2 66.8285 220.9299 105.4575 0.0000 0.0000 0.0000
# 3 58.6030 105.4575 200.2435 0.0000 0.0000 0.0000
# 4 0.0000 0.0000 0.0000 50.4727 0.0000 0.0000
# 5 0.0000 0.0000 0.0000 0.0000 44.5852 0.0000
# 6 0.0000 0.0000 0.0000 0.0000 0.0000 55.4812
#
#
#
# Elastic Compliance Matrix: (Units=1/GPa)
#
#
# Indices 1 2 3 4 5 6 
#
# 1 0.013722 -0.002984 -0.002444 0.000000 0.000000 0.000000
# 2 -0.002984 0.006695 -0.002653 0.000000 0.000000 0.000000
# 3 -0.002444 -0.002653 0.007106 0.000000 0.000000 0.000000
# 4 0.000000 0.000000 0.000000 0.019813 0.000000 0.000000
# 5 0.000000 0.000000 0.000000 0.000000 0.022429 0.000000
# 6 0.000000 0.000000 0.000000 0.000000 0.000000 0.018024
#
#
# Mechanical properties :
#
#
# Convention : Reuss Voigt Hill
#
# Bulk Modulus (GPa) = 88.01804 108.97783 98.49794
# Shear Modulus (GPa) = 46.40896 49.31672 47.86284
#
# Velocity S-wave (km/s) = 4.21395 4.34396 4.27945
# Velocity P-wave (km/s) = 7.57329 8.17667 7.88076
#
# Compressibility (1/GPa) = 0.01136131
#
# Stress axis : x y z
#
# Youngs Moduli (GPa) = 72.87744 149.36210 140.71997
#
# Poissons Ratio (x) = 0.44568 0.34396
# Poissons Ratio (y) = 0.21746 0.37329
# Poissons Ratio (z) = 0.17814 0.39621
#
# Static dielectric constant tensor:
#      x y z
#    x 2.820080 0.000000 0.000000 
#    y 0.000000 2.020210 0.000000 
#    z 0.000000 0.000000 2.086930 
# 
# From -- ./inp_files/44110.got.cif
#   From: 2010.05.17/outbox.cif.g08.bks.cpg/sg52_23_cif.got.tgz:44110.got - 2010.06.03 12:15:38.
