data_PCOD9413467
_publ_section_title
;
Structure prediction by ZEFSAII (Michael W. Deem and Ramdas Pophale) SiO2 
 PCOD9413467
Probable space group: P N N A
;
_chemical_formula_sum "Si O2"
_cell_formula_units_Z 32
_cell_length_a 18.334748
_cell_length_b 5.380386
_cell_length_c 13.198214
_cell_angle_alpha 90.000000
_cell_angle_beta 90.000000
_cell_angle_gamma 90.000000
_cell_volume 1301.977698
_symmetry_space_group_name_H-M "P N N A"
_symmetry_group_IT_number 52
_symmetry_cell_setting 'orthorhombic'
loop_
_space_group_symop_operation_xyz
x,y,z
1/2-x,-y,z
x,1/2-y,1/2-z
1/2-x,1/2+y,1/2-z
-x,-y,-z
1/2+x,y,-z
-x,1/2+y,1/2+z
1/2+x,1/2-y,1/2+z
loop_
_atom_site_type_symbol
_atom_site_label
_atom_site_fract_x
_atom_site_fract_y
_atom_site_fract_z
Si Si1 0.632359 0.780798 0.630400
Si Si2 0.879627 0.250000 0.250000
Si Si3 0.250000 0.000000 0.857924
Si Si4 0.337832 0.767359 0.015466
Si Si5 0.038331 0.131241 0.638213
O O1 0.644486 0.750000 0.750000
O O2 0.656883 0.527308 0.575724
O O3 0.545892 0.830623 0.613218
O O4 0.667791 0.031635 0.587846
O O5 0.821220 0.446130 0.292828
O O6 0.931020 0.354154 0.161011
O O7 0.226762 0.219102 0.933238
O O8 0.411249 0.742074 0.948623
O O9 0.047494 0.250000 0.750000
#
# Coordination Sequence:
#
# PCOD9413467 Si02
#       5
#     8   4   4   8   8
#     4  11  27  46  76 103 145 189 255 308 355 412
#     4  12  24  46  70 114 150 192 226 302 382 442
#     4  12  26  44  74 102 158 194 244 282 364 460
#     4  12  25  47  70 110 143 200 239 295 360 437
#     4  11  24  42  73 111 148 181 234 307 381 438
#
# _framework density 24.577995000000001
#
# number of rings (size 3 to 8) (size 9 to 14) (size 15 to 20)
#    0.000    0.500    2.500    5.250    7.000    3.000 
#    0.000    2.500    0.000    0.000    0.000    0.000 
#    0.000    0.000    0.000    0.000    0.000    0.000 
#
# Total GULP energy -179259.511849 kJ/mol
# GULP energy per Si atom -5601.859745 kJ/mol
# Density = 2.452205 g / cm^3
# Si number density = 24.577995 Si / 1000 Ang^3
#
#
#
# Elastic Constant Matrix: (Units=GPa)
#
#
# Indices 1 2 3 4 5 6 
#
# 1 101.3978 29.8964 26.5981 0.0000 0.0000 0.0000
# 2 29.8964 158.6231 53.4140 0.0000 0.0000 0.0000
# 3 26.5981 53.4140 101.5008 0.0000 0.0000 0.0000
# 4 0.0000 0.0000 0.0000 56.7543 0.0000 0.0000
# 5 0.0000 0.0000 0.0000 0.0000 23.4537 0.0000
# 6 0.0000 0.0000 0.0000 0.0000 0.0000 21.5846
#
#
#
# Elastic Compliance Matrix: (Units=1/GPa)
#
#
# Indices 1 2 3 4 5 6 
#
# 1 0.010812 -0.001317 -0.002140 0.000000 0.000000 0.000000
# 2 -0.001317 0.007822 -0.003771 0.000000 0.000000 0.000000
# 3 -0.002140 -0.003771 0.012398 0.000000 0.000000 0.000000
# 4 0.000000 0.000000 0.000000 0.017620 0.000000 0.000000
# 5 0.000000 0.000000 0.000000 0.000000 0.042637 0.000000
# 6 0.000000 0.000000 0.000000 0.000000 0.000000 0.046329
#
#
# Mechanical properties :
#
#
# Convention : Reuss Voigt Hill
#
# Bulk Modulus (GPa) = 60.33271 64.59319 62.46295
# Shear Modulus (GPa) = 31.72583 37.13274 34.42928
#
# Velocity S-wave (km/s) = 3.59670 3.89113 3.74681
# Velocity P-wave (km/s) = 6.46909 6.82099 6.64736
#
# Compressibility (1/GPa) = 0.01657476
#
# Stress axis : x y z
#
# Youngs Moduli (GPa) = 92.49095 127.83736 80.66081
#
# Poissons Ratio (x) = 0.16838 0.17262
# Poissons Ratio (y) = 0.12182 0.30420
# Poissons Ratio (z) = 0.19794 0.48212
#
# Static dielectric constant tensor:
#      x y z
#    x 1.911710 0.000000 0.000000 
#    y 0.000000 2.066340 0.000000 
#    z 0.000000 0.000000 1.918950 
# 
# From -- ./inp_files/27725.got.cif
#   From: 2010.05.17/outbox.cif.g08.bks.cpg/sg52_14_cif.got.tgz:27725.got - 2010.06.03 12:15:38.
