data_PCOD9413234
_publ_section_title
;
Structure prediction by ZEFSAII (Michael W. Deem and Ramdas Pophale) SiO2 
 PCOD9413234
Probable space group: P N N A
;
_chemical_formula_sum "Si O2"
_cell_formula_units_Z 48
_cell_length_a 28.468601
_cell_length_b 9.437221
_cell_length_c 8.840217
_cell_angle_alpha 90.000000
_cell_angle_beta 90.000000
_cell_angle_gamma 90.000000
_cell_volume 2375.052296
_symmetry_space_group_name_H-M "P N N A"
_symmetry_group_IT_number 52
_symmetry_cell_setting 'orthorhombic'
loop_
_space_group_symop_operation_xyz
x,y,z
1/2-x,-y,z
x,1/2-y,1/2-z
1/2-x,1/2+y,1/2-z
-x,-y,-z
1/2+x,y,-z
-x,1/2+y,1/2+z
1/2+x,1/2-y,1/2+z
loop_
_atom_site_type_symbol
_atom_site_label
_atom_site_fract_x
_atom_site_fract_y
_atom_site_fract_z
Si Si1 0.121574 0.602914 0.326044
Si Si2 0.274808 0.146201 0.132695
Si Si3 0.122373 0.600812 0.690430
Si Si4 0.545490 0.095523 0.682113
Si Si5 0.545040 0.402840 0.178866
Si Si6 0.278293 0.140825 0.640754
O O1 0.104618 0.750000 0.250000
O O2 0.176933 0.594614 0.289287
O O3 0.120217 0.601808 0.508618
O O4 0.090517 0.479098 0.256789
O O5 0.247872 0.250000 0.250000
O O6 0.250000 0.000000 0.083599
O O7 0.288041 0.256348 0.000187
O O8 0.101845 0.750000 0.750000
O O9 0.091157 0.473887 0.751278
O O10 0.174336 0.597406 0.767700
O O11 0.538955 0.250000 0.750000
O O12 0.550680 0.104500 0.501577
O O13 0.499849 0.000268 0.714492
O O14 0.537406 0.250000 0.250000
O O15 0.250454 0.250000 0.750000
O O16 0.250000 0.000000 0.601660
#
# Coordination Sequence:
#
# PCOD9413234 Si02
#       6
#     8   8   8   8   8   8
#     4  11  23  41  68  93 132 176 222 278 338 401
#     4  11  24  44  67 100 136 183 231 287 352 414
#     4  11  22  41  65  97 129 177 227 271 338 401
#     4  11  25  44  67  99 134 175 217 278 342 401
#     4  11  25  44  68  99 132 173 224 274 337 410
#     4  11  23  42  67  98 137 184 234 287 345 408
#
# _framework density 20.210080999999999
#
# number of rings (size 3 to 8) (size 9 to 14) (size 15 to 20)
#    0.000    1.000    3.333    4.000    2.333    6.667 
#    3.000    0.000    0.000    0.000    0.000    0.000 
#    0.000    0.000    0.000    0.000    0.000    0.000 
#
# Total GULP energy -267967.205448 kJ/mol
# GULP energy per Si atom -5582.650114 kJ/mol
# Density = 2.016408 g / cm^3
# Si number density = 20.210081 Si / 1000 Ang^3
#
#
#
# Elastic Constant Matrix: (Units=GPa)
#
#
# Indices 1 2 3 4 5 6 
#
# 1 84.7341 80.9035 53.9354 0.0000 0.0000 0.0000
# 2 80.9035 193.4500 75.1318 0.0000 0.0000 0.0000
# 3 53.9354 75.1318 103.6500 0.0000 0.0000 0.0000
# 4 0.0000 0.0000 0.0000 41.6657 0.0000 0.0000
# 5 0.0000 0.0000 0.0000 0.0000 36.8532 0.0000
# 6 0.0000 0.0000 0.0000 0.0000 0.0000 42.6702
#
#
#
# Elastic Compliance Matrix: (Units=1/GPa)
#
#
# Indices 1 2 3 4 5 6 
#
# 1 0.022680 -0.006822 -0.006857 0.000000 0.000000 0.000000
# 2 -0.006822 0.009247 -0.003153 0.000000 0.000000 0.000000
# 3 -0.006857 -0.003153 0.015501 0.000000 0.000000 0.000000
# 4 0.000000 0.000000 0.000000 0.024001 0.000000 0.000000
# 5 0.000000 0.000000 0.000000 0.000000 0.027135 0.000000
# 6 0.000000 0.000000 0.000000 0.000000 0.000000 0.023436
#
#
# Mechanical properties :
#
#
# Convention : Reuss Voigt Hill
#
# Bulk Modulus (GPa) = 72.64898 89.08616 80.86757
# Shear Modulus (GPa) = 31.20143 35.69539 33.44841
#
# Velocity S-wave (km/s) = 3.93345 4.20720 4.07263
# Velocity P-wave (km/s) = 7.52691 8.23264 7.88767
#
# Compressibility (1/GPa) = 0.01376482
#
# Stress axis : x y z
#
# Youngs Moduli (GPa) = 44.09258 108.14559 64.51176
#
# Poissons Ratio (x) = 0.73777 0.44233
# Poissons Ratio (y) = 0.30080 0.20339
# Poissons Ratio (z) = 0.30232 0.34096
#
# Static dielectric constant tensor:
#      x y z
#    x 1.718470 0.000000 0.000000 
#    y 0.000000 1.719900 0.000000 
#    z 0.000000 0.000000 1.764620 
# 
# From -- ./inp_files/15519.got.cif
#   From: 2010.05.17/outbox.cif.g08.bks.cpg/sg52_8_cif.got.tgz:15519.got - 2010.06.03 12:15:38.
