data_PCOD9413557
_publ_section_title
;
Structure prediction by ZEFSAII (Michael W. Deem and Ramdas Pophale) SiO2 
 PCOD9413557
Probable space group: P N N A
;
_chemical_formula_sum "Si O2"
_cell_formula_units_Z 32
_cell_length_a 10.877487
_cell_length_b 6.815644
_cell_length_c 19.876482
_cell_angle_alpha 90.000000
_cell_angle_beta 90.000000
_cell_angle_gamma 90.000000
_cell_volume 1473.584316
_symmetry_space_group_name_H-M "P N N A"
_symmetry_group_IT_number 52
_symmetry_cell_setting 'orthorhombic'
loop_
_space_group_symop_operation_xyz
x,y,z
1/2-x,-y,z
x,1/2-y,1/2-z
1/2-x,1/2+y,1/2-z
-x,-y,-z
1/2+x,y,-z
-x,1/2+y,1/2+z
1/2+x,1/2-y,1/2+z
loop_
_atom_site_type_symbol
_atom_site_label
_atom_site_fract_x
_atom_site_fract_y
_atom_site_fract_z
Si Si1 0.048712 0.192316 0.041071
Si Si2 0.622847 0.062334 0.425641
Si Si3 0.385666 0.588760 0.307306
Si Si4 0.635399 0.363144 0.315110
O O1 0.101285 0.143628 0.113841
O O2 0.948457 0.364262 0.055510
O O3 0.142324 0.306994 0.992299
O O4 0.000000 0.000000 0.000000
O O5 0.576553 0.215888 0.370613
O O6 0.750000 0.000000 0.394209
O O7 0.250000 0.500000 0.301114
O O8 0.386291 0.750000 0.250000
O O9 0.513559 0.477233 0.292746
O O10 0.750000 0.500000 0.340654
O O11 0.685671 0.250000 0.250000
#
# Coordination Sequence:
#
# PCOD9413557 Si02
#       4
#     8   8   8   8
#     4  11  25  46  70 106 145 199 245 315 377 460
#     4  11  25  41  72 104 141 187 254 309 377 444
#     4  12  27  46  74 106 155 200 254 314 391 461
#     4  12  24  44  72 104 151 194 255 317 381 455
#
# _framework density 21.715758000000001
#
# number of rings (size 3 to 8) (size 9 to 14) (size 15 to 20)
#    0.000    0.500    2.500    5.250    3.500    1.000 
#    0.000    0.000    0.000    0.000    0.000    0.000 
#    0.000    0.000    0.000    0.000    0.000    0.000 
#
# Total GULP energy -178319.916533 kJ/mol
# GULP energy per Si atom -5572.497392 kJ/mol
# Density = 2.166633 g / cm^3
# Si number density = 21.715758 Si / 1000 Ang^3
#
#
#
# Elastic Constant Matrix: (Units=GPa)
#
#
# Indices 1 2 3 4 5 6 
#
# 1 106.6628 58.7306 9.3145 0.0000 0.0000 0.0000
# 2 58.7306 142.2791 68.8026 0.0000 0.0000 0.0000
# 3 9.3145 68.8026 130.0393 0.0000 0.0000 0.0000
# 4 0.0000 0.0000 0.0000-1876.5275 0.0000 0.0000
# 5 0.0000 0.0000 0.0000 0.0000 -20.5967 0.0000
# 6 0.0000 0.0000 0.0000 0.0000 0.0000 180.8584
#
#
#
# Elastic Compliance Matrix: (Units=1/GPa)
#
#
# Indices 1 2 3 4 5 6 
#
# 1 0.012714 -0.006461 0.002508 0.000000 0.000000 0.000000
# 2 -0.006461 0.012728 -0.006272 0.000000 0.000000 0.000000
# 3 0.002508 -0.006272 0.010829 0.000000 0.000000 0.000000
# 4 0.000000 0.000000 0.000000 -0.000533 0.000000 0.000000
# 5 0.000000 0.000000 0.000000 0.000000 -0.048551 0.000000
# 6 0.000000 0.000000 0.000000 0.000000 0.000000 0.005529
#
#
# Mechanical properties :
#
#
# Convention : Reuss Voigt Hill
#
# Bulk Modulus (GPa) = 63.20631 72.51961 67.86296
# Shear Modulus (GPa) = 271.17899 -327.11092 -27.96596
#
# Velocity S-wave (km/s) = 11.18694 -12.28658 -3.59251
# Velocity P-wave (km/s) = 14.00118 12.95425 3.75636
#
# Compressibility (1/GPa) = 0.01582121
#
# Stress axis : x y z
#
# Youngs Moduli (GPa) = 78.65527 78.56669 92.34830
#
# Poissons Ratio (x) = 0.50759 -0.23157
# Poissons Ratio (y) = 0.50816 0.57916
# Poissons Ratio (z) = -0.19724 0.49273
#
# Static dielectric constant tensor:
#      x y z
#    x 1.680450 0.000000 0.000000 
#    y 0.000000 1.863750 0.000000 
#    z 0.000000 0.000000 2.940050 
# 
# From -- ./inp_files/36417.got.cif
#   From: 2010.05.17/outbox.cif.g08.bks.cpg/sg52_19_cif.got.tgz:36417.got - 2010.06.03 12:15:38.
