data_PCOD9413975
_publ_section_title
;
Structure prediction by ZEFSAII (Michael W. Deem and Ramdas Pophale) SiO2 
 PCOD9413975
Probable space group: P N N A
;
_chemical_formula_sum "Si O2"
_cell_formula_units_Z 36
_cell_length_a 9.000000
_cell_length_b 21.000000
_cell_length_c 9.000000
_cell_angle_alpha 90.000000
_cell_angle_beta 90.000000
_cell_angle_gamma 90.000000
_cell_volume 1701.000000
_symmetry_space_group_name_H-M "P N N A"
_symmetry_group_IT_number 52
_symmetry_cell_setting 'orthorhombic'
loop_
_space_group_symop_operation_xyz
x,y,z
1/2-x,-y,z
x,1/2-y,1/2-z
1/2-x,1/2+y,1/2-z
-x,-y,-z
1/2+x,y,-z
-x,1/2+y,1/2+z
1/2+x,1/2-y,1/2+z
loop_
_atom_site_type_symbol
_atom_site_label
_atom_site_fract_x
_atom_site_fract_y
_atom_site_fract_z
Si Si1 0.990789 0.922080 0.877889
Si Si2 0.750000 0.500000 0.450989
Si Si3 0.416252 0.169767 0.127859
Si Si4 0.289128 0.747839 0.595802
Si Si5 0.152310 0.318969 0.173812
O O1 0.952475 0.870909 0.751679
O O2 0.842748 0.955497 0.936513
O O3 0.125770 0.968920 0.844511
O O4 0.051668 0.890862 0.029593
O O5 0.573272 0.203566 0.141379
O O6 0.320047 0.162498 0.275263
O O7 0.314375 0.213234 0.022241
O O8 0.202667 0.750000 0.750000
O O9 0.349807 0.808099 0.503075
O O10 0.122043 0.250000 0.250000
#
# Coordination Sequence:
#
# PCOD9413975 Si02
#       5
#     8   4   8   8   8
#     4  11  19  37  58  92 127 168 215 275 303 382
#     4  10  22  34  62  94 126 176 228 260 310 374
#     4  11  20  37  56  88 129 160 203 261 318 383
#     4  11  23  34  56  89 131 167 202 249 330 405
#     4  10  20  36  58  86 135 158 198 269 328 378
#
# _framework density 21.164021000000002
#
# number of rings (size 3 to 8) (size 9 to 14) (size 15 to 20)
#    0.000    1.333    6.667    2.000    3.111    0.000 
#    0.000    0.000    0.000    0.000    0.000   26.444 
#    0.000    0.000    0.000    0.000    0.000    0.000 
#
# Total GULP energy -200493.534006 kJ/mol
# GULP energy per Si atom -5569.264833 kJ/mol
# Density = 2.111585 g / cm^3
# Si number density = 21.164021 Si / 1000 Ang^3
#
#
#
# Elastic Constant Matrix: (Units=GPa)
#
#
# Indices 1 2 3 4 5 6 
#
# 1 94.4305 26.3959 4.2082 0.0000 0.0000 0.0000
# 2 26.3959 60.1320 24.5090 0.0000 0.0000 0.0000
# 3 4.2082 24.5090 97.7771 0.0000 0.0000 0.0000
# 4 0.0000 0.0000 0.0000 49.2523 0.0000 0.0000
# 5 0.0000 0.0000 0.0000 0.0000 14.3357 0.0000
# 6 0.0000 0.0000 0.0000 0.0000 0.0000 51.2997
#
#
#
# Elastic Compliance Matrix: (Units=1/GPa)
#
#
# Indices 1 2 3 4 5 6 
#
# 1 0.012143 -0.005699 0.000906 0.000000 0.000000 0.000000
# 2 -0.005699 0.021198 -0.005068 0.000000 0.000000 0.000000
# 3 0.000906 -0.005068 0.011459 0.000000 0.000000 0.000000
# 4 0.000000 0.000000 0.000000 0.020304 0.000000 0.000000
# 5 0.000000 0.000000 0.000000 0.000000 0.069756 0.000000
# 6 0.000000 0.000000 0.000000 0.000000 0.000000 0.019493
#
#
# Mechanical properties :
#
#
# Convention : Reuss Voigt Hill
#
# Bulk Modulus (GPa) = 39.87904 40.28508 40.08206
# Shear Modulus (GPa) = 27.40725 36.12598 31.76661
#
# Velocity S-wave (km/s) = 3.60250 4.13601 3.87844
# Velocity P-wave (km/s) = 6.01563 6.47185 6.24790
#
# Compressibility (1/GPa) = 0.02507583
#
# Stress axis : x y z
#
# Youngs Moduli (GPa) = 82.35484 47.17501 87.26956
#
# Poissons Ratio (x) = 0.26887 -0.07907
# Poissons Ratio (y) = 0.46938 0.44230
# Poissons Ratio (z) = -0.07462 0.23909
#
# Static dielectric constant tensor:
#      x y z
#    x 1.868660 0.000000 0.000000 
#    y 0.000000 2.183180 0.000000 
#    z 0.000000 0.000000 2.179230 
# 
# From -- ./inp_files/7288.got.cif
#   From: 2010.05.17/outbox.ucp.g08.bks.cvg/sg52_4_cif.got.tgz:7288.got - 2010.06.11 16:30:12.
