data_PCOD9413397
_publ_section_title
;
Structure prediction by ZEFSAII (Michael W. Deem and Ramdas Pophale) SiO2 
 PCOD9413397
Probable space group: P N N A
;
_chemical_formula_sum "Si O2"
_cell_formula_units_Z 36
_cell_length_a 11.849988
_cell_length_b 5.425701
_cell_length_c 23.056880
_cell_angle_alpha 90.000000
_cell_angle_beta 90.000000
_cell_angle_gamma 90.000000
_cell_volume 1482.430381
_symmetry_space_group_name_H-M "P N N A"
_symmetry_group_IT_number 52
_symmetry_cell_setting 'orthorhombic'
loop_
_space_group_symop_operation_xyz
x,y,z
1/2-x,-y,z
x,1/2-y,1/2-z
1/2-x,1/2+y,1/2-z
-x,-y,-z
1/2+x,y,-z
-x,1/2+y,1/2+z
1/2+x,1/2-y,1/2+z
loop_
_atom_site_type_symbol
_atom_site_label
_atom_site_fract_x
_atom_site_fract_y
_atom_site_fract_z
Si Si1 0.850985 0.750000 0.750000
Si Si2 0.750000 0.500000 0.849964
Si Si3 0.625906 0.444840 0.354796
Si Si4 0.461311 0.677976 0.085982
Si Si5 0.142711 0.328689 0.973822
Si Si6 0.004462 0.750000 0.250000
O O1 0.772227 0.726896 0.806571
O O2 0.925913 0.504505 0.750702
O O3 0.635222 0.495331 0.886260
O O4 0.750000 0.500000 0.329111
O O5 0.532118 0.656357 0.369021
O O6 0.655384 0.343776 0.418482
O O7 0.568540 0.261631 0.308939
O O8 0.550471 0.514363 0.052143
O O9 0.395796 0.811378 0.032445
O O10 0.250000 0.500000 0.986354
#
# Coordination Sequence:
#
# PCOD9413397 Si02
#       6
#     4   4   8   8   8   4
#     4  12  27  51  80 116 160 209 271 350 404 502
#     4  12  24  48  80 108 156 208 266 328 418 482
#     4  12  26  47  77 113 161 216 278 348 419 501
#     4  11  24  48  75 116 155 210 272 338 420 497
#     4  11  23  44  77 111 159 208 271 343 411 499
#     4  12  29  51  78 114 162 215 281 336 416 494
#
# _framework density 24.284444000000001
#
# number of rings (size 3 to 8) (size 9 to 14) (size 15 to 20)
#    0.000    0.444    5.556    2.667    0.000    1.778 
#    4.000    0.000    0.000    0.000    0.000    0.000 
#    0.000    0.000    0.000    0.000    0.000    0.000 
#
# Total GULP energy -201071.757965 kJ/mol
# GULP energy per Si atom -5585.326610 kJ/mol
# Density = 2.422917 g / cm^3
# Si number density = 24.284444 Si / 1000 Ang^3
#
#
#
# Elastic Constant Matrix: (Units=GPa)
#
#
# Indices 1 2 3 4 5 6 
#
# 1 180.9530 71.9017 70.7665 0.0000 0.0000 0.0000
# 2 71.9017 107.2929 39.0457 0.0000 0.0000 0.0000
# 3 70.7665 39.0457 128.9820 0.0000 0.0000 0.0000
# 4 0.0000 0.0000 0.0000 33.7535 0.0000 0.0000
# 5 0.0000 0.0000 0.0000 0.0000 73.4129 0.0000
# 6 0.0000 0.0000 0.0000 0.0000 0.0000 41.6716
#
#
#
# Elastic Compliance Matrix: (Units=1/GPa)
#
#
# Indices 1 2 3 4 5 6 
#
# 1 0.008663 -0.004580 -0.003366 0.000000 0.000000 0.000000
# 2 -0.004580 0.012896 -0.001391 0.000000 0.000000 0.000000
# 3 -0.003366 -0.001391 0.010021 0.000000 0.000000 0.000000
# 4 0.000000 0.000000 0.000000 0.029627 0.000000 0.000000
# 5 0.000000 0.000000 0.000000 0.000000 0.013622 0.000000
# 6 0.000000 0.000000 0.000000 0.000000 0.000000 0.023997
#
#
# Mechanical properties :
#
#
# Convention : Reuss Voigt Hill
#
# Bulk Modulus (GPa) = 77.49091 86.73953 82.11522
# Shear Modulus (GPa) = 41.05044 45.46853 43.25948
#
# Velocity S-wave (km/s) = 4.11591 4.33174 4.22520
# Velocity P-wave (km/s) = 7.38692 7.79835 7.59542
#
# Compressibility (1/GPa) = 0.01290474
#
# Stress axis : x y z
#
# Youngs Moduli (GPa) = 115.43699 77.54419 99.79027
#
# Poissons Ratio (x) = 0.35517 0.33592
# Poissons Ratio (y) = 0.52873 0.13880
# Poissons Ratio (z) = 0.38860 0.10786
#
# Static dielectric constant tensor:
#      x y z
#    x 2.049550 0.000000 0.000000 
#    y 0.000000 1.957610 0.000000 
#    z 0.000000 0.000000 2.001580 
# 
# From -- ./inp_files/39983.got.cif
#   From: 2010.05.17/outbox.cif.g08.bks.cpg/sg52_20_cif.got.tgz:39983.got - 2010.06.03 12:15:38.
