data_PCOD9413546
_publ_section_title
;
Structure prediction by ZEFSAII (Michael W. Deem and Ramdas Pophale) SiO2 
 PCOD9413546
Probable space group: P N N A
;
_chemical_formula_sum "Si O2"
_cell_formula_units_Z 28
_cell_length_a 12.477066
_cell_length_b 5.710998
_cell_length_c 16.877036
_cell_angle_alpha 90.000000
_cell_angle_beta 90.000000
_cell_angle_gamma 90.000000
_cell_volume 1202.598498
_symmetry_space_group_name_H-M "P N N A"
_symmetry_group_IT_number 52
_symmetry_cell_setting 'orthorhombic'
loop_
_space_group_symop_operation_xyz
x,y,z
1/2-x,-y,z
x,1/2-y,1/2-z
1/2-x,1/2+y,1/2-z
-x,-y,-z
1/2+x,y,-z
-x,1/2+y,1/2+z
1/2+x,1/2-y,1/2+z
loop_
_atom_site_type_symbol
_atom_site_label
_atom_site_fract_x
_atom_site_fract_y
_atom_site_fract_z
Si Si1 0.150577 0.838565 0.053068
Si Si2 0.054138 0.648829 0.603548
Si Si3 0.064406 0.250000 0.250000
Si Si4 0.250000 0.000000 0.314767
Si Si5 0.250000 0.000000 0.797828
O O1 0.199783 0.682756 0.122408
O O2 0.250000 0.000000 0.027865
O O3 0.104434 0.722110 0.972387
O O4 0.049571 0.994937 0.080437
O O5 0.145500 0.497228 0.646147
O O6 0.008083 0.802754 0.674660
O O7 0.152090 0.046299 0.254794
O O8 0.248034 0.750000 0.750000
#
# Coordination Sequence:
#
# PCOD9413546 Si02
#       5
#     8   8   4   4   4
#     4  11  24  48  69 103 143 196 247 308 383 457
#     4  11  25  46  72 103 151 189 251 313 381 458
#     4  12  24  44  70 114 134 194 250 318 376 444
#     4  12  26  45  79 102 148 192 256 318 378 459
#     4  12  28  47  73 110 152 202 250 314 392 459
#
# _framework density 23.282917999999999
#
# number of rings (size 3 to 8) (size 9 to 14) (size 15 to 20)
#    0.000    0.571    5.714    1.714    4.000    2.286 
#    0.000    0.000    0.000    0.000    0.000    0.000 
#    0.000    0.000    0.000    0.000    0.000    0.000 
#
# Total GULP energy -155957.942496 kJ/mol
# GULP energy per Si atom -5569.926518 kJ/mol
# Density = 2.322993 g / cm^3
# Si number density = 23.282918 Si / 1000 Ang^3
#
#
#
# Elastic Constant Matrix: (Units=GPa)
#
#
# Indices 1 2 3 4 5 6 
#
# 1 167.5273 15.1432 32.1163 0.0000 0.0000 0.0000
# 2 15.1432 44.2549 23.5428 0.0000 0.0000 0.0000
# 3 32.1163 23.5428 106.9165 0.0000 0.0000 0.0000
# 4 0.0000 0.0000 0.0000 522.6498 0.0000 0.0000
# 5 0.0000 0.0000 0.0000 0.0000 427.3359 0.0000
# 6 0.0000 0.0000 0.0000 0.0000 0.0000 34.9392
#
#
#
# Elastic Compliance Matrix: (Units=1/GPa)
#
#
# Indices 1 2 3 4 5 6 
#
# 1 0.006402 -0.001322 -0.001632 0.000000 0.000000 0.000000
# 2 -0.001322 0.025868 -0.005299 0.000000 0.000000 0.000000
# 3 -0.001632 -0.005299 0.011010 0.000000 0.000000 0.000000
# 4 0.000000 0.000000 0.000000 0.001913 0.000000 0.000000
# 5 0.000000 0.000000 0.000000 0.000000 0.002340 0.000000
# 6 0.000000 0.000000 0.000000 0.000000 0.000000 0.028621
#
#
# Mechanical properties :
#
#
# Convention : Reuss Voigt Hill
#
# Bulk Modulus (GPa) = 37.35052 51.14481 44.24766
# Shear Modulus (GPa) = 49.22027 213.51143 131.36585
#
# Velocity S-wave (km/s) = 4.60282 9.58656 7.51958
# Velocity P-wave (km/s) = 6.65769 12.02292 9.71790
#
# Compressibility (1/GPa) = 0.02677339
#
# Stress axis : x y z
#
# Youngs Moduli (GPa) = 156.21264 38.65819 90.82633
#
# Poissons Ratio (x) = 0.05112 0.14820
# Poissons Ratio (y) = 0.20658 0.48127
# Poissons Ratio (z) = 0.25490 0.20484
#
# Static dielectric constant tensor:
#      x y z
#    x 1.848010 0.000000 0.000000 
#    y 0.000000 2.082340 0.000000 
#    z 0.000000 0.000000 2.136000 
# 
# From -- ./inp_files/36399.got.cif
#   From: 2010.05.17/outbox.cif.g08.bks.cpg/sg52_19_cif.got.tgz:36399.got - 2010.06.03 12:15:38.
