data_PCOD9413611
_publ_section_title
;
Structure prediction by ZEFSAII (Michael W. Deem and Ramdas Pophale) SiO2 
 PCOD9413611
Probable space group: P N N A
;
_chemical_formula_sum "Si O2"
_cell_formula_units_Z 32
_cell_length_a 11.830189
_cell_length_b 15.394130
_cell_length_c 7.619080
_cell_angle_alpha 90.000000
_cell_angle_beta 90.000000
_cell_angle_gamma 90.000000
_cell_volume 1387.552315
_symmetry_space_group_name_H-M "P N N A"
_symmetry_group_IT_number 52
_symmetry_cell_setting 'orthorhombic'
loop_
_space_group_symop_operation_xyz
x,y,z
1/2-x,-y,z
x,1/2-y,1/2-z
1/2-x,1/2+y,1/2-z
-x,-y,-z
1/2+x,y,-z
-x,1/2+y,1/2+z
1/2+x,1/2-y,1/2+z
loop_
_atom_site_type_symbol
_atom_site_label
_atom_site_fract_x
_atom_site_fract_y
_atom_site_fract_z
Si Si1 0.371192 0.015451 0.337839
Si Si2 0.288878 0.089159 0.713670
Si Si3 0.025255 0.152491 0.194734
Si Si4 0.553052 0.153643 0.206261
O O1 0.427256 0.920373 0.326580
O O2 0.250000 0.000000 0.247063
O O3 0.338861 0.056476 0.526774
O O4 0.461437 0.081371 0.257458
O O5 0.389707 0.138413 0.809401
O O6 0.173480 0.142548 0.697449
O O7 0.250000 0.000000 0.806342
O O8 0.050840 0.250000 0.250000
O O9 0.073001 0.140975 0.000316
O O10 0.509005 0.250000 0.250000
#
# Coordination Sequence:
#
# PCOD9413611 Si02
#       4
#     8   8   8   8
#     4  11  27  47  78 104 151 200 248 307 378 443
#     4  11  25  47  79 103 150 195 252 307 377 440
#     4  12  27  47  76 112 153 197 255 309 381 446
#     4  12  28  47  78 112 155 197 254 314 375 452
#
# _framework density 23.062190999999999
#
# number of rings (size 3 to 8) (size 9 to 14) (size 15 to 20)
#    0.000    0.500    2.500    3.750   14.000    1.000 
#    0.000    0.000    0.000    0.000    0.000    0.000 
#    0.000    0.000    0.000    0.000    0.000    0.000 
#
# Total GULP energy -178978.563872 kJ/mol
# GULP energy per Si atom -5593.080121 kJ/mol
# Density = 2.300970 g / cm^3
# Si number density = 23.062191 Si / 1000 Ang^3
#
#
#
# Elastic Constant Matrix: (Units=GPa)
#
#
# Indices 1 2 3 4 5 6 
#
# 1 153.5362 61.6511 33.7431 0.0000 0.0000 0.0000
# 2 61.6511 176.1298 34.1270 0.0000 0.0000 0.0000
# 3 33.7431 34.1270 122.6970 0.0000 0.0000 0.0000
# 4 0.0000 0.0000 0.0000 7.6602 0.0000 0.0000
# 5 0.0000 0.0000 0.0000 0.0000 33.5752 0.0000
# 6 0.0000 0.0000 0.0000 0.0000 0.0000 51.9458
#
#
#
# Elastic Compliance Matrix: (Units=1/GPa)
#
#
# Indices 1 2 3 4 5 6 
#
# 1 0.007821 -0.002453 -0.001469 0.000000 0.000000 0.000000
# 2 -0.002453 0.006770 -0.001209 0.000000 0.000000 0.000000
# 3 -0.001469 -0.001209 0.008890 0.000000 0.000000 0.000000
# 4 0.000000 0.000000 0.000000 0.130546 0.000000 0.000000
# 5 0.000000 0.000000 0.000000 0.000000 0.029784 0.000000
# 6 0.000000 0.000000 0.000000 0.000000 0.000000 0.019251
#
#
# Mechanical properties :
#
#
# Convention : Reuss Voigt Hill
#
# Bulk Modulus (GPa) = 75.63555 79.04503 77.34029
# Shear Modulus (GPa) = 22.96433 40.15902 31.56168
#
# Velocity S-wave (km/s) = 3.15898 4.17746 3.70340
# Velocity P-wave (km/s) = 6.79508 7.59061 7.20383
#
# Compressibility (1/GPa) = 0.01322130
#
# Stress axis : x y z
#
# Youngs Moduli (GPa) = 127.86333 147.70118 112.48386
#
# Poissons Ratio (x) = 0.36231 0.16519
# Poissons Ratio (y) = 0.31365 0.13594
# Poissons Ratio (z) = 0.18777 0.17850
#
# Static dielectric constant tensor:
#      x y z
#    x 1.898660 0.000000 0.000000 
#    y 0.000000 1.868980 0.000000 
#    z 0.000000 0.000000 1.895400 
# 
# From -- ./inp_files/8243.got.cif
#   From: 2010.05.17/outbox.cif.g08.bks.cpg/sg52_5_cif.got.tgz:8243.got - 2010.06.03 12:15:38.
