data_PCOD9413353
_publ_section_title
;
Structure prediction by ZEFSAII (Michael W. Deem and Ramdas Pophale) SiO2 
 PCOD9413353
Probable space group: P N N A
;
_chemical_formula_sum "Si O2"
_cell_formula_units_Z 40
_cell_length_a 18.489639
_cell_length_b 7.850677
_cell_length_c 11.128585
_cell_angle_alpha 90.000000
_cell_angle_beta 90.000000
_cell_angle_gamma 90.000000
_cell_volume 1615.382928
_symmetry_space_group_name_H-M "P N N A"
_symmetry_group_IT_number 52
_symmetry_cell_setting 'orthorhombic'
loop_
_space_group_symop_operation_xyz
x,y,z
1/2-x,-y,z
x,1/2-y,1/2-z
1/2-x,1/2+y,1/2-z
-x,-y,-z
1/2+x,y,-z
-x,1/2+y,1/2+z
1/2+x,1/2-y,1/2+z
loop_
_atom_site_type_symbol
_atom_site_label
_atom_site_fract_x
_atom_site_fract_y
_atom_site_fract_z
Si Si1 0.660193 0.386493 0.985147
Si Si2 0.072597 0.811469 0.385013
Si Si3 0.939733 0.875716 0.052487
Si Si4 0.714600 0.816576 0.887551
Si Si5 0.833441 0.043814 0.247256
O O1 0.620516 0.205008 0.969226
O O2 0.657418 0.460628 0.120345
O O3 0.614932 0.512617 0.900222
O O4 0.741358 0.327624 0.957573
O O5 0.065528 0.750000 0.250000
O O6 0.133214 0.683731 0.439622
O O7 0.991405 0.792317 0.428582
O O8 0.895321 0.956080 0.164218
O O9 0.000000 0.000000 0.000000
O O10 0.714274 0.750000 0.750000
O O11 0.750000 0.000000 0.892639
O O12 0.841039 0.250000 0.250000
O O13 0.750000 0.000000 0.207355
#
# Coordination Sequence:
#
# PCOD9413353 Si02
#       5
#     8   8   8   8   8
#     4  12  25  46  74 105 144 193 246 306 370 438
#     4  11  23  42  66  98 139 180 227 287 354 428
#     4  12  27  45  69 102 140 185 236 297 371 444
#     4  11  23  42  70 103 141 188 242 297 358 436
#     4  12  27  49  77 108 146 194 253 315 375 448
#
# _framework density 24.761932999999999
#
# number of rings (size 3 to 8) (size 9 to 14) (size 15 to 20)
#    0.000    0.400    0.000   10.200    0.000    5.600 
#    0.000    1.000    0.000    0.000    0.000    0.000 
#    0.000    0.000    0.000    0.000    0.000    0.000 
#
# Total GULP energy -223549.030024 kJ/mol
# GULP energy per Si atom -5588.725751 kJ/mol
# Density = 2.470557 g / cm^3
# Si number density = 24.761933 Si / 1000 Ang^3
#
#
#
# Elastic Constant Matrix: (Units=GPa)
#
#
# Indices 1 2 3 4 5 6 
#
# 1 176.7743 35.8973 21.5155 0.0000 0.0000 0.0000
# 2 35.8973 139.6457 13.2803 0.0000 0.0000 0.0000
# 3 21.5155 13.2803 78.3080 0.0000 0.0000 0.0000
# 4 0.0000 0.0000 0.0000 36.1063 0.0000 0.0000
# 5 0.0000 0.0000 0.0000 0.0000 43.5698 0.0000
# 6 0.0000 0.0000 0.0000 0.0000 0.0000 51.7208
#
#
#
# Elastic Compliance Matrix: (Units=1/GPa)
#
#
# Indices 1 2 3 4 5 6 
#
# 1 0.006124 -0.001437 -0.001439 0.000000 0.000000 0.000000
# 2 -0.001437 0.007616 -0.000897 0.000000 0.000000 0.000000
# 3 -0.001439 -0.000897 0.013317 0.000000 0.000000 0.000000
# 4 0.000000 0.000000 0.000000 0.027696 0.000000 0.000000
# 5 0.000000 0.000000 0.000000 0.000000 0.022952 0.000000
# 6 0.000000 0.000000 0.000000 0.000000 0.000000 0.019335
#
#
# Mechanical properties :
#
#
# Convention : Reuss Voigt Hill
#
# Bulk Modulus (GPa) = 51.25187 59.56826 55.41006
# Shear Modulus (GPa) = 45.00900 47.88171 46.44536
#
# Velocity S-wave (km/s) = 4.26804 4.40214 4.33561
# Velocity P-wave (km/s) = 6.71051 7.06732 6.89123
#
# Compressibility (1/GPa) = 0.01951149
#
# Stress axis : x y z
#
# Youngs Moduli (GPa) = 163.29355 131.30695 75.08933
#
# Poissons Ratio (x) = 0.18874 0.10804
# Poissons Ratio (y) = 0.23472 0.06733
# Poissons Ratio (z) = 0.23495 0.11773
#
# Static dielectric constant tensor:
#      x y z
#    x 1.985530 0.000000 0.000000 
#    y 0.000000 2.054870 0.000000 
#    z 0.000000 0.000000 1.898360 
# 
# From -- ./inp_files/20305.got.cif
#   From: 2010.05.17/outbox.cif.g08.bks.cpg/sg52_11_cif.got.tgz:20305.got - 2010.06.03 12:15:38.
