data_PCOD9413840
_publ_section_title
;
Structure prediction by ZEFSAII (Michael W. Deem and Ramdas Pophale) SiO2 
 PCOD9413840
Probable space group: P N N A
;
_chemical_formula_sum "Si O2"
_cell_formula_units_Z 36
_cell_length_a 18.436235
_cell_length_b 5.022797
_cell_length_c 13.564276
_cell_angle_alpha 90.000000
_cell_angle_beta 90.000000
_cell_angle_gamma 90.000000
_cell_volume 1256.071841
_symmetry_space_group_name_H-M "P N N A"
_symmetry_group_IT_number 52
_symmetry_cell_setting 'orthorhombic'
loop_
_space_group_symop_operation_xyz
x,y,z
1/2-x,-y,z
x,1/2-y,1/2-z
1/2-x,1/2+y,1/2-z
-x,-y,-z
1/2+x,y,-z
-x,1/2+y,1/2+z
1/2+x,1/2-y,1/2+z
loop_
_atom_site_type_symbol
_atom_site_label
_atom_site_fract_x
_atom_site_fract_y
_atom_site_fract_z
Si Si1 0.933927 0.750000 0.250000
Si Si2 0.884749 0.951914 0.999124
Si Si3 0.195033 0.802409 0.359091
Si Si4 0.958164 0.905549 0.648751
Si Si5 0.163767 0.960299 0.630355
O O1 0.875001 0.220361 0.067281
O O2 0.876428 0.512562 0.234329
O O3 0.855668 0.720321 0.066824
O O4 0.988237 0.660788 0.160876
O O5 0.952799 0.810191 0.940159
O O6 0.222920 0.750000 0.250000
O O7 0.171011 0.534341 0.412443
O O8 0.250000 0.000000 0.413161
O O9 0.120283 0.962587 0.348644
O O10 0.971919 0.750000 0.750000
O O11 0.250000 0.000000 0.645382
#
# Coordination Sequence:
#
# PCOD9413840 Si02
#       5
#     4   8   8   8   8
#     4  12  32  58  84 122 172 232 294 364 432 532
#     4  12  27  51  82 123 168 214 288 360 433 520
#     4  12  25  43  78 125 172 222 271 344 428 528
#     4  12  25  51  82 125 174 224 278 343 446 526
#     4  12  31  54  86 121 166 228 300 374 437 506
#
# _framework density 28.660781
#
# number of rings (size 3 to 8) (size 9 to 14) (size 15 to 20)
#    0.000    0.000    5.556    2.000    6.222    3.556 
#    0.000    0.000    0.000    0.000    0.000    0.000 
#    0.000    0.000    0.000    0.000    0.000    0.000 
#
# Total GULP energy -201020.031551 kJ/mol
# GULP energy per Si atom -5583.889765 kJ/mol
# Density = 2.859555 g / cm^3
# Si number density = 28.660781 Si / 1000 Ang^3
#
#
#
# Elastic Constant Matrix: (Units=GPa)
#
#
# Indices 1 2 3 4 5 6 
#
# 1 211.4492 71.0674 33.6713 0.0000 0.0000 0.0000
# 2 71.0674 260.0347 83.7081 0.0000 0.0000 0.0000
# 3 33.6713 83.7081 166.0717 0.0000 0.0000 0.0000
# 4 0.0000 0.0000 0.0000 60.8125 0.0000 0.0000
# 5 0.0000 0.0000 0.0000 0.0000 -97.3123 0.0000
# 6 0.0000 0.0000 0.0000 0.0000 0.0000 -10.3780
#
#
#
# Elastic Compliance Matrix: (Units=1/GPa)
#
#
# Indices 1 2 3 4 5 6 
#
# 1 0.005230 -0.001299 -0.000406 0.000000 0.000000 0.000000
# 2 -0.001299 0.004913 -0.002213 0.000000 0.000000 0.000000
# 3 -0.000406 -0.002213 0.007219 0.000000 0.000000 0.000000
# 4 0.000000 0.000000 0.000000 0.016444 0.000000 0.000000
# 5 0.000000 0.000000 0.000000 0.000000 -0.010276 0.000000
# 6 0.000000 0.000000 0.000000 0.000000 0.000000 -0.096358
#
#
# Mechanical properties :
#
#
# Convention : Reuss Voigt Hill
#
# Bulk Modulus (GPa) = 104.96139 112.71657 108.83898
# Shear Modulus (GPa) = -80.88496 20.56504 -30.15996
#
# Velocity S-wave (km/s) = -5.31815 2.68159 -3.24745
# Velocity P-wave (km/s) = 1.00442 7.00008 4.89858
#
# Compressibility (1/GPa) = 0.00952731
#
# Stress axis : x y z
#
# Youngs Moduli (GPa) = 191.18903 203.54073 138.51837
#
# Poissons Ratio (x) = 0.26437 0.05621
# Poissons Ratio (y) = 0.24832 0.30655
# Poissons Ratio (z) = 0.07758 0.45045
#
# Static dielectric constant tensor:
#      x y z
#    x 2.221840 0.000000 0.000000 
#    y 0.000000 2.297730 0.000000 
#    z 0.000000 0.000000 2.284040 
# 
# From -- ./inp_files/29010.got.cif
#   From: 2010.05.17/outbox.cif.g08.bks.cpg/sg52_15_cif.got.tgz:29010.got - 2010.06.03 12:15:38.
