data_PCOD9413344
_publ_section_title
;
Structure prediction by ZEFSAII (Michael W. Deem and Ramdas Pophale) SiO2 
 PCOD9413344
Probable space group: P N N A
;
_chemical_formula_sum "Si O2"
_cell_formula_units_Z 40
_cell_length_a 8.578489
_cell_length_b 14.540014
_cell_length_c 12.740238
_cell_angle_alpha 90.000000
_cell_angle_beta 90.000000
_cell_angle_gamma 90.000000
_cell_volume 1589.107087
_symmetry_space_group_name_H-M "P N N A"
_symmetry_group_IT_number 52
_symmetry_cell_setting 'orthorhombic'
loop_
_space_group_symop_operation_xyz
x,y,z
1/2-x,-y,z
x,1/2-y,1/2-z
1/2-x,1/2+y,1/2-z
-x,-y,-z
1/2+x,y,-z
-x,1/2+y,1/2+z
1/2+x,1/2-y,1/2+z
loop_
_atom_site_type_symbol
_atom_site_label
_atom_site_fract_x
_atom_site_fract_y
_atom_site_fract_z
Si Si1 0.158471 0.259352 0.124935
Si Si2 0.985336 0.162523 0.545620
Si Si3 0.785685 0.805237 0.155509
Si Si4 0.426428 0.963499 0.715834
Si Si5 0.502214 0.075360 0.907431
O O1 0.161848 0.250000 0.250000
O O2 0.022010 0.174103 0.422503
O O3 0.126451 0.156208 0.082791
O O4 0.320880 0.298710 0.082654
O O5 0.119463 0.229574 0.591975
O O6 0.020224 0.030033 0.207357
O O7 0.006855 0.065801 0.604014
O O8 0.702590 0.750000 0.250000
O O9 0.909208 0.871825 0.212629
O O10 0.337874 0.129733 0.901483
O O11 0.250000 0.000000 0.702401
O O12 0.500000 0.000000 0.000000
#
# Coordination Sequence:
#
# PCOD9413344 Si02
#       5
#     8   8   8   8   8
#     4  12  27  48  74 107 145 193 247 301 369 456
#     4  11  24  46  72 103 146 195 244 298 368 454
#     4   9  18  38  68 100 139 188 235 286 358 437
#     4   9  20  41  71 103 140 188 243 304 366 428
#     4  11  23  41  70 111 148 186 243 315 373 427
#
# _framework density 25.17137
#
# number of rings (size 3 to 8) (size 9 to 14) (size 15 to 20)
#    0.000    1.600    0.000    4.800    0.000    8.000 
#    0.000   18.000    0.000    0.000    0.000    0.000 
#    0.000    0.000    0.000    0.000    0.000    0.000 
#
# Total GULP energy -223926.666837 kJ/mol
# GULP energy per Si atom -5598.166671 kJ/mol
# Density = 2.511408 g / cm^3
# Si number density = 25.171370 Si / 1000 Ang^3
#
#
#
# Elastic Constant Matrix: (Units=GPa)
#
#
# Indices 1 2 3 4 5 6 
#
# 1 81.5478 15.9299 56.1349 0.0000 0.0000 0.0000
# 2 15.9299 98.5788 50.1250 0.0000 0.0000 0.0000
# 3 56.1349 50.1250 165.2139 0.0000 0.0000 0.0000
# 4 0.0000 0.0000 0.0000 62.9854 0.0000 0.0000
# 5 0.0000 0.0000 0.0000 0.0000 29.8517 0.0000
# 6 0.0000 0.0000 0.0000 0.0000 0.0000 38.8362
#
#
#
# Elastic Compliance Matrix: (Units=1/GPa)
#
#
# Indices 1 2 3 4 5 6 
#
# 1 0.016010 0.000211 -0.005504 0.000000 0.000000 0.000000
# 2 0.000211 0.011997 -0.003712 0.000000 0.000000 0.000000
# 3 -0.005504 -0.003712 0.009049 0.000000 0.000000 0.000000
# 4 0.000000 0.000000 0.000000 0.015877 0.000000 0.000000
# 5 0.000000 0.000000 0.000000 0.000000 0.033499 0.000000
# 6 0.000000 0.000000 0.000000 0.000000 0.000000 0.025749
#
#
# Mechanical properties :
#
#
# Convention : Reuss Voigt Hill
#
# Bulk Modulus (GPa) = 52.49901 65.52446 59.01174
# Shear Modulus (GPa) = 36.61952 41.21137 38.91544
#
# Velocity S-wave (km/s) = 3.81833 4.05066 3.93621
# Velocity P-wave (km/s) = 6.35149 6.92568 6.64479
#
# Compressibility (1/GPa) = 0.01904798
#
# Stress axis : x y z
#
# Youngs Moduli (GPa) = 62.46018 83.35168 110.50963
#
# Poissons Ratio (x) = -0.01763 0.60824
# Poissons Ratio (y) = -0.01321 0.41019
# Poissons Ratio (z) = 0.34378 0.30938
#
# Static dielectric constant tensor:
#      x y z
#    x 1.949070 0.000000 0.000000 
#    y 0.000000 1.996190 0.000000 
#    z 0.000000 0.000000 2.164850 
# 
# From -- ./inp_files/10588.got.cif
#   From: 2010.05.17/outbox.cif.g08.bks.cpg/sg52_6_cif.got.tgz:10588.got - 2010.06.03 12:15:38.
