data_PCOD9413470
_publ_section_title
;
Structure prediction by ZEFSAII (Michael W. Deem and Ramdas Pophale) SiO2 
 PCOD9413470
Probable space group: P N N A
;
_chemical_formula_sum "Si O2"
_cell_formula_units_Z 48
_cell_length_a 8.650121
_cell_length_b 25.569798
_cell_length_c 8.978028
_cell_angle_alpha 90.000000
_cell_angle_beta 90.000000
_cell_angle_gamma 90.000000
_cell_volume 1985.776812
_symmetry_space_group_name_H-M "P N N A"
_symmetry_group_IT_number 52
_symmetry_cell_setting 'orthorhombic'
loop_
_space_group_symop_operation_xyz
x,y,z
1/2-x,-y,z
x,1/2-y,1/2-z
1/2-x,1/2+y,1/2-z
-x,-y,-z
1/2+x,y,-z
-x,1/2+y,1/2+z
1/2+x,1/2-y,1/2+z
loop_
_atom_site_type_symbol
_atom_site_label
_atom_site_fract_x
_atom_site_fract_y
_atom_site_fract_z
Si Si1 0.676398 0.056511 0.060674
Si Si2 0.484431 0.303127 0.407915
Si Si3 0.952493 0.403950 0.787776
Si Si4 0.714685 0.763812 0.405690
Si Si5 0.164016 0.125704 0.462297
Si Si6 0.983881 0.115476 0.168376
O O1 0.516854 0.059574 0.156428
O O2 0.811456 0.092253 0.137557
O O3 0.750000 0.000000 0.053252
O O4 0.617172 0.077567 0.901173
O O5 0.442096 0.345689 0.284660
O O6 0.647135 0.277142 0.380253
O O7 0.370838 0.256336 0.446183
O O8 0.494973 0.335798 0.558948
O O9 0.797590 0.407020 0.881818
O O10 0.087111 0.406917 0.907955
O O11 0.623873 0.750000 0.250000
O O12 0.777209 0.820856 0.456318
O O13 0.032731 0.132590 0.333971
#
# Coordination Sequence:
#
# PCOD9413470 Si02
#       6
#     8   8   8   8   8   8
#     4  11  24  48  76 106 138 176 236 290 353 449
#     4  11  24  43  63  95 139 183 241 277 334 414
#     4  11  24  45  65 100 139 187 230 291 360 410
#     4  12  26  41  65 100 140 190 242 283 329 402
#     4  12  25  42  67  99 145 188 235 289 350 406
#     4  11  24  43  72 103 136 187 228 290 361 409
#
# _framework density 24.171897999999999
#
# number of rings (size 3 to 8) (size 9 to 14) (size 15 to 20)
#    0.000    0.667    1.667    7.500    4.667    1.333 
#    0.000    4.167    0.000    0.000    0.000    0.000 
#    0.000    0.000    0.000    0.000    0.000    0.000 
#
# Total GULP energy -268183.349068 kJ/mol
# GULP energy per Si atom -5587.153106 kJ/mol
# Density = 2.411688 g / cm^3
# Si number density = 24.171898 Si / 1000 Ang^3
#
#
#
# Elastic Constant Matrix: (Units=GPa)
#
#
# Indices 1 2 3 4 5 6 
#
# 1 62.5514 7.5808 22.5052 0.0000 0.0000 0.0000
# 2 7.5808 48.0987 13.2522 0.0000 0.0000 0.0000
# 3 22.5052 13.2522 135.6671 0.0000 0.0000 0.0000
# 4 0.0000 0.0000 0.0000 8.2615 0.0000 0.0000
# 5 0.0000 0.0000 0.0000 0.0000 41.8872 0.0000
# 6 0.0000 0.0000 0.0000 0.0000 0.0000 31.2141
#
#
#
# Elastic Compliance Matrix: (Units=1/GPa)
#
#
# Indices 1 2 3 4 5 6 
#
# 1 0.017182 -0.001976 -0.002657 0.000000 0.000000 0.000000
# 2 -0.001976 0.021593 -0.001781 0.000000 0.000000 0.000000
# 3 -0.002657 -0.001781 0.007986 0.000000 0.000000 0.000000
# 4 0.000000 0.000000 0.000000 0.121044 0.000000 0.000000
# 5 0.000000 0.000000 0.000000 0.000000 0.023874 0.000000
# 6 0.000000 0.000000 0.000000 0.000000 0.000000 0.032037
#
#
# Mechanical properties :
#
#
# Convention : Reuss Voigt Hill
#
# Bulk Modulus (GPa) = 29.47104 36.99930 33.23517
# Shear Modulus (GPa) = 20.17308 29.80449 24.98878
#
# Velocity S-wave (km/s) = 2.89202 3.51525 3.21876
# Velocity P-wave (km/s) = 4.83430 5.64056 5.25292
#
# Compressibility (1/GPa) = 0.03393162
#
# Stress axis : x y z
#
# Youngs Moduli (GPa) = 58.19917 46.31161 125.22225
#
# Poissons Ratio (x) = 0.09151 0.33275
# Poissons Ratio (y) = 0.11500 0.22308
# Poissons Ratio (z) = 0.15465 0.08250
#
# Static dielectric constant tensor:
#      x y z
#    x 2.050870 0.000000 0.000000 
#    y 0.000000 1.916530 0.000000 
#    z 0.000000 0.000000 2.041410 
# 
# From -- ./inp_files/7716.got.cif
#   From: 2010.05.17/outbox.cif.g08.bks.cpg/sg52_4_cif.got.tgz:7716.got - 2010.06.03 12:15:38.
