data_PCOD9413313
_publ_section_title
;
Structure prediction by ZEFSAII (Michael W. Deem and Ramdas Pophale) SiO2 
 PCOD9413313
Probable space group: P N N A
;
_chemical_formula_sum "Si O2"
_cell_formula_units_Z 52
_cell_length_a 11.054145
_cell_length_b 26.644311
_cell_length_c 9.666988
_cell_angle_alpha 90.000000
_cell_angle_beta 90.000000
_cell_angle_gamma 90.000000
_cell_volume 2847.218722
_symmetry_space_group_name_H-M "P N N A"
_symmetry_group_IT_number 52
_symmetry_cell_setting 'orthorhombic'
loop_
_space_group_symop_operation_xyz
x,y,z
1/2-x,-y,z
x,1/2-y,1/2-z
1/2-x,1/2+y,1/2-z
-x,-y,-z
1/2+x,y,-z
-x,1/2+y,1/2+z
1/2+x,1/2-y,1/2+z
loop_
_atom_site_type_symbol
_atom_site_label
_atom_site_fract_x
_atom_site_fract_y
_atom_site_fract_z
Si Si1 0.999380 0.059157 0.980266
Si Si2 0.581027 0.360982 0.291219
Si Si3 0.942380 0.250000 0.250000
Si Si4 0.743567 0.060409 0.870677
Si Si5 0.311081 0.343184 0.226090
Si Si6 0.747048 0.191699 0.421311
Si Si7 0.858719 0.791784 0.953075
O O1 0.855249 0.072727 0.979588
O O2 0.051229 0.081847 0.836271
O O3 0.106276 0.074091 0.086241
O O4 0.000000 0.000000 0.000000
O O5 0.452663 0.337164 0.252095
O O6 0.672364 0.348157 0.169013
O O7 0.623752 0.333936 0.431393
O O8 0.859808 0.210351 0.330882
O O9 0.024434 0.221159 0.138447
O O10 0.775457 0.098608 0.748875
O O11 0.750000 0.000000 0.845691
O O12 0.240672 0.309956 0.340909
O O13 0.281782 0.328651 0.070752
O O14 0.674175 0.242289 0.459601
#
# Coordination Sequence:
#
# PCOD9413313 Si02
#       7
#     8   8   4   8   8   8   8
#     4   9  18  34  61  91 119 151 204 260 311 365
#     4  11  23  39  61  87 124 160 206 259 308 365
#     4  12  24  38  60  84 122 160 208 248 294 368
#     4   9  18  36  62  91 120 155 205 260 314 368
#     4  11  23  39  61  88 122 166 203 252 318 369
#     4  12  24  40  57  87 125 162 206 248 307 370
#     4  12  22  39  60  87 118 166 208 248 303 372
#
# _framework density 18.263437
#
# number of rings (size 3 to 8) (size 9 to 14) (size 15 to 20)
#    0.000    1.231    4.615    1.846    0.000    1.231 
#    0.000    0.000    0.000   12.923    0.000    0.000 
#    0.000    0.000    0.000    0.000    0.000    0.000 
#
# Total GULP energy -289593.256659 kJ/mol
# GULP energy per Si atom -5569.101090 kJ/mol
# Density = 1.822187 g / cm^3
# Si number density = 18.263437 Si / 1000 Ang^3
#
#
#
# Elastic Constant Matrix: (Units=GPa)
#
#
# Indices 1 2 3 4 5 6 
#
# 1 58.1728 -6.3843 6.3717 0.0000 0.0000 0.0000
# 2 -6.3843 59.8967 17.3812 0.0000 0.0000 0.0000
# 3 6.3717 17.3812 64.5496 0.0000 0.0000 0.0000
# 4 0.0000 0.0000 0.0000 8.7052 0.0000 0.0000
# 5 0.0000 0.0000 0.0000 0.0000 38.0029 0.0000
# 6 0.0000 0.0000 0.0000 0.0000 0.0000 25.4293
#
#
#
# Elastic Compliance Matrix: (Units=1/GPa)
#
#
# Indices 1 2 3 4 5 6 
#
# 1 0.017744 0.002603 -0.002452 0.000000 0.000000 0.000000
# 2 0.002603 0.018492 -0.005236 0.000000 0.000000 0.000000
# 3 -0.002452 -0.005236 0.017144 0.000000 0.000000 0.000000
# 4 0.000000 0.000000 0.000000 0.114874 0.000000 0.000000
# 5 0.000000 0.000000 0.000000 0.000000 0.026314 0.000000
# 6 0.000000 0.000000 0.000000 0.000000 0.000000 0.039325
#
#
# Mechanical properties :
#
#
# Convention : Reuss Voigt Hill
#
# Bulk Modulus (GPa) = 23.14320 24.15071 23.64695
# Shear Modulus (GPa) = 19.34472 25.44418 22.39445
#
# Velocity S-wave (km/s) = 3.25807 3.73658 3.50550
# Velocity P-wave (km/s) = 5.18197 5.64520 5.41853
#
# Compressibility (1/GPa) = 0.04320924
#
# Stress axis : x y z
#
# Youngs Moduli (GPa) = 56.35564 54.07636 58.32937
#
# Poissons Ratio (x) = -0.14076 0.14305
# Poissons Ratio (y) = -0.14669 0.30543
# Poissons Ratio (z) = 0.13821 0.28316
#
# Static dielectric constant tensor:
#      x y z
#    x 1.686170 0.000000 0.000000 
#    y 0.000000 1.675800 0.000000 
#    z 0.000000 0.000000 1.601210 
# 
# From -- ./inp_files/8991.got.cif
#   From: 2010.05.17/outbox.cif.g08.bks.cpg/sg52_5_cif.got.tgz:8991.got - 2010.06.03 12:15:38.
