data_PCOD9413440
_publ_section_title
;
Structure prediction by ZEFSAII (Michael W. Deem and Ramdas Pophale) SiO2 
 PCOD9413440
Probable space group: P N N A
;
_chemical_formula_sum "Si O2"
_cell_formula_units_Z 48
_cell_length_a 10.154405
_cell_length_b 8.353648
_cell_length_c 26.998781
_cell_angle_alpha 90.000000
_cell_angle_beta 90.000000
_cell_angle_gamma 90.000000
_cell_volume 2290.207372
_symmetry_space_group_name_H-M "P N N A"
_symmetry_group_IT_number 52
_symmetry_cell_setting 'orthorhombic'
loop_
_space_group_symop_operation_xyz
x,y,z
1/2-x,-y,z
x,1/2-y,1/2-z
1/2-x,1/2+y,1/2-z
-x,-y,-z
1/2+x,y,-z
-x,1/2+y,1/2+z
1/2+x,1/2-y,1/2+z
loop_
_atom_site_type_symbol
_atom_site_label
_atom_site_fract_x
_atom_site_fract_y
_atom_site_fract_z
Si Si1 0.609998 0.570072 0.358372
Si Si2 0.608544 0.558993 0.244772
Si Si3 0.628372 0.615618 0.505173
Si Si4 0.737725 0.813191 0.410866
Si Si5 0.962615 0.200540 0.894104
Si Si6 0.635682 0.630592 0.796494
O O1 0.750000 0.500000 0.377704
O O2 0.598400 0.508665 0.302571
O O3 0.638517 0.757299 0.366469
O O4 0.488045 0.490393 0.386069
O O5 0.750000 0.500000 0.226339
O O6 0.598025 0.750000 0.250000
O O7 0.495785 0.469286 0.215552
O O8 0.750000 0.500000 0.515019
O O9 0.500000 0.500000 0.500000
O O10 0.671911 0.720448 0.457602
O O11 0.604479 0.724851 0.553175
O O12 0.888258 0.766066 0.397957
O O13 0.750000 0.000000 0.419826
O O14 0.887339 0.273164 0.847365
O O15 0.750000 0.500000 0.800800
O O16 0.660582 0.750000 0.750000
#
# Coordination Sequence:
#
# PCOD9413440 Si02
#       6
#     8   8   8   8   8   8
#     4   9  19  39  66  99 135 184 230 280 345 421
#     4  11  24  40  71 105 140 184 240 290 352 420
#     4  12  23  48  75 100 137 189 239 290 365 442
#     4  11  24  41  72 109 146 176 239 309 352 417
#     4  11  24  46  72  99 140 193 238 284 361 441
#     4  12  27  49  69 101 149 189 237 299 364 440
#
# _framework density 20.958801999999999
#
# number of rings (size 3 to 8) (size 9 to 14) (size 15 to 20)
#    0.000    1.000    5.000    1.500    7.000    2.000 
#    6.000    0.000    0.000    0.000    0.000    0.000 
#    0.000    0.000    0.000    0.000    0.000    0.000 
#
# Total GULP energy -267866.765941 kJ/mol
# GULP energy per Si atom -5580.557624 kJ/mol
# Density = 2.091110 g / cm^3
# Si number density = 20.958802 Si / 1000 Ang^3
#
#
#
# Elastic Constant Matrix: (Units=GPa)
#
#
# Indices 1 2 3 4 5 6 
#
# 1 106.6954 38.8560 48.3482 0.0000 0.0000 0.0000
# 2 38.8560 102.4919 34.3179 0.0000 0.0000 0.0000
# 3 48.3482 34.3179 119.8125 0.0000 0.0000 0.0000
# 4 0.0000 0.0000 0.0000 19.5042 0.0000 0.0000
# 5 0.0000 0.0000 0.0000 0.0000 82.6597 0.0000
# 6 0.0000 0.0000 0.0000 0.0000 0.0000 31.4901
#
#
#
# Elastic Compliance Matrix: (Units=1/GPa)
#
#
# Indices 1 2 3 4 5 6 
#
# 1 0.012432 -0.003355 -0.004056 0.000000 0.000000 0.000000
# 2 -0.003355 0.011697 -0.001997 0.000000 0.000000 0.000000
# 3 -0.004056 -0.001997 0.010555 0.000000 0.000000 0.000000
# 4 0.000000 0.000000 0.000000 0.051271 0.000000 0.000000
# 5 0.000000 0.000000 0.000000 0.000000 0.012098 0.000000
# 6 0.000000 0.000000 0.000000 0.000000 0.000000 0.031756
#
#
# Mechanical properties :
#
#
# Convention : Reuss Voigt Hill
#
# Bulk Modulus (GPa) = 63.01421 63.56045 63.28733
# Shear Modulus (GPa) = 32.48566 40.56266 36.52416
#
# Velocity S-wave (km/s) = 3.94125 4.40404 4.17905
# Velocity P-wave (km/s) = 7.13037 7.50019 7.31762
#
# Compressibility (1/GPa) = 0.01586944
#
# Stress axis : x y z
#
# Youngs Moduli (GPa) = 80.43632 85.48917 94.74288
#
# Poissons Ratio (x) = 0.28683 0.38425
# Poissons Ratio (y) = 0.26988 0.18916
# Poissons Ratio (z) = 0.32623 0.17068
#
# Static dielectric constant tensor:
#      x y z
#    x 1.771740 0.000000 0.000000 
#    y 0.000000 1.843850 0.000000 
#    z 0.000000 0.000000 1.814500 
# 
# From -- ./inp_files/44342.got.cif
#   From: 2010.05.17/outbox.cif.g08.bks.cpg/sg52_23_cif.got.tgz:44342.got - 2010.06.03 12:15:38.
