data_PCOD9413058
_publ_section_title
;
Structure prediction by ZEFSAII (Michael W. Deem and Ramdas Pophale) SiO2 
 PCOD9413058
Probable space group: P N N A
;
_chemical_formula_sum "Si O2"
_cell_formula_units_Z 52
_cell_length_a 20.055260
_cell_length_b 13.107123
_cell_length_c 9.269353
_cell_angle_alpha 90.000000
_cell_angle_beta 90.000000
_cell_angle_gamma 90.000000
_cell_volume 2436.604787
_symmetry_space_group_name_H-M "P N N A"
_symmetry_group_IT_number 52
_symmetry_cell_setting 'orthorhombic'
loop_
_space_group_symop_operation_xyz
x,y,z
1/2-x,-y,z
x,1/2-y,1/2-z
1/2-x,1/2+y,1/2-z
-x,-y,-z
1/2+x,y,-z
-x,1/2+y,1/2+z
1/2+x,1/2-y,1/2+z
loop_
_atom_site_type_symbol
_atom_site_label
_atom_site_fract_x
_atom_site_fract_y
_atom_site_fract_z
Si Si1 0.363205 0.750000 0.250000
Si Si2 0.238001 0.890588 0.232114
Si Si3 0.699418 0.911278 0.164599
Si Si4 0.204545 0.250000 0.750000
Si Si5 0.492706 0.250000 0.250000
Si Si6 0.648682 0.578352 0.012401
Si Si7 0.381973 0.193595 0.048922
Si Si8 0.401947 0.852476 0.541038
O O1 0.310309 0.841011 0.230672
O O2 0.401804 0.783005 0.395436
O O3 0.204268 0.912343 0.387334
O O4 0.184554 0.825710 0.143137
O O5 0.250000 0.000000 0.164933
O O6 0.745759 0.812254 0.149070
O O7 0.681459 0.925230 0.331106
O O8 0.750000 0.000000 0.126263
O O9 0.631602 0.886869 0.078660
O O10 0.160137 0.180128 0.644875
O O11 0.444703 0.178820 0.153014
O O12 0.536707 0.180637 0.357147
O O13 0.606800 0.472388 0.000236
O O14 0.612543 0.688800 0.002298
#
# Coordination Sequence:
#
# PCOD9413058 Si02
#       8
#     4   8   8   4   4   8   8   8
#     4  12  21  40  68 106 135 172 236 280 362 424
#     4  12  22  38  70 104 144 168 211 296 367 433
#     4  12  23  38  71 111 142 171 221 290 360 438
#     4  11  20  40  66 102 148 175 206 280 374 411
#     4  11  27  54  66  86 145 199 246 294 330 391
#     4  12  21  42  69 104 135 183 221 273 361 427
#     4  12  24  45  68  99 139 186 234 285 344 408
#     4  11  26  43  70  95 138 191 233 287 335 421
#
# _framework density 21.341172
#
# number of rings (size 3 to 8) (size 9 to 14) (size 15 to 20)
#    0.000    0.308    7.692    2.769    0.000    0.615 
#    2.769    0.769    0.000    0.000    0.000    0.000 
#    0.000    0.000    0.000    0.000    0.000    0.000 
#
# Total GULP energy -290163.640150 kJ/mol
# GULP energy per Si atom -5580.070003 kJ/mol
# Density = 2.129260 g / cm^3
# Si number density = 21.341172 Si / 1000 Ang^3
#
#
#
# Elastic Constant Matrix: (Units=GPa)
#
#
# Indices 1 2 3 4 5 6 
#
# 1 93.3508 40.0689 53.4106 0.0000 0.0000 0.0000
# 2 40.0689 133.5207 45.7236 0.0000 0.0000 0.0000
# 3 53.4106 45.7236 177.9147 0.0000 0.0000 0.0000
# 4 0.0000 0.0000 0.0000 16.6040 0.0000 0.0000
# 5 0.0000 0.0000 0.0000 0.0000 38.4686 0.0000
# 6 0.0000 0.0000 0.0000 0.0000 0.0000 12.2736
#
#
#
# Elastic Compliance Matrix: (Units=1/GPa)
#
#
# Indices 1 2 3 4 5 6 
#
# 1 0.013963 -0.003021 -0.003415 0.000000 0.000000 0.000000
# 2 -0.003021 0.008866 -0.001372 0.000000 0.000000 0.000000
# 3 -0.003415 -0.001372 0.006999 0.000000 0.000000 0.000000
# 4 0.000000 0.000000 0.000000 0.060226 0.000000 0.000000
# 5 0.000000 0.000000 0.000000 0.000000 0.025995 0.000000
# 6 0.000000 0.000000 0.000000 0.000000 0.000000 0.081475
#
#
# Mechanical properties :
#
#
# Convention : Reuss Voigt Hill
#
# Bulk Modulus (GPa) = 70.36446 75.91028 73.13737
# Shear Modulus (GPa) = 22.94875 31.17479 27.06177
#
# Velocity S-wave (km/s) = 3.28278 3.82616 3.56484
# Velocity P-wave (km/s) = 6.88561 7.42741 7.16164
#
# Compressibility (1/GPa) = 0.01421172
#
# Stress axis : x y z
#
# Youngs Moduli (GPa) = 71.61801 112.79474 142.88757
#
# Poissons Ratio (x) = 0.34071 0.48802
# Poissons Ratio (y) = 0.21633 0.19599
# Poissons Ratio (z) = 0.24461 0.15472
#
# Static dielectric constant tensor:
#      x y z
#    x 1.762220 0.000000 0.000000 
#    y 0.000000 1.862980 0.000000 
#    z 0.000000 0.000000 1.852680 
# 
# From -- ./inp_files/13412.got.cif
#   From: 2010.05.17/outbox.cif.g08.bks.cpg/sg52_7_cif.got.tgz:13412.got - 2010.06.03 12:15:38.
