data_PCOD9413198
_publ_section_title
;
Structure prediction by ZEFSAII (Michael W. Deem and Ramdas Pophale) SiO2 
 PCOD9413198
Probable space group: P N N A
;
_chemical_formula_sum "Si O2"
_cell_formula_units_Z 44
_cell_length_a 25.349025
_cell_length_b 5.050175
_cell_length_c 15.347839
_cell_angle_alpha 90.000000
_cell_angle_beta 90.000000
_cell_angle_gamma 90.000000
_cell_volume 1964.784494
_symmetry_space_group_name_H-M "P N N A"
_symmetry_group_IT_number 52
_symmetry_cell_setting 'orthorhombic'
loop_
_space_group_symop_operation_xyz
x,y,z
1/2-x,-y,z
x,1/2-y,1/2-z
1/2-x,1/2+y,1/2-z
-x,-y,-z
1/2+x,y,-z
-x,1/2+y,1/2+z
1/2+x,1/2-y,1/2+z
loop_
_atom_site_type_symbol
_atom_site_label
_atom_site_fract_x
_atom_site_fract_y
_atom_site_fract_z
Si Si1 0.642829 0.613744 0.484268
Si Si2 0.250000 0.500000 0.600395
Si Si3 0.816556 0.750000 0.250000
Si Si4 0.508723 0.250000 0.250000
Si Si5 0.642821 0.106583 0.594869
Si Si6 0.909688 0.419690 0.171593
Si Si7 0.435320 0.750000 0.250000
Si Si8 0.250000 0.500000 0.190995
O O1 0.704139 0.638348 0.454911
O O2 0.636504 0.309586 0.513628
O O3 0.605489 0.732927 0.408734
O O4 0.633587 0.807211 0.564774
O O5 0.218835 0.315896 0.667528
O O6 0.855524 0.529115 0.212478
O O7 0.547869 0.341025 0.170150
O O8 0.470379 0.493397 0.270899
O O9 0.601986 0.186537 0.668544
O O10 0.701922 0.111570 0.633416
O O11 0.932860 0.250000 0.250000
O O12 0.268311 0.250000 0.250000
#
# Coordination Sequence:
#
# PCOD9413198 Si02
#       8
#     8   4   4   4   8   8   4   4
#     4  12  26  43  69 108 149 193 230 296 348 427
#     4  12  22  39  65 106 152 194 248 272 341 417
#     4  11  22  38  67 102 145 208 236 283 324 436
#     4  11  26  46  85 102 129 194 244 297 368 438
#     4  12  27  47  72 105 149 182 240 297 363 424
#     4  11  23  47  71 101 147 192 238 284 363 431
#     4  12  26  52  76 104 134 182 244 318 370 426
#     4  12  24  45  75 106 140 200 242 284 359 441
#
# _framework density 22.394311999999999
#
# number of rings (size 3 to 8) (size 9 to 14) (size 15 to 20)
#    0.000    0.364    3.636    5.455    3.818    1.455 
#    0.000    5.455    0.000    0.000    0.000    0.000 
#    0.000    0.000    0.000    0.000    0.000    0.000 
#
# Total GULP energy -245973.215154 kJ/mol
# GULP energy per Si atom -5590.300344 kJ/mol
# Density = 2.234334 g / cm^3
# Si number density = 22.394312 Si / 1000 Ang^3
#
#
#
# Elastic Constant Matrix: (Units=GPa)
#
#
# Indices 1 2 3 4 5 6 
#
# 1 132.1107 42.7614 37.9394 0.0000 0.0000 0.0000
# 2 42.7614 107.0894 16.0634 0.0000 0.0000 0.0000
# 3 37.9394 16.0634 71.4285 0.0000 0.0000 0.0000
# 4 0.0000 0.0000 0.0000 43.9320 0.0000 0.0000
# 5 0.0000 0.0000 0.0000 0.0000 -16.3623 0.0000
# 6 0.0000 0.0000 0.0000 0.0000 0.0000 39.9283
#
#
#
# Elastic Compliance Matrix: (Units=1/GPa)
#
#
# Indices 1 2 3 4 5 6 
#
# 1 0.009937 -0.003287 -0.004539 0.000000 0.000000 0.000000
# 2 -0.003287 0.010751 -0.000672 0.000000 0.000000 0.000000
# 3 -0.004539 -0.000672 0.016562 0.000000 0.000000 0.000000
# 4 0.000000 0.000000 0.000000 0.022762 0.000000 0.000000
# 5 0.000000 0.000000 0.000000 0.000000 -0.061116 0.000000
# 6 0.000000 0.000000 0.000000 0.000000 0.000000 0.025045
#
#
# Mechanical properties :
#
#
# Convention : Reuss Voigt Hill
#
# Bulk Modulus (GPa) = 49.37149 56.01747 52.69448
# Shear Modulus (GPa) = 104.84767 27.75722 66.30244
#
# Velocity S-wave (km/s) = 6.84986 3.52444 5.44712
# Velocity P-wave (km/s) = 9.20082 6.45218 7.94625
#
# Compressibility (1/GPa) = 0.02025460
#
# Stress axis : x y z
#
# Youngs Moduli (GPa) = 100.63631 93.01203 60.37961
#
# Poissons Ratio (x) = 0.30573 0.27405
# Poissons Ratio (y) = 0.33079 0.04057
# Poissons Ratio (z) = 0.45676 0.06250
#
# Static dielectric constant tensor:
#      x y z
#    x 1.843420 0.000000 0.000000 
#    y 0.000000 1.882670 0.000000 
#    z 0.000000 0.000000 1.789080 
# 
# From -- ./inp_files/29400.got.cif
#   From: 2010.05.17/outbox.cif.g08.bks.cpg/sg52_15_cif.got.tgz:29400.got - 2010.06.03 12:15:38.
