data_PCOD9413887
_publ_section_title
;
Structure prediction by ZEFSAII (Michael W. Deem and Ramdas Pophale) SiO2 
 PCOD9413887
Probable space group: P N N A
;
_chemical_formula_sum "Si O2"
_cell_formula_units_Z 32
_cell_length_a 16.533652
_cell_length_b 16.318986
_cell_length_c 4.655740
_cell_angle_alpha 90.000000
_cell_angle_beta 90.000000
_cell_angle_gamma 90.000000
_cell_volume 1256.176549
_symmetry_space_group_name_H-M "P N N A"
_symmetry_group_IT_number 52
_symmetry_cell_setting 'orthorhombic'
loop_
_space_group_symop_operation_xyz
x,y,z
1/2-x,-y,z
x,1/2-y,1/2-z
1/2-x,1/2+y,1/2-z
-x,-y,-z
1/2+x,y,-z
-x,1/2+y,1/2+z
1/2+x,1/2-y,1/2+z
loop_
_atom_site_type_symbol
_atom_site_label
_atom_site_fract_x
_atom_site_fract_y
_atom_site_fract_z
Si Si1 0.475535 0.426441 0.225354
Si Si2 0.448635 0.845765 0.279241
Si Si3 0.210878 0.340023 0.881999
Si Si4 0.793504 0.419559 0.655133
O O1 0.466501 0.603196 0.511072
O O2 0.388181 0.437161 0.365132
O O3 0.500000 0.500000 0.000000
O O4 0.476172 0.353458 0.995092
O O5 0.433452 0.750000 0.250000
O O6 0.370055 0.873051 0.461648
O O7 0.196749 0.250000 0.750000
O O8 0.246156 0.396857 0.632847
O O9 0.277514 0.344431 0.130400
O O10 0.750000 0.500000 0.777870
#
# Coordination Sequence:
#
# PCOD9413887 Si02
#       4
#     8   8   8   8
#     4  12  27  47  75 112 154 200 254 319 390 467
#     4  12  26  47  76 109 149 200 256 317 387 467
#     4  12  26  47  75 107 147 199 252 311 381 457
#     4  12  27  47  72 108 152 195 248 311 379 457
#
# _framework density 25.474125999999998
#
# number of rings (size 3 to 8) (size 9 to 14) (size 15 to 20)
#    0.000    0.000    0.000   10.500    0.000   10.000 
#    0.000    0.000    0.000    0.000    0.000    0.000 
#    0.000    0.000    0.000    0.000    0.000    0.000 
#
# Total GULP energy -178896.786971 kJ/mol
# GULP energy per Si atom -5590.524593 kJ/mol
# Density = 2.541615 g / cm^3
# Si number density = 25.474126 Si / 1000 Ang^3
#
#
#
# Elastic Constant Matrix: (Units=GPa)
#
#
# Indices 1 2 3 4 5 6 
#
# 1 157.2441 71.5394 83.2886 0.0000 0.0000 0.0000
# 2 71.5394 105.3577 76.8436 0.0000 0.0000 0.0000
# 3 83.2886 76.8436 205.2867 0.0000 0.0000 0.0000
# 4 0.0000 0.0000 0.0000 50.7765 0.0000 0.0000
# 5 0.0000 0.0000 0.0000 0.0000 50.9867 0.0000
# 6 0.0000 0.0000 0.0000 0.0000 0.0000 28.3415
#
#
#
# Elastic Compliance Matrix: (Units=1/GPa)
#
#
# Indices 1 2 3 4 5 6 
#
# 1 0.009786 -0.005157 -0.002040 0.000000 0.000000 0.000000
# 2 -0.005157 0.015774 -0.003812 0.000000 0.000000 0.000000
# 3 -0.002040 -0.003812 0.007126 0.000000 0.000000 0.000000
# 4 0.000000 0.000000 0.000000 0.019694 0.000000 0.000000
# 5 0.000000 0.000000 0.000000 0.000000 0.019613 0.000000
# 6 0.000000 0.000000 0.000000 0.000000 0.000000 0.035284
#
#
# Mechanical properties :
#
#
# Convention : Reuss Voigt Hill
#
# Bulk Modulus (GPa) = 93.74458 103.47018 98.60738
# Shear Modulus (GPa) = 37.63604 41.76875 39.70240
#
# Velocity S-wave (km/s) = 3.84790 4.05366 3.95212
# Velocity P-wave (km/s) = 7.52473 7.91299 7.72130
#
# Compressibility (1/GPa) = 0.01066728
#
# Stress axis : x y z
#
# Youngs Moduli (GPa) = 102.18247 63.39693 140.33342
#
# Poissons Ratio (x) = 0.32695 0.28629
# Poissons Ratio (y) = 0.52697 0.53496
# Poissons Ratio (z) = 0.20846 0.24167
#
# Static dielectric constant tensor:
#      x y z
#    x 2.101070 0.000000 0.000000 
#    y 0.000000 2.115740 0.000000 
#    z 0.000000 0.000000 2.068580 
# 
# From -- ./inp_files/2998.got.cif
#   From: 2010.05.17/outbox.cif.g08.bks.cpg/sg52_2_cif.got.tgz:2998.got - 2010.06.03 12:15:38.
