data_PCOD9413880
_publ_section_title
;
Structure prediction by ZEFSAII (Michael W. Deem and Ramdas Pophale) SiO2 
 PCOD9413880
Probable space group: P N N A
;
_chemical_formula_sum "Si O2"
_cell_formula_units_Z 32
_cell_length_a 19.017376
_cell_length_b 8.160648
_cell_length_c 9.268934
_cell_angle_alpha 90.000000
_cell_angle_beta 90.000000
_cell_angle_gamma 90.000000
_cell_volume 1438.483976
_symmetry_space_group_name_H-M "P N N A"
_symmetry_group_IT_number 52
_symmetry_cell_setting 'orthorhombic'
loop_
_space_group_symop_operation_xyz
x,y,z
1/2-x,-y,z
x,1/2-y,1/2-z
1/2-x,1/2+y,1/2-z
-x,-y,-z
1/2+x,y,-z
-x,1/2+y,1/2+z
1/2+x,1/2-y,1/2+z
loop_
_atom_site_type_symbol
_atom_site_label
_atom_site_fract_x
_atom_site_fract_y
_atom_site_fract_z
Si Si1 0.917689 0.044293 0.002320
Si Si2 0.250000 0.500000 0.917102
Si Si3 0.000000 0.500000 0.000000
Si Si4 0.547591 0.750000 0.750000
Si Si5 0.862847 0.708851 0.917942
Si Si6 0.650023 0.750000 0.250000
O O1 0.904860 0.140929 0.854899
O O2 0.874272 0.878323 0.004186
O O3 0.899629 0.166566 0.131252
O O4 0.000000 0.000000 0.000000
O O5 0.301642 0.388512 0.821112
O O6 0.202814 0.384376 0.015987
O O7 0.003832 0.631381 0.142674
O O8 0.068354 0.403190 0.061512
O O9 0.854784 0.750000 0.750000
#
# Coordination Sequence:
#
# PCOD9413880 Si02
#       6
#     8   4   4   4   8   4
#     4  12  28  45  83 119 160 204 272 346 410 489
#     4  12  30  52  82 112 168 224 270 330 424 526
#     4  12  26  48  80 124 156 212 270 354 420 484
#     4  12  26  43  78 120 163 196 268 346 420 489
#     4  12  28  50  81 119 164 212 278 339 416 499
#     4  12  30  53  80 116 167 216 276 340 424 509
#
# _framework density 22.245643000000001
#
# number of rings (size 3 to 8) (size 9 to 14) (size 15 to 20)
#    0.000    0.000    5.000    3.000    8.750    3.000 
#    2.250    0.000    0.000    0.000    0.000    0.000 
#    0.000    0.000    0.000    0.000    0.000    0.000 
#
# Total GULP energy -178297.910191 kJ/mol
# GULP energy per Si atom -5571.809693 kJ/mol
# Density = 2.219501 g / cm^3
# Si number density = 22.245643 Si / 1000 Ang^3
#
#
#
# Elastic Constant Matrix: (Units=GPa)
#
#
# Indices 1 2 3 4 5 6 
#
# 1 98.3848 68.4788 78.8906 0.0000 0.0000 0.0000
# 2 68.4788 129.4641 78.4150 0.0000 0.0000 0.0000
# 3 78.8906 78.4150 151.4812 0.0000 0.0000 0.0000
# 4 0.0000 0.0000 0.0000 49.0038 0.0000 0.0000
# 5 0.0000 0.0000 0.0000 0.0000 14.7818 0.0000
# 6 0.0000 0.0000 0.0000 0.0000 0.0000 34.8855
#
#
#
# Elastic Compliance Matrix: (Units=1/GPa)
#
#
# Indices 1 2 3 4 5 6 
#
# 1 0.020533 -0.006386 -0.007388 0.000000 0.000000 0.000000
# 2 -0.006386 0.013238 -0.003527 0.000000 0.000000 0.000000
# 3 -0.007388 -0.003527 0.012275 0.000000 0.000000 0.000000
# 4 0.000000 0.000000 0.000000 0.020407 0.000000 0.000000
# 5 0.000000 0.000000 0.000000 0.000000 0.067651 0.000000
# 6 0.000000 0.000000 0.000000 0.000000 0.000000 0.028665
#
#
# Mechanical properties :
#
#
# Convention : Reuss Voigt Hill
#
# Bulk Modulus (GPa) = 87.37894 92.32211 89.85052
# Shear Modulus (GPa) = 24.85279 29.97060 27.41169
#
# Velocity S-wave (km/s) = 3.34608 3.67448 3.51412
# Velocity P-wave (km/s) = 7.36836 7.71970 7.54607
#
# Compressibility (1/GPa) = 0.01144441
#
# Stress axis : x y z
#
# Youngs Moduli (GPa) = 48.70235 75.53846 81.46827
#
# Poissons Ratio (x) = 0.48239 0.60186
# Poissons Ratio (y) = 0.31102 0.28734
# Poissons Ratio (z) = 0.35980 0.26643
#
# Static dielectric constant tensor:
#      x y z
#    x 1.785980 0.000000 0.000000 
#    y 0.000000 1.918770 0.000000 
#    z 0.000000 0.000000 1.857460 
# 
# From -- ./inp_files/12880.got.cif
#   From: 2010.05.17/outbox.cif.g08.bks.cpg/sg52_7_cif.got.tgz:12880.got - 2010.06.03 12:15:38.
