data_PCOD9413762
_publ_section_title
;
Structure prediction by ZEFSAII (Michael W. Deem and Ramdas Pophale) SiO2 
 PCOD9413762
Probable space group: P N N A
;
_chemical_formula_sum "Si O2"
_cell_formula_units_Z 32
_cell_length_a 6.866182
_cell_length_b 21.188025
_cell_length_c 7.406957
_cell_angle_alpha 90.000000
_cell_angle_beta 90.000000
_cell_angle_gamma 90.000000
_cell_volume 1077.570296
_symmetry_space_group_name_H-M "P N N A"
_symmetry_group_IT_number 52
_symmetry_cell_setting 'orthorhombic'
loop_
_space_group_symop_operation_xyz
x,y,z
1/2-x,-y,z
x,1/2-y,1/2-z
1/2-x,1/2+y,1/2-z
-x,-y,-z
1/2+x,y,-z
-x,1/2+y,1/2+z
1/2+x,1/2-y,1/2+z
loop_
_atom_site_type_symbol
_atom_site_label
_atom_site_fract_x
_atom_site_fract_y
_atom_site_fract_z
Si Si1 0.250352 0.894210 0.142546
Si Si2 0.128019 0.764199 0.965960
Si Si3 0.374916 0.669024 0.016140
Si Si4 0.876907 0.941203 0.239843
O O1 0.396112 0.865693 0.290654
O O2 0.109431 0.942687 0.245644
O O3 0.134654 0.833360 0.057325
O O4 0.336657 0.928987 0.970927
O O5 0.147849 0.750000 0.750000
O O6 0.119534 0.812550 0.458098
O O7 0.376813 0.749841 0.484599
O O8 0.334381 0.620121 0.857107
O O9 0.750000 0.000000 0.300078
#
# Coordination Sequence:
#
# PCOD9413762 Si02
#       4
#     8   8   8   8
#     4  12  26  47  75 105 143 189 242 301 361 421
#     4  12  23  43  71 105 145 177 236 300 366 418
#     4  12  26  44  70 109 142 186 231 301 362 422
#     4  12  28  49  72 105 148 197 245 287 351 437
#
# _framework density 29.696439000000002
#
# number of rings (size 3 to 8) (size 9 to 14) (size 15 to 20)
#    0.000    0.000    5.000    6.000    0.000    2.000 
#    0.000    0.000    0.000    0.000    0.000    0.000 
#    0.000    0.000    0.000    0.000    0.000    0.000 
#
# Total GULP energy -179190.820309 kJ/mol
# GULP energy per Si atom -5599.713135 kJ/mol
# Density = 2.962885 g / cm^3
# Si number density = 29.696439 Si / 1000 Ang^3
#
#
#
# Elastic Constant Matrix: (Units=GPa)
#
#
# Indices 1 2 3 4 5 6 
#
# 1 187.0296 65.7237 11.3235 0.0000 0.0000 0.0000
# 2 65.7237 95.9961 -14.3095 0.0000 0.0000 0.0000
# 3 11.3235 -14.3095 134.8910 0.0000 0.0000 0.0000
# 4 0.0000 0.0000 0.0000 39.9871 0.0000 0.0000
# 5 0.0000 0.0000 0.0000 0.0000 67.2556 0.0000
# 6 0.0000 0.0000 0.0000 0.0000 0.0000 54.7682
#
#
#
# Elastic Compliance Matrix: (Units=1/GPa)
#
#
# Indices 1 2 3 4 5 6 
#
# 1 0.007211 -0.005108 -0.001147 0.000000 0.000000 0.000000
# 2 -0.005108 0.014203 0.001935 0.000000 0.000000 0.000000
# 3 -0.001147 0.001935 0.007715 0.000000 0.000000 0.000000
# 4 0.000000 0.000000 0.000000 0.025008 0.000000 0.000000
# 5 0.000000 0.000000 0.000000 0.000000 0.014869 0.000000
# 6 0.000000 0.000000 0.000000 0.000000 0.000000 0.018259
#
#
# Mechanical properties :
#
#
# Convention : Reuss Voigt Hill
#
# Bulk Modulus (GPa) = 48.80596 60.37690 54.59143
# Shear Modulus (GPa) = 48.66919 56.08079 52.37499
#
# Velocity S-wave (km/s) = 4.05271 4.35037 4.20417
# Velocity P-wave (km/s) = 6.19435 6.75350 6.47996
#
# Compressibility (1/GPa) = 0.02048930
#
# Stress axis : x y z
#
# Youngs Moduli (GPa) = 138.67179 70.40796 129.61732
#
# Poissons Ratio (x) = 0.35966 0.14870
# Poissons Ratio (y) = 0.70836 -0.25087
# Poissons Ratio (z) = 0.15909 -0.13627
#
# Static dielectric constant tensor:
#      x y z
#    x 2.869050 0.000000 0.000000 
#    y 0.000000 2.157820 0.000000 
#    z 0.000000 0.000000 2.128970 
# 
# From -- ./inp_files/439.got.cif
#   From: 2010.05.17/outbox.cif.g08.bks.cpg/sg52_1_cif.got.tgz:439.got - 2010.06.03 12:15:38.
