data_PCOD9413223
_publ_section_title
;
Structure prediction by ZEFSAII (Michael W. Deem and Ramdas Pophale) SiO2 
 PCOD9413223
Probable space group: P N N A
;
_chemical_formula_sum "Si O2"
_cell_formula_units_Z 64
_cell_length_a 31.180178
_cell_length_b 8.762637
_cell_length_c 12.013284
_cell_angle_alpha 90.000000
_cell_angle_beta 90.000000
_cell_angle_gamma 90.000000
_cell_volume 3282.276439
_symmetry_space_group_name_H-M "P N N A"
_symmetry_group_IT_number 52
_symmetry_cell_setting 'orthorhombic'
loop_
_space_group_symop_operation_xyz
x,y,z
1/2-x,-y,z
x,1/2-y,1/2-z
1/2-x,1/2+y,1/2-z
-x,-y,-z
1/2+x,y,-z
-x,1/2+y,1/2+z
1/2+x,1/2-y,1/2+z
loop_
_atom_site_type_symbol
_atom_site_label
_atom_site_fract_x
_atom_site_fract_y
_atom_site_fract_z
Si Si1 0.375914 0.569273 0.882581
Si Si2 0.794779 0.067856 0.511773
Si Si3 0.705221 0.932144 0.988228
Si Si4 0.316030 0.928025 0.250000
Si Si5 0.546946 0.567627 0.520747
Si Si6 0.919294 0.928203 0.750000
Si Si7 0.875915 0.569272 0.382579
Si Si8 0.046946 0.932373 0.479252
O O1 0.373579 0.549779 0.750001
O O2 0.376253 0.750001 0.908455
O O3 0.335034 0.494259 0.942180
O O4 0.418961 0.495132 0.931430
O O5 0.793910 0.250000 0.509330
O O6 0.750000 0.000000 0.468200
O O7 0.800276 0.009174 0.638295
O O8 0.750000 0.000000 0.031801
O O9 0.664966 0.994257 0.057822
O O10 0.699724 0.990827 0.861706
O O11 0.302813 0.750000 0.250000
O O12 0.367723 0.934060 0.250000
O O13 0.500000 0.500000 0.500000
O O14 0.563324 0.510073 0.640414
O O15 0.581038 0.504870 0.431427
O O16 0.545777 0.750000 0.517263
O O17 0.932083 0.750000 0.750000
O O18 0.936677 0.010074 0.640416
O O19 0.000000 0.000000 0.500000
#
# Coordination Sequence:
#
# PCOD9413223 Si02
#       8
#     8   8   8   8   8   8   8   8
#     4  11  25  46  69  95 131 171 218 272 327 386
#     4  12  25  42  67  97 132 171 218 267 325 389
#     4  12  25  42  67  97 132 171 218 267 325 389
#     4  11  22  40  67  97 135 171 212 267 327 385
#     4  12  26  44  69  99 135 174 220 269 326 389
#     4  11  23  42  70  99 134 173 217 270 329 386
#     4  11  25  46  69  95 131 171 218 272 327 386
#     4  12  26  44  69  99 135 174 220 269 326 389
#
# _framework density 19.498660999999998
#
# number of rings (size 3 to 8) (size 9 to 14) (size 15 to 20)
#    0.000    0.500    2.500    6.375    1.750    3.500 
#    0.000    0.000    0.000    0.000    0.000    0.000 
#    0.000    0.000    0.000    0.000    0.000    0.000 
#
# Total GULP energy -358446.317636 kJ/mol
# GULP energy per Si atom -5600.723713 kJ/mol
# Density = 1.945428 g / cm^3
# Si number density = 19.498661 Si / 1000 Ang^3
#
#
#
# Elastic Constant Matrix: (Units=GPa)
#
#
# Indices 1 2 3 4 5 6 
#
# 1 175.0123 97.2922 56.6992 0.0000 0.0000 0.0000
# 2 97.2922 226.9811 81.3102 0.0000 0.0000 0.0000
# 3 56.6992 81.3102 84.5314 0.0000 0.0000 0.0000
# 4 0.0000 0.0000 0.0000 100.9949 0.0000 0.0000
# 5 0.0000 0.0000 0.0000 0.0000 27.0143 0.0000
# 6 0.0000 0.0000 0.0000 0.0000 0.0000 39.3757
#
#
#
# Elastic Compliance Matrix: (Units=1/GPa)
#
#
# Indices 1 2 3 4 5 6 
#
# 1 0.008020 -0.002305 -0.003162 0.000000 0.000000 0.000000
# 2 -0.002305 0.007384 -0.005557 0.000000 0.000000 0.000000
# 3 -0.003162 -0.005557 0.019296 0.000000 0.000000 0.000000
# 4 0.000000 0.000000 0.000000 0.009901 0.000000 0.000000
# 5 0.000000 0.000000 0.000000 0.000000 0.037017 0.000000
# 6 0.000000 0.000000 0.000000 0.000000 0.000000 0.025396
#
#
# Mechanical properties :
#
#
# Convention : Reuss Voigt Hill
#
# Bulk Modulus (GPa) = 79.03771 106.34757 92.69264
# Shear Modulus (GPa) = 37.51497 50.22521 43.87009
#
# Velocity S-wave (km/s) = 4.39107 5.08077 4.74846
# Velocity P-wave (km/s) = 8.14442 9.43813 8.81504
#
# Compressibility (1/GPa) = 0.01265219
#
# Stress axis : x y z
#
# Youngs Moduli (GPa) = 124.69482 135.42541 51.82388
#
# Poissons Ratio (x) = 0.31211 0.16388
# Poissons Ratio (y) = 0.28738 0.28798
# Poissons Ratio (z) = 0.39432 0.75254
#
# Static dielectric constant tensor:
#      x y z
#    x 1.665570 0.000000 0.000000 
#    y 0.000000 1.646550 0.000000 
#    z 0.000000 0.000000 1.650920 
# 
# From -- ./inp_files/23196.got.cif
#   From: 2010.05.17/outbox.cif.g08.bks.cpg/sg52_12_cif.got.tgz:23196.got - 2010.06.03 12:15:38.
