data_PCOD9413740
_publ_section_title
;
Structure prediction by ZEFSAII (Michael W. Deem and Ramdas Pophale) SiO2 
 PCOD9413740
Probable space group: P N N A
;
_chemical_formula_sum "Si O2"
_cell_formula_units_Z 24
_cell_length_a 16.777012
_cell_length_b 13.482522
_cell_length_c 4.966381
_cell_angle_alpha 90.000000
_cell_angle_beta 90.000000
_cell_angle_gamma 90.000000
_cell_volume 1123.377669
_symmetry_space_group_name_H-M "P N N A"
_symmetry_group_IT_number 52
_symmetry_cell_setting 'orthorhombic'
loop_
_space_group_symop_operation_xyz
x,y,z
1/2-x,-y,z
x,1/2-y,1/2-z
1/2-x,1/2+y,1/2-z
-x,-y,-z
1/2+x,y,-z
-x,1/2+y,1/2+z
1/2+x,1/2-y,1/2+z
loop_
_atom_site_type_symbol
_atom_site_label
_atom_site_fract_x
_atom_site_fract_y
_atom_site_fract_z
Si Si1 0.332364 0.956748 0.866290
Si Si2 0.361509 0.250000 0.250000
Si Si3 0.758826 0.750000 0.250000
Si Si4 0.081302 0.535729 0.136811
O O1 0.314837 0.845841 0.772255
O O2 0.250000 0.000000 0.982475
O O3 0.354831 0.019154 0.601887
O O4 0.396718 0.970708 0.101332
O O5 0.301205 0.252899 0.499769
O O6 0.413784 0.349719 0.226866
O O7 0.000000 0.500000 0.000000
#
# Coordination Sequence:
#
# PCOD9413740 Si02
#       4
#     8   4   4   8
#     4  12  23  45  70 105 135 186 241 291 344 425
#     4  12  22  43  68 101 136 192 230 288 372 411
#     4  12  24  39  76 103 134 180 246 296 342 421
#     4  12  26  44  70 103 148 184 231 295 362 429
#
# _framework density 21.364139999999999
#
# number of rings (size 3 to 8) (size 9 to 14) (size 15 to 20)
#    0.000    0.000    6.667    4.000    0.000    1.333 
#    0.000    3.333    0.000    0.000    0.000    0.000 
#    0.000    0.000    0.000    0.000    0.000    0.000 
#
# Total GULP energy -134315.248781 kJ/mol
# GULP energy per Si atom -5596.468699 kJ/mol
# Density = 2.131551 g / cm^3
# Si number density = 21.364140 Si / 1000 Ang^3
#
#
#
# Elastic Constant Matrix: (Units=GPa)
#
#
# Indices 1 2 3 4 5 6 
#
# 1 75.5339 76.7584 33.2306 0.0000 0.0000 0.0000
# 2 76.7584 197.1518 53.4664 0.0000 0.0000 0.0000
# 3 33.2306 53.4664 156.8348 0.0000 0.0000 0.0000
# 4 0.0000 0.0000 0.0000 29.7370 0.0000 0.0000
# 5 0.0000 0.0000 0.0000 0.0000 49.8574 0.0000
# 6 0.0000 0.0000 0.0000 0.0000 0.0000 29.1767
#
#
#
# Elastic Compliance Matrix: (Units=1/GPa)
#
#
# Indices 1 2 3 4 5 6 
#
# 1 0.022438 -0.008205 -0.001957 0.000000 0.000000 0.000000
# 2 -0.008205 0.008590 -0.001190 0.000000 0.000000 0.000000
# 3 -0.001957 -0.001190 0.007196 0.000000 0.000000 0.000000
# 4 0.000000 0.000000 0.000000 0.033628 0.000000 0.000000
# 5 0.000000 0.000000 0.000000 0.000000 0.020057 0.000000
# 6 0.000000 0.000000 0.000000 0.000000 0.000000 0.034274
#
#
# Mechanical properties :
#
#
# Convention : Reuss Voigt Hill
#
# Bulk Modulus (GPa) = 64.43219 84.04791 74.24005
# Shear Modulus (GPa) = 32.45464 39.49189 35.97326
#
# Velocity S-wave (km/s) = 3.90181 4.30410 4.10788
# Velocity P-wave (km/s) = 7.10798 8.00790 7.57132
#
# Compressibility (1/GPa) = 0.01552019
#
# Stress axis : x y z
#
# Youngs Moduli (GPa) = 44.56636 116.42108 138.95902
#
# Poissons Ratio (x) = 0.95528 0.27195
# Poissons Ratio (y) = 0.36568 0.16532
# Poissons Ratio (z) = 0.08722 0.13850
#
# Static dielectric constant tensor:
#      x y z
#    x 2.388790 0.000000 0.000000 
#    y 0.000000 1.800290 0.000000 
#    z 0.000000 0.000000 1.746050 
# 
# From -- ./inp_files/2861.got.cif
#   From: 2010.05.17/outbox.cif.g08.bks.cpg/sg52_2_cif.got.tgz:2861.got - 2010.06.03 12:15:38.
