data_PCOD9413005
_publ_section_title
;
Structure prediction by ZEFSAII (Michael W. Deem and Ramdas Pophale) SiO2 
 PCOD9413005
Probable space group: P N N A
;
_chemical_formula_sum "Si O2"
_cell_formula_units_Z 32
_cell_length_a 11.474381
_cell_length_b 17.210291
_cell_length_c 8.155188
_cell_angle_alpha 90.000000
_cell_angle_beta 90.000000
_cell_angle_gamma 90.000000
_cell_volume 1610.465617
_symmetry_space_group_name_H-M "P N N A"
_symmetry_group_IT_number 52
_symmetry_cell_setting 'orthorhombic'
loop_
_space_group_symop_operation_xyz
x,y,z
1/2-x,-y,z
x,1/2-y,1/2-z
1/2-x,1/2+y,1/2-z
-x,-y,-z
1/2+x,y,-z
-x,1/2+y,1/2+z
1/2+x,1/2-y,1/2+z
loop_
_atom_site_type_symbol
_atom_site_label
_atom_site_fract_x
_atom_site_fract_y
_atom_site_fract_z
Si Si1 0.295404 0.584448 0.807630
Si Si2 0.032386 0.573032 0.383570
Si Si3 0.406512 0.537353 0.125885
Si Si4 0.066978 0.836339 0.803394
O O1 0.250000 0.500000 0.747583
O O2 0.417032 0.599015 0.715731
O O3 0.194305 0.644182 0.767848
O O4 0.314315 0.574760 0.002216
O O5 0.000000 0.500000 0.500000
O O6 0.119695 0.532820 0.252734
O O7 0.072252 0.641627 0.503652
O O8 0.473681 0.604638 0.223777
O O9 0.500000 0.500000 0.000000
O O10 0.035228 0.750000 0.750000
#
# Coordination Sequence:
#
# PCOD9413005 Si02
#       4
#     8   8   8   8
#     4  11  19  37  65  87 112 161 212 247 303 368
#     4   9  18  37  60  90 113 157 204 249 298 369
#     4   9  18  37  62  84 113 158 207 247 298 373
#     4  11  23  39  58  91 131 153 198 266 315 355
#
# _framework density 19.870028999999999
#
# number of rings (size 3 to 8) (size 9 to 14) (size 15 to 20)
#    0.000    2.000    7.500    0.000    0.000    2.000 
#    9.000    3.750    0.000    0.000    0.000    0.000 
#    0.000    0.000    0.000    0.000    0.000    0.000 
#
# Total GULP energy -178339.069788 kJ/mol
# GULP energy per Si atom -5573.095931 kJ/mol
# Density = 1.982480 g / cm^3
# Si number density = 19.870029 Si / 1000 Ang^3
#
#
#
# Elastic Constant Matrix: (Units=GPa)
#
#
# Indices 1 2 3 4 5 6 
#
# 1 70.6249 16.2737 42.7298 0.0000 0.0000 0.0000
# 2 16.2737 109.1732 47.6174 0.0000 0.0000 0.0000
# 3 42.7298 47.6174 145.5235 0.0000 0.0000 0.0000
# 4 0.0000 0.0000 0.0000 20.2206 0.0000 0.0000
# 5 0.0000 0.0000 0.0000 0.0000 46.2504 0.0000
# 6 0.0000 0.0000 0.0000 0.0000 0.0000 25.7709
#
#
#
# Elastic Compliance Matrix: (Units=1/GPa)
#
#
# Indices 1 2 3 4 5 6 
#
# 1 0.017235 -0.000422 -0.004923 0.000000 0.000000 0.000000
# 2 -0.000422 0.010695 -0.003376 0.000000 0.000000 0.000000
# 3 -0.004923 -0.003376 0.009422 0.000000 0.000000 0.000000
# 4 0.000000 0.000000 0.000000 0.049455 0.000000 0.000000
# 5 0.000000 0.000000 0.000000 0.000000 0.021621 0.000000
# 6 0.000000 0.000000 0.000000 0.000000 0.000000 0.038803
#
#
# Mechanical properties :
#
#
# Convention : Reuss Voigt Hill
#
# Bulk Modulus (GPa) = 50.22326 59.84038 55.03182
# Shear Modulus (GPa) = 29.18714 33.02843 31.10778
#
# Velocity S-wave (km/s) = 3.83678 4.08146 3.96101
# Velocity P-wave (km/s) = 6.70512 7.23826 6.97678
#
# Compressibility (1/GPa) = 0.01991109
#
# Stress axis : x y z
#
# Youngs Moduli (GPa) = 58.02208 93.50166 106.13804
#
# Poissons Ratio (x) = 0.03946 0.52247
# Poissons Ratio (y) = 0.02449 0.35828
# Poissons Ratio (z) = 0.28562 0.31563
#
# Static dielectric constant tensor:
#      x y z
#    x 1.749840 0.000000 0.000000 
#    y 0.000000 1.683550 0.000000 
#    z 0.000000 0.000000 1.749540 
# 
# From -- ./inp_files/8436.got.cif
#   From: 2010.05.17/outbox.cif.g08.bks.cpg/sg52_5_cif.got.tgz:8436.got - 2010.06.03 12:15:38.
