data_PCOD9413539
_publ_section_title
;
Structure prediction by ZEFSAII (Michael W. Deem and Ramdas Pophale) SiO2 
 PCOD9413539
Probable space group: P N N A
;
_chemical_formula_sum "Si O2"
_cell_formula_units_Z 24
_cell_length_a 20.828217
_cell_length_b 8.004055
_cell_length_c 5.203790
_cell_angle_alpha 90.000000
_cell_angle_beta 90.000000
_cell_angle_gamma 90.000000
_cell_volume 867.524843
_symmetry_space_group_name_H-M "P N N A"
_symmetry_group_IT_number 52
_symmetry_cell_setting 'orthorhombic'
loop_
_space_group_symop_operation_xyz
x,y,z
1/2-x,-y,z
x,1/2-y,1/2-z
1/2-x,1/2+y,1/2-z
-x,-y,-z
1/2+x,y,-z
-x,1/2+y,1/2+z
1/2+x,1/2-y,1/2+z
loop_
_atom_site_type_symbol
_atom_site_label
_atom_site_fract_x
_atom_site_fract_y
_atom_site_fract_z
Si Si1 0.067417 0.569627 0.893609
Si Si2 0.744145 0.697602 0.998333
Si Si3 0.622646 0.407977 0.613703
O O1 0.062432 0.750000 0.750000
O O2 0.907770 0.540551 0.346415
O O3 0.112513 0.538260 0.148128
O O4 0.000000 0.500000 0.000000
O O5 0.707962 0.750000 0.250000
O O6 0.708024 0.750000 0.750000
O O7 0.807040 0.824498 0.973455
O O8 0.750000 0.500000 0.005968
O O9 0.590361 0.250000 0.750000
#
# Coordination Sequence:
#
# PCOD9413539 Si02
#       3
#     8   8   8
#     4  12  26  46  74 110 154 206 260 318 387 465
#     4  11  24  47  76 108 149 197 252 320 391 464
#     4  11  24  47  73 108 153 199 256 320 383 465
#
# _framework density 27.664915000000001
#
# number of rings (size 3 to 8) (size 9 to 14) (size 15 to 20)
#    0.000    0.667    0.000    9.000    0.000    2.667 
#    0.000   41.667    0.000    0.000    0.000    0.000 
#    0.000    0.000    0.000    0.000    0.000    0.000 
#
# Total GULP energy -133890.556242 kJ/mol
# GULP energy per Si atom -5578.773177 kJ/mol
# Density = 2.760195 g / cm^3
# Si number density = 27.664915 Si / 1000 Ang^3
#
#
#
# Elastic Constant Matrix: (Units=GPa)
#
#
# Indices 1 2 3 4 5 6 
#
# 1 188.5528 101.1695 86.6901 0.0000 0.0000 0.0000
# 2 101.1695 218.8012 109.5845 0.0000 0.0000 0.0000
# 3 86.6901 109.5845 326.2395 0.0000 0.0000 0.0000
# 4 0.0000 0.0000 0.0000 78.2847 0.0000 0.0000
# 5 0.0000 0.0000 0.0000 0.0000 280.1648 0.0000
# 6 0.0000 0.0000 0.0000 0.0000 0.0000 25.3633
#
#
#
# Elastic Compliance Matrix: (Units=1/GPa)
#
#
# Indices 1 2 3 4 5 6 
#
# 1 0.007300 -0.002890 -0.000969 0.000000 0.000000 0.000000
# 2 -0.002890 0.006639 -0.001462 0.000000 0.000000 0.000000
# 3 -0.000969 -0.001462 0.003814 0.000000 0.000000 0.000000
# 4 0.000000 0.000000 0.000000 0.012774 0.000000 0.000000
# 5 0.000000 0.000000 0.000000 0.000000 0.003569 0.000000
# 6 0.000000 0.000000 0.000000 0.000000 0.000000 0.039427
#
#
# Mechanical properties :
#
#
# Convention : Reuss Voigt Hill
#
# Bulk Modulus (GPa) = 140.63897 147.60907 144.12402
# Shear Modulus (GPa) = 57.78025 105.83917 81.80971
#
# Velocity S-wave (km/s) = 4.57505 6.19198 5.44388
# Velocity P-wave (km/s) = 8.88004 10.22706 9.57726
#
# Compressibility (1/GPa) = 0.00711040
#
# Stress axis : x y z
#
# Youngs Moduli (GPa) = 136.99249 150.62790 262.20346
#
# Poissons Ratio (x) = 0.43530 0.25407
# Poissons Ratio (y) = 0.39590 0.38336
# Poissons Ratio (z) = 0.13274 0.22023
#
# Static dielectric constant tensor:
#      x y z
#    x 2.302350 0.000000 0.000000 
#    y 0.000000 2.248520 0.000000 
#    z 0.000000 0.000000 2.252000 
# 
# From -- ./inp_files/2836.got.cif
#   From: 2010.05.17/outbox.cif.g08.bks.cpg/sg52_2_cif.got.tgz:2836.got - 2010.06.03 12:15:38.
