data_PCOD9413151
_publ_section_title
;
Structure prediction by ZEFSAII (Michael W. Deem and Ramdas Pophale) SiO2 
 PCOD9413151
Probable space group: P N N A
;
_chemical_formula_sum "Si O2"
_cell_formula_units_Z 32
_cell_length_a 5.007099
_cell_length_b 9.832333
_cell_length_c 31.668890
_cell_angle_alpha 90.000000
_cell_angle_beta 90.000000
_cell_angle_gamma 90.000000
_cell_volume 1559.105841
_symmetry_space_group_name_H-M "P N N A"
_symmetry_group_IT_number 52
_symmetry_cell_setting 'orthorhombic'
loop_
_space_group_symop_operation_xyz
x,y,z
1/2-x,-y,z
x,1/2-y,1/2-z
1/2-x,1/2+y,1/2-z
-x,-y,-z
1/2+x,y,-z
-x,1/2+y,1/2+z
1/2+x,1/2-y,1/2+z
loop_
_atom_site_type_symbol
_atom_site_label
_atom_site_fract_x
_atom_site_fract_y
_atom_site_fract_z
Si Si1 0.750000 0.000000 0.531578
Si Si2 0.242830 0.249909 0.093572
Si Si3 0.750000 0.000000 0.969524
Si Si4 0.755376 0.845576 0.138020
Si Si5 0.984179 0.402366 0.269268
O O1 0.710579 0.877210 0.564086
O O2 0.500000 0.000000 0.500000
O O3 0.453649 0.217770 0.130916
O O4 0.949326 0.248665 0.113066
O O5 0.260805 0.126958 0.061088
O O6 0.500000 0.000000 0.000000
O O7 0.641553 0.865241 0.184967
O O8 0.750000 0.000000 0.119817
O O9 0.750000 0.500000 0.248928
O O10 0.035111 0.250000 0.250000
O O11 0.250000 0.500000 0.271949
#
# Coordination Sequence:
#
# PCOD9413151 Si02
#       5
#     4   8   4   8   8
#     4  12  26  46  62  88 135 178 215 278 352 400
#     4  12  23  41  65  93 126 171 219 269 334 401
#     4  12  22  36  60  94 117 158 219 274 312 384
#     4  11  21  42  68  96 131 170 217 273 333 384
#     4  11  24  45  73 105 144 183 227 280 344 413
#
# _framework density 20.524587
#
# number of rings (size 3 to 8) (size 9 to 14) (size 15 to 20)
#    0.000    0.500    2.500    8.250    0.000    0.000 
#    6.750    0.000    0.000    0.000    0.000    0.000 
#    0.000    0.000    0.000    0.000    0.000    0.000 
#
# Total GULP energy -178564.678619 kJ/mol
# GULP energy per Si atom -5580.146207 kJ/mol
# Density = 2.047787 g / cm^3
# Si number density = 20.524587 Si / 1000 Ang^3
#
#
#
# Elastic Constant Matrix: (Units=GPa)
#
#
# Indices 1 2 3 4 5 6 
#
# 1 124.7008 23.4140 20.7311 0.0000 0.0000 0.0000
# 2 23.4140 156.3403 43.1321 0.0000 0.0000 0.0000
# 3 20.7311 43.1321 72.3310 0.0000 0.0000 0.0000
# 4 0.0000 0.0000 0.0000 38.0540 0.0000 0.0000
# 5 0.0000 0.0000 0.0000 0.0000 33.0583 0.0000
# 6 0.0000 0.0000 0.0000 0.0000 0.0000 25.5354
#
#
#
# Elastic Compliance Matrix: (Units=1/GPa)
#
#
# Indices 1 2 3 4 5 6 
#
# 1 0.008487 -0.000718 -0.002004 0.000000 0.000000 0.000000
# 2 -0.000718 0.007717 -0.004396 0.000000 0.000000 0.000000
# 3 -0.002004 -0.004396 0.017021 0.000000 0.000000 0.000000
# 4 0.000000 0.000000 0.000000 0.026278 0.000000 0.000000
# 5 0.000000 0.000000 0.000000 0.000000 0.030250 0.000000
# 6 0.000000 0.000000 0.000000 0.000000 0.000000 0.039161
#
#
# Mechanical properties :
#
#
# Convention : Reuss Voigt Hill
#
# Bulk Modulus (GPa) = 52.66330 58.65849 55.66090
# Shear Modulus (GPa) = 33.44929 37.06919 35.25924
#
# Velocity S-wave (km/s) = 4.04136 4.25442 4.14926
# Velocity P-wave (km/s) = 6.89138 7.26465 7.08047
#
# Compressibility (1/GPa) = 0.01898856
#
# Stress axis : x y z
#
# Youngs Moduli (GPa) = 117.82394 129.59153 58.75087
#
# Poissons Ratio (x) = 0.09306 0.11776
# Poissons Ratio (y) = 0.08461 0.25825
# Poissons Ratio (z) = 0.23616 0.56964
#
# Static dielectric constant tensor:
#      x y z
#    x 1.731810 0.000000 0.000000 
#    y 0.000000 1.711600 0.000000 
#    z 0.000000 0.000000 1.716310 
# 
# From -- ./inp_files/43584.got.cif
#   From: 2010.05.17/outbox.cif.g08.bks.cpg/sg52_22_cif.got.tgz:43584.got - 2010.06.03 12:15:38.
