data_PCOD9413368
_publ_section_title
;
Structure prediction by ZEFSAII (Michael W. Deem and Ramdas Pophale) SiO2 
 PCOD9413368
Probable space group: P N N A
;
_chemical_formula_sum "Si O2"
_cell_formula_units_Z 60
_cell_length_a 8.883143
_cell_length_b 18.033899
_cell_length_c 15.401744
_cell_angle_alpha 90.000000
_cell_angle_beta 90.000000
_cell_angle_gamma 90.000000
_cell_volume 2467.324021
_symmetry_space_group_name_H-M "P N N A"
_symmetry_group_IT_number 52
_symmetry_cell_setting 'orthorhombic'
loop_
_space_group_symop_operation_xyz
x,y,z
1/2-x,-y,z
x,1/2-y,1/2-z
1/2-x,1/2+y,1/2-z
-x,-y,-z
1/2+x,y,-z
-x,1/2+y,1/2+z
1/2+x,1/2-y,1/2+z
loop_
_atom_site_type_symbol
_atom_site_label
_atom_site_fract_x
_atom_site_fract_y
_atom_site_fract_z
Si Si1 0.993416 0.812991 0.681654
Si Si2 0.729542 0.226875 0.138678
Si Si3 0.828532 0.829081 0.502422
Si Si4 0.939900 0.434205 0.932684
Si Si5 0.051635 0.750000 0.250000
Si Si6 0.340684 0.426866 0.593856
Si Si7 0.777125 0.388105 0.773706
Si Si8 0.699742 0.077462 0.903662
O O1 0.931888 0.806922 0.583886
O O2 0.903233 0.887297 0.708135
O O3 0.725516 0.627021 0.669844
O O4 0.170824 0.795609 0.675895
O O5 0.721073 0.252142 0.039076
O O6 0.567367 0.217655 0.180546
O O7 0.810212 0.148188 0.145956
O O8 0.699715 0.888389 0.526313
O O9 0.926014 0.875075 0.432849
O O10 0.874871 0.444857 0.833575
O O11 0.000000 0.500000 0.000000
O O12 0.149483 0.690117 0.198675
O O13 0.250000 0.500000 0.627263
O O14 0.520757 0.429978 0.587609
O O15 0.273603 0.416178 0.497289
O O16 0.556250 0.250000 0.750000
O O17 0.750000 0.000000 0.861555
#
# Coordination Sequence:
#
# PCOD9413368 Si02
#       8
#     8   8   8   8   4   8   8   8
#     4  11  23  43  68 107 144 182 246 307 374 438
#     4  12  26  43  76 104 149 196 246 317 374 450
#     4  11  24  43  70 107 141 196 250 302 374 447
#     4  11  24  46  73 105 150 200 252 306 373 455
#     4  12  26  42  74 108 156 182 266 312 374 436
#     4  11  27  47  76 111 150 198 252 311 393 478
#     4  11  26  44  75 109 149 196 250 323 375 450
#     4  11  26  48  74 104 151 194 249 306 387 466
#
# _framework density 24.317845999999999
#
# number of rings (size 3 to 8) (size 9 to 14) (size 15 to 20)
#    0.000    0.800    4.000    2.800    7.467    2.133 
#    0.000    0.000    0.000    0.000    0.000    0.000 
#    0.000    0.000    0.000    0.000    0.000    0.000 
#
# Total GULP energy -334034.340338 kJ/mol
# GULP energy per Si atom -5567.239006 kJ/mol
# Density = 2.426250 g / cm^3
# Si number density = 24.317846 Si / 1000 Ang^3
#
#
#
# Elastic Constant Matrix: (Units=GPa)
#
#
# Indices 1 2 3 4 5 6 
#
# 1 162.2145 35.4526 26.4961 0.0000 0.0000 0.0000
# 2 35.4526 87.9770 19.7755 0.0000 0.0000 0.0000
# 3 26.4961 19.7755 79.8867 0.0000 0.0000 0.0000
# 4 0.0000 0.0000 0.0000 23.8384 0.0000 0.0000
# 5 0.0000 0.0000 0.0000 0.0000 18.1382 0.0000
# 6 0.0000 0.0000 0.0000 0.0000 0.0000 29.5227
#
#
#
# Elastic Compliance Matrix: (Units=1/GPa)
#
#
# Indices 1 2 3 4 5 6 
#
# 1 0.006975 -0.002426 -0.001713 0.000000 0.000000 0.000000
# 2 -0.002426 0.012880 -0.002384 0.000000 0.000000 0.000000
# 3 -0.001713 -0.002384 0.013676 0.000000 0.000000 0.000000
# 4 0.000000 0.000000 0.000000 0.041949 0.000000 0.000000
# 5 0.000000 0.000000 0.000000 0.000000 0.055132 0.000000
# 6 0.000000 0.000000 0.000000 0.000000 0.000000 0.033872
#
#
# Mechanical properties :
#
#
# Convention : Reuss Voigt Hill
#
# Bulk Modulus (GPa) = 48.81407 54.83629 51.82518
# Shear Modulus (GPa) = 27.12128 30.85681 28.98904
#
# Velocity S-wave (km/s) = 3.34321 3.56602 3.45641
# Velocity P-wave (km/s) = 5.91774 6.28921 6.10630
#
# Compressibility (1/GPa) = 0.02048590
#
# Stress axis : x y z
#
# Youngs Moduli (GPa) = 143.37809 77.64038 73.12118
#
# Poissons Ratio (x) = 0.18832 0.12524
# Poissons Ratio (y) = 0.34777 0.17431
# Poissons Ratio (z) = 0.24558 0.18508
#
# Static dielectric constant tensor:
#      x y z
#    x 1.949770 0.000000 0.000000 
#    y 0.000000 1.999290 0.000000 
#    z 0.000000 0.000000 2.147460 
# 
# From -- ./inp_files/31486.got.cif
#   From: 2010.05.17/outbox.cif.g08.bks.cpg/sg52_16_cif.got.tgz:31486.got - 2010.06.03 12:15:38.
