data_PCOD9413188
_publ_section_title
;
Structure prediction by ZEFSAII (Michael W. Deem and Ramdas Pophale) SiO2 
 PCOD9413188
Probable space group: P N N A
;
_chemical_formula_sum "Si O2"
_cell_formula_units_Z 32
_cell_length_a 13.945162
_cell_length_b 10.333774
_cell_length_c 9.809043
_cell_angle_alpha 90.000000
_cell_angle_beta 90.000000
_cell_angle_gamma 90.000000
_cell_volume 1413.543446
_symmetry_space_group_name_H-M "P N N A"
_symmetry_group_IT_number 52
_symmetry_cell_setting 'orthorhombic'
loop_
_space_group_symop_operation_xyz
x,y,z
1/2-x,-y,z
x,1/2-y,1/2-z
1/2-x,1/2+y,1/2-z
-x,-y,-z
1/2+x,y,-z
-x,1/2+y,1/2+z
1/2+x,1/2-y,1/2+z
loop_
_atom_site_type_symbol
_atom_site_label
_atom_site_fract_x
_atom_site_fract_y
_atom_site_fract_z
Si Si1 0.902390 0.327244 0.946784
Si Si2 0.351251 0.061478 0.171309
Si Si3 0.175512 0.891803 0.731746
Si Si4 0.973550 0.832317 0.875708
O O1 0.842397 0.198542 0.904562
O O2 0.908734 0.410902 0.811123
O O3 0.854990 0.401650 0.072960
O O4 0.000954 0.265353 0.002658
O O5 0.250000 0.000000 0.206339
O O6 0.409008 0.953592 0.088413
O O7 0.221147 0.750000 0.750000
O O8 0.076268 0.881992 0.816339
O O9 0.250000 0.000000 0.773757
O O10 0.929678 0.750000 0.750000
#
# Coordination Sequence:
#
# PCOD9413188 Si02
#       4
#     8   8   8   8
#     4   9  21  39  56  87 123 157 204 253 300 370
#     4  11  22  37  60  90 126 160 205 248 312 369
#     4   9  19  39  62  88 120 159 209 255 306 365
#     4   9  21  39  61  84 122 160 206 254 303 366
#
# _framework density 22.638142999999999
#
# number of rings (size 3 to 8) (size 9 to 14) (size 15 to 20)
#    0.000    3.000    0.000    1.500    3.500    8.000 
#    9.000    0.000    0.000    0.000    0.000    0.000 
#    0.000    0.000    0.000    0.000    0.000    0.000 
#
# Total GULP energy -178740.881176 kJ/mol
# GULP energy per Si atom -5585.652537 kJ/mol
# Density = 2.258662 g / cm^3
# Si number density = 22.638143 Si / 1000 Ang^3
#
#
#
# Elastic Constant Matrix: (Units=GPa)
#
#
# Indices 1 2 3 4 5 6 
#
# 1 41.1596 31.4406 2.5071 0.0000 0.0000 0.0000
# 2 31.4406 73.3081 -16.5889 0.0000 0.0000 0.0000
# 3 2.5071 -16.5889 81.5585 0.0000 0.0000 0.0000
# 4 0.0000 0.0000 0.0000 -2.7050 0.0000 0.0000
# 5 0.0000 0.0000 0.0000 0.0000 4.6845 0.0000
# 6 0.0000 0.0000 0.0000 0.0000 0.0000 23.0257
#
#
#
# Elastic Compliance Matrix: (Units=1/GPa)
#
#
# Indices 1 2 3 4 5 6 
#
# 1 0.037757 -0.017250 -0.004669 0.000000 0.000000 0.000000
# 2 -0.017250 0.022180 0.005042 0.000000 0.000000 0.000000
# 3 -0.004669 0.005042 0.013430 0.000000 0.000000 0.000000
# 4 0.000000 0.000000 0.000000 -0.369683 0.000000 0.000000
# 5 0.000000 0.000000 0.000000 0.000000 0.213468 0.000000
# 6 0.000000 0.000000 0.000000 0.000000 0.000000 0.043430
#
#
# Mechanical properties :
#
#
# Convention : Reuss Voigt Hill
#
# Bulk Modulus (GPa) = 25.24478 25.63821 25.44150
# Shear Modulus (GPa) = 663.03626 16.91219 339.97422
#
# Velocity S-wave (km/s) = 17.13244 2.73622 12.26799
# Velocity P-wave (km/s) = 20.06330 4.61869 14.55796
#
# Compressibility (1/GPa) = 0.03961214
#
# Stress axis : x y z
#
# Youngs Moduli (GPa) = 26.48530 45.08535 74.45936
#
# Poissons Ratio (x) = 0.77772 0.34767
# Poissons Ratio (y) = 0.45687 -0.37540
# Poissons Ratio (z) = 0.12367 -0.22731
#
# Static dielectric constant tensor:
#      x y z
#    x 1.798700 0.000000 0.000000 
#    y 0.000000 1.853980 0.000000 
#    z 0.000000 0.000000 1.901460 
# 
# From -- ./inp_files/20201.got.cif
#   From: 2010.05.17/outbox.cif.g08.bks.cpg/sg52_11_cif.got.tgz:20201.got - 2010.06.03 12:15:38.
