data_PCOD9413401
_publ_section_title
;
Structure prediction by ZEFSAII (Michael W. Deem and Ramdas Pophale) SiO2 
 PCOD9413401
Probable space group: P N N A
;
_chemical_formula_sum "Si O2"
_cell_formula_units_Z 36
_cell_length_a 20.223044
_cell_length_b 7.570595
_cell_length_c 10.292989
_cell_angle_alpha 90.000000
_cell_angle_beta 90.000000
_cell_angle_gamma 90.000000
_cell_volume 1575.861513
_symmetry_space_group_name_H-M "P N N A"
_symmetry_group_IT_number 52
_symmetry_cell_setting 'orthorhombic'
loop_
_space_group_symop_operation_xyz
x,y,z
1/2-x,-y,z
x,1/2-y,1/2-z
1/2-x,1/2+y,1/2-z
-x,-y,-z
1/2+x,y,-z
-x,1/2+y,1/2+z
1/2+x,1/2-y,1/2+z
loop_
_atom_site_type_symbol
_atom_site_label
_atom_site_fract_x
_atom_site_fract_y
_atom_site_fract_z
Si Si1 0.754565 0.791352 0.597873
Si Si2 0.890394 0.178187 0.972084
Si Si3 0.598221 0.286501 0.593348
Si Si4 0.010444 0.380281 0.863908
Si Si5 0.059307 0.750000 0.750000
O O1 0.756508 0.750000 0.750000
O O2 0.687049 0.701593 0.552461
O O3 0.825780 0.732032 0.546590
O O4 0.750000 0.000000 0.575962
O O5 0.934648 0.327482 0.900094
O O6 0.918729 0.992429 0.922527
O O7 0.900809 0.187498 0.125339
O O8 0.596944 0.250000 0.750000
O O9 0.553515 0.174776 0.491520
O O10 0.032106 0.250000 0.750000
O O11 0.022884 0.575199 0.806268
#
# Coordination Sequence:
#
# PCOD9413401 Si02
#       5
#     8   8   8   8   4
#     4  11  23  45  71 108 146 200 259 314 377 451
#     4  12  26  48  74 112 153 203 256 314 384 454
#     4  11  25  49  82 110 151 202 259 321 376 453
#     4  12  27  50  76 116 157 197 260 308 392 453
#     4  12  28  48  74 112 156 204 246 314 384 460
#
# _framework density 22.844647999999999
#
# number of rings (size 3 to 8) (size 9 to 14) (size 15 to 20)
#    0.000    0.444    2.222    6.667    1.556    1.778 
#    4.000    0.000    0.000    0.000    0.000    0.000 
#    0.000    0.000    0.000    0.000    0.000    0.000 
#
# Total GULP energy -201353.282947 kJ/mol
# GULP energy per Si atom -5593.146749 kJ/mol
# Density = 2.279265 g / cm^3
# Si number density = 22.844648 Si / 1000 Ang^3
#
#
#
# Elastic Constant Matrix: (Units=GPa)
#
#
# Indices 1 2 3 4 5 6 
#
# 1 147.7330 -6.1180 31.3742 0.0000 0.0000 0.0000
# 2 -6.1180 106.6471 6.1369 0.0000 0.0000 0.0000
# 3 31.3742 6.1369 127.4235 0.0000 0.0000 0.0000
# 4 0.0000 0.0000 0.0000 47.4611 0.0000 0.0000
# 5 0.0000 0.0000 0.0000 0.0000 13.9136 0.0000
# 6 0.0000 0.0000 0.0000 0.0000 0.0000 21.8750
#
#
#
# Elastic Compliance Matrix: (Units=1/GPa)
#
#
# Indices 1 2 3 4 5 6 
#
# 1 0.007170 0.000514 -0.001790 0.000000 0.000000 0.000000
# 2 0.000514 0.009440 -0.000581 0.000000 0.000000 0.000000
# 3 -0.001790 -0.000581 0.008317 0.000000 0.000000 0.000000
# 4 0.000000 0.000000 0.000000 0.021070 0.000000 0.000000
# 5 0.000000 0.000000 0.000000 0.000000 0.071872 0.000000
# 6 0.000000 0.000000 0.000000 0.000000 0.000000 0.045714
#
#
# Mechanical properties :
#
#
# Convention : Reuss Voigt Hill
#
# Bulk Modulus (GPa) = 47.14222 49.39886 48.27054
# Shear Modulus (GPa) = 28.67497 40.01066 34.34282
#
# Velocity S-wave (km/s) = 3.54675 4.18954 3.88147
# Velocity P-wave (km/s) = 6.11991 6.71370 6.42367
#
# Compressibility (1/GPa) = 0.02121241
#
# Stress axis : x y z
#
# Youngs Moduli (GPa) = 139.46077 105.93580 120.24086
#
# Poissons Ratio (x) = -0.05449 0.21527
# Poissons Ratio (y) = -0.07173 0.06989
# Poissons Ratio (z) = 0.24967 0.06158
#
# Static dielectric constant tensor:
#      x y z
#    x 1.892440 0.000000 0.000000 
#    y 0.000000 1.921930 0.000000 
#    z 0.000000 0.000000 1.822870 
# 
# From -- ./inp_files/12914.got.cif
#   From: 2010.05.17/outbox.cif.g08.bks.cpg/sg52_7_cif.got.tgz:12914.got - 2010.06.03 12:15:38.
