data_PCOD9413218
_publ_section_title
;
Structure prediction by ZEFSAII (Michael W. Deem and Ramdas Pophale) SiO2 
 PCOD9413218
Probable space group: P N N A
;
_chemical_formula_sum "Si O2"
_cell_formula_units_Z 48
_cell_length_a 8.475540
_cell_length_b 25.164255
_cell_length_c 11.065541
_cell_angle_alpha 90.000000
_cell_angle_beta 90.000000
_cell_angle_gamma 90.000000
_cell_volume 2360.065775
_symmetry_space_group_name_H-M "P N N A"
_symmetry_group_IT_number 52
_symmetry_cell_setting 'orthorhombic'
loop_
_space_group_symop_operation_xyz
x,y,z
1/2-x,-y,z
x,1/2-y,1/2-z
1/2-x,1/2+y,1/2-z
-x,-y,-z
1/2+x,y,-z
-x,1/2+y,1/2+z
1/2+x,1/2-y,1/2+z
loop_
_atom_site_type_symbol
_atom_site_label
_atom_site_fract_x
_atom_site_fract_y
_atom_site_fract_z
Si Si1 0.120358 0.605443 0.436880
Si Si2 0.735788 0.808185 0.748493
Si Si3 0.262216 0.845090 0.685364
Si Si4 0.935106 0.187412 0.522369
Si Si5 0.674620 0.443550 0.354616
Si Si6 0.559645 0.799993 0.112254
O O1 0.009950 0.559772 0.383183
O O2 0.041857 0.648368 0.528099
O O3 0.168925 0.644098 0.327927
O O4 0.249374 0.578339 0.521125
O O5 0.652245 0.750000 0.750000
O O6 0.716476 0.678326 0.890784
O O7 0.906643 0.798661 0.804203
O O8 0.414392 0.825681 0.607875
O O9 0.293426 0.901462 0.748025
O O10 0.110897 0.846487 0.596047
O O11 0.210570 0.807919 0.799719
O O12 0.934650 0.247633 0.470396
O O13 0.750000 0.500000 0.327136
#
# Coordination Sequence:
#
# PCOD9413218 Si02
#       6
#     8   8   8   8   8   8
#     4  11  22  40  66  95 128 164 211 271 325 379
#     4  12  22  38  61  92 133 172 205 245 321 400
#     4  11  25  42  64  93 129 171 220 261 315 385
#     4  12  24  40  62  92 136 171 204 252 321 391
#     4  11  24  45  69  92 124 169 227 283 326 365
#     4  11  24  40  60  96 132 171 207 250 311 397
#
# _framework density 20.338415999999999
#
# number of rings (size 3 to 8) (size 9 to 14) (size 15 to 20)
#    0.000    0.667    5.000    4.000    0.000    2.667 
#    0.000    0.833    0.000    0.000    0.000    0.000 
#    0.000    0.000    0.000    0.000    0.000    0.000 
#
# Total GULP energy -267826.938064 kJ/mol
# GULP energy per Si atom -5579.727876 kJ/mol
# Density = 2.029213 g / cm^3
# Si number density = 20.338416 Si / 1000 Ang^3
#
#
#
# Elastic Constant Matrix: (Units=GPa)
#
#
# Indices 1 2 3 4 5 6 
#
# 1 54.7736 9.0273 29.4679 0.0000 0.0000 0.0000
# 2 9.0273 59.1325 27.8499 0.0000 0.0000 0.0000
# 3 29.4679 27.8499 121.5598 0.0000 0.0000 0.0000
# 4 0.0000 0.0000 0.0000 19.9846 0.0000 0.0000
# 5 0.0000 0.0000 0.0000 0.0000 33.5136 0.0000
# 6 0.0000 0.0000 0.0000 0.0000 0.0000 14.9173
#
#
#
# Elastic Compliance Matrix: (Units=1/GPa)
#
#
# Indices 1 2 3 4 5 6 
#
# 1 0.021038 -0.000908 -0.004892 0.000000 0.000000 0.000000
# 2 -0.000908 0.018996 -0.004132 0.000000 0.000000 0.000000
# 3 -0.004892 -0.004132 0.010359 0.000000 0.000000 0.000000
# 4 0.000000 0.000000 0.000000 0.050039 0.000000 0.000000
# 5 0.000000 0.000000 0.000000 0.000000 0.029839 0.000000
# 6 0.000000 0.000000 0.000000 0.000000 0.000000 0.067036
#
#
# Mechanical properties :
#
#
# Convention : Reuss Voigt Hill
#
# Bulk Modulus (GPa) = 32.75500 40.90623 36.83062
# Shear Modulus (GPa) = 21.99281 24.95780 23.47530
#
# Velocity S-wave (km/s) = 3.29195 3.50684 3.40109
# Velocity P-wave (km/s) = 5.53075 6.04596 5.79408
#
# Compressibility (1/GPa) = 0.03052969
#
# Stress axis : x y z
#
# Youngs Moduli (GPa) = 47.53195 52.64313 96.53466
#
# Poissons Ratio (x) = 0.04779 0.47225
# Poissons Ratio (y) = 0.04315 0.39888
# Poissons Ratio (z) = 0.23253 0.21752
#
# Static dielectric constant tensor:
#      x y z
#    x 1.837120 0.000000 0.000000 
#    y 0.000000 1.696550 0.000000 
#    z 0.000000 0.000000 1.769690 
# 
# From -- ./inp_files/16933.got.cif
#   From: 2010.05.17/outbox.cif.g08.bks.cpg/sg52_9_cif.got.tgz:16933.got - 2010.06.03 12:15:38.
