data_PCOD9413015
_publ_section_title
;
Structure prediction by ZEFSAII (Michael W. Deem and Ramdas Pophale) SiO2 
 PCOD9413015
Probable space group: P N N A
;
_chemical_formula_sum "Si O2"
_cell_formula_units_Z 48
_cell_length_a 16.344070
_cell_length_b 8.992950
_cell_length_c 18.005165
_cell_angle_alpha 90.000000
_cell_angle_beta 90.000000
_cell_angle_gamma 90.000000
_cell_volume 2646.424436
_symmetry_space_group_name_H-M "P N N A"
_symmetry_group_IT_number 52
_symmetry_cell_setting 'orthorhombic'
loop_
_space_group_symop_operation_xyz
x,y,z
1/2-x,-y,z
x,1/2-y,1/2-z
1/2-x,1/2+y,1/2-z
-x,-y,-z
1/2+x,y,-z
-x,1/2+y,1/2+z
1/2+x,1/2-y,1/2+z
loop_
_atom_site_type_symbol
_atom_site_label
_atom_site_fract_x
_atom_site_fract_y
_atom_site_fract_z
Si Si1 0.170122 0.351784 0.604264
Si Si2 0.552341 0.868615 0.079915
Si Si3 0.750000 0.500000 0.263917
Si Si4 0.419223 0.090158 0.091064
Si Si5 0.529959 0.185044 0.329480
Si Si6 0.750000 0.500000 0.530117
Si Si7 0.413396 0.124556 0.689409
O O1 0.114685 0.501146 0.603829
O O2 0.225276 0.368822 0.677778
O O3 0.105190 0.220452 0.614277
O O4 0.219358 0.370743 0.527563
O O5 0.584541 0.716590 0.113592
O O6 0.466031 0.934832 0.108034
O O7 0.550033 0.863180 0.991273
O O8 0.672608 0.551503 0.215349
O O9 0.451920 0.219534 0.144450
O O10 0.324133 0.058806 0.079714
O O11 0.555699 0.250000 0.250000
O O12 0.522982 0.010034 0.318448
O O13 0.434570 0.250000 0.750000
#
# Coordination Sequence:
#
# PCOD9413015 Si02
#       7
#     8   8   4   8   8   4   8
#     4   9  18  33  55  86 121 149 184 225 296 358
#     4   9  18  36  54  79 113 158 193 229 280 358
#     4  11  20  30  52  82 129 144 182 230 285 366
#     4   9  19  37  59  80 108 149 203 242 286 345
#     4  11  21  36  56  84 118 155 190 237 291 358
#     4   9  18  34  68  86 107 150 196 250 291 342
#     4  12  23  32  51  83 121 162 191 228 288 354
#
# _framework density 18.13768
#
# number of rings (size 3 to 8) (size 9 to 14) (size 15 to 20)
#    0.000    2.000    3.333    2.000    2.333    0.667 
#    0.000    0.000    0.000    8.000    0.000    0.000 
#    0.000    0.000    0.000    0.000    0.000    0.000 
#
# Total GULP energy -267513.286636 kJ/mol
# GULP energy per Si atom -5573.193472 kJ/mol
# Density = 1.809640 g / cm^3
# Si number density = 18.137680 Si / 1000 Ang^3
#
#
#
# Elastic Constant Matrix: (Units=GPa)
#
#
# Indices 1 2 3 4 5 6 
#
# 1 112.2810 25.6017 23.0064 0.0000 0.0000 0.0000
# 2 25.6017 82.1483 15.6302 0.0000 0.0000 0.0000
# 3 23.0064 15.6302 40.4631 0.0000 0.0000 0.0000
# 4 0.0000 0.0000 0.0000 26.0375 0.0000 0.0000
# 5 0.0000 0.0000 0.0000 0.0000 22.7819 0.0000
# 6 0.0000 0.0000 0.0000 0.0000 0.0000 19.8677
#
#
#
# Elastic Compliance Matrix: (Units=1/GPa)
#
#
# Indices 1 2 3 4 5 6 
#
# 1 0.010468 -0.002299 -0.005064 0.000000 0.000000 0.000000
# 2 -0.002299 0.013644 -0.003963 0.000000 0.000000 0.000000
# 3 -0.005064 -0.003963 0.029124 0.000000 0.000000 0.000000
# 4 0.000000 0.000000 0.000000 0.038406 0.000000 0.000000
# 5 0.000000 0.000000 0.000000 0.000000 0.043894 0.000000
# 6 0.000000 0.000000 0.000000 0.000000 0.000000 0.050333
#
#
# Mechanical properties :
#
#
# Convention : Reuss Voigt Hill
#
# Bulk Modulus (GPa) = 32.69708 40.37430 36.53569
# Shear Modulus (GPa) = 22.86075 25.11438 23.98756
#
# Velocity S-wave (km/s) = 3.55406 3.72513 3.64060
# Velocity P-wave (km/s) = 5.90831 6.38830 6.15299
#
# Compressibility (1/GPa) = 0.03058377
#
# Stress axis : x y z
#
# Youngs Moduli (GPa) = 95.52935 73.29425 34.33595
#
# Poissons Ratio (x) = 0.16850 0.17387
# Poissons Ratio (y) = 0.21961 0.13608
# Poissons Ratio (z) = 0.48375 0.29048
#
# Static dielectric constant tensor:
#      x y z
#    x 1.678010 0.000000 0.000000 
#    y 0.000000 1.673920 0.000000 
#    z 0.000000 0.000000 1.668400 
# 
# From -- ./inp_files/33686.got.cif
#   From: 2010.05.17/outbox.cif.g08.bks.cpg/sg52_17_cif.got.tgz:33686.got - 2010.06.03 12:15:38.
