data_PCOD9413433
_publ_section_title
;
Structure prediction by ZEFSAII (Michael W. Deem and Ramdas Pophale) SiO2 
 PCOD9413433
Probable space group: P N N A
;
_chemical_formula_sum "Si O2"
_cell_formula_units_Z 40
_cell_length_a 8.409656
_cell_length_b 13.164716
_cell_length_c 15.444478
_cell_angle_alpha 90.000000
_cell_angle_beta 90.000000
_cell_angle_gamma 90.000000
_cell_volume 1709.869479
_symmetry_space_group_name_H-M "P N N A"
_symmetry_group_IT_number 52
_symmetry_cell_setting 'orthorhombic'
loop_
_space_group_symop_operation_xyz
x,y,z
1/2-x,-y,z
x,1/2-y,1/2-z
1/2-x,1/2+y,1/2-z
-x,-y,-z
1/2+x,y,-z
-x,1/2+y,1/2+z
1/2+x,1/2-y,1/2+z
loop_
_atom_site_type_symbol
_atom_site_label
_atom_site_fract_x
_atom_site_fract_y
_atom_site_fract_z
Si Si1 0.945697 0.911040 0.062968
Si Si2 0.701791 0.397212 0.867837
Si Si3 0.197528 0.732403 0.499875
Si Si4 0.020050 0.373153 0.756539
Si Si5 0.640669 0.658296 0.179863
O O1 0.774416 0.872225 0.033930
O O2 0.967255 0.930072 0.164244
O O3 0.042130 0.806413 0.048422
O O4 0.000000 0.000000 0.000000
O O5 0.750000 0.500000 0.918895
O O6 0.528034 0.400531 0.823575
O O7 0.849127 0.391593 0.800688
O O8 0.708383 0.300200 0.930667
O O9 0.160883 0.796116 0.584403
O O10 0.025218 0.250000 0.750000
O O11 0.189727 0.394847 0.802002
O O12 0.622461 0.750000 0.250000
#
# Coordination Sequence:
#
# PCOD9413433 Si02
#       5
#     8   8   8   8   8
#     4  12  26  46  77 111 151 196 255 322 387 456
#     4  12  28  46  76 111 150 202 254 313 389 468
#     4  12  23  48  73 106 152 197 254 318 382 457
#     4  11  23  51  75 107 154 205 248 317 393 460
#     4  11  24  46  79 103 151 204 251 316 390 452
#
# _framework density 23.393597
#
# number of rings (size 3 to 8) (size 9 to 14) (size 15 to 20)
#    0.000    0.400    8.000    1.200    0.000    4.800 
#    3.600    0.000    0.000    0.000    0.000    0.000 
#    0.000    0.000    0.000    0.000    0.000    0.000 
#
# Total GULP energy -223393.374405 kJ/mol
# GULP energy per Si atom -5584.834360 kJ/mol
# Density = 2.334035 g / cm^3
# Si number density = 23.393597 Si / 1000 Ang^3
#
#
#
# Elastic Constant Matrix: (Units=GPa)
#
#
# Indices 1 2 3 4 5 6 
#
# 1 196.8660 41.3489 71.8141 0.0000 0.0000 0.0000
# 2 41.3489 61.1732 21.7555 0.0000 0.0000 0.0000
# 3 71.8141 21.7555 127.9827 0.0000 0.0000 0.0000
# 4 0.0000 0.0000 0.0000 35.8514 0.0000 0.0000
# 5 0.0000 0.0000 0.0000 0.0000 26.4138 0.0000
# 6 0.0000 0.0000 0.0000 0.0000 0.0000 17.7151
#
#
#
# Elastic Compliance Matrix: (Units=1/GPa)
#
#
# Indices 1 2 3 4 5 6 
#
# 1 0.007052 -0.003576 -0.003349 0.000000 0.000000 0.000000
# 2 -0.003576 0.019212 -0.001259 0.000000 0.000000 0.000000
# 3 -0.003349 -0.001259 0.009907 0.000000 0.000000 0.000000
# 4 0.000000 0.000000 0.000000 0.027893 0.000000 0.000000
# 5 0.000000 0.000000 0.000000 0.000000 0.037859 0.000000
# 6 0.000000 0.000000 0.000000 0.000000 0.000000 0.056449
#
#
# Mechanical properties :
#
#
# Convention : Reuss Voigt Hill
#
# Bulk Modulus (GPa) = 50.49926 72.87323 61.68624
# Shear Modulus (GPa) = 27.57218 32.73630 30.15424
#
# Velocity S-wave (km/s) = 3.43683 3.74487 3.59415
# Velocity P-wave (km/s) = 6.11414 7.06522 6.60682
#
# Compressibility (1/GPa) = 0.01980227
#
# Stress axis : x y z
#
# Youngs Moduli (GPa) = 141.79389 52.05113 100.93782
#
# Poissons Ratio (x) = 0.18612 0.33809
# Poissons Ratio (y) = 0.50703 0.12711
# Poissons Ratio (z) = 0.47494 0.06555
#
# Static dielectric constant tensor:
#      x y z
#    x 1.754760 0.000000 0.000000 
#    y 0.000000 1.837590 0.000000 
#    z 0.000000 0.000000 -0.190870 
# 
# From -- ./inp_files/24435.got.cif
#   From: 2010.05.17/outbox.cif.g08.bks.cpg/sg52_13_cif.got.tgz:24435.got - 2010.06.03 12:15:38.
