data_PCOD9413694
_publ_section_title
;
Structure prediction by ZEFSAII (Michael W. Deem and Ramdas Pophale) SiO2 
 PCOD9413694
Probable space group: P N N A
;
_chemical_formula_sum "Si O2"
_cell_formula_units_Z 48
_cell_length_a 8.357088
_cell_length_b 13.243440
_cell_length_c 22.615612
_cell_angle_alpha 90.000000
_cell_angle_beta 90.000000
_cell_angle_gamma 90.000000
_cell_volume 2503.018896
_symmetry_space_group_name_H-M "P N N A"
_symmetry_group_IT_number 52
_symmetry_cell_setting 'orthorhombic'
loop_
_space_group_symop_operation_xyz
x,y,z
1/2-x,-y,z
x,1/2-y,1/2-z
1/2-x,1/2+y,1/2-z
-x,-y,-z
1/2+x,y,-z
-x,1/2+y,1/2+z
1/2+x,1/2-y,1/2+z
loop_
_atom_site_type_symbol
_atom_site_label
_atom_site_fract_x
_atom_site_fract_y
_atom_site_fract_z
Si Si1 0.250000 0.000000 0.739628
Si Si2 0.462401 0.289494 0.405178
Si Si3 0.336507 0.794604 0.686507
Si Si4 0.641101 0.304703 0.522314
Si Si5 0.933620 0.493049 0.676238
Si Si6 0.908545 0.164234 0.110961
Si Si7 0.250000 0.500000 0.525831
O O1 0.246363 0.099146 0.699058
O O2 0.087813 0.010481 0.779524
O O3 0.507400 0.208838 0.355009
O O4 0.600804 0.276172 0.455118
O O5 0.303983 0.278418 0.444444
O O6 0.453503 0.398352 0.370266
O O7 0.380936 0.750000 0.750000
O O8 0.211366 0.718870 0.654962
O O9 0.499957 0.266194 0.564362
O O10 0.644784 0.427839 0.515825
O O11 0.750000 0.500000 0.699639
O O12 0.958447 0.601864 0.646175
O O13 0.829509 0.078668 0.070161
#
# Coordination Sequence:
#
# PCOD9413694 Si02
#       7
#     4   8   8   8   8   8   4
#     4  12  27  48  66  86 132 176 235 278 324 374
#     4  12  22  38  60  98 137 172 207 258 336 399
#     4  12  24  44  67  85 127 181 216 279 330 377
#     4  12  22  33  60  96 140 162 199 256 329 409
#     4  12  22  38  65 103 135 175 215 259 323 404
#     4  12  21  36  59  97 136 166 206 251 329 399
#     4  12  19  32  62  98 140 168 183 252 346 402
#
# _framework density 19.176843000000002
#
# number of rings (size 3 to 8) (size 9 to 14) (size 15 to 20)
#    0.000    0.000   10.000    2.000    0.000    0.000 
#    3.000    2.500    0.000    4.000    0.000    0.000 
#    0.000    0.000    0.000    0.000    0.000    0.000 
#
# Total GULP energy -267350.730778 kJ/mol
# GULP energy per Si atom -5569.806891 kJ/mol
# Density = 1.913320 g / cm^3
# Si number density = 19.176843 Si / 1000 Ang^3
#
#
#
# Elastic Constant Matrix: (Units=GPa)
#
#
# Indices 1 2 3 4 5 6 
#
# 1 132.7393 28.0457 69.7132 0.0000 0.0000 0.0000
# 2 28.0457 45.9131 31.3749 0.0000 0.0000 0.0000
# 3 69.7132 31.3749 126.3635 0.0000 0.0000 0.0000
# 4 0.0000 0.0000 0.0000 35.2152 0.0000 0.0000
# 5 0.0000 0.0000 0.0000 0.0000 24.0055 0.0000
# 6 0.0000 0.0000 0.0000 0.0000 0.0000 13.2798
#
#
#
# Elastic Compliance Matrix: (Units=1/GPa)
#
#
# Indices 1 2 3 4 5 6 
#
# 1 0.010958 -0.003086 -0.005279 0.000000 0.000000 0.000000
# 2 -0.003086 0.027100 -0.005026 0.000000 0.000000 0.000000
# 3 -0.005279 -0.005026 0.012074 0.000000 0.000000 0.000000
# 4 0.000000 0.000000 0.000000 0.028397 0.000000 0.000000
# 5 0.000000 0.000000 0.000000 0.000000 0.041657 0.000000
# 6 0.000000 0.000000 0.000000 0.000000 0.000000 0.075302
#
#
# Mechanical properties :
#
#
# Convention : Reuss Voigt Hill
#
# Bulk Modulus (GPa) = 42.82775 62.58707 52.70741
# Shear Modulus (GPa) = 21.73395 26.22556 23.97976
#
# Velocity S-wave (km/s) = 3.37017 3.70207 3.54001
# Velocity P-wave (km/s) = 6.12581 7.14013 6.65233
#
# Compressibility (1/GPa) = 0.02334935
#
# Stress axis : x y z
#
# Youngs Moduli (GPa) = 91.25568 36.90032 82.82180
#
# Poissons Ratio (x) = 0.11388 0.43724
# Poissons Ratio (y) = 0.28163 0.41627
# Poissons Ratio (z) = 0.48176 0.18546
#
# Static dielectric constant tensor:
#      x y z
#    x 1.810050 0.000000 0.000000 
#    y 0.000000 1.672600 0.000000 
#    z 0.000000 0.000000 1.715260 
# 
# From -- ./inp_files/35912.got.cif
#   From: 2010.05.17/outbox.cif.g08.bks.cpg/sg52_18_cif.got.tgz:35912.got - 2010.06.03 12:15:38.
