data_PCOD9413216
_publ_section_title
;
Structure prediction by ZEFSAII (Michael W. Deem and Ramdas Pophale) SiO2 
 PCOD9413216
Probable space group: P N N A
;
_chemical_formula_sum "Si O2"
_cell_formula_units_Z 60
_cell_length_a 24.384244
_cell_length_b 5.843238
_cell_length_c 20.129682
_cell_angle_alpha 90.000000
_cell_angle_beta 90.000000
_cell_angle_gamma 90.000000
_cell_volume 2868.136296
_symmetry_space_group_name_H-M "P N N A"
_symmetry_group_IT_number 52
_symmetry_cell_setting 'orthorhombic'
loop_
_space_group_symop_operation_xyz
x,y,z
1/2-x,-y,z
x,1/2-y,1/2-z
1/2-x,1/2+y,1/2-z
-x,-y,-z
1/2+x,y,-z
-x,1/2+y,1/2+z
1/2+x,1/2-y,1/2+z
loop_
_atom_site_type_symbol
_atom_site_label
_atom_site_fract_x
_atom_site_fract_y
_atom_site_fract_z
Si Si1 0.190846 0.393100 0.510951
Si Si2 0.390877 0.883559 0.581806
Si Si3 0.159960 0.376494 0.117957
Si Si4 0.499352 0.581535 0.576855
Si Si5 0.387711 0.275219 0.039897
Si Si6 0.222817 0.250000 0.250000
Si Si7 0.541146 0.200426 0.673653
Si Si8 0.435163 0.998591 0.713703
O O1 0.250000 0.500000 0.522867
O O2 0.167519 0.234218 0.569283
O O3 0.189338 0.252964 0.442132
O O4 0.142233 0.574484 0.499076
O O5 0.442085 0.710034 0.585321
O O6 0.394606 0.013680 0.651064
O O7 0.400265 0.035909 0.516124
O O8 0.156474 0.637749 0.093931
O O9 0.188783 0.319045 0.185485
O O10 0.095587 0.320099 0.129270
O O11 0.500000 0.500000 0.500000
O O12 0.556552 0.718334 0.577537
O O13 0.505988 0.390205 0.633650
O O14 0.250000 0.500000 0.266596
O O15 0.558666 0.250000 0.750000
O O16 0.497784 0.996196 0.685243
O O17 0.426380 0.750000 0.750000
O O18 0.431861 0.250000 0.750000
#
# Coordination Sequence:
#
# PCOD9413216 Si02
#       8
#     8   8   8   8   8   4   8   8
#     4  11  25  44  67  97 135 180 245 299 359 411
#     4  11  23  40  67 104 135 183 229 291 364 433
#     4  11  24  43  63  96 134 189 242 298 359 412
#     4  12  20  39  68 101 143 183 239 289 366 442
#     4  11  23  39  69  96 135 184 231 305 350 431
#     4  12  30  48  70  96 132 198 260 312 352 410
#     4  11  22  40  63  98 143 186 230 285 357 437
#     4  11  25  43  69 106 147 184 224 280 358 451
#
# _framework density 20.919505999999998
#
# number of rings (size 3 to 8) (size 9 to 14) (size 15 to 20)
#    0.000    0.800    3.333    4.800    5.600    1.600 
#    1.200    0.000    0.000    0.000    3.467    0.000 
#    0.000    0.000    0.000    0.000    0.000    0.000 
#
# Total GULP energy -334576.108484 kJ/mol
# GULP energy per Si atom -5576.268475 kJ/mol
# Density = 2.087189 g / cm^3
# Si number density = 20.919506 Si / 1000 Ang^3
#
#
#
# Elastic Constant Matrix: (Units=GPa)
#
#
# Indices 1 2 3 4 5 6 
#
# 1 82.7779 21.8831 40.8499 0.0000 0.0000 0.0000
# 2 21.8831 68.1297 46.4371 0.0000 0.0000 0.0000
# 3 40.8499 46.4371 113.4704 0.0000 0.0000 0.0000
# 4 0.0000 0.0000 0.0000 29.9436 0.0000 0.0000
# 5 0.0000 0.0000 0.0000 0.0000 19.1019 0.0000
# 6 0.0000 0.0000 0.0000 0.0000 0.0000 12.4654
#
#
#
# Elastic Compliance Matrix: (Units=1/GPa)
#
#
# Indices 1 2 3 4 5 6 
#
# 1 0.014809 -0.001557 -0.004694 0.000000 0.000000 0.000000
# 2 -0.001557 0.020520 -0.007837 0.000000 0.000000 0.000000
# 3 -0.004694 -0.007837 0.013710 0.000000 0.000000 0.000000
# 4 0.000000 0.000000 0.000000 0.033396 0.000000 0.000000
# 5 0.000000 0.000000 0.000000 0.000000 0.052351 0.000000
# 6 0.000000 0.000000 0.000000 0.000000 0.000000 0.080222
#
#
# Mechanical properties :
#
#
# Convention : Reuss Voigt Hill
#
# Bulk Modulus (GPa) = 47.93367 53.63533 50.78450
# Shear Modulus (GPa) = 19.98901 22.64939 21.31920
#
# Velocity S-wave (km/s) = 3.09450 3.29400 3.19581
# Velocity P-wave (km/s) = 5.97755 6.33733 6.16007
#
# Compressibility (1/GPa) = 0.02086216
#
# Stress axis : x y z
#
# Youngs Moduli (GPa) = 67.52864 48.73363 72.93976
#
# Poissons Ratio (x) = 0.07588 0.34237
# Poissons Ratio (y) = 0.10515 0.57163
# Poissons Ratio (z) = 0.31697 0.38193
#
# Static dielectric constant tensor:
#      x y z
#    x 1.744370 0.000000 0.000000 
#    y 0.000000 1.894860 0.000000 
#    z 0.000000 0.000000 1.780120 
# 
# From -- ./inp_files/38179.got.cif
#   From: 2010.05.17/outbox.cif.g08.bks.cpg/sg52_20_cif.got.tgz:38179.got - 2010.06.03 12:15:38.
