data_PCOD9413064
_publ_section_title
;
Structure prediction by ZEFSAII (Michael W. Deem and Ramdas Pophale) SiO2 
 PCOD9413064
Probable space group: P N N A
;
_chemical_formula_sum "Si O2"
_cell_formula_units_Z 32
_cell_length_a 22.126283
_cell_length_b 7.725353
_cell_length_c 7.964861
_cell_angle_alpha 90.000000
_cell_angle_beta 90.000000
_cell_angle_gamma 90.000000
_cell_volume 1361.460347
_symmetry_space_group_name_H-M "P N N A"
_symmetry_group_IT_number 52
_symmetry_cell_setting 'orthorhombic'
loop_
_space_group_symop_operation_xyz
x,y,z
1/2-x,-y,z
x,1/2-y,1/2-z
1/2-x,1/2+y,1/2-z
-x,-y,-z
1/2+x,y,-z
-x,1/2+y,1/2+z
1/2+x,1/2-y,1/2+z
loop_
_atom_site_type_symbol
_atom_site_label
_atom_site_fract_x
_atom_site_fract_y
_atom_site_fract_z
Si Si1 0.126460 0.803936 0.440885
Si Si2 0.004105 0.295564 0.550337
Si Si3 0.317915 0.991093 0.860079
Si Si4 0.866064 0.661088 0.024794
O O1 0.121693 0.750000 0.250000
O O2 0.162929 0.668668 0.554201
O O3 0.057387 0.797025 0.510437
O O4 0.153559 0.994310 0.424876
O O5 0.007659 0.250000 0.750000
O O6 0.066539 0.220470 0.479187
O O7 0.000000 0.500000 0.500000
O O8 0.362083 0.926606 0.711847
O O9 0.250000 0.000000 0.793842
O O10 0.324022 0.828330 0.985182
#
# Coordination Sequence:
#
# PCOD9413064 Si02
#       4
#     8   8   8   8
#     4  11  25  42  66 102 139 179 218 280 360 418
#     4  11  20  42  68 103 141 177 232 289 355 422
#     4  11  25  45  69 101 132 178 243 288 336 413
#     4  11  23  43  72  98 133 180 231 289 337 405
#
# _framework density 23.504175
#
# number of rings (size 3 to 8) (size 9 to 14) (size 15 to 20)
#    0.000    1.000    5.000    1.500    7.000    1.000 
#    4.500    2.500    0.000    0.000    0.000    0.000 
#    0.000    0.000    0.000    0.000    0.000    0.000 
#
# Total GULP energy -178682.630974 kJ/mol
# GULP energy per Si atom -5583.832218 kJ/mol
# Density = 2.345068 g / cm^3
# Si number density = 23.504175 Si / 1000 Ang^3
#
#
#
# Elastic Constant Matrix: (Units=GPa)
#
#
# Indices 1 2 3 4 5 6 
#
# 1 95.7209 20.5712 13.3234 0.0000 0.0000 0.0000
# 2 20.5712 150.7573 15.6421 0.0000 0.0000 0.0000
# 3 13.3234 15.6421 34.1069 0.0000 0.0000 0.0000
# 4 0.0000 0.0000 0.0000 28.9331 0.0000 0.0000
# 5 0.0000 0.0000 0.0000 0.0000 11.4409 0.0000
# 6 0.0000 0.0000 0.0000 0.0000 0.0000 -8.0258
#
#
#
# Elastic Compliance Matrix: (Units=1/GPa)
#
#
# Indices 1 2 3 4 5 6 
#
# 1 0.011228 -0.001131 -0.003868 0.000000 0.000000 0.000000
# 2 -0.001131 0.007078 -0.002805 0.000000 0.000000 0.000000
# 3 -0.003868 -0.002805 0.032117 0.000000 0.000000 0.000000
# 4 0.000000 0.000000 0.000000 0.034562 0.000000 0.000000
# 5 0.000000 0.000000 0.000000 0.000000 0.087405 0.000000
# 6 0.000000 0.000000 0.000000 0.000000 0.000000 -0.124599
#
#
# Mechanical properties :
#
#
# Convention : Reuss Voigt Hill
#
# Bulk Modulus (GPa) = 28.72119 42.18426 35.45272
# Shear Modulus (GPa) = 66.66236 21.87288 44.26762
#
# Velocity S-wave (km/s) = 5.33137 3.05388 4.34452
# Velocity P-wave (km/s) = 7.08125 5.51556 6.34687
#
# Compressibility (1/GPa) = 0.03481750
#
# Stress axis : x y z
#
# Youngs Moduli (GPa) = 89.05985 141.27323 31.13648
#
# Poissons Ratio (x) = 0.15976 0.12042
# Poissons Ratio (y) = 0.10071 0.08732
# Poissons Ratio (z) = 0.34445 0.39621
#
# Static dielectric constant tensor:
#      x y z
#    x 1.864430 0.000000 0.000000 
#    y 0.000000 2.351890 0.000000 
#    z 0.000000 0.000000 2.168210 
# 
# From -- ./inp_files/21961.got.cif
#   From: 2010.05.17/outbox.cif.g08.bks.cpg/sg52_11_cif.got.tgz:21961.got - 2010.06.03 12:15:38.
