data_PCOD9413553
_publ_section_title
;
Structure prediction by ZEFSAII (Michael W. Deem and Ramdas Pophale) SiO2 
 PCOD9413553
Probable space group: P N N A
;
_chemical_formula_sum "Si O2"
_cell_formula_units_Z 32
_cell_length_a 10.338586
_cell_length_b 22.023093
_cell_length_c 6.170858
_cell_angle_alpha 90.000000
_cell_angle_beta 90.000000
_cell_angle_gamma 90.000000
_cell_volume 1405.028101
_symmetry_space_group_name_H-M "P N N A"
_symmetry_group_IT_number 52
_symmetry_cell_setting 'orthorhombic'
loop_
_space_group_symop_operation_xyz
x,y,z
1/2-x,-y,z
x,1/2-y,1/2-z
1/2-x,1/2+y,1/2-z
-x,-y,-z
1/2+x,y,-z
-x,1/2+y,1/2+z
1/2+x,1/2-y,1/2+z
loop_
_atom_site_type_symbol
_atom_site_label
_atom_site_fract_x
_atom_site_fract_y
_atom_site_fract_z
Si Si1 0.065046 0.318687 0.168622
Si Si2 0.414532 0.471079 0.192251
Si Si3 0.871596 0.581729 0.482779
Si Si4 0.286099 0.123189 0.599428
O O1 0.066863 0.250000 0.250000
O O2 0.109582 0.360487 0.367666
O O3 0.920261 0.340235 0.108788
O O4 0.168068 0.334430 0.979316
O O5 0.508317 0.425832 0.320706
O O6 0.376746 0.522581 0.364656
O O7 0.500000 0.500000 0.000000
O O8 0.306404 0.431455 0.071568
O O9 0.747941 0.591965 0.329079
#
# Coordination Sequence:
#
# PCOD9413553 Si02
#       4
#     8   8   8   8
#     4  12  31  51  79 111 155 215 269 330 390 477
#     4  11  24  49  76 117 160 200 258 321 404 486
#     4  11  26  48  78 113 157 208 253 324 404 468
#     4  12  27  53  75 122 157 204 270 326 408 476
#
# _framework density 22.775347
#
# number of rings (size 3 to 8) (size 9 to 14) (size 15 to 20)
#    0.000    0.500    5.000    0.000    7.000    6.000 
#    0.000    0.000    0.000    0.000    0.000    0.000 
#    0.000    0.000    0.000    0.000    0.000    0.000 
#
# Total GULP energy -179326.463461 kJ/mol
# GULP energy per Si atom -5603.951983 kJ/mol
# Density = 2.272351 g / cm^3
# Si number density = 22.775347 Si / 1000 Ang^3
#
#
#
# Elastic Constant Matrix: (Units=GPa)
#
#
# Indices 1 2 3 4 5 6 
#
# 1 155.7730 55.5793 64.7572 0.0000 0.0000 0.0000
# 2 55.5793 152.5586 51.7849 0.0000 0.0000 0.0000
# 3 64.7572 51.7849 112.5354 0.0000 0.0000 0.0000
# 4 0.0000 0.0000 0.0000 41.1501 0.0000 0.0000
# 5 0.0000 0.0000 0.0000 0.0000 68.3883 0.0000
# 6 0.0000 0.0000 0.0000 0.0000 0.0000 28.0690
#
#
#
# Elastic Compliance Matrix: (Units=1/GPa)
#
#
# Indices 1 2 3 4 5 6 
#
# 1 0.008823 -0.001767 -0.004264 0.000000 0.000000 0.000000
# 2 -0.001767 0.008122 -0.002721 0.000000 0.000000 0.000000
# 3 -0.004264 -0.002721 0.012592 0.000000 0.000000 0.000000
# 4 0.000000 0.000000 0.000000 0.024301 0.000000 0.000000
# 5 0.000000 0.000000 0.000000 0.000000 0.014622 0.000000
# 6 0.000000 0.000000 0.000000 0.000000 0.000000 0.035627
#
#
# Mechanical properties :
#
#
# Convention : Reuss Voigt Hill
#
# Bulk Modulus (GPa) = 83.10189 85.01221 84.05705
# Shear Modulus (GPa) = 39.80877 44.10451 41.95664
#
# Velocity S-wave (km/s) = 4.18531 4.40534 4.29674
# Velocity P-wave (km/s) = 7.74097 7.95509 7.84876
#
# Compressibility (1/GPa) = 0.01203342
#
# Stress axis : x y z
#
# Youngs Moduli (GPa) = 113.34622 123.12078 79.41778
#
# Poissons Ratio (x) = 0.21754 0.33862
# Poissons Ratio (y) = 0.20027 0.21608
# Poissons Ratio (z) = 0.48328 0.33499
#
# Static dielectric constant tensor:
#      x y z
#    x 1.935260 0.000000 0.000000 
#    y 0.000000 1.812310 0.000000 
#    z 0.000000 0.000000 1.857740 
# 
# From -- ./inp_files/1055.got.cif
#   From: 2010.05.17/outbox.cif.g08.bks.cpg/sg52_1_cif.got.tgz:1055.got - 2010.06.03 12:15:38.
