data_PCOD9413063
_publ_section_title
;
Structure prediction by ZEFSAII (Michael W. Deem and Ramdas Pophale) SiO2 
 PCOD9413063
Probable space group: P N N A
;
_chemical_formula_sum "Si O2"
_cell_formula_units_Z 56
_cell_length_a 15.516777
_cell_length_b 11.220077
_cell_length_c 14.801480
_cell_angle_alpha 90.000000
_cell_angle_beta 90.000000
_cell_angle_gamma 90.000000
_cell_volume 2576.929272
_symmetry_space_group_name_H-M "P N N A"
_symmetry_group_IT_number 52
_symmetry_cell_setting 'orthorhombic'
loop_
_space_group_symop_operation_xyz
x,y,z
1/2-x,-y,z
x,1/2-y,1/2-z
1/2-x,1/2+y,1/2-z
-x,-y,-z
1/2+x,y,-z
-x,1/2+y,1/2+z
1/2+x,1/2-y,1/2+z
loop_
_atom_site_type_symbol
_atom_site_label
_atom_site_fract_x
_atom_site_fract_y
_atom_site_fract_z
Si Si1 0.824507 0.688602 0.165024
Si Si2 0.750000 0.000000 0.216475
Si Si3 0.904657 0.918168 0.892305
Si Si4 0.906326 0.472773 0.416569
Si Si5 0.899477 0.985098 0.479709
Si Si6 0.750000 0.500000 0.718889
Si Si7 0.687132 0.742511 0.023596
Si Si8 0.809369 0.678976 0.871003
O O1 0.871815 0.750000 0.250000
O O2 0.753182 0.612508 0.218524
O O3 0.883095 0.601296 0.105690
O O4 0.766394 0.760956 0.093740
O O5 0.665512 0.000044 0.156330
O O6 0.880586 0.783632 0.862645
O O7 0.001010 0.959601 0.870503
O O8 0.833487 0.001737 0.845459
O O9 0.903286 0.933021 0.001308
O O10 0.881033 0.346315 0.461409
O O11 0.850897 0.921706 0.563731
O O12 0.855480 0.113018 0.463410
O O13 0.000000 0.000000 0.500000
O O14 0.770610 0.612077 0.784360
O O15 0.731731 0.740264 0.926071
#
# Coordination Sequence:
#
# PCOD9413063 Si02
#       8
#     8   4   8   8   8   4   8   8
#     4  11  22  39  64  97 132 174 231 283 353 419
#     4  12  21  41  66  98 138 176 218 293 355 416
#     4  11  26  45  68 102 138 183 241 293 366 428
#     4  11  25  43  69 103 140 182 231 294 364 441
#     4  11  23  40  66  98 139 187 239 293 360 446
#     4  12  23  45  68 104 142 188 244 299 355 434
#     4  11  20  42  67  95 135 184 229 282 359 429
#     4  11  22  44  71  95 137 189 238 295 362 433
#
# _framework density 21.731290999999999
#
# number of rings (size 3 to 8) (size 9 to 14) (size 15 to 20)
#    0.000    0.857    4.286    4.286    2.000    1.143 
#    5.143    0.000    3.143    0.000    0.000    0.000 
#    0.000    0.000    0.000    0.000    0.000    0.000 
#
# Total GULP energy -312978.074550 kJ/mol
# GULP energy per Si atom -5588.894188 kJ/mol
# Density = 2.168183 g / cm^3
# Si number density = 21.731291 Si / 1000 Ang^3
#
#
#
# Elastic Constant Matrix: (Units=GPa)
#
#
# Indices 1 2 3 4 5 6 
#
# 1 163.9803 36.6547 53.5413 0.0000 0.0000 0.0000
# 2 36.6547 96.1976 15.4768 0.0000 0.0000 0.0000
# 3 53.5413 15.4768 75.3291 0.0000 0.0000 0.0000
# 4 0.0000 0.0000 0.0000 38.2761 0.0000 0.0000
# 5 0.0000 0.0000 0.0000 0.0000 5.7663 0.0000
# 6 0.0000 0.0000 0.0000 0.0000 0.0000 30.0459
#
#
#
# Elastic Compliance Matrix: (Units=1/GPa)
#
#
# Indices 1 2 3 4 5 6 
#
# 1 0.008414 -0.002321 -0.005504 0.000000 0.000000 0.000000
# 2 -0.002321 0.011391 -0.000691 0.000000 0.000000 0.000000
# 3 -0.005504 -0.000691 0.017329 0.000000 0.000000 0.000000
# 4 0.000000 0.000000 0.000000 0.026126 0.000000 0.000000
# 5 0.000000 0.000000 0.000000 0.000000 0.173422 0.000000
# 6 0.000000 0.000000 0.000000 0.000000 0.000000 0.033282
#
#
# Mechanical properties :
#
#
# Convention : Reuss Voigt Hill
#
# Bulk Modulus (GPa) = 49.74307 60.76139 55.25223
# Shear Modulus (GPa) = 17.02448 30.13995 23.58221
#
# Velocity S-wave (km/s) = 2.80198 3.72820 3.29777
# Velocity P-wave (km/s) = 5.77996 6.82302 6.32304
#
# Compressibility (1/GPa) = 0.02010330
#
# Stress axis : x y z
#
# Youngs Moduli (GPa) = 118.84961 87.79134 57.70745
#
# Poissons Ratio (x) = 0.20373 0.31760
# Poissons Ratio (y) = 0.27580 0.03987
# Poissons Ratio (z) = 0.65410 0.06065
#
# Static dielectric constant tensor:
#      x y z
#    x 1.753920 0.000000 0.000000 
#    y 0.000000 1.883490 0.000000 
#    z 0.000000 0.000000 1.804910 
# 
# From -- ./inp_files/27323.got.cif
#   From: 2010.05.17/outbox.cif.g08.bks.cpg/sg52_14_cif.got.tgz:27323.got - 2010.06.03 12:15:38.
