data_PCOD9413514
_publ_section_title
;
Structure prediction by ZEFSAII (Michael W. Deem and Ramdas Pophale) SiO2 
 PCOD9413514
Probable space group: P N N A
;
_chemical_formula_sum "Si O2"
_cell_formula_units_Z 36
_cell_length_a 15.420575
_cell_length_b 14.723209
_cell_length_c 7.679380
_cell_angle_alpha 90.000000
_cell_angle_beta 90.000000
_cell_angle_gamma 90.000000
_cell_volume 1743.529112
_symmetry_space_group_name_H-M "P N N A"
_symmetry_group_IT_number 52
_symmetry_cell_setting 'orthorhombic'
loop_
_space_group_symop_operation_xyz
x,y,z
1/2-x,-y,z
x,1/2-y,1/2-z
1/2-x,1/2+y,1/2-z
-x,-y,-z
1/2+x,y,-z
-x,1/2+y,1/2+z
1/2+x,1/2-y,1/2+z
loop_
_atom_site_type_symbol
_atom_site_label
_atom_site_fract_x
_atom_site_fract_y
_atom_site_fract_z
Si Si1 0.829246 0.250000 0.250000
Si Si2 0.414677 0.595271 0.618918
Si Si3 0.709031 0.098037 0.425354
Si Si4 0.285714 0.853604 0.190874
Si Si5 0.895874 0.391595 0.514808
O O1 0.772712 0.180059 0.367035
O O2 0.884852 0.312033 0.376313
O O3 0.373665 0.614142 0.805070
O O4 0.355755 0.638671 0.464520
O O5 0.514714 0.622764 0.615752
O O6 0.406364 0.487905 0.580404
O O7 0.688460 0.097230 0.629952
O O8 0.750000 0.000000 0.378780
O O9 0.274665 0.750000 0.250000
O O10 0.193310 0.891228 0.123856
#
# Coordination Sequence:
#
# PCOD9413514 Si02
#       5
#     4   8   8   8   8
#     4  12  22  44  70  98 136 186 228 286 344 408
#     4  11  24  46  71 100 139 188 228 288 356 417
#     4  12  22  43  73  98 136 185 230 281 348 418
#     4  12  24  45  66 102 140 185 233 284 349 414
#     4  11  24  46  70 101 144 181 233 295 350 410
#
# _framework density 20.647776
#
# number of rings (size 3 to 8) (size 9 to 14) (size 15 to 20)
#    0.000    0.444    6.667    2.000    1.556    0.000 
#   10.000    3.333    0.000    0.000    0.000    0.000 
#    0.000    0.000    0.000    0.000    0.000    0.000 
#
# Total GULP energy -201321.915657 kJ/mol
# GULP energy per Si atom -5592.275435 kJ/mol
# Density = 2.060078 g / cm^3
# Si number density = 20.647776 Si / 1000 Ang^3
#
#
#
# Elastic Constant Matrix: (Units=GPa)
#
#
# Indices 1 2 3 4 5 6 
#
# 1 91.7663 0.8654 28.7240 0.0000 0.0000 0.0000
# 2 0.8654 78.3303 -2.3576 0.0000 0.0000 0.0000
# 3 28.7240 -2.3576 109.3202 0.0000 0.0000 0.0000
# 4 0.0000 0.0000 0.0000 29.2405 0.0000 0.0000
# 5 0.0000 0.0000 0.0000 0.0000 8.3527 0.0000
# 6 0.0000 0.0000 0.0000 0.0000 0.0000 5.5267
#
#
#
# Elastic Compliance Matrix: (Units=1/GPa)
#
#
# Indices 1 2 3 4 5 6 
#
# 1 0.011878 -0.000225 -0.003126 0.000000 0.000000 0.000000
# 2 -0.000225 0.012779 0.000335 0.000000 0.000000 0.000000
# 3 -0.003126 0.000335 0.009976 0.000000 0.000000 0.000000
# 4 0.000000 0.000000 0.000000 0.034199 0.000000 0.000000
# 5 0.000000 0.000000 0.000000 0.000000 0.119722 0.000000
# 6 0.000000 0.000000 0.000000 0.000000 0.000000 0.180939
#
#
# Mechanical properties :
#
#
# Convention : Reuss Voigt Hill
#
# Bulk Modulus (GPa) = 34.96482 37.09785 36.03133
# Shear Modulus (GPa) = 12.98501 25.43629 19.21065
#
# Velocity S-wave (km/s) = 2.51047 3.51367 3.05355
# Velocity P-wave (km/s) = 5.03726 5.87088 5.46997
#
# Compressibility (1/GPa) = 0.02860018
#
# Stress axis : x y z
#
# Youngs Moduli (GPa) = 84.19081 78.25333 100.24094
#
# Poissons Ratio (x) = 0.01763 0.31333
# Poissons Ratio (y) = 0.01897 -0.03356
# Poissons Ratio (z) = 0.26316 -0.02620
#
# Static dielectric constant tensor:
#      x y z
#    x 1.751210 0.000000 0.000000 
#    y 0.000000 1.756500 0.000000 
#    z 0.000000 0.000000 1.737320 
# 
# From -- ./inp_files/9884.got.cif
#   From: 2010.05.17/outbox.cif.g08.bks.cpg/sg52_5_cif.got.tgz:9884.got - 2010.06.03 12:15:38.
