data_PCOD9413755
_publ_section_title
;
Structure prediction by ZEFSAII (Michael W. Deem and Ramdas Pophale) SiO2 
 PCOD9413755
Probable space group: P N N A
;
_chemical_formula_sum "Si O2"
_cell_formula_units_Z 32
_cell_length_a 22.439738
_cell_length_b 7.456089
_cell_length_c 9.613965
_cell_angle_alpha 90.000000
_cell_angle_beta 90.000000
_cell_angle_gamma 90.000000
_cell_volume 1608.538285
_symmetry_space_group_name_H-M "P N N A"
_symmetry_group_IT_number 52
_symmetry_cell_setting 'orthorhombic'
loop_
_space_group_symop_operation_xyz
x,y,z
1/2-x,-y,z
x,1/2-y,1/2-z
1/2-x,1/2+y,1/2-z
-x,-y,-z
1/2+x,y,-z
-x,1/2+y,1/2+z
1/2+x,1/2-y,1/2+z
loop_
_atom_site_type_symbol
_atom_site_label
_atom_site_fract_x
_atom_site_fract_y
_atom_site_fract_z
Si Si1 0.317335 0.570335 0.157300
Si Si2 0.119015 0.109481 0.642057
Si Si3 0.501917 0.712181 0.525870
Si Si4 0.564124 0.750000 0.250000
Si Si5 0.102920 0.750000 0.250000
O O1 0.250000 0.500000 0.147526
O O2 0.319643 0.750000 0.250000
O O3 0.356441 0.423911 0.238869
O O4 0.344060 0.585748 0.000599
O O5 0.147614 0.250000 0.750000
O O6 0.056581 0.201875 0.592503
O O7 0.105188 0.926945 0.729351
O O8 0.500000 0.500000 0.500000
O O9 0.518561 0.783932 0.375857
O O10 0.558979 0.749448 0.619923
#
# Coordination Sequence:
#
# PCOD9413755 Si02
#       5
#     8   8   8   4   4
#     4  12  28  50  74 100 138 192 251 301 355 433
#     4  12  26  45  68 106 143 187 231 291 370 428
#     4  12  23  41  69 107 148 183 229 292 367 434
#     4  12  24  40  63 101 148 180 222 282 352 438
#     4  12  24  46  71 107 142 186 242 294 360 428
#
# _framework density 19.893837000000001
#
# number of rings (size 3 to 8) (size 9 to 14) (size 15 to 20)
#    0.000    0.000    7.500    2.250    5.250    0.000 
#    2.250    0.000    0.000    0.000    0.000    0.000 
#    0.000    0.000    0.000    0.000    0.000    0.000 
#
# Total GULP energy -178712.570648 kJ/mol
# GULP energy per Si atom -5584.767833 kJ/mol
# Density = 1.984856 g / cm^3
# Si number density = 19.893837 Si / 1000 Ang^3
#
#
#
# Elastic Constant Matrix: (Units=GPa)
#
#
# Indices 1 2 3 4 5 6 
#
# 1 123.7999 42.6875 37.6756 0.0000 0.0000 0.0000
# 2 42.6875 142.3253 19.6175 0.0000 0.0000 0.0000
# 3 37.6756 19.6175 116.3778 0.0000 0.0000 0.0000
# 4 0.0000 0.0000 0.0000 38.9810 0.0000 0.0000
# 5 0.0000 0.0000 0.0000 0.0000 35.0930 0.0000
# 6 0.0000 0.0000 0.0000 0.0000 0.0000 38.0502
#
#
#
# Elastic Compliance Matrix: (Units=1/GPa)
#
#
# Indices 1 2 3 4 5 6 
#
# 1 0.009794 -0.002560 -0.002739 0.000000 0.000000 0.000000
# 2 -0.002560 0.007862 -0.000497 0.000000 0.000000 0.000000
# 3 -0.002739 -0.000497 0.009563 0.000000 0.000000 0.000000
# 4 0.000000 0.000000 0.000000 0.025654 0.000000 0.000000
# 5 0.000000 0.000000 0.000000 0.000000 0.028496 0.000000
# 6 0.000000 0.000000 0.000000 0.000000 0.000000 0.026281
#
#
# Mechanical properties :
#
#
# Convention : Reuss Voigt Hill
#
# Bulk Modulus (GPa) = 63.98706 64.71824 64.35265
# Shear Modulus (GPa) = 40.17670 41.25967 40.71819
#
# Velocity S-wave (km/s) = 4.49882 4.55905 4.52904
# Velocity P-wave (km/s) = 7.69545 7.76632 7.73096
#
# Compressibility (1/GPa) = 0.01562816
#
# Stress axis : x y z
#
# Youngs Moduli (GPa) = 102.10538 127.18765 104.56802
#
# Poissons Ratio (x) = 0.32559 0.28642
# Poissons Ratio (y) = 0.26138 0.05193
# Poissons Ratio (z) = 0.27967 0.06316
#
# Static dielectric constant tensor:
#      x y z
#    x 1.568450 0.000000 0.000000 
#    y 0.000000 1.770520 0.000000 
#    z 0.000000 0.000000 1.644950 
# 
# From -- ./inp_files/12863.got.cif
#   From: 2010.05.17/outbox.cif.g08.bks.cpg/sg52_7_cif.got.tgz:12863.got - 2010.06.03 12:15:38.
