data_PCOD9413682
_publ_section_title
;
Structure prediction by ZEFSAII (Michael W. Deem and Ramdas Pophale) SiO2 
 PCOD9413682
Probable space group: P N N A
;
_chemical_formula_sum "Si O2"
_cell_formula_units_Z 40
_cell_length_a 8.838018
_cell_length_b 10.674361
_cell_length_c 16.324751
_cell_angle_alpha 90.000000
_cell_angle_beta 90.000000
_cell_angle_gamma 90.000000
_cell_volume 1540.080187
_symmetry_space_group_name_H-M "P N N A"
_symmetry_group_IT_number 52
_symmetry_cell_setting 'orthorhombic'
loop_
_space_group_symop_operation_xyz
x,y,z
1/2-x,-y,z
x,1/2-y,1/2-z
1/2-x,1/2+y,1/2-z
-x,-y,-z
1/2+x,y,-z
-x,1/2+y,1/2+z
1/2+x,1/2-y,1/2+z
loop_
_atom_site_type_symbol
_atom_site_label
_atom_site_fract_x
_atom_site_fract_y
_atom_site_fract_z
Si Si1 0.582235 0.393474 0.928017
Si Si2 0.587654 0.250000 0.250000
Si Si3 0.373060 0.164719 0.362922
Si Si4 0.073994 0.547844 0.412430
Si Si5 0.256827 0.225164 0.579224
Si Si6 0.750000 0.000000 0.099694
O O1 0.412763 0.457401 0.083326
O O2 0.660688 0.349195 0.012221
O O3 0.693383 0.338933 0.858201
O O4 0.419357 0.336127 0.918229
O O5 0.461637 0.147835 0.278485
O O6 0.694575 0.236707 0.328580
O O7 0.418538 0.300442 0.400344
O O8 0.250000 0.500000 0.396788
O O9 0.000000 0.500000 0.500000
O O10 0.920107 0.506049 0.359260
O O11 0.257215 0.369066 0.551941
#
# Coordination Sequence:
#
# PCOD9413682 Si02
#       6
#     8   4   8   8   8   4
#     4  11  28  53  88 124 165 232 294 352 425 537
#     4  12  28  54  74 120 172 220 280 358 436 516
#     4  11  27  54  81 122 169 222 287 357 430 521
#     4  12  25  44  76 116 160 213 275 349 420 502
#     4  12  28  49  82 123 168 226 291 354 438 515
#     4  12  26  46  70 116 166 210 270 358 418 500
#
# _framework density 25.972673
#
# number of rings (size 3 to 8) (size 9 to 14) (size 15 to 20)
#    0.000    0.400    3.000    3.600    2.800   12.000 
#    3.600    0.000    0.000    0.000    0.000    0.000 
#    0.000    0.000    0.000    0.000    0.000    0.000 
#
# Total GULP energy -222891.479307 kJ/mol
# GULP energy per Si atom -5572.286983 kJ/mol
# Density = 2.591356 g / cm^3
# Si number density = 25.972673 Si / 1000 Ang^3
#
#
#
# Elastic Constant Matrix: (Units=GPa)
#
#
# Indices 1 2 3 4 5 6 
#
# 1 302.1519 73.6812 78.4883 0.0000 0.0000 0.0000
# 2 73.6812 182.0272 48.8153 0.0000 0.0000 0.0000
# 3 78.4883 48.8153 154.7480 0.0000 0.0000 0.0000
# 4 0.0000 0.0000 0.0000 21.7938 0.0000 0.0000
# 5 0.0000 0.0000 0.0000 0.0000 39.2019 0.0000
# 6 0.0000 0.0000 0.0000 0.0000 0.0000 61.7508
#
#
#
# Elastic Compliance Matrix: (Units=1/GPa)
#
#
# Indices 1 2 3 4 5 6 
#
# 1 0.004033 -0.001184 -0.001672 0.000000 0.000000 0.000000
# 2 -0.001184 0.006349 -0.001402 0.000000 0.000000 0.000000
# 3 -0.001672 -0.001402 0.007752 0.000000 0.000000 0.000000
# 4 0.000000 0.000000 0.000000 0.045885 0.000000 0.000000
# 5 0.000000 0.000000 0.000000 0.000000 0.025509 0.000000
# 6 0.000000 0.000000 0.000000 0.000000 0.000000 0.016194
#
#
# Mechanical properties :
#
#
# Convention : Reuss Voigt Hill
#
# Bulk Modulus (GPa) = 103.97369 115.65517 109.81443
# Shear Modulus (GPa) = 42.57351 53.74546 48.15948
#
# Velocity S-wave (km/s) = 4.05305 4.55390 4.31076
# Velocity P-wave (km/s) = 7.87540 8.50158 8.19447
#
# Compressibility (1/GPa) = 0.00961782
#
# Stress axis : x y z
#
# Youngs Moduli (GPa) = 247.97911 157.50538 128.99179
#
# Poissons Ratio (x) = 0.18648 0.21566
# Poissons Ratio (y) = 0.29360 0.18088
# Poissons Ratio (z) = 0.41458 0.22087
#
# Static dielectric constant tensor:
#      x y z
#    x 2.264490 0.000000 0.000000 
#    y 0.000000 2.048980 0.000000 
#    z 0.000000 0.000000 2.342350 
# 
# From -- ./inp_files/31113.got.cif
#   From: 2010.05.17/outbox.cif.g08.bks.cpg/sg52_16_cif.got.tgz:31113.got - 2010.06.03 12:15:38.
