data_PCOD9413718
_publ_section_title
;
Structure prediction by ZEFSAII (Michael W. Deem and Ramdas Pophale) SiO2 
 PCOD9413718
Probable space group: P N N A
;
_chemical_formula_sum "Si O2"
_cell_formula_units_Z 40
_cell_length_a 18.444761
_cell_length_b 12.340794
_cell_length_c 8.618336
_cell_angle_alpha 90.000000
_cell_angle_beta 90.000000
_cell_angle_gamma 90.000000
_cell_volume 1961.731460
_symmetry_space_group_name_H-M "P N N A"
_symmetry_group_IT_number 52
_symmetry_cell_setting 'orthorhombic'
loop_
_space_group_symop_operation_xyz
x,y,z
1/2-x,-y,z
x,1/2-y,1/2-z
1/2-x,1/2+y,1/2-z
-x,-y,-z
1/2+x,y,-z
-x,1/2+y,1/2+z
1/2+x,1/2-y,1/2+z
loop_
_atom_site_type_symbol
_atom_site_label
_atom_site_fract_x
_atom_site_fract_y
_atom_site_fract_z
Si Si1 0.143915 0.133758 0.275071
Si Si2 0.917953 0.957290 0.045312
Si Si3 0.038746 0.250000 0.750000
Si Si4 0.503211 0.873534 0.459625
Si Si5 0.250000 0.500000 0.006936
Si Si6 0.148899 0.869700 0.726626
O O1 0.179945 0.250000 0.250000
O O2 0.070354 0.155253 0.371405
O O3 0.195313 0.062851 0.381450
O O4 0.120557 0.079227 0.113537
O O5 0.921762 0.852635 0.163368
O O6 0.871691 0.052501 0.128583
O O7 0.000000 0.000000 0.000000
O O8 0.992530 0.194872 0.615588
O O9 0.571538 0.852509 0.354470
O O10 0.500000 0.000000 0.500000
O O11 0.201406 0.571424 0.892869
O O12 0.180038 0.750000 0.750000
#
# Coordination Sequence:
#
# PCOD9413718 Si02
#       6
#     8   8   4   8   4   8
#     4  12  25  47  74 105 144 189 246 301 365 432
#     4  12  24  43  76 113 136 185 246 303 367 423
#     4  12  22  38  74 110 142 178 232 312 364 412
#     4  12  21  44  75 109 140 185 243 308 354 423
#     4  12  30  48  66 104 152 198 234 294 372 454
#     4  12  27  49  75 106 149 190 246 301 366 436
#
# _framework density 20.390149999999998
#
# number of rings (size 3 to 8) (size 9 to 14) (size 15 to 20)
#    0.000    0.000    8.000    1.800    0.000    4.000 
#    3.600    0.000    0.000    0.000    0.000    0.000 
#    0.000    0.000    0.000    0.000    0.000    0.000 
#
# Total GULP energy -223628.663975 kJ/mol
# GULP energy per Si atom -5590.716599 kJ/mol
# Density = 2.034374 g / cm^3
# Si number density = 20.390150 Si / 1000 Ang^3
#
#
#
# Elastic Constant Matrix: (Units=GPa)
#
#
# Indices 1 2 3 4 5 6 
#
# 1 95.0611 38.2821 52.0622 0.0000 0.0000 0.0000
# 2 38.2821 164.7383 79.1771 0.0000 0.0000 0.0000
# 3 52.0622 79.1771 151.7306 0.0000 0.0000 0.0000
# 4 0.0000 0.0000 0.0000 31.7117 0.0000 0.0000
# 5 0.0000 0.0000 0.0000 0.0000 35.9382 0.0000
# 6 0.0000 0.0000 0.0000 0.0000 0.0000 102.9428
#
#
#
# Elastic Compliance Matrix: (Units=1/GPa)
#
#
# Indices 1 2 3 4 5 6 
#
# 1 0.013124 -0.001182 -0.003886 0.000000 0.000000 0.000000
# 2 -0.001182 0.008209 -0.003878 0.000000 0.000000 0.000000
# 3 -0.003886 -0.003878 0.009948 0.000000 0.000000 0.000000
# 4 0.000000 0.000000 0.000000 0.031534 0.000000 0.000000
# 5 0.000000 0.000000 0.000000 0.000000 0.027826 0.000000
# 6 0.000000 0.000000 0.000000 0.000000 0.000000 0.009714
#
#
# Mechanical properties :
#
#
# Convention : Reuss Voigt Hill
#
# Bulk Modulus (GPa) = 74.69412 83.39697 79.04555
# Shear Modulus (GPa) = 40.74664 50.25244 45.49954
#
# Velocity S-wave (km/s) = 4.47514 4.96980 4.72894
# Velocity P-wave (km/s) = 7.96332 8.59775 8.28661
#
# Compressibility (1/GPa) = 0.01338793
#
# Stress axis : x y z
#
# Youngs Moduli (GPa) = 76.19654 121.82126 100.52487
#
# Poissons Ratio (x) = 0.14398 0.39068
# Poissons Ratio (y) = 0.09005 0.38984
# Poissons Ratio (z) = 0.29613 0.47243
#
# Static dielectric constant tensor:
#      x y z
#    x 1.704120 0.000000 0.000000 
#    y 0.000000 2.219910 0.000000 
#    z 0.000000 0.000000 1.700190 
# 
# From -- ./inp_files/11679.got.cif
#   From: 2010.05.17/outbox.cif.g08.bks.cpg/sg52_6_cif.got.tgz:11679.got - 2010.06.03 12:15:38.
