data_PCOD9413701
_publ_section_title
;
Structure prediction by ZEFSAII (Michael W. Deem and Ramdas Pophale) SiO2 
 PCOD9413701
Probable space group: P N N A
;
_chemical_formula_sum "Si O2"
_cell_formula_units_Z 56
_cell_length_a 9.619478
_cell_length_b 22.407103
_cell_length_c 13.496321
_cell_angle_alpha 90.000000
_cell_angle_beta 90.000000
_cell_angle_gamma 90.000000
_cell_volume 2909.059575
_symmetry_space_group_name_H-M "P N N A"
_symmetry_group_IT_number 52
_symmetry_cell_setting 'orthorhombic'
loop_
_space_group_symop_operation_xyz
x,y,z
1/2-x,-y,z
x,1/2-y,1/2-z
1/2-x,1/2+y,1/2-z
-x,-y,-z
1/2+x,y,-z
-x,1/2+y,1/2+z
1/2+x,1/2-y,1/2+z
loop_
_atom_site_type_symbol
_atom_site_label
_atom_site_fract_x
_atom_site_fract_y
_atom_site_fract_z
Si Si1 0.988646 0.371052 0.689386
Si Si2 0.529367 0.623345 0.302982
Si Si3 0.756312 0.812930 0.294282
Si Si4 0.377834 0.194649 0.996258
Si Si5 0.737750 0.182024 0.711683
Si Si6 0.418725 0.997448 0.894800
Si Si7 0.369381 0.724808 0.004100
O O1 0.122558 0.333910 0.721358
O O2 0.922837 0.342828 0.590929
O O3 0.036295 0.437552 0.662792
O O4 0.874232 0.358269 0.774163
O O5 0.632361 0.640060 0.213261
O O6 0.590572 0.657312 0.398722
O O7 0.381296 0.651244 0.277328
O O8 0.533296 0.554370 0.330906
O O9 0.702621 0.750000 0.250000
O O10 0.823202 0.805358 0.401898
O O11 0.218634 0.213563 0.005149
O O12 0.470471 0.255138 0.993397
O O13 0.766238 0.250000 0.750000
O O14 0.679089 0.189122 0.600787
O O15 0.250000 0.000000 0.908564
O O16 0.500000 0.000000 0.000000
#
# Coordination Sequence:
#
# PCOD9413701 Si02
#       7
#     8   8   8   8   8   8   8
#     4  12  24  41  64  95 138 168 217 271 334 392
#     4  12  24  41  64  95 138 168 217 271 334 392
#     4  12  22  39  63  91 129 179 208 273 337 392
#     4  12  20  35  62  96 126 169 206 268 316 416
#     4  12  24  41  63  99 133 173 214 275 333 396
#     4  12  28  44  70  99 131 180 226 269 327 391
#     4  12  24  36  62  94 134 164 220 254 334 400
#
# _framework density 19.250207
#
# number of rings (size 3 to 8) (size 9 to 14) (size 15 to 20)
#    0.000    0.000    8.571    2.571    2.000    0.000 
#    0.000    0.000    0.000    5.143    0.000    0.000 
#    0.000    0.000    0.000    0.000    0.000    0.000 
#
# Total GULP energy -313254.750709 kJ/mol
# GULP energy per Si atom -5593.834834 kJ/mol
# Density = 1.920639 g / cm^3
# Si number density = 19.250207 Si / 1000 Ang^3
#
#
#
# Elastic Constant Matrix: (Units=GPa)
#
#
# Indices 1 2 3 4 5 6 
#
# 1 62.3567 4.4659 -8.7127 0.0000 0.0000 0.0000
# 2 4.4659 88.8012 36.0422 0.0000 0.0000 0.0000
# 3 -8.7127 36.0422 83.0893 0.0000 0.0000 0.0000
# 4 0.0000 0.0000 0.0000 34.5334 0.0000 0.0000
# 5 0.0000 0.0000 0.0000 0.0000 25.3937 0.0000
# 6 0.0000 0.0000 0.0000 0.0000 0.0000 22.6257
#
#
#
# Elastic Compliance Matrix: (Units=1/GPa)
#
#
# Indices 1 2 3 4 5 6 
#
# 1 0.016525 -0.001862 0.002541 0.000000 0.000000 0.000000
# 2 -0.001862 0.013877 -0.006215 0.000000 0.000000 0.000000
# 3 0.002541 -0.006215 0.014998 0.000000 0.000000 0.000000
# 4 0.000000 0.000000 0.000000 0.028957 0.000000 0.000000
# 5 0.000000 0.000000 0.000000 0.000000 0.039380 0.000000
# 6 0.000000 0.000000 0.000000 0.000000 0.000000 0.044198
#
#
# Mechanical properties :
#
#
# Convention : Reuss Voigt Hill
#
# Bulk Modulus (GPa) = 29.13171 33.09311 31.11241
# Shear Modulus (GPa) = 27.70850 30.00735 28.85792
#
# Velocity S-wave (km/s) = 3.79804 3.95246 3.87602
# Velocity P-wave (km/s) = 5.86511 6.16908 6.01902
#
# Compressibility (1/GPa) = 0.03432685
#
# Stress axis : x y z
#
# Youngs Moduli (GPa) = 60.51392 72.06050 66.67767
#
# Poissons Ratio (x) = 0.13419 -0.16940
# Poissons Ratio (y) = 0.11269 0.41439
# Poissons Ratio (z) = -0.15374 0.44785
#
# Static dielectric constant tensor:
#      x y z
#    x 1.696030 0.000000 0.000000 
#    y 0.000000 1.658140 0.000000 
#    z 0.000000 0.000000 1.690790 
# 
# From -- ./inp_files/24936.got.cif
#   From: 2010.05.17/outbox.cif.g08.bks.cpg/sg52_13_cif.got.tgz:24936.got - 2010.06.03 12:15:38.
