data_PCOD9413653
_publ_section_title
;
Structure prediction by ZEFSAII (Michael W. Deem and Ramdas Pophale) SiO2 
 PCOD9413653
Probable space group: P N N A
;
_chemical_formula_sum "Si O2"
_cell_formula_units_Z 32
_cell_length_a 11.262302
_cell_length_b 7.947576
_cell_length_c 15.196431
_cell_angle_alpha 90.000000
_cell_angle_beta 90.000000
_cell_angle_gamma 90.000000
_cell_volume 1360.202162
_symmetry_space_group_name_H-M "P N N A"
_symmetry_group_IT_number 52
_symmetry_cell_setting 'orthorhombic'
loop_
_space_group_symop_operation_xyz
x,y,z
1/2-x,-y,z
x,1/2-y,1/2-z
1/2-x,1/2+y,1/2-z
-x,-y,-z
1/2+x,y,-z
-x,1/2+y,1/2+z
1/2+x,1/2-y,1/2+z
loop_
_atom_site_type_symbol
_atom_site_label
_atom_site_fract_x
_atom_site_fract_y
_atom_site_fract_z
Si Si1 0.506330 0.803638 0.021631
Si Si2 0.352897 0.638919 0.163671
Si Si3 0.971074 0.646229 0.163157
Si Si4 0.284834 0.198873 0.843643
O O1 0.390243 0.747801 0.077976
O O2 0.622468 0.773584 0.079714
O O3 0.520758 0.707244 0.930095
O O4 0.500000 0.000000 0.000000
O O5 0.250000 0.500000 0.148985
O O6 0.324445 0.750000 0.250000
O O7 0.472666 0.533050 0.180927
O O8 0.005316 0.750000 0.250000
O O9 0.831620 0.683623 0.150759
O O10 0.337336 0.250000 0.750000
O O11 0.250000 0.000000 0.843411
#
# Coordination Sequence:
#
# PCOD9413653 Si02
#       4
#     8   8   8   8
#     4  12  26  48  82 121 161 213 272 333 410 486
#     4  12  29  52  80 117 165 218 268 337 413 496
#     4  11  26  50  80 117 163 210 272 332 407 482
#     4  11  26  47  80 120 160 207 265 342 398 479
#
# _framework density 23.525912999999999
#
# number of rings (size 3 to 8) (size 9 to 14) (size 15 to 20)
#    0.000    0.500    2.500    3.750   14.000    0.000 
#    0.000    0.000    0.000    0.000    0.000    0.000 
#    0.000    0.000    0.000    0.000    0.000    0.000 
#
# Total GULP energy -179133.526799 kJ/mol
# GULP energy per Si atom -5597.922712 kJ/mol
# Density = 2.347237 g / cm^3
# Si number density = 23.525913 Si / 1000 Ang^3
#
#
#
# Elastic Constant Matrix: (Units=GPa)
#
#
# Indices 1 2 3 4 5 6 
#
# 1 138.1230 78.9397 69.3981 0.0000 0.0000 0.0000
# 2 78.9397 103.1174 41.2496 0.0000 0.0000 0.0000
# 3 69.3981 41.2496 203.7698 0.0000 0.0000 0.0000
# 4 0.0000 0.0000 0.0000 40.7395 0.0000 0.0000
# 5 0.0000 0.0000 0.0000 0.0000 51.8799 0.0000
# 6 0.0000 0.0000 0.0000 0.0000 0.0000 16.3208
#
#
#
# Elastic Compliance Matrix: (Units=1/GPa)
#
#
# Indices 1 2 3 4 5 6 
#
# 1 0.014275 -0.009775 -0.002883 0.000000 0.000000 0.000000
# 2 -0.009775 0.017245 -0.000162 0.000000 0.000000 0.000000
# 3 -0.002883 -0.000162 0.005922 0.000000 0.000000 0.000000
# 4 0.000000 0.000000 0.000000 0.024546 0.000000 0.000000
# 5 0.000000 0.000000 0.000000 0.000000 0.019275 0.000000
# 6 0.000000 0.000000 0.000000 0.000000 0.000000 0.061271
#
#
# Mechanical properties :
#
#
# Convention : Reuss Voigt Hill
#
# Bulk Modulus (GPa) = 84.72329 91.57610 88.14969
# Shear Modulus (GPa) = 29.05148 38.81623 33.93386
#
# Velocity S-wave (km/s) = 3.51789 4.06635 3.80202
# Velocity P-wave (km/s) = 7.25201 7.81390 7.53819
#
# Compressibility (1/GPa) = 0.01180313
#
# Stress axis : x y z
#
# Youngs Moduli (GPa) = 70.05397 57.98699 168.85817
#
# Poissons Ratio (x) = 0.56680 0.48680
# Poissons Ratio (y) = 0.68475 0.02737
# Poissons Ratio (z) = 0.20196 0.00940
#
# Static dielectric constant tensor:
#      x y z
#    x 1.947180 0.000000 0.000000 
#    y 0.000000 1.938500 0.000000 
#    z 0.000000 0.000000 1.756260 
# 
# From -- ./inp_files/25504.got.cif
#   From: 2010.05.17/outbox.cif.g08.bks.cpg/sg52_13_cif.got.tgz:25504.got - 2010.06.03 12:15:38.
