data_PCOD9413621
_publ_section_title
;
Structure prediction by ZEFSAII (Michael W. Deem and Ramdas Pophale) SiO2 
 PCOD9413621
Probable space group: P N N A
;
_chemical_formula_sum "Si O2"
_cell_formula_units_Z 20
_cell_length_a 13.801626
_cell_length_b 5.106915
_cell_length_c 10.999310
_cell_angle_alpha 90.000000
_cell_angle_beta 90.000000
_cell_angle_gamma 90.000000
_cell_volume 775.272406
_symmetry_space_group_name_H-M "P N N A"
_symmetry_group_IT_number 52
_symmetry_cell_setting 'orthorhombic'
loop_
_space_group_symop_operation_xyz
x,y,z
1/2-x,-y,z
x,1/2-y,1/2-z
1/2-x,1/2+y,1/2-z
-x,-y,-z
1/2+x,y,-z
-x,1/2+y,1/2+z
1/2+x,1/2-y,1/2+z
loop_
_atom_site_type_symbol
_atom_site_label
_atom_site_fract_x
_atom_site_fract_y
_atom_site_fract_z
Si Si1 0.641593 0.889153 0.880917
Si Si2 0.438004 0.372011 0.618650
Si Si3 0.683039 0.250000 0.250000
O O1 0.631640 0.750000 0.750000
O O2 0.750000 0.000000 0.887846
O O3 0.553231 0.095210 0.891938
O O4 0.614808 0.734539 0.005123
O O5 0.425426 0.250000 0.750000
O O6 0.385073 0.652431 0.640343
O O7 0.750000 0.500000 0.221656
#
# Coordination Sequence:
#
# PCOD9413621 Si02
#       3
#     8   8   4
#     4  11  25  49  71 114 163 211 257 330 412 471
#     4  11  25  49  78 115 153 208 274 328 385 482
#     4  12  24  46  78 118 152 200 270 334 382 452
#
# _framework density 25.797385999999999
#
# number of rings (size 3 to 8) (size 9 to 14) (size 15 to 20)
#    0.000    0.800    4.000    2.400    0.000    1.600 
#   14.400    0.000    0.000    0.000    0.000    0.000 
#    0.000    0.000    0.000    0.000    0.000    0.000 
#
# Total GULP energy -111659.399473 kJ/mol
# GULP energy per Si atom -5582.969974 kJ/mol
# Density = 2.573867 g / cm^3
# Si number density = 25.797386 Si / 1000 Ang^3
#
#
#
# Elastic Constant Matrix: (Units=GPa)
#
#
# Indices 1 2 3 4 5 6 
#
# 1 252.9239 53.1792 105.3600 0.0000 0.0000 0.0000
# 2 53.1792 86.8120 60.2899 0.0000 0.0000 0.0000
# 3 105.3600 60.2899 285.9108 0.0000 0.0000 0.0000
# 4 0.0000 0.0000 0.0000 48.3266 0.0000 0.0000
# 5 0.0000 0.0000 0.0000 0.0000 30.6561 0.0000
# 6 0.0000 0.0000 0.0000 0.0000 0.0000 -3.7833
#
#
#
# Elastic Compliance Matrix: (Units=1/GPa)
#
#
# Indices 1 2 3 4 5 6 
#
# 1 0.004971 -0.002077 -0.001394 0.000000 0.000000 0.000000
# 2 -0.002077 0.014363 -0.002263 0.000000 0.000000 0.000000
# 3 -0.001394 -0.002263 0.004489 0.000000 0.000000 0.000000
# 4 0.000000 0.000000 0.000000 0.020693 0.000000 0.000000
# 5 0.000000 0.000000 0.000000 0.000000 0.032620 0.000000
# 6 0.000000 0.000000 0.000000 0.000000 0.000000 -0.264320
#
#
# Mechanical properties :
#
#
# Convention : Reuss Voigt Hill
#
# Bulk Modulus (GPa) = 80.94363 118.14500 99.54432
# Shear Modulus (GPa) = -29.13794 42.16104 6.51155
#
# Velocity S-wave (km/s) = -3.36444 4.04705 1.59047
# Velocity P-wave (km/s) = 4.04379 8.23012 6.48410
#
# Compressibility (1/GPa) = 0.01235428
#
# Stress axis : x y z
#
# Youngs Moduli (GPa) = 201.16069 69.62106 222.79026
#
# Poissons Ratio (x) = 0.14462 0.31054
# Poissons Ratio (y) = 0.41785 0.50426
# Poissons Ratio (z) = 0.28040 0.15758
#
# Static dielectric constant tensor:
#      x y z
#    x 2.054160 0.000000 0.000000 
#    y 0.000000 2.283420 0.000000 
#    z 0.000000 0.000000 2.185800 
# 
# From -- ./inp_files/18606.got.cif
#   From: 2010.05.17/outbox.cif.g08.bks.cpg/sg52_10_cif.got.tgz:18606.got - 2010.06.03 12:15:38.
