data_PCOD9413780
_publ_section_title
;
Structure prediction by ZEFSAII (Michael W. Deem and Ramdas Pophale) SiO2 
 PCOD9413780
Probable space group: P N N A
;
_chemical_formula_sum "Si O2"
_cell_formula_units_Z 36
_cell_length_a 22.278060
_cell_length_b 5.986518
_cell_length_c 12.620366
_cell_angle_alpha 90.000000
_cell_angle_beta 90.000000
_cell_angle_gamma 90.000000
_cell_volume 1683.153063
_symmetry_space_group_name_H-M "P N N A"
_symmetry_group_IT_number 52
_symmetry_cell_setting 'orthorhombic'
loop_
_space_group_symop_operation_xyz
x,y,z
1/2-x,-y,z
x,1/2-y,1/2-z
1/2-x,1/2+y,1/2-z
-x,-y,-z
1/2+x,y,-z
-x,1/2+y,1/2+z
1/2+x,1/2-y,1/2+z
loop_
_atom_site_type_symbol
_atom_site_label
_atom_site_fract_x
_atom_site_fract_y
_atom_site_fract_z
Si Si1 0.589994 0.250000 0.250000
Si Si2 0.130549 0.881348 0.086863
Si Si3 0.818321 0.083631 0.148040
Si Si4 0.280096 0.250000 0.250000
Si Si5 0.518058 0.587514 0.886164
Si Si6 0.901551 0.750000 0.750000
O O1 0.634519 0.398666 0.316934
O O2 0.544234 0.374340 0.173102
O O3 0.175541 0.722788 0.150856
O O4 0.061742 0.800283 0.097177
O O5 0.132541 0.113660 0.155311
O O6 0.154717 0.857364 0.967384
O O7 0.817300 0.250000 0.250000
O O8 0.750000 0.000000 0.133577
O O9 0.250000 0.500000 0.260498
O O10 0.556922 0.421205 0.814528
O O11 0.500000 0.500000 0.000000
#
# Coordination Sequence:
#
# PCOD9413780 Si02
#       6
#     4   8   8   4   8   4
#     4  12  25  48  71 111 147 196 260 312 402 470
#     4  12  26  48  75 114 152 204 260 335 410 481
#     4  12  28  50  74 106 153 207 266 323 392 492
#     4  12  26  48  78 116 161 213 270 328 412 486
#     4  12  26  44  75 112 147 196 250 329 407 476
#     4  12  23  48  75 111 162 187 262 330 414 498
#
# _framework density 21.388428999999999
#
# number of rings (size 3 to 8) (size 9 to 14) (size 15 to 20)
#    0.000    0.000    5.556    4.000    4.667    2.667 
#    4.000    0.000    0.000    0.000    0.000    0.000 
#    0.000    0.000    0.000    0.000    0.000    0.000 
#
# Total GULP energy -200736.940422 kJ/mol
# GULP energy per Si atom -5576.026123 kJ/mol
# Density = 2.133975 g / cm^3
# Si number density = 21.388429 Si / 1000 Ang^3
#
#
#
# Elastic Constant Matrix: (Units=GPa)
#
#
# Indices 1 2 3 4 5 6 
#
# 1 131.2133 30.1493 27.4635 0.0000 0.0000 0.0000
# 2 30.1493 54.9361 25.1254 0.0000 0.0000 0.0000
# 3 27.4635 25.1254 173.3037 0.0000 0.0000 0.0000
# 4 0.0000 0.0000 0.0000 55.6729 0.0000 0.0000
# 5 0.0000 0.0000 0.0000 0.0000 18.4465 0.0000
# 6 0.0000 0.0000 0.0000 0.0000 0.0000 60.9011
#
#
#
# Elastic Compliance Matrix: (Units=1/GPa)
#
#
# Indices 1 2 3 4 5 6 
#
# 1 0.008810 -0.004494 -0.000744 0.000000 0.000000 0.000000
# 2 -0.004494 0.021788 -0.002447 0.000000 0.000000 0.000000
# 3 -0.000744 -0.002447 0.006243 0.000000 0.000000 0.000000
# 4 0.000000 0.000000 0.000000 0.017962 0.000000 0.000000
# 5 0.000000 0.000000 0.000000 0.000000 0.054211 0.000000
# 6 0.000000 0.000000 0.000000 0.000000 0.000000 0.016420
#
#
# Mechanical properties :
#
#
# Convention : Reuss Voigt Hill
#
# Bulk Modulus (GPa) = 46.57635 58.32552 52.45094
# Shear Modulus (GPa) = 33.79255 45.45176 39.62215
#
# Velocity S-wave (km/s) = 3.97916 4.61484 4.30874
# Velocity P-wave (km/s) = 6.55251 7.46489 7.02353
#
# Compressibility (1/GPa) = 0.02147012
#
# Stress axis : x y z
#
# Youngs Moduli (GPa) = 113.51156 45.89586 160.18169
#
# Poissons Ratio (x) = 0.20627 0.11925
# Poissons Ratio (y) = 0.51016 0.39191
# Poissons Ratio (z) = 0.08451 0.11229
#
# Static dielectric constant tensor:
#      x y z
#    x 1.817490 0.000000 0.000000 
#    y 0.000000 1.820850 0.000000 
#    z 0.000000 0.000000 14.734100 
# 
# From -- ./inp_files/22102.got.cif
#   From: 2010.05.17/outbox.cif.g08.bks.cpg/sg52_12_cif.got.tgz:22102.got - 2010.06.03 12:15:38.
