data_PCOD9413698
_publ_section_title
;
Structure prediction by ZEFSAII (Michael W. Deem and Ramdas Pophale) SiO2 
 PCOD9413698
Probable space group: P N N A
;
_chemical_formula_sum "Si O2"
_cell_formula_units_Z 24
_cell_length_a 13.579512
_cell_length_b 8.702199
_cell_length_c 7.695266
_cell_angle_alpha 90.000000
_cell_angle_beta 90.000000
_cell_angle_gamma 90.000000
_cell_volume 909.362017
_symmetry_space_group_name_H-M "P N N A"
_symmetry_group_IT_number 52
_symmetry_cell_setting 'orthorhombic'
loop_
_space_group_symop_operation_xyz
x,y,z
1/2-x,-y,z
x,1/2-y,1/2-z
1/2-x,1/2+y,1/2-z
-x,-y,-z
1/2+x,y,-z
-x,1/2+y,1/2+z
1/2+x,1/2-y,1/2+z
loop_
_atom_site_type_symbol
_atom_site_label
_atom_site_fract_x
_atom_site_fract_y
_atom_site_fract_z
Si Si1 0.783407 0.172201 0.409550
Si Si2 0.159067 0.115913 0.110620
Si Si3 0.455622 0.097500 0.335897
O O1 0.840197 0.250000 0.250000
O O2 0.691015 0.285203 0.443410
O O3 0.854599 0.159283 0.574876
O O4 0.750000 0.000000 0.370838
O O5 0.158929 0.250000 0.250000
O O6 0.250000 0.000000 0.126935
O O7 0.066529 0.015042 0.173010
O O8 0.502124 0.250000 0.250000
O O9 0.500000 0.000000 0.500000
#
# Coordination Sequence:
#
# PCOD9413698 Si02
#       3
#     8   8   8
#     4  12  25  45  80 115 141 197 273 323 376 476
#     4  12  19  45  81 102 141 199 265 312 375 461
#     4  12  27  50  74 113 161 208 252 327 407 468
#
# _framework density 26.392129000000001
#
# number of rings (size 3 to 8) (size 9 to 14) (size 15 to 20)
#    0.000    0.000   10.000    1.000    0.000    2.667 
#    6.000    3.333    0.000    0.000    0.000    0.000 
#    0.000    0.000    0.000    0.000    0.000    0.000 
#
# Total GULP energy -133947.080983 kJ/mol
# GULP energy per Si atom -5581.128374 kJ/mol
# Density = 2.633206 g / cm^3
# Si number density = 26.392129 Si / 1000 Ang^3
#
#
#
# Elastic Constant Matrix: (Units=GPa)
#
#
# Indices 1 2 3 4 5 6 
#
# 1 80.3851 58.9393 48.9372 0.0000 0.0000 0.0000
# 2 58.9393 233.5527 68.5531 0.0000 0.0000 0.0000
# 3 48.9372 68.5531 132.1778 0.0000 0.0000 0.0000
# 4 0.0000 0.0000 0.0000 66.8048 0.0000 0.0000
# 5 0.0000 0.0000 0.0000 0.0000 36.6243 0.0000
# 6 0.0000 0.0000 0.0000 0.0000 0.0000 8.2340
#
#
#
# Elastic Compliance Matrix: (Units=1/GPa)
#
#
# Indices 1 2 3 4 5 6 
#
# 1 0.017674 -0.002996 -0.004990 0.000000 0.000000 0.000000
# 2 -0.002996 0.005558 -0.001774 0.000000 0.000000 0.000000
# 3 -0.004990 -0.001774 0.010333 0.000000 0.000000 0.000000
# 4 0.000000 0.000000 0.000000 0.014969 0.000000 0.000000
# 5 0.000000 0.000000 0.000000 0.000000 0.027304 0.000000
# 6 0.000000 0.000000 0.000000 0.000000 0.000000 0.121448
#
#
# Mechanical properties :
#
#
# Convention : Reuss Voigt Hill
#
# Bulk Modulus (GPa) = 71.18985 88.77498 79.98242
# Shear Modulus (GPa) = 22.57454 40.31167 31.44311
#
# Velocity S-wave (km/s) = 2.92781 3.91245 3.45538
# Velocity P-wave (km/s) = 6.20177 7.35661 6.80373
#
# Compressibility (1/GPa) = 0.01404695
#
# Stress axis : x y z
#
# Youngs Moduli (GPa) = 56.57892 179.91207 96.77740
#
# Poissons Ratio (x) = 0.53895 0.48293
# Poissons Ratio (y) = 0.16949 0.17165
# Poissons Ratio (z) = 0.28233 0.31910
#
# Static dielectric constant tensor:
#      x y z
#    x 2.134800 0.000000 0.000000 
#    y 0.000000 2.029000 0.000000 
#    z 0.000000 0.000000 6.050280 
# 
# From -- ./inp_files/9315.got.cif
#   From: 2010.05.17/outbox.cif.g08.bks.cpg/sg52_5_cif.got.tgz:9315.got - 2010.06.03 12:15:38.
