data_PCOD9413817
_publ_section_title
;
Structure prediction by ZEFSAII (Michael W. Deem and Ramdas Pophale) SiO2 
 PCOD9413817
Probable space group: P N N A
;
_chemical_formula_sum "Si O2"
_cell_formula_units_Z 32
_cell_length_a 8.818993
_cell_length_b 10.805264
_cell_length_c 15.391176
_cell_angle_alpha 90.000000
_cell_angle_beta 90.000000
_cell_angle_gamma 90.000000
_cell_volume 1466.648980
_symmetry_space_group_name_H-M "P N N A"
_symmetry_group_IT_number 52
_symmetry_cell_setting 'orthorhombic'
loop_
_space_group_symop_operation_xyz
x,y,z
1/2-x,-y,z
x,1/2-y,1/2-z
1/2-x,1/2+y,1/2-z
-x,-y,-z
1/2+x,y,-z
-x,1/2+y,1/2+z
1/2+x,1/2-y,1/2+z
loop_
_atom_site_type_symbol
_atom_site_label
_atom_site_fract_x
_atom_site_fract_y
_atom_site_fract_z
Si Si1 0.250000 0.500000 0.667481
Si Si2 0.937704 0.334519 0.907292
Si Si3 0.243560 0.250000 0.250000
Si Si4 0.710628 0.765262 0.410089
Si Si5 0.002586 0.559600 0.796324
O O1 0.291887 0.380227 0.611224
O O2 0.104311 0.479277 0.730187
O O3 0.847481 0.258111 0.834493
O O4 0.114222 0.302035 0.910123
O O5 0.936018 0.475848 0.873499
O O6 0.862520 0.305512 0.999066
O O7 0.133222 0.368469 0.249903
O O8 0.617004 0.839763 0.337204
#
# Coordination Sequence:
#
# PCOD9413817 Si02
#       5
#     4   8   4   8   8
#     4  12  24  46  78 104 150 198 248 312 378 444
#     4  12  27  47  73 111 149 200 246 318 366 456
#     4  12  26  46  74 112 150 190 260 300 388 440
#     4  12  26  47  74 109 152 196 256 306 383 440
#     4  12  24  48  78 109 148 200 252 312 374 451
#
# _framework density 21.818445000000001
#
# number of rings (size 3 to 8) (size 9 to 14) (size 15 to 20)
#    0.000    0.000    5.000    4.500    0.000    3.000 
#    4.500    0.000    0.000    0.000    0.000    0.000 
#    0.000    0.000    0.000    0.000    0.000    0.000 
#
# Total GULP energy -179275.869482 kJ/mol
# GULP energy per Si atom -5602.370921 kJ/mol
# Density = 2.176879 g / cm^3
# Si number density = 21.818445 Si / 1000 Ang^3
#
#
#
# Elastic Constant Matrix: (Units=GPa)
#
#
# Indices 1 2 3 4 5 6 
#
# 1 165.2894 48.3349 61.5496 0.0000 0.0000 0.0000
# 2 48.3349 137.7411 51.2088 0.0000 0.0000 0.0000
# 3 61.5496 51.2088 96.7525 0.0000 0.0000 0.0000
# 4 0.0000 0.0000 0.0000 32.7200 0.0000 0.0000
# 5 0.0000 0.0000 0.0000 0.0000 42.5964 0.0000
# 6 0.0000 0.0000 0.0000 0.0000 0.0000 42.8681
#
#
#
# Elastic Compliance Matrix: (Units=1/GPa)
#
#
# Indices 1 2 3 4 5 6 
#
# 1 0.008072 -0.001150 -0.004526 0.000000 0.000000 0.000000
# 2 -0.001150 0.009202 -0.004139 0.000000 0.000000 0.000000
# 3 -0.004526 -0.004139 0.015406 0.000000 0.000000 0.000000
# 4 0.000000 0.000000 0.000000 0.030562 0.000000 0.000000
# 5 0.000000 0.000000 0.000000 0.000000 0.023476 0.000000
# 6 0.000000 0.000000 0.000000 0.000000 0.000000 0.023327
#
#
# Mechanical properties :
#
#
# Convention : Reuss Voigt Hill
#
# Bulk Modulus (GPa) = 76.63159 80.21885 78.42522
# Shear Modulus (GPa) = 37.30621 39.54955 38.42788
#
# Velocity S-wave (km/s) = 4.13952 4.26216 4.20129
# Velocity P-wave (km/s) = 7.61880 7.81458 7.71731
#
# Compressibility (1/GPa) = 0.01304945
#
# Stress axis : x y z
#
# Youngs Moduli (GPa) = 123.88991 108.66877 64.91021
#
# Poissons Ratio (x) = 0.12493 0.29381
# Poissons Ratio (y) = 0.14243 0.26868
# Poissons Ratio (z) = 0.56077 0.44980
#
# Static dielectric constant tensor:
#      x y z
#    x 1.773510 0.000000 0.000000 
#    y 0.000000 1.818640 0.000000 
#    z 0.000000 0.000000 1.770150 
# 
# From -- ./inp_files/24110.got.cif
#   From: 2010.05.17/outbox.cif.g08.bks.cpg/sg52_13_cif.got.tgz:24110.got - 2010.06.03 12:15:38.
