data_PCOD9413067
_publ_section_title
;
Structure prediction by ZEFSAII (Michael W. Deem and Ramdas Pophale) SiO2 
 PCOD9413067
Probable space group: P N N A
;
_chemical_formula_sum "Si O2"
_cell_formula_units_Z 40
_cell_length_a 13.808504
_cell_length_b 16.812424
_cell_length_c 8.974302
_cell_angle_alpha 90.000000
_cell_angle_beta 90.000000
_cell_angle_gamma 90.000000
_cell_volume 2083.423912
_symmetry_space_group_name_H-M "P N N A"
_symmetry_group_IT_number 52
_symmetry_cell_setting 'orthorhombic'
loop_
_space_group_symop_operation_xyz
x,y,z
1/2-x,-y,z
x,1/2-y,1/2-z
1/2-x,1/2+y,1/2-z
-x,-y,-z
1/2+x,y,-z
-x,1/2+y,1/2+z
1/2+x,1/2-y,1/2+z
loop_
_atom_site_type_symbol
_atom_site_label
_atom_site_fract_x
_atom_site_fract_y
_atom_site_fract_z
Si Si1 0.845507 0.166505 0.314874
Si Si2 0.038888 0.535012 0.654474
Si Si3 0.357323 0.917087 0.635860
Si Si4 0.549069 0.678525 0.869480
Si Si5 0.640312 0.990400 0.669858
O O1 0.812623 0.250000 0.250000
O O2 0.904429 0.116657 0.189195
O O3 0.750174 0.116677 0.357645
O O4 0.908388 0.186301 0.463110
O O5 0.109472 0.467235 0.721312
O O6 0.000000 0.500000 0.500000
O O7 0.940189 0.541930 0.748361
O O8 0.436780 0.847603 0.618032
O O9 0.365686 0.979155 0.499766
O O10 0.560514 0.750000 0.750000
O O11 0.605673 0.600055 0.811758
O O12 0.750000 0.000000 0.722574
#
# Coordination Sequence:
#
# PCOD9413067 Si02
#       5
#     8   8   8   8   8
#     4  12  25  42  66 102 140 175 219 289 355 397
#     4  11  24  42  66  97 133 176 227 281 334 405
#     4  11  21  46  71  91 126 188 232 269 338 425
#     4  11  23  41  66  99 133 171 223 278 342 407
#     4  11  20  42  73  92 121 181 233 268 326 417
#
# _framework density 19.199165000000001
#
# number of rings (size 3 to 8) (size 9 to 14) (size 15 to 20)
#    0.000    0.800    6.000    2.400    5.600    1.600 
#    0.000    2.000    0.000    0.000    0.000    0.000 
#    0.000    0.000    0.000    0.000    0.000    0.000 
#
# Total GULP energy -223104.422182 kJ/mol
# GULP energy per Si atom -5577.610555 kJ/mol
# Density = 1.915547 g / cm^3
# Si number density = 19.199165 Si / 1000 Ang^3
#
#
#
# Elastic Constant Matrix: (Units=GPa)
#
#
# Indices 1 2 3 4 5 6 
#
# 1 118.5564 57.5718 40.8629 0.0000 0.0000 0.0000
# 2 57.5718 104.3595 54.9078 0.0000 0.0000 0.0000
# 3 40.8629 54.9078 98.0512 0.0000 0.0000 0.0000
# 4 0.0000 0.0000 0.0000 38.0506 0.0000 0.0000
# 5 0.0000 0.0000 0.0000 0.0000 15.4851 0.0000
# 6 0.0000 0.0000 0.0000 0.0000 0.0000 23.9696
#
#
#
# Elastic Compliance Matrix: (Units=1/GPa)
#
#
# Indices 1 2 3 4 5 6 
#
# 1 0.011740 -0.005532 -0.001795 0.000000 0.000000 0.000000
# 2 -0.005532 0.016192 -0.006762 0.000000 0.000000 0.000000
# 3 -0.001795 -0.006762 0.014733 0.000000 0.000000 0.000000
# 4 0.000000 0.000000 0.000000 0.026281 0.000000 0.000000
# 5 0.000000 0.000000 0.000000 0.000000 0.064578 0.000000
# 6 0.000000 0.000000 0.000000 0.000000 0.000000 0.041719
#
#
# Mechanical properties :
#
#
# Convention : Reuss Voigt Hill
#
# Bulk Modulus (GPa) = 69.02396 69.73910 69.38153
# Shear Modulus (GPa) = 24.00965 26.67605 25.34285
#
# Velocity S-wave (km/s) = 3.54016 3.73156 3.63712
# Velocity P-wave (km/s) = 7.26222 7.41410 7.33856
#
# Compressibility (1/GPa) = 0.01448772
#
# Stress axis : x y z
#
# Youngs Moduli (GPa) = 85.17989 61.75937 67.87428
#
# Poissons Ratio (x) = 0.34167 0.12180
# Poissons Ratio (y) = 0.47124 0.45895
# Poissons Ratio (z) = 0.15286 0.41760
#
# Static dielectric constant tensor:
#      x y z
#    x 1.663560 0.000000 0.000000 
#    y 0.000000 1.685840 0.000000 
#    z 0.000000 0.000000 1.780780 
# 
# From -- ./inp_files/10233.got.cif
#   From: 2010.05.17/outbox.cif.g08.bks.cpg/sg52_6_cif.got.tgz:10233.got - 2010.06.03 12:15:38.
