data_PCOD9413419
_publ_section_title
;
Structure prediction by ZEFSAII (Michael W. Deem and Ramdas Pophale) SiO2 
 PCOD9413419
Probable space group: P N N A
;
_chemical_formula_sum "Si O2"
_cell_formula_units_Z 32
_cell_length_a 12.665997
_cell_length_b 20.703250
_cell_length_c 4.788290
_cell_angle_alpha 90.000000
_cell_angle_beta 90.000000
_cell_angle_gamma 90.000000
_cell_volume 1255.620370
_symmetry_space_group_name_H-M "P N N A"
_symmetry_group_IT_number 52
_symmetry_cell_setting 'orthorhombic'
loop_
_space_group_symop_operation_xyz
x,y,z
1/2-x,-y,z
x,1/2-y,1/2-z
1/2-x,1/2+y,1/2-z
-x,-y,-z
1/2+x,y,-z
-x,1/2+y,1/2+z
1/2+x,1/2-y,1/2+z
loop_
_atom_site_type_symbol
_atom_site_label
_atom_site_fract_x
_atom_site_fract_y
_atom_site_fract_z
Si Si1 0.017309 0.600120 0.338777
Si Si2 0.360022 0.978121 0.248755
Si Si3 0.667275 0.354172 0.034089
Si Si4 0.705115 0.807415 0.955986
O O1 0.075417 0.542251 0.172646
O O2 0.110926 0.641071 0.470589
O O3 0.938482 0.564443 0.555535
O O4 0.950499 0.648853 0.147617
O O5 0.321965 0.931827 0.500429
O O6 0.250000 0.000000 0.107763
O O7 0.745976 0.314947 0.233695
O O8 0.693913 0.329308 0.728302
O O9 0.664737 0.750000 0.750000
#
# Coordination Sequence:
#
# PCOD9413419 Si02
#       4
#     8   8   8   8
#     4  11  25  47  78 116 153 205 257 319 406 467
#     4  11  23  46  79 116 159 195 252 328 399 475
#     4  12  25  50  73 112 150 196 261 318 398 457
#     4  12  29  50  76 107 154 208 263 327 378 473
#
# _framework density 25.485412
#
# number of rings (size 3 to 8) (size 9 to 14) (size 15 to 20)
#    0.000    0.500    5.000    1.500    3.500    7.000 
#    0.000    0.000    0.000    0.000    0.000    0.000 
#    0.000    0.000    0.000    0.000    0.000    0.000 
#
# Total GULP energy -178480.359652 kJ/mol
# GULP energy per Si atom -5577.511239 kJ/mol
# Density = 2.542741 g / cm^3
# Si number density = 25.485412 Si / 1000 Ang^3
#
#
#
# Elastic Constant Matrix: (Units=GPa)
#
#
# Indices 1 2 3 4 5 6 
#
# 1 91.5259 36.1383 0.3376 0.0000 0.0000 0.0000
# 2 36.1383 104.8903 5.3726 0.0000 0.0000 0.0000
# 3 0.3376 5.3726 98.0687 0.0000 0.0000 0.0000
# 4 0.0000 0.0000 0.0000 34.6918 0.0000 0.0000
# 5 0.0000 0.0000 0.0000 0.0000 -40.9316 0.0000
# 6 0.0000 0.0000 0.0000 0.0000 0.0000 31.1467
#
#
#
# Elastic Compliance Matrix: (Units=1/GPa)
#
#
# Indices 1 2 3 4 5 6 
#
# 1 0.012650 -0.004368 0.000196 0.000000 0.000000 0.000000
# 2 -0.004368 0.011069 -0.000591 0.000000 0.000000 0.000000
# 3 0.000196 -0.000591 0.010229 0.000000 0.000000 0.000000
# 4 0.000000 0.000000 0.000000 0.028825 0.000000 0.000000
# 5 0.000000 0.000000 0.000000 0.000000 -0.024431 0.000000
# 6 0.000000 0.000000 0.000000 0.000000 0.000000 0.032106
#
#
# Mechanical properties :
#
#
# Convention : Reuss Voigt Hill
#
# Bulk Modulus (GPa) = 40.95039 42.02019 41.48529
# Shear Modulus (GPa) = 56.74337 21.82380 39.28358
#
# Velocity S-wave (km/s) = 4.72370 2.92948 3.93034
# Velocity P-wave (km/s) = 6.77157 5.28831 6.07538
#
# Compressibility (1/GPa) = 0.02441979
#
# Stress axis : x y z
#
# Youngs Moduli (GPa) = 79.05165 90.34143 97.76451
#
# Poissons Ratio (x) = 0.39464 -0.01914
# Poissons Ratio (y) = 0.34533 0.05782
# Poissons Ratio (z) = -0.01548 0.05343
#
# Static dielectric constant tensor:
#      x y z
#    x 1.999920 0.000000 0.000000 
#    y 0.000000 2.117320 0.000000 
#    z 0.000000 0.000000 2.065830 
# 
# From -- ./inp_files/1067.got.cif
#   From: 2010.05.17/outbox.cif.g08.bks.cpg/sg52_1_cif.got.tgz:1067.got - 2010.06.03 12:15:38.
