data_PCOD9413783
_publ_section_title
;
Structure prediction by ZEFSAII (Michael W. Deem and Ramdas Pophale) SiO2 
 PCOD9413783
Probable space group: P N N A
;
_chemical_formula_sum "Si O2"
_cell_formula_units_Z 40
_cell_length_a 16.723591
_cell_length_b 15.542828
_cell_length_c 6.405473
_cell_angle_alpha 90.000000
_cell_angle_beta 90.000000
_cell_angle_gamma 90.000000
_cell_volume 1664.986757
_symmetry_space_group_name_H-M "P N N A"
_symmetry_group_IT_number 52
_symmetry_cell_setting 'orthorhombic'
loop_
_space_group_symop_operation_xyz
x,y,z
1/2-x,-y,z
x,1/2-y,1/2-z
1/2-x,1/2+y,1/2-z
-x,-y,-z
1/2+x,y,-z
-x,1/2+y,1/2+z
1/2+x,1/2-y,1/2+z
loop_
_atom_site_type_symbol
_atom_site_label
_atom_site_fract_x
_atom_site_fract_y
_atom_site_fract_z
Si Si1 0.496809 0.839599 0.365402
Si Si2 0.750000 0.000000 0.416702
Si Si3 0.073102 0.250000 0.750000
Si Si4 0.866526 0.976278 0.781517
Si Si5 0.209166 0.187721 0.056105
Si Si6 0.656712 0.882406 0.135654
O O1 0.476873 0.750000 0.250000
O O2 0.478404 0.816230 0.607926
O O3 0.443342 0.918219 0.277263
O O4 0.585931 0.860386 0.291851
O O5 0.827904 0.001246 0.561230
O O6 0.731718 0.920907 0.265458
O O7 0.135665 0.297719 0.599301
O O8 0.800618 0.909110 0.864528
O O9 0.874758 0.050785 0.955991
O O10 0.199042 0.250000 0.250000
O O11 0.299319 0.197723 0.972993
#
# Coordination Sequence:
#
# PCOD9413783 Si02
#       6
#     8   4   4   8   8   8
#     4  12  28  48  72 111 154 196 249 315 383 446
#     4  12  24  44  78 104 144 198 252 302 380 438
#     4  12  24  48  78 102 156 198 248 304 390 440
#     4  12  23  50  73 105 151 198 250 311 380 453
#     4  12  24  47  80 108 147 201 253 306 372 455
#     4  12  28  46  74 114 149 194 257 314 374 458
#
# _framework density 24.024215999999999
#
# number of rings (size 3 to 8) (size 9 to 14) (size 15 to 20)
#    0.000    0.000    8.000    1.800    1.400    2.400 
#    1.800    0.000    0.000    0.000    0.000    0.000 
#    0.000    0.000    0.000    0.000    0.000    0.000 
#
# Total GULP energy -223538.454454 kJ/mol
# GULP energy per Si atom -5588.461361 kJ/mol
# Density = 2.396954 g / cm^3
# Si number density = 24.024216 Si / 1000 Ang^3
#
#
#
# Elastic Constant Matrix: (Units=GPa)
#
#
# Indices 1 2 3 4 5 6 
#
# 1 153.7971 40.0486 66.9902 0.0000 0.0000 0.0000
# 2 40.0486 60.8890 54.6644 0.0000 0.0000 0.0000
# 3 66.9902 54.6644 152.6160 0.0000 0.0000 0.0000
# 4 0.0000 0.0000 0.0000 32.6643 0.0000 0.0000
# 5 0.0000 0.0000 0.0000 0.0000 39.5277 0.0000
# 6 0.0000 0.0000 0.0000 0.0000 0.0000 31.9581
#
#
#
# Elastic Compliance Matrix: (Units=1/GPa)
#
#
# Indices 1 2 3 4 5 6 
#
# 1 0.008464 -0.003289 -0.002537 0.000000 0.000000 0.000000
# 2 -0.003289 0.025486 -0.007685 0.000000 0.000000 0.000000
# 3 -0.002537 -0.007685 0.010419 0.000000 0.000000 0.000000
# 4 0.000000 0.000000 0.000000 0.030614 0.000000 0.000000
# 5 0.000000 0.000000 0.000000 0.000000 0.025299 0.000000
# 6 0.000000 0.000000 0.000000 0.000000 0.000000 0.031291
#
#
# Mechanical properties :
#
#
# Convention : Reuss Voigt Hill
#
# Bulk Modulus (GPa) = 57.64965 76.74540 67.19752
# Shear Modulus (GPa) = 30.41803 34.53661 32.47732
#
# Velocity S-wave (km/s) = 3.56215 3.79565 3.68075
# Velocity P-wave (km/s) = 6.40055 7.15707 6.78936
#
# Compressibility (1/GPa) = 0.01734616
#
# Stress axis : x y z
#
# Youngs Moduli (GPa) = 118.15297 39.23733 95.98266
#
# Poissons Ratio (x) = 0.12906 0.24350
# Poissons Ratio (y) = 0.38863 0.73761
# Poissons Ratio (z) = 0.29975 0.30153
#
# Static dielectric constant tensor:
#      x y z
#    x 1.940740 0.000000 0.000000 
#    y 0.000000 1.755660 0.000000 
#    z 0.000000 0.000000 2.144330 
# 
# From -- ./inp_files/3227.got.cif
#   From: 2010.05.17/outbox.cif.g08.bks.cpg/sg52_2_cif.got.tgz:3227.got - 2010.06.03 12:15:38.
