data_PCOD9413697
_publ_section_title
;
Structure prediction by ZEFSAII (Michael W. Deem and Ramdas Pophale) SiO2 
 PCOD9413697
Probable space group: P N N A
;
_chemical_formula_sum "Si O2"
_cell_formula_units_Z 56
_cell_length_a 15.969470
_cell_length_b 14.838701
_cell_length_c 10.743952
_cell_angle_alpha 90.000000
_cell_angle_beta 90.000000
_cell_angle_gamma 90.000000
_cell_volume 2545.953376
_symmetry_space_group_name_H-M "P N N A"
_symmetry_group_IT_number 52
_symmetry_cell_setting 'orthorhombic'
loop_
_space_group_symop_operation_xyz
x,y,z
1/2-x,-y,z
x,1/2-y,1/2-z
1/2-x,1/2+y,1/2-z
-x,-y,-z
1/2+x,y,-z
-x,1/2+y,1/2+z
1/2+x,1/2-y,1/2+z
loop_
_atom_site_type_symbol
_atom_site_label
_atom_site_fract_x
_atom_site_fract_y
_atom_site_fract_z
Si Si1 0.213823 0.327174 0.041564
Si Si2 0.051337 0.605997 0.878828
Si Si3 0.599243 0.824885 0.639797
Si Si4 0.120673 0.033281 0.283232
Si Si5 0.166997 0.750000 0.750000
Si Si6 0.201481 0.341682 0.573564
Si Si7 0.750000 0.000000 0.922841
Si Si8 0.332453 0.943856 0.694826
O O1 0.165288 0.231686 0.024147
O O2 0.200123 0.375710 0.909512
O O3 0.307712 0.303632 0.086779
O O4 0.183424 0.405494 0.134729
O O5 0.108688 0.671645 0.799684
O O6 0.101326 0.509934 0.873554
O O7 0.965617 0.584483 0.808757
O O8 0.043040 0.655346 0.014348
O O9 0.578696 0.750000 0.750000
O O10 0.606308 0.927864 0.687252
O O11 0.167316 0.025511 0.152905
O O12 0.229756 0.713193 0.648488
O O13 0.259218 0.413396 0.505435
O O14 0.142915 0.390482 0.677858
O O15 0.250000 0.000000 0.730698
#
# Coordination Sequence:
#
# PCOD9413697 Si02
#       8
#     8   8   8   8   4   8   4   8
#     4  12  22  40  72 100 134 185 244 295 357 430
#     4  12  26  44  70 101 148 189 238 300 375 428
#     4  12  23  44  73 100 134 186 242 293 362 437
#     4  12  27  46  66 103 148 187 235 303 370 435
#     4  12  22  42  70 104 140 188 230 302 362 430
#     4  12  22  42  74 108 133 189 257 293 354 449
#     4  12  26  44  72 100 146 194 244 300 360 438
#     4  12  19  42  71  98 135 185 240 298 357 429
#
# _framework density 21.995688999999999
#
# number of rings (size 3 to 8) (size 9 to 14) (size 15 to 20)
#    0.000    0.000    9.286    1.286    0.000    1.143 
#    2.571    2.857    0.000    0.000    0.000    0.000 
#    0.000    0.000    0.000    0.000    0.000    0.000 
#
# Total GULP energy -311995.789698 kJ/mol
# GULP energy per Si atom -5571.353387 kJ/mol
# Density = 2.194563 g / cm^3
# Si number density = 21.995689 Si / 1000 Ang^3
#
#
#
# Elastic Constant Matrix: (Units=GPa)
#
#
# Indices 1 2 3 4 5 6 
#
# 1 65.5729 19.6991 26.5784 0.0000 0.0000 0.0000
# 2 19.6991 149.7851 55.3744 0.0000 0.0000 0.0000
# 3 26.5784 55.3744 77.7898 0.0000 0.0000 0.0000
# 4 0.0000 0.0000 0.0000 44.7660 0.0000 0.0000
# 5 0.0000 0.0000 0.0000 0.0000 -163.3120 0.0000
# 6 0.0000 0.0000 0.0000 0.0000 0.0000 13.0471
#
#
#
# Elastic Compliance Matrix: (Units=1/GPa)
#
#
# Indices 1 2 3 4 5 6 
#
# 1 0.017703 -0.000125 -0.005960 0.000000 0.000000 0.000000
# 2 -0.000125 0.009062 -0.006408 0.000000 0.000000 0.000000
# 3 -0.005960 -0.006408 0.019453 0.000000 0.000000 0.000000
# 4 0.000000 0.000000 0.000000 0.022338 0.000000 0.000000
# 5 0.000000 0.000000 0.000000 0.000000 -0.006123 0.000000
# 6 0.000000 0.000000 0.000000 0.000000 0.000000 0.076645
#
#
# Mechanical properties :
#
#
# Convention : Reuss Voigt Hill
#
# Bulk Modulus (GPa) = 47.09705 55.16129 51.12917
# Shear Modulus (GPa) = 29.21577 -8.33338 10.44120
#
# Velocity S-wave (km/s) = 3.64847 -1.94855 2.18111
# Velocity P-wave (km/s) = 6.26154 4.47998 5.44413
#
# Compressibility (1/GPa) = 0.02123275
#
# Stress axis : x y z
#
# Youngs Moduli (GPa) = 56.48641 110.35624 51.40667
#
# Poissons Ratio (x) = 0.01380 0.30637
# Poissons Ratio (y) = 0.00706 0.32940
# Poissons Ratio (z) = 0.33664 0.70713
#
# Static dielectric constant tensor:
#      x y z
#    x 1.862090 0.000000 0.000000 
#    y 0.000000 1.844730 0.000000 
#    z 0.000000 0.000000 1.935140 
# 
# From -- ./inp_files/19681.got.cif
#   From: 2010.05.17/outbox.cif.g08.bks.cpg/sg52_10_cif.got.tgz:19681.got - 2010.06.03 12:15:38.
