data_PCOD9413428
_publ_section_title
;
Structure prediction by ZEFSAII (Michael W. Deem and Ramdas Pophale) SiO2 
 PCOD9413428
Probable space group: P N N A
;
_chemical_formula_sum "Si O2"
_cell_formula_units_Z 36
_cell_length_a 25.124191
_cell_length_b 5.187801
_cell_length_c 11.339521
_cell_angle_alpha 90.000000
_cell_angle_beta 90.000000
_cell_angle_gamma 90.000000
_cell_volume 1477.985266
_symmetry_space_group_name_H-M "P N N A"
_symmetry_group_IT_number 52
_symmetry_cell_setting 'orthorhombic'
loop_
_space_group_symop_operation_xyz
x,y,z
1/2-x,-y,z
x,1/2-y,1/2-z
1/2-x,1/2+y,1/2-z
-x,-y,-z
1/2+x,y,-z
-x,1/2+y,1/2+z
1/2+x,1/2-y,1/2+z
loop_
_atom_site_type_symbol
_atom_site_label
_atom_site_fract_x
_atom_site_fract_y
_atom_site_fract_z
Si Si1 0.843389 0.155181 0.376465
Si Si2 0.690374 0.917760 0.633874
Si Si3 0.511136 0.750000 0.750000
Si Si4 0.923269 0.878841 0.628579
Si Si5 0.582920 0.360995 0.391824
O O1 0.819462 0.250000 0.250000
O O2 0.807484 0.166169 0.495100
O O3 0.885126 0.378649 0.405662
O O4 0.875562 0.881303 0.362387
O O5 0.674808 0.750000 0.750000
O O6 0.750000 0.000000 0.662374
O O7 0.640924 0.114126 0.625532
O O8 0.549482 0.654090 0.853717
O O9 0.465917 0.568577 0.693491
O O10 0.938861 0.750000 0.750000
O O11 0.941821 0.738737 0.513054
#
# Coordination Sequence:
#
# PCOD9413428 Si02
#       5
#     8   8   4   8   8
#     4  11  23  48  75 107 143 190 243 298 362 441
#     4  11  24  47  73 106 143 190 241 306 367 421
#     4  12  24  42  66 108 142 198 234 298 362 444
#     4  11  25  42  66 102 143 190 247 296 356 444
#     4  11  25  43  71 102 148 190 235 297 363 431
#
# _framework density 24.357481
#
# number of rings (size 3 to 8) (size 9 to 14) (size 15 to 20)
#    0.000    0.889    3.333    2.667    6.222    2.667 
#    0.000    5.556    0.000    0.000    0.000    0.000 
#    0.000    0.000    0.000    0.000    0.000    0.000 
#
# Total GULP energy -200487.353638 kJ/mol
# GULP energy per Si atom -5569.093157 kJ/mol
# Density = 2.430204 g / cm^3
# Si number density = 24.357481 Si / 1000 Ang^3
#
#
#
# Elastic Constant Matrix: (Units=GPa)
#
#
# Indices 1 2 3 4 5 6 
#
# 1 91.5211 14.5303 -6.0556 0.0000 0.0000 0.0000
# 2 14.5303 80.5360 2.2882 0.0000 0.0000 0.0000
# 3 -6.0556 2.2882 155.3129 0.0000 0.0000 0.0000
# 4 0.0000 0.0000 0.0000 39.2821 0.0000 0.0000
# 5 0.0000 0.0000 0.0000 0.0000 193.2064 0.0000
# 6 0.0000 0.0000 0.0000 0.0000 0.0000 28.8632
#
#
#
# Elastic Compliance Matrix: (Units=1/GPa)
#
#
# Indices 1 2 3 4 5 6 
#
# 1 0.011283 -0.002049 0.000470 0.000000 0.000000 0.000000
# 2 -0.002049 0.012794 -0.000268 0.000000 0.000000 0.000000
# 3 0.000470 -0.000268 0.006461 0.000000 0.000000 0.000000
# 4 0.000000 0.000000 0.000000 0.025457 0.000000 0.000000
# 5 0.000000 0.000000 0.000000 0.000000 0.005176 0.000000
# 6 0.000000 0.000000 0.000000 0.000000 0.000000 0.034646
#
#
# Mechanical properties :
#
#
# Convention : Reuss Voigt Hill
#
# Bulk Modulus (GPa) = 37.25324 38.76619 38.00971
# Shear Modulus (GPa) = 46.10033 73.37748 59.73891
#
# Velocity S-wave (km/s) = 4.35519 5.49460 4.95774
# Velocity P-wave (km/s) = 6.37321 7.49695 6.95780
#
# Compressibility (1/GPa) = 0.02684330
#
# Stress axis : x y z
#
# Youngs Moduli (GPa) = 88.63003 78.16092 154.77728
#
# Poissons Ratio (x) = 0.16015 -0.07276
# Poissons Ratio (y) = 0.18160 0.04154
# Poissons Ratio (z) = -0.04167 0.02098
#
# Static dielectric constant tensor:
#      x y z
#    x 1.850680 0.000000 0.000000 
#    y 0.000000 2.272120 0.000000 
#    z 0.000000 0.000000 2.134770 
# 
# From -- ./inp_files/22070.got.cif
#   From: 2010.05.17/outbox.cif.g08.bks.cpg/sg52_12_cif.got.tgz:22070.got - 2010.06.03 12:15:38.
