data_PCOD9413479
_publ_section_title
;
Structure prediction by ZEFSAII (Michael W. Deem and Ramdas Pophale) SiO2 
 PCOD9413479
Probable space group: P N N A
;
_chemical_formula_sum "Si O2"
_cell_formula_units_Z 48
_cell_length_a 16.095032
_cell_length_b 14.616132
_cell_length_c 9.143656
_cell_angle_alpha 90.000000
_cell_angle_beta 90.000000
_cell_angle_gamma 90.000000
_cell_volume 2151.018669
_symmetry_space_group_name_H-M "P N N A"
_symmetry_group_IT_number 52
_symmetry_cell_setting 'orthorhombic'
loop_
_space_group_symop_operation_xyz
x,y,z
1/2-x,-y,z
x,1/2-y,1/2-z
1/2-x,1/2+y,1/2-z
-x,-y,-z
1/2+x,y,-z
-x,1/2+y,1/2+z
1/2+x,1/2-y,1/2+z
loop_
_atom_site_type_symbol
_atom_site_label
_atom_site_fract_x
_atom_site_fract_y
_atom_site_fract_z
Si Si1 0.701339 0.112606 0.679871
Si Si2 0.849110 0.278966 0.914530
Si Si3 0.590948 0.027036 0.150707
Si Si4 0.902464 0.022313 0.480031
Si Si5 0.750000 0.000000 0.940371
Si Si6 0.565314 0.250000 0.750000
Si Si7 0.525972 0.650885 0.481863
O O1 0.753563 0.188770 0.591932
O O2 0.621293 0.161664 0.741586
O O3 0.662226 0.030948 0.585148
O O4 0.755442 0.081470 0.819814
O O5 0.874876 0.250000 0.750000
O O6 0.881093 0.189549 0.997492
O O7 0.890362 0.370883 0.980816
O O8 0.618796 0.012529 0.316873
O O9 0.532321 0.114871 0.114573
O O10 0.669546 0.020591 0.040149
O O11 0.533864 0.938609 0.117970
O O12 0.000000 0.000000 0.500000
O O13 0.515204 0.265432 0.603039
#
# Coordination Sequence:
#
# PCOD9413479 Si02
#       7
#     8   8   8   8   4   4   8
#     4  12  25  45  74 102 140 197 246 302 372 451
#     4  12  24  42  73 103 140 188 242 300 366 448
#     4  11  26  44  73 108 143 193 241 307 372 448
#     4  12  26  46  73 105 147 191 245 304 375 450
#     4  12  24  46  74 102 142 192 248 298 374 452
#     4  12  24  46  68 108 138 192 244 302 368 448
#     4  11  24  43  71 104 145 187 247 301 377 446
#
# _framework density 22.315007999999999
#
# number of rings (size 3 to 8) (size 9 to 14) (size 15 to 20)
#    0.000    0.333    4.167    5.000    4.667    0.000 
#    0.000    0.000    3.667    0.000    0.000    0.000 
#    0.000    0.000    0.000    0.000    0.000    0.000 
#
# Total GULP energy -267707.020607 kJ/mol
# GULP energy per Si atom -5577.229596 kJ/mol
# Density = 2.226422 g / cm^3
# Si number density = 22.315008 Si / 1000 Ang^3
#
#
#
# Elastic Constant Matrix: (Units=GPa)
#
#
# Indices 1 2 3 4 5 6 
#
# 1 115.9794 31.8487 36.9782 0.0000 0.0000 0.0000
# 2 31.8487 96.7161 42.9226 0.0000 0.0000 0.0000
# 3 36.9782 42.9226 116.0225 0.0000 0.0000 0.0000
# 4 0.0000 0.0000 0.0000 31.1802 0.0000 0.0000
# 5 0.0000 0.0000 0.0000 0.0000 54.7923 0.0000
# 6 0.0000 0.0000 0.0000 0.0000 0.0000 64.9891
#
#
#
# Elastic Compliance Matrix: (Units=1/GPa)
#
#
# Indices 1 2 3 4 5 6 
#
# 1 0.009989 -0.002245 -0.002353 0.000000 0.000000 0.000000
# 2 -0.002245 0.012875 -0.004048 0.000000 0.000000 0.000000
# 3 -0.002353 -0.004048 0.010866 0.000000 0.000000 0.000000
# 4 0.000000 0.000000 0.000000 0.032072 0.000000 0.000000
# 5 0.000000 0.000000 0.000000 0.000000 0.018251 0.000000
# 6 0.000000 0.000000 0.000000 0.000000 0.000000 0.015387
#
#
# Mechanical properties :
#
#
# Convention : Reuss Voigt Hill
#
# Bulk Modulus (GPa) = 60.83105 61.35745 61.09425
# Shear Modulus (GPa) = 40.91271 44.65687 42.78479
#
# Velocity S-wave (km/s) = 4.28649 4.47833 4.38346
# Velocity P-wave (km/s) = 7.19847 7.36861 7.28404
#
# Compressibility (1/GPa) = 0.01643897
#
# Stress axis : x y z
#
# Youngs Moduli (GPa) = 100.11032 77.66873 92.02677
#
# Poissons Ratio (x) = 0.17437 0.21655
# Poissons Ratio (y) = 0.22476 0.37249
# Poissons Ratio (z) = 0.23557 0.31437
#
# Static dielectric constant tensor:
#      x y z
#    x 1.852870 0.000000 0.000000 
#    y 0.000000 1.889960 0.000000 
#    z 0.000000 0.000000 1.859480 
# 
# From -- ./inp_files/12155.got.cif
#   From: 2010.05.17/outbox.cif.g08.bks.cpg/sg52_7_cif.got.tgz:12155.got - 2010.06.03 12:15:38.
