data_PCOD9413494
_publ_section_title
;
Structure prediction by ZEFSAII (Michael W. Deem and Ramdas Pophale) SiO2 
 PCOD9413494
Probable space group: P N N A
;
_chemical_formula_sum "Si O2"
_cell_formula_units_Z 60
_cell_length_a 16.998052
_cell_length_b 9.222812
_cell_length_c 15.772934
_cell_angle_alpha 90.000000
_cell_angle_beta 90.000000
_cell_angle_gamma 90.000000
_cell_volume 2472.720307
_symmetry_space_group_name_H-M "P N N A"
_symmetry_group_IT_number 52
_symmetry_cell_setting 'orthorhombic'
loop_
_space_group_symop_operation_xyz
x,y,z
1/2-x,-y,z
x,1/2-y,1/2-z
1/2-x,1/2+y,1/2-z
-x,-y,-z
1/2+x,y,-z
-x,1/2+y,1/2+z
1/2+x,1/2-y,1/2+z
loop_
_atom_site_type_symbol
_atom_site_label
_atom_site_fract_x
_atom_site_fract_y
_atom_site_fract_z
Si Si1 0.304188 0.750000 0.750000
Si Si2 0.273321 0.161248 0.920592
Si Si3 0.582087 0.995309 0.292287
Si Si4 0.068397 0.441093 0.436852
Si Si5 0.928045 0.184542 0.133718
Si Si6 0.058568 0.525939 0.081410
Si Si7 0.191717 0.288614 0.054320
Si Si8 0.150418 0.790598 0.149917
O O1 0.251552 0.823652 0.822538
O O2 0.359315 0.630116 0.796106
O O3 0.366125 0.156444 0.938662
O O4 0.250000 0.000000 0.946998
O O5 0.242153 0.302894 0.968997
O O6 0.577428 0.954929 0.194005
O O7 0.602470 0.837674 0.330889
O O8 0.499144 0.021121 0.337361
O O9 0.135191 0.341679 0.476066
O O10 0.111629 0.554099 0.374089
O O11 0.000000 0.500000 0.500000
O O12 0.018968 0.315982 0.386294
O O13 0.134490 0.419062 0.079127
O O14 0.098463 0.681055 0.093604
O O15 0.000000 0.500000 0.000000
O O16 0.257643 0.233645 0.121777
O O17 0.143969 0.750000 0.250000
#
# Coordination Sequence:
#
# PCOD9413494 Si02
#       8
#     4   8   8   8   8   8   8   8
#     4  12  26  44  72 110 156 198 254 320 398 478
#     4  12  25  46  73 111 152 197 257 316 400 476
#     4  11  25  44  71 107 144 201 246 314 388 454
#     4  12  25  47  78 110 143 203 262 321 389 471
#     4  11  24  44  72 103 145 191 251 311 385 467
#     4  12  27  49  74 114 155 201 262 325 396 465
#     4  12  27  50  76 108 149 206 262 328 386 470
#     4  12  29  50  79 114 158 207 264 330 403 467
#
# _framework density 24.264776000000001
#
# number of rings (size 3 to 8) (size 9 to 14) (size 15 to 20)
#    0.000    0.267    2.667    6.400    4.667    3.200 
#    2.400    0.000    0.000    0.000    0.000    0.000 
#    0.000    0.000    0.000    0.000    0.000    0.000 
#
# Total GULP energy -334616.754145 kJ/mol
# GULP energy per Si atom -5576.945902 kJ/mol
# Density = 2.420955 g / cm^3
# Si number density = 24.264776 Si / 1000 Ang^3
#
#
#
# Elastic Constant Matrix: (Units=GPa)
#
#
# Indices 1 2 3 4 5 6 
#
# 1 146.8693 41.4392 33.4932 0.0000 0.0000 0.0000
# 2 41.4392 82.0343 8.8395 0.0000 0.0000 0.0000
# 3 33.4932 8.8395 89.2645 0.0000 0.0000 0.0000
# 4 0.0000 0.0000 0.0000 25.7324 0.0000 0.0000
# 5 0.0000 0.0000 0.0000 0.0000 44.4003 0.0000
# 6 0.0000 0.0000 0.0000 0.0000 0.0000 40.8803
#
#
#
# Elastic Compliance Matrix: (Units=1/GPa)
#
#
# Indices 1 2 3 4 5 6 
#
# 1 0.008591 -0.004036 -0.002824 0.000000 0.000000 0.000000
# 2 -0.004036 0.014217 0.000106 0.000000 0.000000 0.000000
# 3 -0.002824 0.000106 0.012252 0.000000 0.000000 0.000000
# 4 0.000000 0.000000 0.000000 0.038861 0.000000 0.000000
# 5 0.000000 0.000000 0.000000 0.000000 0.022522 0.000000
# 6 0.000000 0.000000 0.000000 0.000000 0.000000 0.024462
#
#
# Mechanical properties :
#
#
# Convention : Reuss Voigt Hill
#
# Bulk Modulus (GPa) = 46.39555 53.96797 50.18176
# Shear Modulus (GPa) = 35.31151 37.82902 36.57026
#
# Velocity S-wave (km/s) = 3.81892 3.95271 3.88639
# Velocity P-wave (km/s) = 6.21350 6.56670 6.39254
#
# Compressibility (1/GPa) = 0.02155379
#
# Stress axis : x y z
#
# Youngs Moduli (GPa) = 116.39510 70.33766 81.62113
#
# Poissons Ratio (x) = 0.28386 0.23050
# Poissons Ratio (y) = 0.46973 -0.00868
# Poissons Ratio (z) = 0.32870 -0.00748
#
# Static dielectric constant tensor:
#      x y z
#    x 2.005380 0.000000 0.000000 
#    y 0.000000 1.999490 0.000000 
#    z 0.000000 0.000000 2.089410 
# 
# From -- ./inp_files/33771.got.cif
#   From: 2010.05.17/outbox.cif.g08.bks.cpg/sg52_17_cif.got.tgz:33771.got - 2010.06.03 12:15:38.
