data_PCOD9413196
_publ_section_title
;
Structure prediction by ZEFSAII (Michael W. Deem and Ramdas Pophale) SiO2 
 PCOD9413196
Probable space group: P N N A
;
_chemical_formula_sum "Si O2"
_cell_formula_units_Z 40
_cell_length_a 9.795260
_cell_length_b 19.469687
_cell_length_c 9.614288
_cell_angle_alpha 90.000000
_cell_angle_beta 90.000000
_cell_angle_gamma 90.000000
_cell_volume 1833.547078
_symmetry_space_group_name_H-M "P N N A"
_symmetry_group_IT_number 52
_symmetry_cell_setting 'orthorhombic'
loop_
_space_group_symop_operation_xyz
x,y,z
1/2-x,-y,z
x,1/2-y,1/2-z
1/2-x,1/2+y,1/2-z
-x,-y,-z
1/2+x,y,-z
-x,1/2+y,1/2+z
1/2+x,1/2-y,1/2+z
loop_
_atom_site_type_symbol
_atom_site_label
_atom_site_fract_x
_atom_site_fract_y
_atom_site_fract_z
Si Si1 0.971842 0.888184 0.932233
Si Si2 0.894710 0.020773 0.831537
Si Si3 0.246261 0.810632 0.923906
Si Si4 0.803610 0.845515 0.390381
Si Si5 0.068893 0.927162 0.464691
O O1 0.089015 0.832164 0.914936
O O2 0.966625 0.946451 0.813663
O O3 0.828202 0.851751 0.958403
O O4 0.015764 0.932339 0.067814
O O5 0.868532 0.059511 0.688555
O O6 0.750000 0.000000 0.899458
O O7 0.308943 0.834396 0.775874
O O8 0.265169 0.729924 0.945953
O O9 0.686823 0.899417 0.434954
O O10 0.947206 0.872311 0.447996
O O11 0.000000 0.000000 0.500000
#
# Coordination Sequence:
#
# PCOD9413196 Si02
#       5
#     8   8   8   8   8
#     4  11  22  40  67  95 130 169 213 275 323 380
#     4  11  22  38  65  99 128 163 222 265 325 387
#     4  11  23  44  66  94 132 170 221 267 326 397
#     4  11  25  43  66  95 129 177 217 265 331 395
#     4  12  24  43  66  94 135 170 214 272 326 388
#
# _framework density 21.815638
#
# number of rings (size 3 to 8) (size 9 to 14) (size 15 to 20)
#    0.000    0.800    4.000    4.200    0.000    0.000 
#    0.000    0.000    0.000    0.000    0.000    0.000 
#    0.000    0.000    0.000    0.000    0.000    0.000 
#
# Total GULP energy -223607.451646 kJ/mol
# GULP energy per Si atom -5590.186291 kJ/mol
# Density = 2.176598 g / cm^3
# Si number density = 21.815638 Si / 1000 Ang^3
#
#
#
# Elastic Constant Matrix: (Units=GPa)
#
#
# Indices 1 2 3 4 5 6 
#
# 1 87.0004 22.3729 -12.1772 0.0000 0.0000 0.0000
# 2 22.3729 122.3612 10.5098 0.0000 0.0000 0.0000
# 3 -12.1772 10.5098 25.6447 0.0000 0.0000 0.0000
# 4 0.0000 0.0000 0.0000 31.6589 0.0000 0.0000
# 5 0.0000 0.0000 0.0000 0.0000 29.2945 0.0000
# 6 0.0000 0.0000 0.0000 0.0000 0.0000 45.2813
#
#
#
# Elastic Compliance Matrix: (Units=1/GPa)
#
#
# Indices 1 2 3 4 5 6 
#
# 1 0.013355 -0.003096 0.007610 0.000000 0.000000 0.000000
# 2 -0.003096 0.009188 -0.005235 0.000000 0.000000 0.000000
# 3 0.007610 -0.005235 0.044754 0.000000 0.000000 0.000000
# 4 0.000000 0.000000 0.000000 0.031587 0.000000 0.000000
# 5 0.000000 0.000000 0.000000 0.000000 0.034136 0.000000
# 6 0.000000 0.000000 0.000000 0.000000 0.000000 0.022084
#
#
# Mechanical properties :
#
#
# Convention : Reuss Voigt Hill
#
# Bulk Modulus (GPa) = 15.18463 30.71304 22.94884
# Shear Modulus (GPa) = 28.01154 35.53367 31.77260
#
# Velocity S-wave (km/s) = 3.58720 4.04024 3.82044
# Velocity P-wave (km/s) = 4.91252 5.98947 5.47753
#
# Compressibility (1/GPa) = 0.06585606
#
# Stress axis : x y z
#
# Youngs Moduli (GPa) = 74.87564 108.83497 22.34448
#
# Poissons Ratio (x) = 0.33691 -0.17005
# Poissons Ratio (y) = 0.23179 0.11698
# Poissons Ratio (z) = -0.56983 0.56980
#
# Static dielectric constant tensor:
#      x y z
#    x 1.800220 0.000000 0.000000 
#    y 0.000000 1.795670 0.000000 
#    z 0.000000 0.000000 1.812180 
# 
# From -- ./inp_files/16661.got.cif
#   From: 2010.05.17/outbox.cif.g08.bks.cpg/sg52_9_cif.got.tgz:16661.got - 2010.06.03 12:15:38.
