data_PCOD9413969
_publ_section_title
;
Structure prediction by ZEFSAII (Michael W. Deem and Ramdas Pophale) SiO2 
 PCOD9413969
Probable space group: P N N A
;
_chemical_formula_sum "Si O2"
_cell_formula_units_Z 32
_cell_length_a 9.000000
_cell_length_b 12.000000
_cell_length_c 15.000000
_cell_angle_alpha 90.000000
_cell_angle_beta 90.000000
_cell_angle_gamma 90.000000
_cell_volume 1620.000000
_symmetry_space_group_name_H-M "P N N A"
_symmetry_group_IT_number 52
_symmetry_cell_setting 'orthorhombic'
loop_
_space_group_symop_operation_xyz
x,y,z
1/2-x,-y,z
x,1/2-y,1/2-z
1/2-x,1/2+y,1/2-z
-x,-y,-z
1/2+x,y,-z
-x,1/2+y,1/2+z
1/2+x,1/2-y,1/2+z
loop_
_atom_site_type_symbol
_atom_site_label
_atom_site_fract_x
_atom_site_fract_y
_atom_site_fract_z
Si Si1 0.581170 0.956324 0.907988
Si Si2 0.929711 0.986499 0.281489
Si Si3 0.923499 0.601608 0.938769
Si Si4 0.912523 0.307178 0.909792
O O1 0.487247 0.992980 0.819949
O O2 0.603068 0.823161 0.891337
O O3 0.750000 0.000000 0.908322
O O4 0.500000 0.000000 0.000000
O O5 0.994833 0.875195 0.333176
O O6 0.750000 0.000000 0.287169
O O7 0.005866 0.082365 0.342331
O O8 0.746609 0.627711 0.926894
O O9 0.000000 0.500000 0.000000
O O10 0.992507 0.697945 0.998422
#
# Coordination Sequence:
#
# PCOD9413969 Si02
#       4
#     8   8   8   8
#     4  12  26  45  64  90 129 173 214 257 312 380
#     4  11  23  41  66  94 126 164 212 265 317 374
#     4  10  19  37  67  98 127 159 206 264 319 374
#     4  11  22  41  66  96 130 168 207 260 320 378
#
# _framework density 19.753086
#
# number of rings (size 3 to 8) (size 9 to 14) (size 15 to 20)
#    0.000    1.000    0.000   10.500    0.000    0.000 
#    0.000   11.250    0.000    0.000    0.000    0.000 
#    0.000    0.000    0.000    0.000    0.000    0.000 
#
# Total GULP energy -178177.995676 kJ/mol
# GULP energy per Si atom -5568.062365 kJ/mol
# Density = 1.970813 g / cm^3
# Si number density = 19.753086 Si / 1000 Ang^3
#
#
#
# Elastic Constant Matrix: (Units=GPa)
#
#
# Indices 1 2 3 4 5 6 
#
# 1 235.7754 46.8427 88.6540 0.0000 0.0000 0.0000
# 2 46.8427 72.1272 36.9014 0.0000 0.0000 0.0000
# 3 88.6540 36.9014 188.2722 0.0000 0.0000 0.0000
# 4 0.0000 0.0000 0.0000 24.8736 0.0000 0.0000
# 5 0.0000 0.0000 0.0000 0.0000 47.1461 0.0000
# 6 0.0000 0.0000 0.0000 0.0000 0.0000 33.4757
#
#
#
# Elastic Compliance Matrix: (Units=1/GPa)
#
#
# Indices 1 2 3 4 5 6 
#
# 1 0.005536 -0.002514 -0.002114 0.000000 0.000000 0.000000
# 2 -0.002514 0.016551 -0.002060 0.000000 0.000000 0.000000
# 3 -0.002114 -0.002060 0.006711 0.000000 0.000000 0.000000
# 4 0.000000 0.000000 0.000000 0.040203 0.000000 0.000000
# 5 0.000000 0.000000 0.000000 0.000000 0.021211 0.000000
# 6 0.000000 0.000000 0.000000 0.000000 0.000000 0.029872
#
#
# Mechanical properties :
#
#
# Convention : Reuss Voigt Hill
#
# Bulk Modulus (GPa) = 64.84476 93.44123 79.14299
# Shear Modulus (GPa) = 36.07511 42.68421 39.37966
#
# Velocity S-wave (km/s) = 4.27816 4.65358 4.46981
# Velocity P-wave (km/s) = 7.56984 8.73394 8.17264
#
# Compressibility (1/GPa) = 0.01542145
#
# Stress axis : x y z
#
# Youngs Moduli (GPa) = 180.65003 60.41962 149.01530
#
# Poissons Ratio (x) = 0.15187 0.31501
# Poissons Ratio (y) = 0.45407 0.30703
# Poissons Ratio (z) = 0.38189 0.12449
#
# Static dielectric constant tensor:
#      x y z
#    x 1.684970 0.000000 0.000000 
#    y 0.000000 1.833530 0.000000 
#    z 0.000000 0.000000 1.723330 
# 
# From -- ./inp_files/24056.got.cif
#   From: 2010.05.17/outbox.ucp.g08.bks.cvg/sg52_13_cif.got.tgz:24056.got - 2010.06.11 16:30:12.
