data_PCOD9413101
_publ_section_title
;
Structure prediction by ZEFSAII (Michael W. Deem and Ramdas Pophale) SiO2 
 PCOD9413101
Probable space group: P N N A
;
_chemical_formula_sum "Si O2"
_cell_formula_units_Z 40
_cell_length_a 21.206852
_cell_length_b 5.201561
_cell_length_c 19.146669
_cell_angle_alpha 90.000000
_cell_angle_beta 90.000000
_cell_angle_gamma 90.000000
_cell_volume 2112.044823
_symmetry_space_group_name_H-M "P N N A"
_symmetry_group_IT_number 52
_symmetry_cell_setting 'orthorhombic'
loop_
_space_group_symop_operation_xyz
x,y,z
1/2-x,-y,z
x,1/2-y,1/2-z
1/2-x,1/2+y,1/2-z
-x,-y,-z
1/2+x,y,-z
-x,1/2+y,1/2+z
1/2+x,1/2-y,1/2+z
loop_
_atom_site_type_symbol
_atom_site_label
_atom_site_fract_x
_atom_site_fract_y
_atom_site_fract_z
Si Si1 0.026332 0.501952 0.792292
Si Si2 0.620587 0.912306 0.685187
Si Si3 0.404484 0.471304 0.444754
Si Si4 0.473230 0.188602 0.559081
Si Si5 0.708492 0.246715 0.602896
O O1 0.047309 0.750000 0.750000
O O2 0.046338 0.532672 0.872628
O O3 0.949802 0.498518 0.795346
O O4 0.045883 0.250000 0.750000
O O5 0.645757 0.750000 0.750000
O O6 0.612359 0.735358 0.615626
O O7 0.667202 0.143625 0.667613
O O8 0.419415 0.343753 0.518848
O O9 0.468874 0.618399 0.422476
O O10 0.346333 0.666083 0.449965
O O11 0.500000 0.000000 0.500000
O O12 0.750000 0.500000 0.616739
O O13 0.750000 0.000000 0.581222
#
# Coordination Sequence:
#
# PCOD9413101 Si02
#       5
#     8   8   8   8   8
#     4  11  23  37  59  87 120 158 199 250 302 364
#     4  11  23  40  58  81 118 164 215 255 299 344
#     4  11  22  40  58  86 113 161 210 256 307 361
#     4  11  21  36  63  88 119 158 209 245 308 377
#     4  12  25  43  57  79 117 162 216 268 307 354
#
# _framework density 18.938994000000001
#
# number of rings (size 3 to 8) (size 9 to 14) (size 15 to 20)
#    0.000    0.800    6.000    2.400    2.800    0.000 
#    3.600    0.000    0.000    0.000    0.000    0.000 
#    0.000    0.000   13.600    2.400    2.000    0.000 
#
# Total GULP energy -223555.867387 kJ/mol
# GULP energy per Si atom -5588.896685 kJ/mol
# Density = 1.889589 g / cm^3
# Si number density = 18.938994 Si / 1000 Ang^3
#
#
#
# Elastic Constant Matrix: (Units=GPa)
#
#
# Indices 1 2 3 4 5 6 
#
# 1 60.1803 38.4745 23.4651 0.0000 0.0000 0.0000
# 2 38.4745 141.5949 69.3881 0.0000 0.0000 0.0000
# 3 23.4651 69.3881 132.9103 0.0000 0.0000 0.0000
# 4 0.0000 0.0000 0.0000 43.0537 0.0000 0.0000
# 5 0.0000 0.0000 0.0000 0.0000 6.7461 0.0000
# 6 0.0000 0.0000 0.0000 0.0000 0.0000 23.9946
#
#
#
# Elastic Compliance Matrix: (Units=1/GPa)
#
#
# Indices 1 2 3 4 5 6 
#
# 1 0.020198 -0.005027 -0.000942 0.000000 0.000000 0.000000
# 2 -0.005027 0.010741 -0.004720 0.000000 0.000000 0.000000
# 3 -0.000942 -0.004720 0.010154 0.000000 0.000000 0.000000
# 4 0.000000 0.000000 0.000000 0.023227 0.000000 0.000000
# 5 0.000000 0.000000 0.000000 0.000000 0.148235 0.000000
# 6 0.000000 0.000000 0.000000 0.000000 0.000000 0.041676
#
#
# Mechanical properties :
#
#
# Convention : Reuss Voigt Hill
#
# Bulk Modulus (GPa) = 50.71956 66.37119 58.54538
# Shear Modulus (GPa) = 17.71918 28.31606 23.01762
#
# Velocity S-wave (km/s) = 3.06206 3.87087 3.48998
# Velocity P-wave (km/s) = 6.27218 7.42287 6.87166
#
# Compressibility (1/GPa) = 0.01971626
#
# Stress axis : x y z
#
# Youngs Moduli (GPa) = 49.51100 93.09742 98.47932
#
# Poissons Ratio (x) = 0.46797 0.09272
# Poissons Ratio (y) = 0.24888 0.46485
# Poissons Ratio (z) = 0.04662 0.43945
#
# Static dielectric constant tensor:
#      x y z
#    x 1.667530 0.000000 0.000000 
#    y 0.000000 1.762490 0.000000 
#    z 0.000000 0.000000 1.678350 
# 
# From -- ./inp_files/33935.got.cif
#   From: 2010.05.17/outbox.cif.g08.bks.cpg/sg52_17_cif.got.tgz:33935.got - 2010.06.03 12:15:38.
