data_PCOD9413475
_publ_section_title
;
Structure prediction by ZEFSAII (Michael W. Deem and Ramdas Pophale) SiO2 
 PCOD9413475
Probable space group: P N N A
;
_chemical_formula_sum "Si O2"
_cell_formula_units_Z 28
_cell_length_a 22.982775
_cell_length_b 7.783314
_cell_length_c 7.152904
_cell_angle_alpha 90.000000
_cell_angle_beta 90.000000
_cell_angle_gamma 90.000000
_cell_volume 1279.526878
_symmetry_space_group_name_H-M "P N N A"
_symmetry_group_IT_number 52
_symmetry_cell_setting 'orthorhombic'
loop_
_space_group_symop_operation_xyz
x,y,z
1/2-x,-y,z
x,1/2-y,1/2-z
1/2-x,1/2+y,1/2-z
-x,-y,-z
1/2+x,y,-z
-x,1/2+y,1/2+z
1/2+x,1/2-y,1/2+z
loop_
_atom_site_type_symbol
_atom_site_label
_atom_site_fract_x
_atom_site_fract_y
_atom_site_fract_z
Si Si1 0.091706 0.880440 0.538121
Si Si2 0.900319 0.997469 0.873715
Si Si3 0.316659 0.554981 0.687367
Si Si4 0.489233 0.750000 0.250000
O O1 0.101227 0.987143 0.349895
O O2 0.088133 0.684500 0.461846
O O3 0.031562 0.889710 0.652511
O O4 0.143053 0.935207 0.679441
O O5 0.949499 0.852376 0.899284
O O6 0.840873 0.949898 0.976202
O O7 0.250000 0.500000 0.699125
O O8 0.323430 0.750000 0.750000
#
# Coordination Sequence:
#
# PCOD9413475 Si02
#       4
#     8   8   8   4
#     4  11  24  43  69 103 141 181 231 289 352 423
#     4  11  24  43  68 105 139 182 232 289 351 422
#     4  12  26  47  72  97 137 185 238 293 358 427
#     4  12  22  44  70 106 148 182 232 286 362 418
#
# _framework density 21.883088000000001
#
# number of rings (size 3 to 8) (size 9 to 14) (size 15 to 20)
#    0.000    0.571    2.857    5.143    0.000    1.143 
#    0.000    2.857    0.000    0.000    0.000    0.000 
#    0.000    0.000    0.000    0.000    0.000    0.000 
#
# Total GULP energy -156350.751644 kJ/mol
# GULP energy per Si atom -5583.955416 kJ/mol
# Density = 2.183328 g / cm^3
# Si number density = 21.883088 Si / 1000 Ang^3
#
#
#
# Elastic Constant Matrix: (Units=GPa)
#
#
# Indices 1 2 3 4 5 6 
#
# 1 158.1287 53.2146 60.9631 0.0000 0.0000 0.0000
# 2 53.2146 111.3063 28.0052 0.0000 0.0000 0.0000
# 3 60.9631 28.0052 131.9408 0.0000 0.0000 0.0000
# 4 0.0000 0.0000 0.0000 39.7938 0.0000 0.0000
# 5 0.0000 0.0000 0.0000 0.0000 33.6744 0.0000
# 6 0.0000 0.0000 0.0000 0.0000 0.0000 34.1279
#
#
#
# Elastic Compliance Matrix: (Units=1/GPa)
#
#
# Indices 1 2 3 4 5 6 
#
# 1 0.008729 -0.003337 -0.003325 0.000000 0.000000 0.000000
# 2 -0.003337 0.010766 -0.000744 0.000000 0.000000 0.000000
# 3 -0.003325 -0.000744 0.009273 0.000000 0.000000 0.000000
# 4 0.000000 0.000000 0.000000 0.025130 0.000000 0.000000
# 5 0.000000 0.000000 0.000000 0.000000 0.029696 0.000000
# 6 0.000000 0.000000 0.000000 0.000000 0.000000 0.029302
#
#
# Mechanical properties :
#
#
# Convention : Reuss Voigt Hill
#
# Bulk Modulus (GPa) = 71.64166 76.19349 73.91758
# Shear Modulus (GPa) = 37.77625 38.79876 38.28751
#
# Velocity S-wave (km/s) = 4.15936 4.21527 4.18741
# Velocity P-wave (km/s) = 7.47505 7.65411 7.56511
#
# Compressibility (1/GPa) = 0.01395836
#
# Stress axis : x y z
#
# Youngs Moduli (GPa) = 114.56568 92.88090 107.83722
#
# Poissons Ratio (x) = 0.30990 0.35854
# Poissons Ratio (y) = 0.38225 0.08019
# Poissons Ratio (z) = 0.38091 0.06907
#
# Static dielectric constant tensor:
#      x y z
#    x 1.773810 0.000000 0.000000 
#    y 0.000000 1.862930 0.000000 
#    z 0.000000 0.000000 1.821510 
# 
# From -- ./inp_files/12736.got.cif
#   From: 2010.05.17/outbox.cif.g08.bks.cpg/sg52_7_cif.got.tgz:12736.got - 2010.06.03 12:15:38.
