data_PCOD9413125
_publ_section_title
;
Structure prediction by ZEFSAII (Michael W. Deem and Ramdas Pophale) SiO2 
 PCOD9413125
Probable space group: P N N A
;
_chemical_formula_sum "Si O2"
_cell_formula_units_Z 48
_cell_length_a 12.056566
_cell_length_b 14.691827
_cell_length_c 13.427615
_cell_angle_alpha 90.000000
_cell_angle_beta 90.000000
_cell_angle_gamma 90.000000
_cell_volume 2378.473485
_symmetry_space_group_name_H-M "P N N A"
_symmetry_group_IT_number 52
_symmetry_cell_setting 'orthorhombic'
loop_
_space_group_symop_operation_xyz
x,y,z
1/2-x,-y,z
x,1/2-y,1/2-z
1/2-x,1/2+y,1/2-z
-x,-y,-z
1/2+x,y,-z
-x,1/2+y,1/2+z
1/2+x,1/2-y,1/2+z
loop_
_atom_site_type_symbol
_atom_site_label
_atom_site_fract_x
_atom_site_fract_y
_atom_site_fract_z
Si Si1 0.965960 0.858761 0.516884
Si Si2 0.882244 0.487399 0.131851
Si Si3 0.966841 0.972030 0.147354
Si Si4 0.842468 0.927137 0.955197
Si Si5 0.038819 0.772477 0.144963
Si Si6 0.289127 0.764594 0.362068
O O1 0.859458 0.843509 0.586673
O O2 0.069188 0.894681 0.582693
O O3 0.985611 0.766114 0.455335
O O4 0.938456 0.933253 0.433511
O O5 0.750000 0.500000 0.125956
O O6 0.922667 0.500353 0.244996
O O7 0.042958 0.881215 0.147025
O O8 0.868990 0.944687 0.071260
O O9 0.042138 0.051076 0.100689
O O10 0.803152 0.827355 0.925644
O O11 0.750000 0.000000 0.923644
O O12 0.979170 0.750000 0.250000
O O13 0.157443 0.721689 0.146731
O O14 0.331776 0.750000 0.250000
#
# Coordination Sequence:
#
# PCOD9413125 Si02
#       6
#     8   8   8   8   8   8
#     4  11  23  42  65  89 125 163 205 263 310 375
#     4  11  24  43  64  93 125 162 212 257 321 379
#     4  11  22  39  63  89 127 161 206 256 311 371
#     4  11  22  38  61  91 124 167 207 255 311 371
#     4  11  21  39  64  90 120 162 205 255 311 372
#     4  11  23  39  61  91 124 159 209 252 310 368
#
# _framework density 20.181011000000002
#
# number of rings (size 3 to 8) (size 9 to 14) (size 15 to 20)
#    0.000    1.000    5.000    2.500    0.000    0.000 
#    0.000    0.833    3.667    0.000    0.000    0.000 
#    0.000    0.000    0.000    0.000    0.000    0.000 
#
# Total GULP energy -267896.103109 kJ/mol
# GULP energy per Si atom -5581.168815 kJ/mol
# Density = 2.013508 g / cm^3
# Si number density = 20.181011 Si / 1000 Ang^3
#
#
#
# Elastic Constant Matrix: (Units=GPa)
#
#
# Indices 1 2 3 4 5 6 
#
# 1 68.6511 -3.5793 34.2984 0.0000 0.0000 0.0000
# 2 -3.5793 32.7011 8.7654 0.0000 0.0000 0.0000
# 3 34.2984 8.7654 137.2480 0.0000 0.0000 0.0000
# 4 0.0000 0.0000 0.0000 24.1938 0.0000 0.0000
# 5 0.0000 0.0000 0.0000 0.0000 24.2552 0.0000
# 6 0.0000 0.0000 0.0000 0.0000 0.0000 23.8021
#
#
#
# Elastic Compliance Matrix: (Units=1/GPa)
#
#
# Indices 1 2 3 4 5 6 
#
# 1 0.016936 0.003040 -0.004427 0.000000 0.000000 0.000000
# 2 0.003040 0.031658 -0.002782 0.000000 0.000000 0.000000
# 3 -0.004427 -0.002782 0.008570 0.000000 0.000000 0.000000
# 4 0.000000 0.000000 0.000000 0.041333 0.000000 0.000000
# 5 0.000000 0.000000 0.000000 0.000000 0.041228 0.000000
# 6 0.000000 0.000000 0.000000 0.000000 0.000000 0.042013
#
#
# Mechanical properties :
#
#
# Convention : Reuss Voigt Hill
#
# Bulk Modulus (GPa) = 20.47968 35.28547 27.88257
# Shear Modulus (GPa) = 24.23053 27.72461 25.97757
#
# Velocity S-wave (km/s) = 3.46881 3.71050 3.59169
# Velocity P-wave (km/s) = 5.11992 5.98995 5.57194
#
# Compressibility (1/GPa) = 0.04882890
#
# Stress axis : x y z
#
# Youngs Moduli (GPa) = 59.04414 31.58724 116.68690
#
# Poissons Ratio (x) = -0.09604 0.51653
# Poissons Ratio (y) = -0.17951 0.32458
# Poissons Ratio (z) = 0.26137 0.08786
#
# Static dielectric constant tensor:
#      x y z
#    x 1.722160 0.000000 0.000000 
#    y 0.000000 1.725860 0.000000 
#    z 0.000000 0.000000 1.732800 
# 
# From -- ./inp_files/26071.got.cif
#   From: 2010.05.17/outbox.cif.g08.bks.cpg/sg52_14_cif.got.tgz:26071.got - 2010.06.03 12:15:38.
