data_PCOD9413455
_publ_section_title
;
Structure prediction by ZEFSAII (Michael W. Deem and Ramdas Pophale) SiO2 
 PCOD9413455
Probable space group: P N N A
;
_chemical_formula_sum "Si O2"
_cell_formula_units_Z 32
_cell_length_a 14.854878
_cell_length_b 7.270112
_cell_length_c 14.970605
_cell_angle_alpha 90.000000
_cell_angle_beta 90.000000
_cell_angle_gamma 90.000000
_cell_volume 1616.774841
_symmetry_space_group_name_H-M "P N N A"
_symmetry_group_IT_number 52
_symmetry_cell_setting 'orthorhombic'
loop_
_space_group_symop_operation_xyz
x,y,z
1/2-x,-y,z
x,1/2-y,1/2-z
1/2-x,1/2+y,1/2-z
-x,-y,-z
1/2+x,y,-z
-x,1/2+y,1/2+z
1/2+x,1/2-y,1/2+z
loop_
_atom_site_type_symbol
_atom_site_label
_atom_site_fract_x
_atom_site_fract_y
_atom_site_fract_z
Si Si1 0.750000 0.500000 0.118691
Si Si2 0.468475 0.903495 0.823800
Si Si3 0.846966 0.582310 0.683213
Si Si4 0.631229 0.750000 0.250000
Si Si5 0.828829 0.653800 0.475034
O O1 0.690737 0.629847 0.182543
O O2 0.799340 0.645324 0.056350
O O3 0.440238 0.750000 0.750000
O O4 0.421066 0.872754 0.919199
O O5 0.575526 0.927268 0.819351
O O6 0.429782 0.101271 0.797886
O O7 0.750000 0.500000 0.708693
O O8 0.868411 0.750000 0.750000
O O9 0.841349 0.648628 0.580769
O O10 0.750000 0.500000 0.452590
#
# Coordination Sequence:
#
# PCOD9413455 Si02
#       5
#     4   8   8   4   8
#     4  12  22  40  68 102 142 170 210 270 348 410
#     4  12  23  44  68  99 136 174 217 279 336 398
#     4  11  26  47  67  92 132 182 236 278 321 387
#     4  12  22  38  68 104 136 166 210 270 346 410
#     4  11  24  42  68 101 137 172 220 274 338 401
#
# _framework density 19.792489
#
# number of rings (size 3 to 8) (size 9 to 14) (size 15 to 20)
#    0.000    0.500    6.250    3.000    1.750    0.000 
#    0.000    2.500    0.000    0.000    0.000    0.000 
#    0.000    0.000    0.000    0.000    0.000    0.000 
#
# Total GULP energy -178645.009189 kJ/mol
# GULP energy per Si atom -5582.656537 kJ/mol
# Density = 1.974744 g / cm^3
# Si number density = 19.792489 Si / 1000 Ang^3
#
#
#
# Elastic Constant Matrix: (Units=GPa)
#
#
# Indices 1 2 3 4 5 6 
#
# 1 103.7171 41.3476 34.5816 0.0000 0.0000 0.0000
# 2 41.3476 125.8840 44.7340 0.0000 0.0000 0.0000
# 3 34.5816 44.7340 92.5266 0.0000 0.0000 0.0000
# 4 0.0000 0.0000 0.0000 21.8112 0.0000 0.0000
# 5 0.0000 0.0000 0.0000 0.0000 321.9811 0.0000
# 6 0.0000 0.0000 0.0000 0.0000 0.0000 -157.5054
#
#
#
# Elastic Compliance Matrix: (Units=1/GPa)
#
#
# Indices 1 2 3 4 5 6 
#
# 1 0.011768 -0.002780 -0.003054 0.000000 0.000000 0.000000
# 2 -0.002780 0.010248 -0.003916 0.000000 0.000000 0.000000
# 3 -0.003054 -0.003916 0.013842 0.000000 0.000000 0.000000
# 4 0.000000 0.000000 0.000000 0.045848 0.000000 0.000000
# 5 0.000000 0.000000 0.000000 0.000000 0.003106 0.000000
# 6 0.000000 0.000000 0.000000 0.000000 0.000000 -0.006349
#
#
# Mechanical properties :
#
#
# Convention : Reuss Voigt Hill
#
# Bulk Modulus (GPa) = 61.12885 62.60601 61.86743
# Shear Modulus (GPa) = 48.34787 50.68833 49.51810
#
# Velocity S-wave (km/s) = 4.94777 5.06611 5.00729
# Velocity P-wave (km/s) = 7.97449 8.11914 8.04714
#
# Compressibility (1/GPa) = 0.01635889
#
# Stress axis : x y z
#
# Youngs Moduli (GPa) = 84.97438 97.57568 72.24165
#
# Poissons Ratio (x) = 0.27126 0.22065
# Poissons Ratio (y) = 0.23623 0.28289
# Poissons Ratio (z) = 0.25954 0.38209
#
# Static dielectric constant tensor:
#      x y z
#    x 1.792910 0.000000 0.000000 
#    y 0.000000 1.697830 0.000000 
#    z 0.000000 0.000000 1.715430 
# 
# From -- ./inp_files/27724.got.cif
#   From: 2010.05.17/outbox.cif.g08.bks.cpg/sg52_14_cif.got.tgz:27724.got - 2010.06.03 12:15:38.
