data_PCOD9413238
_publ_section_title
;
Structure prediction by ZEFSAII (Michael W. Deem and Ramdas Pophale) SiO2 
 PCOD9413238
Probable space group: P N N A
;
_chemical_formula_sum "Si O2"
_cell_formula_units_Z 32
_cell_length_a 9.441058
_cell_length_b 8.789126
_cell_length_c 16.985281
_cell_angle_alpha 90.000000
_cell_angle_beta 90.000000
_cell_angle_gamma 90.000000
_cell_volume 1409.415659
_symmetry_space_group_name_H-M "P N N A"
_symmetry_group_IT_number 52
_symmetry_cell_setting 'orthorhombic'
loop_
_space_group_symop_operation_xyz
x,y,z
1/2-x,-y,z
x,1/2-y,1/2-z
1/2-x,1/2+y,1/2-z
-x,-y,-z
1/2+x,y,-z
-x,1/2+y,1/2+z
1/2+x,1/2-y,1/2+z
loop_
_atom_site_type_symbol
_atom_site_label
_atom_site_fract_x
_atom_site_fract_y
_atom_site_fract_z
Si Si1 0.288771 0.172828 0.480761
Si Si2 0.898364 0.076652 0.224550
Si Si3 0.115517 0.886557 0.312211
Si Si4 0.489136 0.636742 0.438423
O O1 0.385165 0.170301 0.401975
O O2 0.374394 0.256702 0.548578
O O3 0.149672 0.265884 0.456549
O O4 0.250000 0.000000 0.500736
O O5 0.877561 0.250000 0.250000
O O6 0.003925 0.075619 0.149985
O O7 0.750000 0.000000 0.202988
O O8 0.975140 0.980583 0.292226
O O9 0.130051 0.750000 0.250000
O O10 0.250000 0.000000 0.306153
O O11 0.500000 0.500000 0.500000
#
# Coordination Sequence:
#
# PCOD9413238 Si02
#       4
#     8   8   8   8
#     4  11  24  42  67  98 133 175 219 273 331 395
#     4  12  26  44  66  97 134 176 223 276 331 392
#     4  11  22  41  66  95 128 172 221 273 332 396
#     4  12  25  45  69 100 135 175 221 274 331 395
#
# _framework density 22.704445
#
# number of rings (size 3 to 8) (size 9 to 14) (size 15 to 20)
#    0.000    0.500    0.000   10.500    0.000    3.000 
#    0.000    0.000    0.000    0.000    0.000    0.000 
#    0.000    0.000    0.000    0.000    0.000    0.000 
#
# Total GULP energy -179468.059926 kJ/mol
# GULP energy per Si atom -5608.376873 kJ/mol
# Density = 2.265277 g / cm^3
# Si number density = 22.704445 Si / 1000 Ang^3
#
#
#
# Elastic Constant Matrix: (Units=GPa)
#
#
# Indices 1 2 3 4 5 6 
#
# 1 86.4836 10.3015 6.5557 0.0000 0.0000 0.0000
# 2 10.3015 115.8787 24.4276 0.0000 0.0000 0.0000
# 3 6.5557 24.4276 27.1538 0.0000 0.0000 0.0000
# 4 0.0000 0.0000 0.0000 23.4052 0.0000 0.0000
# 5 0.0000 0.0000 0.0000 0.0000 34.0244 0.0000
# 6 0.0000 0.0000 0.0000 0.0000 0.0000 31.2836
#
#
#
# Elastic Compliance Matrix: (Units=1/GPa)
#
#
# Indices 1 2 3 4 5 6 
#
# 1 0.011807 -0.000554 -0.002352 0.000000 0.000000 0.000000
# 2 -0.000554 0.010675 -0.009470 0.000000 0.000000 0.000000
# 3 -0.002352 -0.009470 0.045914 0.000000 0.000000 0.000000
# 4 0.000000 0.000000 0.000000 0.042726 0.000000 0.000000
# 5 0.000000 0.000000 0.000000 0.000000 0.029391 0.000000
# 6 0.000000 0.000000 0.000000 0.000000 0.000000 0.031966
#
#
# Mechanical properties :
#
#
# Convention : Reuss Voigt Hill
#
# Bulk Modulus (GPa) = 22.91229 34.67618 28.79424
# Shear Modulus (GPa) = 23.60960 30.29141 26.95051
#
# Velocity S-wave (km/s) = 3.22820 3.65658 3.44905
# Velocity P-wave (km/s) = 4.89984 5.75617 5.34518
#
# Compressibility (1/GPa) = 0.04364469
#
# Stress axis : x y z
#
# Youngs Moduli (GPa) = 84.69434 93.67524 21.77980
#
# Poissons Ratio (x) = 0.05187 0.05124
# Poissons Ratio (y) = 0.04690 0.20625
# Poissons Ratio (z) = 0.19924 0.88708
#
# Static dielectric constant tensor:
#      x y z
#    x 1.868220 0.000000 0.000000 
#    y 0.000000 1.772100 0.000000 
#    z 0.000000 0.000000 1.828910 
# 
# From -- ./inp_files/35453.got.cif
#   From: 2010.05.17/outbox.cif.g08.bks.cpg/sg52_18_cif.got.tgz:35453.got - 2010.06.03 12:15:38.
