data_PCOD9413277
_publ_section_title
;
Structure prediction by ZEFSAII (Michael W. Deem and Ramdas Pophale) SiO2 
 PCOD9413277
Probable space group: P N N A
;
_chemical_formula_sum "Si O2"
_cell_formula_units_Z 40
_cell_length_a 18.559350
_cell_length_b 9.722879
_cell_length_c 9.988945
_cell_angle_alpha 90.000000
_cell_angle_beta 90.000000
_cell_angle_gamma 90.000000
_cell_volume 1802.508265
_symmetry_space_group_name_H-M "P N N A"
_symmetry_group_IT_number 52
_symmetry_cell_setting 'orthorhombic'
loop_
_space_group_symop_operation_xyz
x,y,z
1/2-x,-y,z
x,1/2-y,1/2-z
1/2-x,1/2+y,1/2-z
-x,-y,-z
1/2+x,y,-z
-x,1/2+y,1/2+z
1/2+x,1/2-y,1/2+z
loop_
_atom_site_type_symbol
_atom_site_label
_atom_site_fract_x
_atom_site_fract_y
_atom_site_fract_z
Si Si1 0.507161 0.297536 0.105164
Si Si2 0.583461 0.039699 0.017347
Si Si3 0.174208 0.083121 0.250913
Si Si4 0.684901 0.590137 0.268834
Si Si5 0.898252 0.034140 0.482561
O O1 0.482940 0.250000 0.250000
O O2 0.571859 0.197525 0.062639
O O3 0.436500 0.319954 0.014728
O O4 0.542847 0.446870 0.100008
O O5 0.619945 0.947609 0.131478
O O6 0.629375 0.039741 0.881516
O O7 0.500000 0.000000 0.000000
O O8 0.184426 0.250000 0.250000
O O9 0.127253 0.036936 0.380291
O O10 0.250000 0.000000 0.253857
O O11 0.750000 0.500000 0.323630
O O12 0.700860 0.750000 0.250000
O O13 0.666910 0.543476 0.118875
#
# Coordination Sequence:
#
# PCOD9413277 Si02
#       5
#     8   8   8   8   8
#     4  11  22  43  75 108 142 188 242 304 370 426
#     4  12  26  45  76 106 148 190 250 304 370 440
#     4  12  28  48  73 108 151 197 246 303 374 447
#     4  12  29  48  75 108 148 196 250 303 368 442
#     4  11  25  45  75 107 145 189 246 306 364 439
#
# _framework density 22.191298
#
# number of rings (size 3 to 8) (size 9 to 14) (size 15 to 20)
#    0.000    0.400    4.000    3.600    5.600    8.000 
#    0.000    0.000    0.000    0.000    0.000    0.000 
#    0.000    0.000    0.000    0.000    0.000    0.000 
#
# Total GULP energy -223460.217943 kJ/mol
# GULP energy per Si atom -5586.505449 kJ/mol
# Density = 2.214079 g / cm^3
# Si number density = 22.191298 Si / 1000 Ang^3
#
#
#
# Elastic Constant Matrix: (Units=GPa)
#
#
# Indices 1 2 3 4 5 6 
#
# 1 121.7182 49.6306 34.4092 0.0000 0.0000 0.0000
# 2 49.6306 122.1491 52.1808 0.0000 0.0000 0.0000
# 3 34.4092 52.1808 117.5229 0.0000 0.0000 0.0000
# 4 0.0000 0.0000 0.0000 17.3452 0.0000 0.0000
# 5 0.0000 0.0000 0.0000 0.0000 33.3161 0.0000
# 6 0.0000 0.0000 0.0000 0.0000 0.0000 39.6540
#
#
#
# Elastic Compliance Matrix: (Units=1/GPa)
#
#
# Indices 1 2 3 4 5 6 
#
# 1 0.010028 -0.003480 -0.001391 0.000000 0.000000 0.000000
# 2 -0.003480 0.011311 -0.004003 0.000000 0.000000 0.000000
# 3 -0.001391 -0.004003 0.010694 0.000000 0.000000 0.000000
# 4 0.000000 0.000000 0.000000 0.057653 0.000000 0.000000
# 5 0.000000 0.000000 0.000000 0.000000 0.030015 0.000000
# 6 0.000000 0.000000 0.000000 0.000000 0.000000 0.025218
#
#
# Mechanical properties :
#
#
# Convention : Reuss Voigt Hill
#
# Bulk Modulus (GPa) = 70.00833 70.42569 70.21701
# Shear Modulus (GPa) = 29.86348 33.07439 31.46893
#
# Velocity S-wave (km/s) = 3.67240 3.86479 3.76982
# Velocity P-wave (km/s) = 7.04260 7.19167 7.11752
#
# Compressibility (1/GPa) = 0.01428401
#
# Stress axis : x y z
#
# Youngs Moduli (GPa) = 99.72102 88.41022 93.51412
#
# Poissons Ratio (x) = 0.30770 0.13006
# Poissons Ratio (y) = 0.34707 0.37435
# Poissons Ratio (z) = 0.13869 0.35391
#
# Static dielectric constant tensor:
#      x y z
#    x 1.815530 0.000000 0.000000 
#    y 0.000000 2.150120 0.000000 
#    z 0.000000 0.000000 1.800630 
# 
# From -- ./inp_files/20323.got.cif
#   From: 2010.05.17/outbox.cif.g08.bks.cpg/sg52_11_cif.got.tgz:20323.got - 2010.06.03 12:15:38.
