data_PCOD9413489
_publ_section_title
;
Structure prediction by ZEFSAII (Michael W. Deem and Ramdas Pophale) SiO2 
 PCOD9413489
Probable space group: P N N A
;
_chemical_formula_sum "Si O2"
_cell_formula_units_Z 28
_cell_length_a 19.758047
_cell_length_b 4.849143
_cell_length_c 11.618817
_cell_angle_alpha 90.000000
_cell_angle_beta 90.000000
_cell_angle_gamma 90.000000
_cell_volume 1113.194155
_symmetry_space_group_name_H-M "P N N A"
_symmetry_group_IT_number 52
_symmetry_cell_setting 'orthorhombic'
loop_
_space_group_symop_operation_xyz
x,y,z
1/2-x,-y,z
x,1/2-y,1/2-z
1/2-x,1/2+y,1/2-z
-x,-y,-z
1/2+x,y,-z
-x,1/2+y,1/2+z
1/2+x,1/2-y,1/2+z
loop_
_atom_site_type_symbol
_atom_site_label
_atom_site_fract_x
_atom_site_fract_y
_atom_site_fract_z
Si Si1 0.795288 0.250000 0.750000
Si Si2 0.589850 0.026971 0.597946
Si Si3 0.393598 0.458137 0.553288
Si Si4 0.980096 0.750000 0.250000
Si Si5 0.250000 0.500000 0.665203
O O1 0.750000 0.500000 0.700206
O O2 0.842615 0.094339 0.657724
O O3 0.579843 0.838094 0.485224
O O4 0.529715 0.960035 0.684210
O O5 0.597482 0.337873 0.555671
O O6 0.434596 0.586471 0.658842
O O7 0.315660 0.436342 0.589851
O O8 0.266799 0.750000 0.750000
#
# Coordination Sequence:
#
# PCOD9413489 Si02
#       5
#     4   8   8   4   4
#     4  11  24  44  68 100 143 186 234 296 347 424
#     4  11  27  45  72 106 137 191 238 289 360 419
#     4  12  26  46  75 103 144 186 236 296 352 428
#     4  11  26  50  72 104 149 182 244 292 355 426
#     4  12  26  48  72 106 144 192 236 296 364 416
#
# _framework density 25.152844000000002
#
# number of rings (size 3 to 8) (size 9 to 14) (size 15 to 20)
#    0.000    0.571    1.429    5.143    6.000    5.714 
#    0.000    0.000    0.000    0.000    0.000    0.000 
#    0.000    0.000    0.000    0.000    0.000    0.000 
#
# Total GULP energy -157345.941114 kJ/mol
# GULP energy per Si atom -5619.497897 kJ/mol
# Density = 2.509559 g / cm^3
# Si number density = 25.152844 Si / 1000 Ang^3
#
#
#
# Elastic Constant Matrix: (Units=GPa)
#
#
# Indices 1 2 3 4 5 6 
#
# 1 132.4896 8.6472 50.8562 0.0000 0.0000 0.0000
# 2 8.6472 91.4798 1.1387 0.0000 0.0000 0.0000
# 3 50.8562 1.1387 89.0301 0.0000 0.0000 0.0000
# 4 0.0000 0.0000 0.0000 33.1855 0.0000 0.0000
# 5 0.0000 0.0000 0.0000 0.0000 471.5378 0.0000
# 6 0.0000 0.0000 0.0000 0.0000 0.0000 32.2251
#
#
#
# Elastic Compliance Matrix: (Units=1/GPa)
#
#
# Indices 1 2 3 4 5 6 
#
# 1 0.009733 -0.000851 -0.005549 0.000000 0.000000 0.000000
# 2 -0.000851 0.011008 0.000345 0.000000 0.000000 0.000000
# 3 -0.005549 0.000345 0.014397 0.000000 0.000000 0.000000
# 4 0.000000 0.000000 0.000000 0.030134 0.000000 0.000000
# 5 0.000000 0.000000 0.000000 0.000000 0.002121 0.000000
# 6 0.000000 0.000000 0.000000 0.000000 0.000000 0.031032
#
#
# Mechanical properties :
#
#
# Convention : Reuss Voigt Hill
#
# Bulk Modulus (GPa) = 43.42366 48.25377 45.83872
# Shear Modulus (GPa) = 42.29761 124.21353 83.25557
#
# Velocity S-wave (km/s) = 4.10521 7.03496 5.75949
# Velocity P-wave (km/s) = 6.30648 9.23111 7.90523
#
# Compressibility (1/GPa) = 0.02302892
#
# Stress axis : x y z
#
# Youngs Moduli (GPa) = 102.74011 90.84705 69.45658
#
# Poissons Ratio (x) = 0.07731 0.38542
# Poissons Ratio (y) = 0.08743 -0.02398
# Poissons Ratio (z) = 0.57011 -0.03137
#
# Static dielectric constant tensor:
#      x y z
#    x 1.974180 0.000000 0.000000 
#    y 0.000000 1.904230 0.000000 
#    z 0.000000 0.000000 1.980780 
# 
# From -- ./inp_files/21157.got.cif
#   From: 2010.05.17/outbox.cif.g08.bks.cpg/sg52_11_cif.got.tgz:21157.got - 2010.06.03 12:15:38.
