data_PCOD9413928
_publ_section_title
;
Structure prediction by ZEFSAII (Michael W. Deem and Ramdas Pophale) SiO2 
 PCOD9413928
Probable space group: P N N A
;
_chemical_formula_sum "Si O2"
_cell_formula_units_Z 20
_cell_length_a 7.661516
_cell_length_b 4.825612
_cell_length_c 20.191940
_cell_angle_alpha 90.000000
_cell_angle_beta 90.000000
_cell_angle_gamma 90.000000
_cell_volume 746.526381
_symmetry_space_group_name_H-M "P N N A"
_symmetry_group_IT_number 52
_symmetry_cell_setting 'orthorhombic'
loop_
_space_group_symop_operation_xyz
x,y,z
1/2-x,-y,z
x,1/2-y,1/2-z
1/2-x,1/2+y,1/2-z
-x,-y,-z
1/2+x,y,-z
-x,1/2+y,1/2+z
1/2+x,1/2-y,1/2+z
loop_
_atom_site_type_symbol
_atom_site_label
_atom_site_fract_x
_atom_site_fract_y
_atom_site_fract_z
Si Si1 0.250000 0.500000 0.928867
Si Si2 0.250000 0.000000 0.030932
Si Si3 0.951899 0.409650 0.363953
Si Si4 0.139915 0.750000 0.250000
O O1 0.086426 0.584616 0.881659
O O2 0.268462 0.744895 0.981583
O O3 0.417690 0.005604 0.078307
O O4 0.750000 0.500000 0.362007
O O5 0.033405 0.550164 0.299133
O O6 0.250000 0.500000 0.213883
#
# Coordination Sequence:
#
# PCOD9413928 Si02
#       4
#     4   4   8   4
#     4  12  28  52  87 133 174 226 278 368 442 538
#     4  12  28  52  85 131 184 216 280 358 456 528
#     4  12  30  53  89 125 171 229 295 359 438 526
#     4  12  32  58  86 120 178 240 304 372 438 524
#
# _framework density 26.790745000000001
#
# number of rings (size 3 to 8) (size 9 to 14) (size 15 to 20)
#    0.000    0.000    4.000    2.400   14.000    1.600 
#    0.000    0.000    0.000    0.000    0.000    0.000 
#    0.000    0.000    0.000    0.000    0.000    0.000 
#
# Total GULP energy -111674.124179 kJ/mol
# GULP energy per Si atom -5583.706209 kJ/mol
# Density = 2.672977 g / cm^3
# Si number density = 26.790745 Si / 1000 Ang^3
#
#
#
# Elastic Constant Matrix: (Units=GPa)
#
#
# Indices 1 2 3 4 5 6 
#
# 1 185.5274 85.6474 85.6429 0.0000 0.0000 0.0000
# 2 85.6474 229.5768 95.2487 0.0000 0.0000 0.0000
# 3 85.6429 95.2487 192.1802 0.0000 0.0000 0.0000
# 4 0.0000 0.0000 0.0000 38.9805 0.0000 0.0000
# 5 0.0000 0.0000 0.0000 0.0000 18.1596 0.0000
# 6 0.0000 0.0000 0.0000 0.0000 0.0000 40.0802
#
#
#
# Elastic Compliance Matrix: (Units=1/GPa)
#
#
# Indices 1 2 3 4 5 6 
#
# 1 0.007292 -0.001727 -0.002394 0.000000 0.000000 0.000000
# 2 -0.001727 0.005893 -0.002151 0.000000 0.000000 0.000000
# 3 -0.002394 -0.002151 0.007336 0.000000 0.000000 0.000000
# 4 0.000000 0.000000 0.000000 0.025654 0.000000 0.000000
# 5 0.000000 0.000000 0.000000 0.000000 0.055067 0.000000
# 6 0.000000 0.000000 0.000000 0.000000 0.000000 0.024950
#
#
# Mechanical properties :
#
#
# Convention : Reuss Voigt Hill
#
# Bulk Modulus (GPa) = 125.35152 126.70694 126.02923
# Shear Modulus (GPa) = 35.36196 42.16042 38.76119
#
# Velocity S-wave (km/s) = 3.63703 3.97128 3.80783
# Velocity P-wave (km/s) = 8.03293 8.27199 8.15334
#
# Compressibility (1/GPa) = 0.00797757
#
# Stress axis : x y z
#
# Youngs Moduli (GPa) = 137.12790 169.70459 136.31302
#
# Poissons Ratio (x) = 0.29316 0.32628
# Poissons Ratio (y) = 0.23689 0.29316
# Poissons Ratio (z) = 0.32823 0.36498
#
# Static dielectric constant tensor:
#      x y z
#    x 2.198040 0.000000 0.000000 
#    y 0.000000 2.446780 0.000000 
#    z 0.000000 0.000000 2.102240 
# 
# From -- ./inp_files/30517.got.cif
#   From: 2010.05.17/outbox.cif.g08.bks.cpg/sg52_16_cif.got.tgz:30517.got - 2010.06.03 12:15:38.
