data_PCOD9413862
_publ_section_title
;
Structure prediction by ZEFSAII (Michael W. Deem and Ramdas Pophale) SiO2 
 PCOD9413862
Probable space group: P N N A
;
_chemical_formula_sum "Si O2"
_cell_formula_units_Z 40
_cell_length_a 13.906112
_cell_length_b 11.974883
_cell_length_c 10.541453
_cell_angle_alpha 90.000000
_cell_angle_beta 90.000000
_cell_angle_gamma 90.000000
_cell_volume 1755.405596
_symmetry_space_group_name_H-M "P N N A"
_symmetry_group_IT_number 52
_symmetry_cell_setting 'orthorhombic'
loop_
_space_group_symop_operation_xyz
x,y,z
1/2-x,-y,z
x,1/2-y,1/2-z
1/2-x,1/2+y,1/2-z
-x,-y,-z
1/2+x,y,-z
-x,1/2+y,1/2+z
1/2+x,1/2-y,1/2+z
loop_
_atom_site_type_symbol
_atom_site_label
_atom_site_fract_x
_atom_site_fract_y
_atom_site_fract_z
Si Si1 0.463048 0.975600 0.639758
Si Si2 0.797357 0.250000 0.250000
Si Si3 0.415854 0.865096 0.174877
Si Si4 0.404130 0.333159 0.514819
Si Si5 0.959593 0.250000 0.750000
Si Si6 0.250000 0.000000 0.709147
Si Si7 0.250000 0.500000 0.440637
O O1 0.479785 0.850153 0.688826
O O2 0.500000 0.000000 0.500000
O O3 0.524238 0.050402 0.737193
O O4 0.351545 0.004656 0.640203
O O5 0.863206 0.251882 0.376790
O O6 0.743643 0.369528 0.260382
O O7 0.407832 0.750000 0.250000
O O8 0.484791 0.852777 0.051672
O O9 0.311298 0.912122 0.140747
O O10 0.399013 0.293716 0.370086
O O11 0.335262 0.441620 0.520203
#
# Coordination Sequence:
#
# PCOD9413862 Si02
#       7
#     8   4   8   8   4   4   4
#     4  12  27  49  76 115 161 207 262 332 396 483
#     4  12  25  48  83 114 158 214 269 332 403 486
#     4  12  26  51  77 111 159 207 257 330 400 469
#     4  12  26  52  75 116 157 210 264 331 402 482
#     4  12  27  48  77 114 162 204 261 330 407 480
#     4  12  25  47  80 118 149 210 273 324 405 480
#     4  12  29  45  84 110 159 208 273 324 409 488
#
# _framework density 22.786757000000001
#
# number of rings (size 3 to 8) (size 9 to 14) (size 15 to 20)
#    0.000    0.000    5.000    4.200    1.400    4.000 
#    0.000    0.000    0.000    0.000    0.000    0.000 
#    0.000    0.000    0.000    0.000    0.000    0.000 
#
# Total GULP energy -223403.791021 kJ/mol
# GULP energy per Si atom -5585.094776 kJ/mol
# Density = 2.273489 g / cm^3
# Si number density = 22.786757 Si / 1000 Ang^3
#
#
#
# Elastic Constant Matrix: (Units=GPa)
#
#
# Indices 1 2 3 4 5 6 
#
# 1 139.5898 60.1085 25.1499 0.0000 0.0000 0.0000
# 2 60.1085 177.3233 40.3933 0.0000 0.0000 0.0000
# 3 25.1499 40.3933 126.4313 0.0000 0.0000 0.0000
# 4 0.0000 0.0000 0.0000 38.3600 0.0000 0.0000
# 5 0.0000 0.0000 0.0000 0.0000 20.7881 0.0000
# 6 0.0000 0.0000 0.0000 0.0000 0.0000 22.7090
#
#
#
# Elastic Compliance Matrix: (Units=1/GPa)
#
#
# Indices 1 2 3 4 5 6 
#
# 1 0.008468 -0.002682 -0.000828 0.000000 0.000000 0.000000
# 2 -0.002682 0.006931 -0.001681 0.000000 0.000000 0.000000
# 3 -0.000828 -0.001681 0.008611 0.000000 0.000000 0.000000
# 4 0.000000 0.000000 0.000000 0.026069 0.000000 0.000000
# 5 0.000000 0.000000 0.000000 0.000000 0.048105 0.000000
# 6 0.000000 0.000000 0.000000 0.000000 0.000000 0.044035
#
#
# Mechanical properties :
#
#
# Convention : Reuss Voigt Hill
#
# Bulk Modulus (GPa) = 73.37098 77.18308 75.27703
# Shear Modulus (GPa) = 31.81813 37.55094 34.68453
#
# Velocity S-wave (km/s) = 3.74082 4.06387 3.90569
# Velocity P-wave (km/s) = 7.13633 7.48101 7.31070
#
# Compressibility (1/GPa) = 0.01362937
#
# Stress axis : x y z
#
# Youngs Moduli (GPa) = 118.09462 144.27031 116.12879
#
# Poissons Ratio (x) = 0.38691 0.09611
# Poissons Ratio (y) = 0.31671 0.19522
# Poissons Ratio (z) = 0.09774 0.24252
#
# Static dielectric constant tensor:
#      x y z
#    x 1.825220 0.000000 0.000000 
#    y 0.000000 1.934340 0.000000 
#    z 0.000000 0.000000 1.352230 
# 
# From -- ./inp_files/19332.got.cif
#   From: 2010.05.17/outbox.cif.g08.bks.cpg/sg52_10_cif.got.tgz:19332.got - 2010.06.03 12:15:38.
