data_PCOD9413545
_publ_section_title
;
Structure prediction by ZEFSAII (Michael W. Deem and Ramdas Pophale) SiO2 
 PCOD9413545
Probable space group: P N N A
;
_chemical_formula_sum "Si O2"
_cell_formula_units_Z 36
_cell_length_a 25.120470
_cell_length_b 10.764217
_cell_length_c 4.866417
_cell_angle_alpha 90.000000
_cell_angle_beta 90.000000
_cell_angle_gamma 90.000000
_cell_volume 1315.889815
_symmetry_space_group_name_H-M "P N N A"
_symmetry_group_IT_number 52
_symmetry_cell_setting 'orthorhombic'
loop_
_space_group_symop_operation_xyz
x,y,z
1/2-x,-y,z
x,1/2-y,1/2-z
1/2-x,1/2+y,1/2-z
-x,-y,-z
1/2+x,y,-z
-x,1/2+y,1/2+z
1/2+x,1/2-y,1/2+z
loop_
_atom_site_type_symbol
_atom_site_label
_atom_site_fract_x
_atom_site_fract_y
_atom_site_fract_z
Si Si1 0.817347 0.750000 0.250000
Si Si2 0.750000 0.000000 0.249163
Si Si3 0.910311 0.085511 0.983879
Si Si4 0.003694 0.750000 0.250000
Si Si5 0.581950 0.365746 0.934410
Si Si6 0.151528 0.635208 0.965234
O O1 0.781862 0.628951 0.366102
O O2 0.859297 0.818441 0.457761
O O3 0.793236 0.067904 0.431937
O O4 0.954889 0.190258 0.966344
O O5 0.861701 0.133656 0.785420
O O6 0.923538 0.970784 0.794673
O O7 0.892487 0.054778 0.292427
O O8 0.965073 0.860307 0.342448
O O9 0.564221 0.250000 0.750000
O O10 0.151658 0.750000 0.750000
#
# Coordination Sequence:
#
# PCOD9413545 Si02
#       6
#     4   4   8   4   8   8
#     4  11  24  48  68 112 150 194 260 313 386 462
#     4  12  24  46  80 106 150 204 248 312 392 452
#     4  12  26  48  75 107 151 193 252 313 371 455
#     4  11  26  44  74 106 148 198 254 309 390 446
#     4  11  26  46  70 107 151 199 248 317 379 463
#     4  12  25  48  75 111 148 192 251 315 375 452
#
# _framework density 27.357914000000001
#
# number of rings (size 3 to 8) (size 9 to 14) (size 15 to 20)
#    0.000    0.444    5.556    2.000    6.222    1.778 
#    4.000    0.000    0.000    0.000    0.000    0.000 
#    0.000    0.000    0.000    0.000    0.000    0.000 
#
# Total GULP energy -200483.990666 kJ/mol
# GULP energy per Si atom -5568.999741 kJ/mol
# Density = 2.729565 g / cm^3
# Si number density = 27.357914 Si / 1000 Ang^3
#
#
#
# Elastic Constant Matrix: (Units=GPa)
#
#
# Indices 1 2 3 4 5 6 
#
# 1 137.8593 5.9739 33.2298 0.0000 0.0000 0.0000
# 2 5.9739 90.9852 1.1896 0.0000 0.0000 0.0000
# 3 33.2298 1.1896 176.1781 0.0000 0.0000 0.0000
# 4 0.0000 0.0000 0.0000 23.5842 0.0000 0.0000
# 5 0.0000 0.0000 0.0000 0.0000 13.9981 0.0000
# 6 0.0000 0.0000 0.0000 0.0000 0.0000 48.9604
#
#
#
# Elastic Compliance Matrix: (Units=1/GPa)
#
#
# Indices 1 2 3 4 5 6 
#
# 1 0.007620 -0.000482 -0.001434 0.000000 0.000000 0.000000
# 2 -0.000482 0.011022 0.000016 0.000000 0.000000 0.000000
# 3 -0.001434 0.000016 0.005946 0.000000 0.000000 0.000000
# 4 0.000000 0.000000 0.000000 0.042401 0.000000 0.000000
# 5 0.000000 0.000000 0.000000 0.000000 0.071438 0.000000
# 6 0.000000 0.000000 0.000000 0.000000 0.000000 0.020425
#
#
# Mechanical properties :
#
#
# Convention : Reuss Voigt Hill
#
# Bulk Modulus (GPa) = 48.09887 53.97880 51.03884
# Shear Modulus (GPa) = 29.48426 41.61714 35.55070
#
# Velocity S-wave (km/s) = 3.28643 3.90450 3.60872
# Velocity P-wave (km/s) = 5.65865 6.33248 6.00502
#
# Compressibility (1/GPa) = 0.02079051
#
# Stress axis : x y z
#
# Youngs Moduli (GPa) = 131.22829 90.72594 168.16763
#
# Poissons Ratio (x) = 0.04369 0.24116
# Poissons Ratio (y) = 0.06320 -0.00276
# Poissons Ratio (z) = 0.18819 -0.00149
#
# Static dielectric constant tensor:
#      x y z
#    x 2.122350 0.000000 0.000000 
#    y 0.000000 -1.382160 0.000000 
#    z 0.000000 0.000000 2.241900 
# 
# From -- ./inp_files/4959.got.cif
#   From: 2010.05.17/outbox.cif.g08.bks.cpg/sg52_3_cif.got.tgz:4959.got - 2010.06.03 12:15:38.
