data_PCOD9413298
_publ_section_title
;
Structure prediction by ZEFSAII (Michael W. Deem and Ramdas Pophale) SiO2 
 PCOD9413298
Probable space group: P N N A
;
_chemical_formula_sum "Si O2"
_cell_formula_units_Z 36
_cell_length_a 9.075426
_cell_length_b 8.213985
_cell_length_c 18.636192
_cell_angle_alpha 90.000000
_cell_angle_beta 90.000000
_cell_angle_gamma 90.000000
_cell_volume 1389.242630
_symmetry_space_group_name_H-M "P N N A"
_symmetry_group_IT_number 52
_symmetry_cell_setting 'orthorhombic'
loop_
_space_group_symop_operation_xyz
x,y,z
1/2-x,-y,z
x,1/2-y,1/2-z
1/2-x,1/2+y,1/2-z
-x,-y,-z
1/2+x,y,-z
-x,1/2+y,1/2+z
1/2+x,1/2-y,1/2+z
loop_
_atom_site_type_symbol
_atom_site_label
_atom_site_fract_x
_atom_site_fract_y
_atom_site_fract_z
Si Si1 0.750000 0.000000 0.929013
Si Si2 0.260800 0.828689 0.581286
Si Si3 0.481042 0.622656 0.663334
Si Si4 0.429284 0.687065 0.051907
Si Si5 0.086734 0.515945 0.199649
O O1 0.684071 0.163926 0.961858
O O2 0.898777 0.046390 0.887981
O O3 0.331970 0.681940 0.626247
O O4 0.378353 0.898566 0.521780
O O5 0.100376 0.770715 0.555363
O O6 0.250000 0.000000 0.626667
O O7 0.475852 0.503589 0.732527
O O8 0.555929 0.799099 0.678018
O O9 0.406200 0.596370 0.128404
O O10 0.250000 0.500000 0.232543
#
# Coordination Sequence:
#
# PCOD9413298 Si02
#       5
#     4   8   8   8   8
#     4  12  26  46  74 116 158 214 270 344 408 484
#     4  12  26  49  78 119 158 221 277 343 407 492
#     4  11  25  44  77 111 157 203 277 331 410 486
#     4  12  27  46  82 115 165 214 281 338 408 489
#     4  11  22  46  80 110 150 215 270 333 402 490
#
# _framework density 25.913398999999998
#
# number of rings (size 3 to 8) (size 9 to 14) (size 15 to 20)
#    0.000    0.444    5.556    2.667    0.000    5.333 
#    0.000    8.889    0.000    0.000    0.000    0.000 
#    0.000    0.000    0.000    0.000    0.000    0.000 
#
# Total GULP energy -200675.718901 kJ/mol
# GULP energy per Si atom -5574.325525 kJ/mol
# Density = 2.585442 g / cm^3
# Si number density = 25.913399 Si / 1000 Ang^3
#
#
#
# Elastic Constant Matrix: (Units=GPa)
#
#
# Indices 1 2 3 4 5 6 
#
# 1 126.8689 36.1355 86.8959 0.0000 0.0000 0.0000
# 2 36.1355 59.9878 33.6200 0.0000 0.0000 0.0000
# 3 86.8959 33.6200 114.3895 0.0000 0.0000 0.0000
# 4 0.0000 0.0000 0.0000 88.8824 0.0000 0.0000
# 5 0.0000 0.0000 0.0000 0.0000 37.1544 0.0000
# 6 0.0000 0.0000 0.0000 0.0000 0.0000 46.5393
#
#
#
# Elastic Compliance Matrix: (Units=1/GPa)
#
#
# Indices 1 2 3 4 5 6 
#
# 1 0.017060 -0.003608 -0.011899 0.000000 0.000000 0.000000
# 2 -0.003608 0.020720 -0.003349 0.000000 0.000000 0.000000
# 3 -0.011899 -0.003349 0.018766 0.000000 0.000000 0.000000
# 4 0.000000 0.000000 0.000000 0.011251 0.000000 0.000000
# 5 0.000000 0.000000 0.000000 0.000000 0.026915 0.000000
# 6 0.000000 0.000000 0.000000 0.000000 0.000000 0.021487
#
#
# Mechanical properties :
#
#
# Convention : Reuss Voigt Hill
#
# Bulk Modulus (GPa) = 53.09679 68.28323 60.69001
# Shear Modulus (GPa) = 31.21325 44.15486 37.68406
#
# Velocity S-wave (km/s) = 3.47439 4.13236 3.81757
# Velocity P-wave (km/s) = 6.05225 7.01258 6.55004
#
# Compressibility (1/GPa) = 0.01883353
#
# Stress axis : x y z
#
# Youngs Moduli (GPa) = 58.61772 48.26172 53.28902
#
# Poissons Ratio (x) = 0.17411 0.63409
# Poissons Ratio (y) = 0.21147 0.17848
# Poissons Ratio (z) = 0.69750 0.16165
#
# Static dielectric constant tensor:
#      x y z
#    x 2.228040 0.000000 0.000000 
#    y 0.000000 2.311460 0.000000 
#    z 0.000000 0.000000 2.290990 
# 
# From -- ./inp_files/35580.got.cif
#   From: 2010.05.17/outbox.cif.g08.bks.cpg/sg52_18_cif.got.tgz:35580.got - 2010.06.03 12:15:38.
