data_PCOD9413601
_publ_section_title
;
Structure prediction by ZEFSAII (Michael W. Deem and Ramdas Pophale) SiO2 
 PCOD9413601
Probable space group: P N N A
;
_chemical_formula_sum "Si O2"
_cell_formula_units_Z 32
_cell_length_a 16.382261
_cell_length_b 14.008459
_cell_length_c 6.226553
_cell_angle_alpha 90.000000
_cell_angle_beta 90.000000
_cell_angle_gamma 90.000000
_cell_volume 1428.933090
_symmetry_space_group_name_H-M "P N N A"
_symmetry_group_IT_number 52
_symmetry_cell_setting 'orthorhombic'
loop_
_space_group_symop_operation_xyz
x,y,z
1/2-x,-y,z
x,1/2-y,1/2-z
1/2-x,1/2+y,1/2-z
-x,-y,-z
1/2+x,y,-z
-x,1/2+y,1/2+z
1/2+x,1/2-y,1/2+z
loop_
_atom_site_type_symbol
_atom_site_label
_atom_site_fract_x
_atom_site_fract_y
_atom_site_fract_z
Si Si1 0.807250 0.250000 0.750000
Si Si2 0.469279 0.572680 0.188154
Si Si3 0.388772 0.084156 0.016543
Si Si4 0.164208 0.178186 0.554537
Si Si5 0.250000 0.500000 0.753512
O O1 0.867310 0.165697 0.816670
O O2 0.743917 0.219210 0.564632
O O3 0.415296 0.509771 0.353140
O O4 0.544130 0.607127 0.335964
O O5 0.500000 0.500000 0.000000
O O6 0.415145 0.657468 0.089864
O O7 0.305378 0.065600 0.893394
O O8 0.145223 0.250000 0.750000
O O9 0.190796 0.070928 0.620687
#
# Coordination Sequence:
#
# PCOD9413601 Si02
#       5
#     4   8   8   8   4
#     4  12  26  48  72 114 144 190 258 314 354 462
#     4  11  25  50  71 105 149 200 238 309 386 450
#     4  11  25  46  76 107 147 199 248 308 382 444
#     4  12  26  46  76 112 147 197 250 310 376 452
#     4  12  22  50  76 100 150 192 250 304 374 444
#
# _framework density 22.394331000000001
#
# number of rings (size 3 to 8) (size 9 to 14) (size 15 to 20)
#    0.000    0.500    5.000    3.000    0.000    0.000 
#    6.750    0.000    0.000    0.000    0.000    0.000 
#    0.000    0.000    0.000    0.000    0.000    0.000 
#
# Total GULP energy -179090.250228 kJ/mol
# GULP energy per Si atom -5596.570320 kJ/mol
# Density = 2.234336 g / cm^3
# Si number density = 22.394331 Si / 1000 Ang^3
#
#
#
# Elastic Constant Matrix: (Units=GPa)
#
#
# Indices 1 2 3 4 5 6 
#
# 1 117.2189 33.9899 46.4832 0.0000 0.0000 0.0000
# 2 33.9899 85.3216 27.2887 0.0000 0.0000 0.0000
# 3 46.4832 27.2887 91.0953 0.0000 0.0000 0.0000
# 4 0.0000 0.0000 0.0000 66.4119 0.0000 0.0000
# 5 0.0000 0.0000 0.0000 0.0000 48.1764 0.0000
# 6 0.0000 0.0000 0.0000 0.0000 0.0000 26.9094
#
#
#
# Elastic Compliance Matrix: (Units=1/GPa)
#
#
# Indices 1 2 3 4 5 6 
#
# 1 0.011327 -0.002946 -0.004898 0.000000 0.000000 0.000000
# 2 -0.002946 0.013729 -0.002609 0.000000 0.000000 0.000000
# 3 -0.004898 -0.002609 0.014258 0.000000 0.000000 0.000000
# 4 0.000000 0.000000 0.000000 0.015058 0.000000 0.000000
# 5 0.000000 0.000000 0.000000 0.000000 0.020757 0.000000
# 6 0.000000 0.000000 0.000000 0.000000 0.000000 0.037162
#
#
# Mechanical properties :
#
#
# Convention : Reuss Voigt Hill
#
# Bulk Modulus (GPa) = 54.32297 56.57328 55.44812
# Shear Modulus (GPa) = 35.88538 40.69112 38.28825
#
# Velocity S-wave (km/s) = 4.00738 4.26729 4.13937
# Velocity P-wave (km/s) = 6.76182 7.04250 6.90359
#
# Compressibility (1/GPa) = 0.01840842
#
# Stress axis : x y z
#
# Youngs Moduli (GPa) = 88.28105 72.84083 70.13513
#
# Poissons Ratio (x) = 0.21460 0.34349
# Poissons Ratio (y) = 0.26009 0.18300
# Poissons Ratio (z) = 0.43236 0.19006
#
# Static dielectric constant tensor:
#      x y z
#    x 2.160840 0.000000 0.000000 
#    y 0.000000 1.874380 0.000000 
#    z 0.000000 0.000000 1.190930 
# 
# From -- ./inp_files/2049.got.cif
#   From: 2010.05.17/outbox.cif.g08.bks.cpg/sg52_2_cif.got.tgz:2049.got - 2010.06.03 12:15:38.
