data_PCOD9413115
_publ_section_title
;
Structure prediction by ZEFSAII (Michael W. Deem and Ramdas Pophale) SiO2 
 PCOD9413115
Probable space group: P N N A
;
_chemical_formula_sum "Si O2"
_cell_formula_units_Z 40
_cell_length_a 5.195325
_cell_length_b 15.214984
_cell_length_c 25.391984
_cell_angle_alpha 90.000000
_cell_angle_beta 90.000000
_cell_angle_gamma 90.000000
_cell_volume 2007.154744
_symmetry_space_group_name_H-M "P N N A"
_symmetry_group_IT_number 52
_symmetry_cell_setting 'orthorhombic'
loop_
_space_group_symop_operation_xyz
x,y,z
1/2-x,-y,z
x,1/2-y,1/2-z
1/2-x,1/2+y,1/2-z
-x,-y,-z
1/2+x,y,-z
-x,1/2+y,1/2+z
1/2+x,1/2-y,1/2+z
loop_
_atom_site_type_symbol
_atom_site_label
_atom_site_fract_x
_atom_site_fract_y
_atom_site_fract_z
Si Si1 0.068309 0.932097 0.162551
Si Si2 0.499085 0.161208 0.966810
Si Si3 0.750000 0.000000 0.256361
Si Si4 0.145760 0.310785 0.802395
Si Si5 0.250000 0.500000 0.577902
Si Si6 0.340220 0.758439 0.144696
O O1 0.223933 0.845125 0.172276
O O2 0.250000 0.000000 0.133913
O O3 0.977476 0.980938 0.214813
O O4 0.844932 0.924262 0.119511
O O5 0.603405 0.213174 0.915477
O O6 0.456418 0.057040 0.954521
O O7 0.713942 0.181733 0.011031
O O8 0.740621 0.090600 0.288269
O O9 0.104059 0.250000 0.750000
O O10 0.387361 0.267552 0.831536
O O11 0.888348 0.309449 0.838810
#
# Coordination Sequence:
#
# PCOD9413115 Si02
#       6
#     8   8   4   8   4   8
#     4  11  21  38  61  89 138 178 217 252 325 391
#     4  12  25  41  63  91 129 179 230 280 336 394
#     4  11  26  40  66 100 132 186 222 264 329 400
#     4  12  25  43  67  98 135 174 222 270 326 404
#     4  11  22  36  58  96 132 178 224 278 311 402
#     4  12  25  44  62  95 134 176 220 277 326 386
#
# _framework density 19.928706999999999
#
# number of rings (size 3 to 8) (size 9 to 14) (size 15 to 20)
#    0.000    0.400    4.000    6.000    2.800    0.000 
#    0.000    0.000    0.000    0.000    0.000   14.000 
#    0.000    0.000    0.000    0.000    0.000    0.000 
#
# Total GULP energy -222801.614128 kJ/mol
# GULP energy per Si atom -5570.040353 kJ/mol
# Density = 1.988335 g / cm^3
# Si number density = 19.928707 Si / 1000 Ang^3
#
#
#
# Elastic Constant Matrix: (Units=GPa)
#
#
# Indices 1 2 3 4 5 6 
#
# 1 108.3269 1.2349 48.4151 0.0000 0.0000 0.0000
# 2 1.2349 67.2582 41.3299 0.0000 0.0000 0.0000
# 3 48.4151 41.3299 105.0280 0.0000 0.0000 0.0000
# 4 0.0000 0.0000 0.0000 29.7386 0.0000 0.0000
# 5 0.0000 0.0000 0.0000 0.0000 38.9173 0.0000
# 6 0.0000 0.0000 0.0000 0.0000 0.0000 20.8014
#
#
#
# Elastic Compliance Matrix: (Units=1/GPa)
#
#
# Indices 1 2 3 4 5 6 
#
# 1 0.012534 0.004379 -0.007501 0.000000 0.000000 0.000000
# 2 0.004379 0.021140 -0.010338 0.000000 0.000000 0.000000
# 3 -0.007501 -0.010338 0.017047 0.000000 0.000000 0.000000
# 4 0.000000 0.000000 0.000000 0.033626 0.000000 0.000000
# 5 0.000000 0.000000 0.000000 0.000000 0.025696 0.000000
# 6 0.000000 0.000000 0.000000 0.000000 0.000000 0.048074
#
#
# Mechanical properties :
#
#
# Convention : Reuss Voigt Hill
#
# Bulk Modulus (GPa) = 42.01305 51.39698 46.70502
# Shear Modulus (GPa) = 25.91084 30.53367 28.22226
#
# Velocity S-wave (km/s) = 3.60971 3.91851 3.76727
# Velocity P-wave (km/s) = 6.20490 6.80583 6.51230
#
# Compressibility (1/GPa) = 0.02380213
#
# Stress axis : x y z
#
# Youngs Moduli (GPa) = 79.78372 47.30355 58.66119
#
# Poissons Ratio (x) = -0.20715 0.44002
# Poissons Ratio (y) = -0.34939 0.60642
# Poissons Ratio (z) = 0.59846 0.48901
#
# Static dielectric constant tensor:
#      x y z
#    x 1.881750 0.000000 0.000000 
#    y 0.000000 1.742420 0.000000 
#    z 0.000000 0.000000 1.756850 
# 
# From -- ./inp_files/35068.got.cif
#   From: 2010.05.17/outbox.cif.g08.bks.cpg/sg52_18_cif.got.tgz:35068.got - 2010.06.03 12:15:38.
