data_PCOD9413613
_publ_section_title
;
Structure prediction by ZEFSAII (Michael W. Deem and Ramdas Pophale) SiO2 
 PCOD9413613
Probable space group: P N N A
;
_chemical_formula_sum "Si O2"
_cell_formula_units_Z 24
_cell_length_a 9.462931
_cell_length_b 8.035598
_cell_length_c 11.674568
_cell_angle_alpha 90.000000
_cell_angle_beta 90.000000
_cell_angle_gamma 90.000000
_cell_volume 887.737763
_symmetry_space_group_name_H-M "P N N A"
_symmetry_group_IT_number 52
_symmetry_cell_setting 'orthorhombic'
loop_
_space_group_symop_operation_xyz
x,y,z
1/2-x,-y,z
x,1/2-y,1/2-z
1/2-x,1/2+y,1/2-z
-x,-y,-z
1/2+x,y,-z
-x,1/2+y,1/2+z
1/2+x,1/2-y,1/2+z
loop_
_atom_site_type_symbol
_atom_site_label
_atom_site_fract_x
_atom_site_fract_y
_atom_site_fract_z
Si Si1 0.911791 0.482895 0.829845
Si Si2 0.682432 0.679071 0.128128
Si Si3 0.083240 0.863433 0.070346
O O1 0.750000 0.500000 0.868330
O O2 0.974131 0.318560 0.891528
O O3 0.897466 0.446365 0.694563
O O4 0.014325 0.635993 0.856541
O O5 0.750000 0.500000 0.112528
O O6 0.731612 0.750000 0.250000
O O7 0.701813 0.804156 0.022049
O O8 0.000000 0.000000 0.000000
#
# Coordination Sequence:
#
# PCOD9413613 Si02
#       3
#     8   8   8
#     4  11  27  50  77 113 153 203 265 316 378 461
#     4  12  28  49  75 112 159 203 255 320 391 459
#     4  11  25  47  79 111 155 202 256 315 387 453
#
# _framework density 27.03501
#
# number of rings (size 3 to 8) (size 9 to 14) (size 15 to 20)
#    0.000    0.667    3.333    2.000    9.333    4.000 
#    0.000    0.000    0.000    0.000    0.000    0.000 
#    0.000    0.000    0.000    0.000    0.000    0.000 
#
# Total GULP energy -134289.823052 kJ/mol
# GULP energy per Si atom -5595.409294 kJ/mol
# Density = 2.697348 g / cm^3
# Si number density = 27.035010 Si / 1000 Ang^3
#
#
#
# Elastic Constant Matrix: (Units=GPa)
#
#
# Indices 1 2 3 4 5 6 
#
# 1 102.4328 51.3927 17.8741 0.0000 0.0000 0.0000
# 2 51.3927 136.6174 70.1852 0.0000 0.0000 0.0000
# 3 17.8741 70.1852 279.3847 0.0000 0.0000 0.0000
# 4 0.0000 0.0000 0.0000 48.1464 0.0000 0.0000
# 5 0.0000 0.0000 0.0000 0.0000 0.1411 0.0000
# 6 0.0000 0.0000 0.0000 0.0000 0.0000 56.0775
#
#
#
# Elastic Compliance Matrix: (Units=1/GPa)
#
#
# Indices 1 2 3 4 5 6 
#
# 1 0.012077 -0.004761 0.000423 0.000000 0.000000 0.000000
# 2 -0.004761 0.010281 -0.002278 0.000000 0.000000 0.000000
# 3 0.000423 -0.002278 0.004125 0.000000 0.000000 0.000000
# 4 0.000000 0.000000 0.000000 0.020770 0.000000 0.000000
# 5 0.000000 0.000000 0.000000 0.000000 7.085520 0.000000
# 6 0.000000 0.000000 0.000000 0.000000 0.000000 0.017832
#
#
# Mechanical properties :
#
#
# Convention : Reuss Voigt Hill
#
# Bulk Modulus (GPa) = 75.46256 88.59322 82.02789
# Shear Modulus (GPa) = 0.69752 46.13854 23.41803
#
# Velocity S-wave (km/s) = 0.50849 4.13561 2.94634
# Velocity P-wave (km/s) = 5.32149 7.45958 6.47934
#
# Compressibility (1/GPa) = 0.01325160
#
# Stress axis : x y z
#
# Youngs Moduli (GPa) = 82.80104 97.26758 242.45298
#
# Poissons Ratio (x) = 0.46305 -0.10262
# Poissons Ratio (y) = 0.39418 0.55234
# Poissons Ratio (z) = -0.03505 0.22159
#
# Static dielectric constant tensor:
#      x y z
#    x 2.255470 0.000000 0.000000 
#    y 0.000000 1.966930 0.000000 
#    z 0.000000 0.000000 2.125830 
# 
# From -- ./inp_files/17407.got.cif
#   From: 2010.05.17/outbox.cif.g08.bks.cpg/sg52_9_cif.got.tgz:17407.got - 2010.06.03 12:15:38.
