data_PCOD9413822
_publ_section_title
;
Structure prediction by ZEFSAII (Michael W. Deem and Ramdas Pophale) SiO2 
 PCOD9413822
Probable space group: P N N A
;
_chemical_formula_sum "Si O2"
_cell_formula_units_Z 24
_cell_length_a 10.674476
_cell_length_b 5.087835
_cell_length_c 18.825323
_cell_angle_alpha 90.000000
_cell_angle_beta 90.000000
_cell_angle_gamma 90.000000
_cell_volume 1022.402776
_symmetry_space_group_name_H-M "P N N A"
_symmetry_group_IT_number 52
_symmetry_cell_setting 'orthorhombic'
loop_
_space_group_symop_operation_xyz
x,y,z
1/2-x,-y,z
x,1/2-y,1/2-z
1/2-x,1/2+y,1/2-z
-x,-y,-z
1/2+x,y,-z
-x,1/2+y,1/2+z
1/2+x,1/2-y,1/2+z
loop_
_atom_site_type_symbol
_atom_site_label
_atom_site_fract_x
_atom_site_fract_y
_atom_site_fract_z
Si Si1 0.111423 0.120819 0.047132
Si Si2 0.250000 0.500000 0.963595
Si Si3 0.015398 0.991933 0.203138
Si Si4 0.750000 0.000000 0.136852
O O1 0.250000 0.000000 0.037738
O O2 0.137501 0.412038 0.015816
O O3 0.079541 0.065028 0.128607
O O4 0.000000 0.000000 0.000000
O O5 0.278527 0.256756 0.911102
O O6 0.066887 0.750000 0.250000
O O7 0.871608 0.932930 0.182409
O O8 0.019416 0.250000 0.250000
#
# Coordination Sequence:
#
# PCOD9413822 Si02
#       4
#     8   4   8   4
#     4  12  28  50  82 116 157 208 271 338 405 489
#     4  12  24  47  84 115 154 200 280 334 404 463
#     4  12  28  47  75 112 164 211 263 325 412 488
#     4  12  24  47  78 115 158 206 268 338 398 485
#
# _framework density 23.474115000000001
#
# number of rings (size 3 to 8) (size 9 to 14) (size 15 to 20)
#    0.000    0.000    5.000    3.000    4.667    4.000 
#    0.000    0.000    0.000    0.000    0.000    0.000 
#    0.000    0.000    0.000    0.000    0.000    0.000 
#
# Total GULP energy -134258.608031 kJ/mol
# GULP energy per Si atom -5594.108668 kJ/mol
# Density = 2.342069 g / cm^3
# Si number density = 23.474115 Si / 1000 Ang^3
#
#
#
# Elastic Constant Matrix: (Units=GPa)
#
#
# Indices 1 2 3 4 5 6 
#
# 1 134.3450 41.5436 61.0972 0.0000 0.0000 0.0000
# 2 41.5436 163.1949 94.7883 0.0000 0.0000 0.0000
# 3 61.0972 94.7883 217.9038 0.0000 0.0000 0.0000
# 4 0.0000 0.0000 0.0000 22.3252 0.0000 0.0000
# 5 0.0000 0.0000 0.0000 0.0000 10.8405 0.0000
# 6 0.0000 0.0000 0.0000 0.0000 0.0000 27.1877
#
#
#
# Elastic Compliance Matrix: (Units=1/GPa)
#
#
# Indices 1 2 3 4 5 6 
#
# 1 0.008667 -0.001064 -0.001968 0.000000 0.000000 0.000000
# 2 -0.001064 0.008330 -0.003325 0.000000 0.000000 0.000000
# 3 -0.001968 -0.003325 0.006587 0.000000 0.000000 0.000000
# 4 0.000000 0.000000 0.000000 0.044793 0.000000 0.000000
# 5 0.000000 0.000000 0.000000 0.000000 0.092247 0.000000
# 6 0.000000 0.000000 0.000000 0.000000 0.000000 0.036781
#
#
# Mechanical properties :
#
#
# Convention : Reuss Voigt Hill
#
# Bulk Modulus (GPa) = 91.98237 101.14465 96.56351
# Shear Modulus (GPa) = 23.39271 33.27164 28.33217
#
# Velocity S-wave (km/s) = 3.16021 3.76889 3.47789
# Velocity P-wave (km/s) = 7.25159 7.88167 7.57318
#
# Compressibility (1/GPa) = 0.01087165
#
# Stress axis : x y z
#
# Youngs Moduli (GPa) = 115.37762 120.05096 151.80654
#
# Poissons Ratio (x) = 0.12768 0.29868
# Poissons Ratio (y) = 0.12271 0.50480
# Poissons Ratio (z) = 0.22701 0.39920
#
# Static dielectric constant tensor:
#      x y z
#    x 1.965520 0.000000 0.000000 
#    y 0.000000 2.042760 0.000000 
#    z 0.000000 0.000000 1.938400 
# 
# From -- ./inp_files/31748.got.cif
#   From: 2010.05.17/outbox.cif.g08.bks.cpg/sg52_16_cif.got.tgz:31748.got - 2010.06.03 12:15:38.
