data_PCOD9413154
_publ_section_title
;
Structure prediction by ZEFSAII (Michael W. Deem and Ramdas Pophale) SiO2 
 PCOD9413154
Probable space group: P N N A
;
_chemical_formula_sum "Si O2"
_cell_formula_units_Z 40
_cell_length_a 17.916524
_cell_length_b 11.917297
_cell_length_c 9.230270
_cell_angle_alpha 90.000000
_cell_angle_beta 90.000000
_cell_angle_gamma 90.000000
_cell_volume 1970.815293
_symmetry_space_group_name_H-M "P N N A"
_symmetry_group_IT_number 52
_symmetry_cell_setting 'orthorhombic'
loop_
_space_group_symop_operation_xyz
x,y,z
1/2-x,-y,z
x,1/2-y,1/2-z
1/2-x,1/2+y,1/2-z
-x,-y,-z
1/2+x,y,-z
-x,1/2+y,1/2+z
1/2+x,1/2-y,1/2+z
loop_
_atom_site_type_symbol
_atom_site_label
_atom_site_fract_x
_atom_site_fract_y
_atom_site_fract_z
Si Si1 0.396283 0.250000 0.250000
Si Si2 0.136249 0.417321 0.856025
Si Si3 0.458160 0.655071 0.133805
Si Si4 0.261134 0.250000 0.750000
Si Si5 0.503463 0.950358 0.839472
Si Si6 0.368949 0.169019 0.541267
O O1 0.447034 0.160409 0.166553
O O2 0.353529 0.181788 0.372044
O O3 0.206962 0.349073 0.800282
O O4 0.077257 0.420764 0.724695
O O5 0.151916 0.545401 0.901945
O O6 0.095400 0.359826 0.995144
O O7 0.436492 0.750000 0.250000
O O8 0.463340 0.539746 0.224636
O O9 0.542768 0.678561 0.077783
O O10 0.319971 0.264124 0.619453
O O11 0.500000 0.000000 0.000000
#
# Coordination Sequence:
#
# PCOD9413154 Si02
#       6
#     4   8   8   4   8   8
#     4  12  21  42  70  99 140 178 236 290 353 412
#     4  11  24  46  67 103 142 187 229 298 356 422
#     4  11  21  42  71 101 144 181 242 294 354 417
#     4  12  27  44  72  93 142 192 230 284 369 444
#     4  11  23  37  71 111 134 176 237 303 344 418
#     4  11  23  45  67 100 139 187 228 292 357 424
#
# _framework density 20.296168999999999
#
# number of rings (size 3 to 8) (size 9 to 14) (size 15 to 20)
#    0.000    0.800    5.000    3.600    5.600    0.000 
#    1.800    0.000    0.000    0.000    0.000    0.000 
#    0.000    0.000    0.000    0.000    0.000    0.000 
#
# Total GULP energy -223475.290983 kJ/mol
# GULP energy per Si atom -5586.882275 kJ/mol
# Density = 2.024997 g / cm^3
# Si number density = 20.296169 Si / 1000 Ang^3
#
#
#
# Elastic Constant Matrix: (Units=GPa)
#
#
# Indices 1 2 3 4 5 6 
#
# 1 80.2044 36.5825 45.9517 0.0000 0.0000 0.0000
# 2 36.5825 61.4966 37.5986 0.0000 0.0000 0.0000
# 3 45.9517 37.5986 144.9629 0.0000 0.0000 0.0000
# 4 0.0000 0.0000 0.0000 46.9388 0.0000 0.0000
# 5 0.0000 0.0000 0.0000 0.0000 15.6846 0.0000
# 6 0.0000 0.0000 0.0000 0.0000 0.0000 29.0381
#
#
#
# Elastic Compliance Matrix: (Units=1/GPa)
#
#
# Indices 1 2 3 4 5 6 
#
# 1 0.018559 -0.008846 -0.003589 0.000000 0.000000 0.000000
# 2 -0.008846 0.023542 -0.003302 0.000000 0.000000 0.000000
# 3 -0.003589 -0.003302 0.008892 0.000000 0.000000 0.000000
# 4 0.000000 0.000000 0.000000 0.021304 0.000000 0.000000
# 5 0.000000 0.000000 0.000000 0.000000 0.063757 0.000000
# 6 0.000000 0.000000 0.000000 0.000000 0.000000 0.034438
#
#
# Mechanical properties :
#
#
# Convention : Reuss Voigt Hill
#
# Bulk Modulus (GPa) = 51.22931 58.54773 54.88852
# Shear Modulus (GPa) = 23.98397 29.43435 26.70916
#
# Velocity S-wave (km/s) = 3.44132 3.81234 3.63157
# Velocity P-wave (km/s) = 6.40983 6.94895 6.68482
#
# Compressibility (1/GPa) = 0.01952008
#
# Stress axis : x y z
#
# Youngs Moduli (GPa) = 53.88195 42.47693 112.45712
#
# Poissons Ratio (x) = 0.37576 0.40357
# Poissons Ratio (y) = 0.47665 0.37132
# Poissons Ratio (z) = 0.19336 0.14025
#
# Static dielectric constant tensor:
#      x y z
#    x 1.724160 0.000000 0.000000 
#    y 0.000000 1.771410 0.000000 
#    z 0.000000 0.000000 1.744720 
# 
# From -- ./inp_files/13200.got.cif
#   From: 2010.05.17/outbox.cif.g08.bks.cpg/sg52_7_cif.got.tgz:13200.got - 2010.06.03 12:15:38.
