data_PCOD9413921
_publ_section_title
;
Structure prediction by ZEFSAII (Michael W. Deem and Ramdas Pophale) SiO2 
 PCOD9413921
Probable space group: P N N A
;
_chemical_formula_sum "Si O2"
_cell_formula_units_Z 24
_cell_length_a 20.792804
_cell_length_b 8.796354
_cell_length_c 5.067422
_cell_angle_alpha 90.000000
_cell_angle_beta 90.000000
_cell_angle_gamma 90.000000
_cell_volume 926.835865
_symmetry_space_group_name_H-M "P N N A"
_symmetry_group_IT_number 52
_symmetry_cell_setting 'orthorhombic'
loop_
_space_group_symop_operation_xyz
x,y,z
1/2-x,-y,z
x,1/2-y,1/2-z
1/2-x,1/2+y,1/2-z
-x,-y,-z
1/2+x,y,-z
-x,1/2+y,1/2+z
1/2+x,1/2-y,1/2+z
loop_
_atom_site_type_symbol
_atom_site_label
_atom_site_fract_x
_atom_site_fract_y
_atom_site_fract_z
Si Si1 0.625829 0.145326 0.499537
Si Si2 0.944853 0.078100 0.830090
Si Si3 0.809003 0.081627 0.146833
O O1 0.610092 0.250000 0.250000
O O2 0.568711 0.035395 0.588919
O O3 0.679073 0.030436 0.393141
O O4 0.642361 0.250000 0.750000
O O5 0.959727 0.250000 0.750000
O O6 0.876002 0.085620 0.985584
O O7 0.000000 0.000000 0.000000
O O8 0.794588 0.250000 0.250000
O O9 0.750000 0.000000 0.998264
#
# Coordination Sequence:
#
# PCOD9413921 Si02
#       3
#     8   8   8
#     4  12  27  54  85 128 174 232 290 365 443 525
#     4  12  30  56  92 131 184 237 301 370 450 536
#     4  12  28  55  88 131 177 235 299 373 448 538
#
# _framework density 25.894553999999999
#
# number of rings (size 3 to 8) (size 9 to 14) (size 15 to 20)
#    0.000    0.000    6.667    1.000    4.667    4.000 
#    6.000    1.667    0.000    0.000    0.000    0.000 
#    0.000    0.000    0.000    0.000    0.000    0.000 
#
# Total GULP energy -134720.334688 kJ/mol
# GULP energy per Si atom -5613.347279 kJ/mol
# Density = 2.583562 g / cm^3
# Si number density = 25.894554 Si / 1000 Ang^3
#
#
#
# Elastic Constant Matrix: (Units=GPa)
#
#
# Indices 1 2 3 4 5 6 
#
# 1 194.9142 101.1223 58.1816 0.0000 0.0000 0.0000
# 2 101.1223 301.7797 108.4988 0.0000 0.0000 0.0000
# 3 58.1816 108.4988 163.0373 0.0000 0.0000 0.0000
# 4 0.0000 0.0000 0.0000 56.3672 0.0000 0.0000
# 5 0.0000 0.0000 0.0000 0.0000 45.7293 0.0000
# 6 0.0000 0.0000 0.0000 0.0000 0.0000 37.6885
#
#
#
# Elastic Compliance Matrix: (Units=1/GPa)
#
#
# Indices 1 2 3 4 5 6 
#
# 1 0.006362 -0.001729 -0.001119 0.000000 0.000000 0.000000
# 2 -0.001729 0.004826 -0.002594 0.000000 0.000000 0.000000
# 3 -0.001119 -0.002594 0.008260 0.000000 0.000000 0.000000
# 4 0.000000 0.000000 0.000000 0.017741 0.000000 0.000000
# 5 0.000000 0.000000 0.000000 0.000000 0.021868 0.000000
# 6 0.000000 0.000000 0.000000 0.000000 0.000000 0.026533
#
#
# Mechanical properties :
#
#
# Convention : Reuss Voigt Hill
#
# Bulk Modulus (GPa) = 116.80977 132.81519 124.81248
# Shear Modulus (GPa) = 50.33764 54.08558 52.21161
#
# Velocity S-wave (km/s) = 4.41380 4.57517 4.49521
# Velocity P-wave (km/s) = 8.43702 8.90571 8.67453
#
# Compressibility (1/GPa) = 0.00856093
#
# Stress axis : x y z
#
# Youngs Moduli (GPa) = 157.18901 207.21463 121.07068
#
# Poissons Ratio (x) = 0.35833 0.13554
# Poissons Ratio (y) = 0.27182 0.31411
# Poissons Ratio (z) = 0.17597 0.53761
#
# Static dielectric constant tensor:
#      x y z
#    x 2.142360 0.000000 0.000000 
#    y 0.000000 1.968390 0.000000 
#    z 0.000000 0.000000 2.139880 
# 
# From -- ./inp_files/4711.got.cif
#   From: 2010.05.17/outbox.cif.g08.bks.cpg/sg52_3_cif.got.tgz:4711.got - 2010.06.03 12:15:38.
