data_PCOD9413978
_publ_section_title
;
Structure prediction by ZEFSAII (Michael W. Deem and Ramdas Pophale) SiO2 
 PCOD9413978
Probable space group: P N N A
;
_chemical_formula_sum "Si O2"
_cell_formula_units_Z 48
_cell_length_a 18.000000
_cell_length_b 15.000000
_cell_length_c 9.000000
_cell_angle_alpha 90.000000
_cell_angle_beta 90.000000
_cell_angle_gamma 90.000000
_cell_volume 2430.000000
_symmetry_space_group_name_H-M "P N N A"
_symmetry_group_IT_number 52
_symmetry_cell_setting 'orthorhombic'
loop_
_space_group_symop_operation_xyz
x,y,z
1/2-x,-y,z
x,1/2-y,1/2-z
1/2-x,1/2+y,1/2-z
-x,-y,-z
1/2+x,y,-z
-x,1/2+y,1/2+z
1/2+x,1/2-y,1/2+z
loop_
_atom_site_type_symbol
_atom_site_label
_atom_site_fract_x
_atom_site_fract_y
_atom_site_fract_z
Si Si1 0.554441 0.575660 0.946569
Si Si2 0.925887 0.340799 0.649503
Si Si3 0.702681 0.588533 0.121360
Si Si4 0.286868 0.096935 0.959320
Si Si5 0.524737 0.253881 0.926065
Si Si6 0.180049 0.243059 0.577345
O O1 0.550859 0.586304 0.770247
O O2 0.500000 0.500000 0.000000
O O3 0.637379 0.568243 0.007523
O O4 0.525336 0.664851 0.022100
O O5 0.916382 0.250000 0.750000
O O6 0.849912 0.372213 0.573244
O O7 0.988362 0.325724 0.523225
O O8 0.750000 0.500000 0.133507
O O9 0.679051 0.607134 0.292117
O O10 0.756353 0.668014 0.069497
O O11 0.218953 0.165438 0.966324
O O12 0.250000 0.000000 0.981361
O O13 0.521028 0.250000 0.750000
O O14 0.608285 0.272444 0.978808
O O15 0.155962 0.250000 0.750000
#
# Coordination Sequence:
#
# PCOD9413978 Si02
#       6
#     8   8   8   8   8   8
#     4  11  23  39  61  88 120 156 198 248 300 356
#     4  10  22  40  61  85 119 159 199 250 304 361
#     4  10  21  38  62  89 121 159 199 243 297 359
#     4  10  22  39  61  88 119 158 200 246 300 358
#     4  11  23  39  61  87 118 158 200 245 302 362
#     4  10  20  37  60  87 120 156 197 246 297 356
#
# _framework density 19.753086
#
# number of rings (size 3 to 8) (size 9 to 14) (size 15 to 20)
#    0.000    1.667    0.000    5.500    0.000    8.000 
#    0.000    2.500    0.000    0.000    0.000    0.000 
#    0.000    0.000    0.000    0.000    0.000    0.000 
#
# Total GULP energy -267892.995566 kJ/mol
# GULP energy per Si atom -5581.104074 kJ/mol
# Density = 1.970813 g / cm^3
# Si number density = 19.753086 Si / 1000 Ang^3
#
#
#
# Elastic Constant Matrix: (Units=GPa)
#
#
# Indices 1 2 3 4 5 6 
#
# 1 68.1129 14.4412 77.1347 0.0000 0.0000 0.0000
# 2 14.4412 38.7274 21.6424 0.0000 0.0000 0.0000
# 3 77.1347 21.6424 147.7402 0.0000 0.0000 0.0000
# 4 0.0000 0.0000 0.0000 23.1161 0.0000 0.0000
# 5 0.0000 0.0000 0.0000 0.0000 30.3987 0.0000
# 6 0.0000 0.0000 0.0000 0.0000 0.0000 -25.1138
#
#
#
# Elastic Compliance Matrix: (Units=1/GPa)
#
#
# Indices 1 2 3 4 5 6 
#
# 1 0.036280 -0.003206 -0.018472 0.000000 0.000000 0.000000
# 2 -0.003206 0.028407 -0.002488 0.000000 0.000000 0.000000
# 3 -0.018472 -0.002488 0.016777 0.000000 0.000000 0.000000
# 4 0.000000 0.000000 0.000000 0.043260 0.000000 0.000000
# 5 0.000000 0.000000 0.000000 0.000000 0.032896 0.000000
# 6 0.000000 0.000000 0.000000 0.000000 0.000000 -0.039819
#
#
# Mechanical properties :
#
#
# Convention : Reuss Voigt Hill
#
# Bulk Modulus (GPa) = 30.18096 53.44637 41.81367
# Shear Modulus (GPa) = 28.22047 15.10436 21.66241
#
# Velocity S-wave (km/s) = 3.78386 2.76824 3.31518
# Velocity P-wave (km/s) = 5.86536 6.11012 5.98899
#
# Compressibility (1/GPa) = 0.03313347
#
# Stress axis : x y z
#
# Youngs Moduli (GPa) = 27.56357 35.20247 59.60471
#
# Poissons Ratio (x) = 0.11285 1.10102
# Poissons Ratio (y) = 0.08836 0.14828
# Poissons Ratio (z) = 0.50915 0.08757
#
# Static dielectric constant tensor:
#      x y z
#    x 1.616910 0.000000 0.000000 
#    y 0.000000 2.201850 0.000000 
#    z 0.000000 0.000000 1.735510 
# 
# From -- ./inp_files/12119.got.cif
#   From: 2010.05.17/outbox.ucp.g08.bks.cvg/sg52_7_cif.got.tgz:12119.got - 2010.06.11 16:30:12.
