data_PCOD9413334
_publ_section_title
;
Structure prediction by ZEFSAII (Michael W. Deem and Ramdas Pophale) SiO2 
 PCOD9413334
Probable space group: P N N A
;
_chemical_formula_sum "Si O2"
_cell_formula_units_Z 32
_cell_length_a 8.719333
_cell_length_b 15.877004
_cell_length_c 10.212783
_cell_angle_alpha 90.000000
_cell_angle_beta 90.000000
_cell_angle_gamma 90.000000
_cell_volume 1413.825865
_symmetry_space_group_name_H-M "P N N A"
_symmetry_group_IT_number 52
_symmetry_cell_setting 'orthorhombic'
loop_
_space_group_symop_operation_xyz
x,y,z
1/2-x,-y,z
x,1/2-y,1/2-z
1/2-x,1/2+y,1/2-z
-x,-y,-z
1/2+x,y,-z
-x,1/2+y,1/2+z
1/2+x,1/2-y,1/2+z
loop_
_atom_site_type_symbol
_atom_site_label
_atom_site_fract_x
_atom_site_fract_y
_atom_site_fract_z
Si Si1 0.433109 0.991072 0.145490
Si Si2 0.541087 0.197953 0.863657
Si Si3 0.404549 0.948899 0.608829
Si Si4 0.700115 0.262913 0.102310
O O1 0.481419 0.896380 0.186052
O O2 0.250000 0.000000 0.142442
O O3 0.500849 0.052749 0.255588
O O4 0.500000 0.000000 0.000000
O O5 0.624904 0.250000 0.750000
O O6 0.381939 0.246224 0.891792
O O7 0.633983 0.197943 0.997716
O O8 0.352998 0.856295 0.562425
O O9 0.250000 0.000000 0.636068
O O10 0.500000 0.000000 0.500000
O O11 0.643226 0.250000 0.250000
#
# Coordination Sequence:
#
# PCOD9413334 Si02
#       4
#     8   8   8   8
#     4  12  25  44  69 100 136 179 225 280 340 405
#     4  11  24  43  65  95 131 172 219 271 329 396
#     4  12  24  42  66  98 136 179 227 280 338 403
#     4  11  23  41  64  93 128 172 219 273 329 394
#
# _framework density 22.633623
#
# number of rings (size 3 to 8) (size 9 to 14) (size 15 to 20)
#    0.000    0.500    0.000   10.500    0.000    3.000 
#    0.000    0.000    0.000    0.000    0.000    0.000 
#    0.000    0.000    0.000    0.000    0.000    0.000 
#
# Total GULP energy -179112.166366 kJ/mol
# GULP energy per Si atom -5597.255199 kJ/mol
# Density = 2.258211 g / cm^3
# Si number density = 22.633623 Si / 1000 Ang^3
#
#
#
# Elastic Constant Matrix: (Units=GPa)
#
#
# Indices 1 2 3 4 5 6 
#
# 1 124.1596 4.0075 30.9180 0.0000 0.0000 0.0000
# 2 4.0075 81.4773 -25.8448 0.0000 0.0000 0.0000
# 3 30.9180 -25.8448 104.3443 0.0000 0.0000 0.0000
# 4 0.0000 0.0000 0.0000 39.7822 0.0000 0.0000
# 5 0.0000 0.0000 0.0000 0.0000 30.6822 0.0000
# 6 0.0000 0.0000 0.0000 0.0000 0.0000 -3.4569
#
#
#
# Elastic Compliance Matrix: (Units=1/GPa)
#
#
# Indices 1 2 3 4 5 6 
#
# 1 0.008835 -0.001373 -0.002958 0.000000 0.000000 0.000000
# 2 -0.001373 0.013533 0.003759 0.000000 0.000000 0.000000
# 3 -0.002958 0.003759 0.011391 0.000000 0.000000 0.000000
# 4 0.000000 0.000000 0.000000 0.025137 0.000000 0.000000
# 5 0.000000 0.000000 0.000000 0.000000 0.032592 0.000000
# 6 0.000000 0.000000 0.000000 0.000000 0.000000 -0.289278
#
#
# Mechanical properties :
#
#
# Convention : Reuss Voigt Hill
#
# Bulk Modulus (GPa) = 30.66032 36.46027 33.56030
# Shear Modulus (GPa) = -26.91445 33.46154 3.27355
#
# Velocity S-wave (km/s) = -3.45213 3.84917 1.20394
# Velocity P-wave (km/s) = 1.52111 5.99155 4.09786
#
# Compressibility (1/GPa) = 0.03261544
#
# Stress axis : x y z
#
# Youngs Moduli (GPa) = 113.18569 73.89246 87.78765
#
# Poissons Ratio (x) = 0.10144 0.25967
# Poissons Ratio (y) = 0.15538 -0.32997
# Poissons Ratio (z) = 0.33479 -0.27775
#
# Static dielectric constant tensor:
#      x y z
#    x 1.805620 0.000000 0.000000 
#    y 0.000000 1.835550 0.000000 
#    z 0.000000 0.000000 1.846580 
# 
# From -- ./inp_files/16410.got.cif
#   From: 2010.05.17/outbox.cif.g08.bks.cpg/sg52_9_cif.got.tgz:16410.got - 2010.06.03 12:15:38.
