data_PCOD9413722
_publ_section_title
;
Structure prediction by ZEFSAII (Michael W. Deem and Ramdas Pophale) SiO2 
 PCOD9413722
Probable space group: P N N A
;
_chemical_formula_sum "Si O2"
_cell_formula_units_Z 40
_cell_length_a 10.249473
_cell_length_b 19.650128
_cell_length_c 12.570735
_cell_angle_alpha 90.000000
_cell_angle_beta 90.000000
_cell_angle_gamma 90.000000
_cell_volume 2531.789478
_symmetry_space_group_name_H-M "P N N A"
_symmetry_group_IT_number 52
_symmetry_cell_setting 'orthorhombic'
loop_
_space_group_symop_operation_xyz
x,y,z
1/2-x,-y,z
x,1/2-y,1/2-z
1/2-x,1/2+y,1/2-z
-x,-y,-z
1/2+x,y,-z
-x,1/2+y,1/2+z
1/2+x,1/2-y,1/2+z
loop_
_atom_site_type_symbol
_atom_site_label
_atom_site_fract_x
_atom_site_fract_y
_atom_site_fract_z
Si Si1 0.215891 0.193685 0.404138
Si Si2 0.476745 0.806856 0.594529
Si Si3 0.125161 0.452182 0.503749
Si Si4 0.025465 0.150788 0.830164
Si Si5 0.782263 0.850359 0.831786
O O1 0.118793 0.174774 0.498698
O O2 0.369357 0.183715 0.430523
O O3 0.188182 0.154486 0.293687
O O4 0.198774 0.274145 0.377943
O O5 0.447183 0.845979 0.704458
O O6 0.458462 0.726949 0.623306
O O7 0.250000 0.500000 0.512021
O O8 0.110787 0.401451 0.603404
O O9 0.138182 0.404853 0.399250
O O10 0.000000 0.500000 0.500000
O O11 0.871916 0.133757 0.843169
#
# Coordination Sequence:
#
# PCOD9413722 Si02
#       5
#     8   8   8   8   8
#     4   9  17  32  55  76 104 134 165 220 259 304
#     4   9  17  32  55  76 104 133 164 221 262 299
#     4  12  22  34  54  74 106 143 171 210 248 308
#     4   9  18  34  51  75 106 137 171 206 263 306
#     4   9  18  34  51  75 106 138 172 203 266 305
#
# _framework density 15.799102
#
# number of rings (size 3 to 8) (size 9 to 14) (size 15 to 20)
#    0.000    2.400    4.000    2.400    0.000    0.000 
#    3.600    2.000    0.000    2.400    0.000    0.000 
#    0.000    0.000    0.000    0.000    0.000    0.000 
#
# Total GULP energy -222924.564109 kJ/mol
# GULP energy per Si atom -5573.114103 kJ/mol
# Density = 1.576314 g / cm^3
# Si number density = 15.799102 Si / 1000 Ang^3
#
#
#
# Elastic Constant Matrix: (Units=GPa)
#
#
# Indices 1 2 3 4 5 6 
#
# 1 90.5986 47.8412 81.6659 0.0000 0.0000 0.0000
# 2 47.8412 70.7840 52.7952 0.0000 0.0000 0.0000
# 3 81.6659 52.7952 143.5179 0.0000 0.0000 0.0000
# 4 0.0000 0.0000 0.0000 26.4467 0.0000 0.0000
# 5 0.0000 0.0000 0.0000 0.0000 35.1467 0.0000
# 6 0.0000 0.0000 0.0000 0.0000 0.0000 16.0610
#
#
#
# Elastic Compliance Matrix: (Units=1/GPa)
#
#
# Indices 1 2 3 4 5 6 
#
# 1 0.026343 -0.009129 -0.011632 0.000000 0.000000 0.000000
# 2 -0.009129 0.022633 -0.003131 0.000000 0.000000 0.000000
# 3 -0.011632 -0.003131 0.014739 0.000000 0.000000 0.000000
# 4 0.000000 0.000000 0.000000 0.037812 0.000000 0.000000
# 5 0.000000 0.000000 0.000000 0.000000 0.028452 0.000000
# 6 0.000000 0.000000 0.000000 0.000000 0.000000 0.062262
#
#
# Mechanical properties :
#
#
# Convention : Reuss Voigt Hill
#
# Bulk Modulus (GPa) = 62.77211 74.38944 68.58078
# Shear Modulus (GPa) = 20.38021 23.70411 22.04216
#
# Velocity S-wave (km/s) = 3.59550 3.87763 3.73923
# Velocity P-wave (km/s) = 7.55344 8.19969 7.88319
#
# Compressibility (1/GPa) = 0.01593064
#
# Stress axis : x y z
#
# Youngs Moduli (GPa) = 37.96015 44.18314 67.84941
#
# Poissons Ratio (x) = 0.40335 0.78922
# Poissons Ratio (y) = 0.34654 0.21245
# Poissons Ratio (z) = 0.44155 0.13835
#
# Static dielectric constant tensor:
#      x y z
#    x 1.526880 0.000000 0.000000 
#    y 0.000000 1.518370 0.000000 
#    z 0.000000 0.000000 1.521780 
# 
# From -- ./inp_files/8506.got.cif
#   From: 2010.05.17/outbox.cif.g08.bks.cpg/sg52_5_cif.got.tgz:8506.got - 2010.06.03 12:15:38.
