data_PCOD9413745
_publ_section_title
;
Structure prediction by ZEFSAII (Michael W. Deem and Ramdas Pophale) SiO2 
 PCOD9413745
Probable space group: P N N A
;
_chemical_formula_sum "Si O2"
_cell_formula_units_Z 44
_cell_length_a 8.107106
_cell_length_b 17.342207
_cell_length_c 12.604292
_cell_angle_alpha 90.000000
_cell_angle_beta 90.000000
_cell_angle_gamma 90.000000
_cell_volume 1772.101826
_symmetry_space_group_name_H-M "P N N A"
_symmetry_group_IT_number 52
_symmetry_cell_setting 'orthorhombic'
loop_
_space_group_symop_operation_xyz
x,y,z
1/2-x,-y,z
x,1/2-y,1/2-z
1/2-x,1/2+y,1/2-z
-x,-y,-z
1/2+x,y,-z
-x,1/2+y,1/2+z
1/2+x,1/2-y,1/2+z
loop_
_atom_site_type_symbol
_atom_site_label
_atom_site_fract_x
_atom_site_fract_y
_atom_site_fract_z
Si Si1 0.999347 0.440818 0.404394
Si Si2 0.250000 0.000000 0.256809
Si Si3 0.589118 0.659430 0.734838
Si Si4 0.241855 0.912916 0.727124
Si Si5 0.572698 0.720057 0.133136
Si Si6 0.888841 0.697122 0.467190
O O1 0.826042 0.417568 0.349886
O O2 0.000000 0.500000 0.500000
O O3 0.087066 0.485907 0.310604
O O4 0.111854 0.369711 0.442612
O O5 0.291661 0.092382 0.284156
O O6 0.635350 0.750000 0.750000
O O7 0.409993 0.635204 0.781594
O O8 0.532886 0.664137 0.610134
O O9 0.114965 0.867552 0.654863
O O10 0.250000 0.000000 0.690787
O O11 0.522398 0.750000 0.250000
O O12 0.733420 0.769834 0.096757
O O13 0.448010 0.731401 0.038128
#
# Coordination Sequence:
#
# PCOD9413745 Si02
#       6
#     8   4   8   8   8   8
#     4  12  25  37  70 111 148 179 238 317 400 470
#     4  12  26  40  62 110 148 186 238 324 388 446
#     4  12  24  46  74 104 157 202 250 321 388 458
#     4  12  23  47  74 101 150 200 241 310 394 462
#     4  12  25  46  72 106 149 199 248 314 383 462
#     4  12  22  44  72 106 147 194 256 304 389 470
#
# _framework density 24.829274000000002
#
# number of rings (size 3 to 8) (size 9 to 14) (size 15 to 20)
#    0.000    0.000    9.091    1.091    3.818    0.000 
#    6.545    1.818    2.000    0.000    0.000    0.000 
#    0.000    0.000    0.000    0.000    0.000    0.000 
#
# Total GULP energy -245267.796414 kJ/mol
# GULP energy per Si atom -5574.268100 kJ/mol
# Density = 2.477276 g / cm^3
# Si number density = 24.829274 Si / 1000 Ang^3
#
#
#
# Elastic Constant Matrix: (Units=GPa)
#
#
# Indices 1 2 3 4 5 6 
#
# 1 81.3845 13.1715 7.4915 0.0000 0.0000 0.0000
# 2 13.1715 189.8329 7.8178 0.0000 0.0000 0.0000
# 3 7.4915 7.8178 35.4044 0.0000 0.0000 0.0000
# 4 0.0000 0.0000 0.0000 51.7594 0.0000 0.0000
# 5 0.0000 0.0000 0.0000 0.0000 13.0304 0.0000
# 6 0.0000 0.0000 0.0000 0.0000 0.0000 30.9136
#
#
#
# Elastic Compliance Matrix: (Units=1/GPa)
#
#
# Indices 1 2 3 4 5 6 
#
# 1 0.012643 -0.000774 -0.002504 0.000000 0.000000 0.000000
# 2 -0.000774 0.005364 -0.001021 0.000000 0.000000 0.000000
# 3 -0.002504 -0.001021 0.029000 0.000000 0.000000 0.000000
# 4 0.000000 0.000000 0.000000 0.019320 0.000000 0.000000
# 5 0.000000 0.000000 0.000000 0.000000 0.076743 0.000000
# 6 0.000000 0.000000 0.000000 0.000000 0.000000 0.032348
#
#
# Mechanical properties :
#
#
# Convention : Reuss Voigt Hill
#
# Bulk Modulus (GPa) = 26.03552 40.39817 33.21684
# Shear Modulus (GPa) = 25.40395 37.68342 31.54368
#
# Velocity S-wave (km/s) = 3.20213 3.90000 3.56817
# Velocity P-wave (km/s) = 4.91733 6.04861 5.51207
#
# Compressibility (1/GPa) = 0.03840907
#
# Stress axis : x y z
#
# Youngs Moduli (GPa) = 79.09417 186.44438 34.48235
#
# Poissons Ratio (x) = 0.14433 0.08635
# Poissons Ratio (y) = 0.06123 0.03519
# Poissons Ratio (z) = 0.19808 0.19028
#
# Static dielectric constant tensor:
#      x y z
#    x 2.196440 0.000000 0.000000 
#    y 0.000000 2.189200 0.000000 
#    z 0.000000 0.000000 1.975710 
# 
# From -- ./inp_files/24645.got.cif
#   From: 2010.05.17/outbox.cif.g08.bks.cpg/sg52_13_cif.got.tgz:24645.got - 2010.06.03 12:15:38.
