data_PCOD9413773
_publ_section_title
;
Structure prediction by ZEFSAII (Michael W. Deem and Ramdas Pophale) SiO2 
 PCOD9413773
Probable space group: P N N A
;
_chemical_formula_sum "Si O2"
_cell_formula_units_Z 40
_cell_length_a 13.828325
_cell_length_b 11.826470
_cell_length_c 11.820953
_cell_angle_alpha 90.000000
_cell_angle_beta 90.000000
_cell_angle_gamma 90.000000
_cell_volume 1933.201854
_symmetry_space_group_name_H-M "P N N A"
_symmetry_group_IT_number 52
_symmetry_cell_setting 'orthorhombic'
loop_
_space_group_symop_operation_xyz
x,y,z
1/2-x,-y,z
x,1/2-y,1/2-z
1/2-x,1/2+y,1/2-z
-x,-y,-z
1/2+x,y,-z
-x,1/2+y,1/2+z
1/2+x,1/2-y,1/2+z
loop_
_atom_site_type_symbol
_atom_site_label
_atom_site_fract_x
_atom_site_fract_y
_atom_site_fract_z
Si Si1 0.306844 0.610428 0.043762
Si Si2 0.984153 0.168033 0.356066
Si Si3 0.750000 0.500000 0.400692
Si Si4 0.848706 0.199732 0.965053
Si Si5 0.535177 0.750000 0.750000
Si Si6 0.880437 0.934667 0.300532
O O1 0.250000 0.500000 0.088672
O O2 0.413818 0.625234 0.094007
O O3 0.242825 0.720884 0.060996
O O4 0.316742 0.594994 0.908949
O O5 0.001174 0.250000 0.250000
O O6 0.920903 0.234703 0.449363
O O7 0.922826 0.059840 0.316289
O O8 0.812250 0.414859 0.476822
O O9 0.819802 0.569385 0.315370
O O10 0.903254 0.188917 0.846617
O O11 0.466931 0.845754 0.698390
#
# Coordination Sequence:
#
# PCOD9413773 Si02
#       6
#     8   8   4   8   4   8
#     4  12  24  44  74 105 139 189 248 295 361 439
#     4  12  25  47  74 106 145 188 241 304 367 436
#     4  12  26  44  76 108 140 190 250 302 364 434
#     4  12  27  48  68 106 149 190 241 300 366 434
#     4  12  28  46  68 100 154 192 234 300 370 432
#     4  12  23  45  76 102 139 189 243 305 360 433
#
# _framework density 20.691063
#
# number of rings (size 3 to 8) (size 9 to 14) (size 15 to 20)
#    0.000    0.000    7.000    3.000    1.400    2.400 
#    1.800    0.000    0.000    0.000    0.000    0.000 
#    0.000    0.000    0.000    0.000    0.000    0.000 
#
# Total GULP energy -223946.637540 kJ/mol
# GULP energy per Si atom -5598.665938 kJ/mol
# Density = 2.064397 g / cm^3
# Si number density = 20.691063 Si / 1000 Ang^3
#
#
#
# Elastic Constant Matrix: (Units=GPa)
#
#
# Indices 1 2 3 4 5 6 
#
# 1 99.1154 9.8452 17.6343 0.0000 0.0000 0.0000
# 2 9.8452 50.5341 -8.1977 0.0000 0.0000 0.0000
# 3 17.6343 -8.1977 51.6781 0.0000 0.0000 0.0000
# 4 0.0000 0.0000 0.0000 -2.8436 0.0000 0.0000
# 5 0.0000 0.0000 0.0000 0.0000 5.3516 0.0000
# 6 0.0000 0.0000 0.0000 0.0000 0.0000 46.3802
#
#
#
# Elastic Compliance Matrix: (Units=1/GPa)
#
#
# Indices 1 2 3 4 5 6 
#
# 1 0.011129 -0.002858 -0.004251 0.000000 0.000000 0.000000
# 2 -0.002858 0.021045 0.004314 0.000000 0.000000 0.000000
# 3 -0.004251 0.004314 0.021485 0.000000 0.000000 0.000000
# 4 0.000000 0.000000 0.000000 -0.351671 0.000000 0.000000
# 5 0.000000 0.000000 0.000000 0.000000 0.186861 0.000000
# 6 0.000000 0.000000 0.000000 0.000000 0.000000 0.021561
#
#
# Mechanical properties :
#
#
# Convention : Reuss Voigt Hill
#
# Bulk Modulus (GPa) = 20.80329 26.65458 23.72894
# Shear Modulus (GPa) = -73.55645 21.91403 -25.82121
#
# Velocity S-wave (km/s) = -5.96884 3.25792 -3.53645
# Velocity P-wave (km/s) = 6.11773 5.20213 2.27645
#
# Compressibility (1/GPa) = 0.04806931
#
# Stress axis : x y z
#
# Youngs Moduli (GPa) = 89.85160 47.51684 46.54314
#
# Poissons Ratio (x) = 0.13580 0.19786
# Poissons Ratio (y) = 0.25679 -0.20077
# Poissons Ratio (z) = 0.38197 -0.20497
#
# Static dielectric constant tensor:
#      x y z
#    x 1.724370 0.000000 0.000000 
#    y 0.000000 2.204030 0.000000 
#    z 0.000000 0.000000 1.730740 
# 
# From -- ./inp_files/19301.got.cif
#   From: 2010.05.17/outbox.cif.g08.bks.cpg/sg52_10_cif.got.tgz:19301.got - 2010.06.03 12:15:38.
