data_PCOD9413608
_publ_section_title
;
Structure prediction by ZEFSAII (Michael W. Deem and Ramdas Pophale) SiO2 
 PCOD9413608
Probable space group: P N N A
;
_chemical_formula_sum "Si O2"
_cell_formula_units_Z 24
_cell_length_a 11.130600
_cell_length_b 7.235189
_cell_length_c 12.704046
_cell_angle_alpha 90.000000
_cell_angle_beta 90.000000
_cell_angle_gamma 90.000000
_cell_volume 1023.082165
_symmetry_space_group_name_H-M "P N N A"
_symmetry_group_IT_number 52
_symmetry_cell_setting 'orthorhombic'
loop_
_space_group_symop_operation_xyz
x,y,z
1/2-x,-y,z
x,1/2-y,1/2-z
1/2-x,1/2+y,1/2-z
-x,-y,-z
1/2+x,y,-z
-x,1/2+y,1/2+z
1/2+x,1/2-y,1/2+z
loop_
_atom_site_type_symbol
_atom_site_label
_atom_site_fract_x
_atom_site_fract_y
_atom_site_fract_z
Si Si1 0.379719 0.502694 0.602009
Si Si2 0.617081 0.470698 0.741898
Si Si3 0.464961 0.310669 0.052857
O O1 0.250000 0.500000 0.654725
O O2 0.496523 0.502035 0.675482
O O3 0.388887 0.334217 0.518635
O O4 0.406234 0.703576 0.554620
O O5 0.750000 0.500000 0.695500
O O6 0.612347 0.250000 0.750000
O O7 0.601166 0.611156 0.841688
O O8 0.500000 0.500000 0.000000
#
# Coordination Sequence:
#
# PCOD9413608 Si02
#       3
#     8   8   8
#     4  11  27  48  77 115 156 195 256 325 392 457
#     4  12  26  48  78 109 155 208 260 316 389 469
#     4  11  25  47  74 111 150 203 253 314 382 467
#
# _framework density 23.458527
#
# number of rings (size 3 to 8) (size 9 to 14) (size 15 to 20)
#    0.000    0.667    3.333    3.000    4.667    8.000 
#    0.000    0.000    0.000    0.000    0.000    0.000 
#    0.000    0.000    0.000    0.000    0.000    0.000 
#
# Total GULP energy -133632.936921 kJ/mol
# GULP energy per Si atom -5568.039038 kJ/mol
# Density = 2.340513 g / cm^3
# Si number density = 23.458527 Si / 1000 Ang^3
#
#
#
# Elastic Constant Matrix: (Units=GPa)
#
#
# Indices 1 2 3 4 5 6 
#
# 1 212.2021 44.4106 60.3803 0.0000 0.0000 0.0000
# 2 44.4106 205.2956 50.0583 0.0000 0.0000 0.0000
# 3 60.3803 50.0583 81.4049 0.0000 0.0000 0.0000
# 4 0.0000 0.0000 0.0000 41.6317 0.0000 0.0000
# 5 0.0000 0.0000 0.0000 0.0000 -41.4516 0.0000
# 6 0.0000 0.0000 0.0000 0.0000 0.0000 3.2815
#
#
#
# Elastic Compliance Matrix: (Units=1/GPa)
#
#
# Indices 1 2 3 4 5 6 
#
# 1 0.005984 -0.000250 -0.004285 0.000000 0.000000 0.000000
# 2 -0.000250 0.005741 -0.003345 0.000000 0.000000 0.000000
# 3 -0.004285 -0.003345 0.017519 0.000000 0.000000 0.000000
# 4 0.000000 0.000000 0.000000 0.024020 0.000000 0.000000
# 5 0.000000 0.000000 0.000000 0.000000 -0.024125 0.000000
# 6 0.000000 0.000000 0.000000 0.000000 0.000000 0.304742
#
#
# Mechanical properties :
#
#
# Convention : Reuss Voigt Hill
#
# Bulk Modulus (GPa) = 74.15654 89.84456 82.00055
# Shear Modulus (GPa) = 14.11889 23.62920 18.87404
#
# Velocity S-wave (km/s) = 2.45596 3.17720 2.83957
# Velocity P-wave (km/s) = 6.30259 7.20014 6.76626
#
# Compressibility (1/GPa) = 0.01348499
#
# Stress axis : x y z
#
# Youngs Moduli (GPa) = 167.11257 174.19669 57.07946
#
# Poissons Ratio (x) = 0.04349 0.24458
# Poissons Ratio (y) = 0.04172 0.19093
# Poissons Ratio (z) = 0.71607 0.58267
#
# Static dielectric constant tensor:
#      x y z
#    x 1.847930 0.000000 0.000000 
#    y 0.000000 1.695420 0.000000 
#    z 0.000000 0.000000 3.069790 
# 
# From -- ./inp_files/17408.got.cif
#   From: 2010.05.17/outbox.cif.g08.bks.cpg/sg52_9_cif.got.tgz:17408.got - 2010.06.03 12:15:38.
