data_PCOD9413248
_publ_section_title
;
Structure prediction by ZEFSAII (Michael W. Deem and Ramdas Pophale) SiO2 
 PCOD9413248
Probable space group: P N N A
;
_chemical_formula_sum "Si O2"
_cell_formula_units_Z 48
_cell_length_a 8.351457
_cell_length_b 27.089407
_cell_length_c 9.660833
_cell_angle_alpha 90.000000
_cell_angle_beta 90.000000
_cell_angle_gamma 90.000000
_cell_volume 2185.628386
_symmetry_space_group_name_H-M "P N N A"
_symmetry_group_IT_number 52
_symmetry_cell_setting 'orthorhombic'
loop_
_space_group_symop_operation_xyz
x,y,z
1/2-x,-y,z
x,1/2-y,1/2-z
1/2-x,1/2+y,1/2-z
-x,-y,-z
1/2+x,y,-z
-x,1/2+y,1/2+z
1/2+x,1/2-y,1/2+z
loop_
_atom_site_type_symbol
_atom_site_label
_atom_site_fract_x
_atom_site_fract_y
_atom_site_fract_z
Si Si1 0.181358 0.946778 0.365005
Si Si2 0.184937 0.344257 0.192389
Si Si3 0.693219 0.344792 0.310633
Si Si4 0.493824 0.805524 0.553450
Si Si5 0.199638 0.053557 0.679487
Si Si6 0.492721 0.693591 0.453127
O O1 0.267765 0.901230 0.290185
O O2 0.218681 0.941109 0.528775
O O3 0.991682 0.944686 0.342470
O O4 0.250000 0.000000 0.323275
O O5 0.336154 0.317900 0.120813
O O6 0.134917 0.317740 0.332784
O O7 0.041901 0.338550 0.081283
O O8 0.636947 0.318852 0.169620
O O9 0.742789 0.400348 0.274893
O O10 0.545630 0.341774 0.417621
O O11 0.836782 0.316462 0.384368
O O12 0.483003 0.749140 0.507538
O O13 0.250000 0.000000 0.734529
#
# Coordination Sequence:
#
# PCOD9413248 Si02
#       6
#     8   8   8   8   8   8
#     4  11  22  41  75 109 142 181 239 301 358 416
#     4  12  24  45  73 107 142 182 244 294 362 420
#     4  12  26  49  72 102 148 187 245 293 363 430
#     4  12  25  47  70 101 140 193 239 293 352 428
#     4  11  24  43  73 109 142 190 239 301 356 428
#     4  12  29  45  71 103 146 193 233 300 356 434
#
# _framework density 21.961648
#
# number of rings (size 3 to 8) (size 9 to 14) (size 15 to 20)
#    0.000    0.333    3.333    6.000    4.667    2.667 
#    0.000    3.333    0.000    0.000    0.000    0.000 
#    0.000    0.000    0.000    0.000    0.000    0.000 
#
# Total GULP energy -269156.675770 kJ/mol
# GULP energy per Si atom -5607.430745 kJ/mol
# Density = 2.191166 g / cm^3
# Si number density = 21.961648 Si / 1000 Ang^3
#
#
#
# Elastic Constant Matrix: (Units=GPa)
#
#
# Indices 1 2 3 4 5 6 
#
# 1 56.4611 25.4377 23.2535 0.0000 0.0000 0.0000
# 2 25.4377 154.9589 55.6870 0.0000 0.0000 0.0000
# 3 23.2535 55.6870 94.4085 0.0000 0.0000 0.0000
# 4 0.0000 0.0000 0.0000 -7.9512 0.0000 0.0000
# 5 0.0000 0.0000 0.0000 0.0000 35.7439 0.0000
# 6 0.0000 0.0000 0.0000 0.0000 0.0000 37.6646
#
#
#
# Elastic Compliance Matrix: (Units=1/GPa)
#
#
# Indices 1 2 3 4 5 6 
#
# 1 0.020158 -0.001935 -0.003824 0.000000 0.000000 0.000000
# 2 -0.001935 0.008375 -0.004463 0.000000 0.000000 0.000000
# 3 -0.003824 -0.004463 0.014167 0.000000 0.000000 0.000000
# 4 0.000000 0.000000 0.000000 -0.125767 0.000000 0.000000
# 5 0.000000 0.000000 0.000000 0.000000 0.027977 0.000000
# 6 0.000000 0.000000 0.000000 0.000000 0.000000 0.026550
#
#
# Mechanical properties :
#
#
# Convention : Reuss Voigt Hill
#
# Bulk Modulus (GPa) = 44.93260 57.17610 51.05435
# Shear Modulus (GPa) = -7374.50158 26.52147 -3673.99005
#
# Velocity S-wave (km/s) = -58.01025 3.47886 -40.94562
# Velocity P-wave (km/s) = 66.83125 6.49828 47.03290
#
# Compressibility (1/GPa) = 0.02225556
#
# Stress axis : x y z
#
# Youngs Moduli (GPa) = 49.60843 119.40358 70.58752
#
# Poissons Ratio (x) = 0.23104 0.26990
# Poissons Ratio (y) = 0.09599 0.31506
# Poissons Ratio (z) = 0.18969 0.53294
#
# Static dielectric constant tensor:
#      x y z
#    x 1.848120 0.000000 0.000000 
#    y 0.000000 1.790580 0.000000 
#    z 0.000000 0.000000 1.776170 
# 
# From -- ./inp_files/7713.got.cif
#   From: 2010.05.17/outbox.cif.g08.bks.cpg/sg52_4_cif.got.tgz:7713.got - 2010.06.03 12:15:38.
