data_PCOD9413269
_publ_section_title
;
Structure prediction by ZEFSAII (Michael W. Deem and Ramdas Pophale) SiO2 
 PCOD9413269
Probable space group: P N N A
;
_chemical_formula_sum "Si O2"
_cell_formula_units_Z 48
_cell_length_a 8.533873
_cell_length_b 10.133235
_cell_length_c 26.287241
_cell_angle_alpha 90.000000
_cell_angle_beta 90.000000
_cell_angle_gamma 90.000000
_cell_volume 2273.208633
_symmetry_space_group_name_H-M "P N N A"
_symmetry_group_IT_number 52
_symmetry_cell_setting 'orthorhombic'
loop_
_space_group_symop_operation_xyz
x,y,z
1/2-x,-y,z
x,1/2-y,1/2-z
1/2-x,1/2+y,1/2-z
-x,-y,-z
1/2+x,y,-z
-x,1/2+y,1/2+z
1/2+x,1/2-y,1/2+z
loop_
_atom_site_type_symbol
_atom_site_label
_atom_site_fract_x
_atom_site_fract_y
_atom_site_fract_z
Si Si1 0.348075 0.864779 0.955769
Si Si2 0.750000 0.000000 0.214001
Si Si3 0.239916 0.249074 0.853521
Si Si4 0.607121 0.287485 0.846353
Si Si5 0.716157 0.645396 0.566987
Si Si6 0.709603 0.750000 0.750000
Si Si7 0.519971 0.038607 0.297755
O O1 0.297632 0.761864 0.912886
O O2 0.534305 0.867251 0.948023
O O3 0.250000 0.000000 0.944762
O O4 0.308570 0.834588 0.014100
O O5 0.691670 0.119707 0.178961
O O6 0.612742 0.960156 0.253442
O O7 0.427721 0.244084 0.852338
O O8 0.145714 0.371354 0.828708
O O9 0.720955 0.252467 0.893122
O O10 0.682743 0.216703 0.797780
O O11 0.578122 0.440960 0.833160
O O12 0.750000 0.500000 0.589156
O O13 0.598785 0.865797 0.730699
#
# Coordination Sequence:
#
# PCOD9413269 Si02
#       7
#     8   4   8   8   8   4   8
#     4  11  22  43  68 103 133 182 234 301 350 427
#     4  12  22  40  68  94 136 180 246 280 350 416
#     4  12  23  41  70  97 135 185 240 287 360 421
#     4  12  26  43  65 102 139 184 226 298 355 430
#     4  11  24  42  69  99 141 177 236 294 365 419
#     4  12  26  42  66  96 140 180 238 286 356 424
#     4  12  25  45  66  99 140 190 239 295 355 436
#
# _framework density 21.115527
#
# number of rings (size 3 to 8) (size 9 to 14) (size 15 to 20)
#    0.000    0.333    4.167    6.500    0.000    1.333 
#    0.000    0.833    0.000    2.000    0.000    0.000 
#    0.000    0.000    0.000    0.000    0.000    0.000 
#
# Total GULP energy -268144.736079 kJ/mol
# GULP energy per Si atom -5586.348668 kJ/mol
# Density = 2.106747 g / cm^3
# Si number density = 21.115527 Si / 1000 Ang^3
#
#
#
# Elastic Constant Matrix: (Units=GPa)
#
#
# Indices 1 2 3 4 5 6 
#
# 1 149.8516 21.7541 46.6574 0.0000 0.0000 0.0000
# 2 21.7541 83.5476 51.5394 0.0000 0.0000 0.0000
# 3 46.6574 51.5394 116.1468 0.0000 0.0000 0.0000
# 4 0.0000 0.0000 0.0000 -10.8973 0.0000 0.0000
# 5 0.0000 0.0000 0.0000 0.0000 -11.3242 0.0000
# 6 0.0000 0.0000 0.0000 0.0000 0.0000 24.2412
#
#
#
# Elastic Compliance Matrix: (Units=1/GPa)
#
#
# Indices 1 2 3 4 5 6 
#
# 1 0.007628 -0.000132 -0.003006 0.000000 0.000000 0.000000
# 2 -0.000132 0.016483 -0.007261 0.000000 0.000000 0.000000
# 3 -0.003006 -0.007261 0.013039 0.000000 0.000000 0.000000
# 4 0.000000 0.000000 0.000000 -0.091766 0.000000 0.000000
# 5 0.000000 0.000000 0.000000 0.000000 -0.088306 0.000000
# 6 0.000000 0.000000 0.000000 0.000000 0.000000 0.041252
#
#
# Mechanical properties :
#
#
# Convention : Reuss Voigt Hill
#
# Bulk Modulus (GPa) = 61.15224 65.49419 63.32321
# Shear Modulus (GPa) = -66.29489 15.71028 -25.29231
#
# Velocity S-wave (km/s) = -5.60932 2.73062 -3.46469
# Velocity P-wave (km/s) = 3.59568 6.40517 3.74815
#
# Compressibility (1/GPa) = 0.01635263
#
# Stress axis : x y z
#
# Youngs Moduli (GPa) = 131.09063 60.66894 76.69102
#
# Poissons Ratio (x) = 0.00801 0.23052
# Poissons Ratio (y) = 0.01731 0.55686
# Poissons Ratio (z) = 0.39403 0.44053
#
# Static dielectric constant tensor:
#      x y z
#    x 1.825280 0.000000 0.000000 
#    y 0.000000 1.804190 0.000000 
#    z 0.000000 0.000000 1.738800 
# 
# From -- ./inp_files/39512.got.cif
#   From: 2010.05.17/outbox.cif.g08.bks.cpg/sg52_20_cif.got.tgz:39512.got - 2010.06.03 12:15:38.
