data_PCOD9413612
_publ_section_title
;
Structure prediction by ZEFSAII (Michael W. Deem and Ramdas Pophale) SiO2 
 PCOD9413612
Probable space group: P N N A
;
_chemical_formula_sum "Si O2"
_cell_formula_units_Z 32
_cell_length_a 15.249629
_cell_length_b 11.507500
_cell_length_c 7.721563
_cell_angle_alpha 90.000000
_cell_angle_beta 90.000000
_cell_angle_gamma 90.000000
_cell_volume 1355.019299
_symmetry_space_group_name_H-M "P N N A"
_symmetry_group_IT_number 52
_symmetry_cell_setting 'orthorhombic'
loop_
_space_group_symop_operation_xyz
x,y,z
1/2-x,-y,z
x,1/2-y,1/2-z
1/2-x,1/2+y,1/2-z
-x,-y,-z
1/2+x,y,-z
-x,1/2+y,1/2+z
1/2+x,1/2-y,1/2+z
loop_
_atom_site_type_symbol
_atom_site_label
_atom_site_fract_x
_atom_site_fract_y
_atom_site_fract_z
Si Si1 0.633421 0.762226 0.052241
Si Si2 0.153364 0.019451 0.054976
Si Si3 0.548233 0.255884 0.445118
Si Si4 0.788704 0.612406 0.934884
O O1 0.666600 0.750000 0.250000
O O2 0.534975 0.711839 0.053970
O O3 0.706819 0.700533 0.934734
O O4 0.616509 0.890826 0.974964
O O5 0.175679 0.066859 0.248804
O O6 0.250000 0.000000 0.971734
O O7 0.088951 0.117222 0.982608
O O8 0.517227 0.250000 0.250000
O O9 0.630355 0.171582 0.472921
O O10 0.750000 0.500000 0.028919
#
# Coordination Sequence:
#
# PCOD9413612 Si02
#       4
#     8   8   8   8
#     4  12  28  50  78 110 155 205 259 316 385 456
#     4  11  25  47  79 103 151 199 254 314 384 449
#     4  12  28  45  76 113 155 200 261 319 381 454
#     4  11  27  47  78 105 152 198 254 314 386 452
#
# _framework density 23.615898000000001
#
# number of rings (size 3 to 8) (size 9 to 14) (size 15 to 20)
#    0.000    0.500    2.500    3.750   14.000    1.000 
#    0.000    0.000    0.000    0.000    0.000    0.000 
#    0.000    0.000    0.000    0.000    0.000    0.000 
#
# Total GULP energy -178782.055852 kJ/mol
# GULP energy per Si atom -5586.939245 kJ/mol
# Density = 2.356215 g / cm^3
# Si number density = 23.615898 Si / 1000 Ang^3
#
#
#
# Elastic Constant Matrix: (Units=GPa)
#
#
# Indices 1 2 3 4 5 6 
#
# 1 115.1124 -4.9208 6.3216 0.0000 0.0000 0.0000
# 2 -4.9208 73.2815 33.9054 0.0000 0.0000 0.0000
# 3 6.3216 33.9054 105.7991 0.0000 0.0000 0.0000
# 4 0.0000 0.0000 0.0000 21.2491 0.0000 0.0000
# 5 0.0000 0.0000 0.0000 0.0000 211.5042 0.0000
# 6 0.0000 0.0000 0.0000 0.0000 0.0000 -1.7446
#
#
#
# Elastic Compliance Matrix: (Units=1/GPa)
#
#
# Indices 1 2 3 4 5 6 
#
# 1 0.008775 0.000977 -0.000837 0.000000 0.000000 0.000000
# 2 0.000977 0.016130 -0.005228 0.000000 0.000000 0.000000
# 3 -0.000837 -0.005228 0.011177 0.000000 0.000000 0.000000
# 4 0.000000 0.000000 0.000000 0.047061 0.000000 0.000000
# 5 0.000000 0.000000 0.000000 0.000000 0.004728 0.000000
# 6 0.000000 0.000000 0.000000 0.000000 0.000000 -0.573204
#
#
# Mechanical properties :
#
#
# Convention : Reuss Voigt Hill
#
# Bulk Modulus (GPa) = 38.60141 40.53394 39.56768
# Shear Modulus (GPa) = -10.71763 63.46087 26.37162
#
# Velocity S-wave (km/s) = -2.13264 5.18945 3.34532
# Velocity P-wave (km/s) = 3.21198 7.28755 5.63139
#
# Compressibility (1/GPa) = 0.02590579
#
# Stress axis : x y z
#
# Youngs Moduli (GPa) = 113.96153 61.99527 89.46785
#
# Poissons Ratio (x) = -0.06055 0.07491
# Poissons Ratio (y) = -0.11130 0.46770
# Poissons Ratio (z) = 0.09542 0.32409
#
# Static dielectric constant tensor:
#      x y z
#    x 1.928020 0.000000 0.000000 
#    y 0.000000 2.006790 0.000000 
#    z 0.000000 0.000000 1.941050 
# 
# From -- ./inp_files/9581.got.cif
#   From: 2010.05.17/outbox.cif.g08.bks.cpg/sg52_5_cif.got.tgz:9581.got - 2010.06.03 12:15:38.
