data_PCOD9413690
_publ_section_title
;
Structure prediction by ZEFSAII (Michael W. Deem and Ramdas Pophale) SiO2 
 PCOD9413690
Probable space group: P N N A
;
_chemical_formula_sum "Si O2"
_cell_formula_units_Z 52
_cell_length_a 14.737868
_cell_length_b 7.176819
_cell_length_c 18.504107
_cell_angle_alpha 90.000000
_cell_angle_beta 90.000000
_cell_angle_gamma 90.000000
_cell_volume 1957.198107
_symmetry_space_group_name_H-M "P N N A"
_symmetry_group_IT_number 52
_symmetry_cell_setting 'orthorhombic'
loop_
_space_group_symop_operation_xyz
x,y,z
1/2-x,-y,z
x,1/2-y,1/2-z
1/2-x,1/2+y,1/2-z
-x,-y,-z
1/2+x,y,-z
-x,1/2+y,1/2+z
1/2+x,1/2-y,1/2+z
loop_
_atom_site_type_symbol
_atom_site_label
_atom_site_fract_x
_atom_site_fract_y
_atom_site_fract_z
Si Si1 0.636342 0.871056 0.361710
Si Si2 0.564017 0.212800 0.669167
Si Si3 0.218277 0.250000 0.750000
Si Si4 0.916103 0.759326 0.985372
Si Si5 0.412836 0.685942 0.638324
Si Si6 0.869392 0.335844 0.984373
Si Si7 0.113295 0.722327 0.169005
O O1 0.544490 0.769952 0.336966
O O2 0.714751 0.834402 0.307266
O O3 0.672319 0.794146 0.438314
O O4 0.607498 0.089347 0.366146
O O5 0.596541 0.250000 0.750000
O O6 0.596319 0.323082 0.597371
O O7 0.588266 0.995239 0.660996
O O8 0.151640 0.380406 0.702309
O O9 0.865608 0.560819 0.983039
O O10 0.893791 0.879302 0.056398
O O11 0.023069 0.713482 0.002598
O O12 0.516908 0.669371 0.664328
O O13 0.837297 0.248270 0.908613
O O14 0.152757 0.750000 0.250000
#
# Coordination Sequence:
#
# PCOD9413690 Si02
#       7
#     8   8   4   8   8   8   8
#     4   9  17  27  38  57  84 115 147 171 205 259
#     4   9  15  26  44  64  84 108 141 182 219 252
#     4  12  18  24  40  62  86 112 132 178 220 248
#     4   7  12  24  41  56  75 107 144 177 207 245
#     4   9  17  27  38  57  84 115 147 171 205 259
#     4   7  12  24  41  56  75 107 144 177 207 245
#     4   9  15  26  44  64  84 108 141 182 219 252
#
# _framework density 26.568593
#
# number of rings (size 3 to 8) (size 9 to 14) (size 15 to 20)
#    0.000    3.385    1.538    4.154    0.000    0.000 
#    0.000    0.000    0.000   12.000    0.000    1.077 
#    0.000    0.000    0.000    0.000    0.000    0.000 
#
# Total GULP energy -290252.955101 kJ/mol
# GULP energy per Si atom -5581.787598 kJ/mol
# Density = 2.650812 g / cm^3
# Si number density = 26.568593 Si / 1000 Ang^3
#
#
#
# Elastic Constant Matrix: (Units=GPa)
#
#
# Indices 1 2 3 4 5 6 
#
# 1 33.4525 9.0645 23.5650 0.0000 0.0000 0.0000
# 2 9.0645 71.8997 16.1654 0.0000 0.0000 0.0000
# 3 23.5650 16.1654 311.7295 0.0000 0.0000 0.0000
# 4 0.0000 0.0000 0.0000 22.2272 0.0000 0.0000
# 5 0.0000 0.0000 0.0000 0.0000 2.8299 0.0000
# 6 0.0000 0.0000 0.0000 0.0000 0.0000 12.4959
#
#
#
# Elastic Compliance Matrix: (Units=1/GPa)
#
#
# Indices 1 2 3 4 5 6 
#
# 1 0.032462 -0.003583 -0.002268 0.000000 0.000000 0.000000
# 2 -0.003583 0.014468 -0.000479 0.000000 0.000000 0.000000
# 3 -0.002268 -0.000479 0.003404 0.000000 0.000000 0.000000
# 4 0.000000 0.000000 0.000000 0.044990 0.000000 0.000000
# 5 0.000000 0.000000 0.000000 0.000000 0.353375 0.000000
# 6 0.000000 0.000000 0.000000 0.000000 0.000000 0.080026
#
#
# Mechanical properties :
#
#
# Convention : Reuss Voigt Hill
#
# Bulk Modulus (GPa) = 26.54396 57.18573 41.86484
# Shear Modulus (GPa) = 9.02620 32.06305 20.54462
#
# Velocity S-wave (km/s) = 1.84518 3.47768 2.78379
# Velocity P-wave (km/s) = 3.81471 6.13972 5.11117
#
# Compressibility (1/GPa) = 0.03767336
#
# Stress axis : x y z
#
# Youngs Moduli (GPa) = 30.80559 69.11941 293.75224
#
# Poissons Ratio (x) = 0.24762 0.66627
# Poissons Ratio (y) = 0.11036 0.14084
# Poissons Ratio (z) = 0.06987 0.03314
#
# Static dielectric constant tensor:
#      x y z
#    x 2.036680 0.000000 0.000000 
#    y 0.000000 2.239800 0.000000 
#    z 0.000000 0.000000 2.211550 
# 
# From -- ./inp_files/28885.got.cif
#   From: 2010.05.17/outbox.cif.g08.bks.cpg/sg52_15_cif.got.tgz:28885.got - 2010.06.03 12:15:38.
