data_PCOD9413029
_publ_section_title
;
Structure prediction by ZEFSAII (Michael W. Deem and Ramdas Pophale) SiO2 
 PCOD9413029
Probable space group: P N N A
;
_chemical_formula_sum "Si O2"
_cell_formula_units_Z 60
_cell_length_a 22.811087
_cell_length_b 12.178471
_cell_length_c 11.887540
_cell_angle_alpha 90.000000
_cell_angle_beta 90.000000
_cell_angle_gamma 90.000000
_cell_volume 3302.408082
_symmetry_space_group_name_H-M "P N N A"
_symmetry_group_IT_number 52
_symmetry_cell_setting 'orthorhombic'
loop_
_space_group_symop_operation_xyz
x,y,z
1/2-x,-y,z
x,1/2-y,1/2-z
1/2-x,1/2+y,1/2-z
-x,-y,-z
1/2+x,y,-z
-x,1/2+y,1/2+z
1/2+x,1/2-y,1/2+z
loop_
_atom_site_type_symbol
_atom_site_label
_atom_site_fract_x
_atom_site_fract_y
_atom_site_fract_z
Si Si1 0.548155 0.250000 0.750000
Si Si2 0.871716 0.723918 0.537305
Si Si3 0.181893 0.018847 0.162216
Si Si4 0.990076 0.468411 0.189939
Si Si5 0.312656 0.555606 0.069884
Si Si6 0.079159 0.595055 0.030897
Si Si7 0.408117 0.181459 0.133992
Si Si8 0.041454 0.348363 0.660753
O O1 0.585802 0.235112 0.637296
O O2 0.513964 0.364776 0.741036
O O3 0.840502 0.617681 0.586611
O O4 0.825287 0.822796 0.522106
O O5 0.912228 0.687616 0.433145
O O6 0.140197 0.913817 0.139691
O O7 0.250000 0.000000 0.137320
O O8 0.179539 0.053149 0.294007
O O9 0.948024 0.541431 0.267954
O O10 0.040628 0.549326 0.137657
O O11 0.959359 0.420992 0.079472
O O12 0.250000 0.500000 0.046043
O O13 0.364156 0.479989 0.023142
O O14 0.098211 0.720775 0.044527
O O15 0.403731 0.250000 0.250000
O O16 0.474472 0.137818 0.116923
O O17 0.039640 0.250000 0.750000
#
# Coordination Sequence:
#
# PCOD9413029 Si02
#       8
#     4   8   8   8   8   8   8   8
#     4  12  22  36  58  96 126 160 200 252 314 370
#     4  12  23  39  61  90 130 159 202 259 308 380
#     4  11  24  38  59  88 124 162 202 256 315 373
#     4  11  22  36  60  90 126 161 199 252 313 371
#     4  11  22  37  61  89 120 162 208 252 302 366
#     4  11  20  38  60  88 123 158 205 253 295 374
#     4  11  20  35  57  88 122 161 198 245 307 373
#     4  11  22  38  62  91 121 164 205 244 314 373
#
# _framework density 18.168559999999999
#
# number of rings (size 3 to 8) (size 9 to 14) (size 15 to 20)
#    0.000    0.800    6.667    2.400    1.867    3.200 
#    0.000    0.000    0.000    3.200    0.000    0.000 
#    0.000    0.000    0.000    0.000    0.000    0.000 
#
# Total GULP energy -334918.670936 kJ/mol
# GULP energy per Si atom -5581.977849 kJ/mol
# Density = 1.812721 g / cm^3
# Si number density = 18.168560 Si / 1000 Ang^3
#
#
#
# Elastic Constant Matrix: (Units=GPa)
#
#
# Indices 1 2 3 4 5 6 
#
# 1 95.6512 49.1424 16.0722 0.0000 0.0000 0.0000
# 2 49.1424 119.8911 24.7222 0.0000 0.0000 0.0000
# 3 16.0722 24.7222 22.5265 0.0000 0.0000 0.0000
# 4 0.0000 0.0000 0.0000 19.3350 0.0000 0.0000
# 5 0.0000 0.0000 0.0000 0.0000 2.9307 0.0000
# 6 0.0000 0.0000 0.0000 0.0000 0.0000 31.2210
#
#
#
# Elastic Compliance Matrix: (Units=1/GPa)
#
#
# Indices 1 2 3 4 5 6 
#
# 1 0.013608 -0.004622 -0.004637 0.000000 0.000000 0.000000
# 2 -0.004622 0.012350 -0.010256 0.000000 0.000000 0.000000
# 3 -0.004637 -0.010256 0.058957 0.000000 0.000000 0.000000
# 4 0.000000 0.000000 0.000000 0.051720 0.000000 0.000000
# 5 0.000000 0.000000 0.000000 0.000000 0.341220 0.000000
# 6 0.000000 0.000000 0.000000 0.000000 0.000000 0.032030
#
#
# Mechanical properties :
#
#
# Convention : Reuss Voigt Hill
#
# Bulk Modulus (GPa) = 21.79374 46.43804 34.11589
# Shear Modulus (GPa) = 8.86194 20.57281 14.71738
#
# Velocity S-wave (km/s) = 2.21093 3.36866 2.84922
# Velocity P-wave (km/s) = 4.30569 6.38323 5.44447
#
# Compressibility (1/GPa) = 0.04588474
#
# Stress axis : x y z
#
# Youngs Moduli (GPa) = 73.48448 80.96988 16.96160
#
# Poissons Ratio (x) = 0.37422 0.07865
# Poissons Ratio (y) = 0.33963 0.17397
# Poissons Ratio (z) = 0.34075 0.83047
#
# Static dielectric constant tensor:
#      x y z
#    x 1.641110 0.000000 0.000000 
#    y 0.000000 1.683320 0.000000 
#    z 0.000000 0.000000 1.642760 
# 
# From -- ./inp_files/21746.got.cif
#   From: 2010.05.17/outbox.cif.g08.bks.cpg/sg52_11_cif.got.tgz:21746.got - 2010.06.03 12:15:38.
