data_PCOD9413205
_publ_section_title
;
Structure prediction by ZEFSAII (Michael W. Deem and Ramdas Pophale) SiO2 
 PCOD9413205
Probable space group: P N N A
;
_chemical_formula_sum "Si O2"
_cell_formula_units_Z 52
_cell_length_a 17.759365
_cell_length_b 18.445847
_cell_length_c 6.694234
_cell_angle_alpha 90.000000
_cell_angle_beta 90.000000
_cell_angle_gamma 90.000000
_cell_volume 2192.940884
_symmetry_space_group_name_H-M "P N N A"
_symmetry_group_IT_number 52
_symmetry_cell_setting 'orthorhombic'
loop_
_space_group_symop_operation_xyz
x,y,z
1/2-x,-y,z
x,1/2-y,1/2-z
1/2-x,1/2+y,1/2-z
-x,-y,-z
1/2+x,y,-z
-x,1/2+y,1/2+z
1/2+x,1/2-y,1/2+z
loop_
_atom_site_type_symbol
_atom_site_label
_atom_site_fract_x
_atom_site_fract_y
_atom_site_fract_z
Si Si1 0.345966 0.250000 0.750000
Si Si2 0.887432 0.632046 0.719324
Si Si3 0.466356 0.346558 0.983169
Si Si4 0.667739 0.522918 0.629523
Si Si5 0.283485 0.178732 0.133499
Si Si6 0.419099 0.030838 0.773092
Si Si7 0.988275 0.617049 0.384641
O O1 0.405003 0.294961 0.883495
O O2 0.296185 0.300227 0.600873
O O3 0.949505 0.656000 0.882474
O O4 0.884269 0.542854 0.710538
O O5 0.801982 0.660596 0.708922
O O6 0.923654 0.655737 0.508831
O O7 0.430990 0.425582 0.927457
O O8 0.476036 0.334765 0.216323
O O9 0.750000 0.500000 0.693557
O O10 0.667524 0.607510 0.682623
O O11 0.659653 0.520115 0.386976
O O12 0.306960 0.250000 0.250000
O O13 0.455024 0.952067 0.767281
O O14 0.460081 0.080800 0.943528
#
# Coordination Sequence:
#
# PCOD9413205 Si02
#       7
#     4   8   8   8   8   8   8
#     4  12  28  42  62  98 140 182 226 264 348 426
#     4   9  22  43  68  95 124 171 234 278 331 400
#     4  11  22  39  64  99 131 169 221 278 330 411
#     4   9  18  39  65  88 125 173 216 269 328 391
#     4  11  25  45  65  90 136 181 217 279 343 412
#     4   9  17  35  60  96 128 158 210 269 329 390
#     4   9  19  35  66  95 125 161 209 279 334 372
#
# _framework density 23.71245
#
# number of rings (size 3 to 8) (size 9 to 14) (size 15 to 20)
#    0.000    2.154    1.538    1.385    3.231    1.231 
#    0.000    0.000    0.000    6.462    0.000    0.000 
#    0.000    0.000    0.000    0.000    0.000    0.000 
#
# Total GULP energy -289972.745059 kJ/mol
# GULP energy per Si atom -5576.398943 kJ/mol
# Density = 2.365848 g / cm^3
# Si number density = 23.712450 Si / 1000 Ang^3
#
#
#
# Elastic Constant Matrix: (Units=GPa)
#
#
# Indices 1 2 3 4 5 6 
#
# 1 109.2423 24.4970 19.0702 0.0000 0.0000 0.0000
# 2 24.4970 114.7571 32.6943 0.0000 0.0000 0.0000
# 3 19.0702 32.6943 78.8215 0.0000 0.0000 0.0000
# 4 0.0000 0.0000 0.0000 24.1062 0.0000 0.0000
# 5 0.0000 0.0000 0.0000 0.0000 21.2957 0.0000
# 6 0.0000 0.0000 0.0000 0.0000 0.0000 21.1345
#
#
#
# Elastic Compliance Matrix: (Units=1/GPa)
#
#
# Indices 1 2 3 4 5 6 
#
# 1 0.009813 -0.001608 -0.001707 0.000000 0.000000 0.000000
# 2 -0.001608 0.010145 -0.003819 0.000000 0.000000 0.000000
# 3 -0.001707 -0.003819 0.014684 0.000000 0.000000 0.000000
# 4 0.000000 0.000000 0.000000 0.041483 0.000000 0.000000
# 5 0.000000 0.000000 0.000000 0.000000 0.046958 0.000000
# 6 0.000000 0.000000 0.000000 0.000000 0.000000 0.047316
#
#
# Mechanical properties :
#
#
# Convention : Reuss Voigt Hill
#
# Bulk Modulus (GPa) = 49.08398 50.59376 49.83887
# Shear Modulus (GPa) = 26.11527 28.41125 27.26326
#
# Velocity S-wave (km/s) = 3.32223 3.46520 3.39447
# Velocity P-wave (km/s) = 5.95491 6.11497 6.03547
#
# Compressibility (1/GPa) = 0.02037325
#
# Stress axis : x y z
#
# Youngs Moduli (GPa) = 101.90967 98.56632 68.10139
#
# Poissons Ratio (x) = 0.15853 0.11624
# Poissons Ratio (y) = 0.16391 0.26009
# Poissons Ratio (z) = 0.17395 0.37643
#
# Static dielectric constant tensor:
#      x y z
#    x 1.967600 0.000000 0.000000 
#    y 0.000000 1.976750 0.000000 
#    z 0.000000 0.000000 1.929430 
# 
# From -- ./inp_files/4449.got.cif
#   From: 2010.05.17/outbox.cif.g08.bks.cpg/sg52_3_cif.got.tgz:4449.got - 2010.06.03 12:15:38.
