data_PCOD9413504
_publ_section_title
;
Structure prediction by ZEFSAII (Michael W. Deem and Ramdas Pophale) SiO2 
 PCOD9413504
Probable space group: P N N A
;
_chemical_formula_sum "Si O2"
_cell_formula_units_Z 32
_cell_length_a 9.078483
_cell_length_b 13.807143
_cell_length_c 12.417585
_cell_angle_alpha 90.000000
_cell_angle_beta 90.000000
_cell_angle_gamma 90.000000
_cell_volume 1556.518364
_symmetry_space_group_name_H-M "P N N A"
_symmetry_group_IT_number 52
_symmetry_cell_setting 'orthorhombic'
loop_
_space_group_symop_operation_xyz
x,y,z
1/2-x,-y,z
x,1/2-y,1/2-z
1/2-x,1/2+y,1/2-z
-x,-y,-z
1/2+x,y,-z
-x,1/2+y,1/2+z
1/2+x,1/2-y,1/2+z
loop_
_atom_site_type_symbol
_atom_site_label
_atom_site_fract_x
_atom_site_fract_y
_atom_site_fract_z
Si Si1 0.912634 0.467575 0.396014
Si Si2 0.929681 0.263169 0.916404
Si Si3 0.277379 0.264380 0.622233
Si Si4 0.371355 0.085452 0.226761
O O1 0.750000 0.500000 0.416070
O O2 0.891476 0.354866 0.380699
O O3 0.000000 0.500000 0.500000
O O4 0.980352 0.525853 0.297229
O O5 0.850500 0.164693 0.870021
O O6 0.895113 0.347802 0.830724
O O7 0.104682 0.236140 0.915566
O O8 0.861388 0.297007 0.030162
O O9 0.264172 0.250000 0.750000
O O10 0.250000 0.000000 0.230718
#
# Coordination Sequence:
#
# PCOD9413504 Si02
#       4
#     8   8   8   8
#     4  12  21  38  66 104 135 182 243 298 348 416
#     4  11  25  47  69 103 149 184 236 300 360 426
#     4  12  24  45  72 104 144 190 235 297 360 426
#     4  11  24  45  71 102 147 184 240 297 357 427
#
# _framework density 20.558703999999999
#
# number of rings (size 3 to 8) (size 9 to 14) (size 15 to 20)
#    0.000    0.500    7.500    0.750    3.500    2.000 
#    0.000    6.250    0.000    0.000    0.000    0.000 
#    0.000    0.000    0.000    0.000    0.000    0.000 
#
# Total GULP energy -178138.546232 kJ/mol
# GULP energy per Si atom -5566.829570 kJ/mol
# Density = 2.051191 g / cm^3
# Si number density = 20.558704 Si / 1000 Ang^3
#
#
#
# Elastic Constant Matrix: (Units=GPa)
#
#
# Indices 1 2 3 4 5 6 
#
# 1 140.3421 52.9350 65.2278 0.0000 0.0000 0.0000
# 2 52.9350 82.1589 24.1124 0.0000 0.0000 0.0000
# 3 65.2278 24.1124 135.6401 0.0000 0.0000 0.0000
# 4 0.0000 0.0000 0.0000 36.0439 0.0000 0.0000
# 5 0.0000 0.0000 0.0000 0.0000 33.5468 0.0000
# 6 0.0000 0.0000 0.0000 0.0000 0.0000 2.7838
#
#
#
# Elastic Compliance Matrix: (Units=1/GPa)
#
#
# Indices 1 2 3 4 5 6 
#
# 1 0.011490 -0.006100 -0.004441 0.000000 0.000000 0.000000
# 2 -0.006100 0.016080 0.000075 0.000000 0.000000 0.000000
# 3 -0.004441 0.000075 0.009495 0.000000 0.000000 0.000000
# 4 0.000000 0.000000 0.000000 0.027744 0.000000 0.000000
# 5 0.000000 0.000000 0.000000 0.000000 0.029809 0.000000
# 6 0.000000 0.000000 0.000000 0.000000 0.000000 0.359225
#
#
# Mechanical properties :
#
#
# Convention : Reuss Voigt Hill
#
# Bulk Modulus (GPa) = 61.98631 71.41016 66.69823
# Shear Modulus (GPa) = 10.41335 28.86595 19.63965
#
# Velocity S-wave (km/s) = 2.25304 3.75116 3.09414
# Velocity P-wave (km/s) = 6.08149 7.31928 6.72891
#
# Compressibility (1/GPa) = 0.01613259
#
# Stress axis : x y z
#
# Youngs Moduli (GPa) = 87.02912 62.19030 105.31980
#
# Poissons Ratio (x) = 0.37935 0.46775
# Poissons Ratio (y) = 0.53086 -0.00789
# Poissons Ratio (z) = 0.38652 -0.00466
#
# Static dielectric constant tensor:
#      x y z
#    x 1.803770 0.000000 0.000000 
#    y 0.000000 1.773980 0.000000 
#    z 0.000000 0.000000 1.757460 
# 
# From -- ./inp_files/16502.got.cif
#   From: 2010.05.17/outbox.cif.g08.bks.cpg/sg52_9_cif.got.tgz:16502.got - 2010.06.03 12:15:38.
