data_PCOD9413625
_publ_section_title
;
Structure prediction by ZEFSAII (Michael W. Deem and Ramdas Pophale) SiO2 
 PCOD9413625
Probable space group: P N N A
;
_chemical_formula_sum "Si O2"
_cell_formula_units_Z 40
_cell_length_a 17.652281
_cell_length_b 16.071357
_cell_length_c 5.513002
_cell_angle_alpha 90.000000
_cell_angle_beta 90.000000
_cell_angle_gamma 90.000000
_cell_volume 1564.017221
_symmetry_space_group_name_H-M "P N N A"
_symmetry_group_IT_number 52
_symmetry_cell_setting 'orthorhombic'
loop_
_space_group_symop_operation_xyz
x,y,z
1/2-x,-y,z
x,1/2-y,1/2-z
1/2-x,1/2+y,1/2-z
-x,-y,-z
1/2+x,y,-z
-x,1/2+y,1/2+z
1/2+x,1/2-y,1/2+z
loop_
_atom_site_type_symbol
_atom_site_label
_atom_site_fract_x
_atom_site_fract_y
_atom_site_fract_z
Si Si1 0.250000 0.500000 0.628802
Si Si2 0.233701 0.750000 0.250000
Si Si3 0.684044 0.385086 0.024219
Si Si4 0.639455 0.750000 0.250000
Si Si5 0.022415 0.864910 0.942440
Si Si6 0.898107 0.499243 0.709654
Si Si7 0.425008 0.750000 0.750000
O O1 0.173708 0.498375 0.471165
O O2 0.252216 0.582243 0.795559
O O3 0.283966 0.666814 0.204787
O O4 0.186754 0.745652 0.499765
O O5 0.638369 0.468329 0.956115
O O6 0.628171 0.323052 0.157223
O O7 0.584901 0.669161 0.259151
O O8 0.976465 0.786370 0.039116
O O9 0.063774 0.910421 0.168970
O O10 0.962715 0.932067 0.844478
#
# Coordination Sequence:
#
# PCOD9413625 Si02
#       7
#     4   4   8   4   8   8   4
#     4  12  26  50  76 116 160 214 272 352 420 516
#     4  12  29  47  80 121 159 214 278 346 415 495
#     4  12  27  47  83 112 162 213 275 345 427 499
#     4  12  27  49  78 114 166 214 276 346 406 506
#     4  11  25  49  75 112 160 209 276 338 418 496
#     4  11  26  48  76 111 155 209 271 341 419 501
#     4  12  24  52  80 119 157 224 280 350 415 517
#
# _framework density 25.575167
#
# number of rings (size 3 to 8) (size 9 to 14) (size 15 to 20)
#    0.000    0.400    2.000    5.400    8.400    0.800 
#    3.600    0.000    0.000    0.000    0.000    0.000 
#    0.000    0.000    0.000    0.000    0.000    0.000 
#
# Total GULP energy -224283.987183 kJ/mol
# GULP energy per Si atom -5607.099680 kJ/mol
# Density = 2.551696 g / cm^3
# Si number density = 25.575167 Si / 1000 Ang^3
#
#
#
# Elastic Constant Matrix: (Units=GPa)
#
#
# Indices 1 2 3 4 5 6 
#
# 1 112.7683 30.6166 36.8014 0.0000 0.0000 0.0000
# 2 30.6166 74.2476 12.6700 0.0000 0.0000 0.0000
# 3 36.8014 12.6700 90.2791 0.0000 0.0000 0.0000
# 4 0.0000 0.0000 0.0000 41.6905 0.0000 0.0000
# 5 0.0000 0.0000 0.0000 0.0000 31.1497 0.0000
# 6 0.0000 0.0000 0.0000 0.0000 0.0000 96.0453
#
#
#
# Elastic Compliance Matrix: (Units=1/GPa)
#
#
# Indices 1 2 3 4 5 6 
#
# 1 0.011258 -0.003954 -0.004034 0.000000 0.000000 0.000000
# 2 -0.003954 0.015188 -0.000520 0.000000 0.000000 0.000000
# 3 -0.004034 -0.000520 0.012794 0.000000 0.000000 0.000000
# 4 0.000000 0.000000 0.000000 0.023986 0.000000 0.000000
# 5 0.000000 0.000000 0.000000 0.000000 0.032103 0.000000
# 6 0.000000 0.000000 0.000000 0.000000 0.000000 0.010412
#
#
# Mechanical properties :
#
#
# Convention : Reuss Voigt Hill
#
# Bulk Modulus (GPa) = 44.99646 48.60790 46.80218
# Shear Modulus (GPa) = 38.41307 46.92424 42.66865
#
# Velocity S-wave (km/s) = 3.87973 4.28805 4.08899
# Velocity P-wave (km/s) = 6.14017 6.60028 6.37438
#
# Compressibility (1/GPa) = 0.02222397
#
# Stress axis : x y z
#
# Youngs Moduli (GPa) = 88.82771 65.84347 78.16036
#
# Poissons Ratio (x) = 0.26033 0.31532
# Poissons Ratio (y) = 0.35121 0.04062
# Poissons Ratio (z) = 0.35835 0.03422
#
# Static dielectric constant tensor:
#      x y z
#    x 2.024240 0.000000 0.000000 
#    y 0.000000 1.981220 0.000000 
#    z 0.000000 0.000000 2.058410 
# 
# From -- ./inp_files/3280.got.cif
#   From: 2010.05.17/outbox.cif.g08.bks.cpg/sg52_2_cif.got.tgz:3280.got - 2010.06.03 12:15:38.
