data_PCOD9413821
_publ_section_title
;
Structure prediction by ZEFSAII (Michael W. Deem and Ramdas Pophale) SiO2 
 PCOD9413821
Probable space group: P N N A
;
_chemical_formula_sum "Si O2"
_cell_formula_units_Z 40
_cell_length_a 8.198104
_cell_length_b 13.399276
_cell_length_c 15.688737
_cell_angle_alpha 90.000000
_cell_angle_beta 90.000000
_cell_angle_gamma 90.000000
_cell_volume 1723.386708
_symmetry_space_group_name_H-M "P N N A"
_symmetry_group_IT_number 52
_symmetry_cell_setting 'orthorhombic'
loop_
_space_group_symop_operation_xyz
x,y,z
1/2-x,-y,z
x,1/2-y,1/2-z
1/2-x,1/2+y,1/2-z
-x,-y,-z
1/2+x,y,-z
-x,1/2+y,1/2+z
1/2+x,1/2-y,1/2+z
loop_
_atom_site_type_symbol
_atom_site_label
_atom_site_fract_x
_atom_site_fract_y
_atom_site_fract_z
Si Si1 0.573297 0.056023 0.266349
Si Si2 0.073016 0.392650 0.469245
Si Si3 0.705497 0.749335 0.069128
Si Si4 0.750000 0.500000 0.666522
Si Si5 0.104330 0.571489 0.059381
Si Si6 0.789580 0.750000 0.250000
O O1 0.417042 0.005497 0.220744
O O2 0.509084 0.091105 0.359308
O O3 0.605834 0.158218 0.216834
O O4 0.750000 0.000000 0.267231
O O5 0.138864 0.312109 0.536790
O O6 0.216544 0.410550 0.400408
O O7 0.000000 0.500000 0.500000
O O8 0.927624 0.335758 0.425023
O O9 0.701528 0.708454 0.165892
O O10 0.665843 0.664207 0.998390
O O11 0.250000 0.500000 0.089702
O O12 0.000000 0.500000 0.000000
#
# Coordination Sequence:
#
# PCOD9413821 Si02
#       6
#     8   8   8   4   8   4
#     4  12  27  50  77 113 157 203 255 320 385 460
#     4  12  24  47  76 110 150 195 255 316 393 471
#     4  12  26  46  76 110 146 204 251 319 389 460
#     4  12  26  48  78 114 156 200 254 320 390 456
#     4  12  25  48  74 109 155 202 260 317 385 462
#     4  12  26  46  74 110 152 192 260 320 378 454
#
# _framework density 23.210114000000001
#
# number of rings (size 3 to 8) (size 9 to 14) (size 15 to 20)
#    0.000    0.000    3.000    7.800    2.800    0.000 
#    3.600    1.000    0.000    0.000    0.000    0.000 
#    0.000    0.000    0.000    0.000    0.000    0.000 
#
# Total GULP energy -223091.822032 kJ/mol
# GULP energy per Si atom -5577.295551 kJ/mol
# Density = 2.315729 g / cm^3
# Si number density = 23.210114 Si / 1000 Ang^3
#
#
#
# Elastic Constant Matrix: (Units=GPa)
#
#
# Indices 1 2 3 4 5 6 
#
# 1 120.0816 39.4813 31.2238 0.0000 0.0000 0.0000
# 2 39.4813 131.7629 38.9655 0.0000 0.0000 0.0000
# 3 31.2238 38.9655 146.0832 0.0000 0.0000 0.0000
# 4 0.0000 0.0000 0.0000 31.0923 0.0000 0.0000
# 5 0.0000 0.0000 0.0000 0.0000 28.0763 0.0000
# 6 0.0000 0.0000 0.0000 0.0000 0.0000 52.8605
#
#
#
# Elastic Compliance Matrix: (Units=1/GPa)
#
#
# Indices 1 2 3 4 5 6 
#
# 1 0.009487 -0.002435 -0.001378 0.000000 0.000000 0.000000
# 2 -0.002435 0.008864 -0.001844 0.000000 0.000000 0.000000
# 3 -0.001378 -0.001844 0.007632 0.000000 0.000000 0.000000
# 4 0.000000 0.000000 0.000000 0.032162 0.000000 0.000000
# 5 0.000000 0.000000 0.000000 0.000000 0.035617 0.000000
# 6 0.000000 0.000000 0.000000 0.000000 0.000000 0.018918
#
#
# Mechanical properties :
#
#
# Convention : Reuss Voigt Hill
#
# Bulk Modulus (GPa) = 68.17330 68.58543 68.37936
# Shear Modulus (GPa) = 38.79464 41.62296 40.20880
#
# Velocity S-wave (km/s) = 4.09278 4.23934 4.16671
# Velocity P-wave (km/s) = 7.19517 7.31961 7.25766
#
# Compressibility (1/GPa) = 0.01466850
#
# Stress axis : x y z
#
# Youngs Moduli (GPa) = 105.41160 112.81185 131.03005
#
# Poissons Ratio (x) = 0.27470 0.18058
# Poissons Ratio (y) = 0.25668 0.24162
# Poissons Ratio (z) = 0.14528 0.20802
#
# Static dielectric constant tensor:
#      x y z
#    x 2.104520 0.000000 0.000000 
#    y 0.000000 1.988530 0.000000 
#    z 0.000000 0.000000 1.828930 
# 
# From -- ./inp_files/24470.got.cif
#   From: 2010.05.17/outbox.cif.g08.bks.cpg/sg52_13_cif.got.tgz:24470.got - 2010.06.03 12:15:38.
