data_PCOD9413649
_publ_section_title
;
Structure prediction by ZEFSAII (Michael W. Deem and Ramdas Pophale) SiO2 
 PCOD9413649
Probable space group: P N N A
;
_chemical_formula_sum "Si O2"
_cell_formula_units_Z 32
_cell_length_a 16.355693
_cell_length_b 11.891545
_cell_length_c 7.864877
_cell_angle_alpha 90.000000
_cell_angle_beta 90.000000
_cell_angle_gamma 90.000000
_cell_volume 1529.675000
_symmetry_space_group_name_H-M "P N N A"
_symmetry_group_IT_number 52
_symmetry_cell_setting 'orthorhombic'
loop_
_space_group_symop_operation_xyz
x,y,z
1/2-x,-y,z
x,1/2-y,1/2-z
1/2-x,1/2+y,1/2-z
-x,-y,-z
1/2+x,y,-z
-x,1/2+y,1/2+z
1/2+x,1/2-y,1/2+z
loop_
_atom_site_type_symbol
_atom_site_label
_atom_site_fract_x
_atom_site_fract_y
_atom_site_fract_z
Si Si1 0.680379 0.807620 0.918824
Si Si2 0.544410 0.825937 0.417409
Si Si3 0.122686 0.066525 0.551449
Si Si4 0.285464 0.750000 0.750000
Si Si5 0.750000 0.500000 0.766712
O O1 0.716744 0.750000 0.750000
O O2 0.688988 0.935013 0.860838
O O3 0.592102 0.753651 0.950103
O O4 0.730323 0.781158 0.088122
O O5 0.535122 0.750000 0.250000
O O6 0.458672 0.871750 0.485421
O O7 0.599740 0.938842 0.394044
O O8 0.161063 0.142078 0.699215
O O9 0.188186 0.059898 0.398655
#
# Coordination Sequence:
#
# PCOD9413649 Si02
#       5
#     8   8   8   4   4
#     4  12  25  46  74 105 151 189 247 309 372 436
#     4  11  26  47  72 105 153 197 241 312 373 452
#     4  11  26  47  72 108 153 189 255 305 370 443
#     4  12  26  44  76 110 140 200 248 306 364 448
#     4  12  26  46  78 110 148 198 250 320 364 442
#
# _framework density 20.919476
#
# number of rings (size 3 to 8) (size 9 to 14) (size 15 to 20)
#    0.000    0.500    6.250    0.000    8.750    0.000 
#    0.000    2.500    0.000    0.000    0.000    0.000 
#    0.000    0.000    0.000    0.000    0.000    0.000 
#
# Total GULP energy -178671.995303 kJ/mol
# GULP energy per Si atom -5583.499853 kJ/mol
# Density = 2.087186 g / cm^3
# Si number density = 20.919476 Si / 1000 Ang^3
#
#
#
# Elastic Constant Matrix: (Units=GPa)
#
#
# Indices 1 2 3 4 5 6 
#
# 1 123.9683 57.4692 50.5526 0.0000 0.0000 0.0000
# 2 57.4692 93.1363 50.8407 0.0000 0.0000 0.0000
# 3 50.5526 50.8407 144.6340 0.0000 0.0000 0.0000
# 4 0.0000 0.0000 0.0000 40.5959 0.0000 0.0000
# 5 0.0000 0.0000 0.0000 0.0000 6.8106 0.0000
# 6 0.0000 0.0000 0.0000 0.0000 0.0000 34.6399
#
#
#
# Elastic Compliance Matrix: (Units=1/GPa)
#
#
# Indices 1 2 3 4 5 6 
#
# 1 0.011715 -0.006179 -0.001923 0.000000 0.000000 0.000000
# 2 -0.006179 0.016546 -0.003656 0.000000 0.000000 0.000000
# 3 -0.001923 -0.003656 0.008871 0.000000 0.000000 0.000000
# 4 0.000000 0.000000 0.000000 0.024633 0.000000 0.000000
# 5 0.000000 0.000000 0.000000 0.000000 0.146829 0.000000
# 6 0.000000 0.000000 0.000000 0.000000 0.000000 0.028868
#
#
# Mechanical properties :
#
#
# Convention : Reuss Voigt Hill
#
# Bulk Modulus (GPa) = 73.44391 75.49596 74.46994
# Shear Modulus (GPa) = 18.83113 29.93436 24.38275
#
# Velocity S-wave (km/s) = 3.00354 3.78687 3.41772
# Velocity P-wave (km/s) = 6.87113 7.43557 7.15892
#
# Compressibility (1/GPa) = 0.01361583
#
# Stress axis : x y z
#
# Youngs Moduli (GPa) = 85.35938 60.43877 112.72423
#
# Poissons Ratio (x) = 0.37347 0.21672
# Poissons Ratio (y) = 0.52746 0.41215
# Poissons Ratio (z) = 0.16411 0.22098
#
# Static dielectric constant tensor:
#      x y z
#    x 1.742930 0.000000 0.000000 
#    y 0.000000 1.902840 0.000000 
#    z 0.000000 0.000000 1.720430 
# 
# From -- ./inp_files/9629.got.cif
#   From: 2010.05.17/outbox.cif.g08.bks.cpg/sg52_5_cif.got.tgz:9629.got - 2010.06.03 12:15:38.
