data_PCOD9413022
_publ_section_title
;
Structure prediction by ZEFSAII (Michael W. Deem and Ramdas Pophale) SiO2 
 PCOD9413022
Probable space group: P N N A
;
_chemical_formula_sum "Si O2"
_cell_formula_units_Z 40
_cell_length_a 19.809880
_cell_length_b 19.313746
_cell_length_c 4.967642
_cell_angle_alpha 90.000000
_cell_angle_beta 90.000000
_cell_angle_gamma 90.000000
_cell_volume 1900.634685
_symmetry_space_group_name_H-M "P N N A"
_symmetry_group_IT_number 52
_symmetry_cell_setting 'orthorhombic'
loop_
_space_group_symop_operation_xyz
x,y,z
1/2-x,-y,z
x,1/2-y,1/2-z
1/2-x,1/2+y,1/2-z
-x,-y,-z
1/2+x,y,-z
-x,1/2+y,1/2+z
1/2+x,1/2-y,1/2+z
loop_
_atom_site_type_symbol
_atom_site_label
_atom_site_fract_x
_atom_site_fract_y
_atom_site_fract_z
Si Si1 0.672451 0.701725 0.004159
Si Si2 0.474779 0.900627 0.091996
Si Si3 0.105342 0.515102 0.638912
Si Si4 0.188673 0.949324 0.350648
Si Si5 0.513477 0.818389 0.578115
O O1 0.683649 0.750000 0.750000
O O2 0.705834 0.626673 0.967095
O O3 0.591211 0.687567 0.018167
O O4 0.693067 0.750000 0.250000
O O5 0.532170 0.952627 0.202506
O O6 0.471072 0.840306 0.314812
O O7 0.503754 0.875670 0.806602
O O8 0.408179 0.943038 0.015301
O O9 0.145847 0.561015 0.422136
O O10 0.145596 0.513426 0.915206
O O11 0.250000 0.000000 0.285612
O O12 0.495875 0.750000 0.750000
#
# Coordination Sequence:
#
# PCOD9413022 Si02
#       5
#     8   8   8   8   8
#     4  11  21  36  59  87 119 151 196 257 309 354
#     4  11  20  36  59  86 126 152 191 244 300 380
#     4  11  22  38  59  88 119 159 195 243 312 356
#     4  12  24  41  62  89 123 160 212 258 300 366
#     4  11  20  33  57  90 124 156 192 246 307 366
#
# _framework density 21.045601999999999
#
# number of rings (size 3 to 8) (size 9 to 14) (size 15 to 20)
#    0.000    0.800    4.000    6.000    0.000    3.200 
#    0.000    0.000    0.000   12.000    0.000    0.000 
#    0.000    0.000    0.000    0.000    0.000    0.000 
#
# Total GULP energy -223410.609430 kJ/mol
# GULP energy per Si atom -5585.265236 kJ/mol
# Density = 2.099770 g / cm^3
# Si number density = 21.045602 Si / 1000 Ang^3
#
#
#
# Elastic Constant Matrix: (Units=GPa)
#
#
# Indices 1 2 3 4 5 6 
#
# 1 14.3018 10.0854 -3.3259 0.0000 0.0000 0.0000
# 2 10.0854 93.0761 -2.2742 0.0000 0.0000 0.0000
# 3 -3.3259 -2.2742 88.0596 0.0000 0.0000 0.0000
# 4 0.0000 0.0000 0.0000 42.9743 0.0000 0.0000
# 5 0.0000 0.0000 0.0000 0.0000 15.1969 0.0000
# 6 0.0000 0.0000 0.0000 0.0000 0.0000 28.4909
#
#
#
# Elastic Compliance Matrix: (Units=1/GPa)
#
#
# Indices 1 2 3 4 5 6 
#
# 1 0.076329 -0.008205 0.002671 0.000000 0.000000 0.000000
# 2 -0.008205 0.011633 -0.000009 0.000000 0.000000 0.000000
# 3 0.002671 -0.000009 0.011457 0.000000 0.000000 0.000000
# 4 0.000000 0.000000 0.000000 0.023270 0.000000 0.000000
# 5 0.000000 0.000000 0.000000 0.000000 0.065803 0.000000
# 6 0.000000 0.000000 0.000000 0.000000 0.000000 0.035099
#
#
# Mechanical properties :
#
#
# Convention : Reuss Voigt Hill
#
# Bulk Modulus (GPa) = 11.32119 22.71203 17.01661
# Shear Modulus (GPa) = 18.93071 30.06256 24.49664
#
# Velocity S-wave (km/s) = 3.00244 3.78358 3.41541
# Velocity P-wave (km/s) = 4.17259 5.46832 4.86380
#
# Compressibility (1/GPa) = 0.08832997
#
# Stress axis : x y z
#
# Youngs Moduli (GPa) = 13.10123 85.96399 87.28608
#
# Poissons Ratio (x) = 0.70537 -0.23313
# Poissons Ratio (y) = 0.10750 0.00083
# Poissons Ratio (z) = -0.03499 0.00082
#
# Static dielectric constant tensor:
#      x y z
#    x 1.738610 0.000000 0.000000 
#    y 0.000000 1.834170 0.000000 
#    z 0.000000 0.000000 1.735750 
# 
# From -- ./inp_files/3196.got.cif
#   From: 2010.05.17/outbox.cif.g08.bks.cpg/sg52_2_cif.got.tgz:3196.got - 2010.06.03 12:15:38.
