data_PCOD9413091
_publ_section_title
;
Structure prediction by ZEFSAII (Michael W. Deem and Ramdas Pophale) SiO2 
 PCOD9413091
Probable space group: P N N A
;
_chemical_formula_sum "Si O2"
_cell_formula_units_Z 44
_cell_length_a 18.059932
_cell_length_b 20.555775
_cell_length_c 5.466135
_cell_angle_alpha 90.000000
_cell_angle_beta 90.000000
_cell_angle_gamma 90.000000
_cell_volume 2029.225539
_symmetry_space_group_name_H-M "P N N A"
_symmetry_group_IT_number 52
_symmetry_cell_setting 'orthorhombic'
loop_
_space_group_symop_operation_xyz
x,y,z
1/2-x,-y,z
x,1/2-y,1/2-z
1/2-x,1/2+y,1/2-z
-x,-y,-z
1/2+x,y,-z
-x,1/2+y,1/2+z
1/2+x,1/2-y,1/2+z
loop_
_atom_site_type_symbol
_atom_site_label
_atom_site_fract_x
_atom_site_fract_y
_atom_site_fract_z
Si Si1 0.750000 0.000000 0.921639
Si Si2 0.508387 0.930325 0.855675
Si Si3 0.635604 0.532870 0.962212
Si Si4 0.119321 0.685723 0.356886
Si Si5 0.300549 0.345569 0.841686
Si Si6 0.654760 0.406356 0.239957
O O1 0.807467 0.040966 0.759552
O O2 0.699544 0.050611 0.065259
O O3 0.552277 0.949458 0.606840
O O4 0.562673 0.871479 0.932600
O O5 0.428180 0.897633 0.833209
O O6 0.500000 0.000000 0.000000
O O7 0.667173 0.579810 0.171165
O O8 0.642989 0.457310 0.020646
O O9 0.078315 0.750000 0.250000
O O10 0.169122 0.691400 0.601838
O O11 0.168806 0.672898 0.111260
O O12 0.211459 0.349857 0.832559
#
# Coordination Sequence:
#
# PCOD9413091 Si02
#       6
#     4   8   8   8   8   8
#     4  12  18  34  56  88 148 178 210 262 340 402
#     4  11  23  38  64  99 138 174 221 275 356 420
#     4  11  21  35  58  94 140 174 208 268 344 411
#     4  11  26  48  68  91 129 180 231 284 344 416
#     4  11  22  41  70  91 123 178 228 270 328 406
#     4  12  21  34  59  98 134 171 210 278 331 403
#
# _framework density 21.683150999999999
#
# number of rings (size 3 to 8) (size 9 to 14) (size 15 to 20)
#    0.000    0.727    5.455    4.364    0.000    1.455 
#    0.000    1.818    0.000    0.000    0.000    0.000 
#    0.000    0.000    0.000    0.000    0.000    0.000 
#
# Total GULP energy -245009.260233 kJ/mol
# GULP energy per Si atom -5568.392278 kJ/mol
# Density = 2.163380 g / cm^3
# Si number density = 21.683151 Si / 1000 Ang^3
#
#
#
# Elastic Constant Matrix: (Units=GPa)
#
#
# Indices 1 2 3 4 5 6 
#
# 1 166.8368 25.6197 51.4441 0.0000 0.0000 0.0000
# 2 25.6197 57.2905 21.8085 0.0000 0.0000 0.0000
# 3 51.4441 21.8085 96.6754 0.0000 0.0000 0.0000
# 4 0.0000 0.0000 0.0000 40.1112 0.0000 0.0000
# 5 0.0000 0.0000 0.0000 0.0000 21.3742 0.0000
# 6 0.0000 0.0000 0.0000 0.0000 0.0000 18.7626
#
#
#
# Elastic Compliance Matrix: (Units=1/GPa)
#
#
# Indices 1 2 3 4 5 6 
#
# 1 0.007369 -0.001972 -0.003476 0.000000 0.000000 0.000000
# 2 -0.001972 0.019622 -0.003377 0.000000 0.000000 0.000000
# 3 -0.003476 -0.003377 0.012956 0.000000 0.000000 0.000000
# 4 0.000000 0.000000 0.000000 0.024931 0.000000 0.000000
# 5 0.000000 0.000000 0.000000 0.000000 0.046785 0.000000
# 6 0.000000 0.000000 0.000000 0.000000 0.000000 0.053298
#
#
# Mechanical properties :
#
#
# Convention : Reuss Voigt Hill
#
# Bulk Modulus (GPa) = 44.85147 57.61637 51.23392
# Shear Modulus (GPa) = 26.30989 30.84495 28.57742
#
# Velocity S-wave (km/s) = 3.48714 3.77574 3.63430
# Velocity P-wave (km/s) = 6.07810 6.75558 6.42578
#
# Compressibility (1/GPa) = 0.02229581
#
# Stress axis : x y z
#
# Youngs Moduli (GPa) = 135.71129 50.96250 77.18690
#
# Poissons Ratio (x) = 0.10049 0.26832
# Poissons Ratio (y) = 0.26760 0.26068
# Poissons Ratio (z) = 0.47177 0.17211
#
# Static dielectric constant tensor:
#      x y z
#    x 1.831790 0.000000 0.000000 
#    y 0.000000 1.976460 0.000000 
#    z 0.000000 0.000000 1.866870 
# 
# From -- ./inp_files/3412.got.cif
#   From: 2010.05.17/outbox.cif.g08.bks.cpg/sg52_2_cif.got.tgz:3412.got - 2010.06.03 12:15:38.
