data_PCOD9413808
_publ_section_title
;
Structure prediction by ZEFSAII (Michael W. Deem and Ramdas Pophale) SiO2 
 PCOD9413808
Probable space group: P N N A
;
_chemical_formula_sum "Si O2"
_cell_formula_units_Z 24
_cell_length_a 6.723505
_cell_length_b 7.963107
_cell_length_c 19.740328
_cell_angle_alpha 90.000000
_cell_angle_beta 90.000000
_cell_angle_gamma 90.000000
_cell_volume 1056.896958
_symmetry_space_group_name_H-M "P N N A"
_symmetry_group_IT_number 52
_symmetry_cell_setting 'orthorhombic'
loop_
_space_group_symop_operation_xyz
x,y,z
1/2-x,-y,z
x,1/2-y,1/2-z
1/2-x,1/2+y,1/2-z
-x,-y,-z
1/2+x,y,-z
-x,1/2+y,1/2+z
1/2+x,1/2-y,1/2+z
loop_
_atom_site_type_symbol
_atom_site_label
_atom_site_fract_x
_atom_site_fract_y
_atom_site_fract_z
Si Si1 0.342854 0.814629 0.822101
Si Si2 0.186250 0.693174 0.434154
Si Si3 0.905277 0.348661 0.075626
O O1 0.416027 0.750000 0.750000
O O2 0.162702 0.703627 0.849984
O O3 0.250000 0.000000 0.818546
O O4 0.506505 0.790959 0.880995
O O5 0.250000 0.500000 0.426458
O O6 0.356333 0.832272 0.420043
O O7 0.128099 0.721650 0.512525
O O8 0.750000 0.500000 0.058835
#
# Coordination Sequence:
#
# PCOD9413808 Si02
#       3
#     8   8   8
#     4  12  27  49  71 103 149 196 248 319 389 458
#     4  12  24  45  75 105 145 197 249 306 385 464
#     4  12  25  44  75 113 146 186 253 316 377 458
#
# _framework density 22.707984
#
# number of rings (size 3 to 8) (size 9 to 14) (size 15 to 20)
#    0.000    0.000    6.667    4.000    0.000    1.333 
#    6.000    0.000    0.000    0.000    0.000    0.000 
#    0.000    0.000    0.000    0.000    0.000    0.000 
#
# Total GULP energy -133842.183876 kJ/mol
# GULP energy per Si atom -5576.757662 kJ/mol
# Density = 2.265630 g / cm^3
# Si number density = 22.707984 Si / 1000 Ang^3
#
#
#
# Elastic Constant Matrix: (Units=GPa)
#
#
# Indices 1 2 3 4 5 6 
#
# 1 102.4403 43.1071 5.1057 0.0000 0.0000 0.0000
# 2 43.1071 89.0249 11.9448 0.0000 0.0000 0.0000
# 3 5.1057 11.9448 101.5929 0.0000 0.0000 0.0000
# 4 0.0000 0.0000 0.0000 6.6713 0.0000 0.0000
# 5 0.0000 0.0000 0.0000 0.0000 33.7885 0.0000
# 6 0.0000 0.0000 0.0000 0.0000 0.0000 28.9850
#
#
#
# Elastic Compliance Matrix: (Units=1/GPa)
#
#
# Indices 1 2 3 4 5 6 
#
# 1 0.012261 -0.005948 0.000083 0.000000 0.000000 0.000000
# 2 -0.005948 0.014298 -0.001382 0.000000 0.000000 0.000000
# 3 0.000083 -0.001382 0.010002 0.000000 0.000000 0.000000
# 4 0.000000 0.000000 0.000000 0.149896 0.000000 0.000000
# 5 0.000000 0.000000 0.000000 0.000000 0.029596 0.000000
# 6 0.000000 0.000000 0.000000 0.000000 0.000000 0.034501
#
#
# Mechanical properties :
#
#
# Convention : Reuss Voigt Hill
#
# Bulk Modulus (GPa) = 45.31752 45.93037 45.62395
# Shear Modulus (GPa) = 18.35521 29.41566 23.88544
#
# Velocity S-wave (km/s) = 2.84617 3.60306 3.24675
# Velocity P-wave (km/s) = 5.54986 6.13023 5.84725
#
# Compressibility (1/GPa) = 0.02206652
#
# Stress axis : x y z
#
# Youngs Moduli (GPa) = 81.56266 69.93833 99.98456
#
# Poissons Ratio (x) = 0.41598 -0.00831
# Poissons Ratio (y) = 0.48512 0.13820
# Poissons Ratio (z) = -0.00678 0.09667
#
# Static dielectric constant tensor:
#      x y z
#    x 1.933370 0.000000 0.000000 
#    y 0.000000 1.975690 0.000000 
#    z 0.000000 0.000000 1.739910 
# 
# From -- ./inp_files/30574.got.cif
#   From: 2010.05.17/outbox.cif.g08.bks.cpg/sg52_16_cif.got.tgz:30574.got - 2010.06.03 12:15:38.
