data_PCOD9413814
_publ_section_title
;
Structure prediction by ZEFSAII (Michael W. Deem and Ramdas Pophale) SiO2 
 PCOD9413814
Probable space group: P N N A
;
_chemical_formula_sum "Si O2"
_cell_formula_units_Z 32
_cell_length_a 10.329784
_cell_length_b 27.124264
_cell_length_c 4.978466
_cell_angle_alpha 90.000000
_cell_angle_beta 90.000000
_cell_angle_gamma 90.000000
_cell_volume 1394.905378
_symmetry_space_group_name_H-M "P N N A"
_symmetry_group_IT_number 52
_symmetry_cell_setting 'orthorhombic'
loop_
_space_group_symop_operation_xyz
x,y,z
1/2-x,-y,z
x,1/2-y,1/2-z
1/2-x,1/2+y,1/2-z
-x,-y,-z
1/2+x,y,-z
-x,1/2+y,1/2+z
1/2+x,1/2-y,1/2+z
loop_
_atom_site_type_symbol
_atom_site_label
_atom_site_fract_x
_atom_site_fract_y
_atom_site_fract_z
Si Si1 0.549752 0.215286 0.500125
Si Si2 0.112851 0.492347 0.208664
Si Si3 0.699071 0.851009 0.471128
Si Si4 0.777841 0.417829 0.527798
O O1 0.581260 0.250000 0.750000
O O2 0.676071 0.183294 0.434151
O O3 0.430827 0.179843 0.575817
O O4 0.513461 0.250000 0.250000
O O5 0.250000 0.500000 0.051170
O O6 0.142185 0.441827 0.368724
O O7 0.877268 0.462833 0.578896
O O8 0.000000 0.500000 0.000000
O O9 0.715262 0.896345 0.266941
O O10 0.692999 0.873382 0.769141
#
# Coordination Sequence:
#
# PCOD9413814 Si02
#       4
#     8   8   8   8
#     4  12  26  46  72 101 140 185 238 300 370 420
#     4   8  20  42  70 100 151 184 228 280 348 412
#     4  12  24  46  72 103 139 184 240 290 351 433
#     4   9  24  41  72 103 143 184 232 286 349 409
#
# _framework density 22.940625000000001
#
# number of rings (size 3 to 8) (size 9 to 14) (size 15 to 20)
#    1.500    0.000    0.000    4.500    3.500    4.000 
#    0.000    2.500    0.000    0.000    0.000    0.000 
#    0.000    0.000    0.000    0.000    0.000    0.000 
#
# Total GULP energy -178947.078442 kJ/mol
# GULP energy per Si atom -5592.096201 kJ/mol
# Density = 2.288841 g / cm^3
# Si number density = 22.940625 Si / 1000 Ang^3
#
#
#
# Elastic Constant Matrix: (Units=GPa)
#
#
# Indices 1 2 3 4 5 6 
#
# 1 80.6372 6.7892 7.7202 0.0000 0.0000 0.0000
# 2 6.7892 85.5121 9.7567 0.0000 0.0000 0.0000
# 3 7.7202 9.7567 82.5652 0.0000 0.0000 0.0000
# 4 0.0000 0.0000 0.0000 65.3065 0.0000 0.0000
# 5 0.0000 0.0000 0.0000 0.0000 46.9887 0.0000
# 6 0.0000 0.0000 0.0000 0.0000 0.0000 -6.0736
#
#
#
# Elastic Compliance Matrix: (Units=1/GPa)
#
#
# Indices 1 2 3 4 5 6 
#
# 1 0.012578 -0.000876 -0.001073 0.000000 0.000000 0.000000
# 2 -0.000876 0.011915 -0.001326 0.000000 0.000000 0.000000
# 3 -0.001073 -0.001326 0.012369 0.000000 0.000000 0.000000
# 4 0.000000 0.000000 0.000000 0.015312 0.000000 0.000000
# 5 0.000000 0.000000 0.000000 0.000000 0.021282 0.000000
# 6 0.000000 0.000000 0.000000 0.000000 0.000000 -0.164646
#
#
# Mechanical properties :
#
#
# Convention : Reuss Voigt Hill
#
# Bulk Modulus (GPa) = 32.99049 33.02742 33.00896
# Shear Modulus (GPa) = -67.08080 36.20755 -15.43663
#
# Velocity S-wave (km/s) = -5.41337 3.97711 -2.59684
# Velocity P-wave (km/s) = 4.96595 5.95970 2.32996
#
# Compressibility (1/GPa) = 0.03031177
#
# Stress axis : x y z
#
# Youngs Moduli (GPa) = 79.50591 83.92699 80.84969
#
# Poissons Ratio (x) = 0.07354 0.08671
# Poissons Ratio (y) = 0.06966 0.10721
# Poissons Ratio (z) = 0.08527 0.11129
#
# Static dielectric constant tensor:
#      x y z
#    x 1.907310 0.000000 0.000000 
#    y 0.000000 1.911980 0.000000 
#    z 0.000000 0.000000 1.829600 
# 
# From -- ./inp_files/409.got.cif
#   From: 2010.05.17/outbox.cif.g08.bks.cpg/sg52_1_cif.got.tgz:409.got - 2010.06.03 12:15:38.
