data_PCOD9413229
_publ_section_title
;
Structure prediction by ZEFSAII (Michael W. Deem and Ramdas Pophale) SiO2 
 PCOD9413229
Probable space group: P N N A
;
_chemical_formula_sum "Si O2"
_cell_formula_units_Z 48
_cell_length_a 25.157894
_cell_length_b 18.466344
_cell_length_c 5.255916
_cell_angle_alpha 90.000000
_cell_angle_beta 90.000000
_cell_angle_gamma 90.000000
_cell_volume 2441.763628
_symmetry_space_group_name_H-M "P N N A"
_symmetry_group_IT_number 52
_symmetry_cell_setting 'orthorhombic'
loop_
_space_group_symop_operation_xyz
x,y,z
1/2-x,-y,z
x,1/2-y,1/2-z
1/2-x,1/2+y,1/2-z
-x,-y,-z
1/2+x,y,-z
-x,1/2+y,1/2+z
1/2+x,1/2-y,1/2+z
loop_
_atom_site_type_symbol
_atom_site_label
_atom_site_fract_x
_atom_site_fract_y
_atom_site_fract_z
Si Si1 0.721564 0.613057 0.749991
Si Si2 0.668608 0.668551 0.249993
Si Si3 0.443693 0.095778 0.749974
Si Si4 0.906944 0.560653 0.249994
Si Si5 0.664906 0.043897 0.750006
Si Si6 0.502150 0.836869 0.750025
O O1 0.703465 0.654656 0.498829
O O2 0.689566 0.536848 0.749992
O O3 0.783873 0.595847 0.750000
O O4 0.703461 0.654658 0.001144
O O5 0.647236 0.750000 0.250000
O O6 0.618701 0.614971 0.250001
O O7 0.469502 0.130688 0.499944
O O8 0.446408 0.008830 0.749994
O O9 0.469513 0.130697 0.999960
O O10 0.870638 0.555266 0.500333
O O11 0.942306 0.632598 0.249996
O O12 0.870639 0.555264 0.999652
O O13 0.504947 0.750000 0.750000
#
# Coordination Sequence:
#
# PCOD9413229 Si02
#       6
#     8   8   8   8   8   8
#     4  11  22  41  63  94 127 164 208 255 315 374
#     4  12  23  39  63  95 133 164 206 262 322 376
#     4  12  23  43  65  95 124 169 211 264 312 379
#     4  12  23  43  67  97 121 167 218 263 304 377
#     4  11  22  41  68  91 123 163 213 260 305 367
#     4  12  26  43  63  92 130 169 208 260 323 374
#
# _framework density 19.657921000000002
#
# number of rings (size 3 to 8) (size 9 to 14) (size 15 to 20)
#    0.000    0.333    3.333    7.000    0.000    2.667 
#    0.000    5.000    0.000    0.000    0.000    0.000 
#    0.000    0.000    0.000    0.000    0.000    0.000 
#
# Total GULP energy -268708.187602 kJ/mol
# GULP energy per Si atom -5598.087242 kJ/mol
# Density = 1.961318 g / cm^3
# Si number density = 19.657921 Si / 1000 Ang^3
#
#
#
# Elastic Constant Matrix: (Units=GPa)
#
#
# Indices 1 2 3 4 5 6 
#
# 1 90.4897 24.7671 64.9962 0.0000 0.0000 0.0000
# 2 24.7671 40.7455 16.3878 0.0000 0.0000 0.0000
# 3 64.9962 16.3878 198.2115 0.0000 0.0000 0.0000
# 4 0.0000 0.0000 0.0000 10.1415 0.0000 0.0000
# 5 0.0000 0.0000 0.0000 0.0000 -131.0858 0.0000
# 6 0.0000 0.0000 0.0000 0.0000 0.0000 23.5980
#
#
#
# Elastic Compliance Matrix: (Units=1/GPa)
#
#
# Indices 1 2 3 4 5 6 
#
# 1 0.016770 -0.008257 -0.004817 0.000000 0.000000 0.000000
# 2 -0.008257 0.029452 0.000272 0.000000 0.000000 0.000000
# 3 -0.004817 0.000272 0.006602 0.000000 0.000000 0.000000
# 4 0.000000 0.000000 0.000000 0.098605 0.000000 0.000000
# 5 0.000000 0.000000 0.000000 0.000000 -0.007629 0.000000
# 6 0.000000 0.000000 0.000000 0.000000 0.000000 0.042376
#
#
# Mechanical properties :
#
#
# Convention : Reuss Voigt Hill
#
# Bulk Modulus (GPa) = 36.73417 60.19434 48.46425
# Shear Modulus (GPa) = 22.63950 -4.58289 9.02830
#
# Velocity S-wave (km/s) = 3.39731 -1.52852 2.14538
# Velocity P-wave (km/s) = 5.84091 5.25092 5.55376
#
# Compressibility (1/GPa) = 0.02722261
#
# Stress axis : x y z
#
# Youngs Moduli (GPa) = 59.62865 33.95378 151.46876
#
# Poissons Ratio (x) = 0.28034 0.72957
# Poissons Ratio (y) = 0.49233 -0.04127
# Poissons Ratio (z) = 0.28721 -0.00925
#
# Static dielectric constant tensor:
#      x y z
#    x 1.664630 0.000000 0.000000 
#    y 0.000000 1.671800 0.000000 
#    z 0.000000 0.000000 1.660160 
# 
# From -- ./inp_files/5140.got.cif
#   From: 2010.05.17/outbox.cif.g08.bks.cpg/sg52_3_cif.got.tgz:5140.got - 2010.06.03 12:15:38.
