data_PCOD9413655
_publ_section_title
;
Structure prediction by ZEFSAII (Michael W. Deem and Ramdas Pophale) SiO2 
 PCOD9413655
Probable space group: P N N A
;
_chemical_formula_sum "Si O2"
_cell_formula_units_Z 64
_cell_length_a 9.059717
_cell_length_b 21.041377
_cell_length_c 14.756503
_cell_angle_alpha 90.000000
_cell_angle_beta 90.000000
_cell_angle_gamma 90.000000
_cell_volume 2813.016243
_symmetry_space_group_name_H-M "P N N A"
_symmetry_group_IT_number 52
_symmetry_cell_setting 'orthorhombic'
loop_
_space_group_symop_operation_xyz
x,y,z
1/2-x,-y,z
x,1/2-y,1/2-z
1/2-x,1/2+y,1/2-z
-x,-y,-z
1/2+x,y,-z
-x,1/2+y,1/2+z
1/2+x,1/2-y,1/2+z
loop_
_atom_site_type_symbol
_atom_site_label
_atom_site_fract_x
_atom_site_fract_y
_atom_site_fract_z
Si Si1 0.057789 0.892233 0.418856
Si Si2 0.398603 0.625989 0.107907
Si Si3 0.384082 0.085560 0.771428
Si Si4 0.333628 0.149415 0.141870
Si Si5 0.071995 0.256797 0.850828
Si Si6 0.933817 0.764762 0.847227
Si Si7 0.454492 0.553929 0.750795
Si Si8 0.175405 0.823592 0.940004
O O1 0.234101 0.900122 0.409065
O O2 0.997903 0.889100 0.520252
O O3 0.984788 0.827331 0.375055
O O4 0.998980 0.949127 0.355771
O O5 0.504684 0.607207 0.192140
O O6 0.356257 0.699899 0.124410
O O7 0.211052 0.081958 0.744989
O O8 0.370071 0.129705 0.859014
O O9 0.438739 0.014634 0.794577
O O10 0.430733 0.212007 0.154057
O O11 0.172855 0.175151 0.168350
O O12 0.421676 0.095590 0.197407
O O13 0.320513 0.139080 0.033934
O O14 0.140861 0.250000 0.750000
O O15 0.183372 0.219668 0.917779
O O16 0.008188 0.750000 0.750000
O O17 0.042097 0.774585 0.931364
#
# Coordination Sequence:
#
# PCOD9413655 Si02
#       8
#     8   8   8   8   8   8   8   8
#     4  12  25  44  71 106 141 183 230 296 360 433
#     4  12  26  44  71 106 143 179 235 292 363 431
#     4  11  26  49  70  99 135 193 248 291 349 422
#     4  12  23  43  67 103 141 183 228 287 355 416
#     4  12  23  41  69 102 144 186 226 283 359 420
#     4  12  24  40  65 105 145 180 223 287 351 426
#     4  11  26  48  73  95 138 192 246 294 350 421
#     4  12  25  41  68 104 143 183 234 287 349 420
#
# _framework density 22.751377999999999
#
# number of rings (size 3 to 8) (size 9 to 14) (size 15 to 20)
#    0.000    0.250    5.000    4.500    3.500    1.500 
#    0.000    0.000    0.000    0.000    0.000    0.000 
#    0.000    0.000    0.000    0.000    0.000    0.000 
#
# Total GULP energy -357183.598125 kJ/mol
# GULP energy per Si atom -5580.993721 kJ/mol
# Density = 2.269960 g / cm^3
# Si number density = 22.751378 Si / 1000 Ang^3
#
#
#
# Elastic Constant Matrix: (Units=GPa)
#
#
# Indices 1 2 3 4 5 6 
#
# 1 130.5311 14.5209 50.8758 0.0000 0.0000 0.0000
# 2 14.5209 35.8556 16.4144 0.0000 0.0000 0.0000
# 3 50.8758 16.4144 149.9674 0.0000 0.0000 0.0000
# 4 0.0000 0.0000 0.0000 11.2700 0.0000 0.0000
# 5 0.0000 0.0000 0.0000 0.0000 35.6282 0.0000
# 6 0.0000 0.0000 0.0000 0.0000 0.0000 48.5202
#
#
#
# Elastic Compliance Matrix: (Units=1/GPa)
#
#
# Indices 1 2 3 4 5 6 
#
# 1 0.009016 -0.002370 -0.002799 0.000000 0.000000 0.000000
# 2 -0.002370 0.029984 -0.002478 0.000000 0.000000 0.000000
# 3 -0.002799 -0.002478 0.007889 0.000000 0.000000 0.000000
# 4 0.000000 0.000000 0.000000 0.088731 0.000000 0.000000
# 5 0.000000 0.000000 0.000000 0.000000 0.028068 0.000000
# 6 0.000000 0.000000 0.000000 0.000000 0.000000 0.020610
#
#
# Mechanical properties :
#
#
# Convention : Reuss Voigt Hill
#
# Bulk Modulus (GPa) = 31.65088 53.33070 42.49079
# Shear Modulus (GPa) = 23.79571 34.71989 29.25780
#
# Velocity S-wave (km/s) = 3.23755 3.91072 3.58995
# Velocity P-wave (km/s) = 5.28370 6.62443 5.99169
#
# Compressibility (1/GPa) = 0.03159470
#
# Stress axis : x y z
#
# Youngs Moduli (GPa) = 110.91864 33.35149 126.76005
#
# Poissons Ratio (x) = 0.07903 0.35482
# Poissons Ratio (y) = 0.26285 0.31410
# Poissons Ratio (z) = 0.31048 0.08264
#
# Static dielectric constant tensor:
#      x y z
#    x 1.894500 0.000000 0.000000 
#    y 0.000000 1.874490 0.000000 
#    z 0.000000 0.000000 1.893390 
# 
# From -- ./inp_files/25120.got.cif
#   From: 2010.05.17/outbox.cif.g08.bks.cpg/sg52_13_cif.got.tgz:25120.got - 2010.06.03 12:15:38.
