data_PCOD9413147
_publ_section_title
;
Structure prediction by ZEFSAII (Michael W. Deem and Ramdas Pophale) SiO2 
 PCOD9413147
Probable space group: P N N A
;
_chemical_formula_sum "Si O2"
_cell_formula_units_Z 44
_cell_length_a 10.406384
_cell_length_b 9.932347
_cell_length_c 15.929049
_cell_angle_alpha 90.000000
_cell_angle_beta 90.000000
_cell_angle_gamma 90.000000
_cell_volume 1646.423588
_symmetry_space_group_name_H-M "P N N A"
_symmetry_group_IT_number 52
_symmetry_cell_setting 'orthorhombic'
loop_
_space_group_symop_operation_xyz
x,y,z
1/2-x,-y,z
x,1/2-y,1/2-z
1/2-x,1/2+y,1/2-z
-x,-y,-z
1/2+x,y,-z
-x,1/2+y,1/2+z
1/2+x,1/2-y,1/2+z
loop_
_atom_site_type_symbol
_atom_site_label
_atom_site_fract_x
_atom_site_fract_y
_atom_site_fract_z
Si Si1 0.599823 0.125068 0.514121
Si Si2 0.905854 0.657617 0.168404
Si Si3 0.928314 0.117531 0.048794
Si Si4 0.750000 0.000000 0.782159
Si Si5 0.687219 0.746971 0.601736
Si Si6 0.966365 0.090679 0.238309
O O1 0.659851 0.160453 0.422659
O O2 0.514446 0.248127 0.548636
O O3 0.717419 0.132124 0.579655
O O4 0.500000 0.000000 0.500000
O O5 0.871558 0.750000 0.250000
O O6 0.049591 0.705001 0.137527
O O7 0.892089 0.504174 0.198149
O O8 0.913515 0.069165 0.143829
O O9 0.818575 0.160620 0.984430
O O10 0.000000 0.000000 0.000000
O O11 0.736119 0.861004 0.832689
O O12 0.891565 0.971781 0.747316
O O13 0.963815 0.250000 0.250000
#
# Coordination Sequence:
#
# PCOD9413147 Si02
#       6
#     8   8   8   4   8   8
#     4  11  24  43  64  97 139 185 224 286 363 437
#     4  11  24  43  67 101 138 175 234 303 359 418
#     4  11  21  42  66  92 132 183 236 278 353 444
#     4  12  22  38  66 100 128 174 230 292 354 420
#     4  11  23  43  69  96 135 185 239 286 354 440
#     4  12  25  39  63 101 140 171 229 301 365 410
#
# _framework density 26.724592999999999
#
# number of rings (size 3 to 8) (size 9 to 14) (size 15 to 20)
#    0.000    0.727    5.455    2.182    2.545    2.909 
#    0.000    0.909    0.000    2.182    0.000    0.000 
#    0.000    0.000    0.000    0.000    0.000    0.000 
#
# Total GULP energy -245987.171974 kJ/mol
# GULP energy per Si atom -5590.617545 kJ/mol
# Density = 2.666377 g / cm^3
# Si number density = 26.724593 Si / 1000 Ang^3
#
#
#
# Elastic Constant Matrix: (Units=GPa)
#
#
# Indices 1 2 3 4 5 6 
#
# 1 75.4268 32.5580 1.3887 0.0000 0.0000 0.0000
# 2 32.5580 166.4424 25.9493 0.0000 0.0000 0.0000
# 3 1.3887 25.9493 136.9536 0.0000 0.0000 0.0000
# 4 0.0000 0.0000 0.0000 45.5108 0.0000 0.0000
# 5 0.0000 0.0000 0.0000 0.0000 -80.7430 0.0000
# 6 0.0000 0.0000 0.0000 0.0000 0.0000 21.0106
#
#
#
# Elastic Compliance Matrix: (Units=1/GPa)
#
#
# Indices 1 2 3 4 5 6 
#
# 1 0.014502 -0.002899 0.000402 0.000000 0.000000 0.000000
# 2 -0.002899 0.006771 -0.001253 0.000000 0.000000 0.000000
# 3 0.000402 -0.001253 0.007535 0.000000 0.000000 0.000000
# 4 0.000000 0.000000 0.000000 0.021973 0.000000 0.000000
# 5 0.000000 0.000000 0.000000 0.000000 -0.012385 0.000000
# 6 0.000000 0.000000 0.000000 0.000000 0.000000 0.047595
#
#
# Mechanical properties :
#
#
# Convention : Reuss Voigt Hill
#
# Bulk Modulus (GPa) = 46.93376 55.40164 51.16770
# Shear Modulus (GPa) = 49.70468 18.41747 34.06107
#
# Velocity S-wave (km/s) = 4.31732 2.62803 3.57392
# Velocity P-wave (km/s) = 6.51555 5.47579 6.01817
#
# Compressibility (1/GPa) = 0.02130663
#
# Stress axis : x y z
#
# Youngs Moduli (GPa) = 68.95579 147.69563 132.71114
#
# Poissons Ratio (x) = 0.42824 -0.05339
# Poissons Ratio (y) = 0.19994 0.16635
# Poissons Ratio (z) = -0.02774 0.18513
#
# Static dielectric constant tensor:
#      x y z
#    x 2.341370 0.000000 0.000000 
#    y 0.000000 0.710280 0.000000 
#    z 0.000000 0.000000 2.081750 
# 
# From -- ./inp_files/32976.got.cif
#   From: 2010.05.17/outbox.cif.g08.bks.cpg/sg52_17_cif.got.tgz:32976.got - 2010.06.03 12:15:38.
