data_PCOD9413784
_publ_section_title
;
Structure prediction by ZEFSAII (Michael W. Deem and Ramdas Pophale) SiO2 
 PCOD9413784
Probable space group: P N N A
;
_chemical_formula_sum "Si O2"
_cell_formula_units_Z 40
_cell_length_a 8.586464
_cell_length_b 8.500813
_cell_length_c 26.091657
_cell_angle_alpha 90.000000
_cell_angle_beta 90.000000
_cell_angle_gamma 90.000000
_cell_volume 1904.480266
_symmetry_space_group_name_H-M "P N N A"
_symmetry_group_IT_number 52
_symmetry_cell_setting 'orthorhombic'
loop_
_space_group_symop_operation_xyz
x,y,z
1/2-x,-y,z
x,1/2-y,1/2-z
1/2-x,1/2+y,1/2-z
-x,-y,-z
1/2+x,y,-z
-x,1/2+y,1/2+z
1/2+x,1/2-y,1/2+z
loop_
_atom_site_type_symbol
_atom_site_label
_atom_site_fract_x
_atom_site_fract_y
_atom_site_fract_z
Si Si1 0.433322 0.968922 0.387211
Si Si2 0.862245 0.786030 0.113549
Si Si3 0.086860 0.919776 0.047356
Si Si4 0.146314 0.655301 0.972608
Si Si5 0.651835 0.834923 0.302824
O O1 0.492172 0.886933 0.439972
O O2 0.503440 0.870868 0.339207
O O3 0.250000 0.000000 0.384938
O O4 0.532800 0.129164 0.383516
O O5 0.747544 0.765628 0.065008
O O6 0.762089 0.782887 0.164496
O O7 0.979745 0.921859 0.097458
O O8 0.250000 0.000000 0.056972
O O9 0.113620 0.744015 0.025158
O O10 0.000000 0.000000 0.000000
O O11 0.250000 0.500000 0.978915
O O12 0.612749 0.750000 0.250000
O O13 0.750000 0.000000 0.296236
#
# Coordination Sequence:
#
# PCOD9413784 Si02
#       5
#     8   8   8   8   8
#     4   9  19  35  62  90 119 154 209 255 301 366
#     4   9  20  39  57  83 122 164 200 249 301 379
#     4  12  24  38  55  89 134 165 210 258 310 363
#     4   9  20  39  58  81 119 172 213 237 298 378
#     4   9  19  42  66  89 114 155 206 257 319 385
#
# _framework density 21.003105000000001
#
# number of rings (size 3 to 8) (size 9 to 14) (size 15 to 20)
#    0.000    2.400    2.000    2.400    2.800    4.000 
#    7.200    7.000    0.000    1.200    0.000    0.000 
#    0.000    0.000    0.000    0.000    0.000    0.000 
#
# Total GULP energy -223596.986664 kJ/mol
# GULP energy per Si atom -5589.924667 kJ/mol
# Density = 2.095530 g / cm^3
# Si number density = 21.003105 Si / 1000 Ang^3
#
#
#
# Elastic Constant Matrix: (Units=GPa)
#
#
# Indices 1 2 3 4 5 6 
#
# 1 166.2211 35.9418 64.3694 0.0000 0.0000 0.0000
# 2 35.9418 54.6911 35.9409 0.0000 0.0000 0.0000
# 3 64.3694 35.9409 128.3306 0.0000 0.0000 0.0000
# 4 0.0000 0.0000 0.0000 31.8708 0.0000 0.0000
# 5 0.0000 0.0000 0.0000 0.0000 14.8109 0.0000
# 6 0.0000 0.0000 0.0000 0.0000 0.0000 32.8857
#
#
#
# Elastic Compliance Matrix: (Units=1/GPa)
#
#
# Indices 1 2 3 4 5 6 
#
# 1 0.007890 -0.003167 -0.003070 0.000000 0.000000 0.000000
# 2 -0.003167 0.023680 -0.005043 0.000000 0.000000 0.000000
# 3 -0.003070 -0.005043 0.010745 0.000000 0.000000 0.000000
# 4 0.000000 0.000000 0.000000 0.031377 0.000000 0.000000
# 5 0.000000 0.000000 0.000000 0.000000 0.067518 0.000000
# 6 0.000000 0.000000 0.000000 0.000000 0.000000 0.030408
#
#
# Mechanical properties :
#
#
# Convention : Reuss Voigt Hill
#
# Bulk Modulus (GPa) = 50.62530 69.08302 59.85416
# Shear Modulus (GPa) = 24.90475 30.11284 27.50880
#
# Velocity S-wave (km/s) = 3.44723 3.79057 3.62297
# Velocity P-wave (km/s) = 6.32460 7.21950 6.78682
#
# Compressibility (1/GPa) = 0.01975297
#
# Stress axis : x y z
#
# Youngs Moduli (GPa) = 126.74257 42.22922 93.06691
#
# Poissons Ratio (x) = 0.13375 0.28576
# Poissons Ratio (y) = 0.40144 0.46937
# Poissons Ratio (z) = 0.38916 0.21298
#
# Static dielectric constant tensor:
#      x y z
#    x 1.770660 0.000000 0.000000 
#    y 0.000000 1.871650 0.000000 
#    z 0.000000 0.000000 1.721910 
# 
# From -- ./inp_files/39163.got.cif
#   From: 2010.05.17/outbox.cif.g08.bks.cpg/sg52_20_cif.got.tgz:39163.got - 2010.06.03 12:15:38.
