data_PCOD9413348
_publ_section_title
;
Structure prediction by ZEFSAII (Michael W. Deem and Ramdas Pophale) SiO2 
 PCOD9413348
Probable space group: P N N A
;
_chemical_formula_sum "Si O2"
_cell_formula_units_Z 32
_cell_length_a 10.935576
_cell_length_b 7.179189
_cell_length_c 16.453879
_cell_angle_alpha 90.000000
_cell_angle_beta 90.000000
_cell_angle_gamma 90.000000
_cell_volume 1291.770461
_symmetry_space_group_name_H-M "P N N A"
_symmetry_group_IT_number 52
_symmetry_cell_setting 'orthorhombic'
loop_
_space_group_symop_operation_xyz
x,y,z
1/2-x,-y,z
x,1/2-y,1/2-z
1/2-x,1/2+y,1/2-z
-x,-y,-z
1/2+x,y,-z
-x,1/2+y,1/2+z
1/2+x,1/2-y,1/2+z
loop_
_atom_site_type_symbol
_atom_site_label
_atom_site_fract_x
_atom_site_fract_y
_atom_site_fract_z
Si Si1 0.907943 0.250000 0.750000
Si Si2 0.250000 0.500000 0.531097
Si Si3 0.758363 0.293726 0.912041
Si Si4 0.253424 0.218711 0.656068
Si Si5 0.973232 0.634627 0.671813
O O1 0.827750 0.317091 0.826663
O O2 0.973693 0.425835 0.707984
O O3 0.179203 0.645972 0.472749
O O4 0.184936 0.350300 0.591250
O O5 0.750000 0.500000 0.947937
O O6 0.627701 0.195622 0.894048
O O7 0.216832 0.250000 0.750000
O O8 0.393085 0.290771 0.650227
O O9 0.250000 0.000000 0.639956
O O10 0.931773 0.750000 0.750000
#
# Coordination Sequence:
#
# PCOD9413348 Si02
#       5
#     4   4   8   8   8
#     4  12  20  42  74 110 158 188 236 298 384 458
#     4  12  26  46  74 104 150 198 244 316 366 428
#     4  12  22  42  70 112 157 186 232 306 380 449
#     4  11  26  51  75  97 139 198 264 303 354 436
#     4  11  23  41  76 109 143 202 242 296 375 444
#
# _framework density 24.772203000000001
#
# number of rings (size 3 to 8) (size 9 to 14) (size 15 to 20)
#    0.000    0.500    7.500    0.750    0.000    5.000 
#    0.000    2.500    0.000    0.000    0.000    0.000 
#    0.000    0.000    0.000    0.000    0.000    0.000 
#
# Total GULP energy -178646.559408 kJ/mol
# GULP energy per Si atom -5582.704981 kJ/mol
# Density = 2.471582 g / cm^3
# Si number density = 24.772203 Si / 1000 Ang^3
#
#
#
# Elastic Constant Matrix: (Units=GPa)
#
#
# Indices 1 2 3 4 5 6 
#
# 1 91.6156 55.5897 21.1020 0.0000 0.0000 0.0000
# 2 55.5897 303.3123 74.4921 0.0000 0.0000 0.0000
# 3 21.1020 74.4921 145.4463 0.0000 0.0000 0.0000
# 4 0.0000 0.0000 0.0000 62.5281 0.0000 0.0000
# 5 0.0000 0.0000 0.0000 0.0000 4.4643 0.0000
# 6 0.0000 0.0000 0.0000 0.0000 0.0000 28.9863
#
#
#
# Elastic Compliance Matrix: (Units=1/GPa)
#
#
# Indices 1 2 3 4 5 6 
#
# 1 0.012347 -0.002085 -0.000723 0.000000 0.000000 0.000000
# 2 -0.002085 0.004123 -0.001809 0.000000 0.000000 0.000000
# 3 -0.000723 -0.001809 0.007907 0.000000 0.000000 0.000000
# 4 0.000000 0.000000 0.000000 0.015993 0.000000 0.000000
# 5 0.000000 0.000000 0.000000 0.000000 0.224000 0.000000
# 6 0.000000 0.000000 0.000000 0.000000 0.000000 0.034499
#
#
# Mechanical properties :
#
#
# Convention : Reuss Voigt Hill
#
# Bulk Modulus (GPa) = 66.04324 93.63797 79.84061
# Shear Modulus (GPa) = 15.96667 45.14177 30.55422
#
# Velocity S-wave (km/s) = 2.54153 4.27344 3.51580
# Velocity P-wave (km/s) = 5.94396 7.88869 6.98434
#
# Compressibility (1/GPa) = 0.01514159
#
# Stress axis : x y z
#
# Youngs Moduli (GPa) = 80.99097 242.51384 126.46987
#
# Poissons Ratio (x) = 0.50570 0.09149
# Poissons Ratio (y) = 0.16889 0.22883
# Poissons Ratio (z) = 0.05859 0.43879
#
# Static dielectric constant tensor:
#      x y z
#    x 2.025550 0.000000 0.000000 
#    y 0.000000 1.985450 0.000000 
#    z 0.000000 0.000000 2.061240 
# 
# From -- ./inp_files/32620.got.cif
#   From: 2010.05.17/outbox.cif.g08.bks.cpg/sg52_17_cif.got.tgz:32620.got - 2010.06.03 12:15:38.
