data_PCOD9413068
_publ_section_title
;
Structure prediction by ZEFSAII (Michael W. Deem and Ramdas Pophale) SiO2 
 PCOD9413068
Probable space group: P N N A
;
_chemical_formula_sum "Si O2"
_cell_formula_units_Z 52
_cell_length_a 16.667621
_cell_length_b 9.127931
_cell_length_c 16.612931
_cell_angle_alpha 90.000000
_cell_angle_beta 90.000000
_cell_angle_gamma 90.000000
_cell_volume 2527.506181
_symmetry_space_group_name_H-M "P N N A"
_symmetry_group_IT_number 52
_symmetry_cell_setting 'orthorhombic'
loop_
_space_group_symop_operation_xyz
x,y,z
1/2-x,-y,z
x,1/2-y,1/2-z
1/2-x,1/2+y,1/2-z
-x,-y,-z
1/2+x,y,-z
-x,1/2+y,1/2+z
1/2+x,1/2-y,1/2+z
loop_
_atom_site_type_symbol
_atom_site_label
_atom_site_fract_x
_atom_site_fract_y
_atom_site_fract_z
Si Si1 0.972962 0.065156 0.698384
Si Si2 0.657715 0.393029 0.550608
Si Si3 0.322593 0.913681 0.225896
Si Si4 0.004266 0.207646 0.414456
Si Si5 0.952447 0.177749 0.923196
Si Si6 0.750000 0.500000 0.408457
Si Si7 0.422578 0.481489 0.660539
O O1 0.948188 0.215364 0.654146
O O2 0.901618 0.008030 0.756339
O O3 0.987606 0.946886 0.628060
O O4 0.051593 0.055496 0.755299
O O5 0.703883 0.384755 0.634374
O O6 0.590868 0.268943 0.559639
O O7 0.612983 0.551817 0.558327
O O8 0.713714 0.383381 0.472813
O O9 0.342651 0.750000 0.250000
O O10 0.250000 0.000000 0.267668
O O11 0.955372 0.222124 0.497324
O O12 0.965251 0.324539 0.352340
O O13 0.034523 0.084846 0.906963
O O14 0.671739 0.536191 0.355835
#
# Coordination Sequence:
#
# PCOD9413068 Si02
#       7
#     8   8   8   8   8   4   8
#     4  12  24  40  62  97 134 162 205 273 341 374
#     4  11  21  38  66  88 121 160 218 256 310 379
#     4  12  25  38  62  95 132 164 203 266 334 393
#     4  11  20  43  64  90 118 173 216 260 318 391
#     4  11  22  39  66  94 118 169 218 263 314 392
#     4  12  22  40  66  96 122 168 228 266 296 378
#     4  11  22  39  68  92 124 170 224 260 314 385
#
# _framework density 20.573639
#
# number of rings (size 3 to 8) (size 9 to 14) (size 15 to 20)
#    0.000    0.615    8.462    2.308    2.154    0.000 
#    0.000    3.077    0.000    1.846    0.000    0.000 
#    0.000    0.000    0.000    0.000    0.000    0.000 
#
# Total GULP energy -289906.248407 kJ/mol
# GULP energy per Si atom -5575.120162 kJ/mol
# Density = 2.052681 g / cm^3
# Si number density = 20.573639 Si / 1000 Ang^3
#
#
#
# Elastic Constant Matrix: (Units=GPa)
#
#
# Indices 1 2 3 4 5 6 
#
# 1 94.4952 13.6057 1.8962 0.0000 0.0000 0.0000
# 2 13.6057 96.4548 23.5693 0.0000 0.0000 0.0000
# 3 1.8962 23.5693 78.5801 0.0000 0.0000 0.0000
# 4 0.0000 0.0000 0.0000 30.1194 0.0000 0.0000
# 5 0.0000 0.0000 0.0000 0.0000 28.4968 0.0000
# 6 0.0000 0.0000 0.0000 0.0000 0.0000 15.3079
#
#
#
# Elastic Compliance Matrix: (Units=1/GPa)
#
#
# Indices 1 2 3 4 5 6 
#
# 1 0.010805 -0.001576 0.000212 0.000000 0.000000 0.000000
# 2 -0.001576 0.011417 -0.003386 0.000000 0.000000 0.000000
# 3 0.000212 -0.003386 0.013736 0.000000 0.000000 0.000000
# 4 0.000000 0.000000 0.000000 0.033201 0.000000 0.000000
# 5 0.000000 0.000000 0.000000 0.000000 0.035092 0.000000
# 6 0.000000 0.000000 0.000000 0.000000 0.000000 0.065326
#
#
# Mechanical properties :
#
#
# Convention : Reuss Voigt Hill
#
# Bulk Modulus (GPa) = 37.79564 38.63029 38.21297
# Shear Modulus (GPa) = 26.61021 30.14875 28.37948
#
# Velocity S-wave (km/s) = 3.60031 3.83222 3.71807
# Velocity P-wave (km/s) = 5.97442 6.19666 6.08655
#
# Compressibility (1/GPa) = 0.02645808
#
# Stress axis : x y z
#
# Youngs Moduli (GPa) = 92.54798 87.58593 72.79875
#
# Poissons Ratio (x) = 0.13803 -0.01543
# Poissons Ratio (y) = 0.14585 0.24653
# Poissons Ratio (z) = -0.01962 0.29661
#
# Static dielectric constant tensor:
#      x y z
#    x 1.788350 0.000000 0.000000 
#    y 0.000000 1.746560 0.000000 
#    z 0.000000 0.000000 1.819600 
# 
# From -- ./inp_files/33726.got.cif
#   From: 2010.05.17/outbox.cif.g08.bks.cpg/sg52_17_cif.got.tgz:33726.got - 2010.06.03 12:15:38.
