data_PCOD9413202
_publ_section_title
;
Structure prediction by ZEFSAII (Michael W. Deem and Ramdas Pophale) SiO2 
 PCOD9413202
Probable space group: P N N A
;
_chemical_formula_sum "Si O2"
_cell_formula_units_Z 48
_cell_length_a 8.397772
_cell_length_b 9.964629
_cell_length_c 28.779193
_cell_angle_alpha 90.000000
_cell_angle_beta 90.000000
_cell_angle_gamma 90.000000
_cell_volume 2408.262509
_symmetry_space_group_name_H-M "P N N A"
_symmetry_group_IT_number 52
_symmetry_cell_setting 'orthorhombic'
loop_
_space_group_symop_operation_xyz
x,y,z
1/2-x,-y,z
x,1/2-y,1/2-z
1/2-x,1/2+y,1/2-z
-x,-y,-z
1/2+x,y,-z
-x,1/2+y,1/2+z
1/2+x,1/2-y,1/2+z
loop_
_atom_site_type_symbol
_atom_site_label
_atom_site_fract_x
_atom_site_fract_y
_atom_site_fract_z
Si Si1 0.566131 0.340368 0.451633
Si Si2 0.935222 0.215267 0.151313
Si Si3 0.436733 0.971864 0.304502
Si Si4 0.437152 0.784193 0.645184
Si Si5 0.935483 0.039263 0.800908
Si Si6 0.550725 0.849119 0.050878
O O1 0.514905 0.253715 0.407365
O O2 0.503075 0.493354 0.446212
O O3 0.757615 0.346305 0.450739
O O4 0.513522 0.292662 0.502476
O O5 0.748807 0.249809 0.151204
O O6 0.998077 0.223397 0.098369
O O7 0.024336 0.317680 0.185204
O O8 0.963288 0.064012 0.168179
O O9 0.482878 0.016879 0.252580
O O10 0.250000 0.000000 0.309574
O O11 0.529786 0.063620 0.341173
O O12 0.533262 0.687930 0.680424
O O13 0.750000 0.000000 0.805274
#
# Coordination Sequence:
#
# PCOD9413202 Si02
#       6
#     8   8   8   8   8   8
#     4   9  18  34  56  85 115 143 184 235 282 335
#     4  11  22  39  61  87 117 151 194 239 285 340
#     4  11  25  41  56  83 120 155 194 237 288 345
#     4  11  22  39  61  87 117 151 194 239 285 340
#     4  11  23  39  60  85 116 153 194 241 286 337
#     4   9  18  34  56  85 115 143 184 235 282 335
#
# _framework density 19.931380999999998
#
# number of rings (size 3 to 8) (size 9 to 14) (size 15 to 20)
#    0.000    1.667    1.667    3.000    0.000    9.333 
#    0.000    0.833    0.000    0.000    0.000    0.000 
#    0.000    0.000    0.000    0.000    0.000    0.000 
#
# Total GULP energy -268224.995088 kJ/mol
# GULP energy per Si atom -5588.020731 kJ/mol
# Density = 1.988602 g / cm^3
# Si number density = 19.931381 Si / 1000 Ang^3
#
#
#
# Elastic Constant Matrix: (Units=GPa)
#
#
# Indices 1 2 3 4 5 6 
#
# 1 21.4041 -8.8313 9.9657 0.0000 0.0000 0.0000
# 2 -8.8313 29.2251 -6.9970 0.0000 0.0000 0.0000
# 3 9.9657 -6.9970 117.5552 0.0000 0.0000 0.0000
# 4 0.0000 0.0000 0.0000 13.8926 0.0000 0.0000
# 5 0.0000 0.0000 0.0000 0.0000 23.3781 0.0000
# 6 0.0000 0.0000 0.0000 0.0000 0.0000 28.4988
#
#
#
# Elastic Compliance Matrix: (Units=1/GPa)
#
#
# Indices 1 2 3 4 5 6 
#
# 1 0.054935 0.015709 -0.003722 0.000000 0.000000 0.000000
# 2 0.015709 0.039204 0.001002 0.000000 0.000000 0.000000
# 3 -0.003722 0.001002 0.008882 0.000000 0.000000 0.000000
# 4 0.000000 0.000000 0.000000 0.071981 0.000000 0.000000
# 5 0.000000 0.000000 0.000000 0.000000 0.042775 0.000000
# 6 0.000000 0.000000 0.000000 0.000000 0.000000 0.035089
#
#
# Mechanical properties :
#
#
# Convention : Reuss Voigt Hill
#
# Bulk Modulus (GPa) = 7.75206 17.38434 12.56820
# Shear Modulus (GPa) = 18.52626 24.75703 21.64165
#
# Velocity S-wave (km/s) = 3.05208 3.52819 3.29873
# Velocity P-wave (km/s) = 4.03956 5.03374 4.56380
#
# Compressibility (1/GPa) = 0.12899800
#
# Stress axis : x y z
#
# Youngs Moduli (GPa) = 18.20346 25.50760 112.58982
#
# Poissons Ratio (x) = -0.40070 0.41906
# Poissons Ratio (y) = -0.28596 -0.11279
# Poissons Ratio (z) = 0.06775 -0.02555
#
# Static dielectric constant tensor:
#      x y z
#    x 1.693790 0.000000 0.000000 
#    y 0.000000 1.652060 0.000000 
#    z 0.000000 0.000000 1.713960 
# 
# From -- ./inp_files/44386.got.cif
#   From: 2010.05.17/outbox.cif.g08.bks.cpg/sg52_23_cif.got.tgz:44386.got - 2010.06.03 12:15:38.
