data_PCOD9413488
_publ_section_title
;
Structure prediction by ZEFSAII (Michael W. Deem and Ramdas Pophale) SiO2 
 PCOD9413488
Probable space group: P N N A
;
_chemical_formula_sum "Si O2"
_cell_formula_units_Z 40
_cell_length_a 9.170353
_cell_length_b 21.751802
_cell_length_c 9.225483
_cell_angle_alpha 90.000000
_cell_angle_beta 90.000000
_cell_angle_gamma 90.000000
_cell_volume 1840.222802
_symmetry_space_group_name_H-M "P N N A"
_symmetry_group_IT_number 52
_symmetry_cell_setting 'orthorhombic'
loop_
_space_group_symop_operation_xyz
x,y,z
1/2-x,-y,z
x,1/2-y,1/2-z
1/2-x,1/2+y,1/2-z
-x,-y,-z
1/2+x,y,-z
-x,1/2+y,1/2+z
1/2+x,1/2-y,1/2+z
loop_
_atom_site_type_symbol
_atom_site_label
_atom_site_fract_x
_atom_site_fract_y
_atom_site_fract_z
Si Si1 0.046615 0.760589 0.595464
Si Si2 0.681979 0.432438 0.628029
Si Si3 0.846085 0.665355 0.124669
Si Si4 0.619431 0.045764 0.561053
Si Si5 0.475819 0.360458 0.413038
O O1 0.970810 0.750000 0.750000
O O2 0.192879 0.799293 0.627370
O O3 0.069591 0.695205 0.518579
O O4 0.948587 0.798590 0.486216
O O5 0.750000 0.500000 0.598251
O O6 0.590679 0.428093 0.778315
O O7 0.575858 0.408521 0.501854
O O8 0.825786 0.390178 0.642584
O O9 0.925550 0.662602 0.279381
O O10 0.836804 0.597480 0.054602
O O11 0.750000 0.000000 0.590340
O O12 0.500000 0.000000 0.500000
#
# Coordination Sequence:
#
# PCOD9413488 Si02
#       5
#     8   8   8   8   8
#     4  12  25  43  65  94 131 175 220 270 333 398
#     4  11  24  44  68 100 137 179 224 278 340 406
#     4  12  25  43  67  97 130 172 221 275 331 396
#     4  11  24  44  67  96 132 175 222 273 335 405
#     4  12  25  44  69 101 137 175 226 282 338 405
#
# _framework density 21.736498000000001
#
# number of rings (size 3 to 8) (size 9 to 14) (size 15 to 20)
#    0.000    0.400    0.000   10.800    0.000    4.000 
#    0.000    0.000    0.000    0.000    0.000    0.000 
#    0.000    0.000    0.000    0.000    0.000    0.000 
#
# Total GULP energy -223885.246634 kJ/mol
# GULP energy per Si atom -5597.131166 kJ/mol
# Density = 2.168702 g / cm^3
# Si number density = 21.736498 Si / 1000 Ang^3
#
#
#
# Elastic Constant Matrix: (Units=GPa)
#
#
# Indices 1 2 3 4 5 6 
#
# 1 52.9319 -7.1659 25.7522 0.0000 0.0000 0.0000
# 2 -7.1659 102.3565 28.3410 0.0000 0.0000 0.0000
# 3 25.7522 28.3410 157.8549 0.0000 0.0000 0.0000
# 4 0.0000 0.0000 0.0000 42.1816 0.0000 0.0000
# 5 0.0000 0.0000 0.0000 0.0000 30.1902 0.0000
# 6 0.0000 0.0000 0.0000 0.0000 0.0000 47.4354
#
#
#
# Elastic Compliance Matrix: (Units=1/GPa)
#
#
# Indices 1 2 3 4 5 6 
#
# 1 0.021141 0.002562 -0.003909 0.000000 0.000000 0.000000
# 2 0.002562 0.010591 -0.002320 0.000000 0.000000 0.000000
# 3 -0.003909 -0.002320 0.007389 0.000000 0.000000 0.000000
# 4 0.000000 0.000000 0.000000 0.023707 0.000000 0.000000
# 5 0.000000 0.000000 0.000000 0.000000 0.033123 0.000000
# 6 0.000000 0.000000 0.000000 0.000000 0.000000 0.021081
#
#
# Mechanical properties :
#
#
# Convention : Reuss Voigt Hill
#
# Bulk Modulus (GPa) = 31.45737 45.22199 38.33968
# Shear Modulus (GPa) = 37.04757 41.70918 39.37837
#
# Velocity S-wave (km/s) = 4.13291 4.38523 4.26094
# Velocity P-wave (km/s) = 6.10558 6.81836 6.47179
#
# Compressibility (1/GPa) = 0.03178905
#
# Stress axis : x y z
#
# Youngs Moduli (GPa) = 47.30184 94.41603 135.33479
#
# Poissons Ratio (x) = -0.24193 0.52901
# Poissons Ratio (y) = -0.12120 0.31392
# Poissons Ratio (z) = 0.18490 0.21901
#
# Static dielectric constant tensor:
#      x y z
#    x 1.746300 0.000000 0.000000 
#    y 0.000000 1.789610 0.000000 
#    z 0.000000 0.000000 1.849080 
# 
# From -- ./inp_files/7403.got.cif
#   From: 2010.05.17/outbox.cif.g08.bks.cpg/sg52_4_cif.got.tgz:7403.got - 2010.06.03 12:15:38.
