data_PCOD9413023
_publ_section_title
;
Structure prediction by ZEFSAII (Michael W. Deem and Ramdas Pophale) SiO2 
 PCOD9413023
Probable space group: P N N A
;
_chemical_formula_sum "Si O2"
_cell_formula_units_Z 60
_cell_length_a 16.808501
_cell_length_b 14.112270
_cell_length_c 11.326407
_cell_angle_alpha 90.000000
_cell_angle_beta 90.000000
_cell_angle_gamma 90.000000
_cell_volume 2686.692881
_symmetry_space_group_name_H-M "P N N A"
_symmetry_group_IT_number 52
_symmetry_cell_setting 'orthorhombic'
loop_
_space_group_symop_operation_xyz
x,y,z
1/2-x,-y,z
x,1/2-y,1/2-z
1/2-x,1/2+y,1/2-z
-x,-y,-z
1/2+x,y,-z
-x,1/2+y,1/2+z
1/2+x,1/2-y,1/2+z
loop_
_atom_site_type_symbol
_atom_site_label
_atom_site_fract_x
_atom_site_fract_y
_atom_site_fract_z
Si Si1 0.048629 0.192325 0.981348
Si Si2 0.886545 0.603430 0.258767
Si Si3 0.810803 0.705926 0.872990
Si Si4 0.533897 0.568152 0.362180
Si Si5 0.017241 0.879445 0.448811
Si Si6 0.763931 0.382963 0.102111
Si Si7 0.418895 0.534425 0.161025
Si Si8 0.613786 0.750000 0.250000
O O1 0.091567 0.179106 0.857273
O O2 0.980086 0.269026 0.962072
O O3 0.114635 0.230447 0.075201
O O4 0.004965 0.095490 0.013622
O O5 0.894990 0.502893 0.328019
O O6 0.802631 0.624610 0.203276
O O7 0.948384 0.602071 0.149263
O O8 0.779248 0.750000 0.750000
O O9 0.847091 0.604842 0.836467
O O10 0.757768 0.677988 0.985569
O O11 0.459899 0.529141 0.286253
O O12 0.558990 0.673161 0.316896
O O13 0.984656 0.920098 0.571768
O O14 0.094070 0.933533 0.401292
O O15 0.750000 0.500000 0.076608
O O16 0.836870 0.322571 0.162500
#
# Coordination Sequence:
#
# PCOD9413023 Si02
#       8
#     8   8   8   8   8   8   8   4
#     4  11  20  33  61  92 126 163 196 263 340 375
#     4  11  21  38  55  92 131 162 213 254 310 392
#     4  11  21  39  65  90 116 157 221 269 319 391
#     4  11  22  36  59  92 130 156 204 264 331 383
#     4   9  18  28  54  86 124 149 197 255 310 376
#     4  12  25  42  66  93 127 181 228 269 313 384
#     4   9  17  33  56  89 118 153 194 266 323 369
#     4  12  24  40  66  92 126 174 220 274 310 392
#
# _framework density 22.332287999999998
#
# number of rings (size 3 to 8) (size 9 to 14) (size 15 to 20)
#    0.000    1.333    5.333    3.200    0.000    1.067 
#    0.000    0.000    2.933    3.200    0.000    0.000 
#    0.000    0.000    0.000    0.000    0.000    0.000 
#
# Total GULP energy -334212.144473 kJ/mol
# GULP energy per Si atom -5570.202408 kJ/mol
# Density = 2.228146 g / cm^3
# Si number density = 22.332288 Si / 1000 Ang^3
#
#
#
# Elastic Constant Matrix: (Units=GPa)
#
#
# Indices 1 2 3 4 5 6 
#
# 1 29.6958 -1.7794 13.0422 0.0000 0.0000 0.0000
# 2 -1.7794 108.7484 24.8656 0.0000 0.0000 0.0000
# 3 13.0422 24.8656 110.1580 0.0000 0.0000 0.0000
# 4 0.0000 0.0000 0.0000 38.9213 0.0000 0.0000
# 5 0.0000 0.0000 0.0000 0.0000 24.1594 0.0000
# 6 0.0000 0.0000 0.0000 0.0000 0.0000 24.0320
#
#
#
# Elastic Compliance Matrix: (Units=1/GPa)
#
#
# Indices 1 2 3 4 5 6 
#
# 1 0.035797 0.001639 -0.004608 0.000000 0.000000 0.000000
# 2 0.001639 0.009771 -0.002400 0.000000 0.000000 0.000000
# 3 -0.004608 -0.002400 0.010165 0.000000 0.000000 0.000000
# 4 0.000000 0.000000 0.000000 0.025693 0.000000 0.000000
# 5 0.000000 0.000000 0.000000 0.000000 0.041392 0.000000
# 6 0.000000 0.000000 0.000000 0.000000 0.000000 0.041611
#
#
# Mechanical properties :
#
#
# Convention : Reuss Voigt Hill
#
# Bulk Modulus (GPa) = 22.22414 35.65099 28.93756
# Shear Modulus (GPa) = 26.29298 31.58745 28.94022
#
# Velocity S-wave (km/s) = 3.43498 3.76497 3.60375
# Velocity P-wave (km/s) = 5.07004 5.90750 5.50472
#
# Compressibility (1/GPa) = 0.04499612
#
# Stress axis : x y z
#
# Youngs Moduli (GPa) = 27.93532 102.34312 98.37544
#
# Poissons Ratio (x) = -0.16778 0.45334
# Poissons Ratio (y) = -0.04580 0.23607
# Poissons Ratio (z) = 0.12873 0.24559
#
# Static dielectric constant tensor:
#      x y z
#    x 1.816930 0.000000 0.000000 
#    y 0.000000 1.944980 0.000000 
#    z 0.000000 0.000000 1.852780 
# 
# From -- ./inp_files/20859.got.cif
#   From: 2010.05.17/outbox.cif.g08.bks.cpg/sg52_11_cif.got.tgz:20859.got - 2010.06.03 12:15:38.
