data_PCOD9413034
_publ_section_title
;
Structure prediction by ZEFSAII (Michael W. Deem and Ramdas Pophale) SiO2 
 PCOD9413034
Probable space group: P N N A
;
_chemical_formula_sum "Si O2"
_cell_formula_units_Z 40
_cell_length_a 9.067506
_cell_length_b 22.467210
_cell_length_c 9.187988
_cell_angle_alpha 90.000000
_cell_angle_beta 90.000000
_cell_angle_gamma 90.000000
_cell_volume 1871.791262
_symmetry_space_group_name_H-M "P N N A"
_symmetry_group_IT_number 52
_symmetry_cell_setting 'orthorhombic'
loop_
_space_group_symop_operation_xyz
x,y,z
1/2-x,-y,z
x,1/2-y,1/2-z
1/2-x,1/2+y,1/2-z
-x,-y,-z
1/2+x,y,-z
-x,1/2+y,1/2+z
1/2+x,1/2-y,1/2+z
loop_
_atom_site_type_symbol
_atom_site_label
_atom_site_fract_x
_atom_site_fract_y
_atom_site_fract_z
Si Si1 0.075576 0.356331 0.067750
Si Si2 0.098534 0.468623 0.885039
Si Si3 0.734981 0.427813 0.674314
Si Si4 0.744535 0.814000 0.321457
Si Si5 0.567993 0.094661 0.120099
O O1 0.171528 0.392655 0.185923
O O2 0.916721 0.340206 0.133932
O O3 0.063313 0.402036 0.934172
O O4 0.166493 0.306915 0.976408
O O5 0.250000 0.500000 0.914177
O O6 0.084362 0.466637 0.712840
O O7 0.000000 0.500000 0.000000
O O8 0.750000 0.500000 0.699746
O O9 0.624231 0.416249 0.541458
O O10 0.891780 0.397803 0.631304
O O11 0.725026 0.750000 0.250000
O O12 0.828006 0.855657 0.199868
#
# Coordination Sequence:
#
# PCOD9413034 Si02
#       5
#     8   8   8   8   8
#     4  11  23  42  68  97 130 172 226 277 339 412
#     4  11  20  36  62  94 131 173 215 265 326 401
#     4  12  24  41  66 102 144 182 217 276 347 413
#     4  11  26  48  70  97 131 178 235 291 339 394
#     4  11  24  41  64 100 141 181 234 279 334 412
#
# _framework density 21.369903000000001
#
# number of rings (size 3 to 8) (size 9 to 14) (size 15 to 20)
#    0.000    0.800    0.000   10.200    0.000    3.200 
#    0.000    2.000    0.000    0.000    0.000    0.000 
#    0.000    0.000    0.000    0.000    0.000    0.000 
#
# Total GULP energy -222707.227796 kJ/mol
# GULP energy per Si atom -5567.680695 kJ/mol
# Density = 2.132126 g / cm^3
# Si number density = 21.369903 Si / 1000 Ang^3
#
#
#
# Elastic Constant Matrix: (Units=GPa)
#
#
# Indices 1 2 3 4 5 6 
#
# 1 114.5139 12.5245 17.2915 0.0000 0.0000 0.0000
# 2 12.5245 62.1592 23.4107 0.0000 0.0000 0.0000
# 3 17.2915 23.4107 109.5161 0.0000 0.0000 0.0000
# 4 0.0000 0.0000 0.0000 49.9373 0.0000 0.0000
# 5 0.0000 0.0000 0.0000 0.0000 50.7546 0.0000
# 6 0.0000 0.0000 0.0000 0.0000 0.0000 20.6426
#
#
#
# Elastic Compliance Matrix: (Units=1/GPa)
#
#
# Indices 1 2 3 4 5 6 
#
# 1 0.009056 -0.001399 -0.001131 0.000000 0.000000 0.000000
# 2 -0.001399 0.017712 -0.003565 0.000000 0.000000 0.000000
# 3 -0.001131 -0.003565 0.010072 0.000000 0.000000 0.000000
# 4 0.000000 0.000000 0.000000 0.020025 0.000000 0.000000
# 5 0.000000 0.000000 0.000000 0.000000 0.019703 0.000000
# 6 0.000000 0.000000 0.000000 0.000000 0.000000 0.048444
#
#
# Mechanical properties :
#
#
# Convention : Reuss Voigt Hill
#
# Bulk Modulus (GPa) = 40.56761 43.62696 42.09729
# Shear Modulus (GPa) = 34.38345 39.79775 37.09060
#
# Velocity S-wave (km/s) = 4.01554 4.32015 4.17063
# Velocity P-wave (km/s) = 6.36586 6.73382 6.55243
#
# Compressibility (1/GPa) = 0.02465021
#
# Stress axis : x y z
#
# Youngs Moduli (GPa) = 110.42015 56.45765 99.28716
#
# Poissons Ratio (x) = 0.07898 0.11228
# Poissons Ratio (y) = 0.15446 0.35400
# Poissons Ratio (z) = 0.12487 0.20130
#
# Static dielectric constant tensor:
#      x y z
#    x 1.886290 0.000000 0.000000 
#    y 0.000000 1.929820 0.000000 
#    z 0.000000 0.000000 1.703820 
# 
# From -- ./inp_files/7446.got.cif
#   From: 2010.05.17/outbox.cif.g08.bks.cpg/sg52_4_cif.got.tgz:7446.got - 2010.06.03 12:15:38.
