data_PCOD9413350
_publ_section_title
;
Structure prediction by ZEFSAII (Michael W. Deem and Ramdas Pophale) SiO2 
 PCOD9413350
Probable space group: P N N A
;
_chemical_formula_sum "Si O2"
_cell_formula_units_Z 60
_cell_length_a 10.222727
_cell_length_b 26.578140
_cell_length_c 9.542246
_cell_angle_alpha 90.000000
_cell_angle_beta 90.000000
_cell_angle_gamma 90.000000
_cell_volume 2592.638443
_symmetry_space_group_name_H-M "P N N A"
_symmetry_group_IT_number 52
_symmetry_cell_setting 'orthorhombic'
loop_
_space_group_symop_operation_xyz
x,y,z
1/2-x,-y,z
x,1/2-y,1/2-z
1/2-x,1/2+y,1/2-z
-x,-y,-z
1/2+x,y,-z
-x,1/2+y,1/2+z
1/2+x,1/2-y,1/2+z
loop_
_atom_site_type_symbol
_atom_site_label
_atom_site_fract_x
_atom_site_fract_y
_atom_site_fract_z
Si Si1 0.945569 0.128033 0.154690
Si Si2 0.174187 0.908629 0.456348
Si Si3 0.495947 0.254424 0.085303
Si Si4 0.742837 0.944819 0.264532
Si Si5 0.910251 0.950551 0.983492
Si Si6 0.263178 0.282439 0.605083
Si Si7 0.250000 0.000000 0.264673
Si Si8 0.420665 0.646682 0.068424
O O1 0.898163 0.074146 0.216574
O O2 0.820775 0.161742 0.121867
O O3 0.026021 0.104674 0.028523
O O4 0.018434 0.157226 0.277663
O O5 0.262532 0.911301 0.599522
O O6 0.175143 0.959960 0.365543
O O7 0.271184 0.867628 0.389105
O O8 0.028587 0.892439 0.500712
O O9 0.467895 0.250000 0.250000
O O10 0.614200 0.215917 0.053472
O O11 0.365409 0.244414 0.998429
O O12 0.562320 0.306439 0.035180
O O13 0.750000 0.000000 0.325443
O O14 0.827489 0.946982 0.125777
O O15 0.828122 0.963866 0.843410
O O16 0.000000 0.000000 0.000000
O O17 0.262825 0.250000 0.750000
#
# Coordination Sequence:
#
# PCOD9413350 Si02
#       8
#     8   8   8   8   8   8   4   8
#     4  11  24  43  71  95 138 196 233 287 367 429
#     4  11  26  41  75 101 139 186 246 289 354 423
#     4  11  26  48  73 104 141 181 235 301 371 432
#     4  11  23  42  62  98 138 187 230 291 356 412
#     4  12  24  43  66  98 148 188 242 297 358 427
#     4  11  25  48  73 102 142 183 237 297 368 441
#     4  12  24  42  64 108 138 190 244 290 344 436
#     4  11  24  47  71 102 139 185 236 299 353 435
#
# _framework density 23.142447000000001
#
# number of rings (size 3 to 8) (size 9 to 14) (size 15 to 20)
#    0.000    0.800    5.333    0.800    9.333    1.067 
#    4.800    0.000    0.000    0.000    0.000    0.000 
#    0.000    0.000    0.000    0.000    0.000    0.000 
#
# Total GULP energy -334342.149342 kJ/mol
# GULP energy per Si atom -5572.369156 kJ/mol
# Density = 2.308977 g / cm^3
# Si number density = 23.142447 Si / 1000 Ang^3
#
#
#
# Elastic Constant Matrix: (Units=GPa)
#
#
# Indices 1 2 3 4 5 6 
#
# 1 79.1123 -5.8929 20.0086 0.0000 0.0000 0.0000
# 2 -5.8929 73.3808 4.3937 0.0000 0.0000 0.0000
# 3 20.0086 4.3937 82.7890 0.0000 0.0000 0.0000
# 4 0.0000 0.0000 0.0000 16.2372 0.0000 0.0000
# 5 0.0000 0.0000 0.0000 0.0000 -5.4404 0.0000
# 6 0.0000 0.0000 0.0000 0.0000 0.0000 42.4965
#
#
#
# Elastic Compliance Matrix: (Units=1/GPa)
#
#
# Indices 1 2 3 4 5 6 
#
# 1 0.013584 0.001292 -0.003352 0.000000 0.000000 0.000000
# 2 0.001292 0.013794 -0.001044 0.000000 0.000000 0.000000
# 3 -0.003352 -0.001044 0.012944 0.000000 0.000000 0.000000
# 4 0.000000 0.000000 0.000000 0.061587 0.000000 0.000000
# 5 0.000000 0.000000 0.000000 0.000000 -0.183811 0.000000
# 6 0.000000 0.000000 0.000000 0.000000 0.000000 0.023531
#
#
# Mechanical properties :
#
#
# Convention : Reuss Voigt Hill
#
# Bulk Modulus (GPa) = 29.31365 30.25566 29.78466
# Shear Modulus (GPa) = -122.57813 25.11017 -48.73398
#
# Velocity S-wave (km/s) = -7.28572 3.29755 -4.59391
# Velocity P-wave (km/s) = 7.62113 5.25362 3.90392
#
# Compressibility (1/GPa) = 0.03411379
#
# Stress axis : x y z
#
# Youngs Moduli (GPa) = 73.61529 72.49647 77.25389
#
# Poissons Ratio (x) = -0.09363 0.25892
# Poissons Ratio (y) = -0.09508 0.08067
# Poissons Ratio (z) = 0.24673 0.07570
#
# Static dielectric constant tensor:
#      x y z
#    x 1.977810 0.000000 0.000000 
#    y 0.000000 1.843800 0.000000 
#    z 0.000000 0.000000 1.883520 
# 
# From -- ./inp_files/9047.got.cif
#   From: 2010.05.17/outbox.cif.g08.bks.cpg/sg52_5_cif.got.tgz:9047.got - 2010.06.03 12:15:38.
