data_PCOD9413819
_publ_section_title
;
Structure prediction by ZEFSAII (Michael W. Deem and Ramdas Pophale) SiO2 
 PCOD9413819
Probable space group: P N N A
;
_chemical_formula_sum "Si O2"
_cell_formula_units_Z 32
_cell_length_a 16.102791
_cell_length_b 15.024523
_cell_length_c 5.055092
_cell_angle_alpha 90.000000
_cell_angle_beta 90.000000
_cell_angle_gamma 90.000000
_cell_volume 1223.012548
_symmetry_space_group_name_H-M "P N N A"
_symmetry_group_IT_number 52
_symmetry_cell_setting 'orthorhombic'
loop_
_space_group_symop_operation_xyz
x,y,z
1/2-x,-y,z
x,1/2-y,1/2-z
1/2-x,1/2+y,1/2-z
-x,-y,-z
1/2+x,y,-z
-x,1/2+y,1/2+z
1/2+x,1/2-y,1/2+z
loop_
_atom_site_type_symbol
_atom_site_label
_atom_site_fract_x
_atom_site_fract_y
_atom_site_fract_z
Si Si1 0.750000 0.500000 0.025312
Si Si2 0.322585 0.844451 0.891756
Si Si3 0.907800 0.098779 0.644558
Si Si4 0.193898 0.750000 0.250000
Si Si5 0.506319 0.145645 0.831655
O O1 0.716096 0.418130 0.201386
O O2 0.832456 0.470026 0.869440
O O3 0.344151 0.750000 0.750000
O O4 0.252055 0.817544 0.097541
O O5 0.404316 0.875641 0.043950
O O6 0.863275 0.191847 0.560696
O O7 0.980486 0.091296 0.428956
O O8 0.942821 0.117881 0.935643
O O9 0.510013 0.250000 0.750000
#
# Coordination Sequence:
#
# PCOD9413819 Si02
#       5
#     4   8   8   4   8
#     4  12  30  52  82 126 168 222 278 350 414 500
#     4  12  27  52  80 117 169 217 280 344 419 493
#     4  12  27  48  82 116 164 211 278 332 412 491
#     4  12  24  46  86 112 162 218 274 334 412 496
#     4  12  25  49  82 118 159 220 270 341 413 492
#
# _framework density 26.164901
#
# number of rings (size 3 to 8) (size 9 to 14) (size 15 to 20)
#    0.000    0.000    6.250    3.000    0.000    6.000 
#    0.000    0.000    0.000    0.000    0.000    0.000 
#    0.000    0.000    0.000    0.000    0.000    0.000 
#
# Total GULP energy -179546.730166 kJ/mol
# GULP energy per Si atom -5610.835318 kJ/mol
# Density = 2.610535 g / cm^3
# Si number density = 26.164901 Si / 1000 Ang^3
#
#
#
# Elastic Constant Matrix: (Units=GPa)
#
#
# Indices 1 2 3 4 5 6 
#
# 1 128.2459 73.3952 37.6186 0.0000 0.0000 0.0000
# 2 73.3952 156.0976 70.4153 0.0000 0.0000 0.0000
# 3 37.6186 70.4153 124.4135 0.0000 0.0000 0.0000
# 4 0.0000 0.0000 0.0000 54.3618 0.0000 0.0000
# 5 0.0000 0.0000 0.0000 0.0000 34.0963 0.0000
# 6 0.0000 0.0000 0.0000 0.0000 0.0000 27.5593
#
#
#
# Elastic Compliance Matrix: (Units=1/GPa)
#
#
# Indices 1 2 3 4 5 6 
#
# 1 0.010693 -0.004793 -0.000521 0.000000 0.000000 0.000000
# 2 -0.004793 0.010751 -0.004636 0.000000 0.000000 0.000000
# 3 -0.000521 -0.004636 0.010819 0.000000 0.000000 0.000000
# 4 0.000000 0.000000 0.000000 0.018395 0.000000 0.000000
# 5 0.000000 0.000000 0.000000 0.000000 0.029329 0.000000
# 6 0.000000 0.000000 0.000000 0.000000 0.000000 0.036285
#
#
# Mechanical properties :
#
#
# Convention : Reuss Voigt Hill
#
# Bulk Modulus (GPa) = 80.87538 85.73502 83.30520
# Shear Modulus (GPa) = 35.63993 38.35867 36.99930
#
# Velocity S-wave (km/s) = 3.69470 3.83304 3.76451
# Velocity P-wave (km/s) = 7.01271 7.24071 7.12762
#
# Compressibility (1/GPa) = 0.01236470
#
# Stress axis : x y z
#
# Youngs Moduli (GPa) = 93.51685 93.01503 92.43230
#
# Poissons Ratio (x) = 0.44582 0.04812
# Poissons Ratio (y) = 0.44823 0.42847
# Poissons Ratio (z) = 0.04868 0.43118
#
# Static dielectric constant tensor:
#      x y z
#    x 2.001170 0.000000 0.000000 
#    y 0.000000 2.162070 0.000000 
#    z 0.000000 0.000000 2.045240 
# 
# From -- ./inp_files/2039.got.cif
#   From: 2010.05.17/outbox.cif.g08.bks.cpg/sg52_2_cif.got.tgz:2039.got - 2010.06.03 12:15:38.
