data_PCOD9413012
_publ_section_title
;
Structure prediction by ZEFSAII (Michael W. Deem and Ramdas Pophale) SiO2 
 PCOD9413012
Probable space group: P N N A
;
_chemical_formula_sum "Si O2"
_cell_formula_units_Z 40
_cell_length_a 13.144753
_cell_length_b 9.138347
_cell_length_c 14.864242
_cell_angle_alpha 90.000000
_cell_angle_beta 90.000000
_cell_angle_gamma 90.000000
_cell_volume 1785.512283
_symmetry_space_group_name_H-M "P N N A"
_symmetry_group_IT_number 52
_symmetry_cell_setting 'orthorhombic'
loop_
_space_group_symop_operation_xyz
x,y,z
1/2-x,-y,z
x,1/2-y,1/2-z
1/2-x,1/2+y,1/2-z
-x,-y,-z
1/2+x,y,-z
-x,1/2+y,1/2+z
1/2+x,1/2-y,1/2+z
loop_
_atom_site_type_symbol
_atom_site_label
_atom_site_fract_x
_atom_site_fract_y
_atom_site_fract_z
Si Si1 0.695107 0.345074 0.563065
Si Si2 0.493147 0.088762 0.849267
Si Si3 0.361482 0.498012 0.810317
Si Si4 0.377864 0.300834 0.981756
Si Si5 0.052943 0.231201 0.900803
O O1 0.750000 0.500000 0.574901
O O2 0.602678 0.335659 0.634684
O O3 0.785300 0.228846 0.549861
O O4 0.638267 0.330525 0.467552
O O5 0.415578 0.160321 0.922131
O O6 0.440965 0.087630 0.751994
O O7 0.504607 0.914810 0.868928
O O8 0.250000 0.500000 0.766183
O O9 0.352489 0.419159 0.906538
O O10 0.397962 0.661848 0.828917
O O11 0.475539 0.331225 0.042635
#
# Coordination Sequence:
#
# PCOD9413012 Si02
#       5
#     8   8   8   8   8
#     4  11  19  40  70  93 118 174 233 260 311 401
#     4  11  24  38  65  98 129 170 222 277 325 395
#     4  12  26  39  63 101 141 164 210 290 353 373
#     4  11  22  42  69  91 127 176 227 269 318 410
#     4  11  22  40  67  97 126 172 223 267 325 405
#
# _framework density 22.402535
#
# number of rings (size 3 to 8) (size 9 to 14) (size 15 to 20)
#    0.000    0.800    6.000    3.000    2.800    1.600 
#    0.000    0.000   17.600    0.000    0.000    0.000 
#    0.000    0.000    0.000    0.000    0.000    0.000 
#
# Total GULP energy -223394.515317 kJ/mol
# GULP energy per Si atom -5584.862883 kJ/mol
# Density = 2.235155 g / cm^3
# Si number density = 22.402535 Si / 1000 Ang^3
#
#
#
# Elastic Constant Matrix: (Units=GPa)
#
#
# Indices 1 2 3 4 5 6 
#
# 1 129.2176 26.5390 43.3472 0.0000 0.0000 0.0000
# 2 26.5390 73.6473 28.7963 0.0000 0.0000 0.0000
# 3 43.3472 28.7963 70.9356 0.0000 0.0000 0.0000
# 4 0.0000 0.0000 0.0000 22.7971 0.0000 0.0000
# 5 0.0000 0.0000 0.0000 0.0000 27.0653 0.0000
# 6 0.0000 0.0000 0.0000 0.0000 0.0000 19.9183
#
#
#
# Elastic Compliance Matrix: (Units=1/GPa)
#
#
# Indices 1 2 3 4 5 6 
#
# 1 0.009858 -0.001423 -0.005447 0.000000 0.000000 0.000000
# 2 -0.001423 0.016345 -0.005766 0.000000 0.000000 0.000000
# 3 -0.005447 -0.005766 0.019766 0.000000 0.000000 0.000000
# 4 0.000000 0.000000 0.000000 0.043865 0.000000 0.000000
# 5 0.000000 0.000000 0.000000 0.000000 0.036948 0.000000
# 6 0.000000 0.000000 0.000000 0.000000 0.000000 0.050205
#
#
# Mechanical properties :
#
#
# Convention : Reuss Voigt Hill
#
# Bulk Modulus (GPa) = 48.31099 52.35174 50.33137
# Shear Modulus (GPa) = 23.90534 25.63068 24.76801
#
# Velocity S-wave (km/s) = 3.27017 3.38612 3.32865
# Velocity P-wave (km/s) = 5.98919 6.22151 6.10645
#
# Compressibility (1/GPa) = 0.02069923
#
# Stress axis : x y z
#
# Youngs Moduli (GPa) = 101.43836 61.17899 50.59127
#
# Poissons Ratio (x) = 0.08705 0.27555
# Poissons Ratio (y) = 0.14433 0.29171
# Poissons Ratio (z) = 0.55249 0.35276
#
# Static dielectric constant tensor:
#      x y z
#    x 1.839340 0.000000 0.000000 
#    y 0.000000 1.857130 0.000000 
#    z 0.000000 0.000000 1.829460 
# 
# From -- ./inp_files/26906.got.cif
#   From: 2010.05.17/outbox.cif.g08.bks.cpg/sg52_14_cif.got.tgz:26906.got - 2010.06.03 12:15:38.
