data_PCOD9413406
_publ_section_title
;
Structure prediction by ZEFSAII (Michael W. Deem and Ramdas Pophale) SiO2 
 PCOD9413406
Probable space group: P N N A
;
_chemical_formula_sum "Si O2"
_cell_formula_units_Z 40
_cell_length_a 10.040862
_cell_length_b 13.726916
_cell_length_c 11.916962
_cell_angle_alpha 90.000000
_cell_angle_beta 90.000000
_cell_angle_gamma 90.000000
_cell_volume 1642.515698
_symmetry_space_group_name_H-M "P N N A"
_symmetry_group_IT_number 52
_symmetry_cell_setting 'orthorhombic'
loop_
_space_group_symop_operation_xyz
x,y,z
1/2-x,-y,z
x,1/2-y,1/2-z
1/2-x,1/2+y,1/2-z
-x,-y,-z
1/2+x,y,-z
-x,1/2+y,1/2+z
1/2+x,1/2-y,1/2+z
loop_
_atom_site_type_symbol
_atom_site_label
_atom_site_fract_x
_atom_site_fract_y
_atom_site_fract_z
Si Si1 0.331836 0.633499 0.233777
Si Si2 0.053439 0.527035 0.620948
Si Si3 0.944332 0.821284 0.507960
Si Si4 0.471233 0.134073 0.272296
Si Si5 0.796500 0.283065 0.381502
O O1 0.336173 0.750000 0.250000
O O2 0.438515 0.587667 0.315349
O O3 0.180133 0.604334 0.254109
O O4 0.375619 0.617125 0.105799
O O5 0.065856 0.430246 0.695565
O O6 0.000000 0.500000 0.500000
O O7 0.173922 0.602323 0.610962
O O8 0.830487 0.750773 0.454852
O O9 0.995649 0.881456 0.401797
O O10 0.072509 0.767544 0.561972
O O11 0.480714 0.250000 0.250000
O O12 0.787421 0.250000 0.250000
#
# Coordination Sequence:
#
# PCOD9413406 Si02
#       5
#     8   8   8   8   8
#     4  11  23  45  79 107 157 214 261 328 415 479
#     4  12  26  45  77 118 158 202 272 335 403 491
#     4  12  23  48  80 107 158 205 265 325 407 490
#     4  11  26  46  73 113 155 213 265 331 409 487
#     4  12  26  50  79 116 158 210 266 339 413 486
#
# _framework density 24.352888
#
# number of rings (size 3 to 8) (size 9 to 14) (size 15 to 20)
#    0.000    0.400    6.000    2.400    2.800    2.400 
#    0.000    8.000    0.000    0.000    0.000    0.000 
#    0.000    0.000    0.000    0.000    0.000    0.000 
#
# Total GULP energy -224339.656799 kJ/mol
# GULP energy per Si atom -5608.491420 kJ/mol
# Density = 2.429746 g / cm^3
# Si number density = 24.352888 Si / 1000 Ang^3
#
#
#
# Elastic Constant Matrix: (Units=GPa)
#
#
# Indices 1 2 3 4 5 6 
#
# 1 172.7284 22.8093 39.1029 0.0000 0.0000 0.0000
# 2 22.8093 85.8269 26.2634 0.0000 0.0000 0.0000
# 3 39.1029 26.2634 177.9115 0.0000 0.0000 0.0000
# 4 0.0000 0.0000 0.0000 52.7989 0.0000 0.0000
# 5 0.0000 0.0000 0.0000 0.0000 23.3530 0.0000
# 6 0.0000 0.0000 0.0000 0.0000 0.0000 25.4008
#
#
#
# Elastic Compliance Matrix: (Units=1/GPa)
#
#
# Indices 1 2 3 4 5 6 
#
# 1 0.006227 -0.001295 -0.001178 0.000000 0.000000 0.000000
# 2 -0.001295 0.012472 -0.001557 0.000000 0.000000 0.000000
# 3 -0.001178 -0.001557 0.006109 0.000000 0.000000 0.000000
# 4 0.000000 0.000000 0.000000 0.018940 0.000000 0.000000
# 5 0.000000 0.000000 0.000000 0.000000 0.042821 0.000000
# 6 0.000000 0.000000 0.000000 0.000000 0.000000 0.039369
#
#
# Mechanical properties :
#
#
# Convention : Reuss Voigt Hill
#
# Bulk Modulus (GPa) = 59.69865 68.09088 63.89476
# Shear Modulus (GPa) = 35.82214 43.52996 39.67605
#
# Velocity S-wave (km/s) = 3.83947 4.23243 4.04073
# Velocity P-wave (km/s) = 6.65001 7.20454 6.93282
#
# Compressibility (1/GPa) = 0.01675080
#
# Stress axis : x y z
#
# Youngs Moduli (GPa) = 160.59211 80.18145 163.68344
#
# Poissons Ratio (x) = 0.10380 0.19274
# Poissons Ratio (y) = 0.20789 0.25478
# Poissons Ratio (z) = 0.18910 0.12481
#
# Static dielectric constant tensor:
#      x y z
#    x 1.949290 0.000000 0.000000 
#    y 0.000000 2.002470 0.000000 
#    z 0.000000 0.000000 1.883220 
# 
# From -- ./inp_files/17985.got.cif
#   From: 2010.05.17/outbox.cif.g08.bks.cpg/sg52_9_cif.got.tgz:17985.got - 2010.06.03 12:15:38.
