data_PCOD9413257
_publ_section_title
;
Structure prediction by ZEFSAII (Michael W. Deem and Ramdas Pophale) SiO2 
 PCOD9413257
Probable space group: P N N A
;
_chemical_formula_sum "Si O2"
_cell_formula_units_Z 60
_cell_length_a 9.023682
_cell_length_b 10.459611
_cell_length_c 28.769467
_cell_angle_alpha 90.000000
_cell_angle_beta 90.000000
_cell_angle_gamma 90.000000
_cell_volume 2715.383228
_symmetry_space_group_name_H-M "P N N A"
_symmetry_group_IT_number 52
_symmetry_cell_setting 'orthorhombic'
loop_
_space_group_symop_operation_xyz
x,y,z
1/2-x,-y,z
x,1/2-y,1/2-z
1/2-x,1/2+y,1/2-z
-x,-y,-z
1/2+x,y,-z
-x,1/2+y,1/2+z
1/2+x,1/2-y,1/2+z
loop_
_atom_site_type_symbol
_atom_site_label
_atom_site_fract_x
_atom_site_fract_y
_atom_site_fract_z
Si Si1 0.484952 0.589727 0.693877
Si Si2 0.657186 0.809518 0.200863
Si Si3 0.057168 0.203199 0.504539
Si Si4 0.814025 0.367774 0.507829
Si Si5 0.924562 0.642671 0.841019
Si Si6 0.202050 0.642662 0.380746
Si Si7 0.074846 0.994451 0.429709
Si Si8 0.750000 0.000000 0.739669
O O1 0.424370 0.443998 0.690458
O O2 0.333342 0.666851 0.704131
O O3 0.549031 0.653154 0.647038
O O4 0.625575 0.576891 0.729698
O O5 0.611087 0.750000 0.250000
O O6 0.583851 0.708624 0.165844
O O7 0.226349 0.242586 0.509229
O O8 0.020633 0.110030 0.462108
O O9 0.981325 0.339153 0.494199
O O10 0.997189 0.133225 0.550289
O O11 0.750000 0.500000 0.489883
O O12 0.806003 0.362313 0.563766
O O13 0.815218 0.747322 0.864704
O O14 0.945381 0.524373 0.875929
O O15 0.844099 0.593376 0.794279
O O16 0.250000 0.500000 0.365892
O O17 0.250000 0.000000 0.437998
#
# Coordination Sequence:
#
# PCOD9413257 Si02
#       8
#     8   8   8   8   8   8   8   4
#     4  11  24  43  68 103 139 195 231 291 369 408
#     4  11  24  44  65  98 152 182 230 302 357 421
#     4  11  22  44  70  99 136 182 223 290 364 417
#     4  11  24  43  72 104 138 183 234 295 350 432
#     4  12  23  42  70 105 138 183 246 297 342 424
#     4  11  22  42  69 101 137 179 248 297 342 423
#     4  11  22  42  72 101 141 181 232 295 350 427
#     4  12  24  40  78 106 138 194 254 278 344 456
#
# _framework density 22.096329000000001
#
# number of rings (size 3 to 8) (size 9 to 14) (size 15 to 20)
#    0.000    0.800    6.667    0.400    1.867    0.000 
#    2.400    0.000    5.867    0.000    0.000    0.000 
#    0.000    0.000    0.000    0.000    0.000    0.000 
#
# Total GULP energy -334903.607779 kJ/mol
# GULP energy per Si atom -5581.726796 kJ/mol
# Density = 2.204604 g / cm^3
# Si number density = 22.096329 Si / 1000 Ang^3
#
#
#
# Elastic Constant Matrix: (Units=GPa)
#
#
# Indices 1 2 3 4 5 6 
#
# 1 97.4825 29.4885 33.1826 0.0000 0.0000 0.0000
# 2 29.4885 77.5885 16.0138 0.0000 0.0000 0.0000
# 3 33.1826 16.0138 50.0511 0.0000 0.0000 0.0000
# 4 0.0000 0.0000 0.0000 17.3403 0.0000 0.0000
# 5 0.0000 0.0000 0.0000 0.0000 16.6596 0.0000
# 6 0.0000 0.0000 0.0000 0.0000 0.0000 41.3124
#
#
#
# Elastic Compliance Matrix: (Units=1/GPa)
#
#
# Indices 1 2 3 4 5 6 
#
# 1 0.014171 -0.003690 -0.008214 0.000000 0.000000 0.000000
# 2 -0.003690 0.014761 -0.002276 0.000000 0.000000 0.000000
# 3 -0.008214 -0.002276 0.026153 0.000000 0.000000 0.000000
# 4 0.000000 0.000000 0.000000 0.057669 0.000000 0.000000
# 5 0.000000 0.000000 0.000000 0.000000 0.060025 0.000000
# 6 0.000000 0.000000 0.000000 0.000000 0.000000 0.024206
#
#
# Mechanical properties :
#
#
# Convention : Reuss Voigt Hill
#
# Bulk Modulus (GPa) = 37.41958 42.49909 39.95934
# Shear Modulus (GPa) = 21.34432 24.82494 23.08463
#
# Velocity S-wave (km/s) = 3.11137 3.35548 3.23573
# Velocity P-wave (km/s) = 5.46617 5.85557 5.66422
#
# Compressibility (1/GPa) = 0.02672397
#
# Stress axis : x y z
#
# Youngs Moduli (GPa) = 70.56860 67.74670 38.23580
#
# Poissons Ratio (x) = 0.25001 0.31407
# Poissons Ratio (y) = 0.26043 0.08703
# Poissons Ratio (z) = 0.57965 0.15420
#
# Static dielectric constant tensor:
#      x y z
#    x 1.799020 0.000000 0.000000 
#    y 0.000000 1.826810 0.000000 
#    z 0.000000 0.000000 1.810630 
# 
# From -- ./inp_files/42356.got.cif
#   From: 2010.05.17/outbox.cif.g08.bks.cpg/sg52_22_cif.got.tgz:42356.got - 2010.06.03 12:15:38.
