data_PCOD9413810
_publ_section_title
;
Structure prediction by ZEFSAII (Michael W. Deem and Ramdas Pophale) SiO2 
 PCOD9413810
Probable space group: P N N A
;
_chemical_formula_sum "Si O2"
_cell_formula_units_Z 20
_cell_length_a 5.312257
_cell_length_b 5.111153
_cell_length_c 34.491465
_cell_angle_alpha 90.000000
_cell_angle_beta 90.000000
_cell_angle_gamma 90.000000
_cell_volume 936.503921
_symmetry_space_group_name_H-M "P N N A"
_symmetry_group_IT_number 52
_symmetry_cell_setting 'orthorhombic'
loop_
_space_group_symop_operation_xyz
x,y,z
1/2-x,-y,z
x,1/2-y,1/2-z
1/2-x,1/2+y,1/2-z
-x,-y,-z
1/2+x,y,-z
-x,1/2+y,1/2+z
1/2+x,1/2-y,1/2+z
loop_
_atom_site_type_symbol
_atom_site_label
_atom_site_fract_x
_atom_site_fract_y
_atom_site_fract_z
Si Si1 0.110295 0.250000 0.250000
Si Si2 0.750000 0.500000 0.133190
Si Si3 0.750000 0.500000 0.526330
Si Si4 0.250000 0.000000 0.418366
Si Si5 0.750000 0.000000 0.186412
O O1 0.250000 0.500000 0.231717
O O2 0.958771 0.108932 0.215840
O O3 0.500602 0.539046 0.107375
O O4 0.690622 0.246771 0.159470
O O5 0.500000 0.500000 0.500000
O O6 0.770290 0.249836 0.553982
#
# Coordination Sequence:
#
# PCOD9413810 Si02
#       5
#     4   4   4   4   4
#     4  12  26  46  74 100 142 184 264 314 368 438
#     4  12  27  45  74  98 155 186 238 292 373 434
#     4  12  24  45  76 104 142 184 234 288 348 416
#     4  12  26  47  68 112 140 188 234 288 352 444
#     4  12  27  47  66 108 131 200 240 310 365 428
#
# _framework density 21.356021999999999
#
# number of rings (size 3 to 8) (size 9 to 14) (size 15 to 20)
#    0.000    0.000    0.000   10.800    8.400    0.000 
#    0.000    0.000    0.000    0.000    0.000    0.000 
#    0.000    0.000    0.000    0.000    0.000    0.000 
#
# Total GULP energy -111927.533999 kJ/mol
# GULP energy per Si atom -5596.376700 kJ/mol
# Density = 2.130741 g / cm^3
# Si number density = 21.356022 Si / 1000 Ang^3
#
#
#
# Elastic Constant Matrix: (Units=GPa)
#
#
# Indices 1 2 3 4 5 6 
#
# 1 163.6894 61.9547 86.3719 0.0000 0.0000 0.0000
# 2 61.9547 234.0087 96.7551 0.0000 0.0000 0.0000
# 3 86.3719 96.7551 152.7961 0.0000 0.0000 0.0000
# 4 0.0000 0.0000 0.0000 56.8868 0.0000 0.0000
# 5 0.0000 0.0000 0.0000 0.0000 41.0755 0.0000
# 6 0.0000 0.0000 0.0000 0.0000 0.0000 43.0288
#
#
#
# Elastic Compliance Matrix: (Units=1/GPa)
#
#
# Indices 1 2 3 4 5 6 
#
# 1 0.008729 -0.000367 -0.004702 0.000000 0.000000 0.000000
# 2 -0.000367 0.005804 -0.003468 0.000000 0.000000 0.000000
# 3 -0.004702 -0.003468 0.011399 0.000000 0.000000 0.000000
# 4 0.000000 0.000000 0.000000 0.017579 0.000000 0.000000
# 5 0.000000 0.000000 0.000000 0.000000 0.024345 0.000000
# 6 0.000000 0.000000 0.000000 0.000000 0.000000 0.023240
#
#
# Mechanical properties :
#
#
# Convention : Reuss Voigt Hill
#
# Bulk Modulus (GPa) = 112.89060 115.62861 114.25961
# Shear Modulus (GPa) = 44.99504 48.55906 46.77705
#
# Velocity S-wave (km/s) = 4.59508 4.77360 4.68519
# Velocity P-wave (km/s) = 9.00716 9.20021 9.10420
#
# Compressibility (1/GPa) = 0.00885813
#
# Stress axis : x y z
#
# Youngs Moduli (GPa) = 114.56030 172.28139 87.72935
#
# Poissons Ratio (x) = 0.06322 0.41250
# Poissons Ratio (y) = 0.04204 0.30426
# Poissons Ratio (z) = 0.53866 0.59750
#
# Static dielectric constant tensor:
#      x y z
#    x 1.841380 0.000000 0.000000 
#    y 0.000000 1.672180 0.000000 
#    z 0.000000 0.000000 1.751530 
# 
# From -- ./inp_files/38405.got.cif
#   From: 2010.05.17/outbox.cif.g08.bks.cpg/sg52_20_cif.got.tgz:38405.got - 2010.06.03 12:15:38.
