data_PCOD9413113
_publ_section_title
;
Structure prediction by ZEFSAII (Michael W. Deem and Ramdas Pophale) SiO2 
 PCOD9413113
Probable space group: P N N A
;
_chemical_formula_sum "Si O2"
_cell_formula_units_Z 32
_cell_length_a 8.843097
_cell_length_b 13.313665
_cell_length_c 10.659068
_cell_angle_alpha 90.000000
_cell_angle_beta 90.000000
_cell_angle_gamma 90.000000
_cell_volume 1254.935043
_symmetry_space_group_name_H-M "P N N A"
_symmetry_group_IT_number 52
_symmetry_cell_setting 'orthorhombic'
loop_
_space_group_symop_operation_xyz
x,y,z
1/2-x,-y,z
x,1/2-y,1/2-z
1/2-x,1/2+y,1/2-z
-x,-y,-z
1/2+x,y,-z
-x,1/2+y,1/2+z
1/2+x,1/2-y,1/2+z
loop_
_atom_site_type_symbol
_atom_site_label
_atom_site_fract_x
_atom_site_fract_y
_atom_site_fract_z
Si Si1 0.315313 0.611224 0.349258
Si Si2 0.205082 0.816007 0.413562
Si Si3 0.143053 0.925036 0.831013
Si Si4 0.372355 0.611901 0.844619
O O1 0.250000 0.500000 0.343864
O O2 0.227390 0.696127 0.427811
O O3 0.303612 0.649918 0.205725
O O4 0.490208 0.611990 0.388953
O O5 0.269884 0.875035 0.532338
O O6 0.032300 0.839032 0.376513
O O7 0.264576 0.851445 0.769539
O O8 0.250000 0.000000 0.910131
O O9 0.094015 0.000055 0.713479
#
# Coordination Sequence:
#
# PCOD9413113 Si02
#       4
#     8   8   8   8
#     4  11  21  38  57  90 124 162 206 259 322 362
#     4  11  22  35  61  90 126 160 207 263 307 373
#     4   8  19  35  66  87 118 153 213 263 301 363
#     4   9  20  37  59  95 115 160 209 259 304 368
#
# _framework density 25.499327000000001
#
# number of rings (size 3 to 8) (size 9 to 14) (size 15 to 20)
#    1.500    0.500    2.500    1.500    3.500    5.000 
#    0.000   18.750    0.000    0.000    0.000    0.000 
#    0.000    0.000    0.000    0.000    0.000    0.000 
#
# Total GULP energy -178561.743026 kJ/mol
# GULP energy per Si atom -5580.054470 kJ/mol
# Density = 2.544129 g / cm^3
# Si number density = 25.499327 Si / 1000 Ang^3
#
#
#
# Elastic Constant Matrix: (Units=GPa)
#
#
# Indices 1 2 3 4 5 6 
#
# 1 201.2914 31.0169 -20.2566 0.0000 0.0000 0.0000
# 2 31.0169 142.7298 -4.1342 0.0000 0.0000 0.0000
# 3 -20.2566 -4.1342 56.9076 0.0000 0.0000 0.0000
# 4 0.0000 0.0000 0.0000 15.3002 0.0000 0.0000
# 5 0.0000 0.0000 0.0000 0.0000 36.3798 0.0000
# 6 0.0000 0.0000 0.0000 0.0000 0.0000 -4.8364
#
#
#
# Elastic Compliance Matrix: (Units=1/GPa)
#
#
# Indices 1 2 3 4 5 6 
#
# 1 0.005321 -0.001104 0.001814 0.000000 0.000000 0.000000
# 2 -0.001104 0.007250 0.000134 0.000000 0.000000 0.000000
# 3 0.001814 0.000134 0.018228 0.000000 0.000000 0.000000
# 4 0.000000 0.000000 0.000000 0.065359 0.000000 0.000000
# 5 0.000000 0.000000 0.000000 0.000000 0.027488 0.000000
# 6 0.000000 0.000000 0.000000 0.000000 0.000000 -0.206767
#
#
# Mechanical properties :
#
#
# Convention : Reuss Voigt Hill
#
# Bulk Modulus (GPa) = 30.78266 46.02011 38.40138
# Shear Modulus (GPa) = -67.58443 35.65559 -15.96442
#
# Velocity S-wave (km/s) = -5.15383 3.74344 -2.50486
# Velocity P-wave (km/s) = 4.82885 6.06392 2.59359
#
# Compressibility (1/GPa) = 0.03248583
#
# Stress axis : x y z
#
# Youngs Moduli (GPa) = 187.95212 137.93176 54.86165
#
# Poissons Ratio (x) = 0.15223 -0.09950
# Poissons Ratio (y) = 0.20744 -0.00734
# Poissons Ratio (z) = -0.34089 -0.01846
#
# Static dielectric constant tensor:
#      x y z
#    x 2.001210 0.000000 0.000000 
#    y 0.000000 2.182920 0.000000 
#    z 0.000000 0.000000 2.004050 
# 
# From -- ./inp_files/24256.got.cif
#   From: 2010.05.17/outbox.cif.g08.bks.cpg/sg52_13_cif.got.tgz:24256.got - 2010.06.03 12:15:38.
