data_PCOD9413761
_publ_section_title
;
Structure prediction by ZEFSAII (Michael W. Deem and Ramdas Pophale) SiO2 
 PCOD9413761
Probable space group: P N N A
;
_chemical_formula_sum "Si O2"
_cell_formula_units_Z 40
_cell_length_a 7.593777
_cell_length_b 16.976351
_cell_length_c 11.410479
_cell_angle_alpha 90.000000
_cell_angle_beta 90.000000
_cell_angle_gamma 90.000000
_cell_volume 1470.977607
_symmetry_space_group_name_H-M "P N N A"
_symmetry_group_IT_number 52
_symmetry_cell_setting 'orthorhombic'
loop_
_space_group_symop_operation_xyz
x,y,z
1/2-x,-y,z
x,1/2-y,1/2-z
1/2-x,1/2+y,1/2-z
-x,-y,-z
1/2+x,y,-z
-x,1/2+y,1/2+z
1/2+x,1/2-y,1/2+z
loop_
_atom_site_type_symbol
_atom_site_label
_atom_site_fract_x
_atom_site_fract_y
_atom_site_fract_z
Si Si1 0.884358 0.430670 0.727593
Si Si2 0.601642 0.251115 0.389648
Si Si3 0.229191 0.415579 0.883802
Si Si4 0.060716 0.156902 0.253782
Si Si5 0.612563 0.640536 0.483725
O O1 0.750000 0.500000 0.758097
O O2 0.766622 0.357632 0.775728
O O3 0.892268 0.422731 0.586605
O O4 0.075442 0.434560 0.787130
O O5 0.600456 0.250000 0.250000
O O6 0.658543 0.166076 0.437825
O O7 0.712136 0.330941 0.418228
O O8 0.424181 0.276751 0.450549
O O9 0.250000 0.500000 0.948417
O O10 0.418174 0.387984 0.833094
O O11 0.021494 0.250000 0.250000
O O12 0.020395 0.125103 0.122547
#
# Coordination Sequence:
#
# PCOD9413761 Si02
#       5
#     8   8   8   8   8
#     4  12  27  42  68 112 140 182 238 294 368 437
#     4  12  24  45  71 106 142 188 242 294 355 432
#     4  12  25  48  71 101 151 189 229 303 363 417
#     4  12  25  44  72 104 142 189 236 295 362 429
#     4  12  23  43  71 101 142 184 237 295 355 429
#
# _framework density 27.192800999999999
#
# number of rings (size 3 to 8) (size 9 to 14) (size 15 to 20)
#    0.000    0.000   10.000    0.000    2.800    1.600 
#    0.000    1.000    0.000    0.000    0.000    0.000 
#    0.000    0.000    0.000    0.000    0.000    0.000 
#
# Total GULP energy -223668.067809 kJ/mol
# GULP energy per Si atom -5591.701695 kJ/mol
# Density = 2.713091 g / cm^3
# Si number density = 27.192801 Si / 1000 Ang^3
#
#
#
# Elastic Constant Matrix: (Units=GPa)
#
#
# Indices 1 2 3 4 5 6 
#
# 1 91.4924 11.2629 18.1825 0.0000 0.0000 0.0000
# 2 11.2629 126.5098 -23.1080 0.0000 0.0000 0.0000
# 3 18.1825 -23.1080 61.9492 0.0000 0.0000 0.0000
# 4 0.0000 0.0000 0.0000 29.9260 0.0000 0.0000
# 5 0.0000 0.0000 0.0000 0.0000 31.3786 0.0000
# 6 0.0000 0.0000 0.0000 0.0000 0.0000 51.9895
#
#
#
# Elastic Compliance Matrix: (Units=1/GPa)
#
#
# Indices 1 2 3 4 5 6 
#
# 1 0.011991 -0.001835 -0.004204 0.000000 0.000000 0.000000
# 2 -0.001835 0.008763 0.003808 0.000000 0.000000 0.000000
# 3 -0.004204 0.003808 0.018797 0.000000 0.000000 0.000000
# 4 0.000000 0.000000 0.000000 0.033416 0.000000 0.000000
# 5 0.000000 0.000000 0.000000 0.000000 0.031869 0.000000
# 6 0.000000 0.000000 0.000000 0.000000 0.000000 0.019235
#
#
# Mechanical properties :
#
#
# Convention : Reuss Voigt Hill
#
# Bulk Modulus (GPa) = 28.50046 32.51400 30.50723
# Shear Modulus (GPa) = 35.65560 40.89976 38.27768
#
# Velocity S-wave (km/s) = 3.62500 3.88244 3.75592
# Velocity P-wave (km/s) = 5.29381 5.66397 5.48202
#
# Compressibility (1/GPa) = 0.03508715
#
# Stress axis : x y z
#
# Youngs Moduli (GPa) = 83.39358 114.11062 53.20136
#
# Poissons Ratio (x) = 0.20945 0.22367
# Poissons Ratio (y) = 0.15307 -0.20257
# Poissons Ratio (z) = 0.35060 -0.43449
#
# Static dielectric constant tensor:
#      x y z
#    x 2.249430 0.000000 0.000000 
#    y 0.000000 2.194390 0.000000 
#    z 0.000000 0.000000 2.201980 
# 
# From -- ./inp_files/16658.got.cif
#   From: 2010.05.17/outbox.cif.g08.bks.cpg/sg52_9_cif.got.tgz:16658.got - 2010.06.03 12:15:38.
