data_PCOD9413910
_publ_section_title
;
Structure prediction by ZEFSAII (Michael W. Deem and Ramdas Pophale) SiO2 
 PCOD9413910
Probable space group: P N N A
;
_chemical_formula_sum "Si O2"
_cell_formula_units_Z 32
_cell_length_a 15.558922
_cell_length_b 16.772663
_cell_length_c 5.052056
_cell_angle_alpha 90.000000
_cell_angle_beta 90.000000
_cell_angle_gamma 90.000000
_cell_volume 1318.407548
_symmetry_space_group_name_H-M "P N N A"
_symmetry_group_IT_number 52
_symmetry_cell_setting 'orthorhombic'
loop_
_space_group_symop_operation_xyz
x,y,z
1/2-x,-y,z
x,1/2-y,1/2-z
1/2-x,1/2+y,1/2-z
-x,-y,-z
1/2+x,y,-z
-x,1/2+y,1/2+z
1/2+x,1/2-y,1/2+z
loop_
_atom_site_type_symbol
_atom_site_label
_atom_site_fract_x
_atom_site_fract_y
_atom_site_fract_z
Si Si1 0.458706 0.339007 0.335556
Si Si2 0.221393 0.661033 0.652454
Si Si3 0.114774 0.070524 0.050961
Si Si4 0.380877 0.457423 0.953569
O O1 0.481168 0.250000 0.250000
O O2 0.365688 0.336438 0.477699
O O3 0.531185 0.374525 0.525706
O O4 0.449941 0.396647 0.080701
O O5 0.239044 0.750000 0.750000
O O6 0.301892 0.623540 0.505107
O O7 0.199223 0.600161 0.890449
O O8 0.103468 0.004106 0.819370
O O9 0.128317 0.023111 0.320335
#
# Coordination Sequence:
#
# PCOD9413910 Si02
#       4
#     8   8   8   8
#     4  12  27  50  77 111 154 201 252 313 386 452
#     4  12  28  49  78 114 157 200 256 318 389 454
#     4  12  30  48  79 110 154 198 260 310 380 453
#     4  12  27  49  74 113 148 204 251 316 368 456
#
# _framework density 24.271705000000001
#
# number of rings (size 3 to 8) (size 9 to 14) (size 15 to 20)
#    0.000    0.000    5.000    3.000   10.500    0.000 
#    0.000    3.750    0.000    0.000    0.000    0.000 
#    0.000    0.000    0.000    0.000    0.000    0.000 
#
# Total GULP energy -179528.087034 kJ/mol
# GULP energy per Si atom -5610.252720 kJ/mol
# Density = 2.421646 g / cm^3
# Si number density = 24.271705 Si / 1000 Ang^3
#
#
#
# Elastic Constant Matrix: (Units=GPa)
#
#
# Indices 1 2 3 4 5 6 
#
# 1 117.1880 69.9401 34.6167 0.0000 0.0000 0.0000
# 2 69.9401 187.8887 47.1978 0.0000 0.0000 0.0000
# 3 34.6167 47.1978 124.8317 0.0000 0.0000 0.0000
# 4 0.0000 0.0000 0.0000 33.3317 0.0000 0.0000
# 5 0.0000 0.0000 0.0000 0.0000 29.7698 0.0000
# 6 0.0000 0.0000 0.0000 0.0000 0.0000 -23.5329
#
#
#
# Elastic Compliance Matrix: (Units=1/GPa)
#
#
# Indices 1 2 3 4 5 6 
#
# 1 0.011289 -0.003774 -0.001703 0.000000 0.000000 0.000000
# 2 -0.003774 0.007143 -0.001654 0.000000 0.000000 0.000000
# 3 -0.001703 -0.001654 0.009109 0.000000 0.000000 0.000000
# 4 0.000000 0.000000 0.000000 0.030001 0.000000 0.000000
# 5 0.000000 0.000000 0.000000 0.000000 0.033591 0.000000
# 6 0.000000 0.000000 0.000000 0.000000 0.000000 -0.042494
#
#
# Mechanical properties :
#
#
# Convention : Reuss Voigt Hill
#
# Bulk Modulus (GPa) = 75.31957 81.49083 78.40520
# Shear Modulus (GPa) = 74.26285 26.45731 50.36008
#
# Velocity S-wave (km/s) = 5.53741 3.30517 4.55999
# Velocity P-wave (km/s) = 8.48428 6.94355 7.75229
#
# Compressibility (1/GPa) = 0.01327676
#
# Stress axis : x y z
#
# Youngs Moduli (GPa) = 88.58088 140.00203 109.78725
#
# Poissons Ratio (x) = 0.52842 0.18702
# Poissons Ratio (y) = 0.33434 0.18158
# Poissons Ratio (z) = 0.15090 0.23156
#
# Static dielectric constant tensor:
#      x y z
#    x 1.948060 0.000000 0.000000 
#    y 0.000000 1.887590 0.000000 
#    z 0.000000 0.000000 1.944290 
# 
# From -- ./inp_files/3061.got.cif
#   From: 2010.05.17/outbox.cif.g08.bks.cpg/sg52_2_cif.got.tgz:3061.got - 2010.06.03 12:15:38.
