data_PCOD9413573
_publ_section_title
;
Structure prediction by ZEFSAII (Michael W. Deem and Ramdas Pophale) SiO2 
 PCOD9413573
Probable space group: P N N A
;
_chemical_formula_sum "Si O2"
_cell_formula_units_Z 32
_cell_length_a 14.887738
_cell_length_b 17.102240
_cell_length_c 5.123083
_cell_angle_alpha 90.000000
_cell_angle_beta 90.000000
_cell_angle_gamma 90.000000
_cell_volume 1304.406956
_symmetry_space_group_name_H-M "P N N A"
_symmetry_group_IT_number 52
_symmetry_cell_setting 'orthorhombic'
loop_
_space_group_symop_operation_xyz
x,y,z
1/2-x,-y,z
x,1/2-y,1/2-z
1/2-x,1/2+y,1/2-z
-x,-y,-z
1/2+x,y,-z
-x,1/2+y,1/2+z
1/2+x,1/2-y,1/2+z
loop_
_atom_site_type_symbol
_atom_site_label
_atom_site_fract_x
_atom_site_fract_y
_atom_site_fract_z
Si Si1 0.073904 0.338148 0.823959
Si Si2 0.595793 0.565217 0.020301
Si Si3 0.144396 0.024421 0.017839
Si Si4 0.740221 0.801927 0.507845
O O1 0.045660 0.250000 0.750000
O O2 0.119440 0.389438 0.589967
O O3 0.989651 0.384443 0.936248
O O4 0.155911 0.325541 0.022988
O O5 0.613101 0.497603 0.807433
O O6 0.681411 0.621229 0.006217
O O7 0.592874 0.531297 0.310698
O O8 0.250000 0.000000 0.996253
O O9 0.712145 0.750000 0.750000
O O10 0.729031 0.750000 0.250000
#
# Coordination Sequence:
#
# PCOD9413573 Si02
#       4
#     8   8   8   8
#     4  11  27  48  73 113 149 196 247 312 376 443
#     4  12  26  48  77 106 148 195 255 301 375 445
#     4  12  26  49  78 107 150 199 248 307 373 446
#     4  11  25  44  72 108 151 197 245 310 374 441
#
# _framework density 24.532219000000001
#
# number of rings (size 3 to 8) (size 9 to 14) (size 15 to 20)
#    0.000    0.500    2.500    4.500    3.500    5.000 
#    0.000    0.000    0.000    0.000    0.000    0.000 
#    0.000    0.000    0.000    0.000    0.000    0.000 
#
# Total GULP energy -179569.229844 kJ/mol
# GULP energy per Si atom -5611.538433 kJ/mol
# Density = 2.447638 g / cm^3
# Si number density = 24.532219 Si / 1000 Ang^3
#
#
#
# Elastic Constant Matrix: (Units=GPa)
#
#
# Indices 1 2 3 4 5 6 
#
# 1 110.0675 27.4657 2.8203 0.0000 0.0000 0.0000
# 2 27.4657 144.5850 28.2843 0.0000 0.0000 0.0000
# 3 2.8203 28.2843 102.8053 0.0000 0.0000 0.0000
# 4 0.0000 0.0000 0.0000 35.4854 0.0000 0.0000
# 5 0.0000 0.0000 0.0000 0.0000 9.4733 0.0000
# 6 0.0000 0.0000 0.0000 0.0000 0.0000 47.6198
#
#
#
# Elastic Compliance Matrix: (Units=1/GPa)
#
#
# Indices 1 2 3 4 5 6 
#
# 1 0.009544 -0.001862 0.000250 0.000000 0.000000 0.000000
# 2 -0.001862 0.007673 -0.002060 0.000000 0.000000 0.000000
# 3 0.000250 -0.002060 0.010287 0.000000 0.000000 0.000000
# 4 0.000000 0.000000 0.000000 0.028181 0.000000 0.000000
# 5 0.000000 0.000000 0.000000 0.000000 0.105560 0.000000
# 6 0.000000 0.000000 0.000000 0.000000 0.000000 0.021000
#
#
# Mechanical properties :
#
#
# Convention : Reuss Voigt Hill
#
# Bulk Modulus (GPa) = 49.60142 52.73315 51.16728
# Shear Modulus (GPa) = 25.47039 38.44156 31.95598
#
# Velocity S-wave (km/s) = 3.22567 3.96281 3.61309
# Velocity P-wave (km/s) = 5.84261 6.51771 6.18937
#
# Compressibility (1/GPa) = 0.02016071
#
# Stress axis : x y z
#
# Youngs Moduli (GPa) = 104.78306 130.32682 97.21006
#
# Poissons Ratio (x) = 0.24266 -0.02435
# Poissons Ratio (y) = 0.19510 0.20025
# Poissons Ratio (z) = -0.02624 0.26847
#
# Static dielectric constant tensor:
#      x y z
#    x 1.931450 0.000000 0.000000 
#    y 0.000000 1.946500 0.000000 
#    z 0.000000 0.000000 1.898430 
# 
# From -- ./inp_files/1913.got.cif
#   From: 2010.05.17/outbox.cif.g08.bks.cpg/sg52_1_cif.got.tgz:1913.got - 2010.06.03 12:15:38.
