data_PCOD9413927
_publ_section_title
;
Structure prediction by ZEFSAII (Michael W. Deem and Ramdas Pophale) SiO2 
 PCOD9413927
Probable space group: P N N A
;
_chemical_formula_sum "Si O2"
_cell_formula_units_Z 20
_cell_length_a 8.715478
_cell_length_b 10.609234
_cell_length_c 7.685966
_cell_angle_alpha 90.000000
_cell_angle_beta 90.000000
_cell_angle_gamma 90.000000
_cell_volume 710.679353
_symmetry_space_group_name_H-M "P N N A"
_symmetry_group_IT_number 52
_symmetry_cell_setting 'orthorhombic'
loop_
_space_group_symop_operation_xyz
x,y,z
1/2-x,-y,z
x,1/2-y,1/2-z
1/2-x,1/2+y,1/2-z
-x,-y,-z
1/2+x,y,-z
-x,1/2+y,1/2+z
1/2+x,1/2-y,1/2+z
loop_
_atom_site_type_symbol
_atom_site_label
_atom_site_fract_x
_atom_site_fract_y
_atom_site_fract_z
Si Si1 0.689093 0.646433 0.110190
Si Si2 0.064621 0.010866 0.193808
Si Si3 0.115073 0.750000 0.250000
O O1 0.750000 0.500000 0.091945
O O2 0.740718 0.750000 0.250000
O O3 0.516543 0.613523 0.186136
O O4 0.703803 0.728066 0.931524
O O5 0.017113 0.875145 0.264262
O O6 0.250000 0.000000 0.192075
O O7 0.000000 0.000000 0.000000
#
# Coordination Sequence:
#
# PCOD9413927 Si02
#       3
#     8   8   4
#     4  12  29  56  92 133 184 243 305 379 463 548
#     4  12  28  51  86 130 175 238 304 378 459 546
#     4  12  28  50  92 120 184 230 314 358 466 540
#
# _framework density 28.142087
#
# number of rings (size 3 to 8) (size 9 to 14) (size 15 to 20)
#    0.000    0.000    4.000    3.600    5.600    1.600 
#    0.000    2.000    0.000    0.000    0.000    0.000 
#    0.000    0.000    0.000    0.000    0.000    0.000 
#
# Total GULP energy -111496.233101 kJ/mol
# GULP energy per Si atom -5574.811655 kJ/mol
# Density = 2.807803 g / cm^3
# Si number density = 28.142087 Si / 1000 Ang^3
#
#
#
# Elastic Constant Matrix: (Units=GPa)
#
#
# Indices 1 2 3 4 5 6 
#
# 1 201.4923 53.6201 44.0980 0.0000 0.0000 0.0000
# 2 53.6201 200.0070 54.8364 0.0000 0.0000 0.0000
# 3 44.0980 54.8364 259.7240 0.0000 0.0000 0.0000
# 4 0.0000 0.0000 0.0000 67.1533 0.0000 0.0000
# 5 0.0000 0.0000 0.0000 0.0000 16.2277 0.0000
# 6 0.0000 0.0000 0.0000 0.0000 0.0000 57.6569
#
#
#
# Elastic Compliance Matrix: (Units=1/GPa)
#
#
# Indices 1 2 3 4 5 6 
#
# 1 0.005447 -0.001281 -0.000654 0.000000 0.000000 0.000000
# 2 -0.001281 0.005608 -0.000967 0.000000 0.000000 0.000000
# 3 -0.000654 -0.000967 0.004165 0.000000 0.000000 0.000000
# 4 0.000000 0.000000 0.000000 0.014891 0.000000 0.000000
# 5 0.000000 0.000000 0.000000 0.000000 0.061623 0.000000
# 6 0.000000 0.000000 0.000000 0.000000 0.000000 0.017344
#
#
# Mechanical properties :
#
#
# Convention : Reuss Voigt Hill
#
# Bulk Modulus (GPa) = 106.19181 107.37029 106.78105
# Shear Modulus (GPa) = 42.36512 62.11886 52.24199
#
# Velocity S-wave (km/s) = 3.88416 4.70332 4.31323
# Velocity P-wave (km/s) = 7.61129 8.22987 7.92661
#
# Compressibility (1/GPa) = 0.00941692
#
# Stress axis : x y z
#
# Youngs Moduli (GPa) = 183.58554 178.30920 240.07102
#
# Poissons Ratio (x) = 0.22839 0.15710
# Poissons Ratio (y) = 0.23515 0.23205
# Poissons Ratio (z) = 0.12014 0.17235
#
# Static dielectric constant tensor:
#      x y z
#    x 2.512500 0.000000 0.000000 
#    y 0.000000 2.192620 0.000000 
#    z 0.000000 0.000000 -12.536640 
# 
# From -- ./inp_files/6876.got.cif
#   From: 2010.05.17/outbox.cif.g08.bks.cpg/sg52_4_cif.got.tgz:6876.got - 2010.06.03 12:15:38.
