data_PCOD9413050
_publ_section_title
;
Structure prediction by ZEFSAII (Michael W. Deem and Ramdas Pophale) SiO2 
 PCOD9413050
Probable space group: P N N A
;
_chemical_formula_sum "Si O2"
_cell_formula_units_Z 64
_cell_length_a 18.743436
_cell_length_b 14.125967
_cell_length_c 12.140567
_cell_angle_alpha 90.000000
_cell_angle_beta 90.000000
_cell_angle_gamma 90.000000
_cell_volume 3214.447707
_symmetry_space_group_name_H-M "P N N A"
_symmetry_group_IT_number 52
_symmetry_cell_setting 'orthorhombic'
loop_
_space_group_symop_operation_xyz
x,y,z
1/2-x,-y,z
x,1/2-y,1/2-z
1/2-x,1/2+y,1/2-z
-x,-y,-z
1/2+x,y,-z
-x,1/2+y,1/2+z
1/2+x,1/2-y,1/2+z
loop_
_atom_site_type_symbol
_atom_site_label
_atom_site_fract_x
_atom_site_fract_y
_atom_site_fract_z
Si Si1 0.721160 0.284435 0.874048
Si Si2 0.673078 0.970213 0.906847
Si Si3 0.482518 0.838516 0.809461
Si Si4 0.019458 0.996380 0.371952
Si Si5 0.121763 0.731934 0.440940
Si Si6 0.598569 0.157871 0.962215
Si Si7 0.823825 0.508870 0.845488
Si Si8 0.024048 0.790347 0.638843
O O1 0.728288 0.250000 0.750000
O O2 0.804461 0.287023 0.911854
O O3 0.673493 0.214948 0.949962
O O4 0.673512 0.377865 0.853132
O O5 0.615804 0.054160 0.914839
O O6 0.684965 0.960339 0.774832
O O7 0.750000 0.000000 0.952269
O O8 0.648909 0.874818 0.964849
O O9 0.446089 0.750000 0.750000
O O10 0.559222 0.796360 0.852468
O O11 0.489634 0.922826 0.719676
O O12 0.435863 0.859458 0.917778
O O13 0.102101 0.970129 0.382045
O O14 0.003169 0.103891 0.336593
O O15 0.000000 0.000000 0.500000
O O16 0.079991 0.782947 0.539178
O O17 0.541500 0.221444 0.895923
O O18 0.750000 0.500000 0.910442
O O19 0.057217 0.750000 0.750000
#
# Coordination Sequence:
#
# PCOD9413050 Si02
#       8
#     8   8   8   8   8   8   8   8
#     4  12  21  38  64  95 129 160 210 271 329 387
#     4  11  20  38  62 100 122 158 210 273 333 388
#     4  11  26  42  64  92 129 173 221 263 333 402
#     4  12  25  43  66  94 132 173 219 275 329 401
#     4  11  24  39  67  94 130 170 215 273 334 388
#     4  11  22  39  65  91 127 167 206 270 325 391
#     4  11  23  36  62  95 128 160 208 272 333 389
#     4  11  25  42  63  94 132 174 219 262 328 402
#
# _framework density 19.910108000000001
#
# number of rings (size 3 to 8) (size 9 to 14) (size 15 to 20)
#    0.000    0.750    5.000    3.750    5.250    1.000 
#    0.000    0.625    0.000    0.750    0.000    0.000 
#    0.000    0.000    0.000    0.000    0.000    0.000 
#
# Total GULP energy -356388.780469 kJ/mol
# GULP energy per Si atom -5568.574695 kJ/mol
# Density = 1.986479 g / cm^3
# Si number density = 19.910108 Si / 1000 Ang^3
#
#
#
# Elastic Constant Matrix: (Units=GPa)
#
#
# Indices 1 2 3 4 5 6 
#
# 1 106.1025 12.6257 44.8638 0.0000 0.0000 0.0000
# 2 12.6257 94.3298 33.7274 0.0000 0.0000 0.0000
# 3 44.8638 33.7274 95.4523 0.0000 0.0000 0.0000
# 4 0.0000 0.0000 0.0000 30.1690 0.0000 0.0000
# 5 0.0000 0.0000 0.0000 0.0000 24.2043 0.0000
# 6 0.0000 0.0000 0.0000 0.0000 0.0000 33.3154
#
#
#
# Elastic Compliance Matrix: (Units=1/GPa)
#
#
# Indices 1 2 3 4 5 6 
#
# 1 0.011780 0.000461 -0.005700 0.000000 0.000000 0.000000
# 2 0.000461 0.012152 -0.004511 0.000000 0.000000 0.000000
# 3 -0.005700 -0.004511 0.014749 0.000000 0.000000 0.000000
# 4 0.000000 0.000000 0.000000 0.033147 0.000000 0.000000
# 5 0.000000 0.000000 0.000000 0.000000 0.041315 0.000000
# 6 0.000000 0.000000 0.000000 0.000000 0.000000 0.030016
#
#
# Mechanical properties :
#
#
# Convention : Reuss Voigt Hill
#
# Bulk Modulus (GPa) = 52.12943 53.14648 52.63795
# Shear Modulus (GPa) = 29.57675 31.18226 30.37950
#
# Velocity S-wave (km/s) = 3.85842 3.96176 3.91043
# Velocity P-wave (km/s) = 6.78889 6.90496 6.84718
#
# Compressibility (1/GPa) = 0.01918302
#
# Stress axis : x y z
#
# Youngs Moduli (GPa) = 84.88960 82.28999 67.80036
#
# Poissons Ratio (x) = -0.03795 0.38644
# Poissons Ratio (y) = -0.03915 0.30582
# Poissons Ratio (z) = 0.48385 0.37118
#
# Static dielectric constant tensor:
#      x y z
#    x 1.757370 0.000000 0.000000 
#    y 0.000000 1.810710 0.000000 
#    z 0.000000 0.000000 1.805400 
# 
# From -- ./inp_files/20882.got.cif
#   From: 2010.05.17/outbox.cif.g08.bks.cpg/sg52_11_cif.got.tgz:20882.got - 2010.06.03 12:15:38.
