data_PCOD9413194
_publ_section_title
;
Structure prediction by ZEFSAII (Michael W. Deem and Ramdas Pophale) SiO2 
 PCOD9413194
Probable space group: P N N A
;
_chemical_formula_sum "Si O2"
_cell_formula_units_Z 32
_cell_length_a 19.289997
_cell_length_b 15.927052
_cell_length_c 4.870444
_cell_angle_alpha 90.000000
_cell_angle_beta 90.000000
_cell_angle_gamma 90.000000
_cell_volume 1496.360076
_symmetry_space_group_name_H-M "P N N A"
_symmetry_group_IT_number 52
_symmetry_cell_setting 'orthorhombic'
loop_
_space_group_symop_operation_xyz
x,y,z
1/2-x,-y,z
x,1/2-y,1/2-z
1/2-x,1/2+y,1/2-z
-x,-y,-z
1/2+x,y,-z
-x,1/2+y,1/2+z
1/2+x,1/2-y,1/2+z
loop_
_atom_site_type_symbol
_atom_site_label
_atom_site_fract_x
_atom_site_fract_y
_atom_site_fract_z
Si Si1 0.402262 0.156531 0.657010
Si Si2 0.261310 0.663998 0.899316
Si Si3 0.935654 0.042817 0.843282
Si Si4 0.193137 0.430761 0.380527
O O1 0.426766 0.250000 0.750000
O O2 0.322102 0.161943 0.564687
O O3 0.444011 0.101500 0.428325
O O4 0.401512 0.103967 0.934639
O O5 0.278742 0.750000 0.750000
O O6 0.291712 0.592468 0.695895
O O7 0.293205 0.649827 0.195202
O O8 0.880632 0.968832 0.801960
O O9 0.000000 0.000000 0.000000
O O10 0.250000 0.500000 0.298919
#
# Coordination Sequence:
#
# PCOD9413194 Si02
#       4
#     8   8   8   8
#     4  11  22  41  66  94 126 166 219 269 323 389
#     4  11  22  38  64  98 127 165 215 271 328 380
#     4  12  25  41  63  96 130 174 217 265 323 394
#     4  12  21  39  64  93 130 164 213 268 326 377
#
# _framework density 21.385228000000001
#
# number of rings (size 3 to 8) (size 9 to 14) (size 15 to 20)
#    0.000    0.500    5.000    4.500    0.000    4.000 
#    0.000    5.000    0.000    0.000    0.000    0.000 
#    0.000    0.000    0.000    0.000    0.000    0.000 
#
# Total GULP energy -178712.157947 kJ/mol
# GULP energy per Si atom -5584.754936 kJ/mol
# Density = 2.133655 g / cm^3
# Si number density = 21.385228 Si / 1000 Ang^3
#
#
#
# Elastic Constant Matrix: (Units=GPa)
#
#
# Indices 1 2 3 4 5 6 
#
# 1 68.5487 21.3612 2.7132 0.0000 0.0000 0.0000
# 2 21.3612 90.5490 19.9189 0.0000 0.0000 0.0000
# 3 2.7132 19.9189 116.4729 0.0000 0.0000 0.0000
# 4 0.0000 0.0000 0.0000 39.0153 0.0000 0.0000
# 5 0.0000 0.0000 0.0000 0.0000 4.4107 0.0000
# 6 0.0000 0.0000 0.0000 0.0000 0.0000 7.8630
#
#
#
# Elastic Compliance Matrix: (Units=1/GPa)
#
#
# Indices 1 2 3 4 5 6 
#
# 1 0.015754 -0.003778 0.000279 0.000000 0.000000 0.000000
# 2 -0.003778 0.012381 -0.002029 0.000000 0.000000 0.000000
# 3 0.000279 -0.002029 0.008926 0.000000 0.000000 0.000000
# 4 0.000000 0.000000 0.000000 0.025631 0.000000 0.000000
# 5 0.000000 0.000000 0.000000 0.000000 0.226721 0.000000
# 6 0.000000 0.000000 0.000000 0.000000 0.000000 0.127178
#
#
# Mechanical properties :
#
#
# Convention : Reuss Voigt Hill
#
# Bulk Modulus (GPa) = 38.45342 40.39524 39.42433
# Shear Modulus (GPa) = 11.45955 25.69628 18.57791
#
# Velocity S-wave (km/s) = 2.31738 3.47016 2.95061
# Velocity P-wave (km/s) = 5.01804 5.91492 5.48484
#
# Compressibility (1/GPa) = 0.02600549
#
# Stress axis : x y z
#
# Youngs Moduli (GPa) = 63.47423 80.76606 112.02908
#
# Poissons Ratio (x) = 0.30513 -0.03127
# Poissons Ratio (y) = 0.23980 0.22736
# Poissons Ratio (z) = -0.01772 0.16391
#
# Static dielectric constant tensor:
#      x y z
#    x 1.765880 0.000000 0.000000 
#    y 0.000000 1.896870 0.000000 
#    z 0.000000 0.000000 1.815460 
# 
# From -- ./inp_files/3002.got.cif
#   From: 2010.05.17/outbox.cif.g08.bks.cpg/sg52_2_cif.got.tgz:3002.got - 2010.06.03 12:15:38.
