data_PCOD9413988
_publ_section_title
;
Structure prediction by ZEFSAII (Michael W. Deem and Ramdas Pophale) SiO2 
 PCOD9413988
Probable space group: P N N A
;
_chemical_formula_sum "Si O2"
_cell_formula_units_Z 48
_cell_length_a 15.000000
_cell_length_b 6.000000
_cell_length_c 27.000000
_cell_angle_alpha 90.000000
_cell_angle_beta 90.000000
_cell_angle_gamma 90.000000
_cell_volume 2430.000000
_symmetry_space_group_name_H-M "P N N A"
_symmetry_group_IT_number 52
_symmetry_cell_setting 'orthorhombic'
loop_
_space_group_symop_operation_xyz
x,y,z
1/2-x,-y,z
x,1/2-y,1/2-z
1/2-x,1/2+y,1/2-z
-x,-y,-z
1/2+x,y,-z
-x,1/2+y,1/2+z
1/2+x,1/2-y,1/2+z
loop_
_atom_site_type_symbol
_atom_site_label
_atom_site_fract_x
_atom_site_fract_y
_atom_site_fract_z
Si Si1 0.796858 0.757078 0.965263
Si Si2 0.346356 0.104281 0.797690
Si Si3 0.929676 0.103507 0.369582
Si Si4 0.013528 0.731105 0.306267
Si Si5 0.932459 0.525654 0.600433
Si Si6 0.542561 0.320028 0.037413
O O1 0.750000 0.500000 0.964641
O O2 0.848985 0.819306 0.914301
O O3 0.750000 0.000000 0.974024
O O4 0.873564 0.762503 0.006616
O O5 0.369067 0.250000 0.750000
O O6 0.347627 0.274848 0.843740
O O7 0.250000 0.000000 0.791290
O O8 0.422591 0.917324 0.804056
O O9 0.987851 0.301125 0.392321
O O10 0.916443 0.930809 0.413393
O O11 0.985417 0.970968 0.327834
O O12 0.047905 0.750000 0.250000
O O13 0.074553 0.612694 0.348217
O O14 0.967390 0.352593 0.557820
O O15 0.500000 0.500000 0.000000
#
# Coordination Sequence:
#
# PCOD9413988 Si02
#       6
#     8   8   8   8   8   8
#     4  12  27  44  68 103 136 176 224 283 344 400
#     4  11  22  36  56  85 130 176 213 273 336 389
#     4  10  22  39  62  90 124 171 229 267 321 397
#     4  10  20  39  64  93 120 165 228 269 324 403
#     4  10  23  41  68  95 127 174 220 275 330 399
#     4  11  22  44  69  91 134 180 225 271 331 401
#
# _framework density 19.753086
#
# number of rings (size 3 to 8) (size 9 to 14) (size 15 to 20)
#    0.000    1.333    3.333    2.000    4.667    0.000 
#    9.000    0.000    0.000    0.000    4.333    0.000 
#    0.000    0.000    0.000    0.000    0.000    0.000 
#
# Total GULP energy -267337.916065 kJ/mol
# GULP energy per Si atom -5569.539918 kJ/mol
# Density = 1.970813 g / cm^3
# Si number density = 19.753086 Si / 1000 Ang^3
#
#
#
# Elastic Constant Matrix: (Units=GPa)
#
#
# Indices 1 2 3 4 5 6 
#
# 1 41.6550 27.4954 26.1608 0.0000 0.0000 0.0000
# 2 27.4954 111.5057 38.5522 0.0000 0.0000 0.0000
# 3 26.1608 38.5522 117.2352 0.0000 0.0000 0.0000
# 4 0.0000 0.0000 0.0000 45.7816 0.0000 0.0000
# 5 0.0000 0.0000 0.0000 0.0000 8.5880 0.0000
# 6 0.0000 0.0000 0.0000 0.0000 0.0000 17.9293
#
#
#
# Elastic Compliance Matrix: (Units=1/GPa)
#
#
# Indices 1 2 3 4 5 6 
#
# 1 0.031050 -0.005936 -0.004977 0.000000 0.000000 0.000000
# 2 -0.005936 0.011253 -0.002376 0.000000 0.000000 0.000000
# 3 -0.004977 -0.002376 0.010422 0.000000 0.000000 0.000000
# 4 0.000000 0.000000 0.000000 0.021843 0.000000 0.000000
# 5 0.000000 0.000000 0.000000 0.000000 0.116442 0.000000
# 6 0.000000 0.000000 0.000000 0.000000 0.000000 0.055775
#
#
# Mechanical properties :
#
#
# Convention : Reuss Voigt Hill
#
# Bulk Modulus (GPa) = 38.24370 50.53475 44.38923
# Shear Modulus (GPa) = 17.72556 26.33894 22.03225
#
# Velocity S-wave (km/s) = 2.99884 3.65555 3.34336
# Velocity P-wave (km/s) = 5.60300 6.59213 6.11759
#
# Compressibility (1/GPa) = 0.02614810
#
# Stress axis : x y z
#
# Youngs Moduli (GPa) = 32.20569 88.86276 95.95276
#
# Poissons Ratio (x) = 0.52747 0.47755
# Poissons Ratio (y) = 0.19117 0.22799
# Poissons Ratio (z) = 0.16028 0.21114
#
# Static dielectric constant tensor:
#      x y z
#    x 1.736480 0.000000 0.000000 
#    y 0.000000 1.759890 0.000000 
#    z 0.000000 0.000000 1.763570 
# 
# From -- ./inp_files/42990.got.cif
#   From: 2010.05.17/outbox.ucp.g08.bks.cvg/sg52_22_cif.got.tgz:42990.got - 2010.06.11 16:30:12.
