data_PCOD9413532
_publ_section_title
;
Structure prediction by ZEFSAII (Michael W. Deem and Ramdas Pophale) SiO2 
 PCOD9413532
Probable space group: P N N A
;
_chemical_formula_sum "Si O2"
_cell_formula_units_Z 40
_cell_length_a 21.608554
_cell_length_b 10.086833
_cell_length_c 7.737900
_cell_angle_alpha 90.000000
_cell_angle_beta 90.000000
_cell_angle_gamma 90.000000
_cell_volume 1686.567197
_symmetry_space_group_name_H-M "P N N A"
_symmetry_group_IT_number 52
_symmetry_cell_setting 'orthorhombic'
loop_
_space_group_symop_operation_xyz
x,y,z
1/2-x,-y,z
x,1/2-y,1/2-z
1/2-x,1/2+y,1/2-z
-x,-y,-z
1/2+x,y,-z
-x,1/2+y,1/2+z
1/2+x,1/2-y,1/2+z
loop_
_atom_site_type_symbol
_atom_site_label
_atom_site_fract_x
_atom_site_fract_y
_atom_site_fract_z
Si Si1 0.870600 0.952330 0.327680
Si Si2 0.004662 0.984745 0.209963
Si Si3 0.832851 0.822627 0.009005
Si Si4 0.365194 0.384777 0.155242
Si Si5 0.441174 0.750000 0.250000
Si Si6 0.250000 0.500000 0.329835
O O1 0.843609 0.948922 0.135370
O O2 0.835844 0.824095 0.408522
O O3 0.943000 0.922365 0.291246
O O4 0.866321 0.080047 0.450666
O O5 0.014332 0.129443 0.295368
O O6 0.066790 0.912593 0.268412
O O7 0.000000 0.000000 0.000000
O O8 0.893498 0.809916 0.888779
O O9 0.767554 0.863677 0.928542
O O10 0.348143 0.250000 0.250000
O O11 0.312128 0.483213 0.221418
#
# Coordination Sequence:
#
# PCOD9413532 Si02
#       6
#     8   8   8   8   4   4
#     4  11  25  47  73 114 148 198 261 323 414 486
#     4  12  25  44  73 110 153 200 255 323 403 485
#     4  11  24  46  79 102 147 206 259 326 399 483
#     4  12  29  43  73 109 148 200 256 325 395 481
#     4  12  22  44  72 106 148 204 248 316 412 460
#     4  12  26  54  68 104 148 200 268 316 402 488
#
# _framework density 23.716816000000001
#
# number of rings (size 3 to 8) (size 9 to 14) (size 15 to 20)
#    0.000    0.400    6.000    0.600    9.800    0.800 
#    3.600    0.000    0.000    0.000    0.000    0.000 
#    0.000    0.000    0.000    0.000    0.000    0.000 
#
# Total GULP energy -222939.364358 kJ/mol
# GULP energy per Si atom -5573.484109 kJ/mol
# Density = 2.366284 g / cm^3
# Si number density = 23.716816 Si / 1000 Ang^3
#
#
#
# Elastic Constant Matrix: (Units=GPa)
#
#
# Indices 1 2 3 4 5 6 
#
# 1 97.5597 13.3293 18.2879 0.0000 0.0000 0.0000
# 2 13.3293 86.3181 32.7294 0.0000 0.0000 0.0000
# 3 18.2879 32.7294 117.1459 0.0000 0.0000 0.0000
# 4 0.0000 0.0000 0.0000 34.9478 0.0000 0.0000
# 5 0.0000 0.0000 0.0000 0.0000 27.9120 0.0000
# 6 0.0000 0.0000 0.0000 0.0000 0.0000 32.6864
#
#
#
# Elastic Compliance Matrix: (Units=1/GPa)
#
#
# Indices 1 2 3 4 5 6 
#
# 1 0.010658 -0.001135 -0.001347 0.000000 0.000000 0.000000
# 2 -0.001135 0.013079 -0.003477 0.000000 0.000000 0.000000
# 3 -0.001347 -0.003477 0.009718 0.000000 0.000000 0.000000
# 4 0.000000 0.000000 0.000000 0.028614 0.000000 0.000000
# 5 0.000000 0.000000 0.000000 0.000000 0.035827 0.000000
# 6 0.000000 0.000000 0.000000 0.000000 0.000000 0.030594
#
#
# Mechanical properties :
#
#
# Convention : Reuss Voigt Hill
#
# Bulk Modulus (GPa) = 46.43162 47.74632 47.08897
# Shear Modulus (GPa) = 33.87870 34.88771 34.38321
#
# Velocity S-wave (km/s) = 3.78361 3.83954 3.81168
# Velocity P-wave (km/s) = 6.22154 6.31123 6.26655
#
# Compressibility (1/GPa) = 0.02153705
#
# Stress axis : x y z
#
# Youngs Moduli (GPa) = 93.82922 76.46042 102.90198
#
# Poissons Ratio (x) = 0.08679 0.13857
# Poissons Ratio (y) = 0.10651 0.35777
# Poissons Ratio (z) = 0.12635 0.26584
#
# Static dielectric constant tensor:
#      x y z
#    x 1.838610 0.000000 0.000000 
#    y 0.000000 2.049210 0.000000 
#    z 0.000000 0.000000 2.098770 
# 
# From -- ./inp_files/13183.got.cif
#   From: 2010.05.17/outbox.cif.g08.bks.cpg/sg52_7_cif.got.tgz:13183.got - 2010.06.03 12:15:38.
