data_PCOD9413529
_publ_section_title
;
Structure prediction by ZEFSAII (Michael W. Deem and Ramdas Pophale) SiO2 
 PCOD9413529
Probable space group: P N N A
;
_chemical_formula_sum "Si O2"
_cell_formula_units_Z 40
_cell_length_a 9.702290
_cell_length_b 7.387152
_cell_length_c 23.093461
_cell_angle_alpha 90.000000
_cell_angle_beta 90.000000
_cell_angle_gamma 90.000000
_cell_volume 1655.161256
_symmetry_space_group_name_H-M "P N N A"
_symmetry_group_IT_number 52
_symmetry_cell_setting 'orthorhombic'
loop_
_space_group_symop_operation_xyz
x,y,z
1/2-x,-y,z
x,1/2-y,1/2-z
1/2-x,1/2+y,1/2-z
-x,-y,-z
1/2+x,y,-z
-x,1/2+y,1/2+z
1/2+x,1/2-y,1/2+z
loop_
_atom_site_type_symbol
_atom_site_label
_atom_site_fract_x
_atom_site_fract_y
_atom_site_fract_z
Si Si1 0.185550 0.700445 0.403226
Si Si2 0.858491 0.837968 0.810532
Si Si3 0.122882 0.877198 0.523923
Si Si4 0.377802 0.272925 0.849504
Si Si5 0.435565 0.693600 0.817213
O O1 0.250000 0.500000 0.412787
O O2 0.304719 0.787227 0.363187
O O3 0.168175 0.772202 0.467092
O O4 0.047590 0.734430 0.364586
O O5 0.842277 0.750000 0.750000
O O6 0.018980 0.869774 0.820509
O O7 0.750000 0.000000 0.808519
O O8 0.094212 0.763837 0.581552
O O9 0.250000 0.000000 0.543941
O O10 0.000000 0.000000 0.500000
O O11 0.422810 0.473668 0.826042
O O12 0.219235 0.241958 0.833384
O O13 0.468192 0.750000 0.750000
#
# Coordination Sequence:
#
# PCOD9413529 Si02
#       5
#     8   8   8   8   8
#     4  11  26  45  71 113 152 197 244 312 386 443
#     4  11  27  46  72 111 149 195 249 307 379 448
#     4  12  22  45  78 109 146 194 256 305 369 458
#     4  11  24  48  78 112 143 203 252 311 372 447
#     4  11  24  46  76 110 153 195 255 308 380 450
#
# _framework density 24.166827999999999
#
# number of rings (size 3 to 8) (size 9 to 14) (size 15 to 20)
#    0.000    0.800    4.000    2.400    8.400    0.000 
#    0.000   16.000    0.000    0.000    0.000    0.000 
#    0.000    0.000    0.000    0.000    0.000    0.000 
#
# Total GULP energy -223476.053538 kJ/mol
# GULP energy per Si atom -5586.901338 kJ/mol
# Density = 2.411182 g / cm^3
# Si number density = 24.166828 Si / 1000 Ang^3
#
#
#
# Elastic Constant Matrix: (Units=GPa)
#
#
# Indices 1 2 3 4 5 6 
#
# 1 161.2603 31.6197 10.1896 0.0000 0.0000 0.0000
# 2 31.6197 38.0623 22.9037 0.0000 0.0000 0.0000
# 3 10.1896 22.9037 198.5828 0.0000 0.0000 0.0000
# 4 0.0000 0.0000 0.0000 -12.8633 0.0000 0.0000
# 5 0.0000 0.0000 0.0000 0.0000 16.3318 0.0000
# 6 0.0000 0.0000 0.0000 0.0000 0.0000 38.7428
#
#
#
# Elastic Compliance Matrix: (Units=1/GPa)
#
#
# Indices 1 2 3 4 5 6 
#
# 1 0.007431 -0.006387 0.000355 0.000000 0.000000 0.000000
# 2 -0.006387 0.033722 -0.003562 0.000000 0.000000 0.000000
# 3 0.000355 -0.003562 0.005428 0.000000 0.000000 0.000000
# 4 0.000000 0.000000 0.000000 -0.077740 0.000000 0.000000
# 5 0.000000 0.000000 0.000000 0.000000 0.061230 0.000000
# 6 0.000000 0.000000 0.000000 0.000000 0.000000 0.025811
#
#
# Mechanical properties :
#
#
# Convention : Reuss Voigt Hill
#
# Bulk Modulus (GPa) = 36.50370 58.59237 47.54803
# Shear Modulus (GPa) = 59.38209 30.65508 45.01859
#
# Velocity S-wave (km/s) = 4.96237 3.56543 4.32073
# Velocity P-wave (km/s) = 6.92612 6.42241 6.67901
#
# Compressibility (1/GPa) = 0.02739448
#
# Stress axis : x y z
#
# Youngs Moduli (GPa) = 134.57013 29.65440 184.22223
#
# Poissons Ratio (x) = 0.18940 -0.06546
# Poissons Ratio (y) = 0.85951 0.65612
# Poissons Ratio (z) = -0.04782 0.10562
#
# Static dielectric constant tensor:
#      x y z
#    x 1.936620 0.000000 0.000000 
#    y 0.000000 2.055630 0.000000 
#    z 0.000000 0.000000 2.068260 
# 
# From -- ./inp_files/39227.got.cif
#   From: 2010.05.17/outbox.cif.g08.bks.cpg/sg52_20_cif.got.tgz:39227.got - 2010.06.03 12:15:38.
