data_PCOD9413122
_publ_section_title
;
Structure prediction by ZEFSAII (Michael W. Deem and Ramdas Pophale) SiO2 
 PCOD9413122
Probable space group: P N N A
;
_chemical_formula_sum "Si O2"
_cell_formula_units_Z 40
_cell_length_a 16.354635
_cell_length_b 11.460320
_cell_length_c 8.498535
_cell_angle_alpha 90.000000
_cell_angle_beta 90.000000
_cell_angle_gamma 90.000000
_cell_volume 1592.874896
_symmetry_space_group_name_H-M "P N N A"
_symmetry_group_IT_number 52
_symmetry_cell_setting 'orthorhombic'
loop_
_space_group_symop_operation_xyz
x,y,z
1/2-x,-y,z
x,1/2-y,1/2-z
1/2-x,1/2+y,1/2-z
-x,-y,-z
1/2+x,y,-z
-x,1/2+y,1/2+z
1/2+x,1/2-y,1/2+z
loop_
_atom_site_type_symbol
_atom_site_label
_atom_site_fract_x
_atom_site_fract_y
_atom_site_fract_z
Si Si1 0.160889 0.466491 0.999502
Si Si2 0.844082 0.706644 0.584024
Si Si3 0.885397 0.972192 0.150986
Si Si4 0.545844 0.633673 0.817800
Si Si5 0.028864 0.802673 0.905727
O O1 0.250000 0.500000 0.057658
O O2 0.149702 0.509317 0.820280
O O3 0.155055 0.327571 0.990841
O O4 0.098406 0.525535 0.121987
O O5 0.804679 0.750000 0.750000
O O6 0.824816 0.606072 0.455902
O O7 0.935432 0.662374 0.629935
O O8 0.968421 0.901235 0.208499
O O9 0.917079 0.084728 0.055047
O O10 0.590743 0.750000 0.750000
O O11 0.518329 0.693987 0.979424
O O12 0.067520 0.750000 0.750000
#
# Coordination Sequence:
#
# PCOD9413122 Si02
#       5
#     8   8   8   8   8
#     4  12  27  47  67  97 147 196 231 284 353 433
#     4  11  24  43  72 105 137 179 230 297 361 416
#     4  12  23  46  71 106 136 181 236 296 360 412
#     4  12  23  42  71 103 137 175 235 302 349 410
#     4  11  21  38  70 106 131 169 228 294 356 409
#
# _framework density 25.111826000000001
#
# number of rings (size 3 to 8) (size 9 to 14) (size 15 to 20)
#    0.000    0.400    6.000    4.200    2.800    0.800 
#    7.200    1.000    0.000    0.000    0.000    0.000 
#    0.000    0.000    0.000    0.000    0.000    0.000 
#
# Total GULP energy -223060.735122 kJ/mol
# GULP energy per Si atom -5576.518378 kJ/mol
# Density = 2.505467 g / cm^3
# Si number density = 25.111826 Si / 1000 Ang^3
#
#
#
# Elastic Constant Matrix: (Units=GPa)
#
#
# Indices 1 2 3 4 5 6 
#
# 1 40.9125 26.1807 5.4340 0.0000 0.0000 0.0000
# 2 26.1807 106.6468 -2.5059 0.0000 0.0000 0.0000
# 3 5.4340 -2.5059 93.0623 0.0000 0.0000 0.0000
# 4 0.0000 0.0000 0.0000 61.6526 0.0000 0.0000
# 5 0.0000 0.0000 0.0000 0.0000 4.5190 0.0000
# 6 0.0000 0.0000 0.0000 0.0000 0.0000 13.4811
#
#
#
# Elastic Compliance Matrix: (Units=1/GPa)
#
#
# Indices 1 2 3 4 5 6 
#
# 1 0.029332 -0.007246 -0.001908 0.000000 0.000000 0.000000
# 2 -0.007246 0.011172 0.000724 0.000000 0.000000 0.000000
# 3 -0.001908 0.000724 0.010876 0.000000 0.000000 0.000000
# 4 0.000000 0.000000 0.000000 0.016220 0.000000 0.000000
# 5 0.000000 0.000000 0.000000 0.000000 0.221286 0.000000
# 6 0.000000 0.000000 0.000000 0.000000 0.000000 0.074178
#
#
# Mechanical properties :
#
#
# Convention : Reuss Voigt Hill
#
# Bulk Modulus (GPa) = 28.96690 33.20435 31.08563
# Shear Modulus (GPa) = 12.77363 30.03141 21.40252
#
# Velocity S-wave (km/s) = 2.25782 3.46194 2.92257
# Velocity P-wave (km/s) = 4.28453 5.40660 4.87794
#
# Compressibility (1/GPa) = 0.03452216
#
# Stress axis : x y z
#
# Youngs Moduli (GPa) = 34.09196 89.50562 91.94235
#
# Poissons Ratio (x) = 0.64852 0.17541
# Poissons Ratio (y) = 0.24702 -0.06656
# Poissons Ratio (z) = 0.06504 -0.06480
#
# Static dielectric constant tensor:
#      x y z
#    x 1.982080 0.000000 0.000000 
#    y 0.000000 2.019580 0.000000 
#    z 0.000000 0.000000 2.191190 
# 
# From -- ./inp_files/11636.got.cif
#   From: 2010.05.17/outbox.cif.g08.bks.cpg/sg52_6_cif.got.tgz:11636.got - 2010.06.03 12:15:38.
