data_PCOD9413465
_publ_section_title
;
Structure prediction by ZEFSAII (Michael W. Deem and Ramdas Pophale) SiO2 
 PCOD9413465
Probable space group: P N N A
;
_chemical_formula_sum "Si O2"
_cell_formula_units_Z 48
_cell_length_a 9.899640
_cell_length_b 8.568659
_cell_length_c 28.150389
_cell_angle_alpha 90.000000
_cell_angle_beta 90.000000
_cell_angle_gamma 90.000000
_cell_volume 2387.902896
_symmetry_space_group_name_H-M "P N N A"
_symmetry_group_IT_number 52
_symmetry_cell_setting 'orthorhombic'
loop_
_space_group_symop_operation_xyz
x,y,z
1/2-x,-y,z
x,1/2-y,1/2-z
1/2-x,1/2+y,1/2-z
-x,-y,-z
1/2+x,y,-z
-x,1/2+y,1/2+z
1/2+x,1/2-y,1/2+z
loop_
_atom_site_type_symbol
_atom_site_label
_atom_site_fract_x
_atom_site_fract_y
_atom_site_fract_z
Si Si1 0.904326 0.055992 0.617403
Si Si2 0.344862 0.140584 0.634671
Si Si3 0.246241 0.317702 0.546450
Si Si4 0.899326 0.076115 0.729669
Si Si5 0.132498 0.619405 0.715145
Si Si6 0.025055 0.676182 0.018797
O O1 0.927398 0.094850 0.673172
O O2 0.924706 0.173323 0.573668
O O3 0.750000 0.000000 0.614116
O O4 0.023022 0.930245 0.609831
O O5 0.252206 0.222234 0.595463
O O6 0.400913 0.272828 0.670087
O O7 0.250000 0.000000 0.655626
O O8 0.250000 0.500000 0.556226
O O9 0.369771 0.261358 0.514647
O O10 0.113722 0.268442 0.518480
O O11 0.900851 0.250000 0.750000
O O12 0.750000 0.000000 0.734918
O O13 0.009272 0.967952 0.757578
O O14 0.250000 0.500000 0.702425
O O15 0.193039 0.750000 0.750000
O O16 0.000000 0.500000 0.000000
#
# Coordination Sequence:
#
# PCOD9413465 Si02
#       6
#     8   8   8   8   8   8
#     4  11  24  42  71  98 132 175 241 278 342 413
#     4  12  24  45  69  99 139 184 231 284 351 414
#     4  12  26  44  68 104 144 180 228 295 348 413
#     4  11  26  46  69  98 137 184 234 286 350 415
#     4  12  25  40  67  99 135 176 229 288 347 412
#     4  12  23  45  73 101 133 187 232 280 343 418
#
# _framework density 20.101319
#
# number of rings (size 3 to 8) (size 9 to 14) (size 15 to 20)
#    0.000    0.333    5.000    4.000    4.667    1.333 
#    0.000    0.833    0.000    0.000    0.000    0.000 
#    0.000    0.000    0.000    0.000    0.000    0.000 
#
# Total GULP energy -268041.911619 kJ/mol
# GULP energy per Si atom -5584.206492 kJ/mol
# Density = 2.005557 g / cm^3
# Si number density = 20.101319 Si / 1000 Ang^3
#
#
#
# Elastic Constant Matrix: (Units=GPa)
#
#
# Indices 1 2 3 4 5 6 
#
# 1 75.8924 22.8056 4.9259 0.0000 0.0000 0.0000
# 2 22.8056 112.1569 25.2644 0.0000 0.0000 0.0000
# 3 4.9259 25.2644 80.5053 0.0000 0.0000 0.0000
# 4 0.0000 0.0000 0.0000 28.5976 0.0000 0.0000
# 5 0.0000 0.0000 0.0000 0.0000 14.6794 0.0000
# 6 0.0000 0.0000 0.0000 0.0000 0.0000 25.9373
#
#
#
# Elastic Compliance Matrix: (Units=1/GPa)
#
#
# Indices 1 2 3 4 5 6 
#
# 1 0.014034 -0.002863 0.000040 0.000000 0.000000 0.000000
# 2 -0.002863 0.010178 -0.003019 0.000000 0.000000 0.000000
# 3 0.000040 -0.003019 0.013367 0.000000 0.000000 0.000000
# 4 0.000000 0.000000 0.000000 0.034968 0.000000 0.000000
# 5 0.000000 0.000000 0.000000 0.000000 0.068123 0.000000
# 6 0.000000 0.000000 0.000000 0.000000 0.000000 0.038555
#
#
# Mechanical properties :
#
#
# Convention : Reuss Voigt Hill
#
# Bulk Modulus (GPa) = 38.61748 41.61628 40.11688
# Shear Modulus (GPa) = 25.05766 28.21343 26.63554
#
# Velocity S-wave (km/s) = 3.53451 3.75048 3.64409
# Velocity P-wave (km/s) = 5.99250 6.28514 6.14057
#
# Compressibility (1/GPa) = 0.02589501
#
# Stress axis : x y z
#
# Youngs Moduli (GPa) = 71.25461 98.24909 74.81365
#
# Poissons Ratio (x) = 0.28125 -0.00296
# Poissons Ratio (y) = 0.20397 0.22586
# Poissons Ratio (z) = -0.00282 0.29661
#
# Static dielectric constant tensor:
#      x y z
#    x 1.691850 0.000000 0.000000 
#    y 0.000000 1.733350 0.000000 
#    z 0.000000 0.000000 1.750410 
# 
# From -- ./inp_files/44380.got.cif
#   From: 2010.05.17/outbox.cif.g08.bks.cpg/sg52_23_cif.got.tgz:44380.got - 2010.06.03 12:15:38.
