data_PCOD9413000
_publ_section_title
;
Structure prediction by ZEFSAII (Michael W. Deem and Ramdas Pophale) SiO2 
 PCOD9413000
Probable space group: P N N A
;
_chemical_formula_sum "Si O2"
_cell_formula_units_Z 48
_cell_length_a 13.427215
_cell_length_b 23.324284
_cell_length_c 5.782672
_cell_angle_alpha 90.000000
_cell_angle_beta 90.000000
_cell_angle_gamma 90.000000
_cell_volume 1811.018235
_symmetry_space_group_name_H-M "P N N A"
_symmetry_group_IT_number 52
_symmetry_cell_setting 'orthorhombic'
loop_
_space_group_symop_operation_xyz
x,y,z
1/2-x,-y,z
x,1/2-y,1/2-z
1/2-x,1/2+y,1/2-z
-x,-y,-z
1/2+x,y,-z
-x,1/2+y,1/2+z
1/2+x,1/2-y,1/2+z
loop_
_atom_site_type_symbol
_atom_site_label
_atom_site_fract_x
_atom_site_fract_y
_atom_site_fract_z
Si Si1 0.096632 0.984967 0.641766
Si Si2 0.839815 0.250000 0.250000
Si Si3 0.263313 0.441184 0.259665
Si Si4 0.843937 0.128684 0.139812
Si Si5 0.891787 0.613734 0.266196
Si Si6 0.083705 0.360072 0.226573
Si Si7 0.724817 0.250000 0.750000
O O1 0.177590 0.963352 0.459013
O O2 0.091023 0.926372 0.785658
O O3 0.113136 0.044586 0.772466
O O4 0.000000 0.000000 0.500000
O O5 0.892828 0.187758 0.228625
O O6 0.784142 0.251040 0.502511
O O7 0.250000 0.500000 0.405312
O O8 0.322374 0.388845 0.375986
O O9 0.155993 0.416228 0.209563
O O10 0.727535 0.131062 0.233981
O O11 0.943514 0.636119 0.499649
O O12 0.951395 0.636918 0.042721
O O13 0.153651 0.304360 0.231310
#
# Coordination Sequence:
#
# PCOD9413000 Si02
#       7
#     8   4   8   8   8   8   4
#     4  12  25  39  59  91 131 173 216 262 326 398
#     4  12  22  34  66  95 133 150 212 266 320 386
#     4  11  19  37  63  90 120 163 205 270 325 377
#     4  11  22  39  62  98 121 164 211 273 329 375
#     4  11  21  39  61  91 124 160 203 266 324 374
#     4  11  20  35  63  90 126 153 204 257 322 371
#     4  12  18  36  54 105 123 158 198 268 320 382
#
# _framework density 26.504424
#
# number of rings (size 3 to 8) (size 9 to 14) (size 15 to 20)
#    0.000    0.667    8.333    2.500    0.000    0.667 
#    0.000    0.000    0.000    1.000    8.667    0.000 
#    0.000    0.000    0.000    0.000    0.000    0.000 
#
# Total GULP energy -267707.659662 kJ/mol
# GULP energy per Si atom -5577.242910 kJ/mol
# Density = 2.644410 g / cm^3
# Si number density = 26.504424 Si / 1000 Ang^3
#
#
#
# Elastic Constant Matrix: (Units=GPa)
#
#
# Indices 1 2 3 4 5 6 
#
# 1 38.4437 -19.1664 29.3044 0.0000 0.0000 0.0000
# 2 -19.1664 169.8456 43.5953 0.0000 0.0000 0.0000
# 3 29.3044 43.5953 218.2402 0.0000 0.0000 0.0000
# 4 0.0000 0.0000 0.0000 52.5029 0.0000 0.0000
# 5 0.0000 0.0000 0.0000 0.0000 30.9488 0.0000
# 6 0.0000 0.0000 0.0000 0.0000 0.0000 25.9705
#
#
#
# Elastic Compliance Matrix: (Units=1/GPa)
#
#
# Indices 1 2 3 4 5 6 
#
# 1 0.032654 0.005070 -0.005398 0.000000 0.000000 0.000000
# 2 0.005070 0.006993 -0.002078 0.000000 0.000000 0.000000
# 3 -0.005398 -0.002078 0.005722 0.000000 0.000000 0.000000
# 4 0.000000 0.000000 0.000000 0.019047 0.000000 0.000000
# 5 0.000000 0.000000 0.000000 0.000000 0.032311 0.000000
# 6 0.000000 0.000000 0.000000 0.000000 0.000000 0.038505
#
#
# Mechanical properties :
#
#
# Convention : Reuss Voigt Hill
#
# Bulk Modulus (GPa) = 24.65516 59.33289 41.99402
# Shear Modulus (GPa) = 32.56005 46.73751 39.64878
#
# Velocity S-wave (km/s) = 3.50876 4.20382 3.87192
# Velocity P-wave (km/s) = 5.07323 6.78214 5.98896
#
# Compressibility (1/GPa) = 0.04055947
#
# Stress axis : x y z
#
# Youngs Moduli (GPa) = 30.62383 142.99641 174.76658
#
# Poissons Ratio (x) = -0.72504 0.94331
# Poissons Ratio (y) = -0.15527 0.36312
# Poissons Ratio (z) = 0.16529 0.29711
#
# Static dielectric constant tensor:
#      x y z
#    x 2.195710 0.000000 0.000000 
#    y 0.000000 2.212560 0.000000 
#    z 0.000000 0.000000 2.230290 
# 
# From -- ./inp_files/3494.got.cif
#   From: 2010.05.17/outbox.cif.g08.bks.cpg/sg52_2_cif.got.tgz:3494.got - 2010.06.03 12:15:38.
