data_PCOD9413983
_publ_section_title
;
Structure prediction by ZEFSAII (Michael W. Deem and Ramdas Pophale) SiO2 
 PCOD9413983
Probable space group: P N N A
;
_chemical_formula_sum "Si O2"
_cell_formula_units_Z 64
_cell_length_a 15.000000
_cell_length_b 24.000000
_cell_length_c 9.000000
_cell_angle_alpha 90.000000
_cell_angle_beta 90.000000
_cell_angle_gamma 90.000000
_cell_volume 3240.000000
_symmetry_space_group_name_H-M "P N N A"
_symmetry_group_IT_number 52
_symmetry_cell_setting 'orthorhombic'
loop_
_space_group_symop_operation_xyz
x,y,z
1/2-x,-y,z
x,1/2-y,1/2-z
1/2-x,1/2+y,1/2-z
-x,-y,-z
1/2+x,y,-z
-x,1/2+y,1/2+z
1/2+x,1/2-y,1/2+z
loop_
_atom_site_type_symbol
_atom_site_label
_atom_site_fract_x
_atom_site_fract_y
_atom_site_fract_z
Si Si1 0.417308 0.579231 0.233802
Si Si2 0.517295 0.121719 0.029917
Si Si3 0.223216 0.612506 0.219701
Si Si4 0.135016 0.717601 0.094318
Si Si5 0.034948 0.356245 0.978029
Si Si6 0.955527 0.453429 0.795655
Si Si7 0.677466 0.667740 0.463731
Si Si8 0.658308 0.183834 0.233429
O O1 0.424786 0.592730 0.405453
O O2 0.314783 0.582075 0.188812
O O3 0.460421 0.519540 0.200890
O O4 0.458075 0.632688 0.151005
O O5 0.425138 0.146316 0.961926
O O6 0.490298 0.073145 0.143111
O O7 0.577677 0.166301 0.119687
O O8 0.202655 0.666597 0.119109
O O9 0.145498 0.568020 0.195388
O O10 0.216481 0.637889 0.387430
O O11 0.123123 0.750000 0.250000
O O12 0.041522 0.688529 0.055879
O O13 0.169418 0.765499 0.985932
O O14 0.123794 0.339475 0.890691
O O15 0.008010 0.417296 0.916654
O O16 0.748643 0.659575 0.331194
O O17 0.663984 0.250000 0.250000
#
# Coordination Sequence:
#
# PCOD9413983 Si02
#       8
#     8   8   8   8   8   8   8   8
#     4  12  21  36  60  92 117 147 200 252 285 339
#     4  10  22  40  62  89 115 152 206 247 288 351
#     4   9  19  36  60  87 112 148 199 243 283 351
#     4   9  18  38  59  81 116 161 194 235 293 356
#     4  10  22  37  59  86 123 153 193 236 302 357
#     4   9  20  40  63  81 115 163 191 235 303 354
#     4  10  20  38  60  84 117 153 197 243 291 346
#     4  11  22  39  61  83 118 164 193 235 303 362
#
# _framework density 19.753086
#
# number of rings (size 3 to 8) (size 9 to 14) (size 15 to 20)
#    0.000    2.000    1.250    4.500    1.750    1.000 
#    2.250    1.875    0.000    0.000    0.000    0.000 
#    0.000    0.000    0.000    0.000    0.000    0.000 
#
# Total GULP energy -356783.248779 kJ/mol
# GULP energy per Si atom -5574.738262 kJ/mol
# Density = 1.970813 g / cm^3
# Si number density = 19.753086 Si / 1000 Ang^3
#
#
#
# Elastic Constant Matrix: (Units=GPa)
#
#
# Indices 1 2 3 4 5 6 
#
# 1 63.6263 6.5921 15.3429 0.0000 0.0000 0.0000
# 2 6.5921 65.5361 12.6778 0.0000 0.0000 0.0000
# 3 15.3429 12.6778 32.0724 0.0000 0.0000 0.0000
# 4 0.0000 0.0000 0.0000 9.8709 0.0000 0.0000
# 5 0.0000 0.0000 0.0000 0.0000 1.0463 0.0000
# 6 0.0000 0.0000 0.0000 0.0000 0.0000 -2.5854
#
#
#
# Elastic Compliance Matrix: (Units=1/GPa)
#
#
# Indices 1 2 3 4 5 6 
#
# 1 0.017768 -0.000155 -0.008439 0.000000 0.000000 0.000000
# 2 -0.000155 0.016524 -0.006458 0.000000 0.000000 0.000000
# 3 -0.008439 -0.006458 0.037769 0.000000 0.000000 0.000000
# 4 0.000000 0.000000 0.000000 0.101308 0.000000 0.000000
# 5 0.000000 0.000000 0.000000 0.000000 0.955712 0.000000
# 6 0.000000 0.000000 0.000000 0.000000 0.000000 -0.386791
#
#
# Mechanical properties :
#
#
# Convention : Reuss Voigt Hill
#
# Bulk Modulus (GPa) = 23.83312 25.60670 24.71991
# Shear Modulus (GPa) = 6.35827 10.10784 8.23305
#
# Velocity S-wave (km/s) = 1.79607 2.26455 2.04378
# Velocity P-wave (km/s) = 4.04881 4.45299 4.25570
#
# Compressibility (1/GPa) = 0.04195842
#
# Stress axis : x y z
#
# Youngs Moduli (GPa) = 56.28201 60.51978 26.47682
#
# Poissons Ratio (x) = 0.00937 0.22343
# Poissons Ratio (y) = 0.00871 0.17097
# Poissons Ratio (z) = 0.47494 0.39081
#
# Static dielectric constant tensor:
#      x y z
#    x 1.712360 0.000000 0.000000 
#    y 0.000000 1.647630 0.000000 
#    z 0.000000 0.000000 1.729760 
# 
# From -- ./inp_files/11000.got.cif
#   From: 2010.05.17/outbox.ucp.g08.bks.cvg/sg52_6_cif.got.tgz:11000.got - 2010.06.11 16:30:12.
