data_PCOD9413569
_publ_section_title
;
Structure prediction by ZEFSAII (Michael W. Deem and Ramdas Pophale) SiO2 
 PCOD9413569
Probable space group: P N N A
;
_chemical_formula_sum "Si O2"
_cell_formula_units_Z 48
_cell_length_a 25.076019
_cell_length_b 9.006040
_cell_length_c 9.261810
_cell_angle_alpha 90.000000
_cell_angle_beta 90.000000
_cell_angle_gamma 90.000000
_cell_volume 2091.646698
_symmetry_space_group_name_H-M "P N N A"
_symmetry_group_IT_number 52
_symmetry_cell_setting 'orthorhombic'
loop_
_space_group_symop_operation_xyz
x,y,z
1/2-x,-y,z
x,1/2-y,1/2-z
1/2-x,1/2+y,1/2-z
-x,-y,-z
1/2+x,y,-z
-x,1/2+y,1/2+z
1/2+x,1/2-y,1/2+z
loop_
_atom_site_type_symbol
_atom_site_label
_atom_site_fract_x
_atom_site_fract_y
_atom_site_fract_z
Si Si1 0.399113 0.462762 0.889712
Si Si2 0.237586 0.825775 0.112944
Si Si3 0.142793 0.276169 0.085032
Si Si4 0.070147 0.078126 0.915392
Si Si5 0.714680 0.644799 0.137752
Si Si6 0.540754 0.780316 0.919890
O O1 0.429435 0.532847 0.752559
O O2 0.343884 0.406930 0.817315
O O3 0.378239 0.573100 0.015082
O O4 0.434864 0.342341 0.972779
O O5 0.211211 0.750000 0.250000
O O6 0.293604 0.738716 0.093743
O O7 0.250000 0.000000 0.122940
O O8 0.202623 0.766870 0.983930
O O9 0.123210 0.250000 0.250000
O O10 0.123717 0.152839 0.972114
O O11 0.022986 0.198179 0.936991
O O12 0.061363 0.937970 0.019760
O O13 0.750000 0.500000 0.104134
O O14 0.745290 0.750000 0.250000
O O15 0.552643 0.750000 0.750000
#
# Coordination Sequence:
#
# PCOD9413569 Si02
#       6
#     8   8   8   8   8   8
#     4  12  26  46  72 104 145 189 249 300 377 446
#     4  11  26  45  71 103 148 193 244 301 370 447
#     4  11  25  44  70 103 143 190 238 300 367 443
#     4  11  26  46  71 106 145 184 245 304 371 441
#     4  12  26  44  69 104 143 194 246 306 370 445
#     4  11  25  46  73 104 140 190 240 302 369 437
#
# _framework density 22.948426000000001
#
# number of rings (size 3 to 8) (size 9 to 14) (size 15 to 20)
#    0.000    0.667    1.667    5.000    9.333    6.000 
#    0.000    0.000    0.000    0.000    0.000    0.000 
#    0.000    0.000    0.000    0.000    0.000    0.000 
#
# Total GULP energy -268082.400808 kJ/mol
# GULP energy per Si atom -5585.050017 kJ/mol
# Density = 2.289619 g / cm^3
# Si number density = 22.948426 Si / 1000 Ang^3
#
#
#
# Elastic Constant Matrix: (Units=GPa)
#
#
# Indices 1 2 3 4 5 6 
#
# 1 50.5371 10.4677 8.9602 0.0000 0.0000 0.0000
# 2 10.4677 121.7016 51.8202 0.0000 0.0000 0.0000
# 3 8.9602 51.8202 116.0492 0.0000 0.0000 0.0000
# 4 0.0000 0.0000 0.0000 48.4770 0.0000 0.0000
# 5 0.0000 0.0000 0.0000 0.0000 32.9793 0.0000
# 6 0.0000 0.0000 0.0000 0.0000 0.0000 40.1600
#
#
#
# Elastic Compliance Matrix: (Units=1/GPa)
#
#
# Indices 1 2 3 4 5 6 
#
# 1 0.020234 -0.001328 -0.000969 0.000000 0.000000 0.000000
# 2 -0.001328 0.010233 -0.004467 0.000000 0.000000 0.000000
# 3 -0.000969 -0.004467 0.010687 0.000000 0.000000 0.000000
# 4 0.000000 0.000000 0.000000 0.020628 0.000000 0.000000
# 5 0.000000 0.000000 0.000000 0.000000 0.030322 0.000000
# 6 0.000000 0.000000 0.000000 0.000000 0.000000 0.024900
#
#
# Mechanical properties :
#
#
# Convention : Reuss Voigt Hill
#
# Bulk Modulus (GPa) = 36.19792 47.86489 42.03141
# Shear Modulus (GPa) = 35.78043 38.79257 37.28650
#
# Velocity S-wave (km/s) = 3.95291 4.11594 4.03525
# Velocity P-wave (km/s) = 6.05325 6.59475 6.32980
#
# Compressibility (1/GPa) = 0.02762590
#
# Stress axis : x y z
#
# Youngs Moduli (GPa) = 49.42102 97.72304 93.57582
#
# Poissons Ratio (x) = 0.12973 0.09072
# Poissons Ratio (y) = 0.06561 0.41799
# Poissons Ratio (z) = 0.04791 0.43652
#
# Static dielectric constant tensor:
#      x y z
#    x 1.855990 0.000000 0.000000 
#    y 0.000000 1.870530 0.000000 
#    z 0.000000 0.000000 1.671880 
# 
# From -- ./inp_files/15499.got.cif
#   From: 2010.05.17/outbox.cif.g08.bks.cpg/sg52_8_cif.got.tgz:15499.got - 2010.06.03 12:15:38.
