data_PCOD9413097
_publ_section_title
;
Structure prediction by ZEFSAII (Michael W. Deem and Ramdas Pophale) SiO2 
 PCOD9413097
Probable space group: P N N A
;
_chemical_formula_sum "Si O2"
_cell_formula_units_Z 32
_cell_length_a 20.023760
_cell_length_b 8.153141
_cell_length_c 9.794001
_cell_angle_alpha 90.000000
_cell_angle_beta 90.000000
_cell_angle_gamma 90.000000
_cell_volume 1598.934703
_symmetry_space_group_name_H-M "P N N A"
_symmetry_group_IT_number 52
_symmetry_cell_setting 'orthorhombic'
loop_
_space_group_symop_operation_xyz
x,y,z
1/2-x,-y,z
x,1/2-y,1/2-z
1/2-x,1/2+y,1/2-z
-x,-y,-z
1/2+x,y,-z
-x,1/2+y,1/2+z
1/2+x,1/2-y,1/2+z
loop_
_atom_site_type_symbol
_atom_site_label
_atom_site_fract_x
_atom_site_fract_y
_atom_site_fract_z
Si Si1 0.411278 0.429312 0.414559
Si Si2 0.178044 0.431725 0.187907
Si Si3 0.058546 0.434732 0.694509
Si Si4 0.924240 0.440191 0.022445
O O1 0.352176 0.456913 0.309361
O O2 0.405681 0.538786 0.550261
O O3 0.480659 0.473521 0.337783
O O4 0.417269 0.242783 0.464815
O O5 0.250000 0.500000 0.147356
O O6 0.181546 0.250000 0.250000
O O7 0.126666 0.447342 0.062406
O O8 0.062252 0.250000 0.750000
O O9 0.086164 0.547693 0.815444
O O10 0.000000 0.500000 0.000000
#
# Coordination Sequence:
#
# PCOD9413097 Si02
#       4
#     8   8   8   8
#     4  11  23  38  63  95 136 168 221 271 332 387
#     4  12  26  45  69  96 135 181 223 270 336 405
#     4  11  21  36  60  96 132 167 215 272 328 381
#     4  12  22  39  64  98 135 172 221 277 329 388
#
# _framework density 20.013324999999998
#
# number of rings (size 3 to 8) (size 9 to 14) (size 15 to 20)
#    0.000    0.500    5.000    4.500    3.500    0.000 
#    0.000    1.250    0.000    0.000    0.000    0.000 
#    0.000    0.000    0.000    0.000    0.000    0.000 
#
# Total GULP energy -179069.131429 kJ/mol
# GULP energy per Si atom -5595.910357 kJ/mol
# Density = 1.996777 g / cm^3
# Si number density = 20.013325 Si / 1000 Ang^3
#
#
#
# Elastic Constant Matrix: (Units=GPa)
#
#
# Indices 1 2 3 4 5 6 
#
# 1 101.5797 26.3390 42.6269 0.0000 0.0000 0.0000
# 2 26.3390 97.1545 42.9473 0.0000 0.0000 0.0000
# 3 42.6269 42.9473 136.4858 0.0000 0.0000 0.0000
# 4 0.0000 0.0000 0.0000 43.0146 0.0000 0.0000
# 5 0.0000 0.0000 0.0000 0.0000 32.5305 0.0000
# 6 0.0000 0.0000 0.0000 0.0000 0.0000 23.5734
#
#
#
# Elastic Compliance Matrix: (Units=1/GPa)
#
#
# Indices 1 2 3 4 5 6 
#
# 1 0.011592 -0.001791 -0.003057 0.000000 0.000000 0.000000
# 2 -0.001791 0.012233 -0.003290 0.000000 0.000000 0.000000
# 3 -0.003057 -0.003290 0.009317 0.000000 0.000000 0.000000
# 4 0.000000 0.000000 0.000000 0.023248 0.000000 0.000000
# 5 0.000000 0.000000 0.000000 0.000000 0.030740 0.000000
# 6 0.000000 0.000000 0.000000 0.000000 0.000000 0.042421
#
#
# Mechanical properties :
#
#
# Convention : Reuss Voigt Hill
#
# Bulk Modulus (GPa) = 59.29246 62.11628 60.70437
# Shear Modulus (GPa) = 33.01481 34.71083 33.86282
#
# Velocity S-wave (km/s) = 4.06598 4.16911 4.11787
# Velocity P-wave (km/s) = 7.19262 7.36751 7.28059
#
# Compressibility (1/GPa) = 0.01686555
#
# Stress axis : x y z
#
# Youngs Moduli (GPa) = 86.26900 81.74764 107.33568
#
# Poissons Ratio (x) = 0.14644 0.32808
# Poissons Ratio (y) = 0.15454 0.35311
# Poissons Ratio (z) = 0.26369 0.26893
#
# Static dielectric constant tensor:
#      x y z
#    x 1.684970 0.000000 0.000000 
#    y 0.000000 1.746660 0.000000 
#    z 0.000000 0.000000 1.732910 
# 
# From -- ./inp_files/12825.got.cif
#   From: 2010.05.17/outbox.cif.g08.bks.cpg/sg52_7_cif.got.tgz:12825.got - 2010.06.03 12:15:38.
