data_PCOD9413805
_publ_section_title
;
Structure prediction by ZEFSAII (Michael W. Deem and Ramdas Pophale) SiO2 
 PCOD9413805
Probable space group: P N N A
;
_chemical_formula_sum "Si O2"
_cell_formula_units_Z 32
_cell_length_a 13.626475
_cell_length_b 4.839960
_cell_length_c 20.754537
_cell_angle_alpha 90.000000
_cell_angle_beta 90.000000
_cell_angle_gamma 90.000000
_cell_volume 1368.794797
_symmetry_space_group_name_H-M "P N N A"
_symmetry_group_IT_number 52
_symmetry_cell_setting 'orthorhombic'
loop_
_space_group_symop_operation_xyz
x,y,z
1/2-x,-y,z
x,1/2-y,1/2-z
1/2-x,1/2+y,1/2-z
-x,-y,-z
1/2+x,y,-z
-x,1/2+y,1/2+z
1/2+x,1/2-y,1/2+z
loop_
_atom_site_type_symbol
_atom_site_label
_atom_site_fract_x
_atom_site_fract_y
_atom_site_fract_z
Si Si1 0.316742 0.239249 0.992527
Si Si2 0.180868 0.750000 0.750000
Si Si3 0.250000 0.500000 0.204197
Si Si4 0.931704 0.040322 0.611688
Si Si5 0.561691 0.963313 0.128057
O O1 0.250000 0.500000 0.973442
O O2 0.396309 0.360005 0.041826
O O3 0.250000 0.000000 0.024556
O O4 0.366943 0.096421 0.931581
O O5 0.250000 0.500000 0.773704
O O6 0.114527 0.869465 0.807076
O O7 0.280601 0.750000 0.250000
O O8 0.158950 0.584174 0.159566
O O9 0.025148 0.223833 0.631112
O O10 0.965908 0.724912 0.614993
#
# Coordination Sequence:
#
# PCOD9413805 Si02
#       5
#     8   4   4   8   8
#     4  12  24  45  71 102 142 185 228 286 352 412
#     4  12  26  48  70 102 138 180 228 286 354 416
#     4  12  28  46  72 100 146 188 230 290 358 414
#     4  12  26  46  69 104 137 182 235 287 346 413
#     4  12  26  44  73 102 138 181 235 289 341 420
#
# _framework density 23.378231
#
# number of rings (size 3 to 8) (size 9 to 14) (size 15 to 20)
#    0.000    0.000    1.250    9.000    7.000    0.000 
#    0.000    0.000    0.000    0.000    0.000    0.000 
#    0.000    0.000    0.000    0.000    0.000    0.000 
#
# Total GULP energy -179565.638472 kJ/mol
# GULP energy per Si atom -5611.426202 kJ/mol
# Density = 2.332502 g / cm^3
# Si number density = 23.378231 Si / 1000 Ang^3
#
#
#
# Elastic Constant Matrix: (Units=GPa)
#
#
# Indices 1 2 3 4 5 6 
#
# 1 82.8514 3.2606 26.6293 0.0000 0.0000 0.0000
# 2 3.2606 74.4000 -10.5051 0.0000 0.0000 0.0000
# 3 26.6293 -10.5051 94.4498 0.0000 0.0000 0.0000
# 4 0.0000 0.0000 0.0000 20.4988 0.0000 0.0000
# 5 0.0000 0.0000 0.0000 0.0000 20.3453 0.0000
# 6 0.0000 0.0000 0.0000 0.0000 0.0000 60.2177
#
#
#
# Elastic Compliance Matrix: (Units=1/GPa)
#
#
# Indices 1 2 3 4 5 6 
#
# 1 0.013366 -0.001136 -0.003895 0.000000 0.000000 0.000000
# 2 -0.001136 0.013752 0.001850 0.000000 0.000000 0.000000
# 3 -0.003895 0.001850 0.011891 0.000000 0.000000 0.000000
# 4 0.000000 0.000000 0.000000 0.048783 0.000000 0.000000
# 5 0.000000 0.000000 0.000000 0.000000 0.049151 0.000000
# 6 0.000000 0.000000 0.000000 0.000000 0.000000 0.016606
#
#
# Mechanical properties :
#
#
# Convention : Reuss Voigt Hill
#
# Bulk Modulus (GPa) = 30.62976 32.27454 31.45215
# Shear Modulus (GPa) = 29.27486 35.70014 32.48750
#
# Velocity S-wave (km/s) = 3.54252 3.91201 3.73184
# Velocity P-wave (km/s) = 5.46469 5.85153 5.66142
#
# Compressibility (1/GPa) = 0.03264798
#
# Stress axis : x y z
#
# Youngs Moduli (GPa) = 74.81481 72.71766 84.09381
#
# Poissons Ratio (x) = 0.08259 0.32753
# Poissons Ratio (y) = 0.08497 -0.15555
# Poissons Ratio (z) = 0.29139 -0.13451
#
# Static dielectric constant tensor:
#      x y z
#    x 1.862540 0.000000 0.000000 
#    y 0.000000 1.819300 0.000000 
#    z 0.000000 0.000000 1.832640 
# 
# From -- ./inp_files/36488.got.cif
#   From: 2010.05.17/outbox.cif.g08.bks.cpg/sg52_19_cif.got.tgz:36488.got - 2010.06.03 12:15:38.
