data_PCOD9413997
_publ_section_title
;
Structure prediction by ZEFSAII (Michael W. Deem and Ramdas Pophale) SiO2 
 PCOD9413997
Probable space group: P N N A
;
_chemical_formula_sum "Si O2"
_cell_formula_units_Z 56
_cell_length_a 9.000000
_cell_length_b 15.000000
_cell_length_c 21.000000
_cell_angle_alpha 90.000000
_cell_angle_beta 90.000000
_cell_angle_gamma 90.000000
_cell_volume 2835.000000
_symmetry_space_group_name_H-M "P N N A"
_symmetry_group_IT_number 52
_symmetry_cell_setting 'orthorhombic'
loop_
_space_group_symop_operation_xyz
x,y,z
1/2-x,-y,z
x,1/2-y,1/2-z
1/2-x,1/2+y,1/2-z
-x,-y,-z
1/2+x,y,-z
-x,1/2+y,1/2+z
1/2+x,1/2-y,1/2+z
loop_
_atom_site_type_symbol
_atom_site_label
_atom_site_fract_x
_atom_site_fract_y
_atom_site_fract_z
Si Si1 0.707065 0.750000 0.750000
Si Si2 0.289130 0.250000 0.750000
Si Si3 0.926420 0.992019 0.070082
Si Si4 0.606769 0.058936 0.546005
Si Si5 0.500347 0.684029 0.423763
Si Si6 0.819943 0.739063 0.031540
Si Si7 0.046812 0.334577 0.172320
Si Si8 0.543268 0.187936 0.151725
O O1 0.813075 0.672423 0.779848
O O2 0.599968 0.787743 0.806036
O O3 0.395972 0.319682 0.787375
O O4 0.183431 0.198284 0.800142
O O5 0.973777 0.085460 0.101215
O O6 0.750000 0.000000 0.062083
O O7 0.964049 0.906529 0.113963
O O8 0.000000 0.000000 0.000000
O O9 0.660615 0.145716 0.505355
O O10 0.543419 0.092504 0.614953
O O11 0.750000 0.000000 0.560357
O O12 0.500000 0.000000 0.500000
O O13 0.653901 0.730856 0.448616
O O14 0.385787 0.688667 0.482304
O O15 0.438500 0.743510 0.367622
O O16 0.921112 0.742230 0.094778
#
# Coordination Sequence:
#
# PCOD9413997 Si02
#       8
#     4   4   8   8   8   8   8   8
#     4  10  26  42  68  94 126 192 216 256 312 406
#     4  10  20  44  68  90 126 190 218 250 320 412
#     4  12  22  37  61 103 134 159 214 274 326 382
#     4  11  25  41  67 103 126 162 221 290 337 383
#     4  11  21  38  65  98 127 170 207 274 334 390
#     4  11  22  39  69  93 132 171 209 273 343 383
#     4  10  22  44  69  87 130 171 224 262 336 389
#     4  11  23  40  68  93 133 176 223 257 320 401
#
# _framework density 19.753086
#
# number of rings (size 3 to 8) (size 9 to 14) (size 15 to 20)
#    0.000    1.143    4.286    1.714    6.000    1.143 
#    0.000    4.286    3.143    0.000    0.000    0.000 
#    0.000    0.000    0.000    0.000    0.000    0.000 
#
# Total GULP energy -312584.602254 kJ/mol
# GULP energy per Si atom -5581.867897 kJ/mol
# Density = 1.970813 g / cm^3
# Si number density = 19.753086 Si / 1000 Ang^3
#
#
#
# Elastic Constant Matrix: (Units=GPa)
#
#
# Indices 1 2 3 4 5 6 
#
# 1 87.2206 21.0324 32.4297 0.0000 0.0000 0.0000
# 2 21.0324 104.4817 31.8950 0.0000 0.0000 0.0000
# 3 32.4297 31.8950 115.8161 0.0000 0.0000 0.0000
# 4 0.0000 0.0000 0.0000 38.3279 0.0000 0.0000
# 5 0.0000 0.0000 0.0000 0.0000 45.2371 0.0000
# 6 0.0000 0.0000 0.0000 0.0000 0.0000 26.0431
#
#
#
# Elastic Compliance Matrix: (Units=1/GPa)
#
#
# Indices 1 2 3 4 5 6 
#
# 1 0.013053 -0.001651 -0.003200 0.000000 0.000000 0.000000
# 2 -0.001651 0.010658 -0.002473 0.000000 0.000000 0.000000
# 3 -0.003200 -0.002473 0.010212 0.000000 0.000000 0.000000
# 4 0.000000 0.000000 0.000000 0.026091 0.000000 0.000000
# 5 0.000000 0.000000 0.000000 0.000000 0.022106 0.000000
# 6 0.000000 0.000000 0.000000 0.000000 0.000000 0.038398
#
#
# Mechanical properties :
#
#
# Convention : Reuss Voigt Hill
#
# Bulk Modulus (GPa) = 51.88116 53.13696 52.50906
# Shear Modulus (GPa) = 35.31312 36.73238 36.02275
#
# Velocity S-wave (km/s) = 4.23274 4.31696 4.27506
# Velocity P-wave (km/s) = 7.08590 7.19772 7.14203
#
# Compressibility (1/GPa) = 0.01927482
#
# Stress axis : x y z
#
# Youngs Moduli (GPa) = 76.60966 93.82384 97.92797
#
# Poissons Ratio (x) = 0.15487 0.31341
# Poissons Ratio (y) = 0.12646 0.24218
# Poissons Ratio (z) = 0.24519 0.23203
#
# Static dielectric constant tensor:
#      x y z
#    x 1.729000 0.000000 0.000000 
#    y 0.000000 1.724140 0.000000 
#    z 0.000000 0.000000 1.714310 
# 
# From -- ./inp_files/36082.got.cif
#   From: 2010.05.17/outbox.ucp.g08.bks.cvg/sg52_19_cif.got.tgz:36082.got - 2010.06.11 16:30:12.
