data_PCOD9413220
_publ_section_title
;
Structure prediction by ZEFSAII (Michael W. Deem and Ramdas Pophale) SiO2 
 PCOD9413220
Probable space group: P N N A
;
_chemical_formula_sum "Si O2"
_cell_formula_units_Z 56
_cell_length_a 14.467523
_cell_length_b 20.400984
_cell_length_c 9.544684
_cell_angle_alpha 90.000000
_cell_angle_beta 90.000000
_cell_angle_gamma 90.000000
_cell_volume 2817.129759
_symmetry_space_group_name_H-M "P N N A"
_symmetry_group_IT_number 52
_symmetry_cell_setting 'orthorhombic'
loop_
_space_group_symop_operation_xyz
x,y,z
1/2-x,-y,z
x,1/2-y,1/2-z
1/2-x,1/2+y,1/2-z
-x,-y,-z
1/2+x,y,-z
-x,1/2+y,1/2+z
1/2+x,1/2-y,1/2+z
loop_
_atom_site_type_symbol
_atom_site_label
_atom_site_fract_x
_atom_site_fract_y
_atom_site_fract_z
Si Si1 0.144295 0.251281 0.082389
Si Si2 0.045696 0.025778 0.641392
Si Si3 0.780941 0.608804 0.024075
Si Si4 0.377011 0.387985 0.186373
Si Si5 0.624300 0.892571 0.245148
Si Si6 0.058819 0.711240 0.947482
Si Si7 0.189363 0.829375 0.021761
O O1 0.153528 0.250000 0.250000
O O2 0.184582 0.320401 0.027692
O O3 0.203413 0.190679 0.024145
O O4 0.037777 0.251884 0.040890
O O5 0.132340 0.067911 0.582836
O O6 0.961747 0.063204 0.718687
O O7 0.080132 0.962952 0.726933
O O8 0.000000 0.000000 0.500000
O O9 0.712680 0.583177 0.898257
O O10 0.713102 0.614685 0.155476
O O11 0.423604 0.338612 0.074714
O O12 0.342605 0.349694 0.323213
O O13 0.560695 0.833232 0.306529
O O14 0.657465 0.883698 0.087691
O O15 0.138843 0.764286 0.964081
#
# Coordination Sequence:
#
# PCOD9413220 Si02
#       7
#     8   8   8   8   8   8   8
#     4  12  21  37  67  98 135 168 215 271 336 396
#     4  12  23  43  72  93 123 176 234 266 318 388
#     4  11  22  40  66  96 124 172 226 264 319 399
#     4  11  23  42  68  97 130 174 219 276 326 391
#     4  11  24  41  65  94 135 175 218 277 321 392
#     4  11  22  41  66  98 129 175 220 260 326 404
#     4  12  24  42  62  99 142 164 209 282 341 384
#
# _framework density 19.878388000000001
#
# number of rings (size 3 to 8) (size 9 to 14) (size 15 to 20)
#    0.000    0.571    8.571    2.143    0.000    1.714 
#    2.571    0.000    6.286    0.000    0.000    0.000 
#    0.000    0.000    0.000    0.000    0.000    0.000 
#
# Total GULP energy -312623.493231 kJ/mol
# GULP energy per Si atom -5582.562379 kJ/mol
# Density = 1.983314 g / cm^3
# Si number density = 19.878388 Si / 1000 Ang^3
#
#
#
# Elastic Constant Matrix: (Units=GPa)
#
#
# Indices 1 2 3 4 5 6 
#
# 1 117.4785 32.0529 14.6486 0.0000 0.0000 0.0000
# 2 32.0529 51.2326 4.3598 0.0000 0.0000 0.0000
# 3 14.6486 4.3598 72.6723 0.0000 0.0000 0.0000
# 4 0.0000 0.0000 0.0000 19.0608 0.0000 0.0000
# 5 0.0000 0.0000 0.0000 0.0000 9.7226 0.0000
# 6 0.0000 0.0000 0.0000 0.0000 0.0000 22.9119
#
#
#
# Elastic Compliance Matrix: (Units=1/GPa)
#
#
# Indices 1 2 3 4 5 6 
#
# 1 0.010476 -0.006407 -0.001727 0.000000 0.000000 0.000000
# 2 -0.006407 0.023537 -0.000121 0.000000 0.000000 0.000000
# 3 -0.001727 -0.000121 0.014116 0.000000 0.000000 0.000000
# 4 0.000000 0.000000 0.000000 0.052464 0.000000 0.000000
# 5 0.000000 0.000000 0.000000 0.000000 0.102853 0.000000
# 6 0.000000 0.000000 0.000000 0.000000 0.000000 0.043646
#
#
# Mechanical properties :
#
#
# Convention : Reuss Voigt Hill
#
# Bulk Modulus (GPa) = 31.62621 38.16735 34.89678
# Shear Modulus (GPa) = 18.23884 23.02721 20.63302
#
# Velocity S-wave (km/s) = 3.03235 3.40723 3.22524
# Velocity P-wave (km/s) = 5.31080 5.89246 5.60917
#
# Compressibility (1/GPa) = 0.03161934
#
# Stress axis : x y z
#
# Youngs Moduli (GPa) = 95.45962 42.48542 70.84266
#
# Poissons Ratio (x) = 0.27220 0.12236
# Poissons Ratio (y) = 0.61160 0.00855
# Poissons Ratio (z) = 0.16488 0.00513
#
# Static dielectric constant tensor:
#      x y z
#    x 1.955140 0.000000 0.000000 
#    y 0.000000 1.780030 0.000000 
#    z 0.000000 0.000000 1.693850 
# 
# From -- ./inp_files/10833.got.cif
#   From: 2010.05.17/outbox.cif.g08.bks.cpg/sg52_6_cif.got.tgz:10833.got - 2010.06.03 12:15:38.
