data_PCOD9413742
_publ_section_title
;
Structure prediction by ZEFSAII (Michael W. Deem and Ramdas Pophale) SiO2 
 PCOD9413742
Probable space group: P N N A
;
_chemical_formula_sum "Si O2"
_cell_formula_units_Z 36
_cell_length_a 9.216428
_cell_length_b 12.766408
_cell_length_c 15.116996
_cell_angle_alpha 90.000000
_cell_angle_beta 90.000000
_cell_angle_gamma 90.000000
_cell_volume 1778.676031
_symmetry_space_group_name_H-M "P N N A"
_symmetry_group_IT_number 52
_symmetry_cell_setting 'orthorhombic'
loop_
_space_group_symop_operation_xyz
x,y,z
1/2-x,-y,z
x,1/2-y,1/2-z
1/2-x,1/2+y,1/2-z
-x,-y,-z
1/2+x,y,-z
-x,1/2+y,1/2+z
1/2+x,1/2-y,1/2+z
loop_
_atom_site_type_symbol
_atom_site_label
_atom_site_fract_x
_atom_site_fract_y
_atom_site_fract_z
Si Si1 0.110000 0.067764 0.062707
Si Si2 0.750000 0.000000 0.283895
Si Si3 0.705162 0.769260 0.502823
Si Si4 0.093850 0.833869 0.821291
Si Si5 0.453552 0.912582 0.569437
O O1 0.028541 0.083974 0.154197
O O2 0.250000 0.000000 0.072522
O O3 0.182194 0.179715 0.035754
O O4 0.000000 0.000000 0.000000
O O5 0.722873 0.899151 0.222541
O O6 0.892124 0.970888 0.342828
O O7 0.631459 0.719181 0.415187
O O8 0.582144 0.822850 0.566433
O O9 0.808843 0.859904 0.468410
O O10 0.045321 0.750000 0.750000
O O11 0.500000 0.000000 0.500000
#
# Coordination Sequence:
#
# PCOD9413742 Si02
#       5
#     8   4   8   8   8
#     4  12  24  46  73  99 133 184 235 285 340 431
#     4  12  26  42  70 104 142 182 226 296 362 400
#     4  12  23  43  76  97 133 184 235 275 339 428
#     4  12  24  44  67 100 140 173 226 291 348 406
#     4  12  22  43  69 103 132 182 233 277 335 426
#
# _framework density 20.239773
#
# number of rings (size 3 to 8) (size 9 to 14) (size 15 to 20)
#    0.000    0.000    8.889    1.333    0.000    0.000 
#    4.000    0.000    0.000    0.000    0.000    0.000 
#    0.000    0.000    0.000    0.000    0.000    0.000 
#
# Total GULP energy -200565.668700 kJ/mol
# GULP energy per Si atom -5571.268575 kJ/mol
# Density = 2.019371 g / cm^3
# Si number density = 20.239773 Si / 1000 Ang^3
#
#
#
# Elastic Constant Matrix: (Units=GPa)
#
#
# Indices 1 2 3 4 5 6 
#
# 1 112.0788 29.6044 28.5475 0.0000 0.0000 0.0000
# 2 29.6044 89.7864 27.4824 0.0000 0.0000 0.0000
# 3 28.5475 27.4824 67.8223 0.0000 0.0000 0.0000
# 4 0.0000 0.0000 0.0000 44.1795 0.0000 0.0000
# 5 0.0000 0.0000 0.0000 0.0000 24.1402 0.0000
# 6 0.0000 0.0000 0.0000 0.0000 0.0000 46.0023
#
#
#
# Elastic Compliance Matrix: (Units=1/GPa)
#
#
# Indices 1 2 3 4 5 6 
#
# 1 0.010425 -0.002391 -0.003419 0.000000 0.000000 0.000000
# 2 -0.002391 0.013263 -0.004368 0.000000 0.000000 0.000000
# 3 -0.003419 -0.004368 0.017954 0.000000 0.000000 0.000000
# 4 0.000000 0.000000 0.000000 0.022635 0.000000 0.000000
# 5 0.000000 0.000000 0.000000 0.000000 0.041425 0.000000
# 6 0.000000 0.000000 0.000000 0.000000 0.000000 0.021738
#
#
# Mechanical properties :
#
#
# Convention : Reuss Voigt Hill
#
# Bulk Modulus (GPa) = 46.98063 48.99513 47.98788
# Shear Modulus (GPa) = 32.28108 35.13459 33.70784
#
# Velocity S-wave (km/s) = 3.99799 4.17096 4.08539
# Velocity P-wave (km/s) = 6.67640 6.88881 6.78344
#
# Compressibility (1/GPa) = 0.02128537
#
# Stress axis : x y z
#
# Youngs Moduli (GPa) = 95.92637 75.39902 55.69923
#
# Poissons Ratio (x) = 0.18025 0.19045
# Poissons Ratio (y) = 0.22933 0.24329
# Poissons Ratio (z) = 0.32799 0.32934
#
# Static dielectric constant tensor:
#      x y z
#    x 1.779560 0.000000 0.000000 
#    y 0.000000 1.798290 0.000000 
#    z 0.000000 0.000000 1.716910 
# 
# From -- ./inp_files/35704.got.cif
#   From: 2010.05.17/outbox.cif.g08.bks.cpg/sg52_18_cif.got.tgz:35704.got - 2010.06.03 12:15:38.
