data_PCOD9413469
_publ_section_title
;
Structure prediction by ZEFSAII (Michael W. Deem and Ramdas Pophale) SiO2 
 PCOD9413469
Probable space group: P N N A
;
_chemical_formula_sum "Si O2"
_cell_formula_units_Z 56
_cell_length_a 14.294222
_cell_length_b 12.431335
_cell_length_c 15.023715
_cell_angle_alpha 90.000000
_cell_angle_beta 90.000000
_cell_angle_gamma 90.000000
_cell_volume 2669.658001
_symmetry_space_group_name_H-M "P N N A"
_symmetry_group_IT_number 52
_symmetry_cell_setting 'orthorhombic'
loop_
_space_group_symop_operation_xyz
x,y,z
1/2-x,-y,z
x,1/2-y,1/2-z
1/2-x,1/2+y,1/2-z
-x,-y,-z
1/2+x,y,-z
-x,1/2+y,1/2+z
1/2+x,1/2-y,1/2+z
loop_
_atom_site_type_symbol
_atom_site_label
_atom_site_fract_x
_atom_site_fract_y
_atom_site_fract_z
Si Si1 0.982217 0.972152 0.103166
Si Si2 0.359676 0.903284 0.513520
Si Si3 0.797669 0.160546 0.624937
Si Si4 0.878427 0.184991 0.160211
Si Si5 0.337659 0.788802 0.848252
Si Si6 0.315126 0.096966 0.170603
Si Si7 0.427777 0.128201 0.526620
O O1 0.939044 0.078000 0.149422
O O2 0.907994 0.876559 0.113378
O O3 0.078904 0.933354 0.147104
O O4 0.000000 0.000000 0.000000
O O5 0.283648 0.889559 0.435805
O O6 0.337888 0.813912 0.586852
O O7 0.461606 0.885507 0.469958
O O8 0.371287 0.021616 0.557196
O O9 0.801359 0.114516 0.723820
O O10 0.786246 0.289281 0.628236
O O11 0.895527 0.139292 0.575481
O O12 0.901336 0.250000 0.250000
O O13 0.767207 0.163988 0.159401
O O14 0.898638 0.266510 0.079492
O O15 0.366932 0.750000 0.750000
O O16 0.250000 0.000000 0.139103
#
# Coordination Sequence:
#
# PCOD9413469 Si02
#       7
#     8   8   8   8   8   8   8
#     4  12  28  47  74 106 147 188 243 303 371 443
#     4  11  24  42  75 100 142 180 240 296 355 428
#     4  11  24  47  70 103 143 186 244 297 357 441
#     4  11  26  45  70 103 142 184 236 296 365 441
#     4  11  26  45  73 105 141 190 235 300 367 439
#     4  11  27  44  72 102 145 192 238 294 364 432
#     4  11  24  43  70 105 136 187 239 294 363 422
#
# _framework density 20.976469999999999
#
# number of rings (size 3 to 8) (size 9 to 14) (size 15 to 20)
#    0.000    0.857    1.429    4.286   10.000    2.286 
#    0.000    0.000    0.000    0.000    0.000    0.000 
#    0.000    0.000    0.000    0.000    0.000    0.000 
#
# Total GULP energy -313414.101242 kJ/mol
# GULP energy per Si atom -5596.680379 kJ/mol
# Density = 2.092873 g / cm^3
# Si number density = 20.976470 Si / 1000 Ang^3
#
#
#
# Elastic Constant Matrix: (Units=GPa)
#
#
# Indices 1 2 3 4 5 6 
#
# 1 101.2871 42.6253 33.2520 0.0000 0.0000 0.0000
# 2 42.6253 116.2810 21.5606 0.0000 0.0000 0.0000
# 3 33.2520 21.5606 81.5886 0.0000 0.0000 0.0000
# 4 0.0000 0.0000 0.0000 29.2410 0.0000 0.0000
# 5 0.0000 0.0000 0.0000 0.0000 24.1328 0.0000
# 6 0.0000 0.0000 0.0000 0.0000 0.0000 41.3056
#
#
#
# Elastic Compliance Matrix: (Units=1/GPa)
#
#
# Indices 1 2 3 4 5 6 
#
# 1 0.012923 -0.003954 -0.004222 0.000000 0.000000 0.000000
# 2 -0.003954 0.010253 -0.001098 0.000000 0.000000 0.000000
# 3 -0.004222 -0.001098 0.014267 0.000000 0.000000 0.000000
# 4 0.000000 0.000000 0.000000 0.034199 0.000000 0.000000
# 5 0.000000 0.000000 0.000000 0.000000 0.041437 0.000000
# 6 0.000000 0.000000 0.000000 0.000000 0.000000 0.024210
#
#
# Mechanical properties :
#
#
# Convention : Reuss Voigt Hill
#
# Bulk Modulus (GPa) = 52.92344 54.89251 53.90798
# Shear Modulus (GPa) = 30.83833 32.38381 31.61107
#
# Velocity S-wave (km/s) = 3.83840 3.93340 3.88619
# Velocity P-wave (km/s) = 6.70292 6.84502 6.77434
#
# Compressibility (1/GPa) = 0.01889522
#
# Stress axis : x y z
#
# Youngs Moduli (GPa) = 77.38062 97.53251 70.08989
#
# Poissons Ratio (x) = 0.38569 0.29591
# Poissons Ratio (y) = 0.30600 0.07694
# Poissons Ratio (z) = 0.32670 0.10707
#
# Static dielectric constant tensor:
#      x y z
#    x 1.729850 0.000000 0.000000 
#    y 0.000000 1.764860 0.000000 
#    z 0.000000 0.000000 1.736460 
# 
# From -- ./inp_files/27270.got.cif
#   From: 2010.05.17/outbox.cif.g08.bks.cpg/sg52_14_cif.got.tgz:27270.got - 2010.06.03 12:15:38.
