data_PCOD9413491
_publ_section_title
;
Structure prediction by ZEFSAII (Michael W. Deem and Ramdas Pophale) SiO2 
 PCOD9413491
Probable space group: P N N A
;
_chemical_formula_sum "Si O2"
_cell_formula_units_Z 40
_cell_length_a 9.431539
_cell_length_b 13.986828
_cell_length_c 14.319472
_cell_angle_alpha 90.000000
_cell_angle_beta 90.000000
_cell_angle_gamma 90.000000
_cell_volume 1888.986281
_symmetry_space_group_name_H-M "P N N A"
_symmetry_group_IT_number 52
_symmetry_cell_setting 'orthorhombic'
loop_
_space_group_symop_operation_xyz
x,y,z
1/2-x,-y,z
x,1/2-y,1/2-z
1/2-x,1/2+y,1/2-z
-x,-y,-z
1/2+x,y,-z
-x,1/2+y,1/2+z
1/2+x,1/2-y,1/2+z
loop_
_atom_site_type_symbol
_atom_site_label
_atom_site_fract_x
_atom_site_fract_y
_atom_site_fract_z
Si Si1 0.579346 0.154337 0.688718
Si Si2 0.059687 0.775244 0.965305
Si Si3 0.396422 0.177029 0.336336
Si Si4 0.911237 0.524880 0.253018
Si Si5 0.173616 0.403981 0.545504
O O1 0.584443 0.250000 0.750000
O O2 0.489797 0.188119 0.599166
O O3 0.740788 0.129648 0.663091
O O4 0.503804 0.070336 0.744395
O O5 0.202196 0.827967 0.931998
O O6 0.084256 0.734790 0.068711
O O7 0.934952 0.854041 0.975065
O O8 0.400828 0.250000 0.250000
O O9 0.518723 0.100900 0.316319
O O10 0.750000 0.500000 0.228037
O O11 0.904296 0.565737 0.358623
O O12 0.250000 0.500000 0.508147
#
# Coordination Sequence:
#
# PCOD9413491 Si02
#       5
#     8   8   8   8   8
#     4  11  25  45  69 102 142 190 238 297 362 431
#     4  12  24  46  72 104 147 190 241 298 365 430
#     4  11  24  45  70 101 144 194 237 298 364 432
#     4  11  25  43  71 104 140 187 239 295 358 429
#     4  11  24  44  70 107 143 188 237 304 357 426
#
# _framework density 21.175377999999998
#
# number of rings (size 3 to 8) (size 9 to 14) (size 15 to 20)
#    0.000    0.800    4.000    3.600    2.800    1.600 
#    0.000    0.000    0.000    0.000    0.000    0.000 
#    0.000    0.000    0.000    0.000    0.000    0.000 
#
# Total GULP energy -223861.676853 kJ/mol
# GULP energy per Si atom -5596.541921 kJ/mol
# Density = 2.112718 g / cm^3
# Si number density = 21.175378 Si / 1000 Ang^3
#
#
#
# Elastic Constant Matrix: (Units=GPa)
#
#
# Indices 1 2 3 4 5 6 
#
# 1 87.3818 33.2137 13.3813 0.0000 0.0000 0.0000
# 2 33.2137 87.7362 24.4422 0.0000 0.0000 0.0000
# 3 13.3813 24.4422 89.9017 0.0000 0.0000 0.0000
# 4 0.0000 0.0000 0.0000 33.4254 0.0000 0.0000
# 5 0.0000 0.0000 0.0000 0.0000 13.7229 0.0000
# 6 0.0000 0.0000 0.0000 0.0000 0.0000 56.8593
#
#
#
# Elastic Compliance Matrix: (Units=1/GPa)
#
#
# Indices 1 2 3 4 5 6 
#
# 1 0.013404 -0.004889 -0.000666 0.000000 0.000000 0.000000
# 2 -0.004889 0.014115 -0.003110 0.000000 0.000000 0.000000
# 3 -0.000666 -0.003110 0.012068 0.000000 0.000000 0.000000
# 4 0.000000 0.000000 0.000000 0.029917 0.000000 0.000000
# 5 0.000000 0.000000 0.000000 0.000000 0.072871 0.000000
# 6 0.000000 0.000000 0.000000 0.000000 0.000000 0.017587
#
#
# Mechanical properties :
#
#
# Convention : Reuss Voigt Hill
#
# Bulk Modulus (GPa) = 44.92821 45.23268 45.08045
# Shear Modulus (GPa) = 27.06927 33.73368 30.40147
#
# Velocity S-wave (km/s) = 3.57926 3.99565 3.79317
# Velocity P-wave (km/s) = 6.19231 6.53409 6.36549
#
# Compressibility (1/GPa) = 0.02225773
#
# Stress axis : x y z
#
# Youngs Moduli (GPa) = 74.60320 70.84716 82.86464
#
# Poissons Ratio (x) = 0.34636 0.05519
# Poissons Ratio (y) = 0.36472 0.25770
# Poissons Ratio (z) = 0.04968 0.22032
#
# Static dielectric constant tensor:
#      x y z
#    x 1.769870 0.000000 0.000000 
#    y 0.000000 1.749320 0.000000 
#    z 0.000000 0.000000 1.745860 
# 
# From -- ./inp_files/24378.got.cif
#   From: 2010.05.17/outbox.cif.g08.bks.cpg/sg52_13_cif.got.tgz:24378.got - 2010.06.03 12:15:38.
