data_PCOD9413208
_publ_section_title
;
Structure prediction by ZEFSAII (Michael W. Deem and Ramdas Pophale) SiO2 
 PCOD9413208
Probable space group: P N N A
;
_chemical_formula_sum "Si O2"
_cell_formula_units_Z 32
_cell_length_a 5.107404
_cell_length_b 7.729414
_cell_length_c 37.045459
_cell_angle_alpha 90.000000
_cell_angle_beta 90.000000
_cell_angle_gamma 90.000000
_cell_volume 1462.452475
_symmetry_space_group_name_H-M "P N N A"
_symmetry_group_IT_number 52
_symmetry_cell_setting 'orthorhombic'
loop_
_space_group_symop_operation_xyz
x,y,z
1/2-x,-y,z
x,1/2-y,1/2-z
1/2-x,1/2+y,1/2-z
-x,-y,-z
1/2+x,y,-z
-x,1/2+y,1/2+z
1/2+x,1/2-y,1/2+z
loop_
_atom_site_type_symbol
_atom_site_label
_atom_site_fract_x
_atom_site_fract_y
_atom_site_fract_z
Si Si1 0.505836 0.112754 0.719417
Si Si2 0.740132 0.210976 0.479078
Si Si3 0.157150 0.306903 0.353550
Si Si4 0.663839 0.201115 0.396954
O O1 0.432614 0.250000 0.750000
O O2 0.606371 0.203900 0.683149
O O3 0.250000 0.000000 0.711023
O O4 0.750000 0.000000 0.733337
O O5 0.524127 0.269345 0.507884
O O6 0.661189 0.259234 0.438604
O O7 0.750000 0.000000 0.479619
O O8 0.250000 0.500000 0.345231
O O9 0.385419 0.221853 0.377697
O O10 0.887591 0.304039 0.375680
O O11 0.750000 0.000000 0.396022
#
# Coordination Sequence:
#
# PCOD9413208 Si02
#       4
#     8   8   8   8
#     4  12  26  46  71  99 131 166 209 256 312 374
#     4   9  17  31  55  88 121 156 206 266 319 370
#     4  12  25  42  64  93 131 171 212 259 315 375
#     4  11  22  39  65  94 125 166 217 269 319 374
#
# _framework density 21.881053999999999
#
# number of rings (size 3 to 8) (size 9 to 14) (size 15 to 20)
#    0.000    1.000    0.000    8.250    0.000    6.000 
#    0.000    0.000    0.000   15.000    0.000    0.000 
#    0.000    0.000    0.000    0.000    0.000    0.000 
#
# Total GULP energy -179241.455949 kJ/mol
# GULP energy per Si atom -5601.295498 kJ/mol
# Density = 2.183125 g / cm^3
# Si number density = 21.881054 Si / 1000 Ang^3
#
#
#
# Elastic Constant Matrix: (Units=GPa)
#
#
# Indices 1 2 3 4 5 6 
#
# 1 115.4183 17.5494 41.2850 0.0000 0.0000 0.0000
# 2 17.5494 75.8519 26.3972 0.0000 0.0000 0.0000
# 3 41.2850 26.3972 146.4937 0.0000 0.0000 0.0000
# 4 0.0000 0.0000 0.0000 -16.6931 0.0000 0.0000
# 5 0.0000 0.0000 0.0000 0.0000 57.6802 0.0000
# 6 0.0000 0.0000 0.0000 0.0000 0.0000 35.6781
#
#
#
# Elastic Compliance Matrix: (Units=1/GPa)
#
#
# Indices 1 2 3 4 5 6 
#
# 1 0.009771 -0.001389 -0.002503 0.000000 0.000000 0.000000
# 2 -0.001389 0.014263 -0.002179 0.000000 0.000000 0.000000
# 3 -0.002503 -0.002179 0.007924 0.000000 0.000000 0.000000
# 4 0.000000 0.000000 0.000000 -0.059905 0.000000 0.000000
# 5 0.000000 0.000000 0.000000 0.000000 0.017337 0.000000
# 6 0.000000 0.000000 0.000000 0.000000 0.000000 0.028028
#
#
# Mechanical properties :
#
#
# Convention : Reuss Voigt Hill
#
# Bulk Modulus (GPa) = 50.46490 56.46968 53.46729
# Shear Modulus (GPa) = 138.24972 32.16854 85.20913
#
# Velocity S-wave (km/s) = 7.95736 3.83842 6.24712
# Velocity P-wave (km/s) = 10.37012 6.74598 8.74779
#
# Compressibility (1/GPa) = 0.01981575
#
# Stress axis : x y z
#
# Youngs Moduli (GPa) = 102.34566 70.11046 126.19478
#
# Poissons Ratio (x) = 0.09742 0.31590
# Poissons Ratio (y) = 0.14220 0.27492
# Poissons Ratio (z) = 0.25620 0.15274
#
# Static dielectric constant tensor:
#      x y z
#    x 1.740710 0.000000 0.000000 
#    y 0.000000 1.869400 0.000000 
#    z 0.000000 0.000000 1.754530 
# 
# From -- ./inp_files/43556.got.cif
#   From: 2010.05.17/outbox.cif.g08.bks.cpg/sg52_22_cif.got.tgz:43556.got - 2010.06.03 12:15:38.
