data_PCOD9413237
_publ_section_title
;
Structure prediction by ZEFSAII (Michael W. Deem and Ramdas Pophale) SiO2 
 PCOD9413237
Probable space group: P N N A
;
_chemical_formula_sum "Si O2"
_cell_formula_units_Z 64
_cell_length_a 9.504513
_cell_length_b 24.693617
_cell_length_c 13.523079
_cell_angle_alpha 90.000000
_cell_angle_beta 90.000000
_cell_angle_gamma 90.000000
_cell_volume 3173.877511
_symmetry_space_group_name_H-M "P N N A"
_symmetry_group_IT_number 52
_symmetry_cell_setting 'orthorhombic'
loop_
_space_group_symop_operation_xyz
x,y,z
1/2-x,-y,z
x,1/2-y,1/2-z
1/2-x,1/2+y,1/2-z
-x,-y,-z
1/2+x,y,-z
-x,1/2+y,1/2+z
1/2+x,1/2-y,1/2+z
loop_
_atom_site_type_symbol
_atom_site_label
_atom_site_fract_x
_atom_site_fract_y
_atom_site_fract_z
Si Si1 0.949008 0.447325 0.365859
Si Si2 0.799440 0.881005 0.807606
Si Si3 0.814040 0.158691 0.596595
Si Si4 0.954622 0.066052 0.900055
Si Si5 0.360270 0.763157 0.134078
Si Si6 0.796777 0.623249 0.314144
Si Si7 0.175511 0.764022 0.866046
Si Si8 0.850024 0.660419 0.092670
O O1 0.970076 0.435387 0.482286
O O2 0.791966 0.430248 0.338610
O O3 0.047501 0.407669 0.301917
O O4 0.992712 0.509430 0.354702
O O5 0.734698 0.868581 0.699781
O O6 0.703910 0.922647 0.868015
O O7 0.812217 0.825136 0.868685
O O8 0.757416 0.220503 0.602545
O O9 0.731020 0.135379 0.501511
O O10 0.981715 0.156545 0.584466
O O11 0.047712 0.114186 0.855301
O O12 0.377372 0.750000 0.250000
O O13 0.518102 0.755974 0.090483
O O14 0.723945 0.673914 0.369217
O O15 0.804200 0.634759 0.197359
O O16 0.165275 0.750000 0.750000
O O17 0.293851 0.722452 0.902664
#
# Coordination Sequence:
#
# PCOD9413237 Si02
#       8
#     8   8   8   8   8   8   8   8
#     4  11  24  42  66  91 125 163 202 266 318 377
#     4  11  22  41  66  92 128 166 207 255 312 373
#     4  11  24  39  63  94 129 168 210 254 305 373
#     4  11  24  42  64  97 121 157 214 258 320 371
#     4   9  19  36  59  89 125 163 203 245 299 361
#     4  11  22  41  66  92 128 166 207 255 312 373
#     4   9  19  36  59  89 125 163 203 245 299 361
#     4  11  24  39  63  94 129 168 210 254 305 373
#
# _framework density 20.16461
#
# number of rings (size 3 to 8) (size 9 to 14) (size 15 to 20)
#    0.000    1.500    2.500    2.250    5.250    5.500 
#    0.000    0.000    0.000    4.500    0.000    0.000 
#    0.000    0.000    0.000    0.000    0.000    0.000 
#
# Total GULP energy -357389.063195 kJ/mol
# GULP energy per Si atom -5584.204112 kJ/mol
# Density = 2.011871 g / cm^3
# Si number density = 20.164610 Si / 1000 Ang^3
#
#
#
# Elastic Constant Matrix: (Units=GPa)
#
#
# Indices 1 2 3 4 5 6 
#
# 1 87.6749 -1.4635 27.2361 0.0000 0.0000 0.0000
# 2 -1.4635 57.6187 17.3418 0.0000 0.0000 0.0000
# 3 27.2361 17.3418 72.5822 0.0000 0.0000 0.0000
# 4 0.0000 0.0000 0.0000 15.1914 0.0000 0.0000
# 5 0.0000 0.0000 0.0000 0.0000 31.2191 0.0000
# 6 0.0000 0.0000 0.0000 0.0000 0.0000 4.6318
#
#
#
# Elastic Compliance Matrix: (Units=1/GPa)
#
#
# Indices 1 2 3 4 5 6 
#
# 1 0.013112 0.001954 -0.005387 0.000000 0.000000 0.000000
# 2 0.001954 0.018992 -0.005271 0.000000 0.000000 0.000000
# 3 -0.005387 -0.005271 0.017058 0.000000 0.000000 0.000000
# 4 0.000000 0.000000 0.000000 0.065827 0.000000 0.000000
# 5 0.000000 0.000000 0.000000 0.000000 0.032032 0.000000
# 6 0.000000 0.000000 0.000000 0.000000 0.000000 0.215901
#
#
# Mechanical properties :
#
#
# Convention : Reuss Voigt Hill
#
# Bulk Modulus (GPa) = 31.49166 33.78941 32.64054
# Shear Modulus (GPa) = 12.79057 21.85921 17.32489
#
# Velocity S-wave (km/s) = 2.52128 3.29605 2.93435
# Velocity P-wave (km/s) = 4.91192 5.59271 5.26333
#
# Compressibility (1/GPa) = 0.03175444
#
# Stress axis : x y z
#
# Youngs Moduli (GPa) = 76.26659 52.65501 58.62230
#
# Poissons Ratio (x) = -0.10291 0.31581
# Poissons Ratio (y) = -0.14906 0.30900
# Poissons Ratio (z) = 0.41086 0.27754
#
# Static dielectric constant tensor:
#      x y z
#    x 1.705350 0.000000 0.000000 
#    y 0.000000 1.705950 0.000000 
#    z 0.000000 0.000000 1.742340 
# 
# From -- ./inp_files/25148.got.cif
#   From: 2010.05.17/outbox.cif.g08.bks.cpg/sg52_13_cif.got.tgz:25148.got - 2010.06.03 12:15:38.
