data_PCOD9413515
_publ_section_title
;
Structure prediction by ZEFSAII (Michael W. Deem and Ramdas Pophale) SiO2 
 PCOD9413515
Probable space group: P N N A
;
_chemical_formula_sum "Si O2"
_cell_formula_units_Z 32
_cell_length_a 10.197026
_cell_length_b 25.038795
_cell_length_c 5.179149
_cell_angle_alpha 90.000000
_cell_angle_beta 90.000000
_cell_angle_gamma 90.000000
_cell_volume 1322.346764
_symmetry_space_group_name_H-M "P N N A"
_symmetry_group_IT_number 52
_symmetry_cell_setting 'orthorhombic'
loop_
_space_group_symop_operation_xyz
x,y,z
1/2-x,-y,z
x,1/2-y,1/2-z
1/2-x,1/2+y,1/2-z
-x,-y,-z
1/2+x,y,-z
-x,1/2+y,1/2+z
1/2+x,1/2-y,1/2+z
loop_
_atom_site_type_symbol
_atom_site_label
_atom_site_fract_x
_atom_site_fract_y
_atom_site_fract_z
Si Si1 0.478208 0.360946 0.160440
Si Si2 0.675537 0.715629 0.515293
Si Si3 0.869465 0.033775 0.941159
Si Si4 0.760659 0.378733 0.225264
O O1 0.454931 0.310847 0.352306
O O2 0.422950 0.415265 0.286963
O O3 0.625462 0.373377 0.076703
O O4 0.384290 0.354072 0.918512
O O5 0.666199 0.750000 0.250000
O O6 0.758874 0.662055 0.462465
O O7 0.734205 0.750000 0.750000
O O8 0.750000 0.000000 0.817082
O O9 0.798442 0.062216 0.185566
O O10 0.000000 0.000000 0.000000
#
# Coordination Sequence:
#
# PCOD9413515 Si02
#       4
#     8   8   8   8
#     4  11  26  45  73 109 150 194 251 311 368 457
#     4  11  24  50  74 114 149 199 247 313 376 442
#     4  11  24  46  70 105 149 198 248 305 378 443
#     4  11  26  45  73 110 149 194 254 307 376 447
#
# _framework density 24.199400000000001
#
# number of rings (size 3 to 8) (size 9 to 14) (size 15 to 20)
#    0.000    1.000    5.000    0.000    3.500    6.000 
#    0.000    0.000    0.000    0.000    0.000    0.000 
#    0.000    0.000    0.000    0.000    0.000    0.000 
#
# Total GULP energy -178531.112453 kJ/mol
# GULP energy per Si atom -5579.097264 kJ/mol
# Density = 2.414432 g / cm^3
# Si number density = 24.199400 Si / 1000 Ang^3
#
#
#
# Elastic Constant Matrix: (Units=GPa)
#
#
# Indices 1 2 3 4 5 6 
#
# 1 134.9369 8.2399 3.8236 0.0000 0.0000 0.0000
# 2 8.2399 138.1036 27.5020 0.0000 0.0000 0.0000
# 3 3.8236 27.5020 79.1566 0.0000 0.0000 0.0000
# 4 0.0000 0.0000 0.0000 26.1261 0.0000 0.0000
# 5 0.0000 0.0000 0.0000 0.0000 21.5158 0.0000
# 6 0.0000 0.0000 0.0000 0.0000 0.0000 17.9548
#
#
#
# Elastic Compliance Matrix: (Units=1/GPa)
#
#
# Indices 1 2 3 4 5 6 
#
# 1 0.007442 -0.000400 -0.000220 0.000000 0.000000 0.000000
# 2 -0.000400 0.007801 -0.002691 0.000000 0.000000 0.000000
# 3 -0.000220 -0.002691 0.013579 0.000000 0.000000 0.000000
# 4 0.000000 0.000000 0.000000 0.038276 0.000000 0.000000
# 5 0.000000 0.000000 0.000000 0.000000 0.046478 0.000000
# 6 0.000000 0.000000 0.000000 0.000000 0.000000 0.055695
#
#
# Mechanical properties :
#
#
# Convention : Reuss Voigt Hill
#
# Bulk Modulus (GPa) = 45.04898 47.92532 46.48715
# Shear Modulus (GPa) = 27.27887 33.96144 30.62016
#
# Velocity S-wave (km/s) = 3.36110 3.75026 3.56100
# Velocity P-wave (km/s) = 5.80679 6.21289 6.01327
#
# Compressibility (1/GPa) = 0.02219806
#
# Stress axis : x y z
#
# Youngs Moduli (GPa) = 134.38058 128.19387 73.64438
#
# Poissons Ratio (x) = 0.05129 0.01624
# Poissons Ratio (y) = 0.05376 0.19817
# Poissons Ratio (z) = 0.02962 0.34496
#
# Static dielectric constant tensor:
#      x y z
#    x 2.038080 0.000000 0.000000 
#    y 0.000000 2.030450 0.000000 
#    z 0.000000 0.000000 2.081940 
# 
# From -- ./inp_files/397.got.cif
#   From: 2010.05.17/outbox.cif.g08.bks.cpg/sg52_1_cif.got.tgz:397.got - 2010.06.03 12:15:38.
