data_PCOD9413891
_publ_section_title
;
Structure prediction by ZEFSAII (Michael W. Deem and Ramdas Pophale) SiO2 
 PCOD9413891
Probable space group: P N N A
;
_chemical_formula_sum "Si O2"
_cell_formula_units_Z 32
_cell_length_a 15.471961
_cell_length_b 4.770189
_cell_length_c 15.878848
_cell_angle_alpha 90.000000
_cell_angle_beta 90.000000
_cell_angle_gamma 90.000000
_cell_volume 1171.925327
_symmetry_space_group_name_H-M "P N N A"
_symmetry_group_IT_number 52
_symmetry_cell_setting 'orthorhombic'
loop_
_space_group_symop_operation_xyz
x,y,z
1/2-x,-y,z
x,1/2-y,1/2-z
1/2-x,1/2+y,1/2-z
-x,-y,-z
1/2+x,y,-z
-x,1/2+y,1/2+z
1/2+x,1/2-y,1/2+z
loop_
_atom_site_type_symbol
_atom_site_label
_atom_site_fract_x
_atom_site_fract_y
_atom_site_fract_z
Si Si1 0.200042 0.750000 0.750000
Si Si2 0.158676 0.620393 0.334436
Si Si3 0.250000 0.000000 0.473721
Si Si4 0.884525 0.845531 0.387737
Si Si5 0.498130 0.143883 0.909192
O O1 0.250000 0.500000 0.698055
O O2 0.344123 0.036343 0.685268
O O3 0.250000 0.500000 0.304706
O O4 0.118430 0.750000 0.250000
O O5 0.188947 0.814254 0.412767
O O6 0.090777 0.393462 0.367019
O O7 0.315255 0.833336 0.536052
O O8 0.927044 0.551737 0.362463
O O9 0.965371 0.042426 0.413336
O O10 0.500000 0.000000 0.000000
#
# Coordination Sequence:
#
# PCOD9413891 Si02
#       5
#     4   8   4   8   8
#     4  12  26  48  76 114 156 196 264 322 398 474
#     4  12  28  47  76 110 153 203 262 323 387 457
#     4  12  26  50  78 106 156 202 258 310 396 468
#     4  12  28  47  78 113 152 204 256 323 393 470
#     4  12  27  49  75 111 153 201 263 319 390 471
#
# _framework density 27.305492999999998
#
# number of rings (size 3 to 8) (size 9 to 14) (size 15 to 20)
#    0.000    0.000    5.000    3.750    7.000    0.000 
#    0.000    0.000    0.000    0.000    0.000    0.000 
#    0.000    0.000    0.000    0.000    0.000    0.000 
#
# Total GULP energy -179369.362558 kJ/mol
# GULP energy per Si atom -5605.292580 kJ/mol
# Density = 2.724334 g / cm^3
# Si number density = 27.305493 Si / 1000 Ang^3
#
#
#
# Elastic Constant Matrix: (Units=GPa)
#
#
# Indices 1 2 3 4 5 6 
#
# 1 130.2514 25.1216 22.5178 0.0000 0.0000 0.0000
# 2 25.1216 147.7455 17.0723 0.0000 0.0000 0.0000
# 3 22.5178 17.0723 130.7924 0.0000 0.0000 0.0000
# 4 0.0000 0.0000 0.0000 44.7233 0.0000 0.0000
# 5 0.0000 0.0000 0.0000 0.0000 23.6230 0.0000
# 6 0.0000 0.0000 0.0000 0.0000 0.0000 38.1969
#
#
#
# Elastic Compliance Matrix: (Units=1/GPa)
#
#
# Indices 1 2 3 4 5 6 
#
# 1 0.008131 -0.001239 -0.001238 0.000000 0.000000 0.000000
# 2 -0.001239 0.007061 -0.000708 0.000000 0.000000 0.000000
# 3 -0.001238 -0.000708 0.007951 0.000000 0.000000 0.000000
# 4 0.000000 0.000000 0.000000 0.022360 0.000000 0.000000
# 5 0.000000 0.000000 0.000000 0.000000 0.042332 0.000000
# 6 0.000000 0.000000 0.000000 0.000000 0.000000 0.026180
#
#
# Mechanical properties :
#
#
# Convention : Reuss Voigt Hill
#
# Bulk Modulus (GPa) = 59.62525 59.80138 59.71332
# Shear Modulus (GPa) = 39.69004 44.24714 41.96859
#
# Velocity S-wave (km/s) = 3.81669 4.02985 3.92471
# Velocity P-wave (km/s) = 6.42702 6.60313 6.51567
#
# Compressibility (1/GPa) = 0.01677142
#
# Stress axis : x y z
#
# Youngs Moduli (GPa) = 122.99317 141.62337 125.76560
#
# Poissons Ratio (x) = 0.17553 0.15570
# Poissons Ratio (y) = 0.15244 0.08908
# Poissons Ratio (z) = 0.15227 0.10031
#
# Static dielectric constant tensor:
#      x y z
#    x 2.498470 0.000000 0.000000 
#    y 0.000000 2.117260 0.000000 
#    z 0.000000 0.000000 2.141970 
# 
# From -- ./inp_files/32621.got.cif
#   From: 2010.05.17/outbox.cif.g08.bks.cpg/sg52_17_cif.got.tgz:32621.got - 2010.06.03 12:15:38.
