data_PCOD9413130
_publ_section_title
;
Structure prediction by ZEFSAII (Michael W. Deem and Ramdas Pophale) SiO2 
 PCOD9413130
Probable space group: P N N A
;
_chemical_formula_sum "Si O2"
_cell_formula_units_Z 56
_cell_length_a 19.995541
_cell_length_b 9.112540
_cell_length_c 14.619282
_cell_angle_alpha 90.000000
_cell_angle_beta 90.000000
_cell_angle_gamma 90.000000
_cell_volume 2663.781817
_symmetry_space_group_name_H-M "P N N A"
_symmetry_group_IT_number 52
_symmetry_cell_setting 'orthorhombic'
loop_
_space_group_symop_operation_xyz
x,y,z
1/2-x,-y,z
x,1/2-y,1/2-z
1/2-x,1/2+y,1/2-z
-x,-y,-z
1/2+x,y,-z
-x,1/2+y,1/2+z
1/2+x,1/2-y,1/2+z
loop_
_atom_site_type_symbol
_atom_site_label
_atom_site_fract_x
_atom_site_fract_y
_atom_site_fract_z
Si Si1 0.185624 0.205859 0.494062
Si Si2 0.411160 0.821446 0.148780
Si Si3 0.318808 0.080098 0.742898
Si Si4 0.115620 0.350537 0.667900
Si Si5 0.983083 0.325949 0.009216
Si Si6 0.032995 0.644974 0.326559
Si Si7 0.664814 0.615746 0.039622
O O1 0.158793 0.289079 0.403990
O O2 0.139773 0.273043 0.575437
O O3 0.264598 0.201308 0.523970
O O4 0.168959 0.033373 0.480599
O O5 0.411598 0.750000 0.250000
O O6 0.427551 0.995560 0.154078
O O7 0.469579 0.744991 0.086764
O O8 0.312023 0.250000 0.750000
O O9 0.347141 0.055117 0.642153
O O10 0.250000 0.000000 0.739157
O O11 0.353498 0.012045 0.830407
O O12 0.144385 0.250000 0.750000
O O13 0.041849 0.391777 0.705800
O O14 0.990155 0.240507 0.913887
O O15 0.903859 0.301988 0.022957
O O16 0.000000 0.500000 0.000000
O O17 0.065582 0.750000 0.250000
#
# Coordination Sequence:
#
# PCOD9413130 Si02
#       7
#     8   8   8   8   8   8   8
#     4  11  22  45  69  98 145 188 233 289 364 433
#     4  12  27  45  73 105 139 193 249 302 363 436
#     4  12  24  37  60 101 142 181 221 270 347 437
#     4  11  21  40  65  96 141 185 220 285 357 431
#     4  12  24  44  71 105 138 181 237 306 363 431
#     4  11  26  44  69 102 143 180 235 304 374 432
#     4  11  23  40  71 101 136 187 233 289 362 423
#
# _framework density 21.022742000000001
#
# number of rings (size 3 to 8) (size 9 to 14) (size 15 to 20)
#    0.000    0.571    5.714    2.571    6.000    0.000 
#    0.000    2.857    0.000    0.000    0.000    0.000 
#    0.000    0.000    0.000    0.000    0.000    0.000 
#
# Total GULP energy -311919.129298 kJ/mol
# GULP energy per Si atom -5569.984452 kJ/mol
# Density = 2.097489 g / cm^3
# Si number density = 21.022742 Si / 1000 Ang^3
#
#
#
# Elastic Constant Matrix: (Units=GPa)
#
#
# Indices 1 2 3 4 5 6 
#
# 1 90.0544 13.9319 4.9537 0.0000 0.0000 0.0000
# 2 13.9319 137.7217 40.1255 0.0000 0.0000 0.0000
# 3 4.9537 40.1255 108.6184 0.0000 0.0000 0.0000
# 4 0.0000 0.0000 0.0000 17.4178 0.0000 0.0000
# 5 0.0000 0.0000 0.0000 0.0000 4.5343 0.0000
# 6 0.0000 0.0000 0.0000 0.0000 0.0000 3.3329
#
#
#
# Elastic Compliance Matrix: (Units=1/GPa)
#
#
# Indices 1 2 3 4 5 6 
#
# 1 0.011282 -0.001111 -0.000104 0.000000 0.000000 0.000000
# 2 -0.001111 0.008246 -0.002996 0.000000 0.000000 0.000000
# 3 -0.000104 -0.002996 0.010318 0.000000 0.000000 0.000000
# 4 0.000000 0.000000 0.000000 0.057413 0.000000 0.000000
# 5 0.000000 0.000000 0.000000 0.000000 0.220542 0.000000
# 6 0.000000 0.000000 0.000000 0.000000 0.000000 0.300035
#
#
# Mechanical properties :
#
#
# Convention : Reuss Voigt Hill
#
# Bulk Modulus (GPa) = 46.67504 50.49074 48.58289
# Shear Modulus (GPa) = 8.02055 23.54923 15.78489
#
# Velocity S-wave (km/s) = 1.95537 3.35054 2.74313
# Velocity P-wave (km/s) = 5.22956 6.24800 5.76133
#
# Compressibility (1/GPa) = 0.02142473
#
# Stress axis : x y z
#
# Youngs Moduli (GPa) = 88.63676 121.26821 96.91872
#
# Poissons Ratio (x) = 0.13472 0.01009
# Poissons Ratio (y) = 0.09847 0.29033
# Poissons Ratio (z) = 0.00923 0.36327
#
# Static dielectric constant tensor:
#      x y z
#    x 1.713470 0.000000 0.000000 
#    y 0.000000 0.624000 0.000000 
#    z 0.000000 0.000000 1.849150 
# 
# From -- ./inp_files/28778.got.cif
#   From: 2010.05.17/outbox.cif.g08.bks.cpg/sg52_15_cif.got.tgz:28778.got - 2010.06.03 12:15:38.
