data_PCOD9413764
_publ_section_title
;
Structure prediction by ZEFSAII (Michael W. Deem and Ramdas Pophale) SiO2 
 PCOD9413764
Probable space group: P N N A
;
_chemical_formula_sum "Si O2"
_cell_formula_units_Z 40
_cell_length_a 18.711408
_cell_length_b 15.871420
_cell_length_c 6.271107
_cell_angle_alpha 90.000000
_cell_angle_beta 90.000000
_cell_angle_gamma 90.000000
_cell_volume 1862.372130
_symmetry_space_group_name_H-M "P N N A"
_symmetry_group_IT_number 52
_symmetry_cell_setting 'orthorhombic'
loop_
_space_group_symop_operation_xyz
x,y,z
1/2-x,-y,z
x,1/2-y,1/2-z
1/2-x,1/2+y,1/2-z
-x,-y,-z
1/2+x,y,-z
-x,1/2+y,1/2+z
1/2+x,1/2-y,1/2+z
loop_
_atom_site_type_symbol
_atom_site_label
_atom_site_fract_x
_atom_site_fract_y
_atom_site_fract_z
Si Si1 0.554941 0.440196 0.626832
Si Si2 0.079033 0.844890 0.813610
Si Si3 0.306133 0.157523 0.150396
Si Si4 0.199056 0.422741 0.634942
Si Si5 0.851497 0.023947 0.518852
O O1 0.500000 0.500000 0.500000
O O2 0.505307 0.360999 0.681078
O O3 0.623247 0.420772 0.481265
O O4 0.586922 0.483550 0.836250
O O5 0.095590 0.750000 0.750000
O O6 0.114517 0.911864 0.653103
O O7 0.117108 0.857360 0.040260
O O8 0.302998 0.250000 0.250000
O O9 0.303056 0.083766 0.328782
O O10 0.247194 0.151998 0.960697
O O11 0.250000 0.500000 0.564382
O O12 0.183407 0.448003 0.879863
#
# Coordination Sequence:
#
# PCOD9413764 Si02
#       5
#     8   8   8   8   8
#     4  12  24  43  71 108 141 187 249 300 365 446
#     4  12  25  43  72 107 141 191 245 299 382 442
#     4  12  26  46  75 107 148 196 249 312 378 443
#     4  12  25  42  72 105 141 191 252 297 369 442
#     4  12  23  43  77 101 143 193 242 310 359 452
#
# _framework density 21.477982999999998
#
# number of rings (size 3 to 8) (size 9 to 14) (size 15 to 20)
#    0.000    0.000   10.000    0.600    2.800    0.800 
#    0.000    0.000    4.400    0.000    0.000    0.000 
#    0.000    0.000    0.000    0.000    0.000    0.000 
#
# Total GULP energy -223375.650337 kJ/mol
# GULP energy per Si atom -5584.391258 kJ/mol
# Density = 2.142910 g / cm^3
# Si number density = 21.477983 Si / 1000 Ang^3
#
#
#
# Elastic Constant Matrix: (Units=GPa)
#
#
# Indices 1 2 3 4 5 6 
#
# 1 129.6330 40.4525 58.2459 0.0000 0.0000 0.0000
# 2 40.4525 78.6651 70.6498 0.0000 0.0000 0.0000
# 3 58.2459 70.6498 140.3944 0.0000 0.0000 0.0000
# 4 0.0000 0.0000 0.0000 44.0075 0.0000 0.0000
# 5 0.0000 0.0000 0.0000 0.0000 57.2069 0.0000
# 6 0.0000 0.0000 0.0000 0.0000 0.0000 23.5768
#
#
#
# Elastic Compliance Matrix: (Units=1/GPa)
#
#
# Indices 1 2 3 4 5 6 
#
# 1 0.009748 -0.002519 -0.002776 0.000000 0.000000 0.000000
# 2 -0.002519 0.023846 -0.010955 0.000000 0.000000 0.000000
# 3 -0.002776 -0.010955 0.013787 0.000000 0.000000 0.000000
# 4 0.000000 0.000000 0.000000 0.022723 0.000000 0.000000
# 5 0.000000 0.000000 0.000000 0.000000 0.017480 0.000000
# 6 0.000000 0.000000 0.000000 0.000000 0.000000 0.042415
#
#
# Mechanical properties :
#
#
# Convention : Reuss Voigt Hill
#
# Bulk Modulus (GPa) = 67.20190 76.37655 71.78923
# Shear Modulus (GPa) = 29.85781 36.91453 33.38617
#
# Velocity S-wave (km/s) = 3.73253 4.15024 3.94691
# Velocity P-wave (km/s) = 7.06628 7.65530 7.36668
#
# Compressibility (1/GPa) = 0.01488053
#
# Stress axis : x y z
#
# Youngs Moduli (GPa) = 102.58885 41.93546 72.53019
#
# Poissons Ratio (x) = 0.10564 0.20137
# Poissons Ratio (y) = 0.25843 0.79456
# Poissons Ratio (z) = 0.28482 0.45940
#
# Static dielectric constant tensor:
#      x y z
#    x 1.788960 0.000000 0.000000 
#    y 0.000000 1.843180 0.000000 
#    z 0.000000 0.000000 1.840110 
# 
# From -- ./inp_files/3202.got.cif
#   From: 2010.05.17/outbox.cif.g08.bks.cpg/sg52_2_cif.got.tgz:3202.got - 2010.06.03 12:15:38.
