data_PCOD9413967
_publ_section_title
;
Structure prediction by ZEFSAII (Michael W. Deem and Ramdas Pophale) SiO2 
 PCOD9413967
Probable space group: P N N A
;
_chemical_formula_sum "Si O2"
_cell_formula_units_Z 48
_cell_length_a 18.000000
_cell_length_b 9.000000
_cell_length_c 15.000000
_cell_angle_alpha 90.000000
_cell_angle_beta 90.000000
_cell_angle_gamma 90.000000
_cell_volume 2430.000000
_symmetry_space_group_name_H-M "P N N A"
_symmetry_group_IT_number 52
_symmetry_cell_setting 'orthorhombic'
loop_
_space_group_symop_operation_xyz
x,y,z
1/2-x,-y,z
x,1/2-y,1/2-z
1/2-x,1/2+y,1/2-z
-x,-y,-z
1/2+x,y,-z
-x,1/2+y,1/2+z
1/2+x,1/2-y,1/2+z
loop_
_atom_site_type_symbol
_atom_site_label
_atom_site_fract_x
_atom_site_fract_y
_atom_site_fract_z
Si Si1 0.796960 0.716945 0.532897
Si Si2 0.946611 0.428685 0.421317
Si Si3 0.629822 0.788536 0.918222
Si Si4 0.184983 0.124212 0.830911
Si Si5 0.588029 0.074206 0.831299
Si Si6 0.832787 0.523095 0.845365
O O1 0.717195 0.675144 0.572959
O O2 0.794621 0.699458 0.426700
O O3 0.858667 0.625145 0.587284
O O4 0.817014 0.880595 0.566875
O O5 0.901564 0.311926 0.481948
O O6 0.890209 0.534880 0.364712
O O7 0.000000 0.500000 0.500000
O O8 0.006383 0.365752 0.351699
O O9 0.628111 0.624987 0.878418
O O10 0.589018 0.896681 0.848963
O O11 0.178003 0.250000 0.750000
O O12 0.250000 0.000000 0.810348
O O13 0.619888 0.097380 0.732924
O O14 0.750000 0.500000 0.805421
#
# Coordination Sequence:
#
# PCOD9413967 Si02
#       6
#     8   8   8   8   8   8
#     4  11  20  40  65  88 128 166 209 270 324 382
#     4  10  21  39  68  91 126 178 215 257 331 389
#     4  10  19  36  63  90 129 168 214 261 320 382
#     4  12  25  46  72  95 123 173 228 276 321 381
#     4  11  20  36  63  94 131 169 210 254 329 394
#     4  10  22  34  61 100 126 159 209 269 322 386
#
# _framework density 19.753086
#
# number of rings (size 3 to 8) (size 9 to 14) (size 15 to 20)
#    0.000    1.333    5.000    2.500    0.000    7.333 
#    0.000    2.500    0.000    0.000    0.000    0.000 
#    0.000    0.000    0.000    0.000    0.000    0.000 
#
# Total GULP energy -267265.792748 kJ/mol
# GULP energy per Si atom -5568.037349 kJ/mol
# Density = 1.970813 g / cm^3
# Si number density = 19.753086 Si / 1000 Ang^3
#
#
#
# Elastic Constant Matrix: (Units=GPa)
#
#
# Indices 1 2 3 4 5 6 
#
# 1 101.1279 32.1985 36.2409 0.0000 0.0000 0.0000
# 2 32.1985 87.6807 35.9034 0.0000 0.0000 0.0000
# 3 36.2409 35.9034 124.2478 0.0000 0.0000 0.0000
# 4 0.0000 0.0000 0.0000 28.3451 0.0000 0.0000
# 5 0.0000 0.0000 0.0000 0.0000 30.1416 0.0000
# 6 0.0000 0.0000 0.0000 0.0000 0.0000 14.4175
#
#
#
# Elastic Compliance Matrix: (Units=1/GPa)
#
#
# Indices 1 2 3 4 5 6 
#
# 1 0.011841 -0.003328 -0.002492 0.000000 0.000000 0.000000
# 2 -0.003328 0.013871 -0.003038 0.000000 0.000000 0.000000
# 3 -0.002492 -0.003038 0.009653 0.000000 0.000000 0.000000
# 4 0.000000 0.000000 0.000000 0.035280 0.000000 0.000000
# 5 0.000000 0.000000 0.000000 0.000000 0.033177 0.000000
# 6 0.000000 0.000000 0.000000 0.000000 0.000000 0.069360
#
#
# Mechanical properties :
#
#
# Convention : Reuss Voigt Hill
#
# Bulk Modulus (GPa) = 56.65739 57.97131 57.31435
# Shear Modulus (GPa) = 25.40909 28.49509 26.95209
#
# Velocity S-wave (km/s) = 3.59044 3.80223 3.69785
# Velocity P-wave (km/s) = 6.77742 6.97765 6.87827
#
# Compressibility (1/GPa) = 0.01764995
#
# Stress axis : x y z
#
# Youngs Moduli (GPa) = 84.45119 72.09344 103.59350
#
# Poissons Ratio (x) = 0.23992 0.25818
# Poissons Ratio (y) = 0.28104 0.31467
# Poissons Ratio (z) = 0.21047 0.21899
#
# Static dielectric constant tensor:
#      x y z
#    x 1.761060 0.000000 0.000000 
#    y 0.000000 1.908190 0.000000 
#    z 0.000000 0.000000 1.681190 
# 
# From -- ./inp_files/28039.got.cif
#   From: 2010.05.17/outbox.ucp.g08.bks.cvg/sg52_15_cif.got.tgz:28039.got - 2010.06.11 16:30:12.
