data_PCOD9413045
_publ_section_title
;
Structure prediction by ZEFSAII (Michael W. Deem and Ramdas Pophale) SiO2 
 PCOD9413045
Probable space group: P N N A
;
_chemical_formula_sum "Si O2"
_cell_formula_units_Z 36
_cell_length_a 14.968896
_cell_length_b 14.621787
_cell_length_c 8.119125
_cell_angle_alpha 90.000000
_cell_angle_beta 90.000000
_cell_angle_gamma 90.000000
_cell_volume 1777.049200
_symmetry_space_group_name_H-M "P N N A"
_symmetry_group_IT_number 52
_symmetry_cell_setting 'orthorhombic'
loop_
_space_group_symop_operation_xyz
x,y,z
1/2-x,-y,z
x,1/2-y,1/2-z
1/2-x,1/2+y,1/2-z
-x,-y,-z
1/2+x,y,-z
-x,1/2+y,1/2+z
1/2+x,1/2-y,1/2+z
loop_
_atom_site_type_symbol
_atom_site_label
_atom_site_fract_x
_atom_site_fract_y
_atom_site_fract_z
Si Si1 0.433520 0.429836 0.916244
Si Si2 0.856203 0.253345 0.454363
Si Si3 0.824639 0.815776 0.096444
Si Si4 0.500448 0.895659 0.058502
Si Si5 0.250000 0.000000 0.737533
O O1 0.404863 0.338479 0.011996
O O2 0.485740 0.397425 0.753526
O O3 0.339281 0.475448 0.863843
O O4 0.500000 0.500000 0.000000
O O5 0.853818 0.250000 0.250000
O O6 0.753149 0.262910 0.501876
O O7 0.914132 0.339952 0.506780
O O8 0.849111 0.750000 0.250000
O O9 0.777521 0.909772 0.159764
O O10 0.911496 0.844461 0.997151
O O11 0.500000 0.000000 0.000000
#
# Coordination Sequence:
#
# PCOD9413045 Si02
#       5
#     8   8   8   8   4
#     4  11  24  41  64  94 134 173 216 269 330 405
#     4   9  19  38  57  90 126 163 204 262 327 390
#     4  11  20  37  66  93 123 169 218 269 331 396
#     4  11  21  36  64  96 119 163 222 265 316 393
#     4  12  20  42  66  90 124 180 212 260 350 400
#
# _framework density 20.258302
#
# number of rings (size 3 to 8) (size 9 to 14) (size 15 to 20)
#    0.000    1.333    8.889    0.000    3.111    0.000 
#    0.000    3.333    0.000    4.000    0.000    0.000 
#    0.000    0.000    0.000    0.000    0.000    0.000 
#
# Total GULP energy -200930.142122 kJ/mol
# GULP energy per Si atom -5581.392837 kJ/mol
# Density = 2.021219 g / cm^3
# Si number density = 20.258302 Si / 1000 Ang^3
#
#
#
# Elastic Constant Matrix: (Units=GPa)
#
#
# Indices 1 2 3 4 5 6 
#
# 1 194.3689 57.9978 51.3481 0.0000 0.0000 0.0000
# 2 57.9978 113.3476 23.9456 0.0000 0.0000 0.0000
# 3 51.3481 23.9456 29.0060 0.0000 0.0000 0.0000
# 4 0.0000 0.0000 0.0000 23.5617 0.0000 0.0000
# 5 0.0000 0.0000 0.0000 0.0000 28.4938 0.0000
# 6 0.0000 0.0000 0.0000 0.0000 0.0000 50.2461
#
#
#
# Elastic Compliance Matrix: (Units=1/GPa)
#
#
# Indices 1 2 3 4 5 6 
#
# 1 0.009914 -0.001654 -0.016185 0.000000 0.000000 0.000000
# 2 -0.001654 0.010962 -0.006122 0.000000 0.000000 0.000000
# 3 -0.016185 -0.006122 0.068182 0.000000 0.000000 0.000000
# 4 0.000000 0.000000 0.000000 0.042442 0.000000 0.000000
# 5 0.000000 0.000000 0.000000 0.000000 0.035095 0.000000
# 6 0.000000 0.000000 0.000000 0.000000 0.000000 0.019902
#
#
# Mechanical properties :
#
#
# Convention : Reuss Voigt Hill
#
# Bulk Modulus (GPa) = 24.30982 67.03396 45.67189
# Shear Modulus (GPa) = 20.15059 34.02239 27.08649
#
# Velocity S-wave (km/s) = 3.15728 4.10253 3.66054
# Velocity P-wave (km/s) = 5.03162 7.45671 6.36080
#
# Compressibility (1/GPa) = 0.04113564
#
# Stress axis : x y z
#
# Youngs Moduli (GPa) = 100.86626 91.22523 14.66659
#
# Poissons Ratio (x) = 0.15085 0.23739
# Poissons Ratio (y) = 0.16679 0.08979
# Poissons Ratio (z) = 1.63257 0.55850
#
# Static dielectric constant tensor:
#      x y z
#    x 1.772720 0.000000 0.000000 
#    y 0.000000 1.769010 0.000000 
#    z 0.000000 0.000000 1.536110 
# 
# From -- ./inp_files/9890.got.cif
#   From: 2010.05.17/outbox.cif.g08.bks.cpg/sg52_5_cif.got.tgz:9890.got - 2010.06.03 12:15:38.
