data_PCOD9413493
_publ_section_title
;
Structure prediction by ZEFSAII (Michael W. Deem and Ramdas Pophale) SiO2 
 PCOD9413493
Probable space group: P N N A
;
_chemical_formula_sum "Si O2"
_cell_formula_units_Z 64
_cell_length_a 17.549220
_cell_length_b 29.767120
_cell_length_c 5.606920
_cell_angle_alpha 90.000000
_cell_angle_beta 90.000000
_cell_angle_gamma 90.000000
_cell_volume 2928.997468
_symmetry_space_group_name_H-M "P N N A"
_symmetry_group_IT_number 52
_symmetry_cell_setting 'orthorhombic'
loop_
_space_group_symop_operation_xyz
x,y,z
1/2-x,-y,z
x,1/2-y,1/2-z
1/2-x,1/2+y,1/2-z
-x,-y,-z
1/2+x,y,-z
-x,1/2+y,1/2+z
1/2+x,1/2-y,1/2+z
loop_
_atom_site_type_symbol
_atom_site_label
_atom_site_fract_x
_atom_site_fract_y
_atom_site_fract_z
Si Si1 0.335119 0.677463 0.648303
Si Si2 0.634810 0.441408 0.931454
Si Si3 0.253659 0.591524 0.489751
Si Si4 0.175841 0.535272 0.847330
Si Si5 0.856658 0.123319 0.648841
Si Si6 0.739439 0.296110 0.857891
Si Si7 0.491159 0.045129 0.860215
Si Si8 0.969905 0.620815 0.258793
O O1 0.289951 0.630136 0.650432
O O2 0.314250 0.692294 0.374519
O O3 0.424899 0.665969 0.668652
O O4 0.306341 0.704190 0.887364
O O5 0.686775 0.418969 0.724557
O O6 0.557345 0.460220 0.827376
O O7 0.676322 0.485935 0.032584
O O8 0.594705 0.405534 0.106719
O O9 0.233721 0.547252 0.634285
O O10 0.172108 0.611961 0.414505
O O11 0.091924 0.541991 0.742759
O O12 0.176441 0.578759 0.020384
O O13 0.806628 0.167615 0.597044
O O14 0.947987 0.127508 0.629683
O O15 0.773673 0.250000 0.750000
O O16 0.509653 0.088948 0.017607
O O17 0.500000 0.000000 0.000000
#
# Coordination Sequence:
#
# PCOD9413493 Si02
#       8
#     8   8   8   8   8   8   8   8
#     4  11  24  47  75 107 145 188 238 298 373 450
#     4  12  26  42  63  93 144 199 254 305 352 420
#     4  11  25  45  60  97 141 192 248 303 363 421
#     4  12  24  43  62  95 140 192 254 308 362 417
#     4  11  24  44  71  99 139 183 236 308 369 433
#     4  11  25  50  80 111 144 183 233 305 389 465
#     4  12  23  42  62  92 135 194 249 303 349 415
#     4  12  23  43  70 100 141 194 243 298 361 433
#
# _framework density 21.850479
#
# number of rings (size 3 to 8) (size 9 to 14) (size 15 to 20)
#    0.000    0.500    6.250    3.000    0.000    0.500 
#    6.750    1.250    0.000    0.000    0.000    0.000 
#    0.000    0.000    0.000    0.000    0.000    0.000 
#
# Total GULP energy -356538.768005 kJ/mol
# GULP energy per Si atom -5570.918250 kJ/mol
# Density = 2.180075 g / cm^3
# Si number density = 21.850479 Si / 1000 Ang^3
#
#
#
# Elastic Constant Matrix: (Units=GPa)
#
#
# Indices 1 2 3 4 5 6 
#
# 1 -20.3597 54.0252 47.9791 0.0000 0.0000 0.0000
# 2 54.0252 70.2466 20.7218 0.0000 0.0000 0.0000
# 3 47.9791 20.7218 82.1923 0.0000 0.0000 0.0000
# 4 0.0000 0.0000 0.0000 42.9407 0.0000 0.0000
# 5 0.0000 0.0000 0.0000 0.0000 34.3887 0.0000
# 6 0.0000 0.0000 0.0000 0.0000 0.0000 23.9489
#
#
#
# Elastic Compliance Matrix: (Units=1/GPa)
#
#
# Indices 1 2 3 4 5 6 
#
# 1 -0.013262 0.008552 0.005585 0.000000 0.000000 0.000000
# 2 0.008552 0.009865 -0.007479 0.000000 0.000000 0.000000
# 3 0.005585 -0.007479 0.010792 0.000000 0.000000 0.000000
# 4 0.000000 0.000000 0.000000 0.023288 0.000000 0.000000
# 5 0.000000 0.000000 0.000000 0.000000 0.029079 0.000000
# 6 0.000000 0.000000 0.000000 0.000000 0.000000 0.041756
#
#
# Mechanical properties :
#
#
# Convention : Reuss Voigt Hill
#
# Bulk Modulus (GPa) = 48.28357 41.94794 45.11576
# Shear Modulus (GPa) = 52.57353 20.87922 36.72637
#
# Velocity S-wave (km/s) = 4.91048 3.09455 4.10421
# Velocity P-wave (km/s) = 7.36856 5.65754 6.56899
#
# Compressibility (1/GPa) = 0.02071098
#
# Stress axis : x y z
#
# Youngs Moduli (GPa) = -75.40460 101.37033 92.66369
#
# Poissons Ratio (x) = -0.86689 -0.51757
# Poissons Ratio (y) = 0.64484 0.69304
# Poissons Ratio (z) = 0.42117 0.75816
#
# Static dielectric constant tensor:
#      x y z
#    x 1.810870 0.000000 0.000000 
#    y 0.000000 1.817850 0.000000 
#    z 0.000000 0.000000 2.002210 
# 
# From -- ./inp_files/3675.got.cif
#   From: 2010.05.17/outbox.cif.g08.bks.cpg/sg52_2_cif.got.tgz:3675.got - 2010.06.03 12:15:38.
