data_PCOD9413725
_publ_section_title
;
Structure prediction by ZEFSAII (Michael W. Deem and Ramdas Pophale) SiO2 
 PCOD9413725
Probable space group: P N N A
;
_chemical_formula_sum "Si O2"
_cell_formula_units_Z 24
_cell_length_a 13.334382
_cell_length_b 5.965986
_cell_length_c 13.035362
_cell_angle_alpha 90.000000
_cell_angle_beta 90.000000
_cell_angle_gamma 90.000000
_cell_volume 1036.998716
_symmetry_space_group_name_H-M "P N N A"
_symmetry_group_IT_number 52
_symmetry_cell_setting 'orthorhombic'
loop_
_space_group_symop_operation_xyz
x,y,z
1/2-x,-y,z
x,1/2-y,1/2-z
1/2-x,1/2+y,1/2-z
-x,-y,-z
1/2+x,y,-z
-x,1/2+y,1/2+z
1/2+x,1/2-y,1/2+z
loop_
_atom_site_type_symbol
_atom_site_label
_atom_site_fract_x
_atom_site_fract_y
_atom_site_fract_z
Si Si1 0.939740 0.750000 0.750000
Si Si2 0.750000 0.500000 0.998425
Si Si3 0.629877 0.850842 0.863855
Si Si4 0.928382 0.633629 0.146361
O O1 0.873591 0.887838 0.832495
O O2 0.011223 0.584552 0.814261
O O3 0.840798 0.586206 0.068547
O O4 0.702852 0.709922 0.936035
O O5 0.642726 0.750000 0.750000
O O6 0.516187 0.791581 0.898259
O O7 0.888293 0.750000 0.250000
#
# Coordination Sequence:
#
# PCOD9413725 Si02
#       4
#     4   4   8   8
#     4   8  18  44  70  86 152 192 222 286 372 402
#     4  12  22  38  76 104 138 184 252 282 356 418
#     4   9  21  45  63  96 142 188 231 299 345 419
#     4   9  21  41  65  98 146 183 231 292 347 416
#
# _framework density 23.143713999999999
#
# number of rings (size 3 to 8) (size 9 to 14) (size 15 to 20)
#    0.000    3.333    0.000    1.000    2.333    1.333 
#   12.000   16.667    0.000    0.000    0.000    0.000 
#    0.000    5.000    0.000    0.000    0.000    0.000 
#
# Total GULP energy -134021.264912 kJ/mol
# GULP energy per Si atom -5584.219371 kJ/mol
# Density = 2.309104 g / cm^3
# Si number density = 23.143714 Si / 1000 Ang^3
#
#
#
# Elastic Constant Matrix: (Units=GPa)
#
#
# Indices 1 2 3 4 5 6 
#
# 1 180.0788 78.7991 119.5694 0.0000 0.0000 0.0000
# 2 78.7991 143.2143 79.4654 0.0000 0.0000 0.0000
# 3 119.5694 79.4654 137.6220 0.0000 0.0000 0.0000
# 4 0.0000 0.0000 0.0000 40.0286 0.0000 0.0000
# 5 0.0000 0.0000 0.0000 0.0000 47.0403 0.0000
# 6 0.0000 0.0000 0.0000 0.0000 0.0000 35.3723
#
#
#
# Elastic Compliance Matrix: (Units=1/GPa)
#
#
# Indices 1 2 3 4 5 6 
#
# 1 0.013295 -0.001333 -0.010781 0.000000 0.000000 0.000000
# 2 -0.001333 0.010408 -0.004852 0.000000 0.000000 0.000000
# 3 -0.010781 -0.004852 0.019435 0.000000 0.000000 0.000000
# 4 0.000000 0.000000 0.000000 0.024982 0.000000 0.000000
# 5 0.000000 0.000000 0.000000 0.000000 0.021258 0.000000
# 6 0.000000 0.000000 0.000000 0.000000 0.000000 0.028271
#
#
# Mechanical properties :
#
#
# Convention : Reuss Voigt Hill
#
# Bulk Modulus (GPa) = 108.62607 112.95366 110.78987
# Shear Modulus (GPa) = 32.33103 36.69364 34.51234
#
# Velocity S-wave (km/s) = 3.74166 3.98611 3.86582
# Velocity P-wave (km/s) = 8.10580 8.37238 8.24017
#
# Compressibility (1/GPa) = 0.00920589
#
# Stress axis : x y z
#
# Youngs Moduli (GPa) = 75.21566 96.08000 51.45360
#
# Poissons Ratio (x) = 0.12806 0.55475
# Poissons Ratio (y) = 0.10025 0.24964
# Poissons Ratio (z) = 0.81094 0.46615
#
# Static dielectric constant tensor:
#      x y z
#    x 1.881200 0.000000 0.000000 
#    y 0.000000 2.056350 0.000000 
#    z 0.000000 0.000000 1.831450 
# 
# From -- ./inp_files/17476.got.cif
#   From: 2010.05.17/outbox.cif.g08.bks.cpg/sg52_9_cif.got.tgz:17476.got - 2010.06.03 12:15:38.
