data_PCOD9413658
_publ_section_title
;
Structure prediction by ZEFSAII (Michael W. Deem and Ramdas Pophale) SiO2 
 PCOD9413658
Probable space group: P N N A
;
_chemical_formula_sum "Si O2"
_cell_formula_units_Z 60
_cell_length_a 27.291226
_cell_length_b 10.879326
_cell_length_c 8.549084
_cell_angle_alpha 90.000000
_cell_angle_beta 90.000000
_cell_angle_gamma 90.000000
_cell_volume 2538.309767
_symmetry_space_group_name_H-M "P N N A"
_symmetry_group_IT_number 52
_symmetry_cell_setting 'orthorhombic'
loop_
_space_group_symop_operation_xyz
x,y,z
1/2-x,-y,z
x,1/2-y,1/2-z
1/2-x,1/2+y,1/2-z
-x,-y,-z
1/2+x,y,-z
-x,1/2+y,1/2+z
1/2+x,1/2-y,1/2+z
loop_
_atom_site_type_symbol
_atom_site_label
_atom_site_fract_x
_atom_site_fract_y
_atom_site_fract_z
Si Si1 0.608565 0.658614 0.112497
Si Si2 0.750000 0.500000 0.185124
Si Si3 0.812476 0.275320 0.579947
Si Si4 0.003240 0.136310 0.425950
Si Si5 0.655996 0.062948 0.472771
Si Si6 0.037392 0.395889 0.431036
Si Si7 0.146813 0.041646 0.155462
Si Si8 0.711487 0.308089 0.441623
O O1 0.626089 0.750000 0.250000
O O2 0.552321 0.683535 0.083851
O O3 0.616218 0.511895 0.129921
O O4 0.640927 0.693834 0.963741
O O5 0.704958 0.514981 0.065615
O O6 0.723507 0.405712 0.305805
O O7 0.792257 0.250000 0.750000
O O8 0.834978 0.410581 0.593541
O O9 0.766410 0.259798 0.467509
O O10 0.031222 0.255719 0.497555
O O11 0.023284 0.115722 0.251770
O O12 0.000000 0.000000 0.500000
O O13 0.671171 0.200521 0.424073
O O14 0.642461 0.058874 0.656841
O O15 0.094690 0.431811 0.427665
O O16 0.000000 0.500000 0.500000
O O17 0.190804 0.126667 0.095093
#
# Coordination Sequence:
#
# PCOD9413658 Si02
#       8
#     8   4   8   8   8   8   8   8
#     4  12  25  46  75 106 151 200 249 314 396 469
#     4  12  26  48  66 106 158 200 242 316 380 450
#     4  12  24  45  71 107 147 203 255 308 382 474
#     4  11  26  48  77 112 152 199 260 329 397 462
#     4  12  27  44  75 108 151 200 259 310 378 463
#     4  11  26  50  78 114 156 202 258 328 394 471
#     4  12  26  46  79 109 152 202 261 319 391 463
#     4  12  27  47  74 111 151 200 256 321 383 461
#
# _framework density 23.637777
#
# number of rings (size 3 to 8) (size 9 to 14) (size 15 to 20)
#    0.000    0.267    4.000    4.800    7.467    0.533 
#    0.000    0.000    0.000    0.000    0.000    0.000 
#    0.000    0.000    0.000    0.000    0.000    0.000 
#
# Total GULP energy -334701.634435 kJ/mol
# GULP energy per Si atom -5578.360574 kJ/mol
# Density = 2.358398 g / cm^3
# Si number density = 23.637777 Si / 1000 Ang^3
#
#
#
# Elastic Constant Matrix: (Units=GPa)
#
#
# Indices 1 2 3 4 5 6 
#
# 1 112.1936 19.6080 3.9048 0.0000 0.0000 0.0000
# 2 19.6080 164.3405 19.3943 0.0000 0.0000 0.0000
# 3 3.9048 19.3943 56.4292 0.0000 0.0000 0.0000
# 4 0.0000 0.0000 0.0000 27.8589 0.0000 0.0000
# 5 0.0000 0.0000 0.0000 0.0000 79.5696 0.0000
# 6 0.0000 0.0000 0.0000 0.0000 0.0000 40.9821
#
#
#
# Elastic Compliance Matrix: (Units=1/GPa)
#
#
# Indices 1 2 3 4 5 6 
#
# 1 0.009107 -0.001055 -0.000268 0.000000 0.000000 0.000000
# 2 -0.001055 0.006464 -0.002149 0.000000 0.000000 0.000000
# 3 -0.000268 -0.002149 0.018478 0.000000 0.000000 0.000000
# 4 0.000000 0.000000 0.000000 0.035895 0.000000 0.000000
# 5 0.000000 0.000000 0.000000 0.000000 0.012568 0.000000
# 6 0.000000 0.000000 0.000000 0.000000 0.000000 0.024401
#
#
# Mechanical properties :
#
#
# Convention : Reuss Voigt Hill
#
# Bulk Modulus (GPa) = 36.89097 46.53084 41.71090
# Shear Modulus (GPa) = 40.68628 49.01920 44.85274
#
# Velocity S-wave (km/s) = 4.15328 4.55880 4.36076
# Velocity P-wave (km/s) = 6.21614 6.88752 6.56042
#
# Compressibility (1/GPa) = 0.02710691
#
# Stress axis : x y z
#
# Youngs Moduli (GPa) = 109.80732 154.69379 54.11741
#
# Poissons Ratio (x) = 0.16320 0.01448
# Poissons Ratio (y) = 0.11585 0.11629
# Poissons Ratio (z) = 0.02938 0.33240
#
# Static dielectric constant tensor:
#      x y z
#    x 1.850400 0.000000 0.000000 
#    y 0.000000 2.090970 0.000000 
#    z 0.000000 0.000000 1.939860 
# 
# From -- ./inp_files/15072.got.cif
#   From: 2010.05.17/outbox.cif.g08.bks.cpg/sg52_8_cif.got.tgz:15072.got - 2010.06.03 12:15:38.
