data_PCOD9413426
_publ_section_title
;
Structure prediction by ZEFSAII (Michael W. Deem and Ramdas Pophale) SiO2 
 PCOD9413426
Probable space group: P N N A
;
_chemical_formula_sum "Si O2"
_cell_formula_units_Z 40
_cell_length_a 16.734345
_cell_length_b 11.432754
_cell_length_c 9.110018
_cell_angle_alpha 90.000000
_cell_angle_beta 90.000000
_cell_angle_gamma 90.000000
_cell_volume 1742.925453
_symmetry_space_group_name_H-M "P N N A"
_symmetry_group_IT_number 52
_symmetry_cell_setting 'orthorhombic'
loop_
_space_group_symop_operation_xyz
x,y,z
1/2-x,-y,z
x,1/2-y,1/2-z
1/2-x,1/2+y,1/2-z
-x,-y,-z
1/2+x,y,-z
-x,1/2+y,1/2+z
1/2+x,1/2-y,1/2+z
loop_
_atom_site_type_symbol
_atom_site_label
_atom_site_fract_x
_atom_site_fract_y
_atom_site_fract_z
Si Si1 0.304340 0.208527 0.468517
Si Si2 0.126776 0.216555 0.583015
Si Si3 0.070615 0.542289 0.890327
Si Si4 0.033785 0.095061 0.114497
Si Si5 0.176604 0.936528 0.178844
O O1 0.218472 0.240204 0.535800
O O2 0.367395 0.140658 0.564182
O O3 0.292090 0.123157 0.328060
O O4 0.348749 0.325940 0.415982
O O5 0.106843 0.250000 0.750000
O O6 0.067955 0.289186 0.470712
O O7 0.120624 0.077295 0.600232
O O8 0.031711 0.593429 0.742276
O O9 0.000000 0.500000 0.000000
O O10 0.109159 0.032696 0.194177
O O11 0.000000 0.000000 0.000000
O O12 0.250000 0.000000 0.102192
#
# Coordination Sequence:
#
# PCOD9413426 Si02
#       5
#     8   8   8   8   8
#     4  11  26  47  79 112 157 204 265 329 394 479
#     4  12  27  51  77 110 159 214 268 331 397 490
#     4  12  27  48  78 116 158 201 267 331 405 470
#     4  12  27  49  79 111 159 209 265 331 412 471
#     4  11  23  47  77 113 152 208 262 324 398 484
#
# _framework density 22.949922000000001
#
# number of rings (size 3 to 8) (size 9 to 14) (size 15 to 20)
#    0.000    0.400    6.000    1.800    2.800    2.400 
#    3.600    0.000    0.000    0.000    0.000    0.000 
#    0.000    0.000    0.000    0.000    0.000    0.000 
#
# Total GULP energy -223282.968744 kJ/mol
# GULP energy per Si atom -5582.074219 kJ/mol
# Density = 2.289769 g / cm^3
# Si number density = 22.949922 Si / 1000 Ang^3
#
#
#
# Elastic Constant Matrix: (Units=GPa)
#
#
# Indices 1 2 3 4 5 6 
#
# 1 74.8991 35.8227 31.7952 0.0000 0.0000 0.0000
# 2 35.8227 133.9712 57.9249 0.0000 0.0000 0.0000
# 3 31.7952 57.9249 113.4867 0.0000 0.0000 0.0000
# 4 0.0000 0.0000 0.0000 28.6006 0.0000 0.0000
# 5 0.0000 0.0000 0.0000 0.0000 41.3410 0.0000
# 6 0.0000 0.0000 0.0000 0.0000 0.0000 21.4462
#
#
#
# Elastic Compliance Matrix: (Units=1/GPa)
#
#
# Indices 1 2 3 4 5 6 
#
# 1 0.016048 -0.003012 -0.002959 0.000000 0.000000 0.000000
# 2 -0.003012 0.010143 -0.004333 0.000000 0.000000 0.000000
# 3 -0.002959 -0.004333 0.011852 0.000000 0.000000 0.000000
# 4 0.000000 0.000000 0.000000 0.034964 0.000000 0.000000
# 5 0.000000 0.000000 0.000000 0.000000 0.024189 0.000000
# 6 0.000000 0.000000 0.000000 0.000000 0.000000 0.046628
#
#
# Mechanical properties :
#
#
# Convention : Reuss Voigt Hill
#
# Bulk Modulus (GPa) = 57.35449 63.71585 60.53517
# Shear Modulus (GPa) = 29.36943 31.39850 30.38397
#
# Velocity S-wave (km/s) = 3.58120 3.70284 3.64252
# Velocity P-wave (km/s) = 6.49195 6.79004 6.64266
#
# Compressibility (1/GPa) = 0.01743543
#
# Stress axis : x y z
#
# Youngs Moduli (GPa) = 62.31391 98.58776 84.37099
#
# Poissons Ratio (x) = 0.29692 0.24964
# Poissons Ratio (y) = 0.18767 0.36562
# Poissons Ratio (z) = 0.18438 0.42722
#
# Static dielectric constant tensor:
#      x y z
#    x 1.754500 0.000000 0.000000 
#    y 0.000000 2.668790 0.000000 
#    z 0.000000 0.000000 1.930890 
# 
# From -- ./inp_files/11603.got.cif
#   From: 2010.05.17/outbox.cif.g08.bks.cpg/sg52_6_cif.got.tgz:11603.got - 2010.06.03 12:15:38.
