data_PCOD9413894
_publ_section_title
;
Structure prediction by ZEFSAII (Michael W. Deem and Ramdas Pophale) SiO2 
 PCOD9413894
Probable space group: P N N A
;
_chemical_formula_sum "Si O2"
_cell_formula_units_Z 36
_cell_length_a 11.669549
_cell_length_b 4.809257
_cell_length_c 24.378298
_cell_angle_alpha 90.000000
_cell_angle_beta 90.000000
_cell_angle_gamma 90.000000
_cell_volume 1368.155433
_symmetry_space_group_name_H-M "P N N A"
_symmetry_group_IT_number 52
_symmetry_cell_setting 'orthorhombic'
loop_
_space_group_symop_operation_xyz
x,y,z
1/2-x,-y,z
x,1/2-y,1/2-z
1/2-x,1/2+y,1/2-z
-x,-y,-z
1/2+x,y,-z
-x,1/2+y,1/2+z
1/2+x,1/2-y,1/2+z
loop_
_atom_site_type_symbol
_atom_site_label
_atom_site_fract_x
_atom_site_fract_y
_atom_site_fract_z
Si Si1 0.250000 0.500000 0.045955
Si Si2 0.128331 0.414631 0.516049
Si Si3 0.429247 0.222035 0.365532
Si Si4 0.922597 0.219590 0.125235
Si Si5 0.829924 0.250000 0.750000
Si Si6 0.750000 0.000000 0.214288
O O1 0.331315 0.345845 0.091335
O O2 0.148864 0.402257 0.002709
O O3 0.250000 0.500000 0.487201
O O4 0.136316 0.573487 0.573673
O O5 0.000000 0.500000 0.500000
O O6 0.459931 0.546475 0.368139
O O7 0.399545 0.150737 0.302910
O O8 0.541972 0.039307 0.380810
O O9 0.844093 0.153146 0.177157
O O10 0.750000 0.500000 0.730241
O O11 0.802862 0.750000 0.250000
#
# Coordination Sequence:
#
# PCOD9413894 Si02
#       6
#     4   8   8   8   4   4
#     4  12  28  47  82 116 171 210 288 340 420 508
#     4  12  27  50  81 117 164 221 276 346 420 500
#     4  12  28  48  77 117 160 212 270 342 416 497
#     4  12  28  50  77 114 161 209 272 342 416 499
#     4  12  26  48  80 112 160 214 272 342 420 502
#     4  12  28  51  78 114 153 208 278 346 412 504
#
# _framework density 26.312799999999999
#
# number of rings (size 3 to 8) (size 9 to 14) (size 15 to 20)
#    0.000    0.000    4.444    4.000    7.778    2.667 
#    0.000    0.000    0.000    0.000    0.000    0.000 
#    0.000    0.000    0.000    0.000    0.000    0.000 
#
# Total GULP energy -201059.351812 kJ/mol
# GULP energy per Si atom -5584.981995 kJ/mol
# Density = 2.625291 g / cm^3
# Si number density = 26.312800 Si / 1000 Ang^3
#
#
#
# Elastic Constant Matrix: (Units=GPa)
#
#
# Indices 1 2 3 4 5 6 
#
# 1 139.4138 28.3997 40.6215 0.0000 0.0000 0.0000
# 2 28.3997 94.4946 28.9276 0.0000 0.0000 0.0000
# 3 40.6215 28.9276 166.1073 0.0000 0.0000 0.0000
# 4 0.0000 0.0000 0.0000 24.7527 0.0000 0.0000
# 5 0.0000 0.0000 0.0000 0.0000 40.9574 0.0000
# 6 0.0000 0.0000 0.0000 0.0000 0.0000 39.8691
#
#
#
# Elastic Compliance Matrix: (Units=1/GPa)
#
#
# Indices 1 2 3 4 5 6 
#
# 1 0.008039 -0.001916 -0.001632 0.000000 0.000000 0.000000
# 2 -0.001916 0.011635 -0.001558 0.000000 0.000000 0.000000
# 3 -0.001632 -0.001558 0.006691 0.000000 0.000000 0.000000
# 4 0.000000 0.000000 0.000000 0.040400 0.000000 0.000000
# 5 0.000000 0.000000 0.000000 0.000000 0.024416 0.000000
# 6 0.000000 0.000000 0.000000 0.000000 0.000000 0.025082
#
#
# Mechanical properties :
#
#
# Convention : Reuss Voigt Hill
#
# Bulk Modulus (GPa) = 61.90993 66.21257 64.06125
# Shear Modulus (GPa) = 37.91939 41.25364 39.58651
#
# Velocity S-wave (km/s) = 3.80030 3.96386 3.88294
# Velocity P-wave (km/s) = 6.54491 6.79469 6.67097
#
# Compressibility (1/GPa) = 0.01615250
#
# Stress axis : x y z
#
# Youngs Moduli (GPa) = 124.39603 85.94451 149.46306
#
# Poissons Ratio (x) = 0.16470 0.24395
# Poissons Ratio (y) = 0.23839 0.23281
# Poissons Ratio (z) = 0.20303 0.13387
#
# Static dielectric constant tensor:
#      x y z
#    x 2.012920 0.000000 0.000000 
#    y 0.000000 1.452670 0.000000 
#    z 0.000000 0.000000 2.092920 
# 
# From -- ./inp_files/39968.got.cif
#   From: 2010.05.17/outbox.cif.g08.bks.cpg/sg52_20_cif.got.tgz:39968.got - 2010.06.03 12:15:38.
