data_PCOD9413352
_publ_section_title
;
Structure prediction by ZEFSAII (Michael W. Deem and Ramdas Pophale) SiO2 
 PCOD9413352
Probable space group: P N N A
;
_chemical_formula_sum "Si O2"
_cell_formula_units_Z 24
_cell_length_a 8.183439
_cell_length_b 8.368267
_cell_length_c 16.845243
_cell_angle_alpha 90.000000
_cell_angle_beta 90.000000
_cell_angle_gamma 90.000000
_cell_volume 1153.582498
_symmetry_space_group_name_H-M "P N N A"
_symmetry_group_IT_number 52
_symmetry_cell_setting 'orthorhombic'
loop_
_space_group_symop_operation_xyz
x,y,z
1/2-x,-y,z
x,1/2-y,1/2-z
1/2-x,1/2+y,1/2-z
-x,-y,-z
1/2+x,y,-z
-x,1/2+y,1/2+z
1/2+x,1/2-y,1/2+z
loop_
_atom_site_type_symbol
_atom_site_label
_atom_site_fract_x
_atom_site_fract_y
_atom_site_fract_z
Si Si1 0.060431 0.935088 0.915957
Si Si2 0.064983 0.066656 0.416657
Si Si3 0.435171 0.560979 0.749749
O O1 0.003726 0.749577 0.915768
O O2 0.250000 0.000000 0.913933
O O3 0.987050 0.002342 0.833222
O O4 0.000000 0.000000 0.000000
O O5 0.250000 0.000000 0.418397
O O6 0.000000 0.000000 0.500000
O O7 0.005223 0.999914 0.332314
O O8 0.250000 0.500000 0.749209
O O9 0.438187 0.750000 0.750000
#
# Coordination Sequence:
#
# PCOD9413352 Si02
#       3
#     8   8   8
#     4  11  23  42  67  96 134 180 228 284 346 417
#     4  12  25  42  66  99 136 178 227 284 345 416
#     4  11  23  42  66  95 132 178 225 280 343 411
#
# _framework density 20.804753000000002
#
# number of rings (size 3 to 8) (size 9 to 14) (size 15 to 20)
#    0.000    0.667    0.000   10.000    0.000    4.000 
#    0.000    0.000    0.000    0.000    0.000    0.000 
#    0.000    0.000    0.000    0.000    0.000    0.000 
#
# Total GULP energy -133614.738818 kJ/mol
# GULP energy per Si atom -5567.280784 kJ/mol
# Density = 2.075740 g / cm^3
# Si number density = 20.804753 Si / 1000 Ang^3
#
#
#
# Elastic Constant Matrix: (Units=GPa)
#
#
# Indices 1 2 3 4 5 6 
#
# 1 113.0164 57.6233 84.1055 0.0000 0.0000 0.0000
# 2 57.6233 263.9362 129.9243 0.0000 0.0000 0.0000
# 3 84.1055 129.9243 306.9330 0.0000 0.0000 0.0000
# 4 0.0000 0.0000 0.0000 64.0429 0.0000 0.0000
# 5 0.0000 0.0000 0.0000 0.0000 49.9518 0.0000
# 6 0.0000 0.0000 0.0000 0.0000 0.0000 31.6312
#
#
#
# Elastic Compliance Matrix: (Units=1/GPa)
#
#
# Indices 1 2 3 4 5 6 
#
# 1 0.011409 -0.001202 -0.002617 0.000000 0.000000 0.000000
# 2 -0.001202 0.004913 -0.001750 0.000000 0.000000 0.000000
# 3 -0.002617 -0.001750 0.004716 0.000000 0.000000 0.000000
# 4 0.000000 0.000000 0.000000 0.015615 0.000000 0.000000
# 5 0.000000 0.000000 0.000000 0.000000 0.020019 0.000000
# 6 0.000000 0.000000 0.000000 0.000000 0.000000 0.031614
#
#
# Mechanical properties :
#
#
# Convention : Reuss Voigt Hill
#
# Bulk Modulus (GPa) = 101.02804 136.35466 118.69135
# Shear Modulus (GPa) = 48.67344 56.60733 52.64039
#
# Velocity S-wave (km/s) = 4.84212 5.22187 5.03558
# Velocity P-wave (km/s) = 8.94019 10.10147 9.53852
#
# Compressibility (1/GPa) = 0.00989824
#
# Stress axis : x y z
#
# Youngs Moduli (GPa) = 87.64882 203.54932 212.04214
#
# Poissons Ratio (x) = 0.24477 0.55498
# Poissons Ratio (y) = 0.10540 0.37109
# Poissons Ratio (z) = 0.22940 0.35623
#
# Static dielectric constant tensor:
#      x y z
#    x 1.944160 0.000000 0.000000 
#    y 0.000000 2.417600 0.000000 
#    z 0.000000 0.000000 1.519730 
# 
# From -- ./inp_files/23904.got.cif
#   From: 2010.05.17/outbox.cif.g08.bks.cpg/sg52_12_cif.got.tgz:23904.got - 2010.06.03 12:15:38.
