data_PCOD9413061
_publ_section_title
;
Structure prediction by ZEFSAII (Michael W. Deem and Ramdas Pophale) SiO2 
 PCOD9413061
Probable space group: P N N A
;
_chemical_formula_sum "Si O2"
_cell_formula_units_Z 36
_cell_length_a 18.002528
_cell_length_b 12.870656
_cell_length_c 6.608863
_cell_angle_alpha 90.000000
_cell_angle_beta 90.000000
_cell_angle_gamma 90.000000
_cell_volume 1531.302273
_symmetry_space_group_name_H-M "P N N A"
_symmetry_group_IT_number 52
_symmetry_cell_setting 'orthorhombic'
loop_
_space_group_symop_operation_xyz
x,y,z
1/2-x,-y,z
x,1/2-y,1/2-z
1/2-x,1/2+y,1/2-z
-x,-y,-z
1/2+x,y,-z
-x,1/2+y,1/2+z
1/2+x,1/2-y,1/2+z
loop_
_atom_site_type_symbol
_atom_site_label
_atom_site_fract_x
_atom_site_fract_y
_atom_site_fract_z
Si Si1 0.342892 0.070877 0.793839
Si Si2 0.124628 0.370839 0.461375
Si Si3 0.775882 0.750000 0.250000
Si Si4 0.044774 0.653597 0.401614
Si Si5 0.417910 0.981170 0.408329
O O1 0.277547 0.149910 0.738460
O O2 0.365073 0.011661 0.589679
O O3 0.409200 0.143032 0.889564
O O4 0.334535 0.974840 0.951185
O O5 0.172105 0.277244 0.557781
O O6 0.107262 0.380739 0.221223
O O7 0.041785 0.366815 0.556749
O O8 0.051369 0.750000 0.250000
O O9 0.080613 0.564679 0.267784
O O10 0.500000 0.000000 0.500000
#
# Coordination Sequence:
#
# PCOD9413061 Si02
#       5
#     8   8   4   8   8
#     4  11  23  45  69 103 147 196 244 308 377 454
#     4  11  23  43  70 102 144 188 246 310 378 453
#     4  12  26  46  68 104 158 194 236 310 398 470
#     4  11  21  39  71 105 139 184 250 306 363 448
#     4  11  20  41  74 102 129 187 253 307 366 436
#
# _framework density 23.509399999999999
#
# number of rings (size 3 to 8) (size 9 to 14) (size 15 to 20)
#    0.000    0.889    5.556    3.333    0.000    0.000 
#    0.000   18.889    0.000    0.000    0.000    0.000 
#    0.000    0.000    0.000    0.000    0.000    0.000 
#
# Total GULP energy -200748.406543 kJ/mol
# GULP energy per Si atom -5576.344626 kJ/mol
# Density = 2.345589 g / cm^3
# Si number density = 23.509400 Si / 1000 Ang^3
#
#
#
# Elastic Constant Matrix: (Units=GPa)
#
#
# Indices 1 2 3 4 5 6 
#
# 1 -417.3617 221.8890 157.7637 0.0000 0.0000 0.0000
# 2 221.8890 50.3755 24.3177 0.0000 0.0000 0.0000
# 3 157.7637 24.3177 142.5323 0.0000 0.0000 0.0000
# 4 0.0000 0.0000 0.0000 57.7303 0.0000 0.0000
# 5 0.0000 0.0000 0.0000 0.0000 407.2729 0.0000
# 6 0.0000 0.0000 0.0000 0.0000 0.0000 47.5058
#
#
#
# Elastic Compliance Matrix: (Units=1/GPa)
#
#
# Indices 1 2 3 4 5 6 
#
# 1 -0.000707 0.002982 0.000274 0.000000 0.000000 0.000000
# 2 0.002982 0.009055 -0.004846 0.000000 0.000000 0.000000
# 3 0.000274 -0.004846 0.007540 0.000000 0.000000 0.000000
# 4 0.000000 0.000000 0.000000 0.017322 0.000000 0.000000
# 5 0.000000 0.000000 0.000000 0.000000 0.002455 0.000000
# 6 0.000000 0.000000 0.000000 0.000000 0.000000 0.021050
#
#
# Mechanical properties :
#
#
# Convention : Reuss Voigt Hill
#
# Bulk Modulus (GPa) = 78.69218 64.83188 71.76203
# Shear Modulus (GPa) = 77.96692 60.60683 69.28688
#
# Velocity S-wave (km/s) = 5.76508 5.08289 5.43470
# Velocity P-wave (km/s) = 8.82384 7.87938 8.36495
#
# Compressibility (1/GPa) = 0.01270774
#
# Stress axis : x y z
#
# Youngs Moduli (GPa) = -1414.33086 110.44165 132.63286
#
# Poissons Ratio (x) = -0.32935 -0.03632
# Poissons Ratio (y) = 4.21775 0.64269
# Poissons Ratio (z) = 0.38726 0.53516
#
# Static dielectric constant tensor:
#      x y z
#    x 1.963460 0.000000 0.000000 
#    y 0.000000 1.995160 0.000000 
#    z 0.000000 0.000000 1.982470 
# 
# From -- ./inp_files/4054.got.cif
#   From: 2010.05.17/outbox.cif.g08.bks.cpg/sg52_3_cif.got.tgz:4054.got - 2010.06.03 12:15:38.
