data_PCOD9413446
_publ_section_title
;
Structure prediction by ZEFSAII (Michael W. Deem and Ramdas Pophale) SiO2 
 PCOD9413446
Probable space group: P N N A
;
_chemical_formula_sum "Si O2"
_cell_formula_units_Z 60
_cell_length_a 9.762553
_cell_length_b 11.555094
_cell_length_c 27.713010
_cell_angle_alpha 90.000000
_cell_angle_beta 90.000000
_cell_angle_gamma 90.000000
_cell_volume 3126.227549
_symmetry_space_group_name_H-M "P N N A"
_symmetry_group_IT_number 52
_symmetry_cell_setting 'orthorhombic'
loop_
_space_group_symop_operation_xyz
x,y,z
1/2-x,-y,z
x,1/2-y,1/2-z
1/2-x,1/2+y,1/2-z
-x,-y,-z
1/2+x,y,-z
-x,1/2+y,1/2+z
1/2+x,1/2-y,1/2+z
loop_
_atom_site_type_symbol
_atom_site_label
_atom_site_fract_x
_atom_site_fract_y
_atom_site_fract_z
Si Si1 0.292345 0.869420 0.062246
Si Si2 0.538595 0.760197 0.598922
Si Si3 0.785587 0.864320 0.053105
Si Si4 0.398856 0.779663 0.801564
Si Si5 0.607404 0.670288 0.205271
Si Si6 0.917032 0.503940 0.949994
Si Si7 0.033926 0.734757 0.900659
Si Si8 0.750000 0.000000 0.235918
O O1 0.189927 0.783442 0.088627
O O2 0.440765 0.842128 0.083066
O O3 0.250000 0.000000 0.071969
O O4 0.279567 0.850079 0.004743
O O5 0.435902 0.676978 0.569038
O O6 0.496016 0.740899 0.653939
O O7 0.534411 0.892781 0.581199
O O8 0.682715 0.775207 0.080043
O O9 0.750000 0.000000 0.063839
O O10 0.464938 0.750000 0.750000
O O11 0.267132 0.696984 0.805537
O O12 0.322066 0.903379 0.797201
O O13 0.561492 0.750000 0.250000
O O14 0.534071 0.702333 0.155912
O O15 0.626366 0.545977 0.229966
O O16 0.750000 0.500000 0.955467
O O17 0.968834 0.622942 0.926265
O O18 0.000000 0.500000 0.000000
#
# Coordination Sequence:
#
# PCOD9413446 Si02
#       8
#     8   8   8   8   8   8   8   4
#     4  11  24  42  61  90 133 171 211 271 331 398
#     4  12  24  41  67  95 134 169 223 265 336 392
#     4  11  24  41  67  97 127 171 223 269 327 397
#     4   9  20  37  61  94 125 161 217 272 324 385
#     4   9  20  37  60  93 122 161 213 269 321 382
#     4  12  28  45  68  97 138 182 227 272 321 402
#     4  12  24  41  67  93 135 170 218 268 336 388
#     4   8  18  36  62  90 132 154 212 276 324 368
#
# _framework density 19.192460000000001
#
# number of rings (size 3 to 8) (size 9 to 14) (size 15 to 20)
#    0.000    1.600    2.667    3.200    6.533    4.267 
#    0.000    0.667    0.000    0.000    0.000    0.000 
#    0.000    0.000    0.000    0.000    0.000    0.000 
#
# Total GULP energy -334571.714570 kJ/mol
# GULP energy per Si atom -5576.195243 kJ/mol
# Density = 1.914878 g / cm^3
# Si number density = 19.192460 Si / 1000 Ang^3
#
#
#
# Elastic Constant Matrix: (Units=GPa)
#
#
# Indices 1 2 3 4 5 6 
#
# 1 42.6346 4.3493 22.0958 0.0000 0.0000 0.0000
# 2 4.3493 83.2634 34.6148 0.0000 0.0000 0.0000
# 3 22.0958 34.6148 136.5556 0.0000 0.0000 0.0000
# 4 0.0000 0.0000 0.0000 -28.4907 0.0000 0.0000
# 5 0.0000 0.0000 0.0000 0.0000 2.0323 0.0000
# 6 0.0000 0.0000 0.0000 0.0000 0.0000 26.6827
#
#
#
# Elastic Compliance Matrix: (Units=1/GPa)
#
#
# Indices 1 2 3 4 5 6 
#
# 1 0.025616 0.000430 -0.004254 0.000000 0.000000 0.000000
# 2 0.000430 0.013432 -0.003474 0.000000 0.000000 0.000000
# 3 -0.004254 -0.003474 0.008892 0.000000 0.000000 0.000000
# 4 0.000000 0.000000 0.000000 -0.035099 0.000000 0.000000
# 5 0.000000 0.000000 0.000000 0.000000 0.492059 0.000000
# 6 0.000000 0.000000 0.000000 0.000000 0.000000 0.037477
#
#
# Mechanical properties :
#
#
# Convention : Reuss Voigt Hill
#
# Bulk Modulus (GPa) = 29.99043 42.73038 36.36040
# Shear Modulus (GPa) = 8.80145 13.47110 11.13628
#
# Velocity S-wave (km/s) = 2.14379 2.65221 2.41144
# Velocity P-wave (km/s) = 4.66775 5.62951 5.17104
#
# Compressibility (1/GPa) = 0.03334397
#
# Stress axis : x y z
#
# Youngs Moduli (GPa) = 39.03829 74.44894 112.45966
#
# Poissons Ratio (x) = -0.03204 0.47840
# Poissons Ratio (y) = -0.01680 0.39074
# Poissons Ratio (z) = 0.16607 0.25867
#
# Static dielectric constant tensor:
#      x y z
#    x 1.633350 0.000000 0.000000 
#    y 0.000000 1.770390 0.000000 
#    z 0.000000 0.000000 1.711670 
# 
# From -- ./inp_files/42333.got.cif
#   From: 2010.05.17/outbox.cif.g08.bks.cpg/sg52_22_cif.got.tgz:42333.got - 2010.06.03 12:15:38.
