data_PCOD9413387
_publ_section_title
;
Structure prediction by ZEFSAII (Michael W. Deem and Ramdas Pophale) SiO2 
 PCOD9413387
Probable space group: P N N A
;
_chemical_formula_sum "Si O2"
_cell_formula_units_Z 32
_cell_length_a 9.121839
_cell_length_b 10.673540
_cell_length_c 14.195008
_cell_angle_alpha 90.000000
_cell_angle_beta 90.000000
_cell_angle_gamma 90.000000
_cell_volume 1382.058818
_symmetry_space_group_name_H-M "P N N A"
_symmetry_group_IT_number 52
_symmetry_cell_setting 'orthorhombic'
loop_
_space_group_symop_operation_xyz
x,y,z
1/2-x,-y,z
x,1/2-y,1/2-z
1/2-x,1/2+y,1/2-z
-x,-y,-z
1/2+x,y,-z
-x,1/2+y,1/2+z
1/2+x,1/2-y,1/2+z
loop_
_atom_site_type_symbol
_atom_site_label
_atom_site_fract_x
_atom_site_fract_y
_atom_site_fract_z
Si Si1 0.426224 0.095388 0.569913
Si Si2 0.288181 0.750889 0.451290
Si Si3 0.054086 0.608777 0.729226
Si Si4 0.750000 0.000000 0.067166
Si Si5 0.768881 0.750000 0.750000
O O1 0.281403 0.152706 0.525146
O O2 0.547096 0.207628 0.574923
O O3 0.411306 0.038943 0.673568
O O4 0.500000 0.000000 0.500000
O O5 0.287003 0.616894 0.500614
O O6 0.197162 0.762832 0.352538
O O7 0.117325 0.750000 0.750000
O O8 0.120538 0.543215 0.638438
O O9 0.878879 0.632156 0.730634
#
# Coordination Sequence:
#
# PCOD9413387 Si02
#       5
#     8   8   8   4   4
#     4  11  24  44  66  92 136 178 223 270 336 405
#     4  11  23  44  65  98 130 176 223 277 341 398
#     4   9  20  41  60  92 134 173 206 277 340 392
#     4  12  22  38  76  96 134 172 236 288 328 412
#     4   8  20  44  56  86 144 158 214 268 340 396
#
# _framework density 23.153863000000001
#
# number of rings (size 3 to 8) (size 9 to 14) (size 15 to 20)
#    0.750    1.000    2.500    0.750    3.500    4.000 
#   13.500    0.000    0.000    0.000    0.000    0.000 
#    0.000    0.000    0.000    0.000    0.000    0.000 
#
# Total GULP energy -178579.209695 kJ/mol
# GULP energy per Si atom -5580.600303 kJ/mol
# Density = 2.310116 g / cm^3
# Si number density = 23.153863 Si / 1000 Ang^3
#
#
#
# Elastic Constant Matrix: (Units=GPa)
#
#
# Indices 1 2 3 4 5 6 
#
# 1 45.5487 8.7443 4.7170 0.0000 0.0000 0.0000
# 2 8.7443 86.5983 37.2279 0.0000 0.0000 0.0000
# 3 4.7170 37.2279 174.7271 0.0000 0.0000 0.0000
# 4 0.0000 0.0000 0.0000 39.2526 0.0000 0.0000
# 5 0.0000 0.0000 0.0000 0.0000 27.4183 0.0000
# 6 0.0000 0.0000 0.0000 0.0000 0.0000 22.1003
#
#
#
# Elastic Compliance Matrix: (Units=1/GPa)
#
#
# Indices 1 2 3 4 5 6 
#
# 1 0.022391 -0.002203 -0.000135 0.000000 0.000000 0.000000
# 2 -0.002203 0.012929 -0.002695 0.000000 0.000000 0.000000
# 3 -0.000135 -0.002695 0.006301 0.000000 0.000000 0.000000
# 4 0.000000 0.000000 0.000000 0.025476 0.000000 0.000000
# 5 0.000000 0.000000 0.000000 0.000000 0.036472 0.000000
# 6 0.000000 0.000000 0.000000 0.000000 0.000000 0.045248
#
#
# Mechanical properties :
#
#
# Convention : Reuss Voigt Hill
#
# Bulk Modulus (GPa) = 31.69089 45.36139 38.52614
# Shear Modulus (GPa) = 29.51557 34.83322 32.17440
#
# Velocity S-wave (km/s) = 3.57425 3.88290 3.73177
# Velocity P-wave (km/s) = 5.54531 6.30368 5.93662
#
# Compressibility (1/GPa) = 0.03155481
#
# Stress axis : x y z
#
# Youngs Moduli (GPa) = 44.65994 77.34773 158.70255
#
# Poissons Ratio (x) = 0.17039 0.02145
# Poissons Ratio (y) = 0.09838 0.42773
# Poissons Ratio (z) = 0.00604 0.20846
#
# Static dielectric constant tensor:
#      x y z
#    x 1.895540 0.000000 0.000000 
#    y 0.000000 1.979430 0.000000 
#    z 0.000000 0.000000 1.974900 
# 
# From -- ./inp_files/25546.got.cif
#   From: 2010.05.17/outbox.cif.g08.bks.cpg/sg52_13_cif.got.tgz:25546.got - 2010.06.03 12:15:38.
