data_PCOD9413356
_publ_section_title
;
Structure prediction by ZEFSAII (Michael W. Deem and Ramdas Pophale) SiO2 
 PCOD9413356
Probable space group: P N N A
;
_chemical_formula_sum "Si O2"
_cell_formula_units_Z 40
_cell_length_a 9.697070
_cell_length_b 22.048217
_cell_length_c 7.305873
_cell_angle_alpha 90.000000
_cell_angle_beta 90.000000
_cell_angle_gamma 90.000000
_cell_volume 1562.018322
_symmetry_space_group_name_H-M "P N N A"
_symmetry_group_IT_number 52
_symmetry_cell_setting 'orthorhombic'
loop_
_space_group_symop_operation_xyz
x,y,z
1/2-x,-y,z
x,1/2-y,1/2-z
1/2-x,1/2+y,1/2-z
-x,-y,-z
1/2+x,y,-z
-x,1/2+y,1/2+z
1/2+x,1/2-y,1/2+z
loop_
_atom_site_type_symbol
_atom_site_label
_atom_site_fract_x
_atom_site_fract_y
_atom_site_fract_z
Si Si1 0.542135 0.428497 0.523676
Si Si2 0.554346 0.768457 0.438227
Si Si3 0.199231 0.158622 0.527165
Si Si4 0.199851 0.849541 0.105563
Si Si5 0.116968 0.460734 0.088096
O O1 0.500000 0.500000 0.500000
O O2 0.429470 0.394021 0.406869
O O3 0.682412 0.387874 0.495330
O O4 0.544459 0.426127 0.744628
O O5 0.480670 0.750000 0.250000
O O6 0.436069 0.800613 0.555914
O O7 0.669565 0.815777 0.370853
O O8 0.640211 0.714100 0.529849
O O9 0.250423 0.160244 0.313776
O O10 0.168015 0.088563 0.557287
O O11 0.250000 0.500000 0.150338
O O12 0.000000 0.500000 0.000000
#
# Coordination Sequence:
#
# PCOD9413356 Si02
#       5
#     8   8   8   8   8
#     4  11  23  42  67  99 135 179 231 284 342 417
#     4  12  24  41  65  96 130 172 224 279 334 401
#     4  11  25  45  65  96 135 174 221 278 337 406
#     4  11  24  44  67  96 138 182 227 283 346 416
#     4  11  24  44  68  99 137 177 224 284 346 412
#
# _framework density 25.607894999999999
#
# number of rings (size 3 to 8) (size 9 to 14) (size 15 to 20)
#    0.000    0.800    0.000    9.600    0.000    6.400 
#    0.000    0.000    0.000    0.000    0.000    0.000 
#    0.000    0.000    0.000    0.000    0.000    0.000 
#
# Total GULP energy -223537.240887 kJ/mol
# GULP energy per Si atom -5588.431022 kJ/mol
# Density = 2.554961 g / cm^3
# Si number density = 25.607895 Si / 1000 Ang^3
#
#
#
# Elastic Constant Matrix: (Units=GPa)
#
#
# Indices 1 2 3 4 5 6 
#
# 1 145.9144 45.0781 7.9961 0.0000 0.0000 0.0000
# 2 45.0781 133.5107 7.9239 0.0000 0.0000 0.0000
# 3 7.9961 7.9239 60.4929 0.0000 0.0000 0.0000
# 4 0.0000 0.0000 0.0000 33.9245 0.0000 0.0000
# 5 0.0000 0.0000 0.0000 0.0000 27.7711 0.0000
# 6 0.0000 0.0000 0.0000 0.0000 0.0000 58.1252
#
#
#
# Elastic Compliance Matrix: (Units=1/GPa)
#
#
# Indices 1 2 3 4 5 6 
#
# 1 0.007679 -0.002552 -0.000681 0.000000 0.000000 0.000000
# 2 -0.002552 0.008397 -0.000763 0.000000 0.000000 0.000000
# 3 -0.000681 -0.000763 0.016721 0.000000 0.000000 0.000000
# 4 0.000000 0.000000 0.000000 0.029477 0.000000 0.000000
# 5 0.000000 0.000000 0.000000 0.000000 0.036009 0.000000
# 6 0.000000 0.000000 0.000000 0.000000 0.000000 0.017204
#
#
# Mechanical properties :
#
#
# Convention : Reuss Voigt Hill
#
# Bulk Modulus (GPa) = 40.31330 51.32379 45.81855
# Shear Modulus (GPa) = 37.95155 42.55882 40.25519
#
# Velocity S-wave (km/s) = 3.85388 4.08111 3.96913
# Velocity P-wave (km/s) = 5.96489 6.50331 6.23991
#
# Compressibility (1/GPa) = 0.02480571
#
# Stress axis : x y z
#
# Youngs Moduli (GPa) = 130.22273 119.08923 59.80598
#
# Poissons Ratio (x) = 0.30396 0.04071
# Poissons Ratio (y) = 0.33238 0.04560
# Poissons Ratio (z) = 0.08864 0.09081
#
# Static dielectric constant tensor:
#      x y z
#    x 2.417470 0.000000 0.000000 
#    y 0.000000 2.171470 0.000000 
#    z 0.000000 0.000000 2.107140 
# 
# From -- ./inp_files/7396.got.cif
#   From: 2010.05.17/outbox.cif.g08.bks.cpg/sg52_4_cif.got.tgz:7396.got - 2010.06.03 12:15:38.
