data_PCOD9413088
_publ_section_title
;
Structure prediction by ZEFSAII (Michael W. Deem and Ramdas Pophale) SiO2 
 PCOD9413088
Probable space group: P N N A
;
_chemical_formula_sum "Si O2"
_cell_formula_units_Z 40
_cell_length_a 8.695693
_cell_length_b 13.115805
_cell_length_c 17.931476
_cell_angle_alpha 90.000000
_cell_angle_beta 90.000000
_cell_angle_gamma 90.000000
_cell_volume 2045.103015
_symmetry_space_group_name_H-M "P N N A"
_symmetry_group_IT_number 52
_symmetry_cell_setting 'orthorhombic'
loop_
_space_group_symop_operation_xyz
x,y,z
1/2-x,-y,z
x,1/2-y,1/2-z
1/2-x,1/2+y,1/2-z
-x,-y,-z
1/2+x,y,-z
-x,1/2+y,1/2+z
1/2+x,1/2-y,1/2+z
loop_
_atom_site_type_symbol
_atom_site_label
_atom_site_fract_x
_atom_site_fract_y
_atom_site_fract_z
Si Si1 0.194812 0.110409 0.289748
Si Si2 0.505879 0.738992 0.832235
Si Si3 0.255261 0.615517 0.383167
Si Si4 0.785038 0.617569 0.056733
Si Si5 0.543714 0.196339 0.578375
O O1 0.338219 0.179470 0.312457
O O2 0.175417 0.109773 0.201152
O O3 0.055325 0.153565 0.337477
O O4 0.250000 0.000000 0.313264
O O5 0.429955 0.750000 0.750000
O O6 0.581750 0.838953 0.871426
O O7 0.401147 0.673191 0.886667
O O8 0.250000 0.500000 0.412865
O O9 0.367324 0.695399 0.424943
O O10 0.750000 0.500000 0.077038
O O11 0.631543 0.686274 0.054256
O O12 0.862055 0.621180 0.975541
#
# Coordination Sequence:
#
# PCOD9413088 Si02
#       5
#     8   8   8   8   8
#     4   9  16  32  58  84 110 145 183 224 273 324
#     4   9  19  36  55  80 113 142 179 227 271 325
#     4   9  19  37  60  82 111 149 185 221 267 322
#     4  12  24  38  57  82 112 145 180 229 283 327
#     4  11  21  35  55  82 113 145 186 227 269 328
#
# _framework density 19.558917000000001
#
# number of rings (size 3 to 8) (size 9 to 14) (size 15 to 20)
#    0.000    2.000    0.000    6.600    0.000    1.600 
#    0.000    5.000    0.000    0.000    0.000    0.000 
#    0.000    0.000    0.000    0.000    0.000    0.000 
#
# Total GULP energy -222933.720983 kJ/mol
# GULP energy per Si atom -5573.343025 kJ/mol
# Density = 1.951440 g / cm^3
# Si number density = 19.558917 Si / 1000 Ang^3
#
#
#
# Elastic Constant Matrix: (Units=GPa)
#
#
# Indices 1 2 3 4 5 6 
#
# 1 66.1172 18.0972 15.4071 0.0000 0.0000 0.0000
# 2 18.0972 133.0733 7.3141 0.0000 0.0000 0.0000
# 3 15.4071 7.3141 45.7141 0.0000 0.0000 0.0000
# 4 0.0000 0.0000 0.0000 22.4615 0.0000 0.0000
# 5 0.0000 0.0000 0.0000 0.0000 24.1915 0.0000
# 6 0.0000 0.0000 0.0000 0.0000 0.0000 18.4886
#
#
#
# Elastic Compliance Matrix: (Units=1/GPa)
#
#
# Indices 1 2 3 4 5 6 
#
# 1 0.016929 -0.002006 -0.005384 0.000000 0.000000 0.000000
# 2 -0.002006 0.007819 -0.000575 0.000000 0.000000 0.000000
# 3 -0.005384 -0.000575 0.023782 0.000000 0.000000 0.000000
# 4 0.000000 0.000000 0.000000 0.044521 0.000000 0.000000
# 5 0.000000 0.000000 0.000000 0.000000 0.041337 0.000000
# 6 0.000000 0.000000 0.000000 0.000000 0.000000 0.054087
#
#
# Mechanical properties :
#
#
# Convention : Reuss Voigt Hill
#
# Bulk Modulus (GPa) = 30.67646 36.28238 33.47942
# Shear Modulus (GPa) = 23.22648 26.63406 24.93027
#
# Velocity S-wave (km/s) = 3.44977 3.69417 3.57406
# Velocity P-wave (km/s) = 5.62015 6.06518 5.84690
#
# Compressibility (1/GPa) = 0.03259829
#
# Stress axis : x y z
#
# Youngs Moduli (GPa) = 59.07196 127.89213 42.04899
#
# Poissons Ratio (x) = 0.25658 0.22641
# Poissons Ratio (y) = 0.11851 0.02417
# Poissons Ratio (z) = 0.31807 0.07352
#
# Static dielectric constant tensor:
#      x y z
#    x 1.673430 0.000000 0.000000 
#    y 0.000000 1.407580 0.000000 
#    z 0.000000 0.000000 1.759940 
# 
# From -- ./inp_files/31058.got.cif
#   From: 2010.05.17/outbox.cif.g08.bks.cpg/sg52_16_cif.got.tgz:31058.got - 2010.06.03 12:15:38.
