data_PCOD9413589
_publ_section_title
;
Structure prediction by ZEFSAII (Michael W. Deem and Ramdas Pophale) SiO2 
 PCOD9413589
Probable space group: P N N A
;
_chemical_formula_sum "Si O2"
_cell_formula_units_Z 36
_cell_length_a 23.128757
_cell_length_b 12.542416
_cell_length_c 4.976692
_cell_angle_alpha 90.000000
_cell_angle_beta 90.000000
_cell_angle_gamma 90.000000
_cell_volume 1443.691030
_symmetry_space_group_name_H-M "P N N A"
_symmetry_group_IT_number 52
_symmetry_cell_setting 'orthorhombic'
loop_
_space_group_symop_operation_xyz
x,y,z
1/2-x,-y,z
x,1/2-y,1/2-z
1/2-x,1/2+y,1/2-z
-x,-y,-z
1/2+x,y,-z
-x,1/2+y,1/2+z
1/2+x,1/2-y,1/2+z
loop_
_atom_site_type_symbol
_atom_site_label
_atom_site_fract_x
_atom_site_fract_y
_atom_site_fract_z
Si Si1 0.879373 0.035481 0.929928
Si Si2 0.557017 0.359573 0.916168
Si Si3 0.424002 0.353849 0.939851
Si Si4 0.354856 0.750000 0.750000
Si Si5 0.725621 0.250000 0.750000
Si Si6 0.250000 0.000000 0.202139
O O1 0.888691 0.133063 0.715422
O O2 0.811899 0.006598 0.942715
O O3 0.918520 0.947855 0.782448
O O4 0.902451 0.060941 0.223174
O O5 0.557469 0.250000 0.750000
O O6 0.491295 0.372417 0.009402
O O7 0.602172 0.341941 0.154185
O O8 0.419046 0.250000 0.750000
O O9 0.313761 0.725287 0.504276
O O10 0.749959 0.126648 0.679825
#
# Coordination Sequence:
#
# PCOD9413589 Si02
#       6
#     8   8   8   4   4   4
#     4  12  27  48  74 111 150 205 259 325 389 473
#     4  11  25  45  79 110 155 196 258 323 400 479
#     4  11  28  46  75 111 156 197 253 325 405 469
#     4  12  24  48  77 116 155 208 272 320 402 492
#     4  12  30  50  81 114 159 212 274 330 392 478
#     4  12  30  54  82 112 160 212 270 328 394 466
#
# _framework density 24.936081999999999
#
# number of rings (size 3 to 8) (size 9 to 14) (size 15 to 20)
#    0.000    0.444    3.333    2.000   15.556    3.556 
#    0.000    0.000    0.000    0.000    0.000    0.000 
#    0.000    0.000    0.000    0.000    0.000    0.000 
#
# Total GULP energy -200867.817853 kJ/mol
# GULP energy per Si atom -5579.661607 kJ/mol
# Density = 2.487933 g / cm^3
# Si number density = 24.936082 Si / 1000 Ang^3
#
#
#
# Elastic Constant Matrix: (Units=GPa)
#
#
# Indices 1 2 3 4 5 6 
#
# 1 112.5462 26.1087 9.8685 0.0000 0.0000 0.0000
# 2 26.1087 188.5959 9.1391 0.0000 0.0000 0.0000
# 3 9.8685 9.1391 115.0931 0.0000 0.0000 0.0000
# 4 0.0000 0.0000 0.0000 30.8399 0.0000 0.0000
# 5 0.0000 0.0000 0.0000 0.0000 -60.6520 0.0000
# 6 0.0000 0.0000 0.0000 0.0000 0.0000 37.9447
#
#
#
# Elastic Compliance Matrix: (Units=1/GPa)
#
#
# Indices 1 2 3 4 5 6 
#
# 1 0.009235 -0.001245 -0.000693 0.000000 0.000000 0.000000
# 2 -0.001245 0.005491 -0.000329 0.000000 0.000000 0.000000
# 3 -0.000693 -0.000329 0.008774 0.000000 0.000000 0.000000
# 4 0.000000 0.000000 0.000000 0.032426 0.000000 0.000000
# 5 0.000000 0.000000 0.000000 0.000000 -0.016488 0.000000
# 6 0.000000 0.000000 0.000000 0.000000 0.000000 0.026354
#
#
# Mechanical properties :
#
#
# Convention : Reuss Voigt Hill
#
# Bulk Modulus (GPa) = 52.72751 56.27419 54.50085
# Shear Modulus (GPa) = 65.23349 26.36779 45.80064
#
# Velocity S-wave (km/s) = 5.12026 3.25532 4.29035
# Velocity P-wave (km/s) = 7.49313 6.06183 6.81516
#
# Compressibility (1/GPa) = 0.01896543
#
# Stress axis : x y z
#
# Youngs Moduli (GPa) = 108.28622 182.12841 113.97075
#
# Poissons Ratio (x) = 0.22672 0.07898
# Poissons Ratio (y) = 0.13480 0.03752
# Poissons Ratio (z) = 0.07504 0.05997
#
# Static dielectric constant tensor:
#      x y z
#    x 1.903570 0.000000 0.000000 
#    y 0.000000 2.239590 0.000000 
#    z 0.000000 0.000000 1.940140 
# 
# From -- ./inp_files/4931.got.cif
#   From: 2010.05.17/outbox.cif.g08.bks.cpg/sg52_3_cif.got.tgz:4931.got - 2010.06.03 12:15:38.
