data_PCOD9413169
_publ_section_title
;
Structure prediction by ZEFSAII (Michael W. Deem and Ramdas Pophale) SiO2 
 PCOD9413169
Probable space group: P N N A
;
_chemical_formula_sum "Si O2"
_cell_formula_units_Z 40
_cell_length_a 13.046147
_cell_length_b 9.591088
_cell_length_c 15.194232
_cell_angle_alpha 90.000000
_cell_angle_beta 90.000000
_cell_angle_gamma 90.000000
_cell_volume 1901.204777
_symmetry_space_group_name_H-M "P N N A"
_symmetry_group_IT_number 52
_symmetry_cell_setting 'orthorhombic'
loop_
_space_group_symop_operation_xyz
x,y,z
1/2-x,-y,z
x,1/2-y,1/2-z
1/2-x,1/2+y,1/2-z
-x,-y,-z
1/2+x,y,-z
-x,1/2+y,1/2+z
1/2+x,1/2-y,1/2+z
loop_
_atom_site_type_symbol
_atom_site_label
_atom_site_fract_x
_atom_site_fract_y
_atom_site_fract_z
Si Si1 0.357548 0.081048 0.750015
Si Si2 0.128285 0.714085 0.352146
Si Si3 0.011998 0.532666 0.102268
Si Si4 0.651229 0.201896 0.648038
Si Si5 0.478723 0.948644 0.097589
O O1 0.345786 0.250000 0.750000
O O2 0.421992 0.026108 0.665012
O O3 0.425523 0.044942 0.836108
O O4 0.250000 0.000000 0.752376
O O5 0.131145 0.750000 0.250000
O O6 0.237430 0.762473 0.389617
O O7 0.108227 0.551958 0.365104
O O8 0.033559 0.803279 0.388895
O O9 0.114848 0.455879 0.137939
O O10 0.000000 0.500000 0.000000
O O11 0.647070 0.250000 0.750000
O O12 0.565726 0.293723 0.599567
O O13 0.500000 0.000000 0.000000
#
# Coordination Sequence:
#
# PCOD9413169 Si02
#       5
#     8   8   8   8   8
#     4  12  28  50  71  99 142 190 233 285 345 414
#     4  11  23  38  72 101 126 168 222 282 344 402
#     4  12  24  45  68  98 139 179 225 282 341 412
#     4  11  21  44  70  95 132 172 224 286 346 398
#     4  12  24  45  68  98 139 179 225 282 341 412
#
# _framework density 21.039289
#
# number of rings (size 3 to 8) (size 9 to 14) (size 15 to 20)
#    0.000    0.400    6.000    2.400    2.800    6.400 
#    0.000    0.000    0.000    0.000    0.000    0.000 
#    0.000    0.000    0.000    0.000    0.000    0.000 
#
# Total GULP energy -223649.712815 kJ/mol
# GULP energy per Si atom -5591.242820 kJ/mol
# Density = 2.099140 g / cm^3
# Si number density = 21.039289 Si / 1000 Ang^3
#
#
#
# Elastic Constant Matrix: (Units=GPa)
#
#
# Indices 1 2 3 4 5 6 
#
# 1 131.9208 29.0089 38.9478 0.0000 0.0000 0.0000
# 2 29.0089 75.3256 11.8100 0.0000 0.0000 0.0000
# 3 38.9478 11.8100 131.1626 0.0000 0.0000 0.0000
# 4 0.0000 0.0000 0.0000 30.4138 0.0000 0.0000
# 5 0.0000 0.0000 0.0000 0.0000 0.8641 0.0000
# 6 0.0000 0.0000 0.0000 0.0000 0.0000 38.4805
#
#
#
# Elastic Compliance Matrix: (Units=1/GPa)
#
#
# Indices 1 2 3 4 5 6 
#
# 1 0.008961 -0.003077 -0.002384 0.000000 0.000000 0.000000
# 2 -0.003077 0.014522 -0.000394 0.000000 0.000000 0.000000
# 3 -0.002384 -0.000394 0.008367 0.000000 0.000000 0.000000
# 4 0.000000 0.000000 0.000000 0.032880 0.000000 0.000000
# 5 0.000000 0.000000 0.000000 0.000000 1.157271 0.000000
# 6 0.000000 0.000000 0.000000 0.000000 0.000000 0.025987
#
#
# Mechanical properties :
#
#
# Convention : Reuss Voigt Hill
#
# Bulk Modulus (GPa) = 49.64977 55.32693 52.48835
# Shear Modulus (GPa) = 3.94816 31.19452 17.57134
#
# Velocity S-wave (km/s) = 1.37136 3.85473 2.89306
# Velocity P-wave (km/s) = 5.11443 6.79456 6.01346
#
# Compressibility (1/GPa) = 0.02014108
#
# Stress axis : x y z
#
# Youngs Moduli (GPa) = 111.59800 68.85867 119.51101
#
# Poissons Ratio (x) = 0.21189 0.28489
# Poissons Ratio (y) = 0.34340 0.04707
# Poissons Ratio (z) = 0.26602 0.02712
#
# Static dielectric constant tensor:
#      x y z
#    x 1.775520 0.000000 0.000000 
#    y 0.000000 1.468410 0.000000 
#    z 0.000000 0.000000 1.784010 
# 
# From -- ./inp_files/26910.got.cif
#   From: 2010.05.17/outbox.cif.g08.bks.cpg/sg52_14_cif.got.tgz:26910.got - 2010.06.03 12:15:38.
