data_PCOD9413776
_publ_section_title
;
Structure prediction by ZEFSAII (Michael W. Deem and Ramdas Pophale) SiO2 
 PCOD9413776
Probable space group: P N N A
;
_chemical_formula_sum "Si O2"
_cell_formula_units_Z 24
_cell_length_a 5.342527
_cell_length_b 11.735254
_cell_length_c 16.810044
_cell_angle_alpha 90.000000
_cell_angle_beta 90.000000
_cell_angle_gamma 90.000000
_cell_volume 1053.921028
_symmetry_space_group_name_H-M "P N N A"
_symmetry_group_IT_number 52
_symmetry_cell_setting 'orthorhombic'
loop_
_space_group_symop_operation_xyz
x,y,z
1/2-x,-y,z
x,1/2-y,1/2-z
1/2-x,1/2+y,1/2-z
-x,-y,-z
1/2+x,y,-z
-x,1/2+y,1/2+z
1/2+x,1/2-y,1/2+z
loop_
_atom_site_type_symbol
_atom_site_label
_atom_site_fract_x
_atom_site_fract_y
_atom_site_fract_z
Si Si1 0.451041 0.920224 0.577189
Si Si2 0.342123 0.661750 0.546608
Si Si3 0.750000 0.500000 0.309379
Si Si4 0.750000 0.000000 0.707730
O O1 0.346005 0.798970 0.552721
O O2 0.671841 0.903966 0.641717
O O3 0.250000 0.000000 0.620883
O O4 0.500000 0.000000 0.500000
O O5 0.606079 0.628159 0.507638
O O6 0.305754 0.606097 0.632292
O O7 0.490952 0.522406 0.262148
#
# Coordination Sequence:
#
# PCOD9413776 Si02
#       4
#     8   8   4   4
#     4  12  23  46  75 104 135 181 246 298 347 406
#     4  12  25  46  77 102 138 188 243 294 341 424
#     4  12  28  48  66 108 150 192 226 286 370 434
#     4  12  26  48  68 104 152 182 236 290 360 432
#
# _framework density 22.772102
#
# number of rings (size 3 to 8) (size 9 to 14) (size 15 to 20)
#    0.000    0.000    6.667    3.000    0.000    1.333 
#    6.000    0.000    0.000    0.000    0.000    0.000 
#    0.000    0.000    0.000    0.000    0.000    0.000 
#
# Total GULP energy -133968.718329 kJ/mol
# GULP energy per Si atom -5582.029930 kJ/mol
# Density = 2.272027 g / cm^3
# Si number density = 22.772102 Si / 1000 Ang^3
#
#
#
# Elastic Constant Matrix: (Units=GPa)
#
#
# Indices 1 2 3 4 5 6 
#
# 1 210.4616 39.3645 109.3446 0.0000 0.0000 0.0000
# 2 39.3645 121.3482 49.0715 0.0000 0.0000 0.0000
# 3 109.3446 49.0715 169.1721 0.0000 0.0000 0.0000
# 4 0.0000 0.0000 0.0000 13.1292 0.0000 0.0000
# 5 0.0000 0.0000 0.0000 0.0000 30.1583 0.0000
# 6 0.0000 0.0000 0.0000 0.0000 0.0000 26.6884
#
#
#
# Elastic Compliance Matrix: (Units=1/GPa)
#
#
# Indices 1 2 3 4 5 6 
#
# 1 0.007182 -0.000513 -0.004493 0.000000 0.000000 0.000000
# 2 -0.000513 0.009372 -0.002387 0.000000 0.000000 0.000000
# 3 -0.004493 -0.002387 0.009508 0.000000 0.000000 0.000000
# 4 0.000000 0.000000 0.000000 0.076166 0.000000 0.000000
# 5 0.000000 0.000000 0.000000 0.000000 0.033158 0.000000
# 6 0.000000 0.000000 0.000000 0.000000 0.000000 0.037469
#
#
# Mechanical properties :
#
#
# Convention : Reuss Voigt Hill
#
# Bulk Modulus (GPa) = 88.68683 99.61589 94.15136
# Shear Modulus (GPa) = 26.12316 34.20860 30.16588
#
# Velocity S-wave (km/s) = 3.39064 3.88005 3.64357
# Velocity P-wave (km/s) = 7.37283 7.99454 7.68997
#
# Compressibility (1/GPa) = 0.01127563
#
# Stress axis : x y z
#
# Youngs Moduli (GPa) = 139.24064 106.69582 105.17654
#
# Poissons Ratio (x) = 0.05471 0.47258
# Poissons Ratio (y) = 0.07139 0.25108
# Poissons Ratio (z) = 0.62564 0.25471
#
# Static dielectric constant tensor:
#      x y z
#    x 2.132490 0.000000 0.000000 
#    y 0.000000 1.846450 0.000000 
#    z 0.000000 0.000000 1.868660 
# 
# From -- ./inp_files/29934.got.cif
#   From: 2010.05.17/outbox.cif.g08.bks.cpg/sg52_15_cif.got.tgz:29934.got - 2010.06.03 12:15:38.
