data_PCOD9413563
_publ_section_title
;
Structure prediction by ZEFSAII (Michael W. Deem and Ramdas Pophale) SiO2 
 PCOD9413563
Probable space group: P N N A
;
_chemical_formula_sum "Si O2"
_cell_formula_units_Z 20
_cell_length_a 5.235449
_cell_length_b 5.330801
_cell_length_c 29.118500
_cell_angle_alpha 90.000000
_cell_angle_beta 90.000000
_cell_angle_gamma 90.000000
_cell_volume 812.672199
_symmetry_space_group_name_H-M "P N N A"
_symmetry_group_IT_number 52
_symmetry_cell_setting 'orthorhombic'
loop_
_space_group_symop_operation_xyz
x,y,z
1/2-x,-y,z
x,1/2-y,1/2-z
1/2-x,1/2+y,1/2-z
-x,-y,-z
1/2+x,y,-z
-x,1/2+y,1/2+z
1/2+x,1/2-y,1/2+z
loop_
_atom_site_type_symbol
_atom_site_label
_atom_site_fract_x
_atom_site_fract_y
_atom_site_fract_z
Si Si1 0.250000 0.000000 0.467221
Si Si2 0.585487 0.760469 0.400223
Si Si3 0.993238 0.658402 0.698569
O O1 0.168659 0.223103 0.431658
O O2 0.500000 0.000000 0.500000
O O3 0.750000 0.500000 0.403218
O O4 0.526748 0.822723 0.346697
O O5 0.750000 0.000000 0.415293
O O6 0.250000 0.500000 0.702846
O O7 0.942500 0.750000 0.750000
O O8 0.750000 0.500000 0.685241
#
# Coordination Sequence:
#
# PCOD9413563 Si02
#       3
#     4   8   8
#     4  12  28  52  82 116 154 208 268 332 398 464
#     4  11  28  51  81 114 160 205 262 327 396 474
#     4  11  25  43  74 113 157 205 254 314 385 468
#
# _framework density 24.610167000000001
#
# number of rings (size 3 to 8) (size 9 to 14) (size 15 to 20)
#    0.000    0.800    2.000    2.400   14.000    1.600 
#    0.000    0.000    0.000    0.000    0.000    0.000 
#    0.000    0.000    0.000    0.000    0.000    0.000 
#
# Total GULP energy -111499.673009 kJ/mol
# GULP energy per Si atom -5574.983650 kJ/mol
# Density = 2.455415 g / cm^3
# Si number density = 24.610167 Si / 1000 Ang^3
#
#
#
# Elastic Constant Matrix: (Units=GPa)
#
#
# Indices 1 2 3 4 5 6 
#
# 1 140.8425 49.7719 26.4321 0.0000 0.0000 0.0000
# 2 49.7719 107.0453 35.4904 0.0000 0.0000 0.0000
# 3 26.4321 35.4904 217.5128 0.0000 0.0000 0.0000
# 4 0.0000 0.0000 0.0000 -29.7180 0.0000 0.0000
# 5 0.0000 0.0000 0.0000 0.0000 119.5012 0.0000
# 6 0.0000 0.0000 0.0000 0.0000 0.0000 53.2348
#
#
#
# Elastic Compliance Matrix: (Units=1/GPa)
#
#
# Indices 1 2 3 4 5 6 
#
# 1 0.008531 -0.003830 -0.000412 0.000000 0.000000 0.000000
# 2 -0.003830 0.011596 -0.001427 0.000000 0.000000 0.000000
# 3 -0.000412 -0.001427 0.004880 0.000000 0.000000 0.000000
# 4 0.000000 0.000000 0.000000 -0.033650 0.000000 0.000000
# 5 0.000000 0.000000 0.000000 0.000000 0.008368 0.000000
# 6 0.000000 0.000000 0.000000 0.000000 0.000000 0.018785
#
#
# Mechanical properties :
#
#
# Convention : Reuss Voigt Hill
#
# Bulk Modulus (GPa) = 73.15256 76.53216 74.84236
# Shear Modulus (GPa) = 145.33520 52.18402 98.75961
#
# Velocity S-wave (km/s) = 7.69306 4.60980 6.34167
# Velocity P-wave (km/s) = 10.42593 7.71356 9.17058
#
# Compressibility (1/GPa) = 0.01367006
#
# Stress axis : x y z
#
# Youngs Moduli (GPa) = 117.22123 86.23946 204.90831
#
# Poissons Ratio (x) = 0.33030 0.08437
# Poissons Ratio (y) = 0.44896 0.29232
# Poissons Ratio (z) = 0.04827 0.12303
#
# Static dielectric constant tensor:
#      x y z
#    x 1.967480 0.000000 0.000000 
#    y 0.000000 2.014090 0.000000 
#    z 0.000000 0.000000 2.027030 
# 
# From -- ./inp_files/43367.got.cif
#   From: 2010.05.17/outbox.cif.g08.bks.cpg/sg52_22_cif.got.tgz:43367.got - 2010.06.03 12:15:38.
