data_PCOD9413135
_publ_section_title
;
Structure prediction by ZEFSAII (Michael W. Deem and Ramdas Pophale) SiO2 
 PCOD9413135
Probable space group: P N N A
;
_chemical_formula_sum "Si O2"
_cell_formula_units_Z 48
_cell_length_a 9.323005
_cell_length_b 15.014756
_cell_length_c 17.522971
_cell_angle_alpha 90.000000
_cell_angle_beta 90.000000
_cell_angle_gamma 90.000000
_cell_volume 2452.911833
_symmetry_space_group_name_H-M "P N N A"
_symmetry_group_IT_number 52
_symmetry_cell_setting 'orthorhombic'
loop_
_space_group_symop_operation_xyz
x,y,z
1/2-x,-y,z
x,1/2-y,1/2-z
1/2-x,1/2+y,1/2-z
-x,-y,-z
1/2+x,y,-z
-x,1/2+y,1/2+z
1/2+x,1/2-y,1/2+z
loop_
_atom_site_type_symbol
_atom_site_label
_atom_site_fract_x
_atom_site_fract_y
_atom_site_fract_z
Si Si1 0.269528 0.265043 0.435512
Si Si2 0.490277 0.078307 0.061748
Si Si3 0.583751 0.990723 0.772717
Si Si4 0.981282 0.683753 0.680392
Si Si5 0.717719 0.280164 0.401016
Si Si6 0.033241 0.682749 0.183834
O O1 0.383786 0.341408 0.459646
O O2 0.217599 0.230892 0.517164
O O3 0.353364 0.193266 0.384592
O O4 0.144611 0.307535 0.383102
O O5 0.426623 0.044013 0.140917
O O6 0.641921 0.124832 0.080567
O O7 0.500000 0.000000 0.000000
O O8 0.518217 0.915252 0.718292
O O9 0.750000 0.000000 0.750879
O O10 0.513580 0.087184 0.779918
O O11 0.952995 0.750000 0.750000
O O12 0.129371 0.706182 0.637859
O O13 0.614456 0.225432 0.345059
O O14 0.087078 0.750000 0.250000
#
# Coordination Sequence:
#
# PCOD9413135 Si02
#       6
#     8   8   8   8   8   8
#     4  11  21  41  65  93 134 174 218 271 326 401
#     4  11  23  37  63  97 136 166 209 259 348 416
#     4  12  22  40  67  93 124 175 223 268 313 398
#     4  12  25  40  64  98 130 169 227 273 330 396
#     4  11  24  41  61  97 140 171 204 279 346 389
#     4  11  21  43  65  90 131 179 219 259 327 399
#
# _framework density 19.568580000000001
#
# number of rings (size 3 to 8) (size 9 to 14) (size 15 to 20)
#    0.000    0.667    5.000    6.000    0.000    2.000 
#    0.000    0.833    0.000   11.000    0.000    0.000 
#    0.000    0.000    0.000    0.000    0.000    0.000 
#
# Total GULP energy -268269.893711 kJ/mol
# GULP energy per Si atom -5588.956119 kJ/mol
# Density = 1.952404 g / cm^3
# Si number density = 19.568580 Si / 1000 Ang^3
#
#
#
# Elastic Constant Matrix: (Units=GPa)
#
#
# Indices 1 2 3 4 5 6 
#
# 1 94.7415 20.3446 32.9836 0.0000 0.0000 0.0000
# 2 20.3446 82.6760 52.8238 0.0000 0.0000 0.0000
# 3 32.9836 52.8238 113.5502 0.0000 0.0000 0.0000
# 4 0.0000 0.0000 0.0000 44.8301 0.0000 0.0000
# 5 0.0000 0.0000 0.0000 0.0000 30.8608 0.0000
# 6 0.0000 0.0000 0.0000 0.0000 0.0000 14.5872
#
#
#
# Elastic Compliance Matrix: (Units=1/GPa)
#
#
# Indices 1 2 3 4 5 6 
#
# 1 0.011802 -0.001016 -0.002956 0.000000 0.000000 0.000000
# 2 -0.001016 0.017298 -0.007752 0.000000 0.000000 0.000000
# 3 -0.002956 -0.007752 0.013272 0.000000 0.000000 0.000000
# 4 0.000000 0.000000 0.000000 0.022306 0.000000 0.000000
# 5 0.000000 0.000000 0.000000 0.000000 0.032404 0.000000
# 6 0.000000 0.000000 0.000000 0.000000 0.000000 0.068553
#
#
# Mechanical properties :
#
#
# Convention : Reuss Voigt Hill
#
# Bulk Modulus (GPa) = 52.84064 55.91909 54.37986
# Shear Modulus (GPa) = 25.58967 30.37666 27.98316
#
# Velocity S-wave (km/s) = 3.62012 3.94422 3.78564
# Velocity P-wave (km/s) = 6.67347 7.02713 6.85258
#
# Compressibility (1/GPa) = 0.01892483
#
# Stress axis : x y z
#
# Youngs Moduli (GPa) = 84.73019 57.80860 75.34892
#
# Poissons Ratio (x) = 0.05872 0.22271
# Poissons Ratio (y) = 0.08607 0.58412
# Poissons Ratio (z) = 0.25044 0.44815
#
# Static dielectric constant tensor:
#      x y z
#    x 1.731190 0.000000 0.000000 
#    y 0.000000 1.699250 0.000000 
#    z 0.000000 0.000000 1.243080 
# 
# From -- ./inp_files/31254.got.cif
#   From: 2010.05.17/outbox.cif.g08.bks.cpg/sg52_16_cif.got.tgz:31254.got - 2010.06.03 12:15:38.
