data_PCOD9413293
_publ_section_title
;
Structure prediction by ZEFSAII (Michael W. Deem and Ramdas Pophale) SiO2 
 PCOD9413293
Probable space group: P N N A
;
_chemical_formula_sum "Si O2"
_cell_formula_units_Z 40
_cell_length_a 9.552654
_cell_length_b 12.750956
_cell_length_c 13.651208
_cell_angle_alpha 90.000000
_cell_angle_beta 90.000000
_cell_angle_gamma 90.000000
_cell_volume 1662.791818
_symmetry_space_group_name_H-M "P N N A"
_symmetry_group_IT_number 52
_symmetry_cell_setting 'orthorhombic'
loop_
_space_group_symop_operation_xyz
x,y,z
1/2-x,-y,z
x,1/2-y,1/2-z
1/2-x,1/2+y,1/2-z
-x,-y,-z
1/2+x,y,-z
-x,1/2+y,1/2+z
1/2+x,1/2-y,1/2+z
loop_
_atom_site_type_symbol
_atom_site_label
_atom_site_fract_x
_atom_site_fract_y
_atom_site_fract_z
Si Si1 0.335525 0.250000 0.250000
Si Si2 0.250000 0.500000 0.085228
Si Si3 0.250000 0.500000 0.432476
Si Si4 0.043233 0.829447 0.445235
Si Si5 0.274579 0.710505 0.544658
Si Si6 0.846875 0.250000 0.250000
Si Si7 0.898496 0.904647 0.770532
O O1 0.428495 0.187937 0.328883
O O2 0.221648 0.177569 0.193543
O O3 0.133158 0.567324 0.028287
O O4 0.156915 0.435211 0.163537
O O5 0.298338 0.593910 0.505065
O O6 0.119632 0.495613 0.352119
O O7 0.126854 0.737352 0.497277
O O8 0.887117 0.802678 0.477960
O O9 0.251293 0.726075 0.658989
O O10 0.954488 0.151311 0.246141
#
# Coordination Sequence:
#
# PCOD9413293 Si02
#       7
#     4   4   4   8   8   4   8
#     4   9  17  40  68  96 142 180 234 304 378 426
#     4   9  22  42  73 100 134 192 247 290 377 452
#     4  11  22  46  73 110 136 196 251 312 369 456
#     4  11  24  44  68 103 142 191 242 313 363 457
#     4  12  27  44  70 103 150 185 246 309 385 439
#     4  11  25  46  64 100 154 190 236 316 376 446
#     4   9  19  41  73 100 135 191 245 298 369 453
#
# _framework density 24.055927000000001
#
# number of rings (size 3 to 8) (size 9 to 14) (size 15 to 20)
#    0.000    1.600    2.000    1.800    5.600    4.000 
#    3.600    0.000    0.000    0.000    0.000    0.000 
#    0.000    0.000    0.000    0.000    0.000    0.000 
#
# Total GULP energy -222709.086959 kJ/mol
# GULP energy per Si atom -5567.727174 kJ/mol
# Density = 2.400117 g / cm^3
# Si number density = 24.055927 Si / 1000 Ang^3
#
#
#
# Elastic Constant Matrix: (Units=GPa)
#
#
# Indices 1 2 3 4 5 6 
#
# 1 80.4626 23.7369 -0.6871 0.0000 0.0000 0.0000
# 2 23.7369 80.7828 17.5439 0.0000 0.0000 0.0000
# 3 -0.6871 17.5439 100.5906 0.0000 0.0000 0.0000
# 4 0.0000 0.0000 0.0000 36.5507 0.0000 0.0000
# 5 0.0000 0.0000 0.0000 0.0000 24.7088 0.0000
# 6 0.0000 0.0000 0.0000 0.0000 0.0000 20.5709
#
#
#
# Elastic Compliance Matrix: (Units=1/GPa)
#
#
# Indices 1 2 3 4 5 6 
#
# 1 0.013673 -0.004197 0.000825 0.000000 0.000000 0.000000
# 2 -0.004197 0.014154 -0.002497 0.000000 0.000000 0.000000
# 3 0.000825 -0.002497 0.010382 0.000000 0.000000 0.000000
# 4 0.000000 0.000000 0.000000 0.027359 0.000000 0.000000
# 5 0.000000 0.000000 0.000000 0.000000 0.040471 0.000000
# 6 0.000000 0.000000 0.000000 0.000000 0.000000 0.048612
#
#
# Mechanical properties :
#
#
# Convention : Reuss Voigt Hill
#
# Bulk Modulus (GPa) = 37.77516 38.11371 37.94444
# Shear Modulus (GPa) = 28.53633 31.11557 29.82595
#
# Velocity S-wave (km/s) = 3.44793 3.60038 3.52498
# Velocity P-wave (km/s) = 5.62033 5.75863 5.68990
#
# Compressibility (1/GPa) = 0.02647242
#
# Stress axis : x y z
#
# Youngs Moduli (GPa) = 73.13518 70.64922 96.31615
#
# Poissons Ratio (x) = 0.29651 -0.07950
# Poissons Ratio (y) = 0.30695 0.24053
# Poissons Ratio (z) = -0.06036 0.17643
#
# Static dielectric constant tensor:
#      x y z
#    x 1.889390 0.000000 0.000000 
#    y 0.000000 2.097740 0.000000 
#    z 0.000000 0.000000 2.028300 
# 
# From -- ./inp_files/24498.got.cif
#   From: 2010.05.17/outbox.cif.g08.bks.cpg/sg52_13_cif.got.tgz:24498.got - 2010.06.03 12:15:38.
