data_PCOD9413513
_publ_section_title
;
Structure prediction by ZEFSAII (Michael W. Deem and Ramdas Pophale) SiO2 
 PCOD9413513
Probable space group: P N N A
;
_chemical_formula_sum "Si O2"
_cell_formula_units_Z 40
_cell_length_a 23.190799
_cell_length_b 9.230774
_cell_length_c 8.304500
_cell_angle_alpha 90.000000
_cell_angle_beta 90.000000
_cell_angle_gamma 90.000000
_cell_volume 1777.736214
_symmetry_space_group_name_H-M "P N N A"
_symmetry_group_IT_number 52
_symmetry_cell_setting 'orthorhombic'
loop_
_space_group_symop_operation_xyz
x,y,z
1/2-x,-y,z
x,1/2-y,1/2-z
1/2-x,1/2+y,1/2-z
-x,-y,-z
1/2+x,y,-z
-x,1/2+y,1/2+z
1/2+x,1/2-y,1/2+z
loop_
_atom_site_type_symbol
_atom_site_label
_atom_site_fract_x
_atom_site_fract_y
_atom_site_fract_z
Si Si1 0.348791 0.464306 0.895322
Si Si2 0.057213 0.750000 0.750000
Si Si3 0.742998 0.750000 0.250000
Si Si4 0.114266 0.250000 0.750000
Si Si5 0.650392 0.420201 0.743536
Si Si6 0.961997 0.636905 0.541971
Si Si7 0.750000 0.500000 0.510307
O O1 0.401516 0.382793 0.802190
O O2 0.295270 0.364718 0.854209
O O3 0.346034 0.622798 0.816664
O O4 0.353357 0.499782 0.084476
O O5 0.011534 0.742556 0.604787
O O6 0.759743 0.640532 0.398587
O O7 0.073808 0.301492 0.606101
O O8 0.670114 0.250000 0.750000
O O9 0.586117 0.408107 0.671520
O O10 0.693575 0.505173 0.624864
O O11 0.000000 0.500000 0.500000
#
# Coordination Sequence:
#
# PCOD9413513 Si02
#       7
#     8   4   4   4   8   8   4
#     4  11  26  47  76 109 154 194 252 313 376 460
#     4  11  24  46  68 111 151 200 255 308 384 448
#     4  11  30  53  80 110 144 198 256 316 380 456
#     4  12  22  43  72 107 153 202 245 312 378 452
#     4  12  28  49  76 112 154 200 257 317 383 455
#     4  12  25  43  71 111 151 201 254 312 381 447
#     4  12  32  52  82 110 148 202 252 318 382 454
#
# _framework density 22.500525
#
# number of rings (size 3 to 8) (size 9 to 14) (size 15 to 20)
#    0.000    0.400    5.000    1.200   11.200    2.400 
#    0.000    0.000    0.000    0.000    0.000    0.000 
#    0.000    0.000    0.000    0.000    0.000    0.000 
#
# Total GULP energy -223386.547833 kJ/mol
# GULP energy per Si atom -5584.663696 kJ/mol
# Density = 2.244931 g / cm^3
# Si number density = 22.500525 Si / 1000 Ang^3
#
#
#
# Elastic Constant Matrix: (Units=GPa)
#
#
# Indices 1 2 3 4 5 6 
#
# 1 43.4696 9.7341 34.2674 0.0000 0.0000 0.0000
# 2 9.7341 99.0139 50.0140 0.0000 0.0000 0.0000
# 3 34.2674 50.0140 163.7307 0.0000 0.0000 0.0000
# 4 0.0000 0.0000 0.0000 49.6180 0.0000 0.0000
# 5 0.0000 0.0000 0.0000 0.0000 28.5306 0.0000
# 6 0.0000 0.0000 0.0000 0.0000 0.0000 10.3662
#
#
#
# Elastic Compliance Matrix: (Units=1/GPa)
#
#
# Indices 1 2 3 4 5 6 
#
# 1 0.027555 0.000241 -0.005841 0.000000 0.000000 0.000000
# 2 0.000241 0.011944 -0.003699 0.000000 0.000000 0.000000
# 3 -0.005841 -0.003699 0.008460 0.000000 0.000000 0.000000
# 4 0.000000 0.000000 0.000000 0.020154 0.000000 0.000000
# 5 0.000000 0.000000 0.000000 0.000000 0.035050 0.000000
# 6 0.000000 0.000000 0.000000 0.000000 0.000000 0.096468
#
#
# Mechanical properties :
#
#
# Convention : Reuss Voigt Hill
#
# Bulk Modulus (GPa) = 34.05739 54.91610 44.48675
# Shear Modulus (GPa) = 21.92837 31.84953 26.88895
#
# Velocity S-wave (km/s) = 3.12520 3.76640 3.46068
# Velocity P-wave (km/s) = 5.30958 6.58589 5.98187
#
# Compressibility (1/GPa) = 0.02936220
#
# Stress axis : x y z
#
# Youngs Moduli (GPa) = 36.29134 83.72155 118.20419
#
# Poissons Ratio (x) = -0.02021 0.69039
# Poissons Ratio (y) = -0.00876 0.43725
# Poissons Ratio (z) = 0.21197 0.30969
#
# Static dielectric constant tensor:
#      x y z
#    x 1.826400 0.000000 0.000000 
#    y 0.000000 1.740380 0.000000 
#    z 0.000000 0.000000 1.557370 
# 
# From -- ./inp_files/14079.got.cif
#   From: 2010.05.17/outbox.cif.g08.bks.cpg/sg52_8_cif.got.tgz:14079.got - 2010.06.03 12:15:38.
