data_PCOD9413431
_publ_section_title
;
Structure prediction by ZEFSAII (Michael W. Deem and Ramdas Pophale) SiO2 
 PCOD9413431
Probable space group: P N N A
;
_chemical_formula_sum "Si O2"
_cell_formula_units_Z 28
_cell_length_a 7.619819
_cell_length_b 13.689210
_cell_length_c 12.473659
_cell_angle_alpha 90.000000
_cell_angle_beta 90.000000
_cell_angle_gamma 90.000000
_cell_volume 1301.118669
_symmetry_space_group_name_H-M "P N N A"
_symmetry_group_IT_number 52
_symmetry_cell_setting 'orthorhombic'
loop_
_space_group_symop_operation_xyz
x,y,z
1/2-x,-y,z
x,1/2-y,1/2-z
1/2-x,1/2+y,1/2-z
-x,-y,-z
1/2+x,y,-z
-x,1/2+y,1/2+z
1/2+x,1/2-y,1/2+z
loop_
_atom_site_type_symbol
_atom_site_label
_atom_site_fract_x
_atom_site_fract_y
_atom_site_fract_z
Si Si1 0.134615 0.705494 0.863301
Si Si2 0.107959 0.585773 0.250585
Si Si3 0.772958 0.243656 0.595933
Si Si4 0.250000 0.500000 0.797266
O O1 0.197031 0.750000 0.750000
O O2 0.179444 0.591229 0.864726
O O3 0.926372 0.721692 0.870554
O O4 0.215888 0.752784 0.968814
O O5 0.250000 0.500000 0.240807
O O6 0.161906 0.659465 0.344669
O O7 0.113566 0.653076 0.143196
O O8 0.917225 0.539465 0.267338
#
# Coordination Sequence:
#
# PCOD9413431 Si02
#       4
#     8   8   8   4
#     4  12  26  48  72 112 149 196 247 303 369 434
#     4  11  23  49  73 109 151 191 247 310 366 442
#     4  11  25  46  76 104 155 196 240 311 367 433
#     4  12  26  42  80 110 142 192 256 290 372 436
#
# _framework density 21.519943000000001
#
# number of rings (size 3 to 8) (size 9 to 14) (size 15 to 20)
#    0.000    0.571    5.714    1.714   10.000    2.286 
#    2.571    2.857    0.000    0.000    0.000    0.000 
#    0.000    0.000    0.000    0.000    0.000    0.000 
#
# Total GULP energy -156728.110182 kJ/mol
# GULP energy per Si atom -5597.432507 kJ/mol
# Density = 2.147096 g / cm^3
# Si number density = 21.519943 Si / 1000 Ang^3
#
#
#
# Elastic Constant Matrix: (Units=GPa)
#
#
# Indices 1 2 3 4 5 6 
#
# 1 129.1053 37.4463 20.6228 0.0000 0.0000 0.0000
# 2 37.4463 65.1103 28.9493 0.0000 0.0000 0.0000
# 3 20.6228 28.9493 156.5770 0.0000 0.0000 0.0000
# 4 0.0000 0.0000 0.0000 15.2995 0.0000 0.0000
# 5 0.0000 0.0000 0.0000 0.0000 21.9788 0.0000
# 6 0.0000 0.0000 0.0000 0.0000 0.0000 43.8535
#
#
#
# Elastic Compliance Matrix: (Units=1/GPa)
#
#
# Indices 1 2 3 4 5 6 
#
# 1 0.009306 -0.005238 -0.000257 0.000000 0.000000 0.000000
# 2 -0.005238 0.019682 -0.002949 0.000000 0.000000 0.000000
# 3 -0.000257 -0.002949 0.006966 0.000000 0.000000 0.000000
# 4 0.000000 0.000000 0.000000 0.065362 0.000000 0.000000
# 5 0.000000 0.000000 0.000000 0.000000 0.045498 0.000000
# 6 0.000000 0.000000 0.000000 0.000000 0.000000 0.022803
#
#
# Mechanical properties :
#
#
# Convention : Reuss Voigt Hill
#
# Bulk Modulus (GPa) = 52.45041 58.31434 55.38238
# Shear Modulus (GPa) = 25.92551 33.81131 29.86841
#
# Velocity S-wave (km/s) = 3.47467 3.96809 3.72955
# Velocity P-wave (km/s) = 6.36582 6.93909 6.65863
#
# Compressibility (1/GPa) = 0.01906563
#
# Stress axis : x y z
#
# Youngs Moduli (GPa) = 107.45929 50.80771 143.55879
#
# Poissons Ratio (x) = 0.26611 0.03694
# Poissons Ratio (y) = 0.56283 0.42337
# Poissons Ratio (z) = 0.02765 0.14984
#
# Static dielectric constant tensor:
#      x y z
#    x 1.810570 0.000000 0.000000 
#    y 0.000000 1.760960 0.000000 
#    z 0.000000 0.000000 1.767260 
# 
# From -- ./inp_files/16366.got.cif
#   From: 2010.05.17/outbox.cif.g08.bks.cpg/sg52_9_cif.got.tgz:16366.got - 2010.06.03 12:15:38.
