data_PCOD9413986
_publ_section_title
;
Structure prediction by ZEFSAII (Michael W. Deem and Ramdas Pophale) SiO2 
 PCOD9413986
Probable space group: P N N A
;
_chemical_formula_sum "Si O2"
_cell_formula_units_Z 48
_cell_length_a 9.000000
_cell_length_b 30.000000
_cell_length_c 9.000000
_cell_angle_alpha 90.000000
_cell_angle_beta 90.000000
_cell_angle_gamma 90.000000
_cell_volume 2430.000000
_symmetry_space_group_name_H-M "P N N A"
_symmetry_group_IT_number 52
_symmetry_cell_setting 'orthorhombic'
loop_
_space_group_symop_operation_xyz
x,y,z
1/2-x,-y,z
x,1/2-y,1/2-z
1/2-x,1/2+y,1/2-z
-x,-y,-z
1/2+x,y,-z
-x,1/2+y,1/2+z
1/2+x,1/2-y,1/2+z
loop_
_atom_site_type_symbol
_atom_site_label
_atom_site_fract_x
_atom_site_fract_y
_atom_site_fract_z
Si Si1 0.541437 0.668364 0.087384
Si Si2 0.129957 0.586480 0.115334
Si Si3 0.346256 0.702701 0.821402
Si Si4 0.588051 0.095169 0.813642
Si Si5 0.341188 0.044203 0.698619
Si Si6 0.881313 0.891451 0.166167
O O1 0.669659 0.699646 0.151189
O O2 0.469998 0.638261 0.218338
O O3 0.620484 0.632588 0.977371
O O4 0.426662 0.693711 0.979655
O O5 0.249321 0.589256 0.244831
O O6 0.980033 0.582733 0.209731
O O7 0.157211 0.552337 0.979749
O O8 0.387944 0.750000 0.750000
O O9 0.384634 0.660444 0.714522
O O10 0.507527 0.049547 0.758944
O O11 0.583519 0.102054 0.991784
O O12 0.274258 0.085870 0.792642
O O13 0.250000 0.000000 0.733586
#
# Coordination Sequence:
#
# PCOD9413986 Si02
#       6
#     8   8   8   8   8   8
#     4  10  20  42  62  91 127 171 206 257 311 375
#     4  10  20  38  65  86 124 166 208 252 312 384
#     4  11  23  42  66  93 130 167 218 260 310 382
#     4  11  21  39  67  91 129 166 206 264 322 376
#     4  11  23  41  64  91 125 169 217 259 317 391
#     4  11  23  40  63  95 126 166 210 265 327 373
#
# _framework density 19.753086
#
# number of rings (size 3 to 8) (size 9 to 14) (size 15 to 20)
#    0.000    1.333    5.000    3.000    0.000    4.667 
#    3.000    2.500    0.000    0.000    0.000    0.000 
#    0.000    0.000    0.000    0.000    0.000    0.000 
#
# Total GULP energy -267492.700011 kJ/mol
# GULP energy per Si atom -5572.764584 kJ/mol
# Density = 1.970813 g / cm^3
# Si number density = 19.753086 Si / 1000 Ang^3
#
#
#
# Elastic Constant Matrix: (Units=GPa)
#
#
# Indices 1 2 3 4 5 6 
#
# 1 25.0782 -11.3376 -6.0704 0.0000 0.0000 0.0000
# 2 -11.3376 31.8174 4.9851 0.0000 0.0000 0.0000
# 3 -6.0704 4.9851 141.4311 0.0000 0.0000 0.0000
# 4 0.0000 0.0000 0.0000 19.3046 0.0000 0.0000
# 5 0.0000 0.0000 0.0000 0.0000 33.4855 0.0000
# 6 0.0000 0.0000 0.0000 0.0000 0.0000 2.5780
#
#
#
# Elastic Compliance Matrix: (Units=1/GPa)
#
#
# Indices 1 2 3 4 5 6 
#
# 1 0.047831 0.016815 0.001460 0.000000 0.000000 0.000000
# 2 0.016815 0.037515 -0.000601 0.000000 0.000000 0.000000
# 3 0.001460 -0.000601 0.007154 0.000000 0.000000 0.000000
# 4 0.000000 0.000000 0.000000 0.051801 0.000000 0.000000
# 5 0.000000 0.000000 0.000000 0.000000 0.029864 0.000000
# 6 0.000000 0.000000 0.000000 0.000000 0.000000 0.387890
#
#
# Mechanical properties :
#
#
# Convention : Reuss Voigt Hill
#
# Bulk Modulus (GPa) = 7.82170 19.27564 13.54867
# Shear Modulus (GPa) = 8.78237 25.12360 16.95298
#
# Velocity S-wave (km/s) = 2.11086 3.57021 2.93276
# Velocity P-wave (km/s) = 3.14790 5.17443 4.28276
#
# Compressibility (1/GPa) = 0.12784945
#
# Stress axis : x y z
#
# Youngs Moduli (GPa) = 20.90708 26.65587 139.77359
#
# Poissons Ratio (x) = -0.44822 -0.20411
# Poissons Ratio (y) = -0.35155 0.08395
# Poissons Ratio (z) = -0.03053 0.01601
#
# Static dielectric constant tensor:
#      x y z
#    x 1.789090 0.000000 0.000000 
#    y 0.000000 1.696930 0.000000 
#    z 0.000000 0.000000 1.631910 
# 
# From -- ./inp_files/7678.got.cif
#   From: 2010.05.17/outbox.ucp.g08.bks.cvg/sg52_4_cif.got.tgz:7678.got - 2010.06.11 16:30:12.
