data_PCOD9413807
_publ_section_title
;
Structure prediction by ZEFSAII (Michael W. Deem and Ramdas Pophale) SiO2 
 PCOD9413807
Probable space group: P N N A
;
_chemical_formula_sum "Si O2"
_cell_formula_units_Z 36
_cell_length_a 12.131749
_cell_length_b 23.699252
_cell_length_c 4.903743
_cell_angle_alpha 90.000000
_cell_angle_beta 90.000000
_cell_angle_gamma 90.000000
_cell_volume 1409.891709
_symmetry_space_group_name_H-M "P N N A"
_symmetry_group_IT_number 52
_symmetry_cell_setting 'orthorhombic'
loop_
_space_group_symop_operation_xyz
x,y,z
1/2-x,-y,z
x,1/2-y,1/2-z
1/2-x,1/2+y,1/2-z
-x,-y,-z
1/2+x,y,-z
-x,1/2+y,1/2+z
1/2+x,1/2-y,1/2+z
loop_
_atom_site_type_symbol
_atom_site_label
_atom_site_fract_x
_atom_site_fract_y
_atom_site_fract_z
Si Si1 0.207723 0.322977 0.055068
Si Si2 0.953619 0.440150 0.595662
Si Si3 0.807921 0.439728 0.100075
Si Si4 0.887676 0.250000 0.250000
Si Si5 0.433140 0.823088 0.941541
O O1 0.233607 0.388622 0.004318
O O2 0.311616 0.288839 0.942752
O O3 0.102845 0.308763 0.864243
O O4 0.171620 0.312436 0.363177
O O5 0.846490 0.429236 0.408196
O O6 0.037165 0.389208 0.548247
O O7 0.000000 0.500000 0.500000
O O8 0.915572 0.440602 0.907815
O O9 0.750000 0.500000 0.078525
O O10 0.963664 0.209994 0.063699
#
# Coordination Sequence:
#
# PCOD9413807 Si02
#       5
#     8   8   8   4   8
#     4  12  27  48  74 109 145 195 247 303 370 437
#     4  12  24  45  73 107 149 189 241 307 366 438
#     4  12  24  45  73 107 149 191 242 306 366 439
#     4  12  28  50  76 106 156 192 254 306 372 440
#     4  12  27  48  74 109 145 194 248 301 368 440
#
# _framework density 25.533874999999998
#
# number of rings (size 3 to 8) (size 9 to 14) (size 15 to 20)
#    0.000    0.000    2.222    8.000    0.000    1.778 
#    0.000    0.000    0.000    0.000    0.000    0.000 
#    0.000    0.000    0.000    0.000    0.000    0.000 
#
# Total GULP energy -202415.707737 kJ/mol
# GULP energy per Si atom -5622.658548 kJ/mol
# Density = 2.547576 g / cm^3
# Si number density = 25.533875 Si / 1000 Ang^3
#
#
#
# Elastic Constant Matrix: (Units=GPa)
#
#
# Indices 1 2 3 4 5 6 
#
# 1 91.8342 40.8541 19.7645 0.0000 0.0000 0.0000
# 2 40.8541 138.2789 18.2502 0.0000 0.0000 0.0000
# 3 19.7645 18.2502 100.8241 0.0000 0.0000 0.0000
# 4 0.0000 0.0000 0.0000 29.8383 0.0000 0.0000
# 5 0.0000 0.0000 0.0000 0.0000 29.5644 0.0000
# 6 0.0000 0.0000 0.0000 0.0000 0.0000 38.7586
#
#
#
# Elastic Compliance Matrix: (Units=1/GPa)
#
#
# Indices 1 2 3 4 5 6 
#
# 1 0.012876 -0.003556 -0.001880 0.000000 0.000000 0.000000
# 2 -0.003556 0.008391 -0.000822 0.000000 0.000000 0.000000
# 3 -0.001880 -0.000822 0.010436 0.000000 0.000000 0.000000
# 4 0.000000 0.000000 0.000000 0.033514 0.000000 0.000000
# 5 0.000000 0.000000 0.000000 0.000000 0.033824 0.000000
# 6 0.000000 0.000000 0.000000 0.000000 0.000000 0.025801
#
#
# Mechanical properties :
#
#
# Convention : Reuss Voigt Hill
#
# Bulk Modulus (GPa) = 52.12108 54.29719 53.20913
# Shear Modulus (GPa) = 34.78191 36.43683 35.60937
#
# Velocity S-wave (km/s) = 3.69479 3.78166 3.73848
# Velocity P-wave (km/s) = 6.21762 6.35444 6.28640
#
# Compressibility (1/GPa) = 0.01918609
#
# Stress axis : x y z
#
# Youngs Moduli (GPa) = 77.66507 119.17803 95.82562
#
# Poissons Ratio (x) = 0.42379 0.18019
# Poissons Ratio (y) = 0.27617 0.07875
# Poissons Ratio (z) = 0.14604 0.09793
#
# Static dielectric constant tensor:
#      x y z
#    x 1.978840 0.000000 0.000000 
#    y 0.000000 1.996650 0.000000 
#    z 0.000000 0.000000 1.915090 
# 
# From -- ./inp_files/1224.got.cif
#   From: 2010.05.17/outbox.cif.g08.bks.cpg/sg52_1_cif.got.tgz:1224.got - 2010.06.03 12:15:38.
