data_PCOD9413410
_publ_section_title
;
Structure prediction by ZEFSAII (Michael W. Deem and Ramdas Pophale) SiO2 
 PCOD9413410
Probable space group: P N N A
;
_chemical_formula_sum "Si O2"
_cell_formula_units_Z 32
_cell_length_a 18.998963
_cell_length_b 14.539216
_cell_length_c 4.872557
_cell_angle_alpha 90.000000
_cell_angle_beta 90.000000
_cell_angle_gamma 90.000000
_cell_volume 1345.946551
_symmetry_space_group_name_H-M "P N N A"
_symmetry_group_IT_number 52
_symmetry_cell_setting 'orthorhombic'
loop_
_space_group_symop_operation_xyz
x,y,z
1/2-x,-y,z
x,1/2-y,1/2-z
1/2-x,1/2+y,1/2-z
-x,-y,-z
1/2+x,y,-z
-x,1/2+y,1/2+z
1/2+x,1/2-y,1/2+z
loop_
_atom_site_type_symbol
_atom_site_label
_atom_site_fract_x
_atom_site_fract_y
_atom_site_fract_z
Si Si1 0.039850 0.067309 0.282798
Si Si2 0.603079 0.931721 0.163014
Si Si3 0.684618 0.641073 0.817878
Si Si4 0.336039 0.818583 0.496844
O O1 0.097348 0.116015 0.471391
O O2 0.972322 0.122502 0.162741
O O3 0.000000 0.000000 0.500000
O O4 0.077799 0.021017 0.018811
O O5 0.632851 0.909095 0.466734
O O6 0.668428 0.901288 0.976167
O O7 0.673289 0.750000 0.750000
O O8 0.762922 0.630237 0.935938
O O9 0.347278 0.750000 0.250000
O O10 0.329696 0.750000 0.750000
#
# Coordination Sequence:
#
# PCOD9413410 Si02
#       4
#     8   8   8   8
#     4  11  26  49  68 109 145 191 247 298 371 447
#     4  11  24  44  72 101 145 189 237 309 352 448
#     4  11  23  46  70 107 142 190 247 302 367 440
#     4  11  27  47  74 104 147 194 244 308 374 447
#
# _framework density 23.775089000000001
#
# number of rings (size 3 to 8) (size 9 to 14) (size 15 to 20)
#    0.000    1.000    2.500    3.750    7.000    4.000 
#    4.500    0.000    0.000    0.000    0.000    0.000 
#    0.000    0.000    0.000    0.000    0.000    0.000 
#
# Total GULP energy -178163.853348 kJ/mol
# GULP energy per Si atom -5567.620417 kJ/mol
# Density = 2.372098 g / cm^3
# Si number density = 23.775089 Si / 1000 Ang^3
#
#
#
# Elastic Constant Matrix: (Units=GPa)
#
#
# Indices 1 2 3 4 5 6 
#
# 1 176.1515 57.8862 20.0083 0.0000 0.0000 0.0000
# 2 57.8862 28.8363 18.4084 0.0000 0.0000 0.0000
# 3 20.0083 18.4084 149.3812 0.0000 0.0000 0.0000
# 4 0.0000 0.0000 0.0000 36.5446 0.0000 0.0000
# 5 0.0000 0.0000 0.0000 0.0000 31.0213 0.0000
# 6 0.0000 0.0000 0.0000 0.0000 0.0000 49.0924
#
#
#
# Elastic Compliance Matrix: (Units=1/GPa)
#
#
# Indices 1 2 3 4 5 6 
#
# 1 0.017282 -0.036050 0.002128 0.000000 0.000000 0.000000
# 2 -0.036050 0.112839 -0.009077 0.000000 0.000000 0.000000
# 3 0.002128 -0.009077 0.007528 0.000000 0.000000 0.000000
# 4 0.000000 0.000000 0.000000 0.027364 0.000000 0.000000
# 5 0.000000 0.000000 0.000000 0.000000 0.032236 0.000000
# 6 0.000000 0.000000 0.000000 0.000000 0.000000 0.020370
#
#
# Mechanical properties :
#
#
# Convention : Reuss Voigt Hill
#
# Bulk Modulus (GPa) = 19.36061 60.77499 40.06780
# Shear Modulus (GPa) = 15.58443 40.53607 28.06025
#
# Velocity S-wave (km/s) = 2.56304 4.13362 3.43919
# Velocity P-wave (km/s) = 4.11337 6.95704 5.71490
#
# Compressibility (1/GPa) = 0.05165126
#
# Stress axis : x y z
#
# Youngs Moduli (GPa) = 57.86444 8.86217 132.84044
#
# Poissons Ratio (x) = 0.31948 -0.28264
# Poissons Ratio (y) = 2.08600 1.20576
# Poissons Ratio (z) = -0.12312 0.08044
#
# Static dielectric constant tensor:
#      x y z
#    x 1.889640 0.000000 0.000000 
#    y 0.000000 1.997600 0.000000 
#    z 0.000000 0.000000 1.972980 
# 
# From -- ./inp_files/3004.got.cif
#   From: 2010.05.17/outbox.cif.g08.bks.cpg/sg52_2_cif.got.tgz:3004.got - 2010.06.03 12:15:38.
