data_PCOD9413346
_publ_section_title
;
Structure prediction by ZEFSAII (Michael W. Deem and Ramdas Pophale) SiO2 
 PCOD9413346
Probable space group: P N N A
;
_chemical_formula_sum "Si O2"
_cell_formula_units_Z 56
_cell_length_a 14.032604
_cell_length_b 9.352521
_cell_length_c 20.895119
_cell_angle_alpha 90.000000
_cell_angle_beta 90.000000
_cell_angle_gamma 90.000000
_cell_volume 2742.280090
_symmetry_space_group_name_H-M "P N N A"
_symmetry_group_IT_number 52
_symmetry_cell_setting 'orthorhombic'
loop_
_space_group_symop_operation_xyz
x,y,z
1/2-x,-y,z
x,1/2-y,1/2-z
1/2-x,1/2+y,1/2-z
-x,-y,-z
1/2+x,y,-z
-x,1/2+y,1/2+z
1/2+x,1/2-y,1/2+z
loop_
_atom_site_type_symbol
_atom_site_label
_atom_site_fract_x
_atom_site_fract_y
_atom_site_fract_z
Si Si1 0.393520 0.276926 0.081957
Si Si2 0.857918 0.970642 0.960105
Si Si3 0.357876 0.508923 0.606613
Si Si4 0.516442 0.637763 0.698355
Si Si5 0.500000 0.500000 0.000000
Si Si6 0.750000 0.500000 0.884726
Si Si7 0.096687 0.383714 0.214546
Si Si8 0.494675 0.245475 0.896989
O O1 0.407148 0.221925 0.154406
O O2 0.294962 0.368160 0.075160
O O3 0.401758 0.129371 0.043257
O O4 0.472367 0.387260 0.058610
O O5 0.918224 0.861201 0.917483
O O6 0.750000 0.000000 0.937267
O O7 0.856140 0.926214 0.034545
O O8 0.250000 0.500000 0.630116
O O9 0.431070 0.590787 0.652084
O O10 0.400829 0.350246 0.602235
O O11 0.480384 0.750000 0.750000
O O12 0.561864 0.502651 0.735316
O O13 0.490567 0.369901 0.948523
O O14 0.833687 0.552205 0.838684
O O15 0.145409 0.250000 0.250000
O O16 0.012714 0.311849 0.172879
#
# Coordination Sequence:
#
# PCOD9413346 Si02
#       8
#     8   8   8   8   4   4   8   8
#     4  12  24  43  68 101 137 181 218 280 346 413
#     4  11  23  41  73 102 136 177 223 275 349 426
#     4  11  24  44  72 101 126 178 243 288 339 407
#     4  12  24  47  68  93 133 183 229 278 344 408
#     4  12  24  40  66  98 138 180 216 276 354 402
#     4  12  26  40  64 108 140 172 232 274 332 428
#     4  12  25  41  67  96 136 180 222 274 339 405
#     4  12  22  46  69 100 142 180 224 286 352 418
#
# _framework density 20.420961999999999
#
# number of rings (size 3 to 8) (size 9 to 14) (size 15 to 20)
#    0.000    0.286    7.143    2.143    2.000    0.000 
#    3.857    0.000    0.000    0.000    0.000    0.000 
#    0.000    0.000    0.000    0.000    0.000    0.000 
#
# Total GULP energy -311887.424200 kJ/mol
# GULP energy per Si atom -5569.418289 kJ/mol
# Density = 2.037448 g / cm^3
# Si number density = 20.420962 Si / 1000 Ang^3
#
#
#
# Elastic Constant Matrix: (Units=GPa)
#
#
# Indices 1 2 3 4 5 6 
#
# 1 53.6118 23.1006 -9.1249 0.0000 0.0000 0.0000
# 2 23.1006 136.4127 27.6679 0.0000 0.0000 0.0000
# 3 -9.1249 27.6679 68.1440 0.0000 0.0000 0.0000
# 4 0.0000 0.0000 0.0000 51.6790 0.0000 0.0000
# 5 0.0000 0.0000 0.0000 0.0000 12.9492 0.0000
# 6 0.0000 0.0000 0.0000 0.0000 0.0000 27.7798
#
#
#
# Elastic Compliance Matrix: (Units=1/GPa)
#
#
# Indices 1 2 3 4 5 6 
#
# 1 0.021436 -0.004590 0.004734 0.000000 0.000000 0.000000
# 2 -0.004590 0.008972 -0.004257 0.000000 0.000000 0.000000
# 3 0.004734 -0.004257 0.017037 0.000000 0.000000 0.000000
# 4 0.000000 0.000000 0.000000 0.019350 0.000000 0.000000
# 5 0.000000 0.000000 0.000000 0.000000 0.077225 0.000000
# 6 0.000000 0.000000 0.000000 0.000000 0.000000 0.035997
#
#
# Mechanical properties :
#
#
# Convention : Reuss Voigt Hill
#
# Bulk Modulus (GPa) = 25.49830 37.93953 31.71891
# Shear Modulus (GPa) = 24.83642 32.91660 28.87651
#
# Velocity S-wave (km/s) = 3.49122 4.01921 3.76448
# Velocity P-wave (km/s) = 5.36330 6.33701 5.87038
#
# Compressibility (1/GPa) = 0.03921831
#
# Stress axis : x y z
#
# Youngs Moduli (GPa) = 46.64986 111.46385 58.69478
#
# Poissons Ratio (x) = 0.51165 -0.27787
# Poissons Ratio (y) = 0.21414 0.24988
# Poissons Ratio (z) = -0.22085 0.47453
#
# Static dielectric constant tensor:
#      x y z
#    x 1.760700 0.000000 0.000000 
#    y 0.000000 1.748010 0.000000 
#    z 0.000000 0.000000 1.772350 
# 
# From -- ./inp_files/37381.got.cif
#   From: 2010.05.17/outbox.cif.g08.bks.cpg/sg52_19_cif.got.tgz:37381.got - 2010.06.03 12:15:38.
