data_PCOD9413239
_publ_section_title
;
Structure prediction by ZEFSAII (Michael W. Deem and Ramdas Pophale) SiO2 
 PCOD9413239
Probable space group: P N N A
;
_chemical_formula_sum "Si O2"
_cell_formula_units_Z 48
_cell_length_a 15.113500
_cell_length_b 17.153530
_cell_length_c 8.060822
_cell_angle_alpha 90.000000
_cell_angle_beta 90.000000
_cell_angle_gamma 90.000000
_cell_volume 2089.767101
_symmetry_space_group_name_H-M "P N N A"
_symmetry_group_IT_number 52
_symmetry_cell_setting 'orthorhombic'
loop_
_space_group_symop_operation_xyz
x,y,z
1/2-x,-y,z
x,1/2-y,1/2-z
1/2-x,1/2+y,1/2-z
-x,-y,-z
1/2+x,y,-z
-x,1/2+y,1/2+z
1/2+x,1/2-y,1/2+z
loop_
_atom_site_type_symbol
_atom_site_label
_atom_site_fract_x
_atom_site_fract_y
_atom_site_fract_z
Si Si1 0.254472 0.176269 0.622673
Si Si2 0.162062 0.092678 0.045370
Si Si3 0.666460 0.917651 0.090699
Si Si4 0.987732 0.153702 0.910663
Si Si5 0.598081 0.331786 0.858990
Si Si6 0.065074 0.667998 0.061434
O O1 0.256826 0.250000 0.750000
O O2 0.285791 0.397853 0.764401
O O3 0.163595 0.174318 0.518154
O O4 0.334235 0.178035 0.490704
O O5 0.134374 0.103223 0.233688
O O6 0.262231 0.122523 0.032277
O O7 0.090612 0.138427 0.936296
O O8 0.159773 0.006553 0.968161
O O9 0.570549 0.882339 0.058235
O O10 0.971253 0.244699 0.917485
O O11 0.951835 0.124047 0.733978
O O12 0.595466 0.250000 0.750000
O O13 0.501662 0.359667 0.919175
#
# Coordination Sequence:
#
# PCOD9413239 Si02
#       6
#     8   8   8   8   8   8
#     4  12  24  41  68 101 132 172 225 275 329 391
#     4  11  24  44  65  92 133 176 218 270 333 392
#     4  11  24  44  65  92 133 176 218 270 333 392
#     4  11  22  41  66  95 131 179 214 270 332 392
#     4  12  24  41  68 101 132 172 225 275 329 391
#     4  11  24  38  66 100 136 163 224 278 323 384
#
# _framework density 22.969066999999999
#
# number of rings (size 3 to 8) (size 9 to 14) (size 15 to 20)
#    0.000    0.667    3.333    5.000    4.667    0.000 
#    0.000   13.333    0.000    0.000    0.000    0.000 
#    0.000    0.000    0.000    0.000    0.000    0.000 
#
# Total GULP energy -268021.210595 kJ/mol
# GULP energy per Si atom -5583.775221 kJ/mol
# Density = 2.291679 g / cm^3
# Si number density = 22.969067 Si / 1000 Ang^3
#
#
#
# Elastic Constant Matrix: (Units=GPa)
#
#
# Indices 1 2 3 4 5 6 
#
# 1 79.0550 -1.2136 8.5160 0.0000 0.0000 0.0000
# 2 -1.2136 44.6542 15.5543 0.0000 0.0000 0.0000
# 3 8.5160 15.5543 117.0823 0.0000 0.0000 0.0000
# 4 0.0000 0.0000 0.0000 27.2721 0.0000 0.0000
# 5 0.0000 0.0000 0.0000 0.0000 166.8217 0.0000
# 6 0.0000 0.0000 0.0000 0.0000 0.0000 55.4734
#
#
#
# Elastic Compliance Matrix: (Units=1/GPa)
#
#
# Indices 1 2 3 4 5 6 
#
# 1 0.012770 0.000703 -0.001022 0.000000 0.000000 0.000000
# 2 0.000703 0.023520 -0.003176 0.000000 0.000000 0.000000
# 3 -0.001022 -0.003176 0.009037 0.000000 0.000000 0.000000
# 4 0.000000 0.000000 0.000000 0.036668 0.000000 0.000000
# 5 0.000000 0.000000 0.000000 0.000000 0.005994 0.000000
# 6 0.000000 0.000000 0.000000 0.000000 0.000000 0.018027
#
#
# Mechanical properties :
#
#
# Convention : Reuss Voigt Hill
#
# Bulk Modulus (GPa) = 26.08408 31.83388 28.95898
# Shear Modulus (GPa) = 39.75048 64.44242 52.09645
#
# Velocity S-wave (km/s) = 4.16457 5.30255 4.76764
# Velocity P-wave (km/s) = 5.87416 7.16791 6.55304
#
# Compressibility (1/GPa) = 0.03833756
#
# Stress axis : x y z
#
# Youngs Moduli (GPa) = 78.30643 42.51773 110.65319
#
# Poissons Ratio (x) = -0.02990 0.11312
# Poissons Ratio (y) = -0.05506 0.35140
# Poissons Ratio (z) = 0.08005 0.13502
#
# Static dielectric constant tensor:
#      x y z
#    x 1.904020 0.000000 0.000000 
#    y 0.000000 1.889730 0.000000 
#    z 0.000000 0.000000 1.994050 
# 
# From -- ./inp_files/10488.got.cif
#   From: 2010.05.17/outbox.cif.g08.bks.cpg/sg52_6_cif.got.tgz:10488.got - 2010.06.03 12:15:38.
