data_PCOD9413084
_publ_section_title
;
Structure prediction by ZEFSAII (Michael W. Deem and Ramdas Pophale) SiO2 
 PCOD9413084
Probable space group: P N N A
;
_chemical_formula_sum "Si O2"
_cell_formula_units_Z 64
_cell_length_a 9.000714
_cell_length_b 27.630567
_cell_length_c 12.259148
_cell_angle_alpha 90.000000
_cell_angle_beta 90.000000
_cell_angle_gamma 90.000000
_cell_volume 3048.786743
_symmetry_space_group_name_H-M "P N N A"
_symmetry_group_IT_number 52
_symmetry_cell_setting 'orthorhombic'
loop_
_space_group_symop_operation_xyz
x,y,z
1/2-x,-y,z
x,1/2-y,1/2-z
1/2-x,1/2+y,1/2-z
-x,-y,-z
1/2+x,y,-z
-x,1/2+y,1/2+z
1/2+x,1/2-y,1/2+z
loop_
_atom_site_type_symbol
_atom_site_label
_atom_site_fract_x
_atom_site_fract_y
_atom_site_fract_z
Si Si1 0.777652 0.146362 0.409263
Si Si2 0.882191 0.875719 0.630674
Si Si3 0.593222 0.738335 0.006995
Si Si4 0.844872 0.693769 0.527855
Si Si5 0.096029 0.361852 0.688374
Si Si6 0.735060 0.556122 0.431929
Si Si7 0.599026 0.090862 0.865411
Si Si8 0.151454 0.695618 0.206490
O O1 0.704029 0.120555 0.514878
O O2 0.799441 0.204463 0.423306
O O3 0.690529 0.137977 0.298324
O O4 0.945259 0.127960 0.395429
O O5 0.871044 0.911487 0.735415
O O6 0.810457 0.825766 0.675207
O O7 0.450322 0.761819 0.059407
O O8 0.680789 0.785318 0.963962
O O9 0.558161 0.703360 0.905415
O O10 0.859415 0.678361 0.401295
O O11 0.885666 0.646904 0.596960
O O12 0.139160 0.411936 0.629701
O O13 0.931912 0.345597 0.724270
O O14 0.750000 0.500000 0.404736
O O15 0.779113 0.563938 0.559144
O O16 0.569416 0.574423 0.398720
O O17 0.158986 0.750000 0.250000
#
# Coordination Sequence:
#
# PCOD9413084 Si02
#       8
#     8   8   8   8   8   8   8   8
#     4  11  23  41  61  95 133 193 237 283 324 407
#     4  11  24  42  65  94 138 182 241 275 339 404
#     4  11  21  34  54  87 133 183 236 267 324 385
#     4  11  22  37  57  94 135 177 226 284 333 403
#     4  11  23  41  67  95 138 185 229 287 354 415
#     4  11  25  47  77 108 138 167 226 296 372 438
#     4  11  24  44  70 106 135 179 220 288 362 422
#     4  11  21  37  59  93 134 189 235 276 331 402
#
# _framework density 20.991956999999999
#
# number of rings (size 3 to 8) (size 9 to 14) (size 15 to 20)
#    0.000    1.000    2.500    6.375    3.500    0.000 
#    0.000    0.000    0.000    1.500    0.000    0.000 
#    0.000    0.000    0.000    0.000    0.000    0.000 
#
# Total GULP energy -357048.398324 kJ/mol
# GULP energy per Si atom -5578.881224 kJ/mol
# Density = 2.094418 g / cm^3
# Si number density = 20.991957 Si / 1000 Ang^3
#
#
#
# Elastic Constant Matrix: (Units=GPa)
#
#
# Indices 1 2 3 4 5 6 
#
# 1 101.8691 18.6168 46.6190 0.0000 0.0000 0.0000
# 2 18.6168 72.5546 34.4989 0.0000 0.0000 0.0000
# 3 46.6190 34.4989 139.5211 0.0000 0.0000 0.0000
# 4 0.0000 0.0000 0.0000 13.8036 0.0000 0.0000
# 5 0.0000 0.0000 0.0000 0.0000 39.2356 0.0000
# 6 0.0000 0.0000 0.0000 0.0000 0.0000 12.1812
#
#
#
# Elastic Compliance Matrix: (Units=1/GPa)
#
#
# Indices 1 2 3 4 5 6 
#
# 1 0.011695 -0.001295 -0.003587 0.000000 0.000000 0.000000
# 2 -0.001295 0.015763 -0.003465 0.000000 0.000000 0.000000
# 3 -0.003587 -0.003465 0.009223 0.000000 0.000000 0.000000
# 4 0.000000 0.000000 0.000000 0.072445 0.000000 0.000000
# 5 0.000000 0.000000 0.000000 0.000000 0.025487 0.000000
# 6 0.000000 0.000000 0.000000 0.000000 0.000000 0.082094
#
#
# Mechanical properties :
#
#
# Convention : Reuss Voigt Hill
#
# Bulk Modulus (GPa) = 50.03596 57.04603 53.54100
# Shear Modulus (GPa) = 20.82791 27.32475 24.07633
#
# Velocity S-wave (km/s) = 3.15331 3.61179 3.39031
# Velocity P-wave (km/s) = 6.09470 6.68039 6.39425
#
# Compressibility (1/GPa) = 0.01998563
#
# Stress axis : x y z
#
# Youngs Moduli (GPa) = 85.50699 63.44167 108.42659
#
# Poissons Ratio (x) = 0.08216 0.38898
# Poissons Ratio (y) = 0.11073 0.37568
# Poissons Ratio (z) = 0.30676 0.21982
#
# Static dielectric constant tensor:
#      x y z
#    x 1.786590 0.000000 0.000000 
#    y 0.000000 1.727570 0.000000 
#    z 0.000000 0.000000 1.867910 
# 
# From -- ./inp_files/17247.got.cif
#   From: 2010.05.17/outbox.cif.g08.bks.cpg/sg52_9_cif.got.tgz:17247.got - 2010.06.03 12:15:38.
