data_PCOD9413492
_publ_section_title
;
Structure prediction by ZEFSAII (Michael W. Deem and Ramdas Pophale) SiO2 
 PCOD9413492
Probable space group: P N N A
;
_chemical_formula_sum "Si O2"
_cell_formula_units_Z 56
_cell_length_a 19.407855
_cell_length_b 14.942679
_cell_length_c 9.815589
_cell_angle_alpha 90.000000
_cell_angle_beta 90.000000
_cell_angle_gamma 90.000000
_cell_volume 2846.573297
_symmetry_space_group_name_H-M "P N N A"
_symmetry_group_IT_number 52
_symmetry_cell_setting 'orthorhombic'
loop_
_space_group_symop_operation_xyz
x,y,z
1/2-x,-y,z
x,1/2-y,1/2-z
1/2-x,1/2+y,1/2-z
-x,-y,-z
1/2+x,y,-z
-x,1/2+y,1/2+z
1/2+x,1/2-y,1/2+z
loop_
_atom_site_type_symbol
_atom_site_label
_atom_site_fract_x
_atom_site_fract_y
_atom_site_fract_z
Si Si1 0.146379 0.526267 0.715849
Si Si2 0.385451 0.148057 0.294573
Si Si3 0.759427 0.898010 0.591239
Si Si4 0.034802 0.587579 0.936390
Si Si5 0.272942 0.850673 0.704358
Si Si6 0.596636 0.148160 0.719819
Si Si7 0.574634 0.503286 0.567593
O O1 0.084446 0.559605 0.812227
O O2 0.206203 0.600840 0.730221
O O3 0.169691 0.427671 0.769180
O O4 0.126168 0.517805 0.558106
O O5 0.395427 0.250000 0.250000
O O6 0.303881 0.127437 0.311709
O O7 0.421455 0.131473 0.441299
O O8 0.416264 0.080146 0.182115
O O9 0.757244 0.840733 0.455294
O O10 0.835059 0.892071 0.652646
O O11 0.750000 0.000000 0.545338
O O12 0.970961 0.642916 0.875096
O O13 0.000000 0.500000 0.000000
O O14 0.289293 0.750000 0.750000
O O15 0.611862 0.250000 0.750000
O O16 0.584630 0.089903 0.854324
O O17 0.500000 0.500000 0.500000
#
# Coordination Sequence:
#
# PCOD9413492 Si02
#       7
#     8   8   8   8   8   8   8
#     4  11  24  44  71  98 142 182 232 284 360 416
#     4  12  27  44  76 105 139 187 243 291 346 431
#     4  12  22  49  71 101 142 190 238 286 359 424
#     4  12  22  49  72  98 138 193 229 283 354 423
#     4  11  25  42  70 105 138 184 235 295 346 427
#     4  12  28  44  74 104 144 188 234 295 357 422
#     4  12  26  47  67 105 146 178 229 296 351 418
#
# _framework density 19.672777
#
# number of rings (size 3 to 8) (size 9 to 14) (size 15 to 20)
#    0.000    0.286    7.143    1.286    6.000    2.857 
#    0.000    1.429    0.000    0.000    0.000    0.000 
#    0.000    0.000    0.000    0.000    0.000    0.000 
#
# Total GULP energy -312999.860051 kJ/mol
# GULP energy per Si atom -5589.283215 kJ/mol
# Density = 1.962800 g / cm^3
# Si number density = 19.672777 Si / 1000 Ang^3
#
#
#
# Elastic Constant Matrix: (Units=GPa)
#
#
# Indices 1 2 3 4 5 6 
#
# 1 113.0673 9.8396 40.2793 0.0000 0.0000 0.0000
# 2 9.8396 87.4031 34.0376 0.0000 0.0000 0.0000
# 3 40.2793 34.0376 118.4539 0.0000 0.0000 0.0000
# 4 0.0000 0.0000 0.0000 23.3110 0.0000 0.0000
# 5 0.0000 0.0000 0.0000 0.0000 19.3339 0.0000
# 6 0.0000 0.0000 0.0000 0.0000 0.0000 -0.0464
#
#
#
# Elastic Compliance Matrix: (Units=1/GPa)
#
#
# Indices 1 2 3 4 5 6 
#
# 1 0.010067 0.000225 -0.003488 0.000000 0.000000 0.000000
# 2 0.000225 0.012888 -0.003780 0.000000 0.000000 0.000000
# 3 -0.003488 -0.003780 0.010714 0.000000 0.000000 0.000000
# 4 0.000000 0.000000 0.000000 0.042898 0.000000 0.000000
# 5 0.000000 0.000000 0.000000 0.000000 0.051723 0.000000
# 6 0.000000 0.000000 0.000000 0.000000 0.000000-21.550275
#
#
# Mechanical properties :
#
#
# Convention : Reuss Voigt Hill
#
# Bulk Modulus (GPa) = 51.06248 54.13749 52.59998
# Shear Modulus (GPa) = -0.23363 24.17088 11.96863
#
# Velocity S-wave (km/s) = -0.34499 3.50901 2.46922
# Velocity P-wave (km/s) = 5.08464 6.63297 5.90973
#
# Compressibility (1/GPa) = 0.01958385
#
# Stress axis : x y z
#
# Youngs Moduli (GPa) = 99.33190 77.59220 93.33339
#
# Poissons Ratio (x) = -0.01746 0.32554
# Poissons Ratio (y) = -0.02235 0.35278
# Poissons Ratio (z) = 0.34646 0.29328
#
# Static dielectric constant tensor:
#      x y z
#    x 1.985440 0.000000 0.000000 
#    y 0.000000 1.695140 0.000000 
#    z 0.000000 0.000000 1.717260 
# 
# From -- ./inp_files/13440.got.cif
#   From: 2010.05.17/outbox.cif.g08.bks.cpg/sg52_7_cif.got.tgz:13440.got - 2010.06.03 12:15:38.
