data_PCOD9413074
_publ_section_title
;
Structure prediction by ZEFSAII (Michael W. Deem and Ramdas Pophale) SiO2 
 PCOD9413074
Probable space group: P N N A
;
_chemical_formula_sum "Si O2"
_cell_formula_units_Z 48
_cell_length_a 14.237193
_cell_length_b 10.888827
_cell_length_c 18.408025
_cell_angle_alpha 90.000000
_cell_angle_beta 90.000000
_cell_angle_gamma 90.000000
_cell_volume 2853.728587
_symmetry_space_group_name_H-M "P N N A"
_symmetry_group_IT_number 52
_symmetry_cell_setting 'orthorhombic'
loop_
_space_group_symop_operation_xyz
x,y,z
1/2-x,-y,z
x,1/2-y,1/2-z
1/2-x,1/2+y,1/2-z
-x,-y,-z
1/2+x,y,-z
-x,1/2+y,1/2+z
1/2+x,1/2-y,1/2+z
loop_
_atom_site_type_symbol
_atom_site_label
_atom_site_fract_x
_atom_site_fract_y
_atom_site_fract_z
Si Si1 0.798732 0.871115 0.067965
Si Si2 0.147779 0.003556 0.404322
Si Si3 0.444713 0.943376 0.636299
Si Si4 0.185561 0.381043 0.733913
Si Si5 0.361253 0.166016 0.548469
Si Si6 0.435555 0.775878 0.491601
O O1 0.840279 0.878593 0.149201
O O2 0.723976 0.757716 0.065125
O O3 0.878284 0.844714 0.009183
O O4 0.750000 0.000000 0.053571
O O5 0.155473 0.912778 0.474681
O O6 0.056058 0.967891 0.358224
O O7 0.250000 0.000000 0.368462
O O8 0.120338 0.136441 0.436377
O O9 0.399081 0.892526 0.709161
O O10 0.436362 0.851563 0.567715
O O11 0.387353 0.065082 0.610008
O O12 0.250000 0.500000 0.744851
O O13 0.234327 0.250000 0.750000
O O14 0.458365 0.238588 0.534982
#
# Coordination Sequence:
#
# PCOD9413074 Si02
#       6
#     8   8   8   8   8   8
#     4  11  21  30  45  71 101 140 171 197 253 312
#     4   9  15  28  54  77  92 119 161 220 267 294
#     4   9  18  29  48  74  96 129 162 210 262 289
#     4  11  21  32  48  71 104 141 171 202 247 314
#     4   9  18  31  49  71 100 128 164 214 258 300
#     4   9  17  30  47  72  99 125 166 208 256 301
#
# _framework density 16.820098999999999
#
# number of rings (size 3 to 8) (size 9 to 14) (size 15 to 20)
#    0.000    2.333    3.333    3.000    0.000    0.667 
#    0.000    0.000    0.000    0.000    0.000   16.333 
#    0.000    0.000    0.000    0.000    0.000    0.000 
#
# Total GULP energy -267413.960569 kJ/mol
# GULP energy per Si atom -5571.124179 kJ/mol
# Density = 1.678182 g / cm^3
# Si number density = 16.820099 Si / 1000 Ang^3
#
#
#
# Elastic Constant Matrix: (Units=GPa)
#
#
# Indices 1 2 3 4 5 6 
#
# 1 75.2183 11.4537 21.3338 0.0000 0.0000 0.0000
# 2 11.4537 60.1887 13.1166 0.0000 0.0000 0.0000
# 3 21.3338 13.1166 45.3483 0.0000 0.0000 0.0000
# 4 0.0000 0.0000 0.0000 18.4027 0.0000 0.0000
# 5 0.0000 0.0000 0.0000 0.0000 10.1083 0.0000
# 6 0.0000 0.0000 0.0000 0.0000 0.0000 18.6974
#
#
#
# Elastic Compliance Matrix: (Units=1/GPa)
#
#
# Indices 1 2 3 4 5 6 
#
# 1 0.015459 -0.001448 -0.006854 0.000000 0.000000 0.000000
# 2 -0.001448 0.017868 -0.004487 0.000000 0.000000 0.000000
# 3 -0.006854 -0.004487 0.026574 0.000000 0.000000 0.000000
# 4 0.000000 0.000000 0.000000 0.054340 0.000000 0.000000
# 5 0.000000 0.000000 0.000000 0.000000 0.098928 0.000000
# 6 0.000000 0.000000 0.000000 0.000000 0.000000 0.053483
#
#
# Mechanical properties :
#
#
# Convention : Reuss Voigt Hill
#
# Bulk Modulus (GPa) = 29.13501 30.28484 29.70992
# Shear Modulus (GPa) = 16.46523 18.43178 17.44850
#
# Velocity S-wave (km/s) = 3.13214 3.31391 3.22430
# Velocity P-wave (km/s) = 5.51720 5.71724 5.61811
#
# Compressibility (1/GPa) = 0.03432297
#
# Stress axis : x y z
#
# Youngs Moduli (GPa) = 64.68704 55.96663 37.63132
#
# Poissons Ratio (x) = 0.08105 0.25791
# Poissons Ratio (y) = 0.09368 0.16884
# Poissons Ratio (z) = 0.44335 0.25111
#
# Static dielectric constant tensor:
#      x y z
#    x 1.592930 0.000000 0.000000 
#    y 0.000000 1.596180 0.000000 
#    z 0.000000 0.000000 1.550120 
# 
# From -- ./inp_files/33148.got.cif
#   From: 2010.05.17/outbox.cif.g08.bks.cpg/sg52_17_cif.got.tgz:33148.got - 2010.06.03 12:15:38.
