data_PCOD9413222
_publ_section_title
;
Structure prediction by ZEFSAII (Michael W. Deem and Ramdas Pophale) SiO2 
 PCOD9413222
Probable space group: P N N A
;
_chemical_formula_sum "Si O2"
_cell_formula_units_Z 48
_cell_length_a 14.921793
_cell_length_b 16.988943
_cell_length_c 9.279621
_cell_angle_alpha 90.000000
_cell_angle_beta 90.000000
_cell_angle_gamma 90.000000
_cell_volume 2352.434875
_symmetry_space_group_name_H-M "P N N A"
_symmetry_group_IT_number 52
_symmetry_cell_setting 'orthorhombic'
loop_
_space_group_symop_operation_xyz
x,y,z
1/2-x,-y,z
x,1/2-y,1/2-z
1/2-x,1/2+y,1/2-z
-x,-y,-z
1/2+x,y,-z
-x,1/2+y,1/2+z
1/2+x,1/2-y,1/2+z
loop_
_atom_site_type_symbol
_atom_site_label
_atom_site_fract_x
_atom_site_fract_y
_atom_site_fract_z
Si Si1 0.906373 0.182947 0.968483
Si Si2 0.722818 0.234698 0.584746
Si Si3 0.546457 0.609456 0.231903
Si Si4 0.474249 0.061311 0.264704
Si Si5 0.546997 0.315305 0.037072
Si Si6 0.184161 0.927393 0.492133
O O1 0.802311 0.205510 0.956266
O O2 0.933459 0.111013 0.865973
O O3 0.935353 0.162690 0.130434
O O4 0.963873 0.259317 0.922887
O O5 0.696952 0.250000 0.750000
O O6 0.636679 0.234780 0.481669
O O7 0.763844 0.147345 0.571228
O O8 0.511910 0.523349 0.276772
O O9 0.476736 0.647061 0.118392
O O10 0.637101 0.598087 0.140299
O O11 0.548617 0.114898 0.346296
O O12 0.396488 0.050453 0.384045
O O13 0.250000 0.000000 0.510504
#
# Coordination Sequence:
#
# PCOD9413222 Si02
#       6
#     8   8   8   8   8   8
#     4  12  23  44  64 100 134 172 214 280 336 387
#     4  12  22  41  68  97 130 172 221 276 324 392
#     4  11  23  41  66  94 138 170 218 278 331 390
#     4  11  22  44  66  96 135 174 218 275 331 393
#     4  11  23  42  71  94 126 177 227 260 326 401
#     4  11  22  40  67  95 127 173 228 263 320 396
#
# _framework density 20.404391
#
# number of rings (size 3 to 8) (size 9 to 14) (size 15 to 20)
#    0.000    0.667    5.000    6.500    0.000    0.000 
#    9.000    0.833    0.000    0.000    0.000    0.000 
#    0.000    0.000    0.000    0.000    0.000    0.000 
#
# Total GULP energy -268582.388327 kJ/mol
# GULP energy per Si atom -5595.466423 kJ/mol
# Density = 2.035795 g / cm^3
# Si number density = 20.404391 Si / 1000 Ang^3
#
#
#
# Elastic Constant Matrix: (Units=GPa)
#
#
# Indices 1 2 3 4 5 6 
#
# 1 82.1581 9.2251 5.8095 0.0000 0.0000 0.0000
# 2 9.2251 78.0537 15.3462 0.0000 0.0000 0.0000
# 3 5.8095 15.3462 56.9310 0.0000 0.0000 0.0000
# 4 0.0000 0.0000 0.0000 32.3056 0.0000 0.0000
# 5 0.0000 0.0000 0.0000 0.0000 12.2443 0.0000
# 6 0.0000 0.0000 0.0000 0.0000 0.0000 34.4641
#
#
#
# Elastic Compliance Matrix: (Units=1/GPa)
#
#
# Indices 1 2 3 4 5 6 
#
# 1 0.012381 -0.001283 -0.000918 0.000000 0.000000 0.000000
# 2 -0.001283 0.013662 -0.003552 0.000000 0.000000 0.000000
# 3 -0.000918 -0.003552 0.018616 0.000000 0.000000 0.000000
# 4 0.000000 0.000000 0.000000 0.030954 0.000000 0.000000
# 5 0.000000 0.000000 0.000000 0.000000 0.081670 0.000000
# 6 0.000000 0.000000 0.000000 0.000000 0.000000 0.029016
#
#
# Mechanical properties :
#
#
# Convention : Reuss Voigt Hill
#
# Bulk Modulus (GPa) = 30.16216 30.87826 30.52021
# Shear Modulus (GPa) = 23.94012 28.25361 26.09687
#
# Velocity S-wave (km/s) = 3.42904 3.72517 3.58017
# Velocity P-wave (km/s) = 5.52196 5.80246 5.66394
#
# Compressibility (1/GPa) = 0.03315413
#
# Stress axis : x y z
#
# Youngs Moduli (GPa) = 80.77166 73.19781 53.71679
#
# Poissons Ratio (x) = 0.09390 0.04929
# Poissons Ratio (y) = 0.10362 0.19079
# Poissons Ratio (z) = 0.07411 0.25998
#
# Static dielectric constant tensor:
#      x y z
#    x 1.729390 0.000000 0.000000 
#    y 0.000000 1.718870 0.000000 
#    z 0.000000 0.000000 1.713320 
# 
# From -- ./inp_files/10424.got.cif
#   From: 2010.05.17/outbox.cif.g08.bks.cpg/sg52_6_cif.got.tgz:10424.got - 2010.06.03 12:15:38.
