data_PCOD9413851
_publ_section_title
;
Structure prediction by ZEFSAII (Michael W. Deem and Ramdas Pophale) SiO2 
 PCOD9413851
Probable space group: P N N A
;
_chemical_formula_sum "Si O2"
_cell_formula_units_Z 20
_cell_length_a 8.664352
_cell_length_b 18.192238
_cell_length_c 4.701961
_cell_angle_alpha 90.000000
_cell_angle_beta 90.000000
_cell_angle_gamma 90.000000
_cell_volume 741.141683
_symmetry_space_group_name_H-M "P N N A"
_symmetry_group_IT_number 52
_symmetry_cell_setting 'orthorhombic'
loop_
_space_group_symop_operation_xyz
x,y,z
1/2-x,-y,z
x,1/2-y,1/2-z
1/2-x,1/2+y,1/2-z
-x,-y,-z
1/2+x,y,-z
-x,1/2+y,1/2+z
1/2+x,1/2-y,1/2+z
loop_
_atom_site_type_symbol
_atom_site_label
_atom_site_fract_x
_atom_site_fract_y
_atom_site_fract_z
Si Si1 0.615906 0.946830 0.660176
Si Si2 0.205445 0.250000 0.250000
Si Si3 0.083172 0.844043 0.832105
O O1 0.666516 0.886785 0.423124
O O2 0.750000 0.000000 0.766161
O O3 0.500000 0.000000 0.500000
O O4 0.453835 0.097240 0.077614
O O5 0.315877 0.283021 0.495521
O O6 0.077122 0.186234 0.294035
#
# Coordination Sequence:
#
# PCOD9413851 Si02
#       3
#     8   4   8
#     4  12  25  46  74 108 149 198 254 316 382 455
#     4  12  28  50  76 114 156 204 258 316 390 466
#     4  12  27  47  76 110 153 202 253 317 384 462
#
# _framework density 26.985395
#
# number of rings (size 3 to 8) (size 9 to 14) (size 15 to 20)
#    0.000    0.000    0.000    9.600    0.000   11.200 
#    0.000    0.000    0.000    0.000    0.000    0.000 
#    0.000    0.000    0.000    0.000    0.000    0.000 
#
# Total GULP energy -112114.370203 kJ/mol
# GULP energy per Si atom -5605.718510 kJ/mol
# Density = 2.692398 g / cm^3
# Si number density = 26.985395 Si / 1000 Ang^3
#
#
#
# Elastic Constant Matrix: (Units=GPa)
#
#
# Indices 1 2 3 4 5 6 
#
# 1 143.8262 73.8162 19.3569 0.0000 0.0000 0.0000
# 2 73.8162 176.8340 72.7939 0.0000 0.0000 0.0000
# 3 19.3569 72.7939 109.9736 0.0000 0.0000 0.0000
# 4 0.0000 0.0000 0.0000 65.4799 0.0000 0.0000
# 5 0.0000 0.0000 0.0000 0.0000 50.4017 0.0000
# 6 0.0000 0.0000 0.0000 0.0000 0.0000 48.8631
#
#
#
# Elastic Compliance Matrix: (Units=1/GPa)
#
#
# Indices 1 2 3 4 5 6 
#
# 1 0.008969 -0.004253 0.001236 0.000000 0.000000 0.000000
# 2 -0.004253 0.009790 -0.005731 0.000000 0.000000 0.000000
# 3 0.001236 -0.005731 0.012669 0.000000 0.000000 0.000000
# 4 0.000000 0.000000 0.000000 0.015272 0.000000 0.000000
# 5 0.000000 0.000000 0.000000 0.000000 0.019841 0.000000
# 6 0.000000 0.000000 0.000000 0.000000 0.000000 0.020465
#
#
# Mechanical properties :
#
#
# Convention : Reuss Voigt Hill
#
# Bulk Modulus (GPa) = 71.77644 84.72976 78.25310
# Shear Modulus (GPa) = 45.81020 50.59338 48.20179
#
# Velocity S-wave (km/s) = 4.12465 4.33464 4.23095
# Velocity P-wave (km/s) = 7.02422 7.51789 7.27525
#
# Compressibility (1/GPa) = 0.01393215
#
# Stress axis : x y z
#
# Youngs Moduli (GPa) = 111.49254 102.14804 78.93150
#
# Poissons Ratio (x) = 0.43444 -0.09760
# Poissons Ratio (y) = 0.47418 0.45239
# Poissons Ratio (z) = -0.13786 0.58545
#
# Static dielectric constant tensor:
#      x y z
#    x 2.067910 0.000000 0.000000 
#    y 0.000000 2.280020 0.000000 
#    z 0.000000 0.000000 2.033210 
# 
# From -- ./inp_files/228.got.cif
#   From: 2010.05.17/outbox.cif.g08.bks.cpg/sg52_1_cif.got.tgz:228.got - 2010.06.03 12:15:38.
