data_PCOD9413645
_publ_section_title
;
Structure prediction by ZEFSAII (Michael W. Deem and Ramdas Pophale) SiO2 
 PCOD9413645
Probable space group: P N N A
;
_chemical_formula_sum "Si O2"
_cell_formula_units_Z 28
_cell_length_a 31.736683
_cell_length_b 7.645424
_cell_length_c 5.245828
_cell_angle_alpha 90.000000
_cell_angle_beta 90.000000
_cell_angle_gamma 90.000000
_cell_volume 1272.849793
_symmetry_space_group_name_H-M "P N N A"
_symmetry_group_IT_number 52
_symmetry_cell_setting 'orthorhombic'
loop_
_space_group_symop_operation_xyz
x,y,z
1/2-x,-y,z
x,1/2-y,1/2-z
1/2-x,1/2+y,1/2-z
-x,-y,-z
1/2+x,y,-z
-x,1/2+y,1/2+z
1/2+x,1/2-y,1/2+z
loop_
_atom_site_type_symbol
_atom_site_label
_atom_site_fract_x
_atom_site_fract_y
_atom_site_fract_z
Si Si1 0.300637 0.750000 0.250000
Si Si2 0.256068 0.250000 0.750000
Si Si3 0.325592 0.107090 0.055922
Si Si4 0.402171 0.250000 0.750000
Si Si5 0.527581 0.043944 0.253228
O O1 0.272454 0.782948 0.501743
O O2 0.328014 0.579824 0.313553
O O3 0.290443 0.398895 0.667260
O O4 0.308138 0.250000 0.250000
O O5 0.369634 0.185885 0.965188
O O6 0.432414 0.416576 0.782217
O O7 0.538288 0.250000 0.250000
O O8 0.500000 0.000000 0.500000
O O9 0.500000 0.000000 0.000000
#
# Coordination Sequence:
#
# PCOD9413645 Si02
#       5
#     4   4   8   4   8
#     4  12  28  46  77 106 145 200 263 302 373 452
#     4  11  26  46  76 106 143 198 257 312 358 452
#     4  11  28  47  73 111 152 198 245 315 388 429
#     4  11  28  48  75 112 164 188 250 314 379 450
#     4  12  25  49  81 114 147 198 251 303 372 454
#
# _framework density 21.997883000000002
#
# number of rings (size 3 to 8) (size 9 to 14) (size 15 to 20)
#    0.000    0.571    4.286    0.857   16.000    2.286 
#    0.000    0.000    0.000    0.000    0.000    0.000 
#    0.000    0.000    0.000    0.000    0.000    0.000 
#
# Total GULP energy -156473.498217 kJ/mol
# GULP energy per Si atom -5588.339222 kJ/mol
# Density = 2.194781 g / cm^3
# Si number density = 21.997883 Si / 1000 Ang^3
#
#
#
# Elastic Constant Matrix: (Units=GPa)
#
#
# Indices 1 2 3 4 5 6 
#
# 1 132.6921 67.7996 70.7131 0.0000 0.0000 0.0000
# 2 67.7996 232.1375 61.7086 0.0000 0.0000 0.0000
# 3 70.7131 61.7086 161.2423 0.0000 0.0000 0.0000
# 4 0.0000 0.0000 0.0000 45.1572 0.0000 0.0000
# 5 0.0000 0.0000 0.0000 0.0000 -9.9207 0.0000
# 6 0.0000 0.0000 0.0000 0.0000 0.0000 42.5832
#
#
#
# Elastic Compliance Matrix: (Units=1/GPa)
#
#
# Indices 1 2 3 4 5 6 
#
# 1 0.010670 -0.002084 -0.003882 0.000000 0.000000 0.000000
# 2 -0.002084 0.005203 -0.001077 0.000000 0.000000 0.000000
# 3 -0.003882 -0.001077 0.008316 0.000000 0.000000 0.000000
# 4 0.000000 0.000000 0.000000 0.022145 0.000000 0.000000
# 5 0.000000 0.000000 0.000000 0.000000 -0.100799 0.000000
# 6 0.000000 0.000000 0.000000 0.000000 0.000000 0.023483
#
#
# Mechanical properties :
#
#
# Convention : Reuss Voigt Hill
#
# Bulk Modulus (GPa) = 98.98118 102.94605 100.96362
# Shear Modulus (GPa) = -369.60729 37.28731 -166.15999
#
# Velocity S-wave (km/s) = -12.97630 4.12155 -8.70049
# Velocity P-wave (km/s) = 13.39473 8.33963 7.41180
#
# Compressibility (1/GPa) = 0.01010293
#
# Stress axis : x y z
#
# Youngs Moduli (GPa) = 93.72223 192.20033 120.24599
#
# Poissons Ratio (x) = 0.40064 0.46674
# Poissons Ratio (y) = 0.19536 0.12951
# Poissons Ratio (z) = 0.36379 0.20701
#
# Static dielectric constant tensor:
#      x y z
#    x 1.838120 0.000000 0.000000 
#    y 0.000000 2.116270 0.000000 
#    z 0.000000 0.000000 1.912310 
# 
# From -- ./inp_files/5497.got.cif
#   From: 2010.05.17/outbox.cif.g08.bks.cpg/sg52_3_cif.got.tgz:5497.got - 2010.06.03 12:15:38.
