data_PCOD9413160
_publ_section_title
;
Structure prediction by ZEFSAII (Michael W. Deem and Ramdas Pophale) SiO2 
 PCOD9413160
Probable space group: P N N A
;
_chemical_formula_sum "Si O2"
_cell_formula_units_Z 64
_cell_length_a 14.198098
_cell_length_b 17.368043
_cell_length_c 11.941899
_cell_angle_alpha 90.000000
_cell_angle_beta 90.000000
_cell_angle_gamma 90.000000
_cell_volume 2944.790809
_symmetry_space_group_name_H-M "P N N A"
_symmetry_group_IT_number 52
_symmetry_cell_setting 'orthorhombic'
loop_
_space_group_symop_operation_xyz
x,y,z
1/2-x,-y,z
x,1/2-y,1/2-z
1/2-x,1/2+y,1/2-z
-x,-y,-z
1/2+x,y,-z
-x,1/2+y,1/2+z
1/2+x,1/2-y,1/2+z
loop_
_atom_site_type_symbol
_atom_site_label
_atom_site_fract_x
_atom_site_fract_y
_atom_site_fract_z
Si Si1 0.533030 0.895493 0.215827
Si Si2 0.512720 0.432403 0.272696
Si Si3 0.339368 0.862834 0.344040
Si Si4 0.481729 0.588691 0.974989
Si Si5 0.198783 0.569836 0.326454
Si Si6 0.466639 0.661812 0.501779
Si Si7 0.896470 0.204897 0.403877
Si Si8 0.758159 0.784003 0.954633
O O1 0.431613 0.866815 0.264427
O O2 0.598336 0.830893 0.277202
O O3 0.561635 0.983567 0.240235
O O4 0.515614 0.897677 0.083289
O O5 0.527027 0.391682 0.154525
O O6 0.403524 0.454553 0.287775
O O7 0.528590 0.374055 0.374692
O O8 0.386500 0.888912 0.460000
O O9 0.262316 0.913732 0.282310
O O10 0.289094 0.782090 0.367891
O O11 0.500000 0.500000 0.000000
O O12 0.573822 0.630440 0.024378
O O13 0.250000 0.500000 0.390440
O O14 0.197014 0.648739 0.396913
O O15 0.520946 0.737534 0.451700
O O16 0.356420 0.677086 0.486375
O O17 0.800634 0.244105 0.445677
#
# Coordination Sequence:
#
# PCOD9413160 Si02
#       8
#     8   8   8   8   8   8   8   8
#     4  11  22  44  72 100 141 192 237 291 370 451
#     4  12  24  43  70 107 143 186 237 307 369 438
#     4  11  22  38  70  99 136 181 235 299 361 435
#     4  11  21  43  67  99 144 179 230 295 374 445
#     4  12  22  39  68 110 141 181 245 313 369 430
#     4  12  24  43  71 104 142 190 247 300 367 434
#     4  11  24  43  70 103 142 189 236 296 365 438
#     4  12  24  43  67 108 144 185 248 308 362 439
#
# _framework density 21.733294000000001
#
# number of rings (size 3 to 8) (size 9 to 14) (size 15 to 20)
#    0.000    0.500    8.750    1.875    0.000    0.500 
#    0.000    2.500    0.000    1.500    0.000    0.000 
#    0.000    0.000    0.000    0.000    0.000    0.000 
#
# Total GULP energy -356786.168461 kJ/mol
# GULP energy per Si atom -5574.783882 kJ/mol
# Density = 2.168383 g / cm^3
# Si number density = 21.733294 Si / 1000 Ang^3
#
#
#
# Elastic Constant Matrix: (Units=GPa)
#
#
# Indices 1 2 3 4 5 6 
#
# 1 45.3781 3.7890 7.8727 0.0000 0.0000 0.0000
# 2 3.7890 75.7791 6.6907 0.0000 0.0000 0.0000
# 3 7.8727 6.6907 122.7756 0.0000 0.0000 0.0000
# 4 0.0000 0.0000 0.0000 23.6965 0.0000 0.0000
# 5 0.0000 0.0000 0.0000 0.0000 19.9021 0.0000
# 6 0.0000 0.0000 0.0000 0.0000 0.0000 15.0139
#
#
#
# Elastic Compliance Matrix: (Units=1/GPa)
#
#
# Indices 1 2 3 4 5 6 
#
# 1 0.022360 -0.000996 -0.001379 0.000000 0.000000 0.000000
# 2 -0.000996 0.013304 -0.000661 0.000000 0.000000 0.000000
# 3 -0.001379 -0.000661 0.008269 0.000000 0.000000 0.000000
# 4 0.000000 0.000000 0.000000 0.042200 0.000000 0.000000
# 5 0.000000 0.000000 0.000000 0.000000 0.050246 0.000000
# 6 0.000000 0.000000 0.000000 0.000000 0.000000 0.066605
#
#
# Mechanical properties :
#
#
# Convention : Reuss Voigt Hill
#
# Bulk Modulus (GPa) = 26.41324 31.18196 28.79760
# Shear Modulus (GPa) = 22.55525 26.76122 24.65824
#
# Velocity S-wave (km/s) = 3.22502 3.51286 3.37201
# Velocity P-wave (km/s) = 5.10366 5.55268 5.33290
#
# Compressibility (1/GPa) = 0.03785980
#
# Stress axis : x y z
#
# Youngs Moduli (GPa) = 44.72362 75.16293 120.92742
#
# Poissons Ratio (x) = 0.07488 0.16682
# Poissons Ratio (y) = 0.04455 0.07995
# Poissons Ratio (z) = 0.06169 0.04969
#
# Static dielectric constant tensor:
#      x y z
#    x 1.792050 0.000000 0.000000 
#    y 0.000000 1.865740 0.000000 
#    z 0.000000 0.000000 1.873130 
# 
# From -- ./inp_files/19849.got.cif
#   From: 2010.05.17/outbox.cif.g08.bks.cpg/sg52_10_cif.got.tgz:19849.got - 2010.06.03 12:15:38.
