data_PCOD9413486
_publ_section_title
;
Structure prediction by ZEFSAII (Michael W. Deem and Ramdas Pophale) SiO2 
 PCOD9413486
Probable space group: P N N A
;
_chemical_formula_sum "Si O2"
_cell_formula_units_Z 64
_cell_length_a 8.535995
_cell_length_b 31.012148
_cell_length_c 11.096954
_cell_angle_alpha 90.000000
_cell_angle_beta 90.000000
_cell_angle_gamma 90.000000
_cell_volume 2937.580561
_symmetry_space_group_name_H-M "P N N A"
_symmetry_group_IT_number 52
_symmetry_cell_setting 'orthorhombic'
loop_
_space_group_symop_operation_xyz
x,y,z
1/2-x,-y,z
x,1/2-y,1/2-z
1/2-x,1/2+y,1/2-z
-x,-y,-z
1/2+x,y,-z
-x,1/2+y,1/2+z
1/2+x,1/2-y,1/2+z
loop_
_atom_site_type_symbol
_atom_site_label
_atom_site_fract_x
_atom_site_fract_y
_atom_site_fract_z
Si Si1 0.184194 0.545691 0.132595
Si Si2 0.835926 0.785732 0.447034
Si Si3 0.766504 0.387156 0.671012
Si Si4 0.888819 0.811519 0.724764
Si Si5 0.277031 0.358749 0.772224
Si Si6 0.451193 0.275089 0.545000
Si Si7 0.561883 0.364893 0.450250
Si Si8 0.193170 0.047189 0.639923
O O1 0.250000 0.500000 0.174703
O O2 0.257964 0.581201 0.218940
O O3 0.995742 0.547531 0.136932
O O4 0.241423 0.550970 0.995971
O O5 0.813988 0.828158 0.367741
O O6 0.704110 0.749996 0.415864
O O7 0.844949 0.798957 0.588471
O O8 0.991185 0.757119 0.439505
O O9 0.754666 0.339277 0.724948
O O10 0.640376 0.387678 0.564354
O O11 0.937428 0.394846 0.616355
O O12 0.044384 0.842244 0.718574
O O13 0.938761 0.780230 0.835931
O O14 0.256369 0.409621 0.795966
O O15 0.196754 0.351030 0.642911
O O16 0.464947 0.322842 0.492216
O O17 0.250000 0.000000 0.686129
#
# Coordination Sequence:
#
# PCOD9413486 Si02
#       8
#     8   8   8   8   8   8   8   8
#     4  11  24  45  74 110 144 181 230 294 367 436
#     4  12  25  41  67 101 136 182 238 301 356 421
#     4  11  24  46  71  99 140 188 236 287 356 429
#     4  11  25  44  67  98 142 187 237 301 358 421
#     4  12  26  43  71 103 141 188 242 299 358 434
#     4  11  24  44  66  93 138 188 239 288 359 411
#     4  11  24  46  69  99 138 194 239 291 349 421
#     4  11  25  45  76 109 146 182 230 298 372 435
#
# _framework density 21.786636999999999
#
# number of rings (size 3 to 8) (size 9 to 14) (size 15 to 20)
#    0.000    0.750    2.500    6.375    7.000    1.500 
#    0.000    1.250    0.000    0.000    0.000    0.000 
#    0.000    0.000    0.000    0.000    0.000    0.000 
#
# Total GULP energy -357302.129408 kJ/mol
# GULP energy per Si atom -5582.845772 kJ/mol
# Density = 2.173705 g / cm^3
# Si number density = 21.786637 Si / 1000 Ang^3
#
#
#
# Elastic Constant Matrix: (Units=GPa)
#
#
# Indices 1 2 3 4 5 6 
#
# 1 64.5128 29.0757 7.8113 0.0000 0.0000 0.0000
# 2 29.0757 97.9717 40.8117 0.0000 0.0000 0.0000
# 3 7.8113 40.8117 68.1752 0.0000 0.0000 0.0000
# 4 0.0000 0.0000 0.0000 28.4065 0.0000 0.0000
# 5 0.0000 0.0000 0.0000 0.0000 33.7630 0.0000
# 6 0.0000 0.0000 0.0000 0.0000 0.0000 28.5556
#
#
#
# Elastic Compliance Matrix: (Units=1/GPa)
#
#
# Indices 1 2 3 4 5 6 
#
# 1 0.018011 -0.005976 0.001514 0.000000 0.000000 0.000000
# 2 -0.005976 0.015581 -0.008642 0.000000 0.000000 0.000000
# 3 0.001514 -0.008642 0.019668 0.000000 0.000000 0.000000
# 4 0.000000 0.000000 0.000000 0.035203 0.000000 0.000000
# 5 0.000000 0.000000 0.000000 0.000000 0.029618 0.000000
# 6 0.000000 0.000000 0.000000 0.000000 0.000000 0.035019
#
#
# Mechanical properties :
#
#
# Convention : Reuss Voigt Hill
#
# Bulk Modulus (GPa) = 36.96755 42.89523 39.93139
# Shear Modulus (GPa) = 26.54969 28.34242 27.44605
#
# Velocity S-wave (km/s) = 3.49466 3.61072 3.55317
# Velocity P-wave (km/s) = 5.76961 6.09218 5.93309
#
# Compressibility (1/GPa) = 0.02705075
#
# Stress axis : x y z
#
# Youngs Moduli (GPa) = 55.52240 64.18251 50.84342
#
# Poissons Ratio (x) = 0.38353 -0.07696
# Poissons Ratio (y) = 0.33178 0.43941
# Poissons Ratio (z) = -0.08404 0.55469
#
# Static dielectric constant tensor:
#      x y z
#    x 1.843730 0.000000 0.000000 
#    y 0.000000 1.750420 0.000000 
#    z 0.000000 0.000000 1.811910 
# 
# From -- ./inp_files/17232.got.cif
#   From: 2010.05.17/outbox.cif.g08.bks.cpg/sg52_9_cif.got.tgz:17232.got - 2010.06.03 12:15:38.
