data_PCOD9413080
_publ_section_title
;
Structure prediction by ZEFSAII (Michael W. Deem and Ramdas Pophale) SiO2 
 PCOD9413080
Probable space group: P N N A
;
_chemical_formula_sum "Si O2"
_cell_formula_units_Z 48
_cell_length_a 16.401500
_cell_length_b 16.367881
_cell_length_c 9.435094
_cell_angle_alpha 90.000000
_cell_angle_beta 90.000000
_cell_angle_gamma 90.000000
_cell_volume 2532.924580
_symmetry_space_group_name_H-M "P N N A"
_symmetry_group_IT_number 52
_symmetry_cell_setting 'orthorhombic'
loop_
_space_group_symop_operation_xyz
x,y,z
1/2-x,-y,z
x,1/2-y,1/2-z
1/2-x,1/2+y,1/2-z
-x,-y,-z
1/2+x,y,-z
-x,1/2+y,1/2+z
1/2+x,1/2-y,1/2+z
loop_
_atom_site_type_symbol
_atom_site_label
_atom_site_fract_x
_atom_site_fract_y
_atom_site_fract_z
Si Si1 0.724187 0.160882 0.324685
Si Si2 0.465751 0.839763 0.676343
Si Si3 0.969046 0.087245 0.947620
Si Si4 0.285224 0.088525 0.948020
Si Si5 0.529690 0.249498 0.591752
Si Si6 0.223644 0.250108 0.092153
O O1 0.723144 0.250000 0.250000
O O2 0.629334 0.133128 0.328941
O O3 0.776113 0.104402 0.220638
O O4 0.755542 0.181381 0.482493
O O5 0.465558 0.750000 0.750000
O O6 0.515341 0.898620 0.780339
O O7 0.499598 0.819490 0.519569
O O8 0.876036 0.095431 0.994339
O O9 0.015819 0.161543 0.024662
O O10 0.000000 0.000000 0.000000
O O11 0.250000 0.000000 0.981604
O O12 0.236010 0.161303 0.023670
O O13 0.494219 0.250000 0.750000
O O14 0.626743 0.235056 0.601008
O O15 0.259191 0.250000 0.250000
#
# Coordination Sequence:
#
# PCOD9413080 Si02
#       6
#     8   8   8   8   8   8
#     4   8  15  31  53  74  99 132 169 208 256 316
#     4   8  15  31  53  74 100 134 169 208 259 316
#     4  11  21  33  51  75 104 139 179 221 265 314
#     4  11  21  33  51  75 104 139 180 223 265 315
#     4   9  18  34  56  80 105 134 170 214 266 325
#     4   9  18  34  56  80 106 136 170 214 268 322
#
# _framework density 18.950426
#
# number of rings (size 3 to 8) (size 9 to 14) (size 15 to 20)
#    0.000    2.667    0.000    5.000    0.000    4.000 
#    0.000    1.667    0.000    0.000    0.000    0.000 
#    0.000    0.000    0.000    0.000    0.000    0.000 
#
# Total GULP energy -267391.665507 kJ/mol
# GULP energy per Si atom -5570.659698 kJ/mol
# Density = 1.890729 g / cm^3
# Si number density = 18.950426 Si / 1000 Ang^3
#
#
#
# Elastic Constant Matrix: (Units=GPa)
#
#
# Indices 1 2 3 4 5 6 
#
# 1 32.9138 1.9197 29.5244 0.0000 0.0000 0.0000
# 2 1.9197 61.8813 45.2852 0.0000 0.0000 0.0000
# 3 29.5244 45.2852 179.2166 0.0000 0.0000 0.0000
# 4 0.0000 0.0000 0.0000 22.5076 0.0000 0.0000
# 5 0.0000 0.0000 0.0000 0.0000 19.7402 0.0000
# 6 0.0000 0.0000 0.0000 0.0000 0.0000 12.9125
#
#
#
# Elastic Compliance Matrix: (Units=1/GPa)
#
#
# Indices 1 2 3 4 5 6 
#
# 1 0.036442 0.004003 -0.007015 0.000000 0.000000 0.000000
# 2 0.004003 0.020266 -0.005780 0.000000 0.000000 0.000000
# 3 -0.007015 -0.005780 0.008196 0.000000 0.000000 0.000000
# 4 0.000000 0.000000 0.000000 0.044430 0.000000 0.000000
# 5 0.000000 0.000000 0.000000 0.000000 0.050658 0.000000
# 6 0.000000 0.000000 0.000000 0.000000 0.000000 0.077444
#
#
# Mechanical properties :
#
#
# Convention : Reuss Voigt Hill
#
# Bulk Modulus (GPa) = 21.13309 47.49668 34.31489
# Shear Modulus (GPa) = 18.46432 24.18422 21.32427
#
# Velocity S-wave (km/s) = 3.12484 3.57625 3.35814
# Velocity P-wave (km/s) = 4.91889 6.49390 5.76048
#
# Compressibility (1/GPa) = 0.04731916
#
# Stress axis : x y z
#
# Youngs Moduli (GPa) = 27.44123 49.34393 122.00930
#
# Poissons Ratio (x) = -0.19753 0.85589
# Poissons Ratio (y) = -0.10985 0.70526
# Poissons Ratio (z) = 0.19250 0.28523
#
# Static dielectric constant tensor:
#      x y z
#    x 1.671090 0.000000 0.000000 
#    y 0.000000 2.099210 0.000000 
#    z 0.000000 0.000000 1.749290 
# 
# From -- ./inp_files/12045.got.cif
#   From: 2010.05.17/outbox.cif.g08.bks.cpg/sg52_7_cif.got.tgz:12045.got - 2010.06.03 12:15:38.
