data_PCOD9413966
_publ_section_title
;
Structure prediction by ZEFSAII (Michael W. Deem and Ramdas Pophale) SiO2 
 PCOD9413966
Probable space group: P N N A
;
_chemical_formula_sum "Si O2"
_cell_formula_units_Z 64
_cell_length_a 9.000000
_cell_length_b 12.000000
_cell_length_c 30.000000
_cell_angle_alpha 90.000000
_cell_angle_beta 90.000000
_cell_angle_gamma 90.000000
_cell_volume 3240.000000
_symmetry_space_group_name_H-M "P N N A"
_symmetry_group_IT_number 52
_symmetry_cell_setting 'orthorhombic'
loop_
_space_group_symop_operation_xyz
x,y,z
1/2-x,-y,z
x,1/2-y,1/2-z
1/2-x,1/2+y,1/2-z
-x,-y,-z
1/2+x,y,-z
-x,1/2+y,1/2+z
1/2+x,1/2-y,1/2+z
loop_
_atom_site_type_symbol
_atom_site_label
_atom_site_fract_x
_atom_site_fract_y
_atom_site_fract_z
Si Si1 0.007903 0.795551 0.858984
Si Si2 0.579654 0.240193 0.047106
Si Si3 0.576436 0.037708 0.110244
Si Si4 0.575738 0.478874 0.088268
Si Si5 0.887627 0.570515 0.222262
Si Si6 0.164338 0.303671 0.685348
Si Si7 0.400785 0.931022 0.325921
Si Si8 0.572573 0.799428 0.455816
O O1 0.167440 0.789914 0.833252
O O2 0.015428 0.745746 0.908616
O O3 0.906131 0.704412 0.831788
O O4 0.988631 0.928001 0.871505
O O5 0.540537 0.119153 0.068344
O O6 0.536583 0.351429 0.075846
O O7 0.756732 0.259215 0.042847
O O8 0.508633 0.252151 0.998689
O O9 0.574813 0.127233 0.149508
O O10 0.750000 0.000000 0.104359
O O11 0.750000 0.500000 0.097004
O O12 0.492112 0.521304 0.131894
O O13 0.549182 0.567079 0.048054
O O14 0.750000 0.500000 0.204860
O O15 0.843106 0.621618 0.270106
O O16 0.905713 0.682653 0.193604
O O17 0.019288 0.481231 0.218259
O O18 0.250000 0.000000 0.327979
#
# Coordination Sequence:
#
# PCOD9413966 Si02
#       8
#     8   8   8   8   8   8   8   8
#     4  10  20  40  58  88 124 163 208 264 318 372
#     4  11  20  35  56  88 119 160 215 266 325 380
#     4  10  19  36  58  85 119 163 204 260 316 365
#     4   9  20  37  61  86 121 166 215 273 322 377
#     4  11  20  35  66 100 115 154 220 262 304 383
#     4  10  20  36  66  91 118 151 214 270 305 362
#     4  11  23  37  63  96 133 164 201 260 335 398
#     4  10  21  34  57  87 119 161 210 274 317 375
#
# _framework density 19.753086
#
# number of rings (size 3 to 8) (size 9 to 14) (size 15 to 20)
#    0.000    1.750    3.750    2.625    1.750    2.500 
#    0.000    0.625   11.000    5.250    0.000    0.000 
#    0.000    0.000    0.000    0.000    0.000    0.000 
#
# Total GULP energy -356307.776732 kJ/mol
# GULP energy per Si atom -5567.309011 kJ/mol
# Density = 1.970813 g / cm^3
# Si number density = 19.753086 Si / 1000 Ang^3
#
#
#
# Elastic Constant Matrix: (Units=GPa)
#
#
# Indices 1 2 3 4 5 6 
#
# 1 16.7546 20.1131 3.8846 0.0000 0.0000 0.0000
# 2 20.1131 137.8941 27.8688 0.0000 0.0000 0.0000
# 3 3.8846 27.8688 67.6226 0.0000 0.0000 0.0000
# 4 0.0000 0.0000 0.0000 -42.5830 0.0000 0.0000
# 5 0.0000 0.0000 0.0000 0.0000 17.2436 0.0000
# 6 0.0000 0.0000 0.0000 0.0000 0.0000 18.5503
#
#
#
# Elastic Compliance Matrix: (Units=1/GPa)
#
#
# Indices 1 2 3 4 5 6 
#
# 1 0.072357 -0.010596 0.000210 0.000000 0.000000 0.000000
# 2 -0.010596 0.009463 -0.003291 0.000000 0.000000 0.000000
# 3 0.000210 -0.003291 0.016132 0.000000 0.000000 0.000000
# 4 0.000000 0.000000 0.000000 -0.023484 0.000000 0.000000
# 5 0.000000 0.000000 0.000000 0.000000 0.057993 0.000000
# 6 0.000000 0.000000 0.000000 0.000000 0.000000 0.053907
#
#
# Mechanical properties :
#
#
# Convention : Reuss Voigt Hill
#
# Bulk Modulus (GPa) = 14.16482 36.22270 25.19376
# Shear Modulus (GPa) = 21.07442 10.00249 15.53846
#
# Velocity S-wave (km/s) = 3.26988 2.25272 2.80774
# Velocity P-wave (km/s) = 4.63062 5.01437 4.82631
#
# Compressibility (1/GPa) = 0.07059743
#
# Stress axis : x y z
#
# Youngs Moduli (GPa) = 13.82044 105.67857 61.98784
#
# Poissons Ratio (x) = 1.11981 -0.01305
# Poissons Ratio (y) = 0.14645 0.20401
# Poissons Ratio (z) = -0.00291 0.34779
#
# Static dielectric constant tensor:
#      x y z
#    x 1.803020 0.000000 0.000000 
#    y 0.000000 1.751590 0.000000 
#    z 0.000000 0.000000 1.746230 
# 
# From -- ./inp_files/44598.got.cif
#   From: 2010.05.17/outbox.ucp.g08.bks.cvg/sg52_23_cif.got.tgz:44598.got - 2010.06.11 16:30:12.
