data_PCOD9413610
_publ_section_title
;
Structure prediction by ZEFSAII (Michael W. Deem and Ramdas Pophale) SiO2 
 PCOD9413610
Probable space group: P N N A
;
_chemical_formula_sum "Si O2"
_cell_formula_units_Z 24
_cell_length_a 7.854718
_cell_length_b 7.119163
_cell_length_c 16.578058
_cell_angle_alpha 90.000000
_cell_angle_beta 90.000000
_cell_angle_gamma 90.000000
_cell_volume 927.028720
_symmetry_space_group_name_H-M "P N N A"
_symmetry_group_IT_number 52
_symmetry_cell_setting 'orthorhombic'
loop_
_space_group_symop_operation_xyz
x,y,z
1/2-x,-y,z
x,1/2-y,1/2-z
1/2-x,1/2+y,1/2-z
-x,-y,-z
1/2+x,y,-z
-x,1/2+y,1/2+z
1/2+x,1/2-y,1/2+z
loop_
_atom_site_type_symbol
_atom_site_label
_atom_site_fract_x
_atom_site_fract_y
_atom_site_fract_z
Si Si1 0.962896 0.250000 0.250000
Si Si2 0.833072 0.290234 0.921020
Si Si3 0.750000 0.500000 0.712372
Si Si4 0.768040 0.722903 0.098112
O O1 0.078517 0.441636 0.240095
O O2 0.842734 0.207866 0.173205
O O3 0.750000 0.500000 0.922659
O O4 0.751780 0.175064 0.848416
O O5 0.030680 0.255363 0.903151
O O6 0.802679 0.214164 0.011331
O O7 0.750000 0.500000 0.101596
#
# Coordination Sequence:
#
# PCOD9413610 Si02
#       4
#     4   8   4   8
#     4  12  30  46  76 116 154 202 248 332 382 448
#     4  11  25  52  81 108 152 207 254 309 370 469
#     4  12  30  50  78 108 158 200 258 308 394 446
#     4  11  25  47  78 115 152 198 258 311 384 446
#
# _framework density 25.889165999999999
#
# number of rings (size 3 to 8) (size 9 to 14) (size 15 to 20)
#    0.000    0.667    0.000    8.000   11.667    5.333 
#    3.000    0.000    0.000    0.000    0.000    0.000 
#    0.000    0.000    0.000    0.000    0.000    0.000 
#
# Total GULP energy -134253.787516 kJ/mol
# GULP energy per Si atom -5593.907813 kJ/mol
# Density = 2.583024 g / cm^3
# Si number density = 25.889166 Si / 1000 Ang^3
#
#
#
# Elastic Constant Matrix: (Units=GPa)
#
#
# Indices 1 2 3 4 5 6 
#
# 1 158.5917 34.6112 101.7214 0.0000 0.0000 0.0000
# 2 34.6112 100.1773 26.1768 0.0000 0.0000 0.0000
# 3 101.7214 26.1768 172.9757 0.0000 0.0000 0.0000
# 4 0.0000 0.0000 0.0000 -0.5017 0.0000 0.0000
# 5 0.0000 0.0000 0.0000 0.0000 48.4954 0.0000
# 6 0.0000 0.0000 0.0000 0.0000 0.0000 32.0432
#
#
#
# Elastic Compliance Matrix: (Units=1/GPa)
#
#
# Indices 1 2 3 4 5 6 
#
# 1 0.010534 -0.002104 -0.005876 0.000000 0.000000 0.000000
# 2 -0.002104 0.010814 -0.000399 0.000000 0.000000 0.000000
# 3 -0.005876 -0.000399 0.009297 0.000000 0.000000 0.000000
# 4 0.000000 0.000000 0.000000 -1.993125 0.000000 0.000000
# 5 0.000000 0.000000 0.000000 0.000000 0.020620 0.000000
# 6 0.000000 0.000000 0.000000 0.000000 0.000000 0.031208
#
#
# Mechanical properties :
#
#
# Convention : Reuss Voigt Hill
#
# Bulk Modulus (GPa) = 72.01571 84.08481 78.05026
# Shear Modulus (GPa) = -2.64653 33.95640 15.65493
#
# Velocity S-wave (km/s) = -1.01216 3.62554 2.46171
# Velocity P-wave (km/s) = 5.14892 7.07639 6.18816
#
# Compressibility (1/GPa) = 0.01388586
#
# Stress axis : x y z
#
# Youngs Moduli (GPa) = 94.93433 92.47688 107.56049
#
# Poissons Ratio (x) = 0.19456 0.63203
# Poissons Ratio (y) = 0.19973 0.04294
# Poissons Ratio (z) = 0.55784 0.03692
#
# Static dielectric constant tensor:
#      x y z
#    x 2.020770 0.000000 0.000000 
#    y 0.000000 2.089950 0.000000 
#    z 0.000000 0.000000 2.064820 
# 
# From -- ./inp_files/30719.got.cif
#   From: 2010.05.17/outbox.cif.g08.bks.cpg/sg52_16_cif.got.tgz:30719.got - 2010.06.03 12:15:38.
