data_PCOD9413544
_publ_section_title
;
Structure prediction by ZEFSAII (Michael W. Deem and Ramdas Pophale) SiO2 
 PCOD9413544
Probable space group: P N N A
;
_chemical_formula_sum "Si O2"
_cell_formula_units_Z 32
_cell_length_a 4.969555
_cell_length_b 8.035762
_cell_length_c 35.144090
_cell_angle_alpha 90.000000
_cell_angle_beta 90.000000
_cell_angle_gamma 90.000000
_cell_volume 1403.449756
_symmetry_space_group_name_H-M "P N N A"
_symmetry_group_IT_number 52
_symmetry_cell_setting 'orthorhombic'
loop_
_space_group_symop_operation_xyz
x,y,z
1/2-x,-y,z
x,1/2-y,1/2-z
1/2-x,1/2+y,1/2-z
-x,-y,-z
1/2+x,y,-z
-x,1/2+y,1/2+z
1/2+x,1/2-y,1/2+z
loop_
_atom_site_type_symbol
_atom_site_label
_atom_site_fract_x
_atom_site_fract_y
_atom_site_fract_z
Si Si1 0.101138 0.250000 0.250000
Si Si2 0.750000 0.000000 0.127885
Si Si3 0.250000 0.500000 0.313972
Si Si4 0.940950 0.166487 0.408044
Si Si5 0.750000 0.500000 0.202475
Si Si6 0.250000 0.000000 0.471406
Si Si7 0.750000 0.500000 0.844880
O O1 0.253595 0.348091 0.283345
O O2 0.906122 0.373562 0.228350
O O3 0.501462 0.005856 0.157411
O O4 0.783077 0.163121 0.100514
O O5 0.750000 0.000000 0.411392
O O6 0.122820 0.140888 0.370914
O O7 0.154305 0.148408 0.442762
O O8 0.507772 0.430841 0.177099
O O9 0.500000 0.000000 0.500000
#
# Coordination Sequence:
#
# PCOD9413544 Si02
#       7
#     4   4   4   8   4   4   4
#     4  12  30  48  68 102 146 194 258 318 396 472
#     4  12  31  48  76 119 147 194 268 328 381 447
#     4  12  31  50  73 105 148 198 258 328 396 467
#     4  11  26  47  80 112 153 198 251 315 371 457
#     4  12  27  45  70  95 140 190 248 314 386 459
#     4  11  24  47  81 118 159 208 242 290 381 470
#     4  11  25  42  72  99 132 198 242 306 386 431
#
# _framework density 22.800957
#
# number of rings (size 3 to 8) (size 9 to 14) (size 15 to 20)
#    0.000    0.500    2.500    3.000   10.500   11.000 
#    0.000    1.250    0.000    0.000    0.000    0.000 
#    0.000    0.000    0.000    0.000    0.000    0.000 
#
# Total GULP energy -178747.310653 kJ/mol
# GULP energy per Si atom -5585.853458 kJ/mol
# Density = 2.274906 g / cm^3
# Si number density = 22.800957 Si / 1000 Ang^3
#
#
#
# Elastic Constant Matrix: (Units=GPa)
#
#
# Indices 1 2 3 4 5 6 
#
# 1 172.5463 48.5493 68.3865 0.0000 0.0000 0.0000
# 2 48.5493 150.2653 67.3703 0.0000 0.0000 0.0000
# 3 68.3865 67.3703 146.1882 0.0000 0.0000 0.0000
# 4 0.0000 0.0000 0.0000 9.0309 0.0000 0.0000
# 5 0.0000 0.0000 0.0000 0.0000 51.6471 0.0000
# 6 0.0000 0.0000 0.0000 0.0000 0.0000 41.0561
#
#
#
# Elastic Compliance Matrix: (Units=1/GPa)
#
#
# Indices 1 2 3 4 5 6 
#
# 1 0.007240 -0.001034 -0.002910 0.000000 0.000000 0.000000
# 2 -0.001034 0.008536 -0.003450 0.000000 0.000000 0.000000
# 3 -0.002910 -0.003450 0.009792 0.000000 0.000000 0.000000
# 4 0.000000 0.000000 0.000000 0.110730 0.000000 0.000000
# 5 0.000000 0.000000 0.000000 0.000000 0.019362 0.000000
# 6 0.000000 0.000000 0.000000 0.000000 0.000000 0.024357
#
#
# Mechanical properties :
#
#
# Convention : Reuss Voigt Hill
#
# Bulk Modulus (GPa) = 92.77513 93.06801 92.92157
# Shear Modulus (GPa) = 25.20178 39.32638 32.26408
#
# Velocity S-wave (km/s) = 3.32820 4.15754 3.76577
# Velocity P-wave (km/s) = 7.45297 7.99706 7.72981
#
# Compressibility (1/GPa) = 0.01077875
#
# Stress axis : x y z
#
# Youngs Moduli (GPa) = 138.12145 117.15362 102.12753
#
# Poissons Ratio (x) = 0.12119 0.29721
# Poissons Ratio (y) = 0.14288 0.35232
# Poissons Ratio (z) = 0.40195 0.40416
#
# Static dielectric constant tensor:
#      x y z
#    x 1.871110 0.000000 0.000000 
#    y 0.000000 1.925610 0.000000 
#    z 0.000000 0.000000 2.003820 
# 
# From -- ./inp_files/43542.got.cif
#   From: 2010.05.17/outbox.cif.g08.bks.cpg/sg52_22_cif.got.tgz:43542.got - 2010.06.03 12:15:38.
