data_PCOD9413318
_publ_section_title
;
Structure prediction by ZEFSAII (Michael W. Deem and Ramdas Pophale) SiO2 
 PCOD9413318
Probable space group: P N N A
;
_chemical_formula_sum "Si O2"
_cell_formula_units_Z 44
_cell_length_a 8.925442
_cell_length_b 22.107418
_cell_length_c 10.371483
_cell_angle_alpha 90.000000
_cell_angle_beta 90.000000
_cell_angle_gamma 90.000000
_cell_volume 2046.485231
_symmetry_space_group_name_H-M "P N N A"
_symmetry_group_IT_number 52
_symmetry_cell_setting 'orthorhombic'
loop_
_space_group_symop_operation_xyz
x,y,z
1/2-x,-y,z
x,1/2-y,1/2-z
1/2-x,1/2+y,1/2-z
-x,-y,-z
1/2+x,y,-z
-x,1/2+y,1/2+z
1/2+x,1/2-y,1/2+z
loop_
_atom_site_type_symbol
_atom_site_label
_atom_site_fract_x
_atom_site_fract_y
_atom_site_fract_z
Si Si1 0.852393 0.750000 0.750000
Si Si2 0.325580 0.073836 0.988989
Si Si3 0.942025 0.966518 0.160028
Si Si4 0.663595 0.134780 0.342820
Si Si5 0.371979 0.305613 0.623062
Si Si6 0.144792 0.685553 0.044547
O O1 0.750202 0.710793 0.843768
O O2 0.965131 0.701655 0.685382
O O3 0.151842 0.064915 0.957949
O O4 0.367910 0.143193 0.984489
O O5 0.396998 0.036036 0.866449
O O6 0.388292 0.046039 0.120081
O O7 0.890463 0.929572 0.284530
O O8 0.746782 0.171740 0.226172
O O9 0.517264 0.169224 0.398318
O O10 0.780616 0.131861 0.461070
O O11 0.352557 0.241065 0.556751
#
# Coordination Sequence:
#
# PCOD9413318 Si02
#       6
#     4   8   8   8   8   8
#     4  12  26  36  60  90 124 168 206 252 312 386
#     4   9  20  36  61  93 122 157 213 251 322 369
#     4   9  20  38  63  91 123 164 202 272 309 373
#     4  11  23  42  63  88 135 167 212 266 320 379
#     4  11  23  40  59  89 130 164 204 266 310 385
#     4  12  25  38  59  95 127 171 212 251 324 394
#
# _framework density 21.500277000000001
#
# number of rings (size 3 to 8) (size 9 to 14) (size 15 to 20)
#    0.000    1.455    3.636    0.000   10.182    0.000 
#    0.000    0.000    0.000   27.273    0.000    0.000 
#    0.000    0.000    0.000    0.000    0.000    0.000 
#
# Total GULP energy -245235.730265 kJ/mol
# GULP energy per Si atom -5573.539324 kJ/mol
# Density = 2.145134 g / cm^3
# Si number density = 21.500277 Si / 1000 Ang^3
#
#
#
# Elastic Constant Matrix: (Units=GPa)
#
#
# Indices 1 2 3 4 5 6 
#
# 1 97.9199 -8.3255 24.6296 0.0000 0.0000 0.0000
# 2 -8.3255 58.6075 1.2044 0.0000 0.0000 0.0000
# 3 24.6296 1.2044 60.0114 0.0000 0.0000 0.0000
# 4 0.0000 0.0000 0.0000 29.5691 0.0000 0.0000
# 5 0.0000 0.0000 0.0000 0.0000 32.7233 0.0000
# 6 0.0000 0.0000 0.0000 0.0000 0.0000 0.1827
#
#
#
# Elastic Compliance Matrix: (Units=1/GPa)
#
#
# Indices 1 2 3 4 5 6 
#
# 1 0.011563 0.001741 -0.004781 0.000000 0.000000 0.000000
# 2 0.001741 0.017332 -0.001062 0.000000 0.000000 0.000000
# 3 -0.004781 -0.001062 0.018647 0.000000 0.000000 0.000000
# 4 0.000000 0.000000 0.000000 0.033819 0.000000 0.000000
# 5 0.000000 0.000000 0.000000 0.000000 0.030559 0.000000
# 6 0.000000 0.000000 0.000000 0.000000 0.000000 5.474887
#
#
# Mechanical properties :
#
#
# Convention : Reuss Voigt Hill
#
# Bulk Modulus (GPa) = 25.42105 27.95063 26.68584
# Shear Modulus (GPa) = 0.89156 25.76372 13.32764
#
# Velocity S-wave (km/s) = 0.64465 3.46540 2.49244
# Velocity P-wave (km/s) = 3.52184 5.38891 4.55213
#
# Compressibility (1/GPa) = 0.03933748
#
# Stress axis : x y z
#
# Youngs Moduli (GPa) = 86.48372 57.69749 53.62846
#
# Poissons Ratio (x) = -0.10044 0.25637
# Poissons Ratio (y) = -0.15055 0.05697
# Poissons Ratio (z) = 0.41344 0.06129
#
# Static dielectric constant tensor:
#      x y z
#    x 1.835580 0.000000 0.000000 
#    y 0.000000 1.832360 0.000000 
#    z 0.000000 0.000000 1.901070 
# 
# From -- ./inp_files/16958.got.cif
#   From: 2010.05.17/outbox.cif.g08.bks.cpg/sg52_9_cif.got.tgz:16958.got - 2010.06.03 12:15:38.
