data_PCOD9413710
_publ_section_title
;
Structure prediction by ZEFSAII (Michael W. Deem and Ramdas Pophale) SiO2 
 PCOD9413710
Probable space group: P N N A
;
_chemical_formula_sum "Si O2"
_cell_formula_units_Z 40
_cell_length_a 5.285718
_cell_length_b 14.262456
_cell_length_c 21.828137
_cell_angle_alpha 90.000000
_cell_angle_beta 90.000000
_cell_angle_gamma 90.000000
_cell_volume 1645.564758
_symmetry_space_group_name_H-M "P N N A"
_symmetry_group_IT_number 52
_symmetry_cell_setting 'orthorhombic'
loop_
_space_group_symop_operation_xyz
x,y,z
1/2-x,-y,z
x,1/2-y,1/2-z
1/2-x,1/2+y,1/2-z
-x,-y,-z
1/2+x,y,-z
-x,1/2+y,1/2+z
1/2+x,1/2-y,1/2+z
loop_
_atom_site_type_symbol
_atom_site_label
_atom_site_fract_x
_atom_site_fract_y
_atom_site_fract_z
Si Si1 0.494116 0.945672 0.836499
Si Si2 0.124550 0.250000 0.250000
Si Si3 0.515779 0.391368 0.196366
Si Si4 0.379493 0.805365 0.464323
Si Si5 0.684482 0.724680 0.354040
Si Si6 0.750000 0.000000 0.592991
O O1 0.476213 0.940662 0.762206
O O2 0.431696 0.840277 0.860483
O O3 0.250000 0.000000 0.860882
O O4 0.750000 0.000000 0.853775
O O5 0.293859 0.316209 0.208011
O O6 0.972446 0.316171 0.296719
O O7 0.742831 0.325631 0.174307
O O8 0.453207 0.457267 0.139972
O O9 0.085706 0.789178 0.481641
O O10 0.503540 0.742668 0.410976
O O11 0.373544 0.915237 0.445100
#
# Coordination Sequence:
#
# PCOD9413710 Si02
#       6
#     8   4   8   8   8   4
#     4  12  26  42  69 108 151 179 240 305 381 465
#     4  12  20  44  66 104 142 198 238 294 372 462
#     4  12  24  38  67 105 153 194 229 292 369 457
#     4  12  29  51  73 102 146 206 261 306 356 443
#     4  12  26  44  71 102 147 197 246 305 381 445
#     4  12  26  44  72 108 154 196 252 304 364 428
#
# _framework density 24.307763999999999
#
# number of rings (size 3 to 8) (size 9 to 14) (size 15 to 20)
#    0.000    0.000    7.000    3.000    2.800    1.600 
#    0.000    0.000    0.000    3.600    0.000    0.000 
#    0.000    0.000    0.000    0.000    0.000    0.000 
#
# Total GULP energy -223686.007038 kJ/mol
# GULP energy per Si atom -5592.150176 kJ/mol
# Density = 2.425244 g / cm^3
# Si number density = 24.307764 Si / 1000 Ang^3
#
#
#
# Elastic Constant Matrix: (Units=GPa)
#
#
# Indices 1 2 3 4 5 6 
#
# 1 125.4539 41.1305 16.6496 0.0000 0.0000 0.0000
# 2 41.1305 80.2727 21.1529 0.0000 0.0000 0.0000
# 3 16.6496 21.1529 69.3397 0.0000 0.0000 0.0000
# 4 0.0000 0.0000 0.0000 41.4463 0.0000 0.0000
# 5 0.0000 0.0000 0.0000 0.0000 46.1970 0.0000
# 6 0.0000 0.0000 0.0000 0.0000 0.0000 50.1768
#
#
#
# Elastic Compliance Matrix: (Units=1/GPa)
#
#
# Indices 1 2 3 4 5 6 
#
# 1 0.009629 -0.004703 -0.000878 0.000000 0.000000 0.000000
# 2 -0.004703 0.015843 -0.003704 0.000000 0.000000 0.000000
# 3 -0.000878 -0.003704 0.015762 0.000000 0.000000 0.000000
# 4 0.000000 0.000000 0.000000 0.024128 0.000000 0.000000
# 5 0.000000 0.000000 0.000000 0.000000 0.021646 0.000000
# 6 0.000000 0.000000 0.000000 0.000000 0.000000 0.019930
#
#
# Mechanical properties :
#
#
# Convention : Reuss Voigt Hill
#
# Bulk Modulus (GPa) = 44.11793 48.10360 46.11077
# Shear Modulus (GPa) = 37.57640 40.63959 39.10800
#
# Velocity S-wave (km/s) = 3.93601 4.09329 4.01542
# Velocity P-wave (km/s) = 6.23260 6.49403 6.36466
#
# Compressibility (1/GPa) = 0.02266652
#
# Stress axis : x y z
#
# Youngs Moduli (GPa) = 103.84968 63.11880 63.44207
#
# Poissons Ratio (x) = 0.29683 0.05567
# Poissons Ratio (y) = 0.48837 0.23499
# Poissons Ratio (z) = 0.09113 0.23379
#
# Static dielectric constant tensor:
#      x y z
#    x 2.163840 0.000000 0.000000 
#    y 0.000000 2.034150 0.000000 
#    z 0.000000 0.000000 1.920040 
# 
# From -- ./inp_files/38679.got.cif
#   From: 2010.05.17/outbox.cif.g08.bks.cpg/sg52_20_cif.got.tgz:38679.got - 2010.06.03 12:15:38.
