data_PCOD9413241
_publ_section_title
;
Structure prediction by ZEFSAII (Michael W. Deem and Ramdas Pophale) SiO2 
 PCOD9413241
Probable space group: P N N A
;
_chemical_formula_sum "Si O2"
_cell_formula_units_Z 64
_cell_length_a 8.671801
_cell_length_b 30.022137
_cell_length_c 11.880726
_cell_angle_alpha 90.000000
_cell_angle_beta 90.000000
_cell_angle_gamma 90.000000
_cell_volume 3093.099463
_symmetry_space_group_name_H-M "P N N A"
_symmetry_group_IT_number 52
_symmetry_cell_setting 'orthorhombic'
loop_
_space_group_symop_operation_xyz
x,y,z
1/2-x,-y,z
x,1/2-y,1/2-z
1/2-x,1/2+y,1/2-z
-x,-y,-z
1/2+x,y,-z
-x,1/2+y,1/2+z
1/2+x,1/2-y,1/2+z
loop_
_atom_site_type_symbol
_atom_site_label
_atom_site_fract_x
_atom_site_fract_y
_atom_site_fract_z
Si Si1 0.399065 0.831218 0.675595
Si Si2 0.588754 0.270971 0.864003
Si Si3 0.566421 0.753688 0.914031
Si Si4 0.564855 0.650262 0.194335
Si Si5 0.229480 0.447776 0.158081
Si Si6 0.525764 0.642213 0.596993
Si Si7 0.007943 0.905343 0.490715
Si Si8 0.126511 0.110175 0.122166
O O1 0.489166 0.784466 0.664306
O O2 0.219529 0.821355 0.693593
O O3 0.452921 0.861538 0.779717
O O4 0.433385 0.861715 0.567323
O O5 0.530123 0.250000 0.750000
O O6 0.752473 0.249316 0.890054
O O7 0.590941 0.323568 0.841523
O O8 0.470919 0.264072 0.962979
O O9 0.506343 0.804295 0.920372
O O10 0.517801 0.633932 0.316494
O O11 0.598094 0.613310 0.100353
O O12 0.250000 0.500000 0.176110
O O13 0.386131 0.427358 0.104854
O O14 0.171926 0.425837 0.277573
O O15 0.110905 0.437678 0.055052
O O16 0.443181 0.609895 0.505878
O O17 0.708890 0.633841 0.603863
#
# Coordination Sequence:
#
# PCOD9413241 Si02
#       8
#     8   8   8   8   8   8   8   8
#     4  12  23  39  66  96 135 181 233 279 336 398
#     4  12  25  40  59  88 133 181 235 298 336 385
#     4  12  25  39  61  93 131 184 242 288 324 393
#     4  11  23  39  63  95 131 177 224 274 341 404
#     4  11  24  46  76 107 135 168 221 286 356 436
#     4  12  24  44  63  92 136 189 234 281 332 396
#     4  11  22  41  69 102 135 170 207 279 356 413
#     4  11  25  44  71  93 137 183 227 280 349 413
#
# _framework density 20.691219
#
# number of rings (size 3 to 8) (size 9 to 14) (size 15 to 20)
#    0.000    0.500    3.750    6.000    1.750    2.000 
#    0.000    1.250    0.000    0.000    0.000    0.000 
#    0.000    0.000    0.000    0.000    0.000    0.000 
#
# Total GULP energy -356451.004658 kJ/mol
# GULP energy per Si atom -5569.546948 kJ/mol
# Density = 2.064412 g / cm^3
# Si number density = 20.691219 Si / 1000 Ang^3
#
#
#
# Elastic Constant Matrix: (Units=GPa)
#
#
# Indices 1 2 3 4 5 6 
#
# 1 82.3693 19.2171 22.9761 0.0000 0.0000 0.0000
# 2 19.2171 62.9170 21.3577 0.0000 0.0000 0.0000
# 3 22.9761 21.3577 138.4195 0.0000 0.0000 0.0000
# 4 0.0000 0.0000 0.0000 22.1312 0.0000 0.0000
# 5 0.0000 0.0000 0.0000 0.0000 31.9655 0.0000
# 6 0.0000 0.0000 0.0000 0.0000 0.0000 12.7954
#
#
#
# Elastic Compliance Matrix: (Units=1/GPa)
#
#
# Indices 1 2 3 4 5 6 
#
# 1 0.013434 -0.003531 -0.001685 0.000000 0.000000 0.000000
# 2 -0.003531 0.017701 -0.002145 0.000000 0.000000 0.000000
# 3 -0.001685 -0.002145 0.007835 0.000000 0.000000 0.000000
# 4 0.000000 0.000000 0.000000 0.045185 0.000000 0.000000
# 5 0.000000 0.000000 0.000000 0.000000 0.031284 0.000000
# 6 0.000000 0.000000 0.000000 0.000000 0.000000 0.078153
#
#
# Mechanical properties :
#
#
# Convention : Reuss Voigt Hill
#
# Bulk Modulus (GPa) = 41.24167 45.64530 43.44348
# Shear Modulus (GPa) = 23.10569 28.05542 25.58056
#
# Velocity S-wave (km/s) = 3.34532 3.68626 3.51992
# Velocity P-wave (km/s) = 5.90735 6.34241 6.12874
#
# Compressibility (1/GPa) = 0.02424732
#
# Stress axis : x y z
#
# Youngs Moduli (GPa) = 74.43601 56.49501 127.63093
#
# Poissons Ratio (x) = 0.19950 0.21507
# Poissons Ratio (y) = 0.26286 0.27377
# Poissons Ratio (z) = 0.12543 0.12118
#
# Static dielectric constant tensor:
#      x y z
#    x 1.771860 0.000000 0.000000 
#    y 0.000000 1.762210 0.000000 
#    z 0.000000 0.000000 1.786050 
# 
# From -- ./inp_files/17238.got.cif
#   From: 2010.05.17/outbox.cif.g08.bks.cpg/sg52_9_cif.got.tgz:17238.got - 2010.06.03 12:15:38.
