data_PCOD9413957
_publ_section_title
;
Structure prediction by ZEFSAII (Michael W. Deem and Ramdas Pophale) SiO2 
 PCOD9413957
Probable space group: P N N A
;
_chemical_formula_sum "Si O2"
_cell_formula_units_Z 36
_cell_length_a 9.000000
_cell_length_b 15.000000
_cell_length_c 15.000000
_cell_angle_alpha 90.000000
_cell_angle_beta 90.000000
_cell_angle_gamma 90.000000
_cell_volume 2025.000000
_symmetry_space_group_name_H-M "P N N A"
_symmetry_group_IT_number 52
_symmetry_cell_setting 'orthorhombic'
loop_
_space_group_symop_operation_xyz
x,y,z
1/2-x,-y,z
x,1/2-y,1/2-z
1/2-x,1/2+y,1/2-z
-x,-y,-z
1/2+x,y,-z
-x,1/2+y,1/2+z
1/2+x,1/2-y,1/2+z
loop_
_atom_site_type_symbol
_atom_site_label
_atom_site_fract_x
_atom_site_fract_y
_atom_site_fract_z
Si Si1 0.466910 0.754763 0.896222
Si Si2 0.416449 0.580186 0.310494
Si Si3 0.750000 0.000000 0.976778
Si Si4 0.861521 0.179163 0.073002
Si Si5 0.415797 0.386951 0.245012
O O1 0.287829 0.763610 0.906524
O O2 0.528164 0.666121 0.843604
O O3 0.514962 0.834253 0.829021
O O4 0.543943 0.773909 0.992719
O O5 0.369728 0.539866 0.407349
O O6 0.537870 0.654069 0.339841
O O7 0.461227 0.491674 0.253761
O O8 0.264131 0.615556 0.263138
O O9 0.694113 0.916859 0.034703
#
# Coordination Sequence:
#
# PCOD9413957 Si02
#       5
#     8   8   4   8   8
#     4  11  20  33  52  84 122 148 186 244 287 338
#     4  10  18  35  58  80 112 162 184 229 295 363
#     4  10  16  28  52  90 112 142 182 228 280 356
#     4  12  19  31  57  87 116 147 192 239 293 341
#     4   9  20  36  52  79 120 156 185 235 296 348
#
# _framework density 17.777778000000001
#
# number of rings (size 3 to 8) (size 9 to 14) (size 15 to 20)
#    0.000    1.778    6.667    2.000    0.000    0.000 
#    0.000    8.889    0.000    5.333    0.000    0.000 
#    0.000    5.333    0.000    0.000    0.000    0.000 
#
# Total GULP energy -200704.284767 kJ/mol
# GULP energy per Si atom -5575.119021 kJ/mol
# Density = 1.773731 g / cm^3
# Si number density = 17.777778 Si / 1000 Ang^3
#
#
#
# Elastic Constant Matrix: (Units=GPa)
#
#
# Indices 1 2 3 4 5 6 
#
# 1 123.2787 53.4793 51.0764 0.0000 0.0000 0.0000
# 2 53.4793 64.0132 43.7077 0.0000 0.0000 0.0000
# 3 51.0764 43.7077 68.2497 0.0000 0.0000 0.0000
# 4 0.0000 0.0000 0.0000 46.8033 0.0000 0.0000
# 5 0.0000 0.0000 0.0000 0.0000 19.7468 0.0000
# 6 0.0000 0.0000 0.0000 0.0000 0.0000 27.0934
#
#
#
# Elastic Compliance Matrix: (Units=1/GPa)
#
#
# Indices 1 2 3 4 5 6 
#
# 1 0.013684 -0.007890 -0.005188 0.000000 0.000000 0.000000
# 2 -0.007890 0.032310 -0.014787 0.000000 0.000000 0.000000
# 3 -0.005188 -0.014787 0.028004 0.000000 0.000000 0.000000
# 4 0.000000 0.000000 0.000000 0.021366 0.000000 0.000000
# 5 0.000000 0.000000 0.000000 0.000000 0.050641 0.000000
# 6 0.000000 0.000000 0.000000 0.000000 0.000000 0.036909
#
#
# Mechanical properties :
#
#
# Convention : Reuss Voigt Hill
#
# Bulk Modulus (GPa) = 54.73897 61.34094 58.03995
# Shear Modulus (GPa) = 20.43046 25.88058 23.15552
#
# Velocity S-wave (km/s) = 3.39368 3.81961 3.61293
# Velocity P-wave (km/s) = 6.79806 7.35063 7.07974
#
# Compressibility (1/GPa) = 0.01826852
#
# Stress axis : x y z
#
# Youngs Moduli (GPa) = 73.07923 30.95063 35.70888
#
# Poissons Ratio (x) = 0.24419 0.18526
# Poissons Ratio (y) = 0.57657 0.52802
# Poissons Ratio (z) = 0.37913 0.45766
#
# Static dielectric constant tensor:
#      x y z
#    x 1.678280 0.000000 0.000000 
#    y 0.000000 1.637660 0.000000 
#    z 0.000000 0.000000 1.603760 
# 
# From -- ./inp_files/24319.got.cif
#   From: 2010.05.17/outbox.ucp.g08.bks.cvg/sg52_13_cif.got.tgz:24319.got - 2010.06.11 16:30:12.
