data_PCOD9413533
_publ_section_title
;
Structure prediction by ZEFSAII (Michael W. Deem and Ramdas Pophale) SiO2 
 PCOD9413533
Probable space group: P N N A
;
_chemical_formula_sum "Si O2"
_cell_formula_units_Z 40
_cell_length_a 17.421427
_cell_length_b 17.915018
_cell_length_c 5.434818
_cell_angle_alpha 90.000000
_cell_angle_beta 90.000000
_cell_angle_gamma 90.000000
_cell_volume 1696.234841
_symmetry_space_group_name_H-M "P N N A"
_symmetry_group_IT_number 52
_symmetry_cell_setting 'orthorhombic'
loop_
_space_group_symop_operation_xyz
x,y,z
1/2-x,-y,z
x,1/2-y,1/2-z
1/2-x,1/2+y,1/2-z
-x,-y,-z
1/2+x,y,-z
-x,1/2+y,1/2+z
1/2+x,1/2-y,1/2+z
loop_
_atom_site_type_symbol
_atom_site_label
_atom_site_fract_x
_atom_site_fract_y
_atom_site_fract_z
Si Si1 0.053656 0.570704 0.499715
Si Si2 0.272522 0.914352 0.769490
Si Si3 0.309670 0.381422 0.241385
Si Si4 0.428359 0.175875 0.594637
Si Si5 0.568532 0.164645 0.268311
O O1 0.996935 0.638727 0.423638
O O2 0.000000 0.500000 0.500000
O O3 0.125073 0.557816 0.317187
O O4 0.089533 0.600580 0.752130
O O5 0.243131 0.898519 0.491850
O O6 0.362067 0.892694 0.755787
O O7 0.250000 0.000000 0.821403
O O8 0.237228 0.868995 0.005606
O O9 0.368546 0.320859 0.129831
O O10 0.417928 0.250000 0.750000
O O11 0.516192 0.164953 0.511950
O O12 0.596477 0.250000 0.250000
#
# Coordination Sequence:
#
# PCOD9413533 Si02
#       5
#     8   8   8   8   8
#     4  11  24  46  79 110 143 191 253 311 374 450
#     4  12  27  48  73 107 155 201 250 309 380 453
#     4  11  26  47  70 109 146 196 247 306 373 443
#     4  11  24  47  78 108 148 191 256 314 379 448
#     4  11  26  44  72 108 149 195 249 311 379 451
#
# _framework density 23.581641000000001
#
# number of rings (size 3 to 8) (size 9 to 14) (size 15 to 20)
#    0.000    0.800    4.000    1.800    5.600    2.400 
#    3.600    0.000    0.000    0.000    0.000    0.000 
#    0.000    0.000    0.000    0.000    0.000    0.000 
#
# Total GULP energy -223102.979113 kJ/mol
# GULP energy per Si atom -5577.574478 kJ/mol
# Density = 2.352797 g / cm^3
# Si number density = 23.581641 Si / 1000 Ang^3
#
#
#
# Elastic Constant Matrix: (Units=GPa)
#
#
# Indices 1 2 3 4 5 6 
#
# 1 130.8464 2.8626 51.2683 0.0000 0.0000 0.0000
# 2 2.8626 71.7176 23.4974 0.0000 0.0000 0.0000
# 3 51.2683 23.4974 147.8449 0.0000 0.0000 0.0000
# 4 0.0000 0.0000 0.0000 26.8463 0.0000 0.0000
# 5 0.0000 0.0000 0.0000 0.0000 46.2479 0.0000
# 6 0.0000 0.0000 0.0000 0.0000 0.0000 17.0160
#
#
#
# Elastic Compliance Matrix: (Units=1/GPa)
#
#
# Indices 1 2 3 4 5 6 
#
# 1 0.008876 0.000690 -0.003188 0.000000 0.000000 0.000000
# 2 0.000690 0.014763 -0.002586 0.000000 0.000000 0.000000
# 3 -0.003188 -0.002586 0.008280 0.000000 0.000000 0.000000
# 4 0.000000 0.000000 0.000000 0.037249 0.000000 0.000000
# 5 0.000000 0.000000 0.000000 0.000000 0.021623 0.000000
# 6 0.000000 0.000000 0.000000 0.000000 0.000000 0.058768
#
#
# Mechanical properties :
#
#
# Convention : Reuss Voigt Hill
#
# Bulk Modulus (GPa) = 45.97011 56.18503 51.07757
# Shear Modulus (GPa) = 29.94414 36.20741 33.07578
#
# Velocity S-wave (km/s) = 3.56730 3.92268 3.74920
# Velocity P-wave (km/s) = 6.04184 6.66288 6.35995
#
# Compressibility (1/GPa) = 0.02175326
#
# Stress axis : x y z
#
# Youngs Moduli (GPa) = 112.65711 67.73599 120.76965
#
# Poissons Ratio (x) = -0.04675 0.38499
# Poissons Ratio (y) = -0.07775 0.31227
# Poissons Ratio (z) = 0.35913 0.17514
#
# Static dielectric constant tensor:
#      x y z
#    x 1.932170 0.000000 0.000000 
#    y 0.000000 1.918280 0.000000 
#    z 0.000000 0.000000 2.010710 
# 
# From -- ./inp_files/3185.got.cif
#   From: 2010.05.17/outbox.cif.g08.bks.cpg/sg52_2_cif.got.tgz:3185.got - 2010.06.03 12:15:38.
