data_PCOD9413460
_publ_section_title
;
Structure prediction by ZEFSAII (Michael W. Deem and Ramdas Pophale) SiO2 
 PCOD9413460
Probable space group: P N N A
;
_chemical_formula_sum "Si O2"
_cell_formula_units_Z 32
_cell_length_a 28.094807
_cell_length_b 7.589100
_cell_length_c 6.792180
_cell_angle_alpha 90.000000
_cell_angle_beta 90.000000
_cell_angle_gamma 90.000000
_cell_volume 1448.189903
_symmetry_space_group_name_H-M "P N N A"
_symmetry_group_IT_number 52
_symmetry_cell_setting 'orthorhombic'
loop_
_space_group_symop_operation_xyz
x,y,z
1/2-x,-y,z
x,1/2-y,1/2-z
1/2-x,1/2+y,1/2-z
-x,-y,-z
1/2+x,y,-z
-x,1/2+y,1/2+z
1/2+x,1/2-y,1/2+z
loop_
_atom_site_type_symbol
_atom_site_label
_atom_site_fract_x
_atom_site_fract_y
_atom_site_fract_z
Si Si1 0.870218 0.250000 0.750000
Si Si2 0.346651 0.750000 0.750000
Si Si3 0.580912 0.013676 0.002951
Si Si4 0.696672 0.073399 0.617911
Si Si5 0.001695 0.056170 0.278518
O O1 0.899623 0.319435 0.558077
O O2 0.838535 0.418760 0.809598
O O3 0.378668 0.630455 0.603245
O O4 0.316028 0.872544 0.605428
O O5 0.555922 0.057657 0.794878
O O6 0.535205 0.049182 0.143999
O O7 0.691825 0.250000 0.750000
O O8 0.750000 0.000000 0.633427
O O9 0.982256 0.250000 0.250000
O O10 0.000000 0.000000 0.500000
#
# Coordination Sequence:
#
# PCOD9413460 Si02
#       5
#     4   4   8   8   8
#     4  12  26  47  82 104 152 198 254 305 378 454
#     4  12  28  45  80 112 150 194 258 309 376 460
#     4  11  26  43  67 113 143 201 255 307 369 442
#     4  12  28  53  79 115 151 193 245 320 388 459
#     4  11  24  42  68  98 155 198 249 311 367 432
#
# _framework density 22.096547999999999
#
# number of rings (size 3 to 8) (size 9 to 14) (size 15 to 20)
#    0.000    0.500    3.750    3.000   10.500    7.000 
#    0.000    0.000    0.000    0.000    0.000    0.000 
#    0.000    0.000    0.000    0.000    0.000    0.000 
#
# Total GULP energy -178642.765218 kJ/mol
# GULP energy per Si atom -5582.586413 kJ/mol
# Density = 2.204626 g / cm^3
# Si number density = 22.096548 Si / 1000 Ang^3
#
#
#
# Elastic Constant Matrix: (Units=GPa)
#
#
# Indices 1 2 3 4 5 6 
#
# 1 108.9289 49.4314 58.1762 0.0000 0.0000 0.0000
# 2 49.4314 129.4986 65.1725 0.0000 0.0000 0.0000
# 3 58.1762 65.1725 158.4903 0.0000 0.0000 0.0000
# 4 0.0000 0.0000 0.0000 48.8105 0.0000 0.0000
# 5 0.0000 0.0000 0.0000 0.0000 22.3566 0.0000
# 6 0.0000 0.0000 0.0000 0.0000 0.0000 32.0967
#
#
#
# Elastic Compliance Matrix: (Units=1/GPa)
#
#
# Indices 1 2 3 4 5 6 
#
# 1 0.012309 -0.003057 -0.003261 0.000000 0.000000 0.000000
# 2 -0.003057 0.010497 -0.003194 0.000000 0.000000 0.000000
# 3 -0.003261 -0.003194 0.008820 0.000000 0.000000 0.000000
# 4 0.000000 0.000000 0.000000 0.020487 0.000000 0.000000
# 5 0.000000 0.000000 0.000000 0.000000 0.044729 0.000000
# 6 0.000000 0.000000 0.000000 0.000000 0.000000 0.031156
#
#
# Mechanical properties :
#
#
# Convention : Reuss Voigt Hill
#
# Bulk Modulus (GPa) = 79.35963 82.49755 80.92859
# Shear Modulus (GPa) = 33.06351 35.59529 34.32940
#
# Velocity S-wave (km/s) = 3.87243 4.01795 3.94586
# Velocity P-wave (km/s) = 7.48246 7.67733 7.58052
#
# Compressibility (1/GPa) = 0.01260086
#
# Stress axis : x y z
#
# Youngs Moduli (GPa) = 81.23850 95.26882 113.37898
#
# Poissons Ratio (x) = 0.29128 0.36974
# Poissons Ratio (y) = 0.24838 0.36213
# Poissons Ratio (z) = 0.26493 0.30429
#
# Static dielectric constant tensor:
#      x y z
#    x 1.854100 0.000000 0.000000 
#    y 0.000000 1.876780 0.000000 
#    z 0.000000 0.000000 1.843440 
# 
# From -- ./inp_files/6236.got.cif
#   From: 2010.05.17/outbox.cif.g08.bks.cpg/sg52_4_cif.got.tgz:6236.got - 2010.06.03 12:15:38.
