data_PCOD9413048
_publ_section_title
;
Structure prediction by ZEFSAII (Michael W. Deem and Ramdas Pophale) SiO2 
 PCOD9413048
Probable space group: P N N A
;
_chemical_formula_sum "Si O2"
_cell_formula_units_Z 40
_cell_length_a 10.000495
_cell_length_b 11.618655
_cell_length_c 18.215841
_cell_angle_alpha 90.000000
_cell_angle_beta 90.000000
_cell_angle_gamma 90.000000
_cell_volume 2116.540485
_symmetry_space_group_name_H-M "P N N A"
_symmetry_group_IT_number 52
_symmetry_cell_setting 'orthorhombic'
loop_
_space_group_symop_operation_xyz
x,y,z
1/2-x,-y,z
x,1/2-y,1/2-z
1/2-x,1/2+y,1/2-z
-x,-y,-z
1/2+x,y,-z
-x,1/2+y,1/2+z
1/2+x,1/2-y,1/2+z
loop_
_atom_site_type_symbol
_atom_site_label
_atom_site_fract_x
_atom_site_fract_y
_atom_site_fract_z
Si Si1 0.762323 0.638189 0.556893
Si Si2 0.109609 0.556893 0.237922
Si Si3 0.518370 0.167079 0.818179
Si Si4 0.764965 0.637447 0.384242
Si Si5 0.954541 0.238603 0.853537
O O1 0.750000 0.500000 0.567909
O O2 0.788843 0.656315 0.471041
O O3 0.624036 0.705533 0.573040
O O4 0.877835 0.675964 0.613904
O O5 0.250000 0.500000 0.217612
O O6 0.050641 0.628422 0.169841
O O7 0.128746 0.657375 0.297622
O O8 0.026749 0.459183 0.280376
O O9 0.549143 0.250000 0.750000
O O10 0.371473 0.188368 0.851476
O O11 0.750000 0.500000 0.374150
O O12 0.895658 0.691902 0.347830
#
# Coordination Sequence:
#
# PCOD9413048 Si02
#       5
#     8   8   8   8   8
#     4  11  20  38  61  88 123 162 207 259 315 379
#     4  11  21  37  60  90 118 161 212 253 308 367
#     4  12  23  37  61  90 126 160 210 261 313 375
#     4  11  23  37  59  93 128 159 199 264 328 376
#     4  11  21  37  62  85 126 156 201 260 307 375
#
# _framework density 18.898764
#
# number of rings (size 3 to 8) (size 9 to 14) (size 15 to 20)
#    0.000    0.800    6.000    2.400    2.800    3.200 
#    0.000    0.000    0.000   13.200    0.000    0.000 
#    0.000    0.000    0.000    0.000    0.000    0.000 
#
# Total GULP energy -223006.045718 kJ/mol
# GULP energy per Si atom -5575.151143 kJ/mol
# Density = 1.885575 g / cm^3
# Si number density = 18.898764 Si / 1000 Ang^3
#
#
#
# Elastic Constant Matrix: (Units=GPa)
#
#
# Indices 1 2 3 4 5 6 
#
# 1 140.8907 39.3444 32.8096 0.0000 0.0000 0.0000
# 2 39.3444 75.0091 36.9875 0.0000 0.0000 0.0000
# 3 32.8096 36.9875 70.1283 0.0000 0.0000 0.0000
# 4 0.0000 0.0000 0.0000 26.3954 0.0000 0.0000
# 5 0.0000 0.0000 0.0000 0.0000 34.8028 0.0000
# 6 0.0000 0.0000 0.0000 0.0000 0.0000 16.9383
#
#
#
# Elastic Compliance Matrix: (Units=1/GPa)
#
#
# Indices 1 2 3 4 5 6 
#
# 1 0.008562 -0.003400 -0.002213 0.000000 0.000000 0.000000
# 2 -0.003400 0.019368 -0.008624 0.000000 0.000000 0.000000
# 3 -0.002213 -0.008624 0.019843 0.000000 0.000000 0.000000
# 4 0.000000 0.000000 0.000000 0.037885 0.000000 0.000000
# 5 0.000000 0.000000 0.000000 0.000000 0.028733 0.000000
# 6 0.000000 0.000000 0.000000 0.000000 0.000000 0.059038
#
#
# Mechanical properties :
#
#
# Convention : Reuss Voigt Hill
#
# Bulk Modulus (GPa) = 51.81477 56.03458 53.92468
# Shear Modulus (GPa) = 23.99946 27.41972 25.70959
#
# Velocity S-wave (km/s) = 3.56743 3.81317 3.69234
# Velocity P-wave (km/s) = 6.66673 7.00723 6.83910
#
# Compressibility (1/GPa) = 0.01929952
#
# Stress axis : x y z
#
# Youngs Moduli (GPa) = 116.78854 51.63164 50.39437
#
# Poissons Ratio (x) = 0.17556 0.11150
# Poissons Ratio (y) = 0.39711 0.43462
# Poissons Ratio (z) = 0.25841 0.44529
#
# Static dielectric constant tensor:
#      x y z
#    x 1.696700 0.000000 0.000000 
#    y 0.000000 1.668450 0.000000 
#    z 0.000000 0.000000 1.726830 
# 
# From -- ./inp_files/30855.got.cif
#   From: 2010.05.17/outbox.cif.g08.bks.cpg/sg52_16_cif.got.tgz:30855.got - 2010.06.03 12:15:38.
