data_PCOD9413893
_publ_section_title
;
Structure prediction by ZEFSAII (Michael W. Deem and Ramdas Pophale) SiO2 
 PCOD9413893
Probable space group: P N N A
;
_chemical_formula_sum "Si O2"
_cell_formula_units_Z 16
_cell_length_a 4.806082
_cell_length_b 8.731266
_cell_length_c 12.973840
_cell_angle_alpha 90.000000
_cell_angle_beta 90.000000
_cell_angle_gamma 90.000000
_cell_volume 544.423588
_symmetry_space_group_name_H-M "P N N A"
_symmetry_group_IT_number 52
_symmetry_cell_setting 'orthorhombic'
loop_
_space_group_symop_operation_xyz
x,y,z
1/2-x,-y,z
x,1/2-y,1/2-z
1/2-x,1/2+y,1/2-z
-x,-y,-z
1/2+x,y,-z
-x,1/2+y,1/2+z
1/2+x,1/2-y,1/2+z
loop_
_atom_site_type_symbol
_atom_site_label
_atom_site_fract_x
_atom_site_fract_y
_atom_site_fract_z
Si Si1 0.516310 0.201934 0.936616
Si Si2 0.641106 0.250000 0.250000
Si Si3 0.250000 0.000000 0.362339
O O1 0.348347 0.171177 0.832976
O O2 0.553784 0.385140 0.925515
O O3 0.826883 0.154471 0.966390
O O4 0.442430 0.381077 0.202046
#
# Coordination Sequence:
#
# PCOD9413893 Si02
#       3
#     8   4   4
#     4  12  26  48  79 111 147 203 260 307 370 455
#     4  12  28  46  78 116 156 194 258 316 374 446
#     4  12  26  50  78 114 154 200 250 322 368 454
#
# _framework density 29.38888
#
# number of rings (size 3 to 8) (size 9 to 14) (size 15 to 20)
#    0.000    0.000    5.000    4.500    0.000    0.000 
#    0.000    2.500    0.000    0.000    0.000    0.000 
#    0.000    0.000    0.000    0.000    0.000    0.000 
#
# Total GULP energy -89671.227262 kJ/mol
# GULP energy per Si atom -5604.451704 kJ/mol
# Density = 2.932199 g / cm^3
# Si number density = 29.388880 Si / 1000 Ang^3
#
#
#
# Elastic Constant Matrix: (Units=GPa)
#
#
# Indices 1 2 3 4 5 6 
#
# 1 182.2825 3.6031 45.2770 0.0000 0.0000 0.0000
# 2 3.6031 174.1940 -4.3752 0.0000 0.0000 0.0000
# 3 45.2770 -4.3752 88.9971 0.0000 0.0000 0.0000
# 4 0.0000 0.0000 0.0000 58.1710 0.0000 0.0000
# 5 0.0000 0.0000 0.0000 0.0000 -74.3967 0.0000
# 6 0.0000 0.0000 0.0000 0.0000 0.0000 15.2224
#
#
#
# Elastic Compliance Matrix: (Units=1/GPa)
#
#
# Indices 1 2 3 4 5 6 
#
# 1 0.006287 -0.000211 -0.003209 0.000000 0.000000 0.000000
# 2 -0.000211 0.005755 0.000390 0.000000 0.000000 0.000000
# 3 -0.003209 0.000390 0.012888 0.000000 0.000000 0.000000
# 4 0.000000 0.000000 0.000000 0.017191 0.000000 0.000000
# 5 0.000000 0.000000 0.000000 0.000000 -0.013441 0.000000
# 6 0.000000 0.000000 0.000000 0.000000 0.000000 0.065693
#
#
# Mechanical properties :
#
#
# Convention : Reuss Voigt Hill
#
# Bulk Modulus (GPa) = 52.99107 59.38703 56.18905
# Shear Modulus (GPa) = 46.85087 26.53058 36.69072
#
# Velocity S-wave (km/s) = 3.99704 3.00783 3.53718
# Velocity P-wave (km/s) = 6.27470 5.68453 5.98689
#
# Compressibility (1/GPa) = 0.01887111
#
# Stress axis : x y z
#
# Youngs Moduli (GPa) = 159.05265 173.76558 77.59123
#
# Poissons Ratio (x) = 0.03660 0.24899
# Poissons Ratio (y) = 0.03350 -0.03027
# Poissons Ratio (z) = 0.51039 -0.06778
#
# Static dielectric constant tensor:
#      x y z
#    x 2.197900 0.000000 0.000000 
#    y 0.000000 2.252950 0.000000 
#    z 0.000000 0.000000 2.348420 
# 
# From -- ./inp_files/15787.got.cif
#   From: 2010.05.17/outbox.cif.g08.bks.cpg/sg52_8_cif.got.tgz:15787.got - 2010.06.03 12:15:38.
