data_PCOD9413990
_publ_section_title
;
Structure prediction by ZEFSAII (Michael W. Deem and Ramdas Pophale) SiO2 
 PCOD9413990
Probable space group: P N N A
;
_chemical_formula_sum "Si O2"
_cell_formula_units_Z 60
_cell_length_a 12.000000
_cell_length_b 9.000000
_cell_length_c 27.000000
_cell_angle_alpha 90.000000
_cell_angle_beta 90.000000
_cell_angle_gamma 90.000000
_cell_volume 2916.000000
_symmetry_space_group_name_H-M "P N N A"
_symmetry_group_IT_number 52
_symmetry_cell_setting 'orthorhombic'
loop_
_space_group_symop_operation_xyz
x,y,z
1/2-x,-y,z
x,1/2-y,1/2-z
1/2-x,1/2+y,1/2-z
-x,-y,-z
1/2+x,y,-z
-x,1/2+y,1/2+z
1/2+x,1/2-y,1/2+z
loop_
_atom_site_type_symbol
_atom_site_label
_atom_site_fract_x
_atom_site_fract_y
_atom_site_fract_z
Si Si1 0.084276 0.584821 0.333536
Si Si2 0.279703 0.673987 0.599148
Si Si3 0.469164 0.247879 0.426320
Si Si4 0.830220 0.858992 0.204045
Si Si5 0.250000 0.000000 0.481506
Si Si6 0.690273 0.229923 0.807746
Si Si7 0.910545 0.313409 0.035663
Si Si8 0.390875 0.588885 0.099757
O O1 0.176992 0.695840 0.310321
O O2 0.128154 0.419355 0.325359
O O3 0.085271 0.628712 0.391221
O O4 0.957764 0.600363 0.312622
O O5 0.250000 0.500000 0.600955
O O6 0.400546 0.722665 0.581109
O O7 0.275257 0.722169 0.656486
O O8 0.192728 0.740024 0.561795
O O9 0.444871 0.261706 0.484339
O O10 0.429721 0.084765 0.405757
O O11 0.835954 0.750000 0.250000
O O12 0.750000 0.000000 0.214694
O O13 0.142710 0.967193 0.514872
O O14 0.293979 0.880622 0.441286
O O15 0.661088 0.250000 0.750000
O O16 0.651132 0.358292 0.846431
O O17 0.004342 0.325660 0.076935
#
# Coordination Sequence:
#
# PCOD9413990 Si02
#       8
#     8   8   8   8   4   8   8   8
#     4  10  24  45  66  97 136 168 218 272 333 406
#     4  10  23  41  60  92 134 171 218 277 332 403
#     4  10  22  42  65  95 131 174 218 279 337 389
#     4  10  23  45  68  90 129 168 218 271 328 377
#     4  10  20  40  60  94 130 164 214 278 328 392
#     4  11  25  43  67  99 133 173 219 270 332 401
#     4  11  21  38  65  94 129 175 220 272 333 400
#     4  11  23  38  68  95 129 172 224 274 322 404
#
# _framework density 20.576132000000001
#
# number of rings (size 3 to 8) (size 9 to 14) (size 15 to 20)
#    0.000    1.600    0.000    5.200    5.600    6.400 
#   10.800    0.000    0.000    0.000    0.000    0.000 
#    0.000    0.000    0.000    0.000    0.000    0.000 
#
# Total GULP energy -334524.736029 kJ/mol
# GULP energy per Si atom -5575.412267 kJ/mol
# Density = 2.052930 g / cm^3
# Si number density = 20.576132 Si / 1000 Ang^3
#
#
#
# Elastic Constant Matrix: (Units=GPa)
#
#
# Indices 1 2 3 4 5 6 
#
# 1 106.2452 39.0671 55.8300 0.0000 0.0000 0.0000
# 2 39.0671 52.7387 48.2105 0.0000 0.0000 0.0000
# 3 55.8300 48.2105 140.0835 0.0000 0.0000 0.0000
# 4 0.0000 0.0000 0.0000 32.5867 0.0000 0.0000
# 5 0.0000 0.0000 0.0000 0.0000 40.3192 0.0000
# 6 0.0000 0.0000 0.0000 0.0000 0.0000 24.6961
#
#
#
# Elastic Compliance Matrix: (Units=1/GPa)
#
#
# Indices 1 2 3 4 5 6 
#
# 1 0.013682 -0.007514 -0.002867 0.000000 0.000000 0.000000
# 2 -0.007514 0.031792 -0.007947 0.000000 0.000000 0.000000
# 3 -0.002867 -0.007947 0.011016 0.000000 0.000000 0.000000
# 4 0.000000 0.000000 0.000000 0.030687 0.000000 0.000000
# 5 0.000000 0.000000 0.000000 0.000000 0.024802 0.000000
# 6 0.000000 0.000000 0.000000 0.000000 0.000000 0.040492
#
#
# Mechanical properties :
#
#
# Convention : Reuss Voigt Hill
#
# Bulk Modulus (GPa) = 50.41734 65.03139 57.72436
# Shear Modulus (GPa) = 25.54429 29.91769 27.73099
#
# Velocity S-wave (km/s) = 3.52725 3.81727 3.67512
# Velocity P-wave (km/s) = 6.41441 7.14861 6.79144
#
# Compressibility (1/GPa) = 0.01983445
#
# Stress axis : x y z
#
# Youngs Moduli (GPa) = 73.09034 31.45432 90.77728
#
# Poissons Ratio (x) = 0.23636 0.26023
# Poissons Ratio (y) = 0.54923 0.72137
# Poissons Ratio (z) = 0.20953 0.24995
#
# Static dielectric constant tensor:
#      x y z
#    x 1.791530 0.000000 0.000000 
#    y 0.000000 1.746800 0.000000 
#    z 0.000000 0.000000 1.751910 
# 
# From -- ./inp_files/42782.got.cif
#   From: 2010.05.17/outbox.ucp.g08.bks.cvg/sg52_22_cif.got.tgz:42782.got - 2010.06.11 16:30:12.
