data_PCOD9413215
_publ_section_title
;
Structure prediction by ZEFSAII (Michael W. Deem and Ramdas Pophale) SiO2 
 PCOD9413215
Probable space group: P N N A
;
_chemical_formula_sum "Si O2"
_cell_formula_units_Z 40
_cell_length_a 13.486855
_cell_length_b 14.680589
_cell_length_c 8.224593
_cell_angle_alpha 90.000000
_cell_angle_beta 90.000000
_cell_angle_gamma 90.000000
_cell_volume 1628.428087
_symmetry_space_group_name_H-M "P N N A"
_symmetry_group_IT_number 52
_symmetry_cell_setting 'orthorhombic'
loop_
_space_group_symop_operation_xyz
x,y,z
1/2-x,-y,z
x,1/2-y,1/2-z
1/2-x,1/2+y,1/2-z
-x,-y,-z
1/2+x,y,-z
-x,1/2+y,1/2+z
1/2+x,1/2-y,1/2+z
loop_
_atom_site_type_symbol
_atom_site_label
_atom_site_fract_x
_atom_site_fract_y
_atom_site_fract_z
Si Si1 0.436113 0.096318 0.257349
Si Si2 0.141760 0.392025 0.646821
Si Si3 0.420679 0.246258 0.498975
Si Si4 0.580007 0.250000 0.750000
Si Si5 0.804114 0.694805 0.042746
Si Si6 0.250000 0.000000 0.136595
O O1 0.536862 0.059022 0.177848
O O2 0.459053 0.149125 0.426024
O O3 0.407839 0.179101 0.138957
O O4 0.340475 0.033561 0.248512
O O5 0.186059 0.387036 0.829372
O O6 0.135845 0.284562 0.603414
O O7 0.202481 0.430511 0.495589
O O8 0.496751 0.289603 0.627453
O O9 0.310012 0.223735 0.553756
O O10 0.652646 0.186551 0.640857
#
# Coordination Sequence:
#
# PCOD9413215 Si02
#       6
#     8   8   8   4   8   4
#     4  11  22  44  63  98 135 181 234 285 337 422
#     4  11  22  44  63  98 135 181 234 285 337 422
#     4  11  22  39  72 102 130 173 239 289 344 416
#     4  12  20  38  72 104 132 170 222 314 348 378
#     4  11  22  39  72 102 130 173 239 289 344 416
#     4  12  26  40  70  94 144 194 220 288 364 400
#
# _framework density 24.563566999999999
#
# number of rings (size 3 to 8) (size 9 to 14) (size 15 to 20)
#    0.000    0.800    6.000    4.200    0.000    0.000 
#    0.000    1.000    0.000    4.800    0.000    0.000 
#    0.000    0.000    0.000    0.000    0.000    0.000 
#
# Total GULP energy -222913.942166 kJ/mol
# GULP energy per Si atom -5572.848554 kJ/mol
# Density = 2.450766 g / cm^3
# Si number density = 24.563567 Si / 1000 Ang^3
#
#
#
# Elastic Constant Matrix: (Units=GPa)
#
#
# Indices 1 2 3 4 5 6 
#
# 1 103.5496 -11.8293 10.5449 0.0000 0.0000 0.0000
# 2 -11.8293 32.9818 2.9358 0.0000 0.0000 0.0000
# 3 10.5449 2.9358 76.9741 0.0000 0.0000 0.0000
# 4 0.0000 0.0000 0.0000 23.6398 0.0000 0.0000
# 5 0.0000 0.0000 0.0000 0.0000 -7.4274 0.0000
# 6 0.0000 0.0000 0.0000 0.0000 0.0000 19.3850
#
#
#
# Elastic Compliance Matrix: (Units=1/GPa)
#
#
# Indices 1 2 3 4 5 6 
#
# 1 0.010251 0.003815 -0.001550 0.000000 0.000000 0.000000
# 2 0.003815 0.031843 -0.001737 0.000000 0.000000 0.000000
# 3 -0.001550 -0.001737 0.013270 0.000000 0.000000 0.000000
# 4 0.000000 0.000000 0.000000 0.042302 0.000000 0.000000
# 5 0.000000 0.000000 0.000000 0.000000 -0.134638 0.000000
# 6 0.000000 0.000000 0.000000 0.000000 0.000000 0.051586
#
#
# Mechanical properties :
#
#
# Convention : Reuss Voigt Hill
#
# Bulk Modulus (GPa) = 17.72463 24.08982 20.90722
# Shear Modulus (GPa) = 154.48969 21.24307 87.86638
#
# Velocity S-wave (km/s) = 7.93917 2.94397 5.98738
# Velocity P-wave (km/s) = 9.55364 4.62433 7.50521
#
# Compressibility (1/GPa) = 0.05641866
#
# Stress axis : x y z
#
# Youngs Moduli (GPa) = 97.55341 31.40454 75.35829
#
# Poissons Ratio (x) = -0.11979 0.11679
# Poissons Ratio (y) = -0.37212 0.13090
# Poissons Ratio (z) = 0.15119 0.05455
#
# Static dielectric constant tensor:
#      x y z
#    x 2.020460 0.000000 0.000000 
#    y 0.000000 1.976150 0.000000 
#    z 0.000000 0.000000 2.168500 
# 
# From -- ./inp_files/10257.got.cif
#   From: 2010.05.17/outbox.cif.g08.bks.cpg/sg52_6_cif.got.tgz:10257.got - 2010.06.03 12:15:38.
