data_PCOD9413377
_publ_section_title
;
Structure prediction by ZEFSAII (Michael W. Deem and Ramdas Pophale) SiO2 
 PCOD9413377
Probable space group: P N N A
;
_chemical_formula_sum "Si O2"
_cell_formula_units_Z 36
_cell_length_a 21.828297
_cell_length_b 10.839673
_cell_length_c 6.593713
_cell_angle_alpha 90.000000
_cell_angle_beta 90.000000
_cell_angle_gamma 90.000000
_cell_volume 1560.148994
_symmetry_space_group_name_H-M "P N N A"
_symmetry_group_IT_number 52
_symmetry_cell_setting 'orthorhombic'
loop_
_space_group_symop_operation_xyz
x,y,z
1/2-x,-y,z
x,1/2-y,1/2-z
1/2-x,1/2+y,1/2-z
-x,-y,-z
1/2+x,y,-z
-x,1/2+y,1/2+z
1/2+x,1/2-y,1/2+z
loop_
_atom_site_type_symbol
_atom_site_label
_atom_site_fract_x
_atom_site_fract_y
_atom_site_fract_z
Si Si1 0.736812 0.860887 0.090918
Si Si2 0.039512 0.893855 0.763735
Si Si3 0.092801 0.429335 0.061099
Si Si4 0.390680 0.371710 0.373317
Si Si5 0.319054 0.750000 0.250000
O O1 0.748682 0.750000 0.250000
O O2 0.750000 0.000000 0.169338
O O3 0.666301 0.853723 0.021198
O O4 0.776144 0.837593 0.886103
O O5 0.059920 0.750000 0.750000
O O6 0.973130 0.897559 0.659600
O O7 0.079176 0.997130 0.645081
O O8 0.050681 0.915571 0.000465
O O9 0.125141 0.527033 0.208112
O O10 0.136445 0.312495 0.082146
O O11 0.406409 0.250000 0.250000
#
# Coordination Sequence:
#
# PCOD9413377 Si02
#       5
#     8   8   8   8   4
#     4  12  29  47  72 106 143 191 245 298 367 438
#     4  11  23  43  70 104 140 189 238 295 369 433
#     4  11  25  44  70 103 145 183 240 300 362 439
#     4  12  24  43  70 103 140 188 243 299 361 436
#     4  12  26  48  74 104 144 188 238 302 370 432
#
# _framework density 23.074721
#
# number of rings (size 3 to 8) (size 9 to 14) (size 15 to 20)
#    0.000    0.444    6.667    1.333    3.111    0.889 
#    0.000    1.111    0.000    0.000    0.000    0.000 
#    0.000    0.000    0.000    0.000    0.000    0.000 
#
# Total GULP energy -201143.036855 kJ/mol
# GULP energy per Si atom -5587.306579 kJ/mol
# Density = 2.302220 g / cm^3
# Si number density = 23.074721 Si / 1000 Ang^3
#
#
#
# Elastic Constant Matrix: (Units=GPa)
#
#
# Indices 1 2 3 4 5 6 
#
# 1 108.9895 43.1945 29.3321 0.0000 0.0000 0.0000
# 2 43.1945 121.7418 41.9111 0.0000 0.0000 0.0000
# 3 29.3321 41.9111 65.8963 0.0000 0.0000 0.0000
# 4 0.0000 0.0000 0.0000 43.8998 0.0000 0.0000
# 5 0.0000 0.0000 0.0000 0.0000 27.6201 0.0000
# 6 0.0000 0.0000 0.0000 0.0000 0.0000 33.5343
#
#
#
# Elastic Compliance Matrix: (Units=1/GPa)
#
#
# Indices 1 2 3 4 5 6 
#
# 1 0.011161 -0.002880 -0.003136 0.000000 0.000000 0.000000
# 2 -0.002880 0.011260 -0.005880 0.000000 0.000000 0.000000
# 3 -0.003136 -0.005880 0.020311 0.000000 0.000000 0.000000
# 4 0.000000 0.000000 0.000000 0.022779 0.000000 0.000000
# 5 0.000000 0.000000 0.000000 0.000000 0.036206 0.000000
# 6 0.000000 0.000000 0.000000 0.000000 0.000000 0.029820
#
#
# Mechanical properties :
#
#
# Convention : Reuss Voigt Hill
#
# Bulk Modulus (GPa) = 52.79845 58.38923 55.59384
# Shear Modulus (GPa) = 30.93266 33.15683 32.04474
#
# Velocity S-wave (km/s) = 3.66531 3.79480 3.73062
# Velocity P-wave (km/s) = 6.39092 6.67533 6.53467
#
# Compressibility (1/GPa) = 0.01893995
#
# Stress axis : x y z
#
# Youngs Moduli (GPa) = 89.60030 88.80876 49.23492
#
# Poissons Ratio (x) = 0.25579 0.15440
# Poissons Ratio (y) = 0.25807 0.28948
# Poissons Ratio (z) = 0.28099 0.52216
#
# Static dielectric constant tensor:
#      x y z
#    x 1.848650 0.000000 0.000000 
#    y 0.000000 2.496980 0.000000 
#    z 0.000000 0.000000 1.909030 
# 
# From -- ./inp_files/4874.got.cif
#   From: 2010.05.17/outbox.cif.g08.bks.cpg/sg52_3_cif.got.tgz:4874.got - 2010.06.03 12:15:38.
