data_PCOD9413881
_publ_section_title
;
Structure prediction by ZEFSAII (Michael W. Deem and Ramdas Pophale) SiO2 
 PCOD9413881
Probable space group: P N N A
;
_chemical_formula_sum "Si O2"
_cell_formula_units_Z 28
_cell_length_a 8.534148
_cell_length_b 5.097986
_cell_length_c 29.160323
_cell_angle_alpha 90.000000
_cell_angle_beta 90.000000
_cell_angle_gamma 90.000000
_cell_volume 1268.677211
_symmetry_space_group_name_H-M "P N N A"
_symmetry_group_IT_number 52
_symmetry_cell_setting 'orthorhombic'
loop_
_space_group_symop_operation_xyz
x,y,z
1/2-x,-y,z
x,1/2-y,1/2-z
1/2-x,1/2+y,1/2-z
-x,-y,-z
1/2+x,y,-z
-x,1/2+y,1/2+z
1/2+x,1/2-y,1/2+z
loop_
_atom_site_type_symbol
_atom_site_label
_atom_site_fract_x
_atom_site_fract_y
_atom_site_fract_z
Si Si1 0.066440 0.434497 0.105908
Si Si2 0.060410 0.452479 0.551956
Si Si3 0.571482 0.577774 0.203075
Si Si4 0.353476 0.250000 0.250000
O O1 0.250000 0.500000 0.112591
O O2 0.983608 0.679703 0.078735
O O3 0.989334 0.336929 0.154019
O O4 0.037687 0.180083 0.076068
O O5 0.250000 0.500000 0.554407
O O6 0.000000 0.500000 0.500000
O O7 0.750000 0.500000 0.200804
O O8 0.552322 0.750000 0.250000
O O9 0.467807 0.317182 0.209113
O O10 0.250000 0.500000 0.259520
#
# Coordination Sequence:
#
# PCOD9413881 Si02
#       4
#     8   8   8   4
#     4  12  28  48  76 110 148 192 248 303 365 437
#     4  12  26  50  79 111 149 190 240 301 372 440
#     4  12  27  47  74 105 148 197 250 301 366 433
#     4  12  26  44  70 100 138 186 240 298 356 418
#
# _framework density 22.070229999999999
#
# number of rings (size 3 to 8) (size 9 to 14) (size 15 to 20)
#    0.000    0.000    2.857    6.857    4.000    1.143 
#    0.000    0.000    0.000    0.000    0.000    0.000 
#    0.000    0.000    0.000    0.000    0.000    0.000 
#
# Total GULP energy -156189.611940 kJ/mol
# GULP energy per Si atom -5578.200426 kJ/mol
# Density = 2.202000 g / cm^3
# Si number density = 22.070230 Si / 1000 Ang^3
#
#
#
# Elastic Constant Matrix: (Units=GPa)
#
#
# Indices 1 2 3 4 5 6 
#
# 1 153.4880 10.9605 38.0273 0.0000 0.0000 0.0000
# 2 10.9605 106.1641 47.6365 0.0000 0.0000 0.0000
# 3 38.0273 47.6365 198.0213 0.0000 0.0000 0.0000
# 4 0.0000 0.0000 0.0000 48.0495 0.0000 0.0000
# 5 0.0000 0.0000 0.0000 0.0000 83.0277 0.0000
# 6 0.0000 0.0000 0.0000 0.0000 0.0000 -88.2245
#
#
#
# Elastic Compliance Matrix: (Units=1/GPa)
#
#
# Indices 1 2 3 4 5 6 
#
# 1 0.006842 -0.000131 -0.001282 0.000000 0.000000 0.000000
# 2 -0.000131 0.010562 -0.002516 0.000000 0.000000 0.000000
# 3 -0.001282 -0.002516 0.005901 0.000000 0.000000 0.000000
# 4 0.000000 0.000000 0.000000 0.020812 0.000000 0.000000
# 5 0.000000 0.000000 0.000000 0.000000 0.012044 0.000000
# 6 0.000000 0.000000 0.000000 0.000000 0.000000 -0.011335
#
#
# Mechanical properties :
#
#
# Convention : Reuss Voigt Hill
#
# Bulk Modulus (GPa) = 64.73624 72.32467 68.53045
# Shear Modulus (GPa) = 86.45473 32.64049 59.54761
#
# Velocity S-wave (km/s) = 6.26559 3.84987 5.19996
# Velocity P-wave (km/s) = 9.04097 7.25282 8.19580
#
# Compressibility (1/GPa) = 0.01544730
#
# Stress axis : x y z
#
# Youngs Moduli (GPa) = 146.15070 94.68213 169.45147
#
# Poissons Ratio (x) = 0.01240 0.21731
# Poissons Ratio (y) = 0.01914 0.42627
# Poissons Ratio (z) = 0.18743 0.23818
#
# Static dielectric constant tensor:
#      x y z
#    x 1.814300 0.000000 0.000000 
#    y 0.000000 1.838820 0.000000 
#    z 0.000000 0.000000 2.764570 
# 
# From -- ./inp_files/41960.got.cif
#   From: 2010.05.17/outbox.cif.g08.bks.cpg/sg52_21_cif.got.tgz:41960.got - 2010.06.03 12:15:38.
