data_PCOD9413370
_publ_section_title
;
Structure prediction by ZEFSAII (Michael W. Deem and Ramdas Pophale) SiO2 
 PCOD9413370
Probable space group: P N N A
;
_chemical_formula_sum "Si O2"
_cell_formula_units_Z 32
_cell_length_a 30.945714
_cell_length_b 4.940064
_cell_length_c 9.900563
_cell_angle_alpha 90.000000
_cell_angle_beta 90.000000
_cell_angle_gamma 90.000000
_cell_volume 1513.536764
_symmetry_space_group_name_H-M "P N N A"
_symmetry_group_IT_number 52
_symmetry_cell_setting 'orthorhombic'
loop_
_space_group_symop_operation_xyz
x,y,z
1/2-x,-y,z
x,1/2-y,1/2-z
1/2-x,1/2+y,1/2-z
-x,-y,-z
1/2+x,y,-z
-x,1/2+y,1/2+z
1/2+x,1/2-y,1/2+z
loop_
_atom_site_type_symbol
_atom_site_label
_atom_site_fract_x
_atom_site_fract_y
_atom_site_fract_z
Si Si1 0.833808 0.051992 0.504960
Si Si2 0.121310 0.412945 0.386050
Si Si3 0.750000 0.000000 0.659997
Si Si4 0.019254 0.496959 0.347419
Si Si5 0.718445 0.750000 0.250000
O O1 0.853708 0.308909 0.584361
O O2 0.813362 0.163567 0.368898
O O3 0.868456 0.810324 0.498908
O O4 0.791494 0.921582 0.574175
O O5 0.134648 0.250000 0.250000
O O6 0.070981 0.477985 0.369885
O O7 0.736667 0.750000 0.750000
O O8 0.005682 0.250000 0.250000
O O9 0.000000 0.500000 0.500000
O O10 0.009770 0.750000 0.250000
O O11 0.750000 0.500000 0.286822
#
# Coordination Sequence:
#
# PCOD9413370 Si02
#       5
#     8   8   4   8   4
#     4  12  24  42  63  91 127 171 222 263 332 392
#     4  11  23  43  68  96 131 167 215 275 336 388
#     4  12  24  36  60  90 118 156 210 268 308 376
#     4  11  24  46  75 105 144 183 226 285 355 424
#     4  12  26  46  62  84 134 182 218 272 336 396
#
# _framework density 21.142533
#
# number of rings (size 3 to 8) (size 9 to 14) (size 15 to 20)
#    0.000    0.500    1.250    9.750    1.750    0.000 
#    6.750    0.000    0.000    0.000    0.000    0.000 
#    0.000    0.000    0.000    0.000    0.000    0.000 
#
# Total GULP energy -178823.995626 kJ/mol
# GULP energy per Si atom -5588.249863 kJ/mol
# Density = 2.109441 g / cm^3
# Si number density = 21.142533 Si / 1000 Ang^3
#
#
#
# Elastic Constant Matrix: (Units=GPa)
#
#
# Indices 1 2 3 4 5 6 
#
# 1 66.8464 23.6448 47.9421 0.0000 0.0000 0.0000
# 2 23.6448 147.4337 36.5477 0.0000 0.0000 0.0000
# 3 47.9421 36.5477 127.8834 0.0000 0.0000 0.0000
# 4 0.0000 0.0000 0.0000 26.5213 0.0000 0.0000
# 5 0.0000 0.0000 0.0000 0.0000 22.7376 0.0000
# 6 0.0000 0.0000 0.0000 0.0000 0.0000 21.7538
#
#
#
# Elastic Compliance Matrix: (Units=1/GPa)
#
#
# Indices 1 2 3 4 5 6 
#
# 1 0.020768 -0.001507 -0.007355 0.000000 0.000000 0.000000
# 2 -0.001507 0.007409 -0.001552 0.000000 0.000000 0.000000
# 3 -0.007355 -0.001552 0.011020 0.000000 0.000000 0.000000
# 4 0.000000 0.000000 0.000000 0.037706 0.000000 0.000000
# 5 0.000000 0.000000 0.000000 0.000000 0.043980 0.000000
# 6 0.000000 0.000000 0.000000 0.000000 0.000000 0.045969
#
#
# Mechanical properties :
#
#
# Convention : Reuss Voigt Hill
#
# Bulk Modulus (GPa) = 54.44155 62.04807 58.24481
# Shear Modulus (GPa) = 25.79926 29.80446 27.80186
#
# Velocity S-wave (km/s) = 3.49700 3.75866 3.63019
# Velocity P-wave (km/s) = 6.48930 6.94607 6.72157
#
# Compressibility (1/GPa) = 0.01836832
#
# Stress axis : x y z
#
# Youngs Moduli (GPa) = 48.15166 134.96571 90.74000
#
# Poissons Ratio (x) = 0.20345 0.66737
# Poissons Ratio (y) = 0.07259 0.14086
# Poissons Ratio (z) = 0.35414 0.20952
#
# Static dielectric constant tensor:
#      x y z
#    x 1.716740 0.000000 0.000000 
#    y 0.000000 1.822110 0.000000 
#    z 0.000000 0.000000 2.088790 
# 
# From -- ./inp_files/15228.got.cif
#   From: 2010.05.17/outbox.cif.g08.bks.cpg/sg52_8_cif.got.tgz:15228.got - 2010.06.03 12:15:38.
