data_PCOD9413743
_publ_section_title
;
Structure prediction by ZEFSAII (Michael W. Deem and Ramdas Pophale) SiO2 
 PCOD9413743
Probable space group: P N N A
;
_chemical_formula_sum "Si O2"
_cell_formula_units_Z 40
_cell_length_a 15.506988
_cell_length_b 21.456624
_cell_length_c 4.756092
_cell_angle_alpha 90.000000
_cell_angle_beta 90.000000
_cell_angle_gamma 90.000000
_cell_volume 1582.483128
_symmetry_space_group_name_H-M "P N N A"
_symmetry_group_IT_number 52
_symmetry_cell_setting 'orthorhombic'
loop_
_space_group_symop_operation_xyz
x,y,z
1/2-x,-y,z
x,1/2-y,1/2-z
1/2-x,1/2+y,1/2-z
-x,-y,-z
1/2+x,y,-z
-x,1/2+y,1/2+z
1/2+x,1/2-y,1/2+z
loop_
_atom_site_type_symbol
_atom_site_label
_atom_site_fract_x
_atom_site_fract_y
_atom_site_fract_z
Si Si1 0.545149 0.706506 0.488438
Si Si2 0.099642 0.118029 0.750927
Si Si3 0.808979 0.059137 0.565729
Si Si4 0.069967 0.030971 0.208531
Si Si5 0.278890 0.360159 0.576991
O O1 0.564871 0.750000 0.750000
O O2 0.425555 0.585866 0.047272
O O3 0.636480 0.681732 0.375263
O O4 0.502479 0.750000 0.250000
O O5 0.018829 0.153335 0.893203
O O6 0.126272 0.063023 0.964876
O O7 0.186823 0.160003 0.788613
O O8 0.782755 0.118753 0.751589
O O9 0.802668 0.077613 0.246233
O O10 0.750000 0.000000 0.627919
O O11 0.901331 0.031071 0.629710
O O12 0.000000 0.000000 0.000000
#
# Coordination Sequence:
#
# PCOD9413743 Si02
#       5
#     8   8   8   8   8
#     4  12  29  50  73 104 142 195 265 334 382 426
#     4  12  25  47  72 107 148 197 248 310 371 455
#     4  12  22  43  72 108 152 192 234 292 359 468
#     4  12  25  41  70 111 155 196 236 287 372 457
#     4  12  25  46  76 106 149 197 252 299 378 455
#
# _framework density 25.276731000000002
#
# number of rings (size 3 to 8) (size 9 to 14) (size 15 to 20)
#    0.000    0.000    4.000    6.000    0.000    4.800 
#    0.000    0.000    0.000    0.000    0.000    0.000 
#    0.000    0.000    0.000    0.000    0.000    0.000 
#
# Total GULP energy -223105.241238 kJ/mol
# GULP energy per Si atom -5577.631031 kJ/mol
# Density = 2.521920 g / cm^3
# Si number density = 25.276731 Si / 1000 Ang^3
#
#
#
# Elastic Constant Matrix: (Units=GPa)
#
#
# Indices 1 2 3 4 5 6 
#
# 1 150.0811 50.6266 45.6228 0.0000 0.0000 0.0000
# 2 50.6266 74.8816 39.2332 0.0000 0.0000 0.0000
# 3 45.6228 39.2332 151.6847 0.0000 0.0000 0.0000
# 4 0.0000 0.0000 0.0000 56.0597 0.0000 0.0000
# 5 0.0000 0.0000 0.0000 0.0000 35.6690 0.0000
# 6 0.0000 0.0000 0.0000 0.0000 0.0000 -33.6822
#
#
#
# Elastic Compliance Matrix: (Units=1/GPa)
#
#
# Indices 1 2 3 4 5 6 
#
# 1 0.008844 -0.005304 -0.001288 0.000000 0.000000 0.000000
# 2 -0.005304 0.018629 -0.003223 0.000000 0.000000 0.000000
# 3 -0.001288 -0.003223 0.007814 0.000000 0.000000 0.000000
# 4 0.000000 0.000000 0.000000 0.017838 0.000000 0.000000
# 5 0.000000 0.000000 0.000000 0.000000 0.028036 0.000000
# 6 0.000000 0.000000 0.000000 0.000000 0.000000 -0.029689
#
#
# Mechanical properties :
#
#
# Convention : Reuss Voigt Hill
#
# Bulk Modulus (GPa) = 63.87356 71.95697 67.91527
# Shear Modulus (GPa) = 65.51272 27.68696 46.59984
#
# Velocity S-wave (km/s) = 5.09651 3.31320 4.29836
# Velocity P-wave (km/s) = 7.74320 6.57008 7.18064
#
# Compressibility (1/GPa) = 0.01565593
#
# Stress axis : x y z
#
# Youngs Moduli (GPa) = 113.07157 53.67872 127.98088
#
# Poissons Ratio (x) = 0.28474 0.16484
# Poissons Ratio (y) = 0.59978 0.41249
# Poissons Ratio (z) = 0.14564 0.17301
#
# Static dielectric constant tensor:
#      x y z
#    x 2.345410 0.000000 0.000000 
#    y 0.000000 2.031760 0.000000 
#    z 0.000000 0.000000 1.970680 
# 
# From -- ./inp_files/1349.got.cif
#   From: 2010.05.17/outbox.cif.g08.bks.cpg/sg52_1_cif.got.tgz:1349.got - 2010.06.03 12:15:38.
