data_PCOD9413719
_publ_section_title
;
Structure prediction by ZEFSAII (Michael W. Deem and Ramdas Pophale) SiO2 
 PCOD9413719
Probable space group: P N N A
;
_chemical_formula_sum "Si O2"
_cell_formula_units_Z 28
_cell_length_a 9.156201
_cell_length_b 7.279473
_cell_length_c 18.353109
_cell_angle_alpha 90.000000
_cell_angle_beta 90.000000
_cell_angle_gamma 90.000000
_cell_volume 1223.277257
_symmetry_space_group_name_H-M "P N N A"
_symmetry_group_IT_number 52
_symmetry_cell_setting 'orthorhombic'
loop_
_space_group_symop_operation_xyz
x,y,z
1/2-x,-y,z
x,1/2-y,1/2-z
1/2-x,1/2+y,1/2-z
-x,-y,-z
1/2+x,y,-z
-x,1/2+y,1/2+z
1/2+x,1/2-y,1/2+z
loop_
_atom_site_type_symbol
_atom_site_label
_atom_site_fract_x
_atom_site_fract_y
_atom_site_fract_z
Si Si1 0.750000 0.500000 0.841739
Si Si2 0.919188 0.819210 0.529571
Si Si3 0.750000 0.500000 0.217020
Si Si4 0.518686 0.750000 0.750000
Si Si5 0.696822 0.803516 0.094969
O O1 0.836590 0.631969 0.896621
O O2 0.635587 0.633861 0.799689
O O3 0.811221 0.763487 0.465798
O O4 0.043778 0.679697 0.553528
O O5 0.000000 0.000000 0.500000
O O6 0.605200 0.414732 0.256080
O O7 0.693532 0.660273 0.161523
O O8 0.750000 0.000000 0.118598
#
# Coordination Sequence:
#
# PCOD9413719 Si02
#       5
#     4   8   4   4   8
#     4  12  25  50  80 114 161 218 272 338 414 490
#     4  12  21  47  80 115 160 196 257 350 421 479
#     4  12  27  52  74 110 161 216 280 334 396 500
#     4  12  30  50  80 112 164 226 278 336 398 498
#     4  12  25  44  80 117 153 202 263 339 425 493
#
# _framework density 22.889332
#
# number of rings (size 3 to 8) (size 9 to 14) (size 15 to 20)
#    0.000    0.000    8.571    0.857    2.000    3.429 
#    2.571    0.000    0.000    0.000    0.000    0.000 
#    0.000    0.000    0.000    0.000    0.000    0.000 
#
# Total GULP energy -156077.532806 kJ/mol
# GULP energy per Si atom -5574.197600 kJ/mol
# Density = 2.283723 g / cm^3
# Si number density = 22.889332 Si / 1000 Ang^3
#
#
#
# Elastic Constant Matrix: (Units=GPa)
#
#
# Indices 1 2 3 4 5 6 
#
# 1 191.9486 66.0641 88.7541 0.0000 0.0000 0.0000
# 2 66.0641 136.0432 60.6594 0.0000 0.0000 0.0000
# 3 88.7541 60.6594 118.7628 0.0000 0.0000 0.0000
# 4 0.0000 0.0000 0.0000 10.3002 0.0000 0.0000
# 5 0.0000 0.0000 0.0000 0.0000 36.8630 0.0000
# 6 0.0000 0.0000 0.0000 0.0000 0.0000 59.0554
#
#
#
# Elastic Compliance Matrix: (Units=1/GPa)
#
#
# Indices 1 2 3 4 5 6 
#
# 1 0.008228 -0.001624 -0.005320 0.000000 0.000000 0.000000
# 2 -0.001624 0.009839 -0.003812 0.000000 0.000000 0.000000
# 3 -0.005320 -0.003812 0.014343 0.000000 0.000000 0.000000
# 4 0.000000 0.000000 0.000000 0.097086 0.000000 0.000000
# 5 0.000000 0.000000 0.000000 0.000000 0.027127 0.000000
# 6 0.000000 0.000000 0.000000 0.000000 0.000000 0.016933
#
#
# Mechanical properties :
#
#
# Convention : Reuss Voigt Hill
#
# Bulk Modulus (GPa) = 91.75160 97.52329 94.63744
# Shear Modulus (GPa) = 25.16350 36.66220 30.91285
#
# Velocity S-wave (km/s) = 3.31925 4.00649 3.67895
# Velocity P-wave (km/s) = 7.40687 8.00634 7.71243
#
# Compressibility (1/GPa) = 0.01089899
#
# Stress axis : x y z
#
# Youngs Moduli (GPa) = 121.52966 101.63920 69.72152
#
# Poissons Ratio (x) = 0.16504 0.37092
# Poissons Ratio (y) = 0.19733 0.26576
# Poissons Ratio (z) = 0.64653 0.38743
#
# Static dielectric constant tensor:
#      x y z
#    x 1.876810 0.000000 0.000000 
#    y 0.000000 1.886460 0.000000 
#    z 0.000000 0.000000 2.135100 
# 
# From -- ./inp_files/35413.got.cif
#   From: 2010.05.17/outbox.cif.g08.bks.cpg/sg52_18_cif.got.tgz:35413.got - 2010.06.03 12:15:38.
