data_PCOD9413021
_publ_section_title
;
Structure prediction by ZEFSAII (Michael W. Deem and Ramdas Pophale) SiO2 
 PCOD9413021
Probable space group: P N N A
;
_chemical_formula_sum "Si O2"
_cell_formula_units_Z 56
_cell_length_a 9.818176
_cell_length_b 16.634837
_cell_length_c 19.858467
_cell_angle_alpha 90.000000
_cell_angle_beta 90.000000
_cell_angle_gamma 90.000000
_cell_volume 3243.359447
_symmetry_space_group_name_H-M "P N N A"
_symmetry_group_IT_number 52
_symmetry_cell_setting 'orthorhombic'
loop_
_space_group_symop_operation_xyz
x,y,z
1/2-x,-y,z
x,1/2-y,1/2-z
1/2-x,1/2+y,1/2-z
-x,-y,-z
1/2+x,y,-z
-x,1/2+y,1/2+z
1/2+x,1/2-y,1/2+z
loop_
_atom_site_type_symbol
_atom_site_label
_atom_site_fract_x
_atom_site_fract_y
_atom_site_fract_z
Si Si1 0.982136 0.216470 0.173104
Si Si2 0.473004 0.171257 0.381643
Si Si3 0.290445 0.145119 0.628903
Si Si4 0.369514 0.056082 0.494132
Si Si5 0.207455 0.801657 0.180516
Si Si6 0.637227 0.938855 0.229553
Si Si7 0.881968 0.449480 0.763254
O O1 0.987151 0.250000 0.250000
O O2 0.899339 0.282411 0.131306
O O3 0.900630 0.133459 0.179881
O O4 0.138701 0.202480 0.152459
O O5 0.636361 0.175955 0.380659
O O6 0.411379 0.131280 0.448412
O O7 0.400330 0.255440 0.365798
O O8 0.433180 0.108514 0.322521
O O9 0.323989 0.086585 0.567311
O O10 0.306415 0.098956 0.700261
O O11 0.250000 0.000000 0.464716
O O12 0.500000 0.000000 0.500000
O O13 0.209726 0.750000 0.250000
O O14 0.162025 0.890694 0.202123
O O15 0.750000 0.000000 0.203048
O O16 0.500779 0.988634 0.245138
O O17 0.750000 0.500000 0.784475
#
# Coordination Sequence:
#
# PCOD9413021 Si02
#       7
#     8   8   8   8   8   8   8
#     4   9  20  34  51  75 107 141 175 214 265 319
#     4  11  23  36  53  76 108 147 179 217 263 316
#     4  11  23  37  51  77 111 143 180 217 263 319
#     4  12  24  39  55  78 108 142 184 221 258 307
#     4   9  20  34  51  76 105 141 178 213 264 319
#     4  11  20  33  55  80 110 142 172 220 271 310
#     4  11  20  34  54  80 110 138 178 220 262 316
#
# _framework density 17.266048000000001
#
# number of rings (size 3 to 8) (size 9 to 14) (size 15 to 20)
#    0.000    1.429    4.286    1.714    6.000    1.714 
#    0.000    0.000    0.000    0.000    0.000    2.000 
#    0.000    0.000    0.000    0.000    0.000    0.000 
#
# Total GULP energy -312592.488678 kJ/mol
# GULP energy per Si atom -5582.008726 kJ/mol
# Density = 1.722675 g / cm^3
# Si number density = 17.266048 Si / 1000 Ang^3
#
#
#
# Elastic Constant Matrix: (Units=GPa)
#
#
# Indices 1 2 3 4 5 6 
#
# 1 129.9044 24.8269 19.2058 0.0000 0.0000 0.0000
# 2 24.8269 63.1628 15.1685 0.0000 0.0000 0.0000
# 3 19.2058 15.1685 35.0777 0.0000 0.0000 0.0000
# 4 0.0000 0.0000 0.0000 13.2864 0.0000 0.0000
# 5 0.0000 0.0000 0.0000 0.0000 13.8439 0.0000
# 6 0.0000 0.0000 0.0000 0.0000 0.0000 23.2145
#
#
#
# Elastic Compliance Matrix: (Units=1/GPa)
#
#
# Indices 1 2 3 4 5 6 
#
# 1 0.008729 -0.002548 -0.003677 0.000000 0.000000 0.000000
# 2 -0.002548 0.018410 -0.006566 0.000000 0.000000 0.000000
# 3 -0.003677 -0.006566 0.033361 0.000000 0.000000 0.000000
# 4 0.000000 0.000000 0.000000 0.075265 0.000000 0.000000
# 5 0.000000 0.000000 0.000000 0.000000 0.072234 0.000000
# 6 0.000000 0.000000 0.000000 0.000000 0.000000 0.043077
#
#
# Mechanical properties :
#
#
# Convention : Reuss Voigt Hill
#
# Bulk Modulus (GPa) = 28.63907 38.50527 33.57217
# Shear Modulus (GPa) = 17.34322 21.33187 19.33754
#
# Velocity S-wave (km/s) = 3.17278 3.51875 3.35023
# Velocity P-wave (km/s) = 5.48133 6.23365 5.86955
#
# Compressibility (1/GPa) = 0.03491733
#
# Stress axis : x y z
#
# Youngs Moduli (GPa) = 114.56629 54.31715 29.97511
#
# Poissons Ratio (x) = 0.13839 0.11023
# Poissons Ratio (y) = 0.29189 0.19682
# Poissons Ratio (z) = 0.42130 0.35666
#
# Static dielectric constant tensor:
#      x y z
#    x 1.600400 0.000000 0.000000 
#    y 0.000000 1.626490 0.000000 
#    z 0.000000 0.000000 1.575340 
# 
# From -- ./inp_files/36140.got.cif
#   From: 2010.05.17/outbox.cif.g08.bks.cpg/sg52_19_cif.got.tgz:36140.got - 2010.06.03 12:15:38.
