data_PCOD9413258
_publ_section_title
;
Structure prediction by ZEFSAII (Michael W. Deem and Ramdas Pophale) SiO2 
 PCOD9413258
Probable space group: P N N A
;
_chemical_formula_sum "Si O2"
_cell_formula_units_Z 56
_cell_length_a 8.167567
_cell_length_b 19.480826
_cell_length_c 15.423560
_cell_angle_alpha 90.000000
_cell_angle_beta 90.000000
_cell_angle_gamma 90.000000
_cell_volume 2454.057308
_symmetry_space_group_name_H-M "P N N A"
_symmetry_group_IT_number 52
_symmetry_cell_setting 'orthorhombic'
loop_
_space_group_symop_operation_xyz
x,y,z
1/2-x,-y,z
x,1/2-y,1/2-z
1/2-x,1/2+y,1/2-z
-x,-y,-z
1/2+x,y,-z
-x,1/2+y,1/2+z
1/2+x,1/2-y,1/2+z
loop_
_atom_site_type_symbol
_atom_site_label
_atom_site_fract_x
_atom_site_fract_y
_atom_site_fract_z
Si Si1 0.965449 0.768116 0.656434
Si Si2 0.474083 0.888831 0.105023
Si Si3 0.420683 0.535842 0.917437
Si Si4 0.055649 0.999111 0.771500
Si Si5 0.122539 0.745380 0.105168
Si Si6 0.390323 0.092948 0.083081
Si Si7 0.224210 0.184029 0.571007
O O1 0.029276 0.750000 0.750000
O O2 0.101433 0.820547 0.620439
O O3 0.972435 0.694231 0.606547
O O4 0.771061 0.785372 0.663942
O O5 0.298800 0.922409 0.091193
O O6 0.521027 0.921118 0.197549
O O7 0.569930 0.911088 0.018918
O O8 0.250000 0.500000 0.902845
O O9 0.507572 0.525314 0.823178
O O10 0.365392 0.612020 0.944289
O O11 0.500000 0.500000 0.000000
O O12 0.993074 0.048359 0.849070
O O13 0.250000 0.000000 0.771824
O O14 0.103977 0.826914 0.110278
O O15 0.933281 0.721914 0.113617
O O16 0.208776 0.722910 0.014154
#
# Coordination Sequence:
#
# PCOD9413258 Si02
#       7
#     8   8   8   8   8   8   8
#     4  11  27  41  70 109 146 185 240 310 365 443
#     4  11  23  42  68 100 143 190 233 299 359 435
#     4  11  28  49  72 103 138 189 245 299 362 432
#     4  11  26  42  68  99 145 188 238 295 347 444
#     4  11  23  43  74 106 142 182 244 300 371 439
#     4  11  22  42  69 105 141 188 236 290 367 431
#     4  12  23  45  77 100 141 192 237 304 367 434
#
# _framework density 22.819353
#
# number of rings (size 3 to 8) (size 9 to 14) (size 15 to 20)
#    0.000    0.857    2.857    3.429    6.000    4.000 
#    0.000    0.000    0.000    0.000    0.000    0.000 
#    0.000    0.000    0.000    0.000    0.000    0.000 
#
# Total GULP energy -311902.743009 kJ/mol
# GULP energy per Si atom -5569.691839 kJ/mol
# Density = 2.276742 g / cm^3
# Si number density = 22.819353 Si / 1000 Ang^3
#
#
#
# Elastic Constant Matrix: (Units=GPa)
#
#
# Indices 1 2 3 4 5 6 
#
# 1 110.2100 15.0082 22.3418 0.0000 0.0000 0.0000
# 2 15.0082 80.7045 7.3999 0.0000 0.0000 0.0000
# 3 22.3418 7.3999 104.3996 0.0000 0.0000 0.0000
# 4 0.0000 0.0000 0.0000 -13.2779 0.0000 0.0000
# 5 0.0000 0.0000 0.0000 0.0000 -519.9566 0.0000
# 6 0.0000 0.0000 0.0000 0.0000 0.0000 29.2883
#
#
#
# Elastic Compliance Matrix: (Units=1/GPa)
#
#
# Indices 1 2 3 4 5 6 
#
# 1 0.009692 -0.001623 -0.001959 0.000000 0.000000 0.000000
# 2 -0.001623 0.012744 -0.000556 0.000000 0.000000 0.000000
# 3 -0.001959 -0.000556 0.010037 0.000000 0.000000 0.000000
# 4 0.000000 0.000000 0.000000 -0.075313 0.000000 0.000000
# 5 0.000000 0.000000 0.000000 0.000000 -0.001923 0.000000
# 6 0.000000 0.000000 0.000000 0.000000 0.000000 0.034143
#
#
# Mechanical properties :
#
#
# Convention : Reuss Voigt Hill
#
# Bulk Modulus (GPa) = 41.32728 42.75708 42.04218
# Shear Modulus (GPa) = 874.01357 -84.08496 394.96430
#
# Velocity S-wave (km/s) = 19.59198 -6.07685 13.17038
# Velocity P-wave (km/s) = 23.02052 5.51902 15.80324
#
# Compressibility (1/GPa) = 0.02419709
#
# Stress axis : x y z
#
# Youngs Moduli (GPa) = 103.18111 78.47056 99.62907
#
# Poissons Ratio (x) = 0.12733 0.19518
# Poissons Ratio (y) = 0.16743 0.05540
# Poissons Ratio (z) = 0.20213 0.04363
#
# Static dielectric constant tensor:
#      x y z
#    x 2.069760 0.000000 0.000000 
#    y 0.000000 1.895840 0.000000 
#    z 0.000000 0.000000 2.165050 
# 
# From -- ./inp_files/24971.got.cif
#   From: 2010.05.17/outbox.cif.g08.bks.cpg/sg52_13_cif.got.tgz:24971.got - 2010.06.03 12:15:38.
