data_PCOD9413369
_publ_section_title
;
Structure prediction by ZEFSAII (Michael W. Deem and Ramdas Pophale) SiO2 
 PCOD9413369
Probable space group: P N N A
;
_chemical_formula_sum "Si O2"
_cell_formula_units_Z 40
_cell_length_a 23.232131
_cell_length_b 9.195250
_cell_length_c 8.090495
_cell_angle_alpha 90.000000
_cell_angle_beta 90.000000
_cell_angle_gamma 90.000000
_cell_volume 1728.334038
_symmetry_space_group_name_H-M "P N N A"
_symmetry_group_IT_number 52
_symmetry_cell_setting 'orthorhombic'
loop_
_space_group_symop_operation_xyz
x,y,z
1/2-x,-y,z
x,1/2-y,1/2-z
1/2-x,1/2+y,1/2-z
-x,-y,-z
1/2+x,y,-z
-x,1/2+y,1/2+z
1/2+x,1/2-y,1/2+z
loop_
_atom_site_type_symbol
_atom_site_label
_atom_site_fract_x
_atom_site_fract_y
_atom_site_fract_z
Si Si1 0.125140 0.296984 0.934706
Si Si2 0.000173 0.324278 0.059635
Si Si3 0.312779 0.543644 0.439336
Si Si4 0.188324 0.550174 0.060018
Si Si5 0.120939 0.703599 0.559927
O O1 0.136272 0.250000 0.750000
O O2 0.171549 0.211972 0.046229
O O3 0.138783 0.465295 0.962350
O O4 0.059690 0.268056 0.984064
O O5 0.001573 0.250000 0.250000
O O6 0.940882 0.254639 0.992697
O O7 0.000000 0.500000 0.000000
O O8 0.250000 0.500000 0.506516
O O9 0.315022 0.493569 0.250446
O O10 0.364506 0.464238 0.536226
O O11 0.250000 0.500000 0.994442
O O12 0.173041 0.716944 0.035039
O O13 0.124342 0.750000 0.750000
#
# Coordination Sequence:
#
# PCOD9413369 Si02
#       5
#     8   8   8   8   8
#     4  12  26  43  69 101 139 182 238 294 364 429
#     4  11  25  48  75 103 145 191 243 304 374 450
#     4  11  25  43  67 102 138 183 235 291 359 439
#     4  11  23  43  68  95 135 184 229 287 357 434
#     4  11  24  42  69 100 137 178 235 294 360 430
#
# _framework density 23.143674000000001
#
# number of rings (size 3 to 8) (size 9 to 14) (size 15 to 20)
#    0.000    0.800    2.000    4.800    2.800   10.400 
#    0.000    0.000    0.000    0.000    0.000    0.000 
#    0.000    0.000    0.000    0.000    0.000    0.000 
#
# Total GULP energy -223255.567103 kJ/mol
# GULP energy per Si atom -5581.389178 kJ/mol
# Density = 2.309100 g / cm^3
# Si number density = 23.143674 Si / 1000 Ang^3
#
#
#
# Elastic Constant Matrix: (Units=GPa)
#
#
# Indices 1 2 3 4 5 6 
#
# 1 139.4294 20.4668 8.3471 0.0000 0.0000 0.0000
# 2 20.4668 90.8543 10.6797 0.0000 0.0000 0.0000
# 3 8.3471 10.6797 75.3227 0.0000 0.0000 0.0000
# 4 0.0000 0.0000 0.0000 42.3898 0.0000 0.0000
# 5 0.0000 0.0000 0.0000 0.0000 19.5706 0.0000
# 6 0.0000 0.0000 0.0000 0.0000 0.0000 43.5235
#
#
#
# Elastic Compliance Matrix: (Units=1/GPa)
#
#
# Indices 1 2 3 4 5 6 
#
# 1 0.007444 -0.001607 -0.000597 0.000000 0.000000 0.000000
# 2 -0.001607 0.011540 -0.001458 0.000000 0.000000 0.000000
# 3 -0.000597 -0.001458 0.013549 0.000000 0.000000 0.000000
# 4 0.000000 0.000000 0.000000 0.023591 0.000000 0.000000
# 5 0.000000 0.000000 0.000000 0.000000 0.051097 0.000000
# 6 0.000000 0.000000 0.000000 0.000000 0.000000 0.022976
#
#
# Mechanical properties :
#
#
# Convention : Reuss Voigt Hill
#
# Bulk Modulus (GPa) = 39.66842 42.73260 41.20051
# Shear Modulus (GPa) = 34.26457 38.83763 36.55110
#
# Velocity S-wave (km/s) = 3.85192 4.10092 3.97837
# Velocity P-wave (km/s) = 6.07950 6.39746 6.24051
#
# Compressibility (1/GPa) = 0.02520897
#
# Stress axis : x y z
#
# Youngs Moduli (GPa) = 134.34223 86.65532 73.80551
#
# Poissons Ratio (x) = 0.13923 0.04407
# Poissons Ratio (y) = 0.21584 0.10762
# Poissons Ratio (z) = 0.08021 0.12636
#
# Static dielectric constant tensor:
#      x y z
#    x 1.846110 0.000000 0.000000 
#    y 0.000000 1.826890 0.000000 
#    z 0.000000 0.000000 1.862560 
# 
# From -- ./inp_files/13959.got.cif
#   From: 2010.05.17/outbox.cif.g08.bks.cpg/sg52_7_cif.got.tgz:13959.got - 2010.06.03 12:15:38.
