data_PCOD9413007
_publ_section_title
;
Structure prediction by ZEFSAII (Michael W. Deem and Ramdas Pophale) SiO2 
 PCOD9413007
Probable space group: P N N A
;
_chemical_formula_sum "Si O2"
_cell_formula_units_Z 56
_cell_length_a 11.138065
_cell_length_b 19.795391
_cell_length_c 11.706561
_cell_angle_alpha 90.000000
_cell_angle_beta 90.000000
_cell_angle_gamma 90.000000
_cell_volume 2581.090099
_symmetry_space_group_name_H-M "P N N A"
_symmetry_group_IT_number 52
_symmetry_cell_setting 'orthorhombic'
loop_
_space_group_symop_operation_xyz
x,y,z
1/2-x,-y,z
x,1/2-y,1/2-z
1/2-x,1/2+y,1/2-z
-x,-y,-z
1/2+x,y,-z
-x,1/2+y,1/2+z
1/2+x,1/2-y,1/2+z
loop_
_atom_site_type_symbol
_atom_site_label
_atom_site_fract_x
_atom_site_fract_y
_atom_site_fract_z
Si Si1 0.114439 0.991196 0.633117
Si Si2 0.561387 0.665270 0.505833
Si Si3 0.921753 0.731765 0.116559
Si Si4 0.569660 0.896348 0.581825
Si Si5 0.771421 0.331688 0.725164
Si Si6 0.829929 0.214001 0.360384
Si Si7 0.498438 0.613596 0.279641
O O1 0.121972 0.941715 0.521678
O O2 0.020226 0.957237 0.719586
O O3 0.250000 0.000000 0.677069
O O4 0.051044 0.062156 0.609904
O O5 0.437614 0.695502 0.556676
O O6 0.653387 0.655214 0.609040
O O7 0.609578 0.726064 0.427650
O O8 0.542182 0.608844 0.410671
O O9 0.953287 0.750000 0.250000
O O10 0.795886 0.695868 0.081876
O O11 0.019970 0.679699 0.065503
O O12 0.666460 0.879914 0.679562
O O13 0.774608 0.250000 0.750000
O O14 0.633485 0.354847 0.718307
O O15 0.773326 0.250000 0.250000
O O16 0.919423 0.161083 0.303463
#
# Coordination Sequence:
#
# PCOD9413007 Si02
#       7
#     8   8   8   8   8   8   8
#     4  11  27  48  70  96 134 193 250 298 332 412
#     4  11  20  39  62 105 136 179 218 285 365 423
#     4  11  19  38  65  98 137 176 224 284 357 424
#     4  11  24  42  70 100 133 185 241 291 349 411
#     4  12  24  43  71 108 149 179 227 295 368 439
#     4   9  20  34  58  91 134 180 220 273 345 415
#     4  11  25  43  67 100 143 183 236 294 347 420
#
# _framework density 21.696258
#
# number of rings (size 3 to 8) (size 9 to 14) (size 15 to 20)
#    0.000    1.143    2.857    3.857    4.000    1.143 
#    2.571    0.714    0.000    0.000    0.000    0.000 
#    0.000    0.000    0.000    0.000    0.000    0.000 
#
# Total GULP energy -311746.186618 kJ/mol
# GULP energy per Si atom -5566.896190 kJ/mol
# Density = 2.164688 g / cm^3
# Si number density = 21.696258 Si / 1000 Ang^3
#
#
#
# Elastic Constant Matrix: (Units=GPa)
#
#
# Indices 1 2 3 4 5 6 
#
# 1 80.8467 -14.8684 -14.6587 0.0000 0.0000 0.0000
# 2 -14.8684 48.8057 8.2969 0.0000 0.0000 0.0000
# 3 -14.6587 8.2969 69.1990 0.0000 0.0000 0.0000
# 4 0.0000 0.0000 0.0000 11.2569 0.0000 0.0000
# 5 0.0000 0.0000 0.0000 0.0000 -293.1454 0.0000
# 6 0.0000 0.0000 0.0000 0.0000 0.0000 11.2171
#
#
#
# Elastic Compliance Matrix: (Units=1/GPa)
#
#
# Indices 1 2 3 4 5 6 
#
# 1 0.013487 0.003698 0.002414 0.000000 0.000000 0.000000
# 2 0.003698 0.021930 -0.001846 0.000000 0.000000 0.000000
# 3 0.002414 -0.001846 0.015184 0.000000 0.000000 0.000000
# 4 0.000000 0.000000 0.000000 0.088835 0.000000 0.000000
# 5 0.000000 0.000000 0.000000 0.000000 -0.003411 0.000000
# 6 0.000000 0.000000 0.000000 0.000000 0.000000 0.089150
#
#
# Mechanical properties :
#
#
# Convention : Reuss Voigt Hill
#
# Bulk Modulus (GPa) = 16.91115 17.37675 17.14395
# Shear Modulus (GPa) = 21.15485 -39.46219 -9.15367
#
# Velocity S-wave (km/s) = 3.12596 -4.26942 -2.05625
# Velocity P-wave (km/s) = 4.56511 4.03453 1.51043
#
# Compressibility (1/GPa) = 0.05913258
#
# Stress axis : x y z
#
# Youngs Moduli (GPa) = 74.14617 45.59978 65.86018
#
# Poissons Ratio (x) = -0.16865 -0.15896
# Poissons Ratio (y) = -0.27422 0.12157
# Poissons Ratio (z) = -0.17896 0.08417
#
# Static dielectric constant tensor:
#      x y z
#    x 1.830190 0.000000 0.000000 
#    y 0.000000 1.895900 0.000000 
#    z 0.000000 0.000000 1.904470 
# 
# From -- ./inp_files/18348.got.cif
#   From: 2010.05.17/outbox.cif.g08.bks.cpg/sg52_10_cif.got.tgz:18348.got - 2010.06.03 12:15:38.
