data_PCOD9413501
_publ_section_title
;
Structure prediction by ZEFSAII (Michael W. Deem and Ramdas Pophale) SiO2 
 PCOD9413501
Probable space group: P N N A
;
_chemical_formula_sum "Si O2"
_cell_formula_units_Z 24
_cell_length_a 9.655652
_cell_length_b 13.043141
_cell_length_c 7.181797
_cell_angle_alpha 90.000000
_cell_angle_beta 90.000000
_cell_angle_gamma 90.000000
_cell_volume 904.475733
_symmetry_space_group_name_H-M "P N N A"
_symmetry_group_IT_number 52
_symmetry_cell_setting 'orthorhombic'
loop_
_space_group_symop_operation_xyz
x,y,z
1/2-x,-y,z
x,1/2-y,1/2-z
1/2-x,1/2+y,1/2-z
-x,-y,-z
1/2+x,y,-z
-x,1/2+y,1/2+z
1/2+x,1/2-y,1/2+z
loop_
_atom_site_type_symbol
_atom_site_label
_atom_site_fract_x
_atom_site_fract_y
_atom_site_fract_z
Si Si1 0.197213 0.892851 0.476381
Si Si2 0.950175 0.730627 0.053734
Si Si3 0.383188 0.070849 0.911229
O O1 0.322495 0.813838 0.437956
O O2 0.149585 0.911014 0.691645
O O3 0.250000 0.000000 0.403806
O O4 0.055511 0.858635 0.385647
O O5 0.876258 0.750000 0.250000
O O6 0.052435 0.816850 0.971385
O O7 0.250000 0.000000 0.968474
O O8 0.500000 0.000000 0.000000
#
# Coordination Sequence:
#
# PCOD9413501 Si02
#       3
#     8   8   8
#     4  11  25  46  67  97 139 183 232 290 349 420
#     4  12  24  41  67 101 137 178 229 288 350 419
#     4  11  24  45  70 100 140 187 237 292 352 423
#
# _framework density 26.534707000000001
#
# number of rings (size 3 to 8) (size 9 to 14) (size 15 to 20)
#    0.000    0.667    0.000   10.000    0.000    6.667 
#    0.000    0.000    0.000    0.000    0.000    0.000 
#    0.000    0.000    0.000    0.000    0.000    0.000 
#
# Total GULP energy -133768.625099 kJ/mol
# GULP energy per Si atom -5573.692712 kJ/mol
# Density = 2.647431 g / cm^3
# Si number density = 26.534707 Si / 1000 Ang^3
#
#
#
# Elastic Constant Matrix: (Units=GPa)
#
#
# Indices 1 2 3 4 5 6 
#
# 1 167.0061 38.3455 -11.7040 0.0000 0.0000 0.0000
# 2 38.3455 98.4306 35.6301 0.0000 0.0000 0.0000
# 3 -11.7040 35.6301 76.6546 0.0000 0.0000 0.0000
# 4 0.0000 0.0000 0.0000 10.6046 0.0000 0.0000
# 5 0.0000 0.0000 0.0000 0.0000 18.3041 0.0000
# 6 0.0000 0.0000 0.0000 0.0000 0.0000 -150.3740
#
#
#
# Elastic Compliance Matrix: (Units=1/GPa)
#
#
# Indices 1 2 3 4 5 6 
#
# 1 0.007052 -0.003772 0.002830 0.000000 0.000000 0.000000
# 2 -0.003772 0.014232 -0.007191 0.000000 0.000000 0.000000
# 3 0.002830 -0.007191 0.016820 0.000000 0.000000 0.000000
# 4 0.000000 0.000000 0.000000 0.094299 0.000000 0.000000
# 5 0.000000 0.000000 0.000000 0.000000 0.054633 0.000000
# 6 0.000000 0.000000 0.000000 0.000000 0.000000 -0.006650
#
#
# Mechanical properties :
#
#
# Convention : Reuss Voigt Hill
#
# Bulk Modulus (GPa) = 45.79086 51.84828 48.81957
# Shear Modulus (GPa) = 24.51814 -5.63843 9.43986
#
# Velocity S-wave (km/s) = 3.04304 -1.45929 1.88819
# Velocity P-wave (km/s) = 5.44437 4.09180 4.81581
#
# Compressibility (1/GPa) = 0.02183842
#
# Stress axis : x y z
#
# Youngs Moduli (GPa) = 141.80147 70.26535 59.45272
#
# Poissons Ratio (x) = 0.26502 -0.16824
# Poissons Ratio (y) = 0.53482 0.42752
# Poissons Ratio (z) = -0.40128 0.50528
#
# Static dielectric constant tensor:
#      x y z
#    x 1.860040 0.000000 0.000000 
#    y 0.000000 2.188920 0.000000 
#    z 0.000000 0.000000 2.088250 
# 
# From -- ./inp_files/16263.got.cif
#   From: 2010.05.17/outbox.cif.g08.bks.cpg/sg52_9_cif.got.tgz:16263.got - 2010.06.03 12:15:38.
