data_PCOD9413336
_publ_section_title
;
Structure prediction by ZEFSAII (Michael W. Deem and Ramdas Pophale) SiO2 
 PCOD9413336
Probable space group: P N N A
;
_chemical_formula_sum "Si O2"
_cell_formula_units_Z 40
_cell_length_a 23.267681
_cell_length_b 15.429535
_cell_length_c 5.174956
_cell_angle_alpha 90.000000
_cell_angle_beta 90.000000
_cell_angle_gamma 90.000000
_cell_volume 1857.858358
_symmetry_space_group_name_H-M "P N N A"
_symmetry_group_IT_number 52
_symmetry_cell_setting 'orthorhombic'
loop_
_space_group_symop_operation_xyz
x,y,z
1/2-x,-y,z
x,1/2-y,1/2-z
1/2-x,1/2+y,1/2-z
-x,-y,-z
1/2+x,y,-z
-x,1/2+y,1/2+z
1/2+x,1/2-y,1/2+z
loop_
_atom_site_type_symbol
_atom_site_label
_atom_site_fract_x
_atom_site_fract_y
_atom_site_fract_z
Si Si1 0.335069 0.250000 0.250000
Si Si2 0.250000 0.500000 0.893599
Si Si3 0.067517 0.497187 0.556274
Si Si4 0.110397 0.195357 0.014801
Si Si5 0.371100 0.075755 0.440571
Si Si6 0.765484 0.830918 0.057854
O O1 0.367730 0.181200 0.431557
O O2 0.292428 0.314518 0.402646
O O3 0.307332 0.467550 0.039245
O O4 0.234023 0.418919 0.715412
O O5 0.082540 0.395874 0.548278
O O6 0.090988 0.540250 0.820343
O O7 0.000000 0.500000 0.500000
O O8 0.100208 0.544688 0.323388
O O9 0.083809 0.250000 0.250000
O O10 0.110822 0.250000 0.750000
O O11 0.175828 0.172501 0.101945
O O12 0.767545 0.750000 0.250000
#
# Coordination Sequence:
#
# PCOD9413336 Si02
#       6
#     4   4   8   8   8   8
#     4  12  26  42  72 110 158 188 240 308 392 462
#     4  12  24  44  74 108 152 196 238 302 394 448
#     4  12  28  53  76 102 145 200 259 302 356 436
#     4  11  24  44  71 106 138 187 245 302 363 429
#     4  12  28  46  76 109 149 193 243 308 378 443
#     4  11  23  41  66 105 156 186 235 294 374 458
#
# _framework density 21.530166999999999
#
# number of rings (size 3 to 8) (size 9 to 14) (size 15 to 20)
#    0.000    0.400    5.000    3.000    5.600    0.800 
#    5.400    0.000    0.000    0.000    0.000    0.000 
#    0.000    0.000    0.000    0.000    0.000    0.000 
#
# Total GULP energy -223716.126991 kJ/mol
# GULP energy per Si atom -5592.903175 kJ/mol
# Density = 2.148116 g / cm^3
# Si number density = 21.530167 Si / 1000 Ang^3
#
#
#
# Elastic Constant Matrix: (Units=GPa)
#
#
# Indices 1 2 3 4 5 6 
#
# 1 100.7155 46.5696 11.5070 0.0000 0.0000 0.0000
# 2 46.5696 192.0516 50.3461 0.0000 0.0000 0.0000
# 3 11.5070 50.3461 89.6645 0.0000 0.0000 0.0000
# 4 0.0000 0.0000 0.0000 55.6991 0.0000 0.0000
# 5 0.0000 0.0000 0.0000 0.0000 10.8621 0.0000
# 6 0.0000 0.0000 0.0000 0.0000 0.0000 29.7336
#
#
#
# Elastic Compliance Matrix: (Units=1/GPa)
#
#
# Indices 1 2 3 4 5 6 
#
# 1 0.011184 -0.002739 0.000103 0.000000 0.000000 0.000000
# 2 -0.002739 0.006776 -0.003453 0.000000 0.000000 0.000000
# 3 0.000103 -0.003453 0.013079 0.000000 0.000000 0.000000
# 4 0.000000 0.000000 0.000000 0.017954 0.000000 0.000000
# 5 0.000000 0.000000 0.000000 0.000000 0.092063 0.000000
# 6 0.000000 0.000000 0.000000 0.000000 0.000000 0.033632
#
#
# Mechanical properties :
#
#
# Convention : Reuss Voigt Hill
#
# Bulk Modulus (GPa) = 53.02412 66.58635 59.80523
# Shear Modulus (GPa) = 25.88626 37.52623 31.70625
#
# Velocity S-wave (km/s) = 3.47122 4.17941 3.84167
# Velocity P-wave (km/s) = 6.38335 7.36777 6.89315
#
# Compressibility (1/GPa) = 0.01885934
#
# Stress axis : x y z
#
# Youngs Moduli (GPa) = 89.41666 147.57227 76.46089
#
# Poissons Ratio (x) = 0.40416 -0.00784
# Poissons Ratio (y) = 0.24489 0.26405
# Poissons Ratio (z) = -0.00917 0.50963
#
# Static dielectric constant tensor:
#      x y z
#    x 1.819300 0.000000 0.000000 
#    y 0.000000 1.775340 0.000000 
#    z 0.000000 0.000000 1.797610 
# 
# From -- ./inp_files/5037.got.cif
#   From: 2010.05.17/outbox.cif.g08.bks.cpg/sg52_3_cif.got.tgz:5037.got - 2010.06.03 12:15:38.
