data_PCOD9413366
_publ_section_title
;
Structure prediction by ZEFSAII (Michael W. Deem and Ramdas Pophale) SiO2 
 PCOD9413366
Probable space group: P N N A
;
_chemical_formula_sum "Si O2"
_cell_formula_units_Z 40
_cell_length_a 8.797420
_cell_length_b 21.433270
_cell_length_c 9.616646
_cell_angle_alpha 90.000000
_cell_angle_beta 90.000000
_cell_angle_gamma 90.000000
_cell_volume 1813.290518
_symmetry_space_group_name_H-M "P N N A"
_symmetry_group_IT_number 52
_symmetry_cell_setting 'orthorhombic'
loop_
_space_group_symop_operation_xyz
x,y,z
1/2-x,-y,z
x,1/2-y,1/2-z
1/2-x,1/2+y,1/2-z
-x,-y,-z
1/2+x,y,-z
-x,1/2+y,1/2+z
1/2+x,1/2-y,1/2+z
loop_
_atom_site_type_symbol
_atom_site_label
_atom_site_fract_x
_atom_site_fract_y
_atom_site_fract_z
Si Si1 0.543996 0.395478 0.868263
Si Si2 0.889090 0.424665 0.842567
Si Si3 0.572388 0.981782 0.150871
Si Si4 0.613118 0.696819 0.653059
Si Si5 0.950691 0.748059 0.607182
O O1 0.707743 0.428229 0.856684
O O2 0.458432 0.413163 0.721996
O O3 0.574513 0.322480 0.910406
O O4 0.450359 0.418359 0.001318
O O5 0.908029 0.365798 0.738164
O O6 0.985976 0.476188 0.763635
O O7 0.750000 0.000000 0.145221
O O8 0.500000 0.000000 0.000000
O O9 0.544032 0.750000 0.750000
O O10 0.534851 0.708446 0.507463
O O11 0.790587 0.713380 0.631959
O O12 0.044735 0.750000 0.750000
#
# Coordination Sequence:
#
# PCOD9413366 Si02
#       5
#     8   8   8   8   8
#     4  12  23  46  73 101 142 190 233 296 350 423
#     4  12  25  46  74 102 146 188 242 293 355 429
#     4  12  29  50  73 106 139 185 240 299 360 423
#     4  11  23  44  66 104 142 185 235 290 348 426
#     4  11  23  43  67 103 145 181 237 284 354 418
#
# _framework density 22.059343999999999
#
# number of rings (size 3 to 8) (size 9 to 14) (size 15 to 20)
#    0.000    0.400    6.000    3.600    2.800    2.400 
#    3.600    0.000    0.000    0.000    0.000    0.000 
#    0.000    0.000    0.000    0.000    0.000    0.000 
#
# Total GULP energy -223094.344384 kJ/mol
# GULP energy per Si atom -5577.358610 kJ/mol
# Density = 2.200914 g / cm^3
# Si number density = 22.059344 Si / 1000 Ang^3
#
#
#
# Elastic Constant Matrix: (Units=GPa)
#
#
# Indices 1 2 3 4 5 6 
#
# 1 115.3979 32.9388 57.0507 0.0000 0.0000 0.0000
# 2 32.9388 93.7821 31.4493 0.0000 0.0000 0.0000
# 3 57.0507 31.4493 174.0257 0.0000 0.0000 0.0000
# 4 0.0000 0.0000 0.0000 39.0678 0.0000 0.0000
# 5 0.0000 0.0000 0.0000 0.0000 46.7470 0.0000
# 6 0.0000 0.0000 0.0000 0.0000 0.0000 26.3179
#
#
#
# Elastic Compliance Matrix: (Units=1/GPa)
#
#
# Indices 1 2 3 4 5 6 
#
# 1 0.011003 -0.002826 -0.003096 0.000000 0.000000 0.000000
# 2 -0.002826 0.012077 -0.001256 0.000000 0.000000 0.000000
# 3 -0.003096 -0.001256 0.006988 0.000000 0.000000 0.000000
# 4 0.000000 0.000000 0.000000 0.025597 0.000000 0.000000
# 5 0.000000 0.000000 0.000000 0.000000 0.021392 0.000000
# 6 0.000000 0.000000 0.000000 0.000000 0.000000 0.037997
#
#
# Mechanical properties :
#
#
# Convention : Reuss Voigt Hill
#
# Bulk Modulus (GPa) = 63.64909 69.56479 66.60694
# Shear Modulus (GPa) = 37.13388 39.87765 38.50577
#
# Velocity S-wave (km/s) = 4.10733 4.25637 4.18251
# Velocity P-wave (km/s) = 7.17006 7.46722 7.32015
#
# Compressibility (1/GPa) = 0.01571114
#
# Stress axis : x y z
#
# Youngs Moduli (GPa) = 90.88265 82.80302 143.09533
#
# Poissons Ratio (x) = 0.23402 0.44308
# Poissons Ratio (y) = 0.25686 0.17972
# Poissons Ratio (z) = 0.28141 0.10400
#
# Static dielectric constant tensor:
#      x y z
#    x 1.770640 0.000000 0.000000 
#    y 0.000000 56.839510 0.000000 
#    z 0.000000 0.000000 2.116610 
# 
# From -- ./inp_files/7422.got.cif
#   From: 2010.05.17/outbox.cif.g08.bks.cpg/sg52_4_cif.got.tgz:7422.got - 2010.06.03 12:15:38.
