data_PCOD9413944
_publ_section_title
;
Structure prediction by ZEFSAII (Michael W. Deem and Ramdas Pophale) SiO2 
 PCOD9413944
Probable space group: P N N A
;
_chemical_formula_sum "Si O2"
_cell_formula_units_Z 40
_cell_length_a 15.961819
_cell_length_b 12.461880
_cell_length_c 6.921530
_cell_angle_alpha 90.000000
_cell_angle_beta 90.000000
_cell_angle_gamma 90.000000
_cell_volume 1376.791108
_symmetry_space_group_name_H-M "P N N A"
_symmetry_group_IT_number 52
_symmetry_cell_setting 'orthorhombic'
loop_
_space_group_symop_operation_xyz
x,y,z
1/2-x,-y,z
x,1/2-y,1/2-z
1/2-x,1/2+y,1/2-z
-x,-y,-z
1/2+x,y,-z
-x,1/2+y,1/2+z
1/2+x,1/2-y,1/2+z
loop_
_atom_site_type_symbol
_atom_site_label
_atom_site_fract_x
_atom_site_fract_y
_atom_site_fract_z
Si Si1 0.996959 0.739146 0.016102
Si Si2 0.330997 0.141281 0.928332
Si Si3 0.715042 0.647161 0.977785
Si Si4 0.086743 0.057217 0.941661
Si Si5 0.609276 0.456472 0.979565
O O1 0.008761 0.750000 0.250000
O O2 0.919053 0.821702 0.989936
O O3 0.967632 0.623925 0.928823
O O4 0.078244 0.797982 0.928637
O O5 0.282259 0.226225 0.055165
O O6 0.292104 0.136029 0.714615
O O7 0.342635 0.023610 0.012985
O O8 0.630480 0.580172 0.919656
O O9 0.802867 0.596648 0.924965
O O10 0.098137 0.049838 0.711479
O O11 0.000000 0.000000 0.000000
#
# Coordination Sequence:
#
# PCOD9413944 Si02
#       5
#     8   8   8   8   8
#     4   9  17  28  46  67  90 124 160 194 234 291
#     4   9  17  28  43  68  95 122 152 198 241 284
#     4   9  18  29  45  69  98 122 154 202 247 279
#     4   8  15  27  42  64  95 119 149 193 234 277
#     4   9  17  29  45  69  94 123 161 199 239 286
#
# _framework density 29.053063000000002
#
# number of rings (size 3 to 8) (size 9 to 14) (size 15 to 20)
#    0.000    3.200    0.000    0.000    8.400    0.800 
#    0.000    0.000    0.000    0.000    5.200   22.400 
#    0.000    0.000    0.000    0.000    0.000    0.000 
#
# Total GULP energy -223512.196274 kJ/mol
# GULP energy per Si atom -5587.804907 kJ/mol
# Density = 2.898694 g / cm^3
# Si number density = 29.053063 Si / 1000 Ang^3
#
#
#
# Elastic Constant Matrix: (Units=GPa)
#
#
# Indices 1 2 3 4 5 6 
#
# 1 158.3774 19.6065 -6.6795 0.0000 0.0000 0.0000
# 2 19.6065 76.8122 -14.9846 0.0000 0.0000 0.0000
# 3 -6.6795 -14.9846 147.4680 0.0000 0.0000 0.0000
# 4 0.0000 0.0000 0.0000 10.3411 0.0000 0.0000
# 5 0.0000 0.0000 0.0000 0.0000 13.5719 0.0000
# 6 0.0000 0.0000 0.0000 0.0000 0.0000 49.4943
#
#
#
# Elastic Compliance Matrix: (Units=1/GPa)
#
#
# Indices 1 2 3 4 5 6 
#
# 1 0.006522 -0.001640 0.000129 0.000000 0.000000 0.000000
# 2 -0.001640 0.013694 0.001317 0.000000 0.000000 0.000000
# 3 0.000129 0.001317 0.006921 0.000000 0.000000 0.000000
# 4 0.000000 0.000000 0.000000 0.096702 0.000000 0.000000
# 5 0.000000 0.000000 0.000000 0.000000 0.073682 0.000000
# 6 0.000000 0.000000 0.000000 0.000000 0.000000 0.020204
#
#
# Mechanical properties :
#
#
# Convention : Reuss Voigt Hill
#
# Bulk Modulus (GPa) = 37.38292 42.06025 39.72159
# Shear Modulus (GPa) = 22.02357 40.32914 31.17636
#
# Velocity S-wave (km/s) = 2.75625 3.72979 3.27935
# Velocity P-wave (km/s) = 4.79836 5.74951 5.29534
#
# Compressibility (1/GPa) = 0.02675018
#
# Stress axis : x y z
#
# Youngs Moduli (GPa) = 153.31642 73.02318 144.49163
#
# Poissons Ratio (x) = 0.11974 -0.01861
# Poissons Ratio (y) = 0.25140 -0.19033
# Poissons Ratio (z) = -0.01975 -0.09619
#
# Static dielectric constant tensor:
#      x y z
#    x 2.242100 0.000000 0.000000 
#    y 0.000000 2.373500 0.000000 
#    z 0.000000 0.000000 2.259230 
# 
# From -- ./inp_files/19381.got.cif
#   From: 2010.05.17/outbox.cif.g08.bks.cpg/sg52_10_cif.got.tgz:19381.got - 2010.06.03 12:15:38.
