data_PCOD9413889
_publ_section_title
;
Structure prediction by ZEFSAII (Michael W. Deem and Ramdas Pophale) SiO2 
 PCOD9413889
Probable space group: P N N A
;
_chemical_formula_sum "Si O2"
_cell_formula_units_Z 20
_cell_length_a 22.443731
_cell_length_b 4.904050
_cell_length_c 7.978852
_cell_angle_alpha 90.000000
_cell_angle_beta 90.000000
_cell_angle_gamma 90.000000
_cell_volume 878.193774
_symmetry_space_group_name_H-M "P N N A"
_symmetry_group_IT_number 52
_symmetry_cell_setting 'orthorhombic'
loop_
_space_group_symop_operation_xyz
x,y,z
1/2-x,-y,z
x,1/2-y,1/2-z
1/2-x,1/2+y,1/2-z
-x,-y,-z
1/2+x,y,-z
-x,1/2+y,1/2+z
1/2+x,1/2-y,1/2+z
loop_
_atom_site_type_symbol
_atom_site_label
_atom_site_fract_x
_atom_site_fract_y
_atom_site_fract_z
Si Si1 0.560118 0.641816 0.937276
Si Si2 0.870177 0.646480 0.439721
Si Si3 0.250000 0.000000 0.125797
O O1 0.552784 0.750000 0.750000
O O2 0.500000 0.500000 0.000000
O O3 0.608840 0.403059 0.949509
O O4 0.582423 0.900267 0.044668
O O5 0.866415 0.750000 0.250000
O O6 0.807448 0.545352 0.510189
O O7 0.260724 0.250000 0.250000
#
# Coordination Sequence:
#
# PCOD9413889 Si02
#       3
#     8   8   4
#     4  12  26  48  73 103 142 188 236 289 352 422
#     4  12  27  47  72 106 143 185 235 293 352 417
#     4  12  26  48  74 102 140 188 236 288 350 420
#
# _framework density 22.774017000000001
#
# number of rings (size 3 to 8) (size 9 to 14) (size 15 to 20)
#    0.000    0.000    0.000   10.800    0.000    8.000 
#    0.000    2.000    0.000    0.000    0.000    0.000 
#    0.000    0.000    0.000    0.000    0.000    0.000 
#
# Total GULP energy -112290.494208 kJ/mol
# GULP energy per Si atom -5614.524710 kJ/mol
# Density = 2.272218 g / cm^3
# Si number density = 22.774017 Si / 1000 Ang^3
#
#
#
# Elastic Constant Matrix: (Units=GPa)
#
#
# Indices 1 2 3 4 5 6 
#
# 1 158.6137 87.3193 116.1646 0.0000 0.0000 0.0000
# 2 87.3193 201.0278 103.4814 0.0000 0.0000 0.0000
# 3 116.1646 103.4814 201.4459 0.0000 0.0000 0.0000
# 4 0.0000 0.0000 0.0000 49.1484 0.0000 0.0000
# 5 0.0000 0.0000 0.0000 0.0000 31.0866 0.0000
# 6 0.0000 0.0000 0.0000 0.0000 0.0000 49.1539
#
#
#
# Elastic Compliance Matrix: (Units=1/GPa)
#
#
# Indices 1 2 3 4 5 6 
#
# 1 0.011566 -0.002162 -0.005559 0.000000 0.000000 0.000000
# 2 -0.002162 0.007167 -0.002435 0.000000 0.000000 0.000000
# 3 -0.005559 -0.002435 0.009420 0.000000 0.000000 0.000000
# 4 0.000000 0.000000 0.000000 0.020347 0.000000 0.000000
# 5 0.000000 0.000000 0.000000 0.000000 0.032168 0.000000
# 6 0.000000 0.000000 0.000000 0.000000 0.000000 0.020344
#
#
# Mechanical properties :
#
#
# Convention : Reuss Voigt Hill
#
# Bulk Modulus (GPa) = 127.52508 130.55756 129.04132
# Shear Modulus (GPa) = 40.34255 42.81924 41.58089
#
# Velocity S-wave (km/s) = 4.21340 4.34081 4.27758
# Velocity P-wave (km/s) = 8.93240 9.08710 9.01008
#
# Compressibility (1/GPa) = 0.00784159
#
# Stress axis : x y z
#
# Youngs Moduli (GPa) = 86.45796 139.52846 106.15326
#
# Poissons Ratio (x) = 0.30173 0.59010
# Poissons Ratio (y) = 0.18696 0.25844
# Poissons Ratio (z) = 0.48061 0.33970
#
# Static dielectric constant tensor:
#      x y z
#    x 1.845940 0.000000 0.000000 
#    y 0.000000 1.791950 0.000000 
#    z 0.000000 0.000000 1.802570 
# 
# From -- ./inp_files/11175.got.cif
#   From: 2010.05.17/outbox.cif.g08.bks.cpg/sg52_6_cif.got.tgz:11175.got - 2010.06.03 12:15:38.
