data_PCOD9413627
_publ_section_title
;
Structure prediction by ZEFSAII (Michael W. Deem and Ramdas Pophale) SiO2 
 PCOD9413627
Probable space group: P N N A
;
_chemical_formula_sum "Si O2"
_cell_formula_units_Z 32
_cell_length_a 31.648577
_cell_length_b 8.814994
_cell_length_c 5.102082
_cell_angle_alpha 90.000000
_cell_angle_beta 90.000000
_cell_angle_gamma 90.000000
_cell_volume 1423.389124
_symmetry_space_group_name_H-M "P N N A"
_symmetry_group_IT_number 52
_symmetry_cell_setting 'orthorhombic'
loop_
_space_group_symop_operation_xyz
x,y,z
1/2-x,-y,z
x,1/2-y,1/2-z
1/2-x,1/2+y,1/2-z
-x,-y,-z
1/2+x,y,-z
-x,1/2+y,1/2+z
1/2+x,1/2-y,1/2+z
loop_
_atom_site_type_symbol
_atom_site_label
_atom_site_fract_x
_atom_site_fract_y
_atom_site_fract_z
Si Si1 0.876904 0.079265 0.351842
Si Si2 0.163774 0.353240 0.504987
Si Si3 0.290240 0.076235 0.325977
Si Si4 0.468014 0.359724 0.003504
O O1 0.875464 0.250000 0.250000
O O2 0.834159 0.064152 0.518189
O O3 0.920624 0.070148 0.506170
O O4 0.874101 0.957198 0.117783
O O5 0.176462 0.250000 0.750000
O O6 0.200265 0.469837 0.423614
O O7 0.154106 0.250000 0.250000
O O8 0.282593 0.250000 0.250000
O O9 0.250000 0.000000 0.461943
O O10 0.471881 0.250000 0.750000
O O11 0.474135 0.250000 0.250000
O O12 0.500000 0.500000 0.000000
#
# Coordination Sequence:
#
# PCOD9413627 Si02
#       4
#     8   8   8   8
#     4  11  25  49  81 104 152 204 249 301 381 455
#     4  12  26  47  72 110 144 188 252 313 365 432
#     4  12  26  48  75 109 149 201 254 311 367 443
#     4  11  26  50  80 115 154 196 250 307 382 454
#
# _framework density 22.481552000000001
#
# number of rings (size 3 to 8) (size 9 to 14) (size 15 to 20)
#    0.000    0.500    5.000    2.250    3.500    2.000 
#    9.000    0.000    0.000    0.000    0.000    0.000 
#    0.000    0.000    0.000    0.000    0.000    0.000 
#
# Total GULP energy -179019.765012 kJ/mol
# GULP energy per Si atom -5594.367657 kJ/mol
# Density = 2.243038 g / cm^3
# Si number density = 22.481552 Si / 1000 Ang^3
#
#
#
# Elastic Constant Matrix: (Units=GPa)
#
#
# Indices 1 2 3 4 5 6 
#
# 1 192.6430 85.8342 58.5540 0.0000 0.0000 0.0000
# 2 85.8342 193.5677 79.7710 0.0000 0.0000 0.0000
# 3 58.5540 79.7710 150.8966 0.0000 0.0000 0.0000
# 4 0.0000 0.0000 0.0000 41.7113 0.0000 0.0000
# 5 0.0000 0.0000 0.0000 0.0000 29.9824 0.0000
# 6 0.0000 0.0000 0.0000 0.0000 0.0000 25.6349
#
#
#
# Elastic Compliance Matrix: (Units=1/GPa)
#
#
# Indices 1 2 3 4 5 6 
#
# 1 0.006665 -0.002416 -0.001309 0.000000 0.000000 0.000000
# 2 -0.002416 0.007481 -0.003017 0.000000 0.000000 0.000000
# 3 -0.001309 -0.003017 0.008730 0.000000 0.000000 0.000000
# 4 0.000000 0.000000 0.000000 0.023974 0.000000 0.000000
# 5 0.000000 0.000000 0.000000 0.000000 0.033353 0.000000
# 6 0.000000 0.000000 0.000000 0.000000 0.000000 0.039009
#
#
# Mechanical properties :
#
#
# Convention : Reuss Voigt Hill
#
# Bulk Modulus (GPa) = 106.48013 109.49174 107.98593
# Shear Modulus (GPa) = 36.81109 40.32892 38.57001
#
# Velocity S-wave (km/s) = 4.05086 4.24000 4.14651
# Velocity P-wave (km/s) = 8.32739 8.53105 8.42984
#
# Compressibility (1/GPa) = 0.00939142
#
# Stress axis : x y z
#
# Youngs Moduli (GPa) = 150.02839 133.67239 114.54603
#
# Poissons Ratio (x) = 0.32297 0.14996
# Poissons Ratio (y) = 0.36249 0.34561
# Poissons Ratio (z) = 0.19641 0.40332
#
# Static dielectric constant tensor:
#      x y z
#    x 1.856940 0.000000 0.000000 
#    y 0.000000 1.840960 0.000000 
#    z 0.000000 0.000000 1.910100 
# 
# From -- ./inp_files/6230.got.cif
#   From: 2010.05.17/outbox.cif.g08.bks.cpg/sg52_4_cif.got.tgz:6230.got - 2010.06.03 12:15:38.
