data_PCOD9413425
_publ_section_title
;
Structure prediction by ZEFSAII (Michael W. Deem and Ramdas Pophale) SiO2 
 PCOD9413425
Probable space group: P N N A
;
_chemical_formula_sum "Si O2"
_cell_formula_units_Z 36
_cell_length_a 21.681142
_cell_length_b 12.352406
_cell_length_c 5.302092
_cell_angle_alpha 90.000000
_cell_angle_beta 90.000000
_cell_angle_gamma 90.000000
_cell_volume 1419.975891
_symmetry_space_group_name_H-M "P N N A"
_symmetry_group_IT_number 52
_symmetry_cell_setting 'orthorhombic'
loop_
_space_group_symop_operation_xyz
x,y,z
1/2-x,-y,z
x,1/2-y,1/2-z
1/2-x,1/2+y,1/2-z
-x,-y,-z
1/2+x,y,-z
-x,1/2+y,1/2+z
1/2+x,1/2-y,1/2+z
loop_
_atom_site_type_symbol
_atom_site_label
_atom_site_fract_x
_atom_site_fract_y
_atom_site_fract_z
Si Si1 0.422307 0.984146 0.368876
Si Si2 0.525936 0.869391 0.195516
Si Si3 0.332749 0.820441 0.503826
Si Si4 0.342433 0.137934 0.094578
Si Si5 0.750000 0.500000 0.230609
O O1 0.463798 0.939466 0.138450
O O2 0.398987 0.879044 0.512729
O O3 0.454630 0.071294 0.545990
O O4 0.360670 0.043717 0.284700
O O5 0.503017 0.750000 0.250000
O O6 0.589519 0.850824 0.040540
O O7 0.327354 0.750000 0.750000
O O8 0.282596 0.912711 0.552270
O O9 0.325947 0.750000 0.250000
O O10 0.327620 0.250000 0.250000
O O11 0.294112 0.079016 0.905188
#
# Coordination Sequence:
#
# PCOD9413425 Si02
#       5
#     8   8   8   8   4
#     4  11  25  47  79 115 164 213 270 348 420 510
#     4  11  23  47  75 120 161 212 274 343 425 505
#     4  12  29  54  81 118 164 219 278 351 427 505
#     4  12  26  51  81 117 168 223 283 352 428 508
#     4  12  30  52  78 118 166 222 298 352 432 518
#
# _framework density 25.352540999999999
#
# number of rings (size 3 to 8) (size 9 to 14) (size 15 to 20)
#    0.000    0.444    4.444    2.667    0.000    8.889 
#    8.000    0.000    0.000    0.000    0.000    0.000 
#    0.000    0.000    0.000    0.000    0.000    0.000 
#
# Total GULP energy -200875.221422 kJ/mol
# GULP energy per Si atom -5579.867262 kJ/mol
# Density = 2.529484 g / cm^3
# Si number density = 25.352541 Si / 1000 Ang^3
#
#
#
# Elastic Constant Matrix: (Units=GPa)
#
#
# Indices 1 2 3 4 5 6 
#
# 1 90.3929 83.7271 24.4532 0.0000 0.0000 0.0000
# 2 83.7271 205.3209 90.4369 0.0000 0.0000 0.0000
# 3 24.4532 90.4369 103.2002 0.0000 0.0000 0.0000
# 4 0.0000 0.0000 0.0000 55.9866 0.0000 0.0000
# 5 0.0000 0.0000 0.0000 0.0000 138.9918 0.0000
# 6 0.0000 0.0000 0.0000 0.0000 0.0000 260.1959
#
#
#
# Elastic Compliance Matrix: (Units=1/GPa)
#
#
# Indices 1 2 3 4 5 6 
#
# 1 0.018583 -0.009183 0.003644 0.000000 0.000000 0.000000
# 2 -0.009183 0.012470 -0.008752 0.000000 0.000000 0.000000
# 3 0.003644 -0.008752 0.016496 0.000000 0.000000 0.000000
# 4 0.000000 0.000000 0.000000 0.017861 0.000000 0.000000
# 5 0.000000 0.000000 0.000000 0.000000 0.007195 0.000000
# 6 0.000000 0.000000 0.000000 0.000000 0.000000 0.003843
#
#
# Mechanical properties :
#
#
# Convention : Reuss Voigt Hill
#
# Bulk Modulus (GPa) = 52.72267 88.46092 70.59180
# Shear Modulus (GPa) = 44.90274 104.38797 74.64536
#
# Velocity S-wave (km/s) = 4.21305 6.42370 5.43202
# Velocity P-wave (km/s) = 6.67138 9.48613 8.20043
#
# Compressibility (1/GPa) = 0.01896717
#
# Stress axis : x y z
#
# Youngs Moduli (GPa) = 53.81347 80.19274 60.62098
#
# Poissons Ratio (x) = 0.73640 -0.22090
# Poissons Ratio (y) = 0.49416 0.53055
# Poissons Ratio (z) = -0.19609 0.70184
#
# Static dielectric constant tensor:
#      x y z
#    x 2.166290 0.000000 0.000000 
#    y 0.000000 2.538920 0.000000 
#    z 0.000000 0.000000 2.113040 
# 
# From -- ./inp_files/4896.got.cif
#   From: 2010.05.17/outbox.cif.g08.bks.cpg/sg52_3_cif.got.tgz:4896.got - 2010.06.03 12:15:38.
