data_PCOD9413272
_publ_section_title
;
Structure prediction by ZEFSAII (Michael W. Deem and Ramdas Pophale) SiO2 
 PCOD9413272
Probable space group: P N N A
;
_chemical_formula_sum "Si O2"
_cell_formula_units_Z 40
_cell_length_a 9.443424
_cell_length_b 14.451311
_cell_length_c 14.526953
_cell_angle_alpha 90.000000
_cell_angle_beta 90.000000
_cell_angle_gamma 90.000000
_cell_volume 1982.491200
_symmetry_space_group_name_H-M "P N N A"
_symmetry_group_IT_number 52
_symmetry_cell_setting 'orthorhombic'
loop_
_space_group_symop_operation_xyz
x,y,z
1/2-x,-y,z
x,1/2-y,1/2-z
1/2-x,1/2+y,1/2-z
-x,-y,-z
1/2+x,y,-z
-x,1/2+y,1/2+z
1/2+x,1/2-y,1/2+z
loop_
_atom_site_type_symbol
_atom_site_label
_atom_site_fract_x
_atom_site_fract_y
_atom_site_fract_z
Si Si1 0.375411 0.439044 0.543504
Si Si2 0.083310 0.474874 0.134693
Si Si3 0.023197 0.351858 0.955155
Si Si4 0.244487 0.230059 0.052124
Si Si5 0.966080 0.666121 0.701052
O O1 0.250000 0.500000 0.584332
O O2 0.500000 0.500000 0.500000
O O3 0.299988 0.371950 0.470944
O O4 0.443556 0.375304 0.619600
O O5 0.250000 0.500000 0.121595
O O6 0.986648 0.567517 0.122782
O O7 0.069759 0.416201 0.228321
O O8 0.034627 0.408528 0.051042
O O9 0.877559 0.297341 0.943303
O O10 0.143898 0.273982 0.972213
O O11 0.162976 0.218219 0.148621
O O12 0.046531 0.750000 0.750000
#
# Coordination Sequence:
#
# PCOD9413272 Si02
#       5
#     8   8   8   8   8
#     4  12  25  46  71  98 134 189 229 283 348 425
#     4  11  23  41  69 104 139 178 231 287 351 424
#     4  11  22  43  70 102 133 183 223 284 358 418
#     4  12  22  44  73  93 137 182 234 283 352 421
#     4  12  24  44  69 102 140 178 236 291 344 411
#
# _framework density 20.176632999999999
#
# number of rings (size 3 to 8) (size 9 to 14) (size 15 to 20)
#    0.000    0.400    8.000    0.000    2.800    0.000 
#    7.200    0.000    0.000    0.000    0.000    0.000 
#    0.000    0.000    0.000    0.000    0.000    0.000 
#
# Total GULP energy -223161.209314 kJ/mol
# GULP energy per Si atom -5579.030233 kJ/mol
# Density = 2.013071 g / cm^3
# Si number density = 20.176633 Si / 1000 Ang^3
#
#
#
# Elastic Constant Matrix: (Units=GPa)
#
#
# Indices 1 2 3 4 5 6 
#
# 1 65.7449 34.1389 8.3418 0.0000 0.0000 0.0000
# 2 34.1389 81.7141 14.8131 0.0000 0.0000 0.0000
# 3 8.3418 14.8131 55.5944 0.0000 0.0000 0.0000
# 4 0.0000 0.0000 0.0000 58.7464 0.0000 0.0000
# 5 0.0000 0.0000 0.0000 0.0000 11.5560 0.0000
# 6 0.0000 0.0000 0.0000 0.0000 0.0000 57.8091
#
#
#
# Elastic Compliance Matrix: (Units=1/GPa)
#
#
# Indices 1 2 3 4 5 6 
#
# 1 0.019457 -0.007985 -0.000792 0.000000 0.000000 0.000000
# 2 -0.007985 0.016136 -0.003101 0.000000 0.000000 0.000000
# 3 -0.000792 -0.003101 0.018933 0.000000 0.000000 0.000000
# 4 0.000000 0.000000 0.000000 0.017022 0.000000 0.000000
# 5 0.000000 0.000000 0.000000 0.000000 0.086535 0.000000
# 6 0.000000 0.000000 0.000000 0.000000 0.000000 0.017298
#
#
# Mechanical properties :
#
#
# Convention : Reuss Voigt Hill
#
# Bulk Modulus (GPa) = 32.50024 35.29345 33.89685
# Shear Modulus (GPa) = 23.87827 35.33959 29.60893
#
# Velocity S-wave (km/s) = 3.44388 4.18965 3.83493
# Velocity P-wave (km/s) = 5.65301 6.39800 6.03701
#
# Compressibility (1/GPa) = 0.03076900
#
# Stress axis : x y z
#
# Youngs Moduli (GPa) = 51.39457 61.97251 52.81903
#
# Poissons Ratio (x) = 0.49488 0.04182
# Poissons Ratio (y) = 0.41041 0.16381
# Poissons Ratio (z) = 0.04070 0.19219
#
# Static dielectric constant tensor:
#      x y z
#    x 1.712040 0.000000 0.000000 
#    y 0.000000 1.789640 0.000000 
#    z 0.000000 0.000000 1.825180 
# 
# From -- ./inp_files/24401.got.cif
#   From: 2010.05.17/outbox.cif.g08.bks.cpg/sg52_13_cif.got.tgz:24401.got - 2010.06.03 12:15:38.
