data_PCOD9413302
_publ_section_title
;
Structure prediction by ZEFSAII (Michael W. Deem and Ramdas Pophale) SiO2 
 PCOD9413302
Probable space group: P N N A
;
_chemical_formula_sum "Si O2"
_cell_formula_units_Z 36
_cell_length_a 9.908030
_cell_length_b 8.065034
_cell_length_c 17.883005
_cell_angle_alpha 90.000000
_cell_angle_beta 90.000000
_cell_angle_gamma 90.000000
_cell_volume 1429.005872
_symmetry_space_group_name_H-M "P N N A"
_symmetry_group_IT_number 52
_symmetry_cell_setting 'orthorhombic'
loop_
_space_group_symop_operation_xyz
x,y,z
1/2-x,-y,z
x,1/2-y,1/2-z
1/2-x,1/2+y,1/2-z
-x,-y,-z
1/2+x,y,-z
-x,1/2+y,1/2+z
1/2+x,1/2-y,1/2+z
loop_
_atom_site_type_symbol
_atom_site_label
_atom_site_fract_x
_atom_site_fract_y
_atom_site_fract_z
Si Si1 0.986993 0.048727 0.086892
Si Si2 0.457714 0.726364 0.837397
Si Si3 0.094231 0.588647 0.935463
Si Si4 0.715688 0.234691 0.838116
Si Si5 0.250000 0.500000 0.060130
O O1 0.910926 0.894506 0.122985
O O2 0.924195 0.229752 0.097632
O O3 0.131521 0.082524 0.128049
O O4 0.000000 0.000000 0.000000
O O5 0.432351 0.750000 0.750000
O O6 0.397815 0.558947 0.874082
O O7 0.622650 0.736793 0.848637
O O8 0.841006 0.605476 0.883197
O O9 0.000000 0.500000 0.000000
O O10 0.690072 0.250000 0.750000
O O11 0.789518 0.366055 0.002484
#
# Coordination Sequence:
#
# PCOD9413302 Si02
#       5
#     8   8   8   8   4
#     4  12  23  40  64  96 137 180 216 255 333 405
#     4  11  25  42  66 101 137 170 220 283 340 392
#     4  12  23  43  66  93 133 177 221 272 327 398
#     4  11  23  35  65 103 140 171 212 278 341 391
#     4  12  22  44  66  96 138 172 224 272 328 396
#
# _framework density 25.192337999999999
#
# number of rings (size 3 to 8) (size 9 to 14) (size 15 to 20)
#    0.000    0.444    6.667    0.667    9.333    0.000 
#    0.000    1.111    4.889    0.000    0.000    0.000 
#    0.000    0.000    0.000    0.000    0.000    0.000 
#
# Total GULP energy -200408.914238 kJ/mol
# GULP energy per Si atom -5566.914284 kJ/mol
# Density = 2.513500 g / cm^3
# Si number density = 25.192338 Si / 1000 Ang^3
#
#
#
# Elastic Constant Matrix: (Units=GPa)
#
#
# Indices 1 2 3 4 5 6 
#
# 1 47.5500 26.5079 27.2007 0.0000 0.0000 0.0000
# 2 26.5079 254.1919 98.9198 0.0000 0.0000 0.0000
# 3 27.2007 98.9198 219.6868 0.0000 0.0000 0.0000
# 4 0.0000 0.0000 0.0000 33.0937 0.0000 0.0000
# 5 0.0000 0.0000 0.0000 0.0000 9.8789 0.0000
# 6 0.0000 0.0000 0.0000 0.0000 0.0000 27.0854
#
#
#
# Elastic Compliance Matrix: (Units=1/GPa)
#
#
# Indices 1 2 3 4 5 6 
#
# 1 0.023142 -0.001574 -0.002157 0.000000 0.000000 0.000000
# 2 -0.001574 0.004877 -0.002001 0.000000 0.000000 0.000000
# 3 -0.002157 -0.002001 0.005720 0.000000 0.000000 0.000000
# 4 0.000000 0.000000 0.000000 0.030217 0.000000 0.000000
# 5 0.000000 0.000000 0.000000 0.000000 0.101226 0.000000
# 6 0.000000 0.000000 0.000000 0.000000 0.000000 0.036920
#
#
# Mechanical properties :
#
#
# Convention : Reuss Voigt Hill
#
# Bulk Modulus (GPa) = 44.89294 91.85393 68.37344
# Shear Modulus (GPa) = 22.62539 38.59829 30.61184
#
# Velocity S-wave (km/s) = 3.00009 3.91851 3.48965
# Velocity P-wave (km/s) = 5.46439 7.55071 6.59062
#
# Compressibility (1/GPa) = 0.02227522
#
# Stress axis : x y z
#
# Youngs Moduli (GPa) = 43.21214 205.04818 174.82586
#
# Poissons Ratio (x) = 0.32276 0.37702
# Poissons Ratio (y) = 0.06802 0.34984
# Poissons Ratio (z) = 0.09319 0.41031
#
# Static dielectric constant tensor:
#      x y z
#    x 1.092310 0.000000 0.000000 
#    y 0.000000 2.009060 0.000000 
#    z 0.000000 0.000000 4.245160 
# 
# From -- ./inp_files/27815.got.cif
#   From: 2010.05.17/outbox.cif.g08.bks.cpg/sg52_14_cif.got.tgz:27815.got - 2010.06.03 12:15:38.
