data_PCOD9413585
_publ_section_title
;
Structure prediction by ZEFSAII (Michael W. Deem and Ramdas Pophale) SiO2 
 PCOD9413585
Probable space group: P N N A
;
_chemical_formula_sum "Si O2"
_cell_formula_units_Z 32
_cell_length_a 16.219732
_cell_length_b 9.911212
_cell_length_c 8.057761
_cell_angle_alpha 90.000000
_cell_angle_beta 90.000000
_cell_angle_gamma 90.000000
_cell_volume 1295.343116
_symmetry_space_group_name_H-M "P N N A"
_symmetry_group_IT_number 52
_symmetry_cell_setting 'orthorhombic'
loop_
_space_group_symop_operation_xyz
x,y,z
1/2-x,-y,z
x,1/2-y,1/2-z
1/2-x,1/2+y,1/2-z
-x,-y,-z
1/2+x,y,-z
-x,1/2+y,1/2+z
1/2+x,1/2-y,1/2+z
loop_
_atom_site_type_symbol
_atom_site_label
_atom_site_fract_x
_atom_site_fract_y
_atom_site_fract_z
Si Si1 0.308492 0.250000 0.750000
Si Si2 0.750000 0.000000 0.800941
Si Si3 0.925593 0.012630 0.238551
Si Si4 0.592898 0.475429 0.875511
Si Si5 0.664393 0.217464 0.030826
O O1 0.367460 0.133941 0.821923
O O2 0.240276 0.299016 0.883589
O O3 0.674352 0.952836 0.689929
O O4 0.710599 0.114702 0.912107
O O5 0.024595 0.014657 0.229596
O O6 0.922354 0.032104 0.439517
O O7 0.888887 0.876096 0.158307
O O8 0.610023 0.320089 0.925393
#
# Coordination Sequence:
#
# PCOD9413585 Si02
#       5
#     4   4   8   8   8
#     4  12  22  42  74 100 136 196 236 286 348 448
#     4  12  26  42  70 106 140 184 238 302 358 428
#     4  11  25  45  73 103 140 196 238 291 366 440
#     4  11  26  46  71 106 148 182 242 310 357 425
#     4  12  24  46  73 102 144 194 236 291 368 441
#
# _framework density 24.703879000000001
#
# number of rings (size 3 to 8) (size 9 to 14) (size 15 to 20)
#    0.000    0.500    5.000    2.250    3.500    3.000 
#    0.000    5.000    0.000    0.000    0.000    0.000 
#    0.000    0.000    0.000    0.000    0.000    0.000 
#
# Total GULP energy -178642.112133 kJ/mol
# GULP energy per Si atom -5582.566004 kJ/mol
# Density = 2.464765 g / cm^3
# Si number density = 24.703879 Si / 1000 Ang^3
#
#
#
# Elastic Constant Matrix: (Units=GPa)
#
#
# Indices 1 2 3 4 5 6 
#
# 1 177.3181 43.8020 34.2097 0.0000 0.0000 0.0000
# 2 43.8020 79.9820 -6.2889 0.0000 0.0000 0.0000
# 3 34.2097 -6.2889 47.2297 0.0000 0.0000 0.0000
# 4 0.0000 0.0000 0.0000 34.2794 0.0000 0.0000
# 5 0.0000 0.0000 0.0000 0.0000 39.0244 0.0000
# 6 0.0000 0.0000 0.0000 0.0000 0.0000 31.9724
#
#
#
# Elastic Compliance Matrix: (Units=1/GPa)
#
#
# Indices 1 2 3 4 5 6 
#
# 1 0.008131 -0.004968 -0.006551 0.000000 0.000000 0.000000
# 2 -0.004968 0.015670 0.005685 0.000000 0.000000 0.000000
# 3 -0.006551 0.005685 0.026675 0.000000 0.000000 0.000000
# 4 0.000000 0.000000 0.000000 0.029172 0.000000 0.000000
# 5 0.000000 0.000000 0.000000 0.000000 0.025625 0.000000
# 6 0.000000 0.000000 0.000000 0.000000 0.000000 0.031277
#
#
# Mechanical properties :
#
#
# Convention : Reuss Voigt Hill
#
# Bulk Modulus (GPa) = 25.76736 49.77504 37.77120
# Shear Modulus (GPa) = 31.02638 36.57570 33.80104
#
# Velocity S-wave (km/s) = 3.54776 3.85199 3.70300
# Velocity P-wave (km/s) = 5.21874 6.32267 5.79704
#
# Compressibility (1/GPa) = 0.03880879
#
# Stress axis : x y z
#
# Youngs Moduli (GPa) = 122.99285 63.81463 37.48840
#
# Poissons Ratio (x) = 0.31702 0.24557
# Poissons Ratio (y) = 0.61100 -0.21312
# Poissons Ratio (z) = 0.80568 -0.36278
#
# Static dielectric constant tensor:
#      x y z
#    x 2.105050 0.000000 0.000000 
#    y 0.000000 1.917410 0.000000 
#    z 0.000000 0.000000 2.100560 
# 
# From -- ./inp_files/9618.got.cif
#   From: 2010.05.17/outbox.cif.g08.bks.cpg/sg52_5_cif.got.tgz:9618.got - 2010.06.03 12:15:38.
