data_PCOD9413213
_publ_section_title
;
Structure prediction by ZEFSAII (Michael W. Deem and Ramdas Pophale) SiO2 
 PCOD9413213
Probable space group: P N N A
;
_chemical_formula_sum "Si O2"
_cell_formula_units_Z 32
_cell_length_a 9.320805
_cell_length_b 10.197001
_cell_length_c 16.131063
_cell_angle_alpha 90.000000
_cell_angle_beta 90.000000
_cell_angle_gamma 90.000000
_cell_volume 1533.164912
_symmetry_space_group_name_H-M "P N N A"
_symmetry_group_IT_number 52
_symmetry_cell_setting 'orthorhombic'
loop_
_space_group_symop_operation_xyz
x,y,z
1/2-x,-y,z
x,1/2-y,1/2-z
1/2-x,1/2+y,1/2-z
-x,-y,-z
1/2+x,y,-z
-x,1/2+y,1/2+z
1/2+x,1/2-y,1/2+z
loop_
_atom_site_type_symbol
_atom_site_label
_atom_site_fract_x
_atom_site_fract_y
_atom_site_fract_z
Si Si1 0.756072 0.654228 0.025326
Si Si2 0.460127 0.739342 0.111141
Si Si3 0.585342 0.037859 0.763277
Si Si4 0.153397 0.370359 0.797784
O O1 0.750000 0.500000 0.002154
O O2 0.602680 0.703087 0.059189
O O3 0.859975 0.662214 0.105682
O O4 0.824597 0.732669 0.950126
O O5 0.467633 0.877263 0.158582
O O6 0.437740 0.628931 0.182008
O O7 0.750000 0.000000 0.772569
O O8 0.492363 0.908444 0.747525
O O9 0.250000 0.500000 0.793280
O O10 0.224675 0.250000 0.750000
#
# Coordination Sequence:
#
# PCOD9413213 Si02
#       4
#     8   8   8   8
#     4  11  22  39  69  99 130 175 229 293 336 402
#     4  11  24  43  67 101 138 172 235 289 341 402
#     4  11  25  43  66  97 142 181 227 279 346 418
#     4  11  23  42  68  99 133 180 225 280 346 412
#
# _framework density 20.871858
#
# number of rings (size 3 to 8) (size 9 to 14) (size 15 to 20)
#    0.000    1.000    5.000    3.000    7.000    0.000 
#    0.000    6.250    0.000    0.000    0.000    0.000 
#    0.000    0.000    0.000    0.000    0.000    0.000 
#
# Total GULP energy -178969.036532 kJ/mol
# GULP energy per Si atom -5592.782392 kJ/mol
# Density = 2.082435 g / cm^3
# Si number density = 20.871858 Si / 1000 Ang^3
#
#
#
# Elastic Constant Matrix: (Units=GPa)
#
#
# Indices 1 2 3 4 5 6 
#
# 1 111.0094 7.0333 28.8756 0.0000 0.0000 0.0000
# 2 7.0333 52.4167 34.0065 0.0000 0.0000 0.0000
# 3 28.8756 34.0065 104.6944 0.0000 0.0000 0.0000
# 4 0.0000 0.0000 0.0000 19.9740 0.0000 0.0000
# 5 0.0000 0.0000 0.0000 0.0000 13.8475 0.0000
# 6 0.0000 0.0000 0.0000 0.0000 0.0000 13.4878
#
#
#
# Elastic Compliance Matrix: (Units=1/GPa)
#
#
# Indices 1 2 3 4 5 6 
#
# 1 0.009717 0.000551 -0.002859 0.000000 0.000000 0.000000
# 2 0.000551 0.024203 -0.008013 0.000000 0.000000 0.000000
# 3 -0.002859 -0.008013 0.012943 0.000000 0.000000 0.000000
# 4 0.000000 0.000000 0.000000 0.050065 0.000000 0.000000
# 5 0.000000 0.000000 0.000000 0.000000 0.072215 0.000000
# 6 0.000000 0.000000 0.000000 0.000000 0.000000 0.074141
#
#
# Mechanical properties :
#
#
# Convention : Reuss Voigt Hill
#
# Bulk Modulus (GPa) = 38.13880 45.32790 41.73335
# Shear Modulus (GPa) = 18.33734 22.67552 20.50643
#
# Velocity S-wave (km/s) = 2.96728 3.29966 3.13787
# Velocity P-wave (km/s) = 5.48199 6.02340 5.75906
#
# Compressibility (1/GPa) = 0.02622002
#
# Stress axis : x y z
#
# Youngs Moduli (GPa) = 102.91219 41.31742 77.26148
#
# Poissons Ratio (x) = -0.02277 0.22089
# Poissons Ratio (y) = -0.05671 0.61913
# Poissons Ratio (z) = 0.29423 0.33110
#
# Static dielectric constant tensor:
#      x y z
#    x 1.803270 0.000000 0.000000 
#    y 0.000000 1.808960 0.000000 
#    z 0.000000 0.000000 1.735920 
# 
# From -- ./inp_files/24059.got.cif
#   From: 2010.05.17/outbox.cif.g08.bks.cpg/sg52_13_cif.got.tgz:24059.got - 2010.06.03 12:15:38.
