data_PCOD9413809
_publ_section_title
;
Structure prediction by ZEFSAII (Michael W. Deem and Ramdas Pophale) SiO2 
 PCOD9413809
Probable space group: P N N A
;
_chemical_formula_sum "Si O2"
_cell_formula_units_Z 36
_cell_length_a 11.488605
_cell_length_b 6.113847
_cell_length_c 22.201629
_cell_angle_alpha 90.000000
_cell_angle_beta 90.000000
_cell_angle_gamma 90.000000
_cell_volume 1559.432946
_symmetry_space_group_name_H-M "P N N A"
_symmetry_group_IT_number 52
_symmetry_cell_setting 'orthorhombic'
loop_
_space_group_symop_operation_xyz
x,y,z
1/2-x,-y,z
x,1/2-y,1/2-z
1/2-x,1/2+y,1/2-z
-x,-y,-z
1/2+x,y,-z
-x,1/2+y,1/2+z
1/2+x,1/2-y,1/2+z
loop_
_atom_site_type_symbol
_atom_site_label
_atom_site_fract_x
_atom_site_fract_y
_atom_site_fract_z
Si Si1 0.374155 0.603874 0.089839
Si Si2 0.448858 0.738722 0.855256
Si Si3 0.710279 0.250000 0.250000
Si Si4 0.379707 0.922816 0.199023
Si Si5 0.376408 0.890917 0.980800
O O1 0.250000 0.500000 0.102683
O O2 0.475212 0.444419 0.111384
O O3 0.377743 0.812196 0.133369
O O4 0.378249 0.670017 0.020269
O O5 0.355442 0.657131 0.808546
O O6 0.387607 0.866823 0.909479
O O7 0.534828 0.878009 0.812672
O O8 0.750000 0.500000 0.274039
O O9 0.419066 0.750000 0.250000
O O10 0.250000 0.000000 0.215815
O O11 0.250000 0.000000 0.995598
O O12 0.500000 0.000000 0.000000
#
# Coordination Sequence:
#
# PCOD9413809 Si02
#       5
#     8   8   4   8   8
#     4  12  24  45  75 112 152 197 260 327 405 482
#     4  12  27  48  77 110 152 210 260 327 406 498
#     4  12  32  54  76 110 160 214 272 338 404 496
#     4  12  25  43  72 110 155 196 255 329 404 481
#     4  12  26  49  79 112 158 207 265 334 414 493
#
# _framework density 23.085315999999999
#
# number of rings (size 3 to 8) (size 9 to 14) (size 15 to 20)
#    0.000    0.000    4.444    5.333    6.222    2.667 
#    0.000    0.000    0.000    0.000    0.000    0.000 
#    0.000    0.000    0.000    0.000    0.000    0.000 
#
# Total GULP energy -200924.191158 kJ/mol
# GULP energy per Si atom -5581.227532 kJ/mol
# Density = 2.303277 g / cm^3
# Si number density = 23.085316 Si / 1000 Ang^3
#
#
#
# Elastic Constant Matrix: (Units=GPa)
#
#
# Indices 1 2 3 4 5 6 
#
# 1 114.3725 41.9409 32.7681 0.0000 0.0000 0.0000
# 2 41.9409 75.3309 12.1698 0.0000 0.0000 0.0000
# 3 32.7681 12.1698 135.0984 0.0000 0.0000 0.0000
# 4 0.0000 0.0000 0.0000 54.1161 0.0000 0.0000
# 5 0.0000 0.0000 0.0000 0.0000 27.1408 0.0000
# 6 0.0000 0.0000 0.0000 0.0000 0.0000 28.8117
#
#
#
# Elastic Compliance Matrix: (Units=1/GPa)
#
#
# Indices 1 2 3 4 5 6 
#
# 1 0.011635 -0.006111 -0.002272 0.000000 0.000000 0.000000
# 2 -0.006111 0.016680 -0.000020 0.000000 0.000000 0.000000
# 3 -0.002272 -0.000020 0.007955 0.000000 0.000000 0.000000
# 4 0.000000 0.000000 0.000000 0.018479 0.000000 0.000000
# 5 0.000000 0.000000 0.000000 0.000000 0.036845 0.000000
# 6 0.000000 0.000000 0.000000 0.000000 0.000000 0.034708
#
#
# Mechanical properties :
#
#
# Convention : Reuss Voigt Hill
#
# Bulk Modulus (GPa) = 51.37574 55.39550 53.38562
# Shear Modulus (GPa) = 33.42332 37.87523 35.64927
#
# Velocity S-wave (km/s) = 3.80915 4.05490 3.93395
# Velocity P-wave (km/s) = 6.45362 6.78020 6.61892
#
# Compressibility (1/GPa) = 0.01946444
#
# Stress axis : x y z
#
# Youngs Moduli (GPa) = 85.94684 59.95073 125.70981
#
# Poissons Ratio (x) = 0.36635 0.28556
# Poissons Ratio (y) = 0.52522 0.00256
# Poissons Ratio (z) = 0.19524 0.00122
#
# Static dielectric constant tensor:
#      x y z
#    x 2.239810 0.000000 0.000000 
#    y 0.000000 1.860950 0.000000 
#    z 0.000000 0.000000 1.832310 
# 
# From -- ./inp_files/39889.got.cif
#   From: 2010.05.17/outbox.cif.g08.bks.cpg/sg52_20_cif.got.tgz:39889.got - 2010.06.03 12:15:38.
