data_PCOD9413782
_publ_section_title
;
Structure prediction by ZEFSAII (Michael W. Deem and Ramdas Pophale) SiO2 
 PCOD9413782
Probable space group: P N N A
;
_chemical_formula_sum "Si O2"
_cell_formula_units_Z 24
_cell_length_a 5.069178
_cell_length_b 13.143712
_cell_length_c 12.750907
_cell_angle_alpha 90.000000
_cell_angle_beta 90.000000
_cell_angle_gamma 90.000000
_cell_volume 849.565082
_symmetry_space_group_name_H-M "P N N A"
_symmetry_group_IT_number 52
_symmetry_cell_setting 'orthorhombic'
loop_
_space_group_symop_operation_xyz
x,y,z
1/2-x,-y,z
x,1/2-y,1/2-z
1/2-x,1/2+y,1/2-z
-x,-y,-z
1/2+x,y,-z
-x,1/2+y,1/2+z
1/2+x,1/2-y,1/2+z
loop_
_atom_site_type_symbol
_atom_site_label
_atom_site_fract_x
_atom_site_fract_y
_atom_site_fract_z
Si Si1 0.750000 0.000000 0.575694
Si Si2 0.374523 0.354375 0.261804
Si Si3 0.492976 0.204625 0.947012
Si Si4 0.250000 0.000000 0.897635
O O1 0.765988 0.095180 0.656256
O O2 0.500000 0.000000 0.500000
O O3 0.539961 0.250000 0.250000
O O4 0.549611 0.439126 0.320248
O O5 0.142169 0.313283 0.337979
O O6 0.396172 0.087453 0.963389
O O7 0.709560 0.252708 0.025737
#
# Coordination Sequence:
#
# PCOD9413782 Si02
#       4
#     4   8   8   4
#     4  12  29  57  80 110 168 230 277 337 414 498
#     4  12  29  51  83 119 167 222 288 342 417 513
#     4  12  25  45  80 119 158 198 253 338 427 487
#     4  12  23  49  78 118 168 200 263 341 436 476
#
# _framework density 28.249746999999999
#
# number of rings (size 3 to 8) (size 9 to 14) (size 15 to 20)
#    0.000    0.000    6.667    2.000    0.000    4.000 
#    0.000    0.000    0.000    0.000    0.000    0.000 
#    0.000    0.000    0.000    0.000    0.000    0.000 
#
# Total GULP energy -134336.430417 kJ/mol
# GULP energy per Si atom -5597.351267 kJ/mol
# Density = 2.818545 g / cm^3
# Si number density = 28.249747 Si / 1000 Ang^3
#
#
#
# Elastic Constant Matrix: (Units=GPa)
#
#
# Indices 1 2 3 4 5 6 
#
# 1 240.9598 31.7010 102.9237 0.0000 0.0000 0.0000
# 2 31.7010 134.2479 52.2404 0.0000 0.0000 0.0000
# 3 102.9237 52.2404 239.3670 0.0000 0.0000 0.0000
# 4 0.0000 0.0000 0.0000 56.4140 0.0000 0.0000
# 5 0.0000 0.0000 0.0000 0.0000 61.5593 0.0000
# 6 0.0000 0.0000 0.0000 0.0000 0.0000 26.5012
#
#
#
# Elastic Compliance Matrix: (Units=1/GPa)
#
#
# Indices 1 2 3 4 5 6 
#
# 1 0.005102 -0.000384 -0.002110 0.000000 0.000000 0.000000
# 2 -0.000384 0.008169 -0.001618 0.000000 0.000000 0.000000
# 3 -0.002110 -0.001618 0.005438 0.000000 0.000000 0.000000
# 4 0.000000 0.000000 0.000000 0.017726 0.000000 0.000000
# 5 0.000000 0.000000 0.000000 0.000000 0.016245 0.000000
# 6 0.000000 0.000000 0.000000 0.000000 0.000000 0.037734
#
#
# Mechanical properties :
#
#
# Convention : Reuss Voigt Hill
#
# Bulk Modulus (GPa) = 95.36627 109.81166 102.58896
# Shear Modulus (GPa) = 48.95626 57.40885 53.18256
#
# Velocity S-wave (km/s) = 4.16742 4.51287 4.34358
# Velocity P-wave (km/s) = 7.54905 8.13086 7.84535
#
# Compressibility (1/GPa) = 0.01048589
#
# Stress axis : x y z
#
# Youngs Moduli (GPa) = 196.00957 122.41285 183.89052
#
# Poissons Ratio (x) = 0.04697 0.38800
# Poissons Ratio (y) = 0.07520 0.29751
# Poissons Ratio (z) = 0.41357 0.19805
#
# Static dielectric constant tensor:
#      x y z
#    x 2.462780 0.000000 0.000000 
#    y 0.000000 829.107820 0.000000 
#    z 0.000000 0.000000 2.252560 
# 
# From -- ./inp_files/23395.got.cif
#   From: 2010.05.17/outbox.cif.g08.bks.cpg/sg52_12_cif.got.tgz:23395.got - 2010.06.03 12:15:38.
