data_PCOD9413744
_publ_section_title
;
Structure prediction by ZEFSAII (Michael W. Deem and Ramdas Pophale) SiO2 
 PCOD9413744
Probable space group: P N N A
;
_chemical_formula_sum "Si O2"
_cell_formula_units_Z 24
_cell_length_a 22.912186
_cell_length_b 4.855138
_cell_length_c 9.872638
_cell_angle_alpha 90.000000
_cell_angle_beta 90.000000
_cell_angle_gamma 90.000000
_cell_volume 1098.250268
_symmetry_space_group_name_H-M "P N N A"
_symmetry_group_IT_number 52
_symmetry_cell_setting 'orthorhombic'
loop_
_space_group_symop_operation_xyz
x,y,z
1/2-x,-y,z
x,1/2-y,1/2-z
1/2-x,1/2+y,1/2-z
-x,-y,-z
1/2+x,y,-z
-x,1/2+y,1/2+z
1/2+x,1/2-y,1/2+z
loop_
_atom_site_type_symbol
_atom_site_label
_atom_site_fract_x
_atom_site_fract_y
_atom_site_fract_z
Si Si1 0.692582 0.175355 0.590795
Si Si2 0.881086 0.335615 0.515676
Si Si3 0.952853 0.250000 0.250000
Si Si4 0.032791 0.750000 0.250000
O O1 0.696403 0.250000 0.750000
O O2 0.674359 0.460948 0.521749
O O3 0.750000 0.000000 0.554798
O O4 0.640611 0.969227 0.552856
O O5 0.912901 0.351575 0.373096
O O6 0.927226 0.391271 0.635352
O O7 0.992042 0.503456 0.197470
#
# Coordination Sequence:
#
# PCOD9413744 Si02
#       4
#     8   8   4   4
#     4  12  23  43  70 100 127 170 228 283 329 389
#     4  12  24  43  68 101 136 173 223 275 333 392
#     4  12  26  42  66 100 142 182 216 272 336 402
#     4  12  22  44  66 100 136 182 230 266 320 396
#
# _framework density 21.852941999999999
#
# number of rings (size 3 to 8) (size 9 to 14) (size 15 to 20)
#    0.000    0.000    3.333    9.000    0.000    0.000 
#    0.000    3.333    0.000    2.000    0.000    0.000 
#    0.000    0.000    0.000    0.000    0.000    0.000 
#
# Total GULP energy -134233.738987 kJ/mol
# GULP energy per Si atom -5593.072458 kJ/mol
# Density = 2.180320 g / cm^3
# Si number density = 21.852942 Si / 1000 Ang^3
#
#
#
# Elastic Constant Matrix: (Units=GPa)
#
#
# Indices 1 2 3 4 5 6 
#
# 1 80.3635 18.6214 44.9966 0.0000 0.0000 0.0000
# 2 18.6214 114.8735 0.6290 0.0000 0.0000 0.0000
# 3 44.9966 0.6290 99.6405 0.0000 0.0000 0.0000
# 4 0.0000 0.0000 0.0000 19.2341 0.0000 0.0000
# 5 0.0000 0.0000 0.0000 0.0000 19.2032 0.0000
# 6 0.0000 0.0000 0.0000 0.0000 0.0000 110.6789
#
#
#
# Elastic Compliance Matrix: (Units=1/GPa)
#
#
# Indices 1 2 3 4 5 6 
#
# 1 0.017508 -0.002795 -0.007889 0.000000 0.000000 0.000000
# 2 -0.002795 0.009152 0.001204 0.000000 0.000000 0.000000
# 3 -0.007889 0.001204 0.013591 0.000000 0.000000 0.000000
# 4 0.000000 0.000000 0.000000 0.051991 0.000000 0.000000
# 5 0.000000 0.000000 0.000000 0.000000 0.052075 0.000000
# 6 0.000000 0.000000 0.000000 0.000000 0.000000 0.009035
#
#
# Mechanical properties :
#
#
# Convention : Reuss Voigt Hill
#
# Bulk Modulus (GPa) = 46.96586 47.04127 47.00357
# Shear Modulus (GPa) = 27.86948 45.19860 36.53404
#
# Velocity S-wave (km/s) = 3.57504 4.55280 4.09322
# Velocity P-wave (km/s) = 6.21125 7.01501 6.62533
#
# Compressibility (1/GPa) = 0.02129206
#
# Stress axis : x y z
#
# Youngs Moduli (GPa) = 57.11613 109.26921 73.57805
#
# Poissons Ratio (x) = 0.30540 0.58045
# Poissons Ratio (y) = 0.15964 -0.08862
# Poissons Ratio (z) = 0.45058 -0.13160
#
# Static dielectric constant tensor:
#      x y z
#    x 1.893770 0.000000 0.000000 
#    y 0.000000 1.825470 0.000000 
#    z 0.000000 0.000000 1.737650 
# 
# From -- ./inp_files/21031.got.cif
#   From: 2010.05.17/outbox.cif.g08.bks.cpg/sg52_11_cif.got.tgz:21031.got - 2010.06.03 12:15:38.
