data_PCOD9413083
_publ_section_title
;
Structure prediction by ZEFSAII (Michael W. Deem and Ramdas Pophale) SiO2 
 PCOD9413083
Probable space group: P N N A
;
_chemical_formula_sum "Si O2"
_cell_formula_units_Z 64
_cell_length_a 22.425162
_cell_length_b 9.358395
_cell_length_c 18.102141
_cell_angle_alpha 90.000000
_cell_angle_beta 90.000000
_cell_angle_gamma 90.000000
_cell_volume 3798.979101
_symmetry_space_group_name_H-M "P N N A"
_symmetry_group_IT_number 52
_symmetry_cell_setting 'orthorhombic'
loop_
_space_group_symop_operation_xyz
x,y,z
1/2-x,-y,z
x,1/2-y,1/2-z
1/2-x,1/2+y,1/2-z
-x,-y,-z
1/2+x,y,-z
-x,1/2+y,1/2+z
1/2+x,1/2-y,1/2+z
loop_
_atom_site_type_symbol
_atom_site_label
_atom_site_fract_x
_atom_site_fract_y
_atom_site_fract_z
Si Si1 0.885538 0.709594 0.387739
Si Si2 0.987274 0.829232 0.673011
Si Si3 0.183625 0.035151 0.654228
Si Si4 0.987929 0.326146 0.827334
Si Si5 0.883556 0.212478 0.396219
Si Si6 0.682321 0.956647 0.174132
Si Si7 0.064650 0.335022 0.459112
Si Si8 0.435452 0.163160 0.039940
O O1 0.869694 0.548533 0.365413
O O2 0.891639 0.716578 0.475965
O O3 0.946102 0.770012 0.351448
O O4 0.831676 0.799977 0.353928
O O5 0.975238 0.750000 0.750000
O O6 0.942726 0.768836 0.610311
O O7 0.053457 0.782353 0.646166
O O8 0.986557 0.001728 0.678221
O O9 0.136727 0.951072 0.603824
O O10 0.176078 0.985959 0.738843
O O11 0.250000 0.000000 0.630811
O O12 0.974299 0.250000 0.750000
O O13 0.943725 0.266448 0.890336
O O14 0.833480 0.297055 0.350142
O O15 0.891409 0.276950 0.477513
O O16 0.750000 0.000000 0.153394
O O17 0.078209 0.499520 0.438303
O O18 0.000077 0.338335 0.499597
#
# Coordination Sequence:
#
# PCOD9413083 Si02
#       8
#     8   8   8   8   8   8   8   8
#     4  11  21  34  53  72 102 142 176 210 256 299
#     4  11  22  33  53  78 105 134 169 207 253 311
#     4  11  22  34  49  74 105 137 178 223 250 286
#     4  11  22  33  53  78 105 134 169 207 253 311
#     4  11  21  34  53  72 102 142 176 210 256 299
#     4  11  22  36  51  72 101 139 182 219 252 290
#     4   9  19  34  51  72 100 133 171 211 252 302
#     4   9  19  34  51  72 100 133 171 211 252 302
#
# _framework density 16.846632
#
# number of rings (size 3 to 8) (size 9 to 14) (size 15 to 20)
#    0.000    1.500    2.500    3.750    5.250    3.500 
#    0.000    0.000    0.000    0.000    0.000    0.000 
#    0.000    6.000    0.000    0.000    0.000    0.000 
#
# Total GULP energy -357093.471452 kJ/mol
# GULP energy per Si atom -5579.585491 kJ/mol
# Density = 1.680829 g / cm^3
# Si number density = 16.846632 Si / 1000 Ang^3
#
#
#
# Elastic Constant Matrix: (Units=GPa)
#
#
# Indices 1 2 3 4 5 6 
#
# 1 30.4721 1.1145 25.0450 0.0000 0.0000 0.0000
# 2 1.1145 84.9458 51.4281 0.0000 0.0000 0.0000
# 3 25.0450 51.4281 104.0222 0.0000 0.0000 0.0000
# 4 0.0000 0.0000 0.0000 30.7945 0.0000 0.0000
# 5 0.0000 0.0000 0.0000 0.0000 15.6895 0.0000
# 6 0.0000 0.0000 0.0000 0.0000 0.0000 19.3865
#
#
#
# Elastic Compliance Matrix: (Units=1/GPa)
#
#
# Indices 1 2 3 4 5 6 
#
# 1 0.044825 0.008486 -0.014988 0.000000 0.000000 0.000000
# 2 0.008486 0.018408 -0.011144 0.000000 0.000000 0.000000
# 3 -0.014988 -0.011144 0.018731 0.000000 0.000000 0.000000
# 4 0.000000 0.000000 0.000000 0.032473 0.000000 0.000000
# 5 0.000000 0.000000 0.000000 0.000000 0.063737 0.000000
# 6 0.000000 0.000000 0.000000 0.000000 0.000000 0.051582
#
#
# Mechanical properties :
#
#
# Convention : Reuss Voigt Hill
#
# Bulk Modulus (GPa) = 21.42588 41.62392 31.52490
# Shear Modulus (GPa) = 17.81864 22.63091 20.22478
#
# Velocity S-wave (km/s) = 3.25575 3.66915 3.46862
# Velocity P-wave (km/s) = 5.18450 6.53540 5.89875
#
# Compressibility (1/GPa) = 0.04667252
#
# Stress axis : x y z
#
# Youngs Moduli (GPa) = 22.30903 54.32563 53.38680
#
# Poissons Ratio (x) = -0.46099 0.80014
# Poissons Ratio (y) = -0.18931 0.59492
# Poissons Ratio (z) = 0.33436 0.60539
#
# Static dielectric constant tensor:
#      x y z
#    x 1.560300 0.000000 0.000000 
#    y 0.000000 1.565100 0.000000 
#    z 0.000000 0.000000 1.562730 
# 
# From -- ./inp_files/31664.got.cif
#   From: 2010.05.17/outbox.cif.g08.bks.cpg/sg52_16_cif.got.tgz:31664.got - 2010.06.03 12:15:38.
