data_PCOD9413304
_publ_section_title
;
Structure prediction by ZEFSAII (Michael W. Deem and Ramdas Pophale) SiO2 
 PCOD9413304
Probable space group: P N N A
;
_chemical_formula_sum "Si O2"
_cell_formula_units_Z 48
_cell_length_a 13.518179
_cell_length_b 9.016105
_cell_length_c 19.747728
_cell_angle_alpha 90.000000
_cell_angle_beta 90.000000
_cell_angle_gamma 90.000000
_cell_volume 2406.879181
_symmetry_space_group_name_H-M "P N N A"
_symmetry_group_IT_number 52
_symmetry_cell_setting 'orthorhombic'
loop_
_space_group_symop_operation_xyz
x,y,z
1/2-x,-y,z
x,1/2-y,1/2-z
1/2-x,1/2+y,1/2-z
-x,-y,-z
1/2+x,y,-z
-x,1/2+y,1/2+z
1/2+x,1/2-y,1/2+z
loop_
_atom_site_type_symbol
_atom_site_label
_atom_site_fract_x
_atom_site_fract_y
_atom_site_fract_z
Si Si1 0.554919 0.097236 0.058785
Si Si2 0.270582 0.670502 0.814357
Si Si3 0.287782 0.662988 0.999818
Si Si4 0.365299 0.203230 0.927749
Si Si5 0.038115 0.063049 0.425920
Si Si6 0.505078 0.789514 0.673660
O O1 0.483586 0.160981 0.116843
O O2 0.623015 0.967884 0.088474
O O3 0.624292 0.231663 0.032070
O O4 0.500000 0.000000 0.000000
O O5 0.250000 0.500000 0.807583
O O6 0.225730 0.750000 0.750000
O O7 0.217469 0.730638 0.879707
O O8 0.386514 0.698977 0.818112
O O9 0.250000 0.500000 0.972137
O O10 0.348484 0.613062 0.065986
O O11 0.187456 0.760363 0.999925
O O12 0.464274 0.297892 0.915954
O O13 0.000000 0.000000 0.500000
O O14 0.031965 0.941748 0.366109
O O15 0.543461 0.750000 0.750000
#
# Coordination Sequence:
#
# PCOD9413304 Si02
#       6
#     8   8   8   8   8   8
#     4  12  24  40  63 100 133 165 217 281 326 387
#     4  11  23  36  57  88 130 178 208 241 323 411
#     4  12  23  38  63  94 125 175 222 268 329 393
#     4  12  22  37  59  90 136 160 215 269 319 388
#     4  12  20  40  64  92 127 171 221 264 318 401
#     4  11  24  40  61  93 135 175 214 263 330 406
#
# _framework density 19.942837999999998
#
# number of rings (size 3 to 8) (size 9 to 14) (size 15 to 20)
#    0.000    0.333    8.333    1.000    4.667    0.000 
#    0.000    0.000    0.000    0.000    4.333    0.000 
#    0.000    0.000    0.000    0.000    0.000    0.000 
#
# Total GULP energy -267213.048170 kJ/mol
# GULP energy per Si atom -5566.938504 kJ/mol
# Density = 1.989745 g / cm^3
# Si number density = 19.942838 Si / 1000 Ang^3
#
#
#
# Elastic Constant Matrix: (Units=GPa)
#
#
# Indices 1 2 3 4 5 6 
#
# 1 55.4550 27.2805 28.5190 0.0000 0.0000 0.0000
# 2 27.2805 135.4837 53.1900 0.0000 0.0000 0.0000
# 3 28.5190 53.1900 103.7378 0.0000 0.0000 0.0000
# 4 0.0000 0.0000 0.0000 55.4149 0.0000 0.0000
# 5 0.0000 0.0000 0.0000 0.0000 24.3217 0.0000
# 6 0.0000 0.0000 0.0000 0.0000 0.0000 21.6572
#
#
#
# Elastic Compliance Matrix: (Units=1/GPa)
#
#
# Indices 1 2 3 4 5 6 
#
# 1 0.021676 -0.002536 -0.004659 0.000000 0.000000 0.000000
# 2 -0.002536 0.009538 -0.004193 0.000000 0.000000 0.000000
# 3 -0.004659 -0.004193 0.013071 0.000000 0.000000 0.000000
# 4 0.000000 0.000000 0.000000 0.018046 0.000000 0.000000
# 5 0.000000 0.000000 0.000000 0.000000 0.041116 0.000000
# 6 0.000000 0.000000 0.000000 0.000000 0.000000 0.046174
#
#
# Mechanical properties :
#
#
# Convention : Reuss Voigt Hill
#
# Bulk Modulus (GPa) = 46.49286 56.96174 51.72730
# Shear Modulus (GPa) = 27.84514 32.65790 30.25152
#
# Velocity S-wave (km/s) = 3.74069 4.05109 3.89898
# Velocity P-wave (km/s) = 6.48234 7.10677 6.80173
#
# Compressibility (1/GPa) = 0.02150868
#
# Stress axis : x y z
#
# Youngs Moduli (GPa) = 46.13413 104.84645 76.50786
#
# Poissons Ratio (x) = 0.26584 0.35645
# Poissons Ratio (y) = 0.11697 0.32082
# Poissons Ratio (z) = 0.21494 0.43965
#
# Static dielectric constant tensor:
#      x y z
#    x 1.786850 0.000000 0.000000 
#    y 0.000000 1.820930 0.000000 
#    z 0.000000 0.000000 1.827680 
# 
# From -- ./inp_files/33050.got.cif
#   From: 2010.05.17/outbox.cif.g08.bks.cpg/sg52_17_cif.got.tgz:33050.got - 2010.06.03 12:15:38.
