data_PCOD9413943
_publ_section_title
;
Structure prediction by ZEFSAII (Michael W. Deem and Ramdas Pophale) SiO2 
 PCOD9413943
Probable space group: P N N A
;
_chemical_formula_sum "Si O2"
_cell_formula_units_Z 40
_cell_length_a 15.625585
_cell_length_b 13.601178
_cell_length_c 7.067084
_cell_angle_alpha 90.000000
_cell_angle_beta 90.000000
_cell_angle_gamma 90.000000
_cell_volume 1501.941659
_symmetry_space_group_name_H-M "P N N A"
_symmetry_group_IT_number 52
_symmetry_cell_setting 'orthorhombic'
loop_
_space_group_symop_operation_xyz
x,y,z
1/2-x,-y,z
x,1/2-y,1/2-z
1/2-x,1/2+y,1/2-z
-x,-y,-z
1/2+x,y,-z
-x,1/2+y,1/2+z
1/2+x,1/2-y,1/2+z
loop_
_atom_site_type_symbol
_atom_site_label
_atom_site_fract_x
_atom_site_fract_y
_atom_site_fract_z
Si Si1 0.561556 0.637695 0.539656
Si Si2 0.873462 0.942723 0.984258
Si Si3 0.106229 0.839382 0.481377
Si Si4 0.704570 0.243047 0.521666
Si Si5 0.347412 0.540652 0.032205
O O1 0.627627 0.557188 0.453581
O O2 0.467803 0.593409 0.533840
O O3 0.551798 0.746469 0.454773
O O4 0.592905 0.650608 0.755282
O O5 0.813402 0.852999 0.049316
O O6 0.862003 0.950214 0.757402
O O7 0.200897 0.796695 0.519976
O O8 0.095171 0.951579 0.547809
O O9 0.698335 0.250000 0.750000
O O10 0.643916 0.151997 0.458919
O O11 0.250000 0.500000 0.008329
#
# Coordination Sequence:
#
# PCOD9413943 Si02
#       5
#     8   8   8   8   8
#     4   9  16  26  35  59  87 115 130 176 224 258
#     4   9  17  23  37  59  92 106 136 177 220 249
#     4   9  15  26  42  55  82 116 142 163 219 261
#     4   9  14  24  40  62  79 109 143 175 205 258
#     4   8  15  25  41  61  82 111 142 178 210 255
#
# _framework density 26.632194999999999
#
# number of rings (size 3 to 8) (size 9 to 14) (size 15 to 20)
#    0.000    3.200    2.000    0.000    2.800    0.000 
#    0.000    1.000    0.000    0.000    0.000    0.000 
#   18.000   19.200    0.000    0.000    0.000    0.000 
#
# Total GULP energy -223100.846256 kJ/mol
# GULP energy per Si atom -5577.521156 kJ/mol
# Density = 2.657158 g / cm^3
# Si number density = 26.632195 Si / 1000 Ang^3
#
#
#
# Elastic Constant Matrix: (Units=GPa)
#
#
# Indices 1 2 3 4 5 6 
#
# 1 74.5180 81.4857 -12.3280 0.0000 0.0000 0.0000
# 2 81.4857 187.9215 2.2340 0.0000 0.0000 0.0000
# 3 -12.3280 2.2340 129.4051 0.0000 0.0000 0.0000
# 4 0.0000 0.0000 0.0000 -30.0778 0.0000 0.0000
# 5 0.0000 0.0000 0.0000 0.0000 -26.2290 0.0000
# 6 0.0000 0.0000 0.0000 0.0000 0.0000 3.7396
#
#
#
# Elastic Compliance Matrix: (Units=1/GPa)
#
#
# Indices 1 2 3 4 5 6 
#
# 1 0.026442 -0.011498 0.002718 0.000000 0.000000 0.000000
# 2 -0.011498 0.010322 -0.001274 0.000000 0.000000 0.000000
# 3 0.002718 -0.001274 0.008009 0.000000 0.000000 0.000000
# 4 0.000000 0.000000 0.000000 -0.033247 0.000000 0.000000
# 5 0.000000 0.000000 0.000000 0.000000 -0.038126 0.000000
# 6 0.000000 0.000000 0.000000 0.000000 0.000000 0.267410
#
#
# Mechanical properties :
#
#
# Convention : Reuss Voigt Hill
#
# Bulk Modulus (GPa) = 40.54333 59.40309 49.97321
# Shear Modulus (GPa) = 18.57767 10.85009 14.71388
#
# Velocity S-wave (km/s) = 2.64401 2.02062 2.35305
# Velocity P-wave (km/s) = 4.95757 5.27231 5.11736
#
# Compressibility (1/GPa) = 0.02466497
#
# Stress axis : x y z
#
# Youngs Moduli (GPa) = 37.81797 96.87768 124.86647
#
# Poissons Ratio (x) = 1.11392 -0.33934
# Poissons Ratio (y) = 0.43484 0.15903
# Poissons Ratio (z) = -0.10277 0.12338
#
# Static dielectric constant tensor:
#      x y z
#    x 2.127120 0.000000 0.000000 
#    y 0.000000 2.228380 0.000000 
#    z 0.000000 0.000000 2.091020 
# 
# From -- ./inp_files/19367.got.cif
#   From: 2010.05.17/outbox.cif.g08.bks.cpg/sg52_10_cif.got.tgz:19367.got - 2010.06.03 12:15:38.
