data_PCOD9413605
_publ_section_title
;
Structure prediction by ZEFSAII (Michael W. Deem and Ramdas Pophale) SiO2 
 PCOD9413605
Probable space group: P N N A
;
_chemical_formula_sum "Si O2"
_cell_formula_units_Z 32
_cell_length_a 17.336290
_cell_length_b 13.273095
_cell_length_c 5.410215
_cell_angle_alpha 90.000000
_cell_angle_beta 90.000000
_cell_angle_gamma 90.000000
_cell_volume 1244.924145
_symmetry_space_group_name_H-M "P N N A"
_symmetry_group_IT_number 52
_symmetry_cell_setting 'orthorhombic'
loop_
_space_group_symop_operation_xyz
x,y,z
1/2-x,-y,z
x,1/2-y,1/2-z
1/2-x,1/2+y,1/2-z
-x,-y,-z
1/2+x,y,-z
-x,1/2+y,1/2+z
1/2+x,1/2-y,1/2+z
loop_
_atom_site_type_symbol
_atom_site_label
_atom_site_fract_x
_atom_site_fract_y
_atom_site_fract_z
Si Si1 0.216205 0.889936 0.318212
Si Si2 0.432941 0.494512 0.701677
Si Si3 0.299058 0.852245 0.827494
Si Si4 0.043612 0.851679 0.404862
O O1 0.240770 0.862253 0.597284
O O2 0.124318 0.888461 0.283593
O O3 0.250000 0.000000 0.296937
O O4 0.255655 0.835321 0.086022
O O5 0.500000 0.500000 0.500000
O O6 0.351546 0.547569 0.645835
O O7 0.467581 0.579225 0.889091
O O8 0.433463 0.380686 0.809884
O O9 0.344210 0.750000 0.750000
O O10 0.028838 0.750000 0.250000
#
# Coordination Sequence:
#
# PCOD9413605 Si02
#       4
#     8   8   8   8
#     4  12  25  48  76 111 154 199 254 325 387 467
#     4  11  26  47  72 106 151 201 254 322 394 467
#     4  12  26  47  75 111 151 203 258 318 391 475
#     4  11  25  47  72 107 146 197 258 319 391 470
#
# _framework density 25.704376
#
# number of rings (size 3 to 8) (size 9 to 14) (size 15 to 20)
#    0.000    0.500    2.500    5.250    7.000    1.000 
#    4.500    0.000    0.000    0.000    0.000    0.000 
#    0.000    0.000    0.000    0.000    0.000    0.000 
#
# Total GULP energy -178311.017757 kJ/mol
# GULP energy per Si atom -5572.219305 kJ/mol
# Density = 2.564587 g / cm^3
# Si number density = 25.704376 Si / 1000 Ang^3
#
#
#
# Elastic Constant Matrix: (Units=GPa)
#
#
# Indices 1 2 3 4 5 6 
#
# 1 112.5423 2.1983 41.5895 0.0000 0.0000 0.0000
# 2 2.1983 117.6152 44.5245 0.0000 0.0000 0.0000
# 3 41.5895 44.5245 171.0769 0.0000 0.0000 0.0000
# 4 0.0000 0.0000 0.0000 53.0118 0.0000 0.0000
# 5 0.0000 0.0000 0.0000 0.0000 45.3279 0.0000
# 6 0.0000 0.0000 0.0000 0.0000 0.0000 29.9039
#
#
#
# Elastic Compliance Matrix: (Units=1/GPa)
#
#
# Indices 1 2 3 4 5 6 
#
# 1 0.009830 0.000800 -0.002598 0.000000 0.000000 0.000000
# 2 0.000800 0.009497 -0.002666 0.000000 0.000000 0.000000
# 3 -0.002598 -0.002666 0.007171 0.000000 0.000000 0.000000
# 4 0.000000 0.000000 0.000000 0.018864 0.000000 0.000000
# 5 0.000000 0.000000 0.000000 0.000000 0.022061 0.000000
# 6 0.000000 0.000000 0.000000 0.000000 0.000000 0.033440
#
#
# Mechanical properties :
#
#
# Convention : Reuss Voigt Hill
#
# Bulk Modulus (GPa) = 56.91837 64.20654 60.56245
# Shear Modulus (GPa) = 43.23485 46.51021 44.87253
#
# Velocity S-wave (km/s) = 4.10567 4.25835 4.18271
# Velocity P-wave (km/s) = 6.68333 7.01507 6.85121
#
# Compressibility (1/GPa) = 0.01756902
#
# Stress axis : x y z
#
# Youngs Moduli (GPa) = 101.72999 105.30093 139.45604
#
# Poissons Ratio (x) = -0.08421 0.36228
# Poissons Ratio (y) = -0.08135 0.37179
# Poissons Ratio (z) = 0.26428 0.28073
#
# Static dielectric constant tensor:
#      x y z
#    x 1.977170 0.000000 0.000000 
#    y 0.000000 2.082260 0.000000 
#    z 0.000000 0.000000 2.139210 
# 
# From -- ./inp_files/2971.got.cif
#   From: 2010.05.17/outbox.cif.g08.bks.cpg/sg52_2_cif.got.tgz:2971.got - 2010.06.03 12:15:38.
