data_PCOD9413827
_publ_section_title
;
Structure prediction by ZEFSAII (Michael W. Deem and Ramdas Pophale) SiO2 
 PCOD9413827
Probable space group: P N N A
;
_chemical_formula_sum "Si O2"
_cell_formula_units_Z 32
_cell_length_a 14.521566
_cell_length_b 7.087483
_cell_length_c 14.592292
_cell_angle_alpha 90.000000
_cell_angle_beta 90.000000
_cell_angle_gamma 90.000000
_cell_volume 1501.858424
_symmetry_space_group_name_H-M "P N N A"
_symmetry_group_IT_number 52
_symmetry_cell_setting 'orthorhombic'
loop_
_space_group_symop_operation_xyz
x,y,z
1/2-x,-y,z
x,1/2-y,1/2-z
1/2-x,1/2+y,1/2-z
-x,-y,-z
1/2+x,y,-z
-x,1/2+y,1/2+z
1/2+x,1/2-y,1/2+z
loop_
_atom_site_type_symbol
_atom_site_label
_atom_site_fract_x
_atom_site_fract_y
_atom_site_fract_z
Si Si1 0.159177 0.612328 0.834386
Si Si2 0.575016 0.668107 0.505993
Si Si3 0.145770 0.250000 0.250000
Si Si4 0.750000 0.000000 0.892749
Si Si5 0.476428 0.090880 0.321647
O O1 0.250000 0.500000 0.866842
O O2 0.183276 0.750000 0.750000
O O3 0.082416 0.461300 0.804512
O O4 0.106095 0.734549 0.911587
O O5 0.500000 0.500000 0.500000
O O6 0.667380 0.579449 0.547372
O O7 0.538689 0.825581 0.577299
O O8 0.208784 0.159076 0.172746
O O9 0.082697 0.406847 0.201757
O O10 0.446327 0.250000 0.250000
#
# Coordination Sequence:
#
# PCOD9413827 Si02
#       5
#     8   8   4   4   8
#     4  12  28  47  73 107 152 203 258 304 372 455
#     4  12  28  47  76 114 151 202 250 316 379 455
#     4  12  24  48  76 116 144 198 240 322 392 446
#     4  12  26  44  78 108 154 182 258 304 378 450
#     4  12  24  50  77 109 150 194 249 317 385 447
#
# _framework density 21.306937000000001
#
# number of rings (size 3 to 8) (size 9 to 14) (size 15 to 20)
#    0.000    0.000    3.750    6.000    8.750    0.000 
#    0.000    0.000    0.000    0.000    0.000    0.000 
#    0.000    0.000    0.000    0.000    0.000    0.000 
#
# Total GULP energy -179244.800842 kJ/mol
# GULP energy per Si atom -5601.400026 kJ/mol
# Density = 2.125844 g / cm^3
# Si number density = 21.306937 Si / 1000 Ang^3
#
#
#
# Elastic Constant Matrix: (Units=GPa)
#
#
# Indices 1 2 3 4 5 6 
#
# 1 141.7572 65.5592 17.8011 0.0000 0.0000 0.0000
# 2 65.5592 144.8767 57.2129 0.0000 0.0000 0.0000
# 3 17.8011 57.2129 100.7006 0.0000 0.0000 0.0000
# 4 0.0000 0.0000 0.0000 38.5206 0.0000 0.0000
# 5 0.0000 0.0000 0.0000 0.0000 42.7944 0.0000
# 6 0.0000 0.0000 0.0000 0.0000 0.0000 -24.6614
#
#
#
# Elastic Compliance Matrix: (Units=1/GPa)
#
#
# Indices 1 2 3 4 5 6 
#
# 1 0.008989 -0.004435 0.000931 0.000000 0.000000 0.000000
# 2 -0.004435 0.011087 -0.005515 0.000000 0.000000 0.000000
# 3 0.000931 -0.005515 0.012899 0.000000 0.000000 0.000000
# 4 0.000000 0.000000 0.000000 0.025960 0.000000 0.000000
# 5 0.000000 0.000000 0.000000 0.000000 0.023368 0.000000
# 6 0.000000 0.000000 0.000000 0.000000 0.000000 -0.040549
#
#
# Mechanical properties :
#
#
# Convention : Reuss Voigt Hill
#
# Bulk Modulus (GPa) = 66.95097 74.27564 70.61330
# Shear Modulus (GPa) = 77.19429 27.78147 52.48788
#
# Velocity S-wave (km/s) = 6.02564 3.61483 4.96867
# Velocity P-wave (km/s) = 8.93876 7.23590 8.13202
#
# Compressibility (1/GPa) = 0.01493630
#
# Stress axis : x y z
#
# Youngs Moduli (GPa) = 111.25292 90.19250 77.52306
#
# Poissons Ratio (x) = 0.40001 -0.07216
# Poissons Ratio (y) = 0.49341 0.42756
# Poissons Ratio (z) = -0.10356 0.49744
#
# Static dielectric constant tensor:
#      x y z
#    x 1.792840 0.000000 0.000000 
#    y 0.000000 1.958100 0.000000 
#    z 0.000000 0.000000 1.704500 
# 
# From -- ./inp_files/32618.got.cif
#   From: 2010.05.17/outbox.cif.g08.bks.cpg/sg52_17_cif.got.tgz:32618.got - 2010.06.03 12:15:38.
