data_PCOD9413312
_publ_section_title
;
Structure prediction by ZEFSAII (Michael W. Deem and Ramdas Pophale) SiO2 
 PCOD9413312
Probable space group: P N N A
;
_chemical_formula_sum "Si O2"
_cell_formula_units_Z 52
_cell_length_a 11.062156
_cell_length_b 28.183359
_cell_length_c 9.537528
_cell_angle_alpha 90.000000
_cell_angle_beta 90.000000
_cell_angle_gamma 90.000000
_cell_volume 2973.502838
_symmetry_space_group_name_H-M "P N N A"
_symmetry_group_IT_number 52
_symmetry_cell_setting 'orthorhombic'
loop_
_space_group_symop_operation_xyz
x,y,z
1/2-x,-y,z
x,1/2-y,1/2-z
1/2-x,1/2+y,1/2-z
-x,-y,-z
1/2+x,y,-z
-x,1/2+y,1/2+z
1/2+x,1/2-y,1/2+z
loop_
_atom_site_type_symbol
_atom_site_label
_atom_site_fract_x
_atom_site_fract_y
_atom_site_fract_z
Si Si1 0.401283 0.644755 0.278251
Si Si2 0.456225 0.800941 0.950845
Si Si3 0.435998 0.205910 0.571088
Si Si4 0.615173 0.943059 0.601333
Si Si5 0.393869 0.948126 0.382917
Si Si6 0.126311 0.843342 0.278581
Si Si7 0.727778 0.250000 0.250000
O O1 0.421620 0.658870 0.438414
O O2 0.494908 0.671952 0.178377
O O3 0.406202 0.589094 0.242947
O O4 0.269129 0.662409 0.233961
O O5 0.564894 0.818751 0.853633
O O6 0.352725 0.785061 0.843253
O O7 0.492594 0.754501 0.039873
O O8 0.417993 0.180466 0.422488
O O9 0.311138 0.220638 0.643653
O O10 0.507837 0.939235 0.486347
O O11 0.757603 0.939432 0.552793
O O12 0.598749 0.899473 0.707817
O O13 0.603088 0.996570 0.658897
#
# Coordination Sequence:
#
# PCOD9413312 Si02
#       7
#     8   8   8   8   8   8   4
#     4  11  23  39  60  85 120 155 195 243 304 354
#     4  12  24  40  56  85 118 158 195 247 294 354
#     4  12  22  39  59  85 114 155 199 243 290 354
#     4   9  18  34  62  88 121 150 201 248 300 351
#     4   9  18  36  59  92 117 154 197 252 297 355
#     4  11  23  39  60  87 116 157 195 245 300 357
#     4  12  24  38  60  82 120 156 206 244 296 354
#
# _framework density 17.487793
#
# number of rings (size 3 to 8) (size 9 to 14) (size 15 to 20)
#    0.000    1.231    4.615    1.846    0.000    1.231 
#    0.000    0.769    0.000    0.000    0.000    0.000 
#    0.000    0.000    0.000    0.000    0.000    0.000 
#
# Total GULP energy -290059.265332 kJ/mol
# GULP energy per Si atom -5578.062795 kJ/mol
# Density = 1.744799 g / cm^3
# Si number density = 17.487793 Si / 1000 Ang^3
#
#
#
# Elastic Constant Matrix: (Units=GPa)
#
#
# Indices 1 2 3 4 5 6 
#
# 1 57.1001 22.4115 6.6100 0.0000 0.0000 0.0000
# 2 22.4115 77.9925 21.8808 0.0000 0.0000 0.0000
# 3 6.6100 21.8808 64.4456 0.0000 0.0000 0.0000
# 4 0.0000 0.0000 0.0000 -19.1661 0.0000 0.0000
# 5 0.0000 0.0000 0.0000 0.0000 34.3224 0.0000
# 6 0.0000 0.0000 0.0000 0.0000 0.0000 35.1726
#
#
#
# Elastic Compliance Matrix: (Units=1/GPa)
#
#
# Indices 1 2 3 4 5 6 
#
# 1 0.019740 -0.005642 -0.000109 0.000000 0.000000 0.000000
# 2 -0.005642 0.015784 -0.004780 0.000000 0.000000 0.000000
# 3 -0.000109 -0.004780 0.017151 0.000000 0.000000 0.000000
# 4 0.000000 0.000000 0.000000 -0.052175 0.000000 0.000000
# 5 0.000000 0.000000 0.000000 0.000000 0.029135 0.000000
# 6 0.000000 0.000000 0.000000 0.000000 0.000000 0.028431
#
#
# Mechanical properties :
#
#
# Convention : Reuss Voigt Hill
#
# Bulk Modulus (GPa) = 31.63287 33.48255 32.55771
# Shear Modulus (GPa) = 55.76186 19.97483 37.86835
#
# Velocity S-wave (km/s) = 5.65291 3.38333 4.65845
# Velocity P-wave (km/s) = 7.79327 5.86945 6.89875
#
# Compressibility (1/GPa) = 0.03161269
#
# Stress axis : x y z
#
# Youngs Moduli (GPa) = 50.65827 63.35491 58.30485
#
# Poissons Ratio (x) = 0.35744 0.00636
# Poissons Ratio (y) = 0.28580 0.27872
# Poissons Ratio (z) = 0.00553 0.30286
#
# Static dielectric constant tensor:
#      x y z
#    x 1.613520 0.000000 0.000000 
#    y 0.000000 1.602940 0.000000 
#    z 0.000000 0.000000 1.559190 
# 
# From -- ./inp_files/8981.got.cif
#   From: 2010.05.17/outbox.cif.g08.bks.cpg/sg52_5_cif.got.tgz:8981.got - 2010.06.03 12:15:38.
