data_PCOD9413636
_publ_section_title
;
Structure prediction by ZEFSAII (Michael W. Deem and Ramdas Pophale) SiO2 
 PCOD9413636
Probable space group: P N N A
;
_chemical_formula_sum "Si O2"
_cell_formula_units_Z 44
_cell_length_a 21.077147
_cell_length_b 8.821057
_cell_length_c 10.279374
_cell_angle_alpha 90.000000
_cell_angle_beta 90.000000
_cell_angle_gamma 90.000000
_cell_volume 1911.169123
_symmetry_space_group_name_H-M "P N N A"
_symmetry_group_IT_number 52
_symmetry_cell_setting 'orthorhombic'
loop_
_space_group_symop_operation_xyz
x,y,z
1/2-x,-y,z
x,1/2-y,1/2-z
1/2-x,1/2+y,1/2-z
-x,-y,-z
1/2+x,y,-z
-x,1/2+y,1/2+z
1/2+x,1/2-y,1/2+z
loop_
_atom_site_type_symbol
_atom_site_label
_atom_site_fract_x
_atom_site_fract_y
_atom_site_fract_z
Si Si1 0.750000 0.500000 0.785904
Si Si2 0.150083 0.750000 0.250000
Si Si3 0.387869 0.463835 0.818270
Si Si4 0.054907 0.765494 0.014522
Si Si5 0.924366 0.610964 0.435318
Si Si6 0.782378 0.250000 0.250000
Si Si7 0.688946 0.310220 0.011297
O O1 0.805067 0.397320 0.719793
O O2 0.718284 0.373983 0.880306
O O3 0.102975 0.716996 0.128884
O O4 0.421523 0.575279 0.718381
O O5 0.329864 0.390652 0.737090
O O6 0.353711 0.555937 0.930652
O O7 0.429008 0.334111 0.887454
O O8 0.979735 0.766353 0.040844
O O9 0.065021 0.944880 0.994537
O O10 0.858954 0.671371 0.494475
O O11 0.741128 0.273245 0.121306
#
# Coordination Sequence:
#
# PCOD9413636 Si02
#       7
#     4   4   8   8   8   4   8
#     4  12  28  48  64 102 142 188 240 276 350 430
#     4  12  28  49  70  95 144 190 228 282 346 422
#     4  12  22  44  70 103 137 181 228 292 349 407
#     4  11  26  48  69  99 141 187 232 285 347 415
#     4  11  26  44  73 106 134 182 236 289 352 405
#     4  12  20  37  70 103 138 166 216 294 352 404
#     4  12  24  41  69 107 134 173 232 289 350 404
#
# _framework density 23.022558
#
# number of rings (size 3 to 8) (size 9 to 14) (size 15 to 20)
#    0.000    0.364    7.273    0.000    5.091    2.182 
#    0.000    1.818    0.000    0.000    0.000    0.000 
#    0.000    0.000    0.000    0.000    0.000    0.000 
#
# Total GULP energy -246023.706579 kJ/mol
# GULP energy per Si atom -5591.447877 kJ/mol
# Density = 2.297016 g / cm^3
# Si number density = 23.022558 Si / 1000 Ang^3
#
#
#
# Elastic Constant Matrix: (Units=GPa)
#
#
# Indices 1 2 3 4 5 6 
#
# 1 115.4536 36.6740 31.5099 0.0000 0.0000 0.0000
# 2 36.6740 83.5657 12.7976 0.0000 0.0000 0.0000
# 3 31.5099 12.7976 55.7062 0.0000 0.0000 0.0000
# 4 0.0000 0.0000 0.0000 40.7493 0.0000 0.0000
# 5 0.0000 0.0000 0.0000 0.0000 31.7361 0.0000
# 6 0.0000 0.0000 0.0000 0.0000 0.0000 24.5681
#
#
#
# Elastic Compliance Matrix: (Units=1/GPa)
#
#
# Indices 1 2 3 4 5 6 
#
# 1 0.011510 -0.004202 -0.005545 0.000000 0.000000 0.000000
# 2 -0.004202 0.013937 -0.000825 0.000000 0.000000 0.000000
# 3 -0.005545 -0.000825 0.021277 0.000000 0.000000 0.000000
# 4 0.000000 0.000000 0.000000 0.024540 0.000000 0.000000
# 5 0.000000 0.000000 0.000000 0.000000 0.031510 0.000000
# 6 0.000000 0.000000 0.000000 0.000000 0.000000 0.040703
#
#
# Mechanical properties :
#
#
# Convention : Reuss Voigt Hill
#
# Bulk Modulus (GPa) = 39.09290 46.29872 42.69581
# Shear Modulus (GPa) = 28.87702 30.99363 29.93532
#
# Velocity S-wave (km/s) = 3.54544 3.67308 3.60982
# Velocity P-wave (km/s) = 5.81183 6.17596 5.99666
#
# Compressibility (1/GPa) = 0.02558010
#
# Stress axis : x y z
#
# Youngs Moduli (GPa) = 86.88393 71.75105 46.99830
#
# Poissons Ratio (x) = 0.30150 0.26061
# Poissons Ratio (y) = 0.36508 0.03877
# Poissons Ratio (z) = 0.48177 0.05919
#
# Static dielectric constant tensor:
#      x y z
#    x 1.879770 0.000000 0.000000 
#    y 0.000000 1.892680 0.000000 
#    z 0.000000 0.000000 1.895500 
# 
# From -- ./inp_files/22237.got.cif
#   From: 2010.05.17/outbox.cif.g08.bks.cpg/sg52_12_cif.got.tgz:22237.got - 2010.06.03 12:15:38.
