data_PCOD9413126
_publ_section_title
;
Structure prediction by ZEFSAII (Michael W. Deem and Ramdas Pophale) SiO2 
 PCOD9413126
Probable space group: P N N A
;
_chemical_formula_sum "Si O2"
_cell_formula_units_Z 48
_cell_length_a 5.358452
_cell_length_b 26.545409
_cell_length_c 17.649113
_cell_angle_alpha 90.000000
_cell_angle_beta 90.000000
_cell_angle_gamma 90.000000
_cell_volume 2510.450425
_symmetry_space_group_name_H-M "P N N A"
_symmetry_group_IT_number 52
_symmetry_cell_setting 'orthorhombic'
loop_
_space_group_symop_operation_xyz
x,y,z
1/2-x,-y,z
x,1/2-y,1/2-z
1/2-x,1/2+y,1/2-z
-x,-y,-z
1/2+x,y,-z
-x,1/2+y,1/2+z
1/2+x,1/2-y,1/2+z
loop_
_atom_site_type_symbol
_atom_site_label
_atom_site_fract_x
_atom_site_fract_y
_atom_site_fract_z
Si Si1 0.800541 0.331581 0.177803
Si Si2 0.092095 0.313532 0.329920
Si Si3 0.940603 0.250000 0.750000
Si Si4 0.649991 0.749333 0.050528
Si Si5 0.264413 0.058379 0.725286
Si Si6 0.250000 0.500000 0.452669
Si Si7 0.765620 0.078944 0.822765
O O1 0.586453 0.298508 0.219047
O O2 0.757844 0.391771 0.171190
O O3 0.006756 0.324127 0.243450
O O4 0.854079 0.302300 0.100112
O O5 0.279680 0.267652 0.321235
O O6 0.880930 0.294579 0.387423
O O7 0.233804 0.363926 0.349861
O O8 0.907080 0.752285 0.003674
O O9 0.524877 0.063646 0.771574
O O10 0.023249 0.067860 0.778881
O O11 0.250000 0.000000 0.696796
O O12 0.500000 0.500000 0.500000
O O13 0.244004 0.546989 0.397665
#
# Coordination Sequence:
#
# PCOD9413126 Si02
#       7
#     8   8   4   8   8   4   8
#     4  11  23  38  66  94 124 168 214 269 320 375
#     4  11  23  38  65  91 124 168 213 267 305 382
#     4  12  16  38  66  92 126 152 220 260 330 360
#     4  12  26  40  60  92 137 168 203 254 325 402
#     4  11  21  39  65  92 116 151 209 286 310 355
#     4  12  24  40  58  78 126 176 202 246 314 380
#     4  11  23  38  60  90 118 154 218 265 308 355
#
# _framework density 19.120076000000001
#
# number of rings (size 3 to 8) (size 9 to 14) (size 15 to 20)
#    0.000    0.667    6.667    2.000    0.000    1.333 
#    0.000    0.000    0.000    1.000    0.000    0.000 
#    0.000    0.000    0.000    0.000    0.000    0.000 
#
# Total GULP energy -267634.091920 kJ/mol
# GULP energy per Si atom -5575.710248 kJ/mol
# Density = 1.907656 g / cm^3
# Si number density = 19.120076 Si / 1000 Ang^3
#
#
#
# Elastic Constant Matrix: (Units=GPa)
#
#
# Indices 1 2 3 4 5 6 
#
# 1 98.6658 6.8047 20.9358 0.0000 0.0000 0.0000
# 2 6.8047 144.6973 22.2718 0.0000 0.0000 0.0000
# 3 20.9358 22.2718 52.4714 0.0000 0.0000 0.0000
# 4 0.0000 0.0000 0.0000 6.1698 0.0000 0.0000
# 5 0.0000 0.0000 0.0000 0.0000 25.7085 0.0000
# 6 0.0000 0.0000 0.0000 0.0000 0.0000 26.7316
#
#
#
# Elastic Compliance Matrix: (Units=1/GPa)
#
#
# Indices 1 2 3 4 5 6 
#
# 1 0.011077 0.000170 -0.004492 0.000000 0.000000 0.000000
# 2 0.000170 0.007397 -0.003208 0.000000 0.000000 0.000000
# 3 -0.004492 -0.003208 0.022212 0.000000 0.000000 0.000000
# 4 0.000000 0.000000 0.000000 0.162079 0.000000 0.000000
# 5 0.000000 0.000000 0.000000 0.000000 0.038898 0.000000
# 6 0.000000 0.000000 0.000000 0.000000 0.000000 0.037409
#
#
# Mechanical properties :
#
#
# Convention : Reuss Voigt Hill
#
# Bulk Modulus (GPa) = 39.02126 43.98433 41.50280
# Shear Modulus (GPa) = 16.51958 28.11014 22.31486
#
# Velocity S-wave (km/s) = 2.94256 3.83846 3.41998
# Velocity P-wave (km/s) = 5.65665 6.53447 6.11134
#
# Compressibility (1/GPa) = 0.02562706
#
# Stress axis : x y z
#
# Youngs Moduli (GPa) = 90.28045 135.19591 45.02127
#
# Poissons Ratio (x) = -0.02305 0.20223
# Poissons Ratio (y) = -0.01539 0.14441
# Poissons Ratio (z) = 0.40553 0.43365
#
# Static dielectric constant tensor:
#      x y z
#    x 1.748960 0.000000 0.000000 
#    y 0.000000 5.921330 0.000000 
#    z 0.000000 0.000000 1.673210 
# 
# From -- ./inp_files/23708.got.cif
#   From: 2010.05.17/outbox.cif.g08.bks.cpg/sg52_12_cif.got.tgz:23708.got - 2010.06.03 12:15:38.
