data_PCOD9413471
_publ_section_title
;
Structure prediction by ZEFSAII (Michael W. Deem and Ramdas Pophale) SiO2 
 PCOD9413471
Probable space group: P N N A
;
_chemical_formula_sum "Si O2"
_cell_formula_units_Z 32
_cell_length_a 11.955728
_cell_length_b 4.827959
_cell_length_c 23.801627
_cell_angle_alpha 90.000000
_cell_angle_beta 90.000000
_cell_angle_gamma 90.000000
_cell_volume 1373.871911
_symmetry_space_group_name_H-M "P N N A"
_symmetry_group_IT_number 52
_symmetry_cell_setting 'orthorhombic'
loop_
_space_group_symop_operation_xyz
x,y,z
1/2-x,-y,z
x,1/2-y,1/2-z
1/2-x,1/2+y,1/2-z
-x,-y,-z
1/2+x,y,-z
-x,1/2+y,1/2+z
1/2+x,1/2-y,1/2+z
loop_
_atom_site_type_symbol
_atom_site_label
_atom_site_fract_x
_atom_site_fract_y
_atom_site_fract_z
Si Si1 0.585910 0.727584 0.618516
Si Si2 0.942905 0.228547 0.368002
Si Si3 0.250000 0.500000 0.475088
Si Si4 0.250000 0.000000 0.212271
Si Si5 0.250000 0.000000 0.552125
Si Si6 0.331820 0.250000 0.750000
O O1 0.473057 0.547859 0.622600
O O2 0.655678 0.635449 0.564403
O O3 0.657930 0.640834 0.672624
O O4 0.553617 0.048141 0.619358
O O5 0.846077 0.129028 0.409218
O O6 0.905220 0.178132 0.304160
O O7 0.294538 0.750208 0.513360
O O8 0.202845 0.250000 0.250000
O O9 0.250000 0.500000 0.733968
#
# Coordination Sequence:
#
# PCOD9413471 Si02
#       6
#     8   8   4   4   4   4
#     4  11  26  45  68 102 137 177 231 283 344 403
#     4  12  26  44  71 104 136 180 231 277 344 419
#     4  11  26  48  71  97 142 178 229 298 332 398
#     4  11  24  43  66  98 135 180 229 280 338 412
#     4  12  26  45  71 101 135 186 232 280 344 404
#     4  12  26  46  70 100 146 184 222 292 342 406
#
# _framework density 23.291837000000001
#
# number of rings (size 3 to 8) (size 9 to 14) (size 15 to 20)
#    0.000    0.500    1.250    6.000    7.000   10.000 
#    0.000    0.000    0.000    0.000    0.000    0.000 
#    0.000    0.000    0.000    0.000    0.000    0.000 
#
# Total GULP energy -179474.184372 kJ/mol
# GULP energy per Si atom -5608.568262 kJ/mol
# Density = 2.323882 g / cm^3
# Si number density = 23.291837 Si / 1000 Ang^3
#
#
#
# Elastic Constant Matrix: (Units=GPa)
#
#
# Indices 1 2 3 4 5 6 
#
# 1 51.4497 -10.0606 25.8297 0.0000 0.0000 0.0000
# 2 -10.0606 81.3492 14.7563 0.0000 0.0000 0.0000
# 3 25.8297 14.7563 135.7831 0.0000 0.0000 0.0000
# 4 0.0000 0.0000 0.0000 -22.1297 0.0000 0.0000
# 5 0.0000 0.0000 0.0000 0.0000 67.7104 0.0000
# 6 0.0000 0.0000 0.0000 0.0000 0.0000 48.8735
#
#
#
# Elastic Compliance Matrix: (Units=1/GPa)
#
#
# Indices 1 2 3 4 5 6 
#
# 1 0.022492 0.003629 -0.004673 0.000000 0.000000 0.000000
# 2 0.003629 0.013126 -0.002117 0.000000 0.000000 0.000000
# 3 -0.004673 -0.002117 0.008484 0.000000 0.000000 0.000000
# 4 0.000000 0.000000 0.000000 -0.045188 0.000000 0.000000
# 5 0.000000 0.000000 0.000000 0.000000 0.014769 0.000000
# 6 0.000000 0.000000 0.000000 0.000000 0.000000 0.020461
#
#
# Mechanical properties :
#
#
# Convention : Reuss Voigt Hill
#
# Bulk Modulus (GPa) = 26.46886 36.62588 31.54737
# Shear Modulus (GPa) = 94.23725 34.76127 64.49926
#
# Velocity S-wave (km/s) = 6.36767 3.86738 5.26801
# Velocity P-wave (km/s) = 8.09022 5.97504 7.11170
#
# Compressibility (1/GPa) = 0.03778025
#
# Stress axis : x y z
#
# Youngs Moduli (GPa) = 44.45988 76.18754 117.87339
#
# Poissons Ratio (x) = -0.27651 0.55083
# Poissons Ratio (y) = -0.16136 0.24952
# Poissons Ratio (z) = 0.20776 0.16128
#
# Static dielectric constant tensor:
#      x y z
#    x 1.848080 0.000000 0.000000 
#    y 0.000000 1.810540 0.000000 
#    z 0.000000 0.000000 1.841170 
# 
# From -- ./inp_files/36497.got.cif
#   From: 2010.05.17/outbox.cif.g08.bks.cpg/sg52_19_cif.got.tgz:36497.got - 2010.06.03 12:15:38.
