data_PCOD9413769
_publ_section_title
;
Structure prediction by ZEFSAII (Michael W. Deem and Ramdas Pophale) SiO2 
 PCOD9413769
Probable space group: P N N A
;
_chemical_formula_sum "Si O2"
_cell_formula_units_Z 24
_cell_length_a 9.433187
_cell_length_b 16.511978
_cell_length_c 7.178868
_cell_angle_alpha 90.000000
_cell_angle_beta 90.000000
_cell_angle_gamma 90.000000
_cell_volume 1118.184616
_symmetry_space_group_name_H-M "P N N A"
_symmetry_group_IT_number 52
_symmetry_cell_setting 'orthorhombic'
loop_
_space_group_symop_operation_xyz
x,y,z
1/2-x,-y,z
x,1/2-y,1/2-z
1/2-x,1/2+y,1/2-z
-x,-y,-z
1/2+x,y,-z
-x,1/2+y,1/2+z
1/2+x,1/2-y,1/2+z
loop_
_atom_site_type_symbol
_atom_site_label
_atom_site_fract_x
_atom_site_fract_y
_atom_site_fract_z
Si Si1 0.877088 0.442767 0.583678
Si Si2 0.974299 0.906185 0.447306
Si Si3 0.191561 0.656807 0.781218
O O1 0.750000 0.500000 0.652230
O O2 0.942745 0.392906 0.753257
O O3 0.819945 0.388371 0.415658
O O4 0.000000 0.500000 0.500000
O O5 0.043610 0.853383 0.609811
O O6 0.811771 0.886486 0.405142
O O7 0.000000 0.000000 0.500000
O O8 0.227665 0.750000 0.750000
#
# Coordination Sequence:
#
# PCOD9413769 Si02
#       3
#     8   8   8
#     4  12  23  44  74 103 139 187 244 287 347 432
#     4  12  25  49  75 102 142 193 243 286 357 443
#     4  12  29  45  69 110 145 184 237 301 365 412
#
# _framework density 21.463360000000002
#
# number of rings (size 3 to 8) (size 9 to 14) (size 15 to 20)
#    0.000    0.000    6.667    3.000    4.667    0.000 
#    0.000    0.000    0.000    0.000    0.000    0.000 
#    0.000    0.000    0.000    0.000    0.000    0.000 
#
# Total GULP energy -134452.742759 kJ/mol
# GULP energy per Si atom -5602.197615 kJ/mol
# Density = 2.141451 g / cm^3
# Si number density = 21.463360 Si / 1000 Ang^3
#
#
#
# Elastic Constant Matrix: (Units=GPa)
#
#
# Indices 1 2 3 4 5 6 
#
# 1 66.0222 12.3391 -0.4456 0.0000 0.0000 0.0000
# 2 12.3391 102.2208 5.8161 0.0000 0.0000 0.0000
# 3 -0.4456 5.8161 80.8089 0.0000 0.0000 0.0000
# 4 0.0000 0.0000 0.0000 28.8052 0.0000 0.0000
# 5 0.0000 0.0000 0.0000 0.0000 55.6771 0.0000
# 6 0.0000 0.0000 0.0000 0.0000 0.0000 24.5398
#
#
#
# Elastic Compliance Matrix: (Units=1/GPa)
#
#
# Indices 1 2 3 4 5 6 
#
# 1 0.015500 -0.001884 0.000221 0.000000 0.000000 0.000000
# 2 -0.001884 0.010052 -0.000734 0.000000 0.000000 0.000000
# 3 0.000221 -0.000734 0.012429 0.000000 0.000000 0.000000
# 4 0.000000 0.000000 0.000000 0.034716 0.000000 0.000000
# 5 0.000000 0.000000 0.000000 0.000000 0.017961 0.000000
# 6 0.000000 0.000000 0.000000 0.000000 0.000000 0.040750
#
#
# Mechanical properties :
#
#
# Convention : Reuss Voigt Hill
#
# Bulk Modulus (GPa) = 30.13145 31.60792 30.86968
# Shear Modulus (GPa) = 33.95288 37.22725 35.59007
#
# Velocity S-wave (km/s) = 3.98162 4.16920 4.07649
# Velocity P-wave (km/s) = 5.93353 6.15912 6.04738
#
# Compressibility (1/GPa) = 0.03318792
#
# Stress axis : x y z
#
# Youngs Moduli (GPa) = 64.51636 99.48405 80.45758
#
# Poissons Ratio (x) = 0.18739 -0.01778
# Poissons Ratio (y) = 0.12152 0.05904
# Poissons Ratio (z) = -0.01426 0.07301
#
# Static dielectric constant tensor:
#      x y z
#    x 1.819690 0.000000 0.000000 
#    y 0.000000 1.743780 0.000000 
#    z 0.000000 0.000000 1.789610 
# 
# From -- ./inp_files/6967.got.cif
#   From: 2010.05.17/outbox.cif.g08.bks.cpg/sg52_4_cif.got.tgz:6967.got - 2010.06.03 12:15:38.
