data_PCOD9413276
_publ_section_title
;
Structure prediction by ZEFSAII (Michael W. Deem and Ramdas Pophale) SiO2 
 PCOD9413276
Probable space group: P N N A
;
_chemical_formula_sum "Si O2"
_cell_formula_units_Z 56
_cell_length_a 14.876769
_cell_length_b 14.900957
_cell_length_c 11.847971
_cell_angle_alpha 90.000000
_cell_angle_beta 90.000000
_cell_angle_gamma 90.000000
_cell_volume 2626.435643
_symmetry_space_group_name_H-M "P N N A"
_symmetry_group_IT_number 52
_symmetry_cell_setting 'orthorhombic'
loop_
_space_group_symop_operation_xyz
x,y,z
1/2-x,-y,z
x,1/2-y,1/2-z
1/2-x,1/2+y,1/2-z
-x,-y,-z
1/2+x,y,-z
-x,1/2+y,1/2+z
1/2+x,1/2-y,1/2+z
loop_
_atom_site_type_symbol
_atom_site_label
_atom_site_fract_x
_atom_site_fract_y
_atom_site_fract_z
Si Si1 0.227174 0.095226 0.514216
Si Si2 0.448090 0.250293 0.007520
Si Si3 0.731751 0.722782 0.618525
Si Si4 0.148399 0.836167 0.701041
Si Si5 0.102840 0.107570 0.028897
Si Si6 0.026540 0.425565 0.907932
Si Si7 0.449614 0.485468 0.667778
O O1 0.245131 0.183111 0.442055
O O2 0.291654 0.101403 0.622747
O O3 0.126441 0.100388 0.556414
O O4 0.250000 0.000000 0.456622
O O5 0.364694 0.197648 0.063584
O O6 0.464603 0.338654 0.082199
O O7 0.423721 0.290620 0.884004
O O8 0.536280 0.190147 0.000573
O O9 0.728037 0.750000 0.750000
O O10 0.807330 0.649129 0.584308
O O11 0.200522 0.750000 0.750000
O O12 0.104171 0.896157 0.796879
O O13 0.043076 0.045536 0.111674
O O14 0.108986 0.047618 0.915676
O O15 0.028037 0.464523 0.783405
O O16 0.000000 0.500000 0.000000
#
# Coordination Sequence:
#
# PCOD9413276 Si02
#       7
#     8   8   8   8   8   8   8
#     4  11  23  45  68 110 134 178 251 293 356 432
#     4  11  24  45  71 104 140 187 247 291 360 431
#     4  11  27  47  73 103 145 195 239 294 367 443
#     4  11  22  43  73  96 141 185 232 301 351 429
#     4  11  26  48  72 105 145 195 236 294 378 435
#     4  12  23  41  74 102 140 187 233 308 355 420
#     4  11  25  44  71 107 142 187 246 299 360 435
#
# _framework density 21.321673000000001
#
# number of rings (size 3 to 8) (size 9 to 14) (size 15 to 20)
#    0.000    0.857    5.714    0.857    6.000    2.286 
#    2.571    2.143    0.000    0.000    0.000    0.000 
#    0.000    0.000    0.000    0.000    0.000    0.000 
#
# Total GULP energy -313069.483685 kJ/mol
# GULP energy per Si atom -5590.526494 kJ/mol
# Density = 2.127314 g / cm^3
# Si number density = 21.321673 Si / 1000 Ang^3
#
#
#
# Elastic Constant Matrix: (Units=GPa)
#
#
# Indices 1 2 3 4 5 6 
#
# 1 80.0641 12.9483 17.2220 0.0000 0.0000 0.0000
# 2 12.9483 52.6686 7.3145 0.0000 0.0000 0.0000
# 3 17.2220 7.3145 99.3143 0.0000 0.0000 0.0000
# 4 0.0000 0.0000 0.0000 15.7367 0.0000 0.0000
# 5 0.0000 0.0000 0.0000 0.0000 4.4353 0.0000
# 6 0.0000 0.0000 0.0000 0.0000 0.0000 34.1036
#
#
#
# Elastic Compliance Matrix: (Units=1/GPa)
#
#
# Indices 1 2 3 4 5 6 
#
# 1 0.013430 -0.003009 -0.002107 0.000000 0.000000 0.000000
# 2 -0.003009 0.019857 -0.000941 0.000000 0.000000 0.000000
# 3 -0.002107 -0.000941 0.010504 0.000000 0.000000 0.000000
# 4 0.000000 0.000000 0.000000 0.063546 0.000000 0.000000
# 5 0.000000 0.000000 0.000000 0.000000 0.225462 0.000000
# 6 0.000000 0.000000 0.000000 0.000000 0.000000 0.029322
#
#
# Mechanical properties :
#
#
# Convention : Reuss Voigt Hill
#
# Bulk Modulus (GPa) = 31.56885 34.11294 32.84089
# Shear Modulus (GPa) = 12.99399 23.82594 18.40997
#
# Velocity S-wave (km/s) = 2.47133 3.34646 2.94162
# Velocity P-wave (km/s) = 4.79390 5.56468 5.19361
#
# Compressibility (1/GPa) = 0.03167680
#
# Stress axis : x y z
#
# Youngs Moduli (GPa) = 74.46070 50.35994 95.20417
#
# Poissons Ratio (x) = 0.15153 0.20062
# Poissons Ratio (y) = 0.22405 0.08956
# Poissons Ratio (z) = 0.15691 0.04737
#
# Static dielectric constant tensor:
#      x y z
#    x 1.813890 0.000000 0.000000 
#    y 0.000000 1.843740 0.000000 
#    z 0.000000 0.000000 1.791470 
# 
# From -- ./inp_files/19609.got.cif
#   From: 2010.05.17/outbox.cif.g08.bks.cpg/sg52_10_cif.got.tgz:19609.got - 2010.06.03 12:15:38.
