data_PCOD9413180
_publ_section_title
;
Structure prediction by ZEFSAII (Michael W. Deem and Ramdas Pophale) SiO2 
 PCOD9413180
Probable space group: P N N A
;
_chemical_formula_sum "Si O2"
_cell_formula_units_Z 48
_cell_length_a 27.238396
_cell_length_b 8.262416
_cell_length_c 8.955984
_cell_angle_alpha 90.000000
_cell_angle_beta 90.000000
_cell_angle_gamma 90.000000
_cell_volume 2015.588611
_symmetry_space_group_name_H-M "P N N A"
_symmetry_group_IT_number 52
_symmetry_cell_setting 'orthorhombic'
loop_
_space_group_symop_operation_xyz
x,y,z
1/2-x,-y,z
x,1/2-y,1/2-z
1/2-x,1/2+y,1/2-z
-x,-y,-z
1/2+x,y,-z
-x,1/2+y,1/2+z
1/2+x,1/2-y,1/2+z
loop_
_atom_site_type_symbol
_atom_site_label
_atom_site_fract_x
_atom_site_fract_y
_atom_site_fract_z
Si Si1 0.192061 0.995409 0.539183
Si Si2 0.119674 0.726325 0.086176
Si Si3 0.603706 0.086468 0.977024
Si Si4 0.464775 0.750000 0.250000
Si Si5 0.016962 0.919236 0.341987
Si Si6 0.362616 0.750000 0.750000
Si Si7 0.704876 0.415137 0.697576
O O1 0.157855 0.834115 0.539643
O O2 0.250000 0.000000 0.574860
O O3 0.168214 0.134414 0.640084
O O4 0.188834 0.024585 0.360805
O O5 0.144070 0.750000 0.250000
O O6 0.075127 0.605018 0.122584
O O7 0.093848 0.896299 0.043283
O O8 0.570779 0.217300 0.890949
O O9 0.658137 0.101796 0.905536
O O10 0.605335 0.133956 0.147761
O O11 0.493032 0.579991 0.255444
O O12 0.003849 0.750000 0.250000
O O13 0.000000 0.000000 0.500000
O O14 0.750000 0.500000 0.617342
O O15 0.729143 0.250000 0.750000
#
# Coordination Sequence:
#
# PCOD9413180 Si02
#       7
#     8   8   8   4   8   4   8
#     4  11  25  41  64 100 143 191 250 310 370 446
#     4  11  22  46  75 104 141 190 256 309 367 440
#     4  12  23  42  73  99 141 196 243 306 371 450
#     4  12  22  50  82 105 152 194 250 313 376 468
#     4  11  25  49  80 120 154 195 252 323 393 461
#     4  12  26  42  58 101 152 198 240 299 390 446
#     4  11  22  36  62  95 127 180 253 298 344 420
#
# _framework density 23.814385000000001
#
# number of rings (size 3 to 8) (size 9 to 14) (size 15 to 20)
#    0.000    0.667    7.500    1.000    4.667    3.333 
#    6.000    0.000    0.000    0.000    0.000    0.000 
#    0.000    0.000    0.000    0.000    0.000    0.000 
#
# Total GULP energy -267264.049572 kJ/mol
# GULP energy per Si atom -5568.001033 kJ/mol
# Density = 2.376018 g / cm^3
# Si number density = 23.814385 Si / 1000 Ang^3
#
#
#
# Elastic Constant Matrix: (Units=GPa)
#
#
# Indices 1 2 3 4 5 6 
#
# 1 59.7821 21.3958 18.2386 0.0000 0.0000 0.0000
# 2 21.3958 166.6317 33.0589 0.0000 0.0000 0.0000
# 3 18.2386 33.0589 92.0560 0.0000 0.0000 0.0000
# 4 0.0000 0.0000 0.0000 37.5685 0.0000 0.0000
# 5 0.0000 0.0000 0.0000 0.0000 -56.3794 0.0000
# 6 0.0000 0.0000 0.0000 0.0000 0.0000 8.6598
#
#
#
# Elastic Compliance Matrix: (Units=1/GPa)
#
#
# Indices 1 2 3 4 5 6 
#
# 1 0.018267 -0.001752 -0.002990 0.000000 0.000000 0.000000
# 2 -0.001752 0.006630 -0.002034 0.000000 0.000000 0.000000
# 3 -0.002990 -0.002034 0.012186 0.000000 0.000000 0.000000
# 4 0.000000 0.000000 0.000000 0.026618 0.000000 0.000000
# 5 0.000000 0.000000 0.000000 0.000000 -0.017737 0.000000
# 6 0.000000 0.000000 0.000000 0.000000 0.000000 0.115476
#
#
# Mechanical properties :
#
#
# Convention : Reuss Voigt Hill
#
# Bulk Modulus (GPa) = 42.49807 51.53962 47.01884
# Shear Modulus (GPa) = 27.34723 14.35488 20.85106
#
# Velocity S-wave (km/s) = 3.39241 2.45783 2.96221
# Velocity P-wave (km/s) = 5.76445 5.45378 5.61127
#
# Compressibility (1/GPa) = 0.02353048
#
# Stress axis : x y z
#
# Youngs Moduli (GPa) = 54.74439 150.83570 82.06382
#
# Poissons Ratio (x) = 0.26431 0.24536
# Poissons Ratio (y) = 0.09593 0.16689
# Poissons Ratio (z) = 0.16368 0.30675
#
# Static dielectric constant tensor:
#      x y z
#    x 1.970640 0.000000 0.000000 
#    y 0.000000 1.959860 0.000000 
#    z 0.000000 0.000000 1.920850 
# 
# From -- ./inp_files/15603.got.cif
#   From: 2010.05.17/outbox.cif.g08.bks.cpg/sg52_8_cif.got.tgz:15603.got - 2010.06.03 12:15:38.
