data_PCOD9413490
_publ_section_title
;
Structure prediction by ZEFSAII (Michael W. Deem and Ramdas Pophale) SiO2 
 PCOD9413490
Probable space group: P N N A
;
_chemical_formula_sum "Si O2"
_cell_formula_units_Z 32
_cell_length_a 20.752226
_cell_length_b 12.975713
_cell_length_c 5.144001
_cell_angle_alpha 90.000000
_cell_angle_beta 90.000000
_cell_angle_gamma 90.000000
_cell_volume 1385.150502
_symmetry_space_group_name_H-M "P N N A"
_symmetry_group_IT_number 52
_symmetry_cell_setting 'orthorhombic'
loop_
_space_group_symop_operation_xyz
x,y,z
1/2-x,-y,z
x,1/2-y,1/2-z
1/2-x,1/2+y,1/2-z
-x,-y,-z
1/2+x,y,-z
-x,1/2+y,1/2+z
1/2+x,1/2-y,1/2+z
loop_
_atom_site_type_symbol
_atom_site_label
_atom_site_fract_x
_atom_site_fract_y
_atom_site_fract_z
Si Si1 0.975071 0.250000 0.250000
Si Si2 0.701304 0.250000 0.750000
Si Si3 0.618267 0.934019 0.303228
Si Si4 0.092356 0.161056 0.558582
Si Si5 0.701717 0.585966 0.688607
O O1 0.929581 0.153244 0.193921
O O2 0.024692 0.206066 0.462096
O O3 0.650256 0.165264 0.648402
O O4 0.753662 0.318336 0.596311
O O5 0.651610 0.895378 0.572982
O O6 0.584949 0.044474 0.350843
O O7 0.668069 0.952890 0.071535
O O8 0.117134 0.250000 0.750000
O O9 0.750000 0.500000 0.795615
#
# Coordination Sequence:
#
# PCOD9413490 Si02
#       5
#     4   4   8   8   8
#     4  11  28  48  72 108 142 201 250 308 354 435
#     4  11  24  44  68 110 142 193 242 298 380 441
#     4  12  27  48  74 110 145 193 249 302 372 433
#     4  11  26  46  74 102 150 195 245 304 367 441
#     4  12  25  45  74 105 146 186 237 304 366 443
#
# _framework density 23.102184999999999
#
# number of rings (size 3 to 8) (size 9 to 14) (size 15 to 20)
#    0.000    0.500    2.500    4.500   10.500    1.000 
#    0.000    0.000    0.000    0.000    0.000    0.000 
#    0.000    0.000    0.000    0.000    0.000    0.000 
#
# Total GULP energy -178463.622502 kJ/mol
# GULP energy per Si atom -5576.988203 kJ/mol
# Density = 2.304960 g / cm^3
# Si number density = 23.102185 Si / 1000 Ang^3
#
#
#
# Elastic Constant Matrix: (Units=GPa)
#
#
# Indices 1 2 3 4 5 6 
#
# 1 85.5425 56.7628 24.3444 0.0000 0.0000 0.0000
# 2 56.7628 166.3457 1.9762 0.0000 0.0000 0.0000
# 3 24.3444 1.9762 55.2454 0.0000 0.0000 0.0000
# 4 0.0000 0.0000 0.0000 24.0296 0.0000 0.0000
# 5 0.0000 0.0000 0.0000 0.0000 -29.1341 0.0000
# 6 0.0000 0.0000 0.0000 0.0000 0.0000 38.4921
#
#
#
# Elastic Compliance Matrix: (Units=1/GPa)
#
#
# Indices 1 2 3 4 5 6 
#
# 1 0.017848 -0.006000 -0.007650 0.000000 0.000000 0.000000
# 2 -0.006000 0.008031 0.002357 0.000000 0.000000 0.000000
# 3 -0.007650 0.002357 0.021388 0.000000 0.000000 0.000000
# 4 0.000000 0.000000 0.000000 0.041615 0.000000 0.000000
# 5 0.000000 0.000000 0.000000 0.000000 -0.034324 0.000000
# 6 0.000000 0.000000 0.000000 0.000000 0.000000 0.025979
#
#
# Mechanical properties :
#
#
# Convention : Reuss Voigt Hill
#
# Bulk Modulus (GPa) = 40.51835 52.58894 46.55364
# Shear Modulus (GPa) = 44.90270 21.61420 33.25845
#
# Velocity S-wave (km/s) = 4.41347 3.06206 3.79835
# Velocity P-wave (km/s) = 6.59913 5.94261 6.27946
#
# Compressibility (1/GPa) = 0.02468018
#
# Stress axis : x y z
#
# Youngs Moduli (GPa) = 56.02728 124.51986 46.75510
#
# Poissons Ratio (x) = 0.74707 0.35770
# Poissons Ratio (y) = 0.33614 -0.11018
# Poissons Ratio (z) = 0.42864 -0.29343
#
# Static dielectric constant tensor:
#      x y z
#    x 1.870900 0.000000 0.000000 
#    y 0.000000 0.460870 0.000000 
#    z 0.000000 0.000000 2.039810 
# 
# From -- ./inp_files/3031.got.cif
#   From: 2010.05.17/outbox.cif.g08.bks.cpg/sg52_2_cif.got.tgz:3031.got - 2010.06.03 12:15:38.
