data_PCOD9413201
_publ_section_title
;
Structure prediction by ZEFSAII (Michael W. Deem and Ramdas Pophale) SiO2 
 PCOD9413201
Probable space group: P N N A
;
_chemical_formula_sum "Si O2"
_cell_formula_units_Z 48
_cell_length_a 19.637686
_cell_length_b 16.345952
_cell_length_c 7.241686
_cell_angle_alpha 90.000000
_cell_angle_beta 90.000000
_cell_angle_gamma 90.000000
_cell_volume 2324.557111
_symmetry_space_group_name_H-M "P N N A"
_symmetry_group_IT_number 52
_symmetry_cell_setting 'orthorhombic'
loop_
_space_group_symop_operation_xyz
x,y,z
1/2-x,-y,z
x,1/2-y,1/2-z
1/2-x,1/2+y,1/2-z
-x,-y,-z
1/2+x,y,-z
-x,1/2+y,1/2+z
1/2+x,1/2-y,1/2+z
loop_
_atom_site_type_symbol
_atom_site_label
_atom_site_fract_x
_atom_site_fract_y
_atom_site_fract_z
Si Si1 0.129872 0.863825 0.947478
Si Si2 0.331672 0.990891 0.676359
Si Si3 0.866578 0.096524 0.619046
Si Si4 0.767328 0.231478 0.538350
Si Si5 0.878264 0.685626 0.089313
Si Si6 0.475825 0.225009 0.467429
O O1 0.132138 0.896504 0.160119
O O2 0.196616 0.804756 0.926456
O O3 0.065388 0.800372 0.935585
O O4 0.134034 0.941406 0.811894
O O5 0.354245 0.008321 0.464019
O O6 0.250000 0.000000 0.702035
O O7 0.360994 0.899565 0.693221
O O8 0.805905 0.146295 0.518040
O O9 0.931404 0.142730 0.535909
O O10 0.784048 0.250000 0.750000
O O11 0.688683 0.215119 0.516256
O O12 0.886211 0.750000 0.250000
O O13 0.948412 0.697786 0.976620
O O14 0.474815 0.250000 0.250000
#
# Coordination Sequence:
#
# PCOD9413201 Si02
#       6
#     8   8   8   8   8   8
#     4   9  20  40  65  87 116 165 209 238 309 374
#     4  12  23  36  62  96 123 156 200 259 316 355
#     4   9  19  39  61  85 122 157 201 252 298 361
#     4   9  18  36  60  84 118 160 200 250 305 364
#     4  11  22  39  58  87 127 153 203 261 302 361
#     4   8  18  39  63  83 119 165 202 247 296 365
#
# _framework density 20.649094999999999
#
# number of rings (size 3 to 8) (size 9 to 14) (size 15 to 20)
#    0.000    2.333    1.667    3.000    0.000    3.333 
#    6.000    7.500    0.000    0.000    0.000    0.000 
#    0.000    0.000    0.000    0.000    0.000    0.000 
#
# Total GULP energy -267202.919350 kJ/mol
# GULP energy per Si atom -5566.727486 kJ/mol
# Density = 2.060210 g / cm^3
# Si number density = 20.649095 Si / 1000 Ang^3
#
#
#
# Elastic Constant Matrix: (Units=GPa)
#
#
# Indices 1 2 3 4 5 6 
#
# 1 147.8436 45.1106 7.8095 0.0000 0.0000 0.0000
# 2 45.1106 114.9503 41.0925 0.0000 0.0000 0.0000
# 3 7.8095 41.0925 68.8761 0.0000 0.0000 0.0000
# 4 0.0000 0.0000 0.0000 13.7323 0.0000 0.0000
# 5 0.0000 0.0000 0.0000 0.0000 6.9395 0.0000
# 6 0.0000 0.0000 0.0000 0.0000 0.0000 10.5692
#
#
#
# Elastic Compliance Matrix: (Units=1/GPa)
#
#
# Indices 1 2 3 4 5 6 
#
# 1 0.007760 -0.003471 0.001191 0.000000 0.000000 0.000000
# 2 -0.003471 0.012610 -0.007130 0.000000 0.000000 0.000000
# 3 0.001191 -0.007130 0.018638 0.000000 0.000000 0.000000
# 4 0.000000 0.000000 0.000000 0.072821 0.000000 0.000000
# 5 0.000000 0.000000 0.000000 0.000000 0.144103 0.000000
# 6 0.000000 0.000000 0.000000 0.000000 0.000000 0.094615
#
#
# Mechanical properties :
#
#
# Convention : Reuss Voigt Hill
#
# Bulk Modulus (GPa) = 49.53427 57.74390 53.63908
# Shear Modulus (GPa) = 13.29447 22.09202 17.69325
#
# Velocity S-wave (km/s) = 2.54013 3.27445 2.93038
# Velocity P-wave (km/s) = 5.71346 6.50547 6.12229
#
# Compressibility (1/GPa) = 0.02018804
#
# Stress axis : x y z
#
# Youngs Moduli (GPa) = 128.86405 79.29940 53.65488
#
# Poissons Ratio (x) = 0.27526 -0.06391
# Poissons Ratio (y) = 0.44730 0.38256
# Poissons Ratio (z) = -0.15348 0.56540
#
# Static dielectric constant tensor:
#      x y z
#    x 1.907320 0.000000 0.000000 
#    y 0.000000 1.803310 0.000000 
#    z 0.000000 0.000000 1.873770 
# 
# From -- ./inp_files/12078.got.cif
#   From: 2010.05.17/outbox.cif.g08.bks.cpg/sg52_7_cif.got.tgz:12078.got - 2010.06.03 12:15:38.
