data_PCOD9413926
_publ_section_title
;
Structure prediction by ZEFSAII (Michael W. Deem and Ramdas Pophale) SiO2 
 PCOD9413926
Probable space group: P N N A
;
_chemical_formula_sum "Si O2"
_cell_formula_units_Z 36
_cell_length_a 11.957870
_cell_length_b 23.022175
_cell_length_c 4.765885
_cell_angle_alpha 90.000000
_cell_angle_beta 90.000000
_cell_angle_gamma 90.000000
_cell_volume 1312.029915
_symmetry_space_group_name_H-M "P N N A"
_symmetry_group_IT_number 52
_symmetry_cell_setting 'orthorhombic'
loop_
_space_group_symop_operation_xyz
x,y,z
1/2-x,-y,z
x,1/2-y,1/2-z
1/2-x,1/2+y,1/2-z
-x,-y,-z
1/2+x,y,-z
-x,1/2+y,1/2+z
1/2+x,1/2-y,1/2+z
loop_
_atom_site_type_symbol
_atom_site_label
_atom_site_fract_x
_atom_site_fract_y
_atom_site_fract_z
Si Si1 0.059895 0.846767 0.126401
Si Si2 0.294019 0.308859 0.898830
Si Si3 0.863829 0.884749 0.813032
Si Si4 0.068910 0.942862 0.528667
Si Si5 0.750000 0.000000 0.084130
O O1 0.101515 0.805037 0.380433
O O2 0.147407 0.837273 0.872746
O O3 0.089027 0.911851 0.235328
O O4 0.926544 0.846160 0.055923
O O5 0.251328 0.250000 0.750000
O O6 0.210518 0.347218 0.094390
O O7 0.978251 0.900772 0.660718
O O8 0.815808 0.948044 0.916231
O O9 0.174201 0.962204 0.704703
O O10 0.000000 0.000000 0.500000
#
# Coordination Sequence:
#
# PCOD9413926 Si02
#       5
#     8   8   8   8   4
#     4  12  28  56  90 130 185 240 310 386 470 552
#     4  12  31  60  93 132 183 246 322 396 466 548
#     4  12  29  53  92 138 187 246 311 387 465 570
#     4  12  28  50  82 134 190 241 294 374 464 574
#     4  12  28  52  92 138 200 256 302 378 486 590
#
# _framework density 27.438400000000001
#
# number of rings (size 3 to 8) (size 9 to 14) (size 15 to 20)
#    0.000    0.000    4.444    2.667    9.333    0.000 
#    4.000    1.111    4.889    0.000    0.000    0.000 
#    0.000    0.000    0.000    0.000    0.000    0.000 
#
# Total GULP energy -201039.717425 kJ/mol
# GULP energy per Si atom -5584.436595 kJ/mol
# Density = 2.737595 g / cm^3
# Si number density = 27.438400 Si / 1000 Ang^3
#
#
#
# Elastic Constant Matrix: (Units=GPa)
#
#
# Indices 1 2 3 4 5 6 
#
# 1 149.4040 76.0182 98.1798 0.0000 0.0000 0.0000
# 2 76.0182 175.1725 91.1564 0.0000 0.0000 0.0000
# 3 98.1798 91.1564 222.5565 0.0000 0.0000 0.0000
# 4 0.0000 0.0000 0.0000 81.0758 0.0000 0.0000
# 5 0.0000 0.0000 0.0000 0.0000 65.5588 0.0000
# 6 0.0000 0.0000 0.0000 0.0000 0.0000 39.1786
#
#
#
# Elastic Compliance Matrix: (Units=1/GPa)
#
#
# Indices 1 2 3 4 5 6 
#
# 1 0.010331 -0.002684 -0.003458 0.000000 0.000000 0.000000
# 2 -0.002684 0.007952 -0.002073 0.000000 0.000000 0.000000
# 3 -0.003458 -0.002073 0.006868 0.000000 0.000000 0.000000
# 4 0.000000 0.000000 0.000000 0.012334 0.000000 0.000000
# 5 0.000000 0.000000 0.000000 0.000000 0.015253 0.000000
# 6 0.000000 0.000000 0.000000 0.000000 0.000000 0.025524
#
#
# Mechanical properties :
#
#
# Convention : Reuss Voigt Hill
#
# Bulk Modulus (GPa) = 114.66668 119.76020 117.21344
# Shear Modulus (GPa) = 51.22890 55.94791 53.58840
#
# Velocity S-wave (km/s) = 4.32563 4.52047 4.42412
# Velocity P-wave (km/s) = 8.17492 8.42543 8.30112
#
# Compressibility (1/GPa) = 0.00872093
#
# Stress axis : x y z
#
# Youngs Moduli (GPa) = 96.79153 125.75225 145.60136
#
# Poissons Ratio (x) = 0.33749 0.50356
# Poissons Ratio (y) = 0.25976 0.30186
# Poissons Ratio (z) = 0.33475 0.26071
#
# Static dielectric constant tensor:
#      x y z
#    x 2.011570 0.000000 0.000000 
#    y 0.000000 2.228170 0.000000 
#    z 0.000000 0.000000 2.507150 
# 
# From -- ./inp_files/1225.got.cif
#   From: 2010.05.17/outbox.cif.g08.bks.cpg/sg52_1_cif.got.tgz:1225.got - 2010.06.03 12:15:38.
