data_PCOD9413604
_publ_section_title
;
Structure prediction by ZEFSAII (Michael W. Deem and Ramdas Pophale) SiO2 
 PCOD9413604
Probable space group: P N N A
;
_chemical_formula_sum "Si O2"
_cell_formula_units_Z 32
_cell_length_a 7.477078
_cell_length_b 15.961286
_cell_length_c 9.498892
_cell_angle_alpha 90.000000
_cell_angle_beta 90.000000
_cell_angle_gamma 90.000000
_cell_volume 1133.633681
_symmetry_space_group_name_H-M "P N N A"
_symmetry_group_IT_number 52
_symmetry_cell_setting 'orthorhombic'
loop_
_space_group_symop_operation_xyz
x,y,z
1/2-x,-y,z
x,1/2-y,1/2-z
1/2-x,1/2+y,1/2-z
-x,-y,-z
1/2+x,y,-z
-x,1/2+y,1/2+z
1/2+x,1/2-y,1/2+z
loop_
_atom_site_type_symbol
_atom_site_label
_atom_site_fract_x
_atom_site_fract_y
_atom_site_fract_z
Si Si1 0.989181 0.576520 0.313886
Si Si2 0.919101 0.388942 0.282493
Si Si3 0.721528 0.292007 0.572375
Si Si4 0.984030 0.161160 0.542752
O O1 0.000185 0.477374 0.335171
O O2 0.785395 0.608672 0.339953
O O3 0.988966 0.583721 0.144289
O O4 0.139672 0.631014 0.393713
O O5 0.036395 0.318556 0.356488
O O6 0.942181 0.371781 0.114913
O O7 0.824864 0.209084 0.623065
O O8 0.634570 0.234062 0.444645
#
# Coordination Sequence:
#
# PCOD9413604 Si02
#       4
#     8   8   8   8
#     4  11  25  47  72 105 148 191 239 300 364 432
#     4  11  25  47  72 105 148 191 239 300 364 432
#     4  12  28  44  74 110 148 186 244 306 361 426
#     4  12  23  46  75 108 142 190 246 302 355 430
#
# _framework density 28.227815
#
# number of rings (size 3 to 8) (size 9 to 14) (size 15 to 20)
#    0.000    0.500    2.500    6.000    3.500    2.000 
#    0.000    5.000    0.000    0.000    0.000    0.000 
#    0.000    0.000    0.000    0.000    0.000    0.000 
#
# Total GULP energy -178272.506574 kJ/mol
# GULP energy per Si atom -5571.015830 kJ/mol
# Density = 2.816357 g / cm^3
# Si number density = 28.227815 Si / 1000 Ang^3
#
#
#
# Elastic Constant Matrix: (Units=GPa)
#
#
# Indices 1 2 3 4 5 6 
#
# 1 130.1780 28.7759 21.5200 0.0000 0.0000 0.0000
# 2 28.7759 153.3479 12.2192 0.0000 0.0000 0.0000
# 3 21.5200 12.2192 129.8057 0.0000 0.0000 0.0000
# 4 0.0000 0.0000 0.0000 43.6929 0.0000 0.0000
# 5 0.0000 0.0000 0.0000 0.0000 26.1910 0.0000
# 6 0.0000 0.0000 0.0000 0.0000 0.0000 38.8156
#
#
#
# Elastic Compliance Matrix: (Units=1/GPa)
#
#
# Indices 1 2 3 4 5 6 
#
# 1 0.008203 -0.001442 -0.001224 0.000000 0.000000 0.000000
# 2 -0.001442 0.006824 -0.000403 0.000000 0.000000 0.000000
# 3 -0.001224 -0.000403 0.007945 0.000000 0.000000 0.000000
# 4 0.000000 0.000000 0.000000 0.022887 0.000000 0.000000
# 5 0.000000 0.000000 0.000000 0.000000 0.038181 0.000000
# 6 0.000000 0.000000 0.000000 0.000000 0.000000 0.025763
#
#
# Mechanical properties :
#
#
# Convention : Reuss Voigt Hill
#
# Bulk Modulus (GPa) = 59.40757 59.81797 59.61277
# Shear Modulus (GPa) = 41.13473 45.12767 43.13120
#
# Velocity S-wave (km/s) = 3.82152 4.00271 3.91316
# Velocity P-wave (km/s) = 6.36895 6.52682 6.44837
#
# Compressibility (1/GPa) = 0.01683287
#
# Stress axis : x y z
#
# Youngs Moduli (GPa) = 121.90865 146.54588 125.86934
#
# Poissons Ratio (x) = 0.21128 0.15409
# Poissons Ratio (y) = 0.17576 0.05077
# Poissons Ratio (z) = 0.14924 0.05911
#
# Static dielectric constant tensor:
#      x y z
#    x 2.317680 0.000000 0.000000 
#    y 0.000000 2.327540 0.000000 
#    z 0.000000 0.000000 2.537500 
# 
# From -- ./inp_files/16507.got.cif
#   From: 2010.05.17/outbox.cif.g08.bks.cpg/sg52_9_cif.got.tgz:16507.got - 2010.06.03 12:15:38.
