data_PCOD9413900
_publ_section_title
;
Structure prediction by ZEFSAII (Michael W. Deem and Ramdas Pophale) SiO2 
 PCOD9413900
Probable space group: P N N A
;
_chemical_formula_sum "Si O2"
_cell_formula_units_Z 32
_cell_length_a 12.142299
_cell_length_b 9.169360
_cell_length_c 12.154361
_cell_angle_alpha 90.000000
_cell_angle_beta 90.000000
_cell_angle_gamma 90.000000
_cell_volume 1353.231437
_symmetry_space_group_name_H-M "P N N A"
_symmetry_group_IT_number 52
_symmetry_cell_setting 'orthorhombic'
loop_
_space_group_symop_operation_xyz
x,y,z
1/2-x,-y,z
x,1/2-y,1/2-z
1/2-x,1/2+y,1/2-z
-x,-y,-z
1/2+x,y,-z
-x,1/2+y,1/2+z
1/2+x,1/2-y,1/2+z
loop_
_atom_site_type_symbol
_atom_site_label
_atom_site_fract_x
_atom_site_fract_y
_atom_site_fract_z
Si Si1 0.843967 0.905062 0.223407
Si Si2 0.059282 0.886526 0.581258
Si Si3 0.053746 0.870835 0.071081
Si Si4 0.250000 0.000000 0.210718
Si Si5 0.400101 0.750000 0.250000
O O1 0.788055 0.750000 0.250000
O O2 0.951351 0.851448 0.155987
O O3 0.750000 0.000000 0.162074
O O4 0.879805 0.010265 0.327049
O O5 0.982123 0.773352 0.648833
O O6 0.103768 0.767965 0.493888
O O7 0.000000 0.000000 0.500000
O O8 0.156308 0.929371 0.137749
O O9 0.000000 0.000000 0.000000
O O10 0.182759 0.119167 0.274971
#
# Coordination Sequence:
#
# PCOD9413900 Si02
#       5
#     8   8   8   4   4
#     4  12  29  49  76 113 159 201 260 326 385 461
#     4  12  26  51  77 110 152 205 259 308 384 459
#     4  12  27  49  78 111 155 203 254 313 390 459
#     4  12  28  46  82 110 162 194 256 324 388 452
#     4  12  28  48  74 118 152 204 252 322 376 466
#
# _framework density 23.647100999999999
#
# number of rings (size 3 to 8) (size 9 to 14) (size 15 to 20)
#    0.000    0.000    7.500    0.000   12.250    2.000 
#    0.000    0.000    0.000    0.000    0.000    0.000 
#    0.000    0.000    0.000    0.000    0.000    0.000 
#
# Total GULP energy -178205.809842 kJ/mol
# GULP energy per Si atom -5568.931558 kJ/mol
# Density = 2.359328 g / cm^3
# Si number density = 23.647101 Si / 1000 Ang^3
#
#
#
# Elastic Constant Matrix: (Units=GPa)
#
#
# Indices 1 2 3 4 5 6 
#
# 1 61.4666 -6.1713 -6.1075 0.0000 0.0000 0.0000
# 2 -6.1713 104.9903 -3.5549 0.0000 0.0000 0.0000
# 3 -6.1075 -3.5549 35.1209 0.0000 0.0000 0.0000
# 4 0.0000 0.0000 0.0000 55.1096 0.0000 0.0000
# 5 0.0000 0.0000 0.0000 0.0000 46.3347 0.0000
# 6 0.0000 0.0000 0.0000 0.0000 0.0000 47.6444
#
#
#
# Elastic Compliance Matrix: (Units=1/GPa)
#
#
# Indices 1 2 3 4 5 6 
#
# 1 0.016677 0.001082 0.003010 0.000000 0.000000 0.000000
# 2 0.001082 0.009628 0.001163 0.000000 0.000000 0.000000
# 3 0.003010 0.001163 0.029114 0.000000 0.000000 0.000000
# 4 0.000000 0.000000 0.000000 0.018146 0.000000 0.000000
# 5 0.000000 0.000000 0.000000 0.000000 0.021582 0.000000
# 6 0.000000 0.000000 0.000000 0.000000 0.000000 0.020989
#
#
# Mechanical properties :
#
#
# Convention : Reuss Voigt Hill
#
# Bulk Modulus (GPa) = 15.16822 18.87895 17.02358
# Shear Modulus (GPa) = 39.18433 44.31183 41.74808
#
# Velocity S-wave (km/s) = 4.07510 4.33353 4.20630
# Velocity P-wave (km/s) = 5.34511 5.74807 5.55025
#
# Compressibility (1/GPa) = 0.06592733
#
# Stress axis : x y z
#
# Youngs Moduli (GPa) = 59.96395 103.86739 34.34756
#
# Poissons Ratio (x) = -0.11240 -0.10337
# Poissons Ratio (y) = -0.06489 -0.03994
# Poissons Ratio (z) = -0.18047 -0.12076
#
# Static dielectric constant tensor:
#      x y z
#    x 2.041780 0.000000 0.000000 
#    y 0.000000 1.752590 0.000000 
#    z 0.000000 0.000000 2.008260 
# 
# From -- ./inp_files/25549.got.cif
#   From: 2010.05.17/outbox.cif.g08.bks.cpg/sg52_13_cif.got.tgz:25549.got - 2010.06.03 12:15:38.
