data_PCOD9413911
_publ_section_title
;
Structure prediction by ZEFSAII (Michael W. Deem and Ramdas Pophale) SiO2 
 PCOD9413911
Probable space group: P N N A
;
_chemical_formula_sum "Si O2"
_cell_formula_units_Z 28
_cell_length_a 8.268438
_cell_length_b 10.533985
_cell_length_c 12.497471
_cell_angle_alpha 90.000000
_cell_angle_beta 90.000000
_cell_angle_gamma 90.000000
_cell_volume 1088.524748
_symmetry_space_group_name_H-M "P N N A"
_symmetry_group_IT_number 52
_symmetry_cell_setting 'orthorhombic'
loop_
_space_group_symop_operation_xyz
x,y,z
1/2-x,-y,z
x,1/2-y,1/2-z
1/2-x,1/2+y,1/2-z
-x,-y,-z
1/2+x,y,-z
-x,1/2+y,1/2+z
1/2+x,1/2-y,1/2+z
loop_
_atom_site_type_symbol
_atom_site_label
_atom_site_fract_x
_atom_site_fract_y
_atom_site_fract_z
Si Si1 0.799400 0.858006 0.444562
Si Si2 0.908012 0.250000 0.250000
Si Si3 0.944125 0.512261 0.622128
Si Si4 0.118625 0.751706 0.364808
O O1 0.693270 0.815433 0.344325
O O2 0.755414 0.763427 0.543274
O O3 0.986006 0.850195 0.409062
O O4 0.750000 0.000000 0.476221
O O5 0.991315 0.370550 0.310618
O O6 0.750000 0.500000 0.627954
O O7 0.994968 0.371516 0.658962
O O8 0.000000 0.500000 0.500000
O O9 0.204151 0.750000 0.250000
#
# Coordination Sequence:
#
# PCOD9413911 Si02
#       4
#     8   4   8   8
#     4  12  27  50  79 119 162 211 275 332 414 492
#     4  12  28  48  86 118 164 222 266 352 420 494
#     4  12  28  50  80 115 162 213 281 337 421 494
#     4  12  27  49  78 111 161 209 266 342 406 490
#
# _framework density 25.722884000000001
#
# number of rings (size 3 to 8) (size 9 to 14) (size 15 to 20)
#    0.000    0.000    4.286    4.286    2.000    1.143 
#    0.000    0.000    0.000    0.000    0.000    0.000 
#    0.000    0.000    0.000    0.000    0.000    0.000 
#
# Total GULP energy -156377.179177 kJ/mol
# GULP energy per Si atom -5584.899256 kJ/mol
# Density = 2.566434 g / cm^3
# Si number density = 25.722884 Si / 1000 Ang^3
#
#
#
# Elastic Constant Matrix: (Units=GPa)
#
#
# Indices 1 2 3 4 5 6 
#
# 1 95.3076 27.1653 61.5667 0.0000 0.0000 0.0000
# 2 27.1653 145.6038 43.1982 0.0000 0.0000 0.0000
# 3 61.5667 43.1982 235.8678 0.0000 0.0000 0.0000
# 4 0.0000 0.0000 0.0000 53.1067 0.0000 0.0000
# 5 0.0000 0.0000 0.0000 0.0000 28.8389 0.0000
# 6 0.0000 0.0000 0.0000 0.0000 0.0000 34.2750
#
#
#
# Elastic Compliance Matrix: (Units=1/GPa)
#
#
# Indices 1 2 3 4 5 6 
#
# 1 0.012919 -0.001491 -0.003099 0.000000 0.000000 0.000000
# 2 -0.001491 0.007435 -0.000972 0.000000 0.000000 0.000000
# 3 -0.003099 -0.000972 0.005227 0.000000 0.000000 0.000000
# 4 0.000000 0.000000 0.000000 0.018830 0.000000 0.000000
# 5 0.000000 0.000000 0.000000 0.000000 0.034675 0.000000
# 6 0.000000 0.000000 0.000000 0.000000 0.000000 0.029176
#
#
# Mechanical properties :
#
#
# Convention : Reuss Voigt Hill
#
# Bulk Modulus (GPa) = 69.17738 82.29329 75.73533
# Shear Modulus (GPa) = 40.25590 46.23405 43.24497
#
# Velocity S-wave (km/s) = 3.96028 4.24416 4.10468
# Velocity P-wave (km/s) = 6.91834 7.48859 7.20910
#
# Compressibility (1/GPa) = 0.01445559
#
# Stress axis : x y z
#
# Youngs Moduli (GPa) = 77.40364 134.50585 191.32466
#
# Poissons Ratio (x) = 0.20053 0.59295
# Poissons Ratio (y) = 0.11540 0.18606
# Poissons Ratio (z) = 0.23989 0.13080
#
# Static dielectric constant tensor:
#      x y z
#    x 2.482910 0.000000 0.000000 
#    y 0.000000 2.356910 0.000000 
#    z 0.000000 0.000000 2.283610 
# 
# From -- ./inp_files/16308.got.cif
#   From: 2010.05.17/outbox.cif.g08.bks.cpg/sg52_9_cif.got.tgz:16308.got - 2010.06.03 12:15:38.
