data_PCOD9413686
_publ_section_title
;
Structure prediction by ZEFSAII (Michael W. Deem and Ramdas Pophale) SiO2 
 PCOD9413686
Probable space group: P N N A
;
_chemical_formula_sum "Si O2"
_cell_formula_units_Z 20
_cell_length_a 12.169411
_cell_length_b 5.719971
_cell_length_c 12.276843
_cell_angle_alpha 90.000000
_cell_angle_beta 90.000000
_cell_angle_gamma 90.000000
_cell_volume 854.574811
_symmetry_space_group_name_H-M "P N N A"
_symmetry_group_IT_number 52
_symmetry_cell_setting 'orthorhombic'
loop_
_space_group_symop_operation_xyz
x,y,z
1/2-x,-y,z
x,1/2-y,1/2-z
1/2-x,1/2+y,1/2-z
-x,-y,-z
1/2+x,y,-z
-x,1/2+y,1/2+z
1/2+x,1/2-y,1/2+z
loop_
_atom_site_type_symbol
_atom_site_label
_atom_site_fract_x
_atom_site_fract_y
_atom_site_fract_z
Si Si1 0.377920 0.937989 0.154678
Si Si2 0.053948 0.207523 0.566401
Si Si3 0.750000 0.000000 0.298599
O O1 0.408790 0.750000 0.250000
O O2 0.466564 0.147460 0.138918
O O3 0.250000 0.000000 0.177283
O O4 0.384840 0.848808 0.029711
O O5 0.145938 0.093270 0.638271
O O6 0.000000 0.000000 0.500000
O O7 0.709631 0.750000 0.250000
#
# Coordination Sequence:
#
# PCOD9413686 Si02
#       3
#     8   8   4
#     4  11  28  49  80 117 160 213 274 339 414 489
#     4  11  28  51  78 113 161 211 272 336 409 497
#     4  12  32  50  82 118 162 214 274 334 416 490
#
# _framework density 23.403448000000001
#
# number of rings (size 3 to 8) (size 9 to 14) (size 15 to 20)
#    0.000    0.800    0.000    2.400   28.000    0.000 
#    0.000    0.000    0.000    0.000    0.000    0.000 
#    0.000    0.000    0.000    0.000    0.000    0.000 
#
# Total GULP energy -111581.292645 kJ/mol
# GULP energy per Si atom -5579.064632 kJ/mol
# Density = 2.335018 g / cm^3
# Si number density = 23.403448 Si / 1000 Ang^3
#
#
#
# Elastic Constant Matrix: (Units=GPa)
#
#
# Indices 1 2 3 4 5 6 
#
# 1 196.9950 111.5629 89.8228 0.0000 0.0000 0.0000
# 2 111.5629 185.9544 107.4059 0.0000 0.0000 0.0000
# 3 89.8228 107.4059 145.2702 0.0000 0.0000 0.0000
# 4 0.0000 0.0000 0.0000 74.5625 0.0000 0.0000
# 5 0.0000 0.0000 0.0000 0.0000-2372.5018 0.0000
# 6 0.0000 0.0000 0.0000 0.0000 0.0000 46.7397
#
#
#
# Elastic Compliance Matrix: (Units=1/GPa)
#
#
# Indices 1 2 3 4 5 6 
#
# 1 0.008175 -0.003465 -0.002493 0.000000 0.000000 0.000000
# 2 -0.003465 0.010854 -0.005883 0.000000 0.000000 0.000000
# 3 -0.002493 -0.005883 0.012775 0.000000 0.000000 0.000000
# 4 0.000000 0.000000 0.000000 0.013412 0.000000 0.000000
# 5 0.000000 0.000000 0.000000 0.000000 -0.000421 0.000000
# 6 0.000000 0.000000 0.000000 0.000000 0.000000 0.021395
#
#
# Mechanical properties :
#
#
# Convention : Reuss Voigt Hill
#
# Bulk Modulus (GPa) = 123.11085 127.31143 125.21114
# Shear Modulus (GPa) = 54.00837 -435.61137 -190.80150
#
# Velocity S-wave (km/s) = 4.80907 -13.65779 -9.03903
# Velocity P-wave (km/s) = 9.14080 13.93546 7.43784
#
# Compressibility (1/GPa) = 0.00812276
#
# Stress axis : x y z
#
# Youngs Moduli (GPa) = 122.32111 92.13119 78.27880
#
# Poissons Ratio (x) = 0.31920 0.19517
# Poissons Ratio (y) = 0.42379 0.46050
# Poissons Ratio (z) = 0.30499 0.54199
#
# Static dielectric constant tensor:
#      x y z
#    x 1.846460 0.000000 0.000000 
#    y 0.000000 1.813180 0.000000 
#    z 0.000000 0.000000 1.552100 
# 
# From -- ./inp_files/18671.got.cif
#   From: 2010.05.17/outbox.cif.g08.bks.cpg/sg52_10_cif.got.tgz:18671.got - 2010.06.03 12:15:38.
