data_PCOD9413670
_publ_section_title
;
Structure prediction by ZEFSAII (Michael W. Deem and Ramdas Pophale) SiO2 
 PCOD9413670
Probable space group: P N N A
;
_chemical_formula_sum "Si O2"
_cell_formula_units_Z 36
_cell_length_a 8.153393
_cell_length_b 11.174520
_cell_length_c 15.710812
_cell_angle_alpha 90.000000
_cell_angle_beta 90.000000
_cell_angle_gamma 90.000000
_cell_volume 1431.416058
_symmetry_space_group_name_H-M "P N N A"
_symmetry_group_IT_number 52
_symmetry_cell_setting 'orthorhombic'
loop_
_space_group_symop_operation_xyz
x,y,z
1/2-x,-y,z
x,1/2-y,1/2-z
1/2-x,1/2+y,1/2-z
-x,-y,-z
1/2+x,y,-z
-x,1/2+y,1/2+z
1/2+x,1/2-y,1/2+z
loop_
_atom_site_type_symbol
_atom_site_label
_atom_site_fract_x
_atom_site_fract_y
_atom_site_fract_z
Si Si1 0.538757 0.913192 0.286303
Si Si2 0.968397 0.162464 0.940515
Si Si3 0.921377 0.065197 0.580518
Si Si4 0.657775 0.820292 0.118012
Si Si5 0.750000 0.000000 0.817862
O O1 0.140339 0.087353 0.241082
O O2 0.651565 0.894085 0.204991
O O3 0.537890 0.036236 0.338921
O O4 0.581217 0.807390 0.352632
O O5 0.157096 0.179103 0.915169
O O6 0.053347 0.872643 0.960552
O O7 0.870040 0.078287 0.876393
O O8 0.894487 0.203933 0.565468
O O9 0.750000 0.000000 0.594674
O O10 0.000000 0.000000 0.500000
#
# Coordination Sequence:
#
# PCOD9413670 Si02
#       5
#     8   8   8   8   4
#     4  11  27  48  75 118 157 206 267 346 391 491
#     4  12  28  51  81 115 160 224 266 334 414 497
#     4  12  26  48  81 114 153 210 268 333 402 477
#     4  11  27  49  78 115 163 209 273 332 407 483
#     4  12  30  50  84 114 166 214 272 334 422 476
#
# _framework density 25.149922
#
# number of rings (size 3 to 8) (size 9 to 14) (size 15 to 20)
#    0.000    0.444    3.333    2.667    6.222   10.667 
#    0.000    0.000    0.000    0.000    0.000    0.000 
#    0.000    0.000    0.000    0.000    0.000    0.000 
#
# Total GULP energy -201811.402153 kJ/mol
# GULP energy per Si atom -5605.872282 kJ/mol
# Density = 2.509268 g / cm^3
# Si number density = 25.149922 Si / 1000 Ang^3
#
#
#
# Elastic Constant Matrix: (Units=GPa)
#
#
# Indices 1 2 3 4 5 6 
#
# 1 142.1743 52.8600 67.9951 0.0000 0.0000 0.0000
# 2 52.8600 105.0639 35.7841 0.0000 0.0000 0.0000
# 3 67.9951 35.7841 189.7957 0.0000 0.0000 0.0000
# 4 0.0000 0.0000 0.0000 38.4270 0.0000 0.0000
# 5 0.0000 0.0000 0.0000 0.0000 45.2103 0.0000
# 6 0.0000 0.0000 0.0000 0.0000 0.0000 42.4424
#
#
#
# Elastic Compliance Matrix: (Units=1/GPa)
#
#
# Indices 1 2 3 4 5 6 
#
# 1 0.009851 -0.004012 -0.002773 0.000000 0.000000 0.000000
# 2 -0.004012 0.011805 -0.000788 0.000000 0.000000 0.000000
# 3 -0.002773 -0.000788 0.006411 0.000000 0.000000 0.000000
# 4 0.000000 0.000000 0.000000 0.026023 0.000000 0.000000
# 5 0.000000 0.000000 0.000000 0.000000 0.022119 0.000000
# 6 0.000000 0.000000 0.000000 0.000000 0.000000 0.023561
#
#
# Mechanical properties :
#
#
# Convention : Reuss Voigt Hill
#
# Bulk Modulus (GPa) = 77.39506 83.36804 80.38155
# Shear Modulus (GPa) = 41.93767 43.90891 42.92329
#
# Velocity S-wave (km/s) = 4.08794 4.18291 4.13570
# Velocity P-wave (km/s) = 7.28848 7.51993 7.40511
#
# Compressibility (1/GPa) = 0.01292072
#
# Stress axis : x y z
#
# Youngs Moduli (GPa) = 101.50813 84.70917 155.98513
#
# Poissons Ratio (x) = 0.33986 0.43253
# Poissons Ratio (y) = 0.40726 0.12298
# Poissons Ratio (z) = 0.28147 0.06678
#
# Static dielectric constant tensor:
#      x y z
#    x 2.210700 0.000000 0.000000 
#    y 0.000000 1.848800 0.000000 
#    z 0.000000 0.000000 1.976280 
# 
# From -- ./inp_files/35541.got.cif
#   From: 2010.05.17/outbox.cif.g08.bks.cpg/sg52_18_cif.got.tgz:35541.got - 2010.06.03 12:15:38.
