data_PCOD9413436
_publ_section_title
;
Structure prediction by ZEFSAII (Michael W. Deem and Ramdas Pophale) SiO2 
 PCOD9413436
Probable space group: P N N A
;
_chemical_formula_sum "Si O2"
_cell_formula_units_Z 20
_cell_length_a 7.916877
_cell_length_b 4.956058
_cell_length_c 23.506740
_cell_angle_alpha 90.000000
_cell_angle_beta 90.000000
_cell_angle_gamma 90.000000
_cell_volume 922.322241
_symmetry_space_group_name_H-M "P N N A"
_symmetry_group_IT_number 52
_symmetry_cell_setting 'orthorhombic'
loop_
_space_group_symop_operation_xyz
x,y,z
1/2-x,-y,z
x,1/2-y,1/2-z
1/2-x,1/2+y,1/2-z
-x,-y,-z
1/2+x,y,-z
-x,1/2+y,1/2+z
1/2+x,1/2-y,1/2+z
loop_
_atom_site_type_symbol
_atom_site_label
_atom_site_fract_x
_atom_site_fract_y
_atom_site_fract_z
Si Si1 0.750000 0.500000 0.288180
Si Si2 0.088130 0.799648 0.612375
Si Si3 0.250000 0.500000 0.515995
Si Si4 0.250000 0.500000 0.068524
O O1 0.687912 0.250000 0.250000
O O2 0.889476 0.368876 0.329881
O O3 0.103573 0.584985 0.560602
O O4 0.250000 0.000000 0.608070
O O5 0.918519 0.970396 0.605840
O O6 0.258630 0.751449 0.474546
#
# Coordination Sequence:
#
# PCOD9413436 Si02
#       4
#     4   8   4   4
#     4  11  24  45  74  92 124 177 230 293 354 396
#     4  11  25  42  70  98 134 179 226 269 336 402
#     4  11  24  40  62 104 144 186 210 259 330 404
#     4  12  26  39  66 102 144 173 222 266 320 412
#
# _framework density 21.684396
#
# number of rings (size 3 to 8) (size 9 to 14) (size 15 to 20)
#    0.000    0.800    4.000    2.400   11.200    0.000 
#    0.000    0.000    8.800    0.000    0.000    0.000 
#    0.000    0.000    0.000    0.000    0.000    0.000 
#
# Total GULP energy -111760.579380 kJ/mol
# GULP energy per Si atom -5588.028969 kJ/mol
# Density = 2.163504 g / cm^3
# Si number density = 21.684396 Si / 1000 Ang^3
#
#
#
# Elastic Constant Matrix: (Units=GPa)
#
#
# Indices 1 2 3 4 5 6 
#
# 1 171.3296 60.2817 63.5510 0.0000 0.0000 0.0000
# 2 60.2817 186.1960 74.2124 0.0000 0.0000 0.0000
# 3 63.5510 74.2124 137.0936 0.0000 0.0000 0.0000
# 4 0.0000 0.0000 0.0000 52.1324 0.0000 0.0000
# 5 0.0000 0.0000 0.0000 0.0000 2.6428 0.0000
# 6 0.0000 0.0000 0.0000 0.0000 0.0000 30.8167
#
#
#
# Elastic Compliance Matrix: (Units=1/GPa)
#
#
# Indices 1 2 3 4 5 6 
#
# 1 0.007284 -0.001291 -0.002678 0.000000 0.000000 0.000000
# 2 -0.001291 0.007077 -0.003233 0.000000 0.000000 0.000000
# 3 -0.002678 -0.003233 0.010285 0.000000 0.000000 0.000000
# 4 0.000000 0.000000 0.000000 0.019182 0.000000 0.000000
# 5 0.000000 0.000000 0.000000 0.000000 0.378391 0.000000
# 6 0.000000 0.000000 0.000000 0.000000 0.000000 0.032450
#
#
# Mechanical properties :
#
#
# Convention : Reuss Voigt Hill
#
# Bulk Modulus (GPa) = 97.61778 98.96769 98.29274
# Shear Modulus (GPa) = 10.58231 36.88999 23.73615
#
# Velocity S-wave (km/s) = 2.21150 4.12906 3.31209
# Velocity P-wave (km/s) = 7.18584 8.27474 7.74944
#
# Compressibility (1/GPa) = 0.01024403
#
# Stress axis : x y z
#
# Youngs Moduli (GPa) = 137.28327 141.30189 97.22453
#
# Poissons Ratio (x) = 0.18242 0.26035
# Poissons Ratio (y) = 0.17723 0.31428
# Poissons Ratio (z) = 0.36762 0.45676
#
# Static dielectric constant tensor:
#      x y z
#    x 1.853050 0.000000 0.000000 
#    y 0.000000 1.813570 0.000000 
#    z 0.000000 0.000000 1.806390 
# 
# From -- ./inp_files/35366.got.cif
#   From: 2010.05.17/outbox.cif.g08.bks.cpg/sg52_18_cif.got.tgz:35366.got - 2010.06.03 12:15:38.
