data_PCOD9413106
_publ_section_title
;
Structure prediction by ZEFSAII (Michael W. Deem and Ramdas Pophale) SiO2 
 PCOD9413106
Probable space group: P N N A
;
_chemical_formula_sum "Si O2"
_cell_formula_units_Z 28
_cell_length_a 12.651114
_cell_length_b 4.724868
_cell_length_c 19.681168
_cell_angle_alpha 90.000000
_cell_angle_beta 90.000000
_cell_angle_gamma 90.000000
_cell_volume 1176.438741
_symmetry_space_group_name_H-M "P N N A"
_symmetry_group_IT_number 52
_symmetry_cell_setting 'orthorhombic'
loop_
_space_group_symop_operation_xyz
x,y,z
1/2-x,-y,z
x,1/2-y,1/2-z
1/2-x,1/2+y,1/2-z
-x,-y,-z
1/2+x,y,-z
-x,1/2+y,1/2+z
1/2+x,1/2-y,1/2+z
loop_
_atom_site_type_symbol
_atom_site_label
_atom_site_fract_x
_atom_site_fract_y
_atom_site_fract_z
Si Si1 0.325793 0.750000 0.250000
Si Si2 0.037002 0.496588 0.127573
Si Si3 0.674538 0.755337 0.087612
Si Si4 0.626208 0.009639 0.944675
O O1 0.250000 0.500000 0.276472
O O2 0.397434 0.604971 0.192597
O O3 0.058188 0.820243 0.107787
O O4 0.916700 0.391609 0.131851
O O5 0.088510 0.328375 0.064330
O O6 0.750000 0.500000 0.064506
O O7 0.750000 0.000000 0.118798
O O8 0.621609 0.899772 0.021561
O O9 0.750000 0.000000 0.927327
#
# Coordination Sequence:
#
# PCOD9413106 Si02
#       4
#     4   8   8   8
#     4  12  26  42  62  88 118 152 198 244 290 354
#     4  12  23  40  61  87 121 161 196 242 297 349
#     4  11  23  39  60  90 121 154 198 245 293 354
#     4  11  21  37  62  91 121 153 194 245 301 355
#
# _framework density 23.800644999999999
#
# number of rings (size 3 to 8) (size 9 to 14) (size 15 to 20)
#    0.000    0.571    0.000   12.000    0.000    0.000 
#    0.000    1.429    0.000    0.000    0.000    0.000 
#    0.000    0.000    0.000    0.000    0.000    0.000 
#
# Total GULP energy -156820.907482 kJ/mol
# GULP energy per Si atom -5600.746696 kJ/mol
# Density = 2.374647 g / cm^3
# Si number density = 23.800645 Si / 1000 Ang^3
#
#
#
# Elastic Constant Matrix: (Units=GPa)
#
#
# Indices 1 2 3 4 5 6 
#
# 1 111.0361 1.2790 37.5039 0.0000 0.0000 0.0000
# 2 1.2790 83.1675 6.2377 0.0000 0.0000 0.0000
# 3 37.5039 6.2377 73.4034 0.0000 0.0000 0.0000
# 4 0.0000 0.0000 0.0000 24.8555 0.0000 0.0000
# 5 0.0000 0.0000 0.0000 0.0000 14.6101 0.0000
# 6 0.0000 0.0000 0.0000 0.0000 0.0000 56.6850
#
#
#
# Elastic Compliance Matrix: (Units=1/GPa)
#
#
# Indices 1 2 3 4 5 6 
#
# 1 0.010890 0.000251 -0.005585 0.000000 0.000000 0.000000
# 2 0.000251 0.012107 -0.001157 0.000000 0.000000 0.000000
# 3 -0.005585 -0.001157 0.016575 0.000000 0.000000 0.000000
# 4 0.000000 0.000000 0.000000 0.040233 0.000000 0.000000
# 5 0.000000 0.000000 0.000000 0.000000 0.068446 0.000000
# 6 0.000000 0.000000 0.000000 0.000000 0.000000 0.017641
#
#
# Mechanical properties :
#
#
# Convention : Reuss Voigt Hill
#
# Bulk Modulus (GPa) = 37.60850 39.73869 38.67360
# Shear Modulus (GPa) = 26.63301 34.06922 30.35111
#
# Velocity S-wave (km/s) = 3.34878 3.78754 3.57490
# Velocity P-wave (km/s) = 5.54871 5.98832 5.77270
#
# Compressibility (1/GPa) = 0.02658973
#
# Stress axis : x y z
#
# Youngs Moduli (GPa) = 91.83024 82.59782 60.33062
#
# Poissons Ratio (x) = -0.02077 0.33696
# Poissons Ratio (y) = -0.02309 0.06982
# Poissons Ratio (z) = 0.51289 0.09559
#
# Static dielectric constant tensor:
#      x y z
#    x 1.957020 0.000000 0.000000 
#    y 0.000000 1.861060 0.000000 
#    z 0.000000 0.000000 1.878600 
# 
# From -- ./inp_files/36364.got.cif
#   From: 2010.05.17/outbox.cif.g08.bks.cpg/sg52_19_cif.got.tgz:36364.got - 2010.06.03 12:15:38.
