data_PCOD9413138
_publ_section_title
;
Structure prediction by ZEFSAII (Michael W. Deem and Ramdas Pophale) SiO2 
 PCOD9413138
Probable space group: P N N A
;
_chemical_formula_sum "Si O2"
_cell_formula_units_Z 48
_cell_length_a 8.612351
_cell_length_b 13.830883
_cell_length_c 19.774803
_cell_angle_alpha 90.000000
_cell_angle_beta 90.000000
_cell_angle_gamma 90.000000
_cell_volume 2355.503721
_symmetry_space_group_name_H-M "P N N A"
_symmetry_group_IT_number 52
_symmetry_cell_setting 'orthorhombic'
loop_
_space_group_symop_operation_xyz
x,y,z
1/2-x,-y,z
x,1/2-y,1/2-z
1/2-x,1/2+y,1/2-z
-x,-y,-z
1/2+x,y,-z
-x,1/2+y,1/2+z
1/2+x,1/2-y,1/2+z
loop_
_atom_site_type_symbol
_atom_site_label
_atom_site_fract_x
_atom_site_fract_y
_atom_site_fract_z
Si Si1 0.178722 0.687872 0.317965
Si Si2 0.250000 0.500000 0.835366
Si Si3 0.200966 0.670542 0.922708
Si Si4 0.750000 0.500000 0.844259
Si Si5 0.502199 0.992617 0.761466
Si Si6 0.450767 0.310897 0.681831
Si Si7 0.070564 0.666377 0.073198
O O1 0.149061 0.750000 0.250000
O O2 0.098945 0.584724 0.303867
O O3 0.363476 0.689722 0.330239
O O4 0.105030 0.739591 0.382221
O O5 0.154970 0.574417 0.881171
O O6 0.371939 0.554462 0.786734
O O7 0.385644 0.656802 0.928072
O O8 0.143754 0.761218 0.878476
O O9 0.129822 0.673303 0.996841
O O10 0.623006 0.457628 0.791582
O O11 0.835958 0.420177 0.889311
O O12 0.420624 0.076321 0.804161
O O13 0.418233 0.250000 0.750000
#
# Coordination Sequence:
#
# PCOD9413138 Si02
#       7
#     8   4   8   4   8   8   8
#     4  11  21  41  68  98 135 177 227 283 343 414
#     4  12  25  40  68 102 139 174 226 294 351 412
#     4  12  27  43  63  98 137 183 227 283 353 413
#     4  12  21  44  70 102 135 174 230 288 357 414
#     4  12  23  41  71 105 134 178 230 288 348 410
#     4  11  22  41  68  97 137 176 227 284 343 414
#     4  12  27  42  66  95 139 180 228 284 348 423
#
# _framework density 20.377807000000001
#
# number of rings (size 3 to 8) (size 9 to 14) (size 15 to 20)
#    0.000    0.333    6.667    2.500    4.667    2.000 
#    0.000    0.833    0.000    0.000    0.000    0.000 
#    0.000    0.000    0.000    0.000    0.000    0.000 
#
# Total GULP energy -268365.557042 kJ/mol
# GULP energy per Si atom -5590.949105 kJ/mol
# Density = 2.033143 g / cm^3
# Si number density = 20.377807 Si / 1000 Ang^3
#
#
#
# Elastic Constant Matrix: (Units=GPa)
#
#
# Indices 1 2 3 4 5 6 
#
# 1 102.5435 40.6673 63.0735 0.0000 0.0000 0.0000
# 2 40.6673 129.1525 70.0444 0.0000 0.0000 0.0000
# 3 63.0735 70.0444 119.3784 0.0000 0.0000 0.0000
# 4 0.0000 0.0000 0.0000 26.6973 0.0000 0.0000
# 5 0.0000 0.0000 0.0000 0.0000 34.3866 0.0000
# 6 0.0000 0.0000 0.0000 0.0000 0.0000 31.8962
#
#
#
# Elastic Compliance Matrix: (Units=1/GPa)
#
#
# Indices 1 2 3 4 5 6 
#
# 1 0.014479 -0.000602 -0.007297 0.000000 0.000000 0.000000
# 2 -0.000602 0.011382 -0.006360 0.000000 0.000000 0.000000
# 3 -0.007297 -0.006360 0.015964 0.000000 0.000000 0.000000
# 4 0.000000 0.000000 0.000000 0.037457 0.000000 0.000000
# 5 0.000000 0.000000 0.000000 0.000000 0.029081 0.000000
# 6 0.000000 0.000000 0.000000 0.000000 0.000000 0.031352
#
#
# Mechanical properties :
#
#
# Convention : Reuss Voigt Hill
#
# Bulk Modulus (GPa) = 75.14956 77.62722 76.38839
# Shear Modulus (GPa) = 28.95748 30.41530 29.68639
#
# Velocity S-wave (km/s) = 3.77375 3.86757 3.82095
# Velocity P-wave (km/s) = 7.47973 7.62370 7.55206
#
# Compressibility (1/GPa) = 0.01330680
#
# Stress axis : x y z
#
# Youngs Moduli (GPa) = 69.06652 87.86095 62.64180
#
# Poissons Ratio (x) = 0.05287 0.45709
# Poissons Ratio (y) = 0.04156 0.39841
# Poissons Ratio (z) = 0.50397 0.55881
#
# Static dielectric constant tensor:
#      x y z
#    x 1.779730 0.000000 0.000000 
#    y 0.000000 1.756980 0.000000 
#    z 0.000000 0.000000 1.696090 
# 
# From -- ./inp_files/31276.got.cif
#   From: 2010.05.17/outbox.cif.g08.bks.cpg/sg52_16_cif.got.tgz:31276.got - 2010.06.03 12:15:38.
