data_PCOD9413247
_publ_section_title
;
Structure prediction by ZEFSAII (Michael W. Deem and Ramdas Pophale) SiO2 
 PCOD9413247
Probable space group: P N N A
;
_chemical_formula_sum "Si O2"
_cell_formula_units_Z 48
_cell_length_a 13.495313
_cell_length_b 12.994444
_cell_length_c 12.777681
_cell_angle_alpha 90.000000
_cell_angle_beta 90.000000
_cell_angle_gamma 90.000000
_cell_volume 2240.746389
_symmetry_space_group_name_H-M "P N N A"
_symmetry_group_IT_number 52
_symmetry_cell_setting 'orthorhombic'
loop_
_space_group_symop_operation_xyz
x,y,z
1/2-x,-y,z
x,1/2-y,1/2-z
1/2-x,1/2+y,1/2-z
-x,-y,-z
1/2+x,y,-z
-x,1/2+y,1/2+z
1/2+x,1/2-y,1/2+z
loop_
_atom_site_type_symbol
_atom_site_label
_atom_site_fract_x
_atom_site_fract_y
_atom_site_fract_z
Si Si1 0.266784 0.669008 0.123522
Si Si2 0.968676 0.043472 0.887972
Si Si3 0.946496 0.229055 0.585620
Si Si4 0.959441 0.514362 0.166729
Si Si5 0.250000 0.500000 0.303460
Si Si6 0.750000 0.500000 0.055951
Si Si7 0.020716 0.293311 0.136743
O O1 0.165373 0.730239 0.124828
O O2 0.269478 0.595402 0.224581
O O3 0.365194 0.737343 0.118427
O O4 0.257347 0.597553 0.020936
O O5 0.992865 0.164688 0.877750
O O6 0.030045 0.999206 0.790737
O O7 0.851811 0.021233 0.866333
O O8 0.000000 0.000000 0.000000
O O9 0.996139 0.123056 0.626451
O O10 0.952570 0.237303 0.459802
O O11 0.848996 0.499473 0.124740
O O12 0.023360 0.417735 0.126392
O O13 0.990192 0.250000 0.250000
#
# Coordination Sequence:
#
# PCOD9413247 Si02
#       7
#     8   8   8   8   4   4   8
#     4  11  22  41  74 108 129 179 248 298 348 425
#     4  12  28  47  69 104 147 193 236 300 377 439
#     4  12  25  43  73 107 139 183 246 296 357 434
#     4  12  23  46  69 102 141 189 241 299 355 429
#     4  11  24  43  74 100 138 181 244 301 352 438
#     4  11  22  43  72 106 136 183 238 301 352 422
#     4  12  25  42  73 107 145 183 236 299 363 432
#
# _framework density 21.421434000000001
#
# number of rings (size 3 to 8) (size 9 to 14) (size 15 to 20)
#    0.000    0.333    6.667    3.000    2.333    0.667 
#    0.000    3.333    0.000    0.000    0.000    0.000 
#    0.000    0.000    0.000    0.000    0.000    0.000 
#
# Total GULP energy -268409.898536 kJ/mol
# GULP energy per Si atom -5591.872886 kJ/mol
# Density = 2.137268 g / cm^3
# Si number density = 21.421434 Si / 1000 Ang^3
#
#
#
# Elastic Constant Matrix: (Units=GPa)
#
#
# Indices 1 2 3 4 5 6 
#
# 1 119.8046 18.9416 59.3955 0.0000 0.0000 0.0000
# 2 18.9416 73.3121 14.7515 0.0000 0.0000 0.0000
# 3 59.3955 14.7515 143.7457 0.0000 0.0000 0.0000
# 4 0.0000 0.0000 0.0000 27.7812 0.0000 0.0000
# 5 0.0000 0.0000 0.0000 0.0000 43.2960 0.0000
# 6 0.0000 0.0000 0.0000 0.0000 0.0000 19.4696
#
#
#
# Elastic Compliance Matrix: (Units=1/GPa)
#
#
# Indices 1 2 3 4 5 6 
#
# 1 0.010757 -0.001925 -0.004247 0.000000 0.000000 0.000000
# 2 -0.001925 0.014272 -0.000669 0.000000 0.000000 0.000000
# 3 -0.004247 -0.000669 0.008780 0.000000 0.000000 0.000000
# 4 0.000000 0.000000 0.000000 0.035996 0.000000 0.000000
# 5 0.000000 0.000000 0.000000 0.000000 0.023097 0.000000
# 6 0.000000 0.000000 0.000000 0.000000 0.000000 0.051362
#
#
# Mechanical properties :
#
#
# Convention : Reuss Voigt Hill
#
# Bulk Modulus (GPa) = 49.68448 58.11552 53.90000
# Shear Modulus (GPa) = 30.36643 34.36094 32.36369
#
# Velocity S-wave (km/s) = 3.76915 4.00940 3.89113
# Velocity P-wave (km/s) = 6.49509 6.97296 6.73826
#
# Compressibility (1/GPa) = 0.02012701
#
# Stress axis : x y z
#
# Youngs Moduli (GPa) = 92.96400 70.06587 113.89046
#
# Poissons Ratio (x) = 0.13485 0.48372
# Poissons Ratio (y) = 0.17892 0.07624
# Poissons Ratio (z) = 0.39484 0.04690
#
# Static dielectric constant tensor:
#      x y z
#    x 1.769140 0.000000 0.000000 
#    y 0.000000 1.933030 0.000000 
#    z 0.000000 0.000000 1.784820 
# 
# From -- ./inp_files/19567.got.cif
#   From: 2010.05.17/outbox.cif.g08.bks.cpg/sg52_10_cif.got.tgz:19567.got - 2010.06.03 12:15:38.
