data_PCOD9413141
_publ_section_title
;
Structure prediction by ZEFSAII (Michael W. Deem and Ramdas Pophale) SiO2 
 PCOD9413141
Probable space group: P N N A
;
_chemical_formula_sum "Si O2"
_cell_formula_units_Z 40
_cell_length_a 9.971353
_cell_length_b 19.716590
_cell_length_c 8.912449
_cell_angle_alpha 90.000000
_cell_angle_beta 90.000000
_cell_angle_gamma 90.000000
_cell_volume 1752.197089
_symmetry_space_group_name_H-M "P N N A"
_symmetry_group_IT_number 52
_symmetry_cell_setting 'orthorhombic'
loop_
_space_group_symop_operation_xyz
x,y,z
1/2-x,-y,z
x,1/2-y,1/2-z
1/2-x,1/2+y,1/2-z
-x,-y,-z
1/2+x,y,-z
-x,1/2+y,1/2+z
1/2+x,1/2-y,1/2+z
loop_
_atom_site_type_symbol
_atom_site_label
_atom_site_fract_x
_atom_site_fract_y
_atom_site_fract_z
Si Si1 0.438501 0.397665 0.928916
Si Si2 0.009896 0.079664 0.955853
Si Si3 0.248226 0.660839 0.406530
Si Si4 0.207959 0.318704 0.050047
Si Si5 0.403769 0.490222 0.200689
O O1 0.308351 0.350757 0.927713
O O2 0.389417 0.459325 0.035390
O O3 0.560115 0.348273 0.977331
O O4 0.510566 0.440550 0.797796
O O5 0.887552 0.131613 0.979105
O O6 0.994214 0.067010 0.778430
O O7 0.139801 0.112867 0.022571
O O8 0.000000 0.000000 0.000000
O O9 0.249279 0.660016 0.222529
O O10 0.280522 0.737920 0.451046
O O11 0.250000 0.500000 0.258793
#
# Coordination Sequence:
#
# PCOD9413141 Si02
#       5
#     8   8   8   8   8
#     4  11  21  41  69  97 131 172 218 278 331 389
#     4  12  23  44  68  95 138 174 220 274 337 394
#     4  11  25  45  66  97 132 183 220 274 337 405
#     4  11  23  45  69  93 137 173 227 275 334 403
#     4  11  22  41  68 102 134 167 224 272 334 397
#
# _framework density 22.828482000000001
#
# number of rings (size 3 to 8) (size 9 to 14) (size 15 to 20)
#    0.000    0.800    4.000    4.200    0.000    0.000 
#   10.800    0.000    0.000    0.000    0.000    0.000 
#    0.000    0.000    0.000    0.000    0.000    0.000 
#
# Total GULP energy -222928.709639 kJ/mol
# GULP energy per Si atom -5573.217741 kJ/mol
# Density = 2.277652 g / cm^3
# Si number density = 22.828482 Si / 1000 Ang^3
#
#
#
# Elastic Constant Matrix: (Units=GPa)
#
#
# Indices 1 2 3 4 5 6 
#
# 1 82.5119 22.5793 -1.3099 0.0000 0.0000 0.0000
# 2 22.5793 139.3850 5.8897 0.0000 0.0000 0.0000
# 3 -1.3099 5.8897 21.4535 0.0000 0.0000 0.0000
# 4 0.0000 0.0000 0.0000 40.2786 0.0000 0.0000
# 5 0.0000 0.0000 0.0000 0.0000 24.9141 0.0000
# 6 0.0000 0.0000 0.0000 0.0000 0.0000 45.0723
#
#
#
# Elastic Compliance Matrix: (Units=1/GPa)
#
#
# Indices 1 2 3 4 5 6 
#
# 1 0.012721 -0.002118 0.001358 0.000000 0.000000 0.000000
# 2 -0.002118 0.007611 -0.002219 0.000000 0.000000 0.000000
# 3 0.001358 -0.002219 0.047305 0.000000 0.000000 0.000000
# 4 0.000000 0.000000 0.000000 0.024827 0.000000 0.000000
# 5 0.000000 0.000000 0.000000 0.000000 0.040138 0.000000
# 6 0.000000 0.000000 0.000000 0.000000 0.000000 0.022187
#
#
# Mechanical properties :
#
#
# Convention : Reuss Voigt Hill
#
# Bulk Modulus (GPa) = 16.21299 33.07429 24.64364
# Shear Modulus (GPa) = 27.57782 36.46575 32.02179
#
# Velocity S-wave (km/s) = 3.47946 4.00106 3.74934
# Velocity P-wave (km/s) = 4.82283 5.98868 5.43709
#
# Compressibility (1/GPa) = 0.06167893
#
# Stress axis : x y z
#
# Youngs Moduli (GPa) = 78.61246 131.38477 21.13963
#
# Poissons Ratio (x) = 0.27828 -0.02871
# Poissons Ratio (y) = 0.16650 0.04691
# Poissons Ratio (z) = -0.10677 0.29152
#
# Static dielectric constant tensor:
#      x y z
#    x 1.817450 0.000000 0.000000 
#    y 0.000000 1.868940 0.000000 
#    z 0.000000 0.000000 2.029480 
# 
# From -- ./inp_files/16824.got.cif
#   From: 2010.05.17/outbox.cif.g08.bks.cpg/sg52_9_cif.got.tgz:16824.got - 2010.06.03 12:15:38.
