data_PCOD9413785
_publ_section_title
;
Structure prediction by ZEFSAII (Michael W. Deem and Ramdas Pophale) SiO2 
 PCOD9413785
Probable space group: P N N A
;
_chemical_formula_sum "Si O2"
_cell_formula_units_Z 36
_cell_length_a 8.570773
_cell_length_b 16.938048
_cell_length_c 9.702831
_cell_angle_alpha 90.000000
_cell_angle_beta 90.000000
_cell_angle_gamma 90.000000
_cell_volume 1408.580978
_symmetry_space_group_name_H-M "P N N A"
_symmetry_group_IT_number 52
_symmetry_cell_setting 'orthorhombic'
loop_
_space_group_symop_operation_xyz
x,y,z
1/2-x,-y,z
x,1/2-y,1/2-z
1/2-x,1/2+y,1/2-z
-x,-y,-z
1/2+x,y,-z
-x,1/2+y,1/2+z
1/2+x,1/2-y,1/2+z
loop_
_atom_site_type_symbol
_atom_site_label
_atom_site_fract_x
_atom_site_fract_y
_atom_site_fract_z
Si Si1 0.158378 0.660151 0.539096
Si Si2 0.863575 0.323946 0.910582
Si Si3 0.860957 0.750000 0.250000
Si Si4 0.648621 0.398004 0.672444
Si Si5 0.588292 0.957189 0.375797
O O1 0.184788 0.734644 0.439536
O O2 0.258698 0.686795 0.668249
O O3 0.222853 0.588447 0.446865
O O4 0.981781 0.653161 0.589979
O O5 0.030574 0.307142 0.842329
O O6 0.744111 0.364391 0.804488
O O7 0.878835 0.371933 0.053169
O O8 0.529889 0.458284 0.747223
O O9 0.750000 0.000000 0.343621
O O10 0.500000 0.000000 0.500000
#
# Coordination Sequence:
#
# PCOD9413785 Si02
#       5
#     8   8   4   8   8
#     4  12  25  42  72 115 148 188 232 321 392 448
#     4  12  24  44  71 108 148 187 245 311 374 457
#     4  12  24  38  70 110 148 182 234 302 402 442
#     4  12  25  47  74 108 153 189 253 308 384 447
#     4  12  28  49  74 102 145 205 260 304 359 461
#
# _framework density 25.557635000000001
#
# number of rings (size 3 to 8) (size 9 to 14) (size 15 to 20)
#    0.000    0.000    6.667    2.667    9.333    0.000 
#    0.000    1.111    0.000    0.000    0.000    0.000 
#    0.000    0.000    0.000    0.000    0.000    0.000 
#
# Total GULP energy -201333.273437 kJ/mol
# GULP energy per Si atom -5592.590929 kJ/mol
# Density = 2.549946 g / cm^3
# Si number density = 25.557635 Si / 1000 Ang^3
#
#
#
# Elastic Constant Matrix: (Units=GPa)
#
#
# Indices 1 2 3 4 5 6 
#
# 1 128.1563 2.6205 46.8996 0.0000 0.0000 0.0000
# 2 2.6205 51.9841 5.1627 0.0000 0.0000 0.0000
# 3 46.8996 5.1627 115.7070 0.0000 0.0000 0.0000
# 4 0.0000 0.0000 0.0000 15.4728 0.0000 0.0000
# 5 0.0000 0.0000 0.0000 0.0000 44.0411 0.0000
# 6 0.0000 0.0000 0.0000 0.0000 0.0000 16.8566
#
#
#
# Elastic Compliance Matrix: (Units=1/GPa)
#
#
# Indices 1 2 3 4 5 6 
#
# 1 0.009162 -0.000093 -0.003710 0.000000 0.000000 0.000000
# 2 -0.000093 0.019323 -0.000824 0.000000 0.000000 0.000000
# 3 -0.003710 -0.000824 0.010183 0.000000 0.000000 0.000000
# 4 0.000000 0.000000 0.000000 0.064630 0.000000 0.000000
# 5 0.000000 0.000000 0.000000 0.000000 0.022706 0.000000
# 6 0.000000 0.000000 0.000000 0.000000 0.000000 0.059324
#
#
# Mechanical properties :
#
#
# Convention : Reuss Voigt Hill
#
# Bulk Modulus (GPa) = 33.99767 45.02367 39.51067
# Shear Modulus (GPa) = 24.46330 31.35174 27.90752
#
# Velocity S-wave (km/s) = 3.09719 3.50624 3.30804
# Velocity P-wave (km/s) = 5.11091 5.83493 5.48488
#
# Compressibility (1/GPa) = 0.02941378
#
# Stress axis : x y z
#
# Youngs Moduli (GPa) = 109.14111 51.75124 98.20352
#
# Poissons Ratio (x) = 0.00484 0.36430
# Poissons Ratio (y) = 0.01020 0.08095
# Poissons Ratio (z) = 0.40488 0.04266
#
# Static dielectric constant tensor:
#      x y z
#    x 1.999220 0.000000 0.000000 
#    y 0.000000 2.250550 0.000000 
#    z 0.000000 0.000000 1.948000 
# 
# From -- ./inp_files/7315.got.cif
#   From: 2010.05.17/outbox.cif.g08.bks.cpg/sg52_4_cif.got.tgz:7315.got - 2010.06.03 12:15:38.
