data_PCOD9413689
_publ_section_title
;
Structure prediction by ZEFSAII (Michael W. Deem and Ramdas Pophale) SiO2 
 PCOD9413689
Probable space group: P N N A
;
_chemical_formula_sum "Si O2"
_cell_formula_units_Z 40
_cell_length_a 8.945769
_cell_length_b 13.508495
_cell_length_c 11.702008
_cell_angle_alpha 90.000000
_cell_angle_beta 90.000000
_cell_angle_gamma 90.000000
_cell_volume 1414.116001
_symmetry_space_group_name_H-M "P N N A"
_symmetry_group_IT_number 52
_symmetry_cell_setting 'orthorhombic'
loop_
_space_group_symop_operation_xyz
x,y,z
1/2-x,-y,z
x,1/2-y,1/2-z
1/2-x,1/2+y,1/2-z
-x,-y,-z
1/2+x,y,-z
-x,1/2+y,1/2+z
1/2+x,1/2-y,1/2+z
loop_
_atom_site_type_symbol
_atom_site_label
_atom_site_fract_x
_atom_site_fract_y
_atom_site_fract_z
Si Si1 0.370742 0.912212 0.308565
Si Si2 0.492247 0.908296 0.911038
Si Si3 0.417964 0.847883 0.674636
Si Si4 0.858046 0.406987 0.030009
Si Si5 0.313529 0.804306 0.093202
O O1 0.511267 0.940654 0.384745
O O2 0.410389 0.862599 0.187861
O O3 0.250000 0.000000 0.284901
O O4 0.566152 0.074293 0.217933
O O5 0.542750 0.636933 0.925102
O O6 0.653894 0.857179 0.902271
O O7 0.384559 0.830373 0.973195
O O8 0.500000 0.000000 0.000000
O O9 0.445649 0.750000 0.750000
O O10 0.255885 0.847800 0.613364
O O11 0.750000 0.500000 0.999146
O O12 0.687444 0.311572 0.874522
#
# Coordination Sequence:
#
# PCOD9413689 Si02
#       5
#     8   8   8   8   8
#     4  11  28  57  95 131 192 257 318 407 493 599
#     4  12  29  55  92 138 190 252 325 410 494 583
#     4  12  33  60  94 135 194 249 331 407 495 598
#     4  12  32  57  94 136 190 255 323 395 506 599
#     4  11  29  53  94 136 191 244 329 404 495 581
#
# _framework density 28.286221999999999
#
# number of rings (size 3 to 8) (size 9 to 14) (size 15 to 20)
#    0.000    0.400    0.000    3.600   16.800    5.600 
#    0.000    4.000    0.000    0.000    0.000    0.000 
#    0.000    0.000    0.000    0.000    0.000    0.000 
#
# Total GULP energy -223989.992606 kJ/mol
# GULP energy per Si atom -5599.749815 kJ/mol
# Density = 2.822184 g / cm^3
# Si number density = 28.286222 Si / 1000 Ang^3
#
#
#
# Elastic Constant Matrix: (Units=GPa)
#
#
# Indices 1 2 3 4 5 6 
#
# 1 175.6680 61.6688 91.6763 0.0000 0.0000 0.0000
# 2 61.6688 217.4603 87.1306 0.0000 0.0000 0.0000
# 3 91.6763 87.1306 277.7974 0.0000 0.0000 0.0000
# 4 0.0000 0.0000 0.0000 61.7807 0.0000 0.0000
# 5 0.0000 0.0000 0.0000 0.0000 49.9247 0.0000
# 6 0.0000 0.0000 0.0000 0.0000 0.0000 53.4106
#
#
#
# Elastic Compliance Matrix: (Units=1/GPa)
#
#
# Indices 1 2 3 4 5 6 
#
# 1 0.007157 -0.001239 -0.001973 0.000000 0.000000 0.000000
# 2 -0.001239 0.005474 -0.001308 0.000000 0.000000 0.000000
# 3 -0.001973 -0.001308 0.004661 0.000000 0.000000 0.000000
# 4 0.000000 0.000000 0.000000 0.016186 0.000000 0.000000
# 5 0.000000 0.000000 0.000000 0.000000 0.020030 0.000000
# 6 0.000000 0.000000 0.000000 0.000000 0.000000 0.018723
#
#
# Mechanical properties :
#
#
# Convention : Reuss Voigt Hill
#
# Bulk Modulus (GPa) = 121.18676 127.98634 124.58655
# Shear Modulus (GPa) = 59.50718 61.71985 60.61351
#
# Velocity S-wave (km/s) = 4.59164 4.67623 4.63413
# Velocity P-wave (km/s) = 8.42894 8.63141 8.53077
#
# Compressibility (1/GPa) = 0.00825173
#
# Stress axis : x y z
#
# Youngs Moduli (GPa) = 139.71571 182.68168 214.53500
#
# Poissons Ratio (x) = 0.22635 0.42336
# Poissons Ratio (y) = 0.17311 0.28061
# Poissons Ratio (z) = 0.27571 0.23895
#
# Static dielectric constant tensor:
#      x y z
#    x 2.212800 0.000000 0.000000 
#    y 0.000000 2.462220 0.000000 
#    z 0.000000 0.000000 2.280960 
# 
# From -- ./inp_files/30885.got.cif
#   From: 2010.05.17/outbox.cif.g08.bks.cpg/sg52_16_cif.got.tgz:30885.got - 2010.06.03 12:15:38.
