data_PCOD9413899
_publ_section_title
;
Structure prediction by ZEFSAII (Michael W. Deem and Ramdas Pophale) SiO2 
 PCOD9413899
Probable space group: P N N A
;
_chemical_formula_sum "Si O2"
_cell_formula_units_Z 32
_cell_length_a 12.638723
_cell_length_b 8.907888
_cell_length_c 10.804590
_cell_angle_alpha 90.000000
_cell_angle_beta 90.000000
_cell_angle_gamma 90.000000
_cell_volume 1216.427515
_symmetry_space_group_name_H-M "P N N A"
_symmetry_group_IT_number 52
_symmetry_cell_setting 'orthorhombic'
loop_
_space_group_symop_operation_xyz
x,y,z
1/2-x,-y,z
x,1/2-y,1/2-z
1/2-x,1/2+y,1/2-z
-x,-y,-z
1/2+x,y,-z
-x,1/2+y,1/2+z
1/2+x,1/2-y,1/2+z
loop_
_atom_site_type_symbol
_atom_site_label
_atom_site_fract_x
_atom_site_fract_y
_atom_site_fract_z
Si Si1 0.060549 0.344519 0.463464
Si Si2 0.765967 0.326683 0.863476
Si Si3 0.827829 0.610404 0.305026
Si Si4 0.415850 0.406629 0.915309
O O1 0.168491 0.289305 0.391578
O O2 0.091468 0.306650 0.604905
O O3 0.000000 0.500000 0.500000
O O4 0.976575 0.246510 0.390306
O O5 0.750000 0.500000 0.822261
O O6 0.828160 0.250000 0.750000
O O7 0.676639 0.644769 0.992758
O O8 0.750000 0.500000 0.379442
O O9 0.763904 0.750000 0.250000
O O10 0.877907 0.506057 0.199199
O O11 0.500000 0.500000 0.000000
#
# Coordination Sequence:
#
# PCOD9413899 Si02
#       4
#     8   8   8   8
#     4  12  31  48  79 119 160 212 282 338 419 499
#     4  12  29  52  80 120 171 217 274 352 424 499
#     4  12  27  49  79 110 157 212 270 344 404 488
#     4  12  26  50  81 113 158 217 274 335 419 494
#
# _framework density 26.306539999999998
#
# number of rings (size 3 to 8) (size 9 to 14) (size 15 to 20)
#    0.000    0.000    5.000    2.250   17.500    0.000 
#    0.000    0.000    0.000    0.000    0.000    0.000 
#    0.000    0.000    0.000    0.000    0.000    0.000 
#
# Total GULP energy -178361.155350 kJ/mol
# GULP energy per Si atom -5573.786105 kJ/mol
# Density = 2.624666 g / cm^3
# Si number density = 26.306540 Si / 1000 Ang^3
#
#
#
# Elastic Constant Matrix: (Units=GPa)
#
#
# Indices 1 2 3 4 5 6 
#
# 1 83.6464 47.7844 24.3235 0.0000 0.0000 0.0000
# 2 47.7844 165.4835 55.0541 0.0000 0.0000 0.0000
# 3 24.3235 55.0541 153.3458 0.0000 0.0000 0.0000
# 4 0.0000 0.0000 0.0000 51.3427 0.0000 0.0000
# 5 0.0000 0.0000 0.0000 0.0000 17.7923 0.0000
# 6 0.0000 0.0000 0.0000 0.0000 0.0000 45.4257
#
#
#
# Elastic Compliance Matrix: (Units=1/GPa)
#
#
# Indices 1 2 3 4 5 6 
#
# 1 0.014425 -0.003866 -0.000900 0.000000 0.000000 0.000000
# 2 -0.003866 0.007899 -0.002223 0.000000 0.000000 0.000000
# 3 -0.000900 -0.002223 0.007462 0.000000 0.000000 0.000000
# 4 0.000000 0.000000 0.000000 0.019477 0.000000 0.000000
# 5 0.000000 0.000000 0.000000 0.000000 0.056204 0.000000
# 6 0.000000 0.000000 0.000000 0.000000 0.000000 0.022014
#
#
# Mechanical properties :
#
#
# Convention : Reuss Voigt Hill
#
# Bulk Modulus (GPa) = 63.25684 72.97773 68.11729
# Shear Modulus (GPa) = 34.07674 41.26640 37.67157
#
# Velocity S-wave (km/s) = 3.60303 3.96495 3.78831
# Velocity P-wave (km/s) = 6.43486 6.98302 6.71453
#
# Compressibility (1/GPa) = 0.01580857
#
# Stress axis : x y z
#
# Youngs Moduli (GPa) = 69.32250 126.60444 134.01361
#
# Poissons Ratio (x) = 0.48944 0.12064
# Poissons Ratio (y) = 0.26800 0.29785
# Poissons Ratio (z) = 0.06240 0.28138
#
# Static dielectric constant tensor:
#      x y z
#    x 2.166750 0.000000 0.000000 
#    y 0.000000 1.867210 0.000000 
#    z 0.000000 0.000000 2.266550 
# 
# From -- ./inp_files/18878.got.cif
#   From: 2010.05.17/outbox.cif.g08.bks.cpg/sg52_10_cif.got.tgz:18878.got - 2010.06.03 12:15:38.
