data_PCOD9413537
_publ_section_title
;
Structure prediction by ZEFSAII (Michael W. Deem and Ramdas Pophale) SiO2 
 PCOD9413537
Probable space group: P N N A
;
_chemical_formula_sum "Si O2"
_cell_formula_units_Z 48
_cell_length_a 15.884305
_cell_length_b 14.656428
_cell_length_c 9.109140
_cell_angle_alpha 90.000000
_cell_angle_beta 90.000000
_cell_angle_gamma 90.000000
_cell_volume 2120.673128
_symmetry_space_group_name_H-M "P N N A"
_symmetry_group_IT_number 52
_symmetry_cell_setting 'orthorhombic'
loop_
_space_group_symop_operation_xyz
x,y,z
1/2-x,-y,z
x,1/2-y,1/2-z
1/2-x,1/2+y,1/2-z
-x,-y,-z
1/2+x,y,-z
-x,1/2+y,1/2+z
1/2+x,1/2-y,1/2+z
loop_
_atom_site_type_symbol
_atom_site_label
_atom_site_fract_x
_atom_site_fract_y
_atom_site_fract_z
Si Si1 0.533044 0.430133 0.620509
Si Si2 0.575357 0.263566 0.414813
Si Si3 0.021581 0.900727 0.557051
Si Si4 0.290457 0.098378 0.433939
Si Si5 0.182397 0.565560 0.394374
Si Si6 0.766162 0.223139 0.092652
O O1 0.500000 0.500000 0.500000
O O2 0.542154 0.338229 0.528789
O O3 0.482032 0.407388 0.766804
O O4 0.614746 0.490783 0.662770
O O5 0.538243 0.250000 0.250000
O O6 0.548042 0.169755 0.495596
O O7 0.668995 0.306370 0.383486
O O8 0.114654 0.885214 0.492381
O O9 0.000000 0.000000 0.500000
O O10 0.285647 0.106483 0.258693
O O11 0.245724 0.184899 0.503480
O O12 0.250000 0.000000 0.474912
O O13 0.250000 0.500000 0.470929
O O14 0.175939 0.651313 0.504570
O O15 0.803463 0.250000 0.250000
#
# Coordination Sequence:
#
# PCOD9413537 Si02
#       6
#     8   8   8   8   8   8
#     4  12  27  45  72 103 145 191 241 297 362 429
#     4  11  26  47  71 106 147 193 237 301 360 428
#     4  12  25  46  72 105 142 184 242 296 362 433
#     4  11  26  45  75 104 139 187 242 298 363 430
#     4  11  24  47  72 104 141 191 239 294 359 433
#     4  11  26  44  70 105 146 188 241 293 357 429
#
# _framework density 22.634322999999998
#
# number of rings (size 3 to 8) (size 9 to 14) (size 15 to 20)
#    0.000    0.667    3.333    3.000    7.000    3.333 
#    0.000    0.000    0.000    0.000    0.000    0.000 
#    0.000    0.000    0.000    0.000    0.000    0.000 
#
# Total GULP energy -267394.258241 kJ/mol
# GULP energy per Si atom -5570.713713 kJ/mol
# Density = 2.258281 g / cm^3
# Si number density = 22.634323 Si / 1000 Ang^3
#
#
#
# Elastic Constant Matrix: (Units=GPa)
#
#
# Indices 1 2 3 4 5 6 
#
# 1 43.4136 -16.0529 -0.3513 0.0000 0.0000 0.0000
# 2 -16.0529 123.5702 54.6024 0.0000 0.0000 0.0000
# 3 -0.3513 54.6024 162.0021 0.0000 0.0000 0.0000
# 4 0.0000 0.0000 0.0000 37.2931 0.0000 0.0000
# 5 0.0000 0.0000 0.0000 0.0000 26.2818 0.0000
# 6 0.0000 0.0000 0.0000 0.0000 0.0000 22.8680
#
#
#
# Elastic Compliance Matrix: (Units=1/GPa)
#
#
# Indices 1 2 3 4 5 6 
#
# 1 0.024391 0.003696 -0.001193 0.000000 0.000000 0.000000
# 2 0.003696 0.010069 -0.003386 0.000000 0.000000 0.000000
# 3 -0.001193 -0.003386 0.007311 0.000000 0.000000 0.000000
# 4 0.000000 0.000000 0.000000 0.026815 0.000000 0.000000
# 5 0.000000 0.000000 0.000000 0.000000 0.038049 0.000000
# 6 0.000000 0.000000 0.000000 0.000000 0.000000 0.043729
#
#
# Mechanical properties :
#
#
# Convention : Reuss Voigt Hill
#
# Bulk Modulus (GPa) = 24.99640 45.04248 35.01944
# Shear Modulus (GPa) = 30.21794 36.67444 33.44619
#
# Velocity S-wave (km/s) = 3.65780 4.02966 3.84823
# Velocity P-wave (km/s) = 5.37651 6.44936 5.93722
#
# Compressibility (1/GPa) = 0.04000576
#
# Stress axis : x y z
#
# Youngs Moduli (GPa) = 40.99850 99.31789 136.77492
#
# Poissons Ratio (x) = -0.36705 0.16314
# Poissons Ratio (y) = -0.15152 0.46307
# Poissons Ratio (z) = 0.04890 0.33625
#
# Static dielectric constant tensor:
#      x y z
#    x 2.265650 0.000000 0.000000 
#    y 0.000000 1.752210 0.000000 
#    z 0.000000 0.000000 1.744710 
# 
# From -- ./inp_files/12068.got.cif
#   From: 2010.05.17/outbox.cif.g08.bks.cpg/sg52_7_cif.got.tgz:12068.got - 2010.06.03 12:15:38.
