data_PCOD9413993
_publ_section_title
;
Structure prediction by ZEFSAII (Michael W. Deem and Ramdas Pophale) SiO2 
 PCOD9413993
Probable space group: P N N A
;
_chemical_formula_sum "Si O2"
_cell_formula_units_Z 48
_cell_length_a 6.000000
_cell_length_b 15.000000
_cell_length_c 27.000000
_cell_angle_alpha 90.000000
_cell_angle_beta 90.000000
_cell_angle_gamma 90.000000
_cell_volume 2430.000000
_symmetry_space_group_name_H-M "P N N A"
_symmetry_group_IT_number 52
_symmetry_cell_setting 'orthorhombic'
loop_
_space_group_symop_operation_xyz
x,y,z
1/2-x,-y,z
x,1/2-y,1/2-z
1/2-x,1/2+y,1/2-z
-x,-y,-z
1/2+x,y,-z
-x,1/2+y,1/2+z
1/2+x,1/2-y,1/2+z
loop_
_atom_site_type_symbol
_atom_site_label
_atom_site_fract_x
_atom_site_fract_y
_atom_site_fract_z
Si Si1 0.951477 0.230543 0.315601
Si Si2 0.362683 0.904906 0.733900
Si Si3 0.794948 0.392098 0.676532
Si Si4 0.431571 0.771137 0.893548
Si Si5 0.257391 0.899269 0.973915
Si Si6 0.677370 0.899089 0.637329
O O1 0.823347 0.170642 0.274466
O O2 0.751308 0.256964 0.351443
O O3 0.098554 0.321254 0.309380
O O4 0.114281 0.157355 0.341415
O O5 0.526869 0.883471 0.779040
O O6 0.509646 0.912622 0.683811
O O7 0.250000 0.000000 0.743509
O O8 0.750000 0.500000 0.671344
O O9 0.897679 0.347062 0.626911
O O10 0.296032 0.815467 0.938179
O O11 0.555831 0.674592 0.898638
O O12 0.250000 0.000000 0.951311
O O13 0.501495 0.894673 0.003391
O O14 0.750000 0.000000 0.620544
#
# Coordination Sequence:
#
# PCOD9413993 Si02
#       6
#     8   8   8   8   8   8
#     4  10  24  42  60  84 125 166 220 271 313 389
#     4  11  23  40  58  83 122 176 224 267 318 376
#     4  11  27  40  58  91 127 174 212 276 333 382
#     4  10  25  40  66  96 125 167 211 272 332 395
#     4  10  24  44  73 103 134 176 216 265 335 422
#     4  10  20  40  65  91 121 171 220 269 316 377
#
# _framework density 19.753086
#
# number of rings (size 3 to 8) (size 9 to 14) (size 15 to 20)
#    0.000    1.667    1.667    0.500    9.333    8.000 
#    0.000    0.000    0.000    1.000    0.000    0.000 
#    0.000    0.000    0.000    0.000    0.000    0.000 
#
# Total GULP energy -267423.921226 kJ/mol
# GULP energy per Si atom -5571.331692 kJ/mol
# Density = 1.970813 g / cm^3
# Si number density = 19.753086 Si / 1000 Ang^3
#
#
#
# Elastic Constant Matrix: (Units=GPa)
#
#
# Indices 1 2 3 4 5 6 
#
# 1 111.9636 63.3049 9.4614 0.0000 0.0000 0.0000
# 2 63.3049 213.5500 30.6782 0.0000 0.0000 0.0000
# 3 9.4614 30.6782 20.7195 0.0000 0.0000 0.0000
# 4 0.0000 0.0000 0.0000 23.3905 0.0000 0.0000
# 5 0.0000 0.0000 0.0000 0.0000 4.8858 0.0000
# 6 0.0000 0.0000 0.0000 0.0000 0.0000 53.9695
#
#
#
# Elastic Compliance Matrix: (Units=1/GPa)
#
#
# Indices 1 2 3 4 5 6 
#
# 1 0.010731 -0.003146 -0.000241 0.000000 0.000000 0.000000
# 2 -0.003146 0.006870 -0.008736 0.000000 0.000000 0.000000
# 3 -0.000241 -0.008736 0.061309 0.000000 0.000000 0.000000
# 4 0.000000 0.000000 0.000000 0.042752 0.000000 0.000000
# 5 0.000000 0.000000 0.000000 0.000000 0.204675 0.000000
# 6 0.000000 0.000000 0.000000 0.000000 0.000000 0.018529
#
#
# Mechanical properties :
#
#
# Convention : Reuss Voigt Hill
#
# Bulk Modulus (GPa) = 18.29404 61.45801 39.87603
# Shear Modulus (GPa) = 12.90872 32.63507 22.77189
#
# Velocity S-wave (km/s) = 2.55915 4.06907 3.39901
# Velocity P-wave (km/s) = 4.24426 7.29775 5.96954
#
# Compressibility (1/GPa) = 0.05466261
#
# Stress axis : x y z
#
# Youngs Moduli (GPa) = 93.18921 145.55084 16.31084
#
# Poissons Ratio (x) = 0.45796 0.00394
# Poissons Ratio (y) = 0.29321 0.14249
# Poissons Ratio (z) = 0.02250 1.27153
#
# Static dielectric constant tensor:
#      x y z
#    x 1.741680 0.000000 0.000000 
#    y 0.000000 1.703120 0.000000 
#    z 0.000000 0.000000 1.745630 
# 
# From -- ./inp_files/41693.got.cif
#   From: 2010.05.17/outbox.ucp.g08.bks.cvg/sg52_21_cif.got.tgz:41693.got - 2010.06.11 16:30:12.
