data_PCOD9413648
_publ_section_title
;
Structure prediction by ZEFSAII (Michael W. Deem and Ramdas Pophale) SiO2 
 PCOD9413648
Probable space group: P N N A
;
_chemical_formula_sum "Si O2"
_cell_formula_units_Z 32
_cell_length_a 20.432317
_cell_length_b 11.751720
_cell_length_c 5.058332
_cell_angle_alpha 90.000000
_cell_angle_beta 90.000000
_cell_angle_gamma 90.000000
_cell_volume 1214.580722
_symmetry_space_group_name_H-M "P N N A"
_symmetry_group_IT_number 52
_symmetry_cell_setting 'orthorhombic'
loop_
_space_group_symop_operation_xyz
x,y,z
1/2-x,-y,z
x,1/2-y,1/2-z
1/2-x,1/2+y,1/2-z
-x,-y,-z
1/2+x,y,-z
-x,1/2+y,1/2+z
1/2+x,1/2-y,1/2+z
loop_
_atom_site_type_symbol
_atom_site_label
_atom_site_fract_x
_atom_site_fract_y
_atom_site_fract_z
Si Si1 0.811329 0.250000 0.750000
Si Si2 0.128288 0.131908 0.167203
Si Si3 0.065743 0.657356 0.548372
Si Si4 0.750000 0.500000 0.757208
Si Si5 0.047288 0.087806 0.689018
O O1 0.862316 0.299073 0.531010
O O2 0.775469 0.369892 0.858327
O O3 0.159423 0.250000 0.250000
O O4 0.184398 0.040949 0.117862
O O5 0.078326 0.097561 0.400184
O O6 0.090459 0.153480 0.901682
O O7 0.036395 0.750000 0.750000
O O8 0.059418 0.540897 0.711973
O O9 0.024806 0.629195 0.279443
#
# Coordination Sequence:
#
# PCOD9413648 Si02
#       5
#     4   8   8   4   8
#     4  12  26  52  76 118 160 224 278 348 416 502
#     4  12  26  49  78 117 158 214 266 334 407 491
#     4  11  26  46  79 116 161 208 274 344 427 492
#     4  12  26  52  78 116 168 218 284 334 406 504
#     4  11  27  48  79 117 162 202 270 342 418 487
#
# _framework density 26.346540000000001
#
# number of rings (size 3 to 8) (size 9 to 14) (size 15 to 20)
#    0.000    0.500    3.750    3.000    7.000    3.000 
#    4.500    0.000    0.000    0.000    0.000    0.000 
#    0.000    0.000    0.000    0.000    0.000    0.000 
#
# Total GULP energy -178356.750950 kJ/mol
# GULP energy per Si atom -5573.648467 kJ/mol
# Density = 2.628657 g / cm^3
# Si number density = 26.346540 Si / 1000 Ang^3
#
#
#
# Elastic Constant Matrix: (Units=GPa)
#
#
# Indices 1 2 3 4 5 6 
#
# 1 114.2929 52.0892 52.8267 0.0000 0.0000 0.0000
# 2 52.0892 214.6078 43.4142 0.0000 0.0000 0.0000
# 3 52.8267 43.4142 147.2313 0.0000 0.0000 0.0000
# 4 0.0000 0.0000 0.0000 39.1519 0.0000 0.0000
# 5 0.0000 0.0000 0.0000 0.0000 -57.8286 0.0000
# 6 0.0000 0.0000 0.0000 0.0000 0.0000 56.7135
#
#
#
# Elastic Compliance Matrix: (Units=1/GPa)
#
#
# Indices 1 2 3 4 5 6 
#
# 1 0.011270 -0.002039 -0.003442 0.000000 0.000000 0.000000
# 2 -0.002039 0.005324 -0.000838 0.000000 0.000000 0.000000
# 3 -0.003442 -0.000838 0.008274 0.000000 0.000000 0.000000
# 4 0.000000 0.000000 0.000000 0.025542 0.000000 0.000000
# 5 0.000000 0.000000 0.000000 0.000000 -0.017292 0.000000
# 6 0.000000 0.000000 0.000000 0.000000 0.000000 0.017632
#
#
# Mechanical properties :
#
#
# Convention : Reuss Voigt Hill
#
# Bulk Modulus (GPa) = 81.77359 85.86581 83.81970
# Shear Modulus (GPa) = 74.11178 29.46081 51.78629
#
# Velocity S-wave (km/s) = 5.30949 3.34758 4.43830
# Velocity P-wave (km/s) = 8.28810 6.89952 7.62549
#
# Compressibility (1/GPa) = 0.01222889
#
# Stress axis : x y z
#
# Youngs Moduli (GPa) = 88.73255 187.82298 120.85523
#
# Poissons Ratio (x) = 0.38297 0.41603
# Poissons Ratio (y) = 0.18093 0.10132
# Poissons Ratio (z) = 0.30545 0.15746
#
# Static dielectric constant tensor:
#      x y z
#    x 2.066370 0.000000 0.000000 
#    y 0.000000 2.216900 0.000000 
#    z 0.000000 0.000000 2.061420 
# 
# From -- ./inp_files/3971.got.cif
#   From: 2010.05.17/outbox.cif.g08.bks.cpg/sg52_2_cif.got.tgz:3971.got - 2010.06.03 12:15:38.
