data_PCOD9413624
_publ_section_title
;
Structure prediction by ZEFSAII (Michael W. Deem and Ramdas Pophale) SiO2 
 PCOD9413624
Probable space group: P N N A
;
_chemical_formula_sum "Si O2"
_cell_formula_units_Z 32
_cell_length_a 15.877076
_cell_length_b 12.791373
_cell_length_c 6.072828
_cell_angle_alpha 90.000000
_cell_angle_beta 90.000000
_cell_angle_gamma 90.000000
_cell_volume 1233.328217
_symmetry_space_group_name_H-M "P N N A"
_symmetry_group_IT_number 52
_symmetry_cell_setting 'orthorhombic'
loop_
_space_group_symop_operation_xyz
x,y,z
1/2-x,-y,z
x,1/2-y,1/2-z
1/2-x,1/2+y,1/2-z
-x,-y,-z
1/2+x,y,-z
-x,1/2+y,1/2+z
1/2+x,1/2-y,1/2+z
loop_
_atom_site_type_symbol
_atom_site_label
_atom_site_fract_x
_atom_site_fract_y
_atom_site_fract_z
Si Si1 0.499663 0.890587 0.871718
Si Si2 0.623940 0.954813 0.556365
Si Si3 0.637041 0.750000 0.750000
Si Si4 0.336131 0.854261 0.113654
Si Si5 0.750000 0.000000 0.185518
O O1 0.528570 0.916967 0.619860
O O2 0.575588 0.689070 0.576198
O O3 0.413972 0.837909 0.945474
O O4 0.500000 0.000000 0.000000
O O5 0.675226 0.848823 0.622357
O O6 0.857247 0.950575 0.722871
O O7 0.664588 0.988498 0.327527
O O8 0.324592 0.750000 0.250000
O O9 0.260961 0.897490 0.963268
#
# Coordination Sequence:
#
# PCOD9413624 Si02
#       5
#     8   8   4   8   4
#     4   8  18  43  74 104 146 198 260 337 372 456
#     4   9  22  49  72 111 150 202 269 312 402 470
#     4   8  18  44  80 102 146 186 262 334 366 464
#     4  11  25  49  73 112 162 205 268 331 394 476
#     4  12  26  48  76 110 160 222 250 332 402 496
#
# _framework density 25.946055000000001
#
# number of rings (size 3 to 8) (size 9 to 14) (size 15 to 20)
#    1.500    1.000    0.000    0.750    0.000    4.000 
#   27.000    0.000    0.000    0.000    0.000    0.000 
#    0.000    0.000    0.000    0.000    0.000    0.000 
#
# Total GULP energy -178403.974499 kJ/mol
# GULP energy per Si atom -5575.124203 kJ/mol
# Density = 2.588700 g / cm^3
# Si number density = 25.946055 Si / 1000 Ang^3
#
#
#
# Elastic Constant Matrix: (Units=GPa)
#
#
# Indices 1 2 3 4 5 6 
#
# 1 111.0970 24.2970 64.2907 0.0000 0.0000 0.0000
# 2 24.2970 190.7905 55.3682 0.0000 0.0000 0.0000
# 3 64.2907 55.3682 118.9994 0.0000 0.0000 0.0000
# 4 0.0000 0.0000 0.0000 48.7459 0.0000 0.0000
# 5 0.0000 0.0000 0.0000 0.0000 21.8796 0.0000
# 6 0.0000 0.0000 0.0000 0.0000 0.0000 38.2647
#
#
#
# Elastic Compliance Matrix: (Units=1/GPa)
#
#
# Indices 1 2 3 4 5 6 
#
# 1 0.013128 0.000447 -0.007301 0.000000 0.000000 0.000000
# 2 0.000447 0.006075 -0.003068 0.000000 0.000000 0.000000
# 3 -0.007301 -0.003068 0.013775 0.000000 0.000000 0.000000
# 4 0.000000 0.000000 0.000000 0.020515 0.000000 0.000000
# 5 0.000000 0.000000 0.000000 0.000000 0.045705 0.000000
# 6 0.000000 0.000000 0.000000 0.000000 0.000000 0.026134
#
#
# Mechanical properties :
#
#
# Convention : Reuss Voigt Hill
#
# Bulk Modulus (GPa) = 76.13387 78.75540 77.44463
# Shear Modulus (GPa) = 33.43311 40.24010 36.83660
#
# Velocity S-wave (km/s) = 3.59355 3.94244 3.77203
# Velocity P-wave (km/s) = 6.82825 7.15144 6.99171
#
# Compressibility (1/GPa) = 0.01313476
#
# Stress axis : x y z
#
# Youngs Moduli (GPa) = 76.17204 164.61566 72.59522
#
# Poissons Ratio (x) = -0.07355 0.52998
# Poissons Ratio (y) = -0.03403 0.22271
# Poissons Ratio (z) = 0.55610 0.50502
#
# Static dielectric constant tensor:
#      x y z
#    x 2.218090 0.000000 0.000000 
#    y 0.000000 2.033610 0.000000 
#    z 0.000000 0.000000 2.040930 
# 
# From -- ./inp_files/3075.got.cif
#   From: 2010.05.17/outbox.cif.g08.bks.cpg/sg52_2_cif.got.tgz:3075.got - 2010.06.03 12:15:38.
