data_PCOD9413305
_publ_section_title
;
Structure prediction by ZEFSAII (Michael W. Deem and Ramdas Pophale) SiO2 
 PCOD9413305
Probable space group: P N N A
;
_chemical_formula_sum "Si O2"
_cell_formula_units_Z 64
_cell_length_a 17.739726
_cell_length_b 8.608715
_cell_length_c 20.755508
_cell_angle_alpha 90.000000
_cell_angle_beta 90.000000
_cell_angle_gamma 90.000000
_cell_volume 3169.703251
_symmetry_space_group_name_H-M "P N N A"
_symmetry_group_IT_number 52
_symmetry_cell_setting 'orthorhombic'
loop_
_space_group_symop_operation_xyz
x,y,z
1/2-x,-y,z
x,1/2-y,1/2-z
1/2-x,1/2+y,1/2-z
-x,-y,-z
1/2+x,y,-z
-x,1/2+y,1/2+z
1/2+x,1/2-y,1/2+z
loop_
_atom_site_type_symbol
_atom_site_label
_atom_site_fract_x
_atom_site_fract_y
_atom_site_fract_z
Si Si1 0.830333 0.582483 0.718857
Si Si2 0.662417 0.850944 0.464354
Si Si3 0.447499 0.381202 0.200218
Si Si4 0.671940 0.945692 0.609023
Si Si5 0.875102 0.707193 0.584893
Si Si6 0.931774 0.856551 0.409019
Si Si7 0.518262 0.825791 0.019163
Si Si8 0.200206 0.342521 0.556496
O O1 0.750000 0.500000 0.724245
O O2 0.821465 0.750000 0.750000
O O3 0.901840 0.506481 0.756304
O O4 0.846111 0.604768 0.643184
O O5 0.603698 0.709110 0.465191
O O6 0.739213 0.795639 0.432295
O O7 0.684423 0.878211 0.538672
O O8 0.617157 0.998528 0.436250
O O9 0.470248 0.250000 0.250000
O O10 0.379107 0.334223 0.151713
O O11 0.518515 0.407839 0.152580
O O12 0.633141 0.110692 0.598407
O O13 0.750000 0.000000 0.639464
O O14 0.964492 0.693381 0.579620
O O15 0.833490 0.665221 0.517192
O O16 0.989726 0.795529 0.464388
O O17 0.873061 0.711087 0.401709
O O18 0.500000 0.000000 0.000000
O O19 0.250000 0.500000 0.565648
#
# Coordination Sequence:
#
# PCOD9413305 Si02
#       8
#     8   8   8   8   8   8   8   8
#     4  12  27  43  62  90 131 182 230 268 316 394
#     4  12  20  39  70  98 131 169 216 267 341 410
#     4  12  28  43  63  89 128 184 230 270 317 386
#     4  12  21  39  65  94 129 173 220 265 317 395
#     4  11  23  39  62  96 137 166 210 267 332 406
#     4  11  23  43  65  94 132 172 221 274 331 409
#     4  11  23  36  59  97 132 165 204 272 346 390
#     4  11  23  40  67 107 135 163 204 280 358 405
#
# _framework density 20.191165000000002
#
# number of rings (size 3 to 8) (size 9 to 14) (size 15 to 20)
#    0.000    0.500    6.250    4.125    3.500    1.000 
#    0.000    0.000    0.000    1.500    0.000    0.000 
#    0.000    0.000    0.000    0.000    0.000    0.000 
#
# Total GULP energy -357017.736064 kJ/mol
# GULP energy per Si atom -5578.402126 kJ/mol
# Density = 2.014521 g / cm^3
# Si number density = 20.191165 Si / 1000 Ang^3
#
#
#
# Elastic Constant Matrix: (Units=GPa)
#
#
# Indices 1 2 3 4 5 6 
#
# 1 121.5070 17.6870 32.2135 0.0000 0.0000 0.0000
# 2 17.6870 60.3215 25.2413 0.0000 0.0000 0.0000
# 3 32.2135 25.2413 59.1382 0.0000 0.0000 0.0000
# 4 0.0000 0.0000 0.0000 -7.3883 0.0000 0.0000
# 5 0.0000 0.0000 0.0000 0.0000 -1.1759 0.0000
# 6 0.0000 0.0000 0.0000 0.0000 0.0000 36.0331
#
#
#
# Elastic Compliance Matrix: (Units=1/GPa)
#
#
# Indices 1 2 3 4 5 6 
#
# 1 0.009648 -0.000767 -0.004928 0.000000 0.000000 0.000000
# 2 -0.000767 0.020243 -0.008223 0.000000 0.000000 0.000000
# 3 -0.004928 -0.008223 0.023104 0.000000 0.000000 0.000000
# 4 0.000000 0.000000 0.000000 -0.135350 0.000000 0.000000
# 5 0.000000 0.000000 0.000000 0.000000 -0.850414 0.000000
# 6 0.000000 0.000000 0.000000 0.000000 0.000000 0.027752
#
#
# Mechanical properties :
#
#
# Convention : Reuss Voigt Hill
#
# Bulk Modulus (GPa) = 39.74573 43.47227 41.60900
# Shear Modulus (GPa) = -5.75510 16.54879 5.39684
#
# Velocity S-wave (km/s) = -1.69012 2.86598 1.63667
# Velocity P-wave (km/s) = 3.98984 5.70341 4.92177
#
# Compressibility (1/GPa) = 0.02515994
#
# Stress axis : x y z
#
# Youngs Moduli (GPa) = 103.64694 49.39890 43.28333
#
# Poissons Ratio (x) = 0.03788 0.21331
# Poissons Ratio (y) = 0.07947 0.35590
# Poissons Ratio (z) = 0.51079 0.40619
#
# Static dielectric constant tensor:
#      x y z
#    x 1.739440 0.000000 0.000000 
#    y 0.000000 1.753230 0.000000 
#    z 0.000000 0.000000 1.729860 
# 
# From -- ./inp_files/37699.got.cif
#   From: 2010.05.17/outbox.cif.g08.bks.cpg/sg52_19_cif.got.tgz:37699.got - 2010.06.03 12:15:38.
