data_PCOD9413866
_publ_section_title
;
Structure prediction by ZEFSAII (Michael W. Deem and Ramdas Pophale) SiO2 
 PCOD9413866
Probable space group: P N N A
;
_chemical_formula_sum "Si O2"
_cell_formula_units_Z 32
_cell_length_a 18.423075
_cell_length_b 12.504993
_cell_length_c 5.996366
_cell_angle_alpha 90.000000
_cell_angle_beta 90.000000
_cell_angle_gamma 90.000000
_cell_volume 1381.445341
_symmetry_space_group_name_H-M "P N N A"
_symmetry_group_IT_number 52
_symmetry_cell_setting 'orthorhombic'
loop_
_space_group_symop_operation_xyz
x,y,z
1/2-x,-y,z
x,1/2-y,1/2-z
1/2-x,1/2+y,1/2-z
-x,-y,-z
1/2+x,y,-z
-x,1/2+y,1/2+z
1/2+x,1/2-y,1/2+z
loop_
_atom_site_type_symbol
_atom_site_label
_atom_site_fract_x
_atom_site_fract_y
_atom_site_fract_z
Si Si1 0.357630 0.067642 0.443650
Si Si2 0.898726 0.250000 0.250000
Si Si3 0.250000 0.000000 0.097949
Si Si4 0.151071 0.130745 0.760325
Si Si5 0.513539 0.887102 0.886398
O O1 0.352652 0.155326 0.637498
O O2 0.434268 0.090160 0.323396
O O3 0.296691 0.077531 0.255935
O O4 0.350037 0.948567 0.546334
O O5 0.947645 0.306925 0.440593
O O6 0.305984 0.935134 0.947137
O O7 0.182692 0.250000 0.750000
O O8 0.067103 0.146072 0.823725
O O9 0.500000 0.000000 0.000000
#
# Coordination Sequence:
#
# PCOD9413866 Si02
#       5
#     8   4   4   8   8
#     4  12  26  52  75 114 153 200 255 312 386 452
#     4  12  26  48  82 112 150 198 258 318 380 454
#     4  12  28  54  70 112 160 208 248 314 382 460
#     4  12  28  52  79 115 152 203 259 317 383 458
#     4  12  25  48  83 113 151 196 259 322 381 449
#
# _framework density 23.164145000000001
#
# number of rings (size 3 to 8) (size 9 to 14) (size 15 to 20)
#    0.000    0.000    5.000    3.750    3.500    1.000 
#   33.750    0.000    0.000    0.000    0.000    0.000 
#    0.000    0.000    0.000    0.000    0.000    0.000 
#
# Total GULP energy -179241.715767 kJ/mol
# GULP energy per Si atom -5601.303618 kJ/mol
# Density = 2.311142 g / cm^3
# Si number density = 23.164145 Si / 1000 Ang^3
#
#
#
# Elastic Constant Matrix: (Units=GPa)
#
#
# Indices 1 2 3 4 5 6 
#
# 1 137.4451 34.7204 59.4264 0.0000 0.0000 0.0000
# 2 34.7204 157.9209 60.5822 0.0000 0.0000 0.0000
# 3 59.4264 60.5822 118.3122 0.0000 0.0000 0.0000
# 4 0.0000 0.0000 0.0000 32.9880 0.0000 0.0000
# 5 0.0000 0.0000 0.0000 0.0000 47.6204 0.0000
# 6 0.0000 0.0000 0.0000 0.0000 0.0000 0.2967
#
#
#
# Elastic Compliance Matrix: (Units=1/GPa)
#
#
# Indices 1 2 3 4 5 6 
#
# 1 0.009307 -0.000315 -0.004513 0.000000 0.000000 0.000000
# 2 -0.000315 0.007891 -0.003882 0.000000 0.000000 0.000000
# 3 -0.004513 -0.003882 0.012707 0.000000 0.000000 0.000000
# 4 0.000000 0.000000 0.000000 0.030314 0.000000 0.000000
# 5 0.000000 0.000000 0.000000 0.000000 0.020999 0.000000
# 6 0.000000 0.000000 0.000000 0.000000 0.000000 3.370604
#
#
# Mechanical properties :
#
#
# Convention : Reuss Voigt Hill
#
# Bulk Modulus (GPa) = 80.10543 80.34847 80.22695
# Shear Modulus (GPa) = 1.43951 33.44431 17.44191
#
# Velocity S-wave (km/s) = 0.78917 3.80385 2.74701
# Velocity P-wave (km/s) = 5.95711 7.35216 6.69109
#
# Compressibility (1/GPa) = 0.01248355
#
# Stress axis : x y z
#
# Youngs Moduli (GPa) = 107.45114 126.72852 78.69518
#
# Poissons Ratio (x) = 0.03988 0.35518
# Poissons Ratio (y) = 0.03381 0.30553
# Poissons Ratio (z) = 0.48497 0.49202
#
# Static dielectric constant tensor:
#      x y z
#    x 1.853090 0.000000 0.000000 
#    y 0.000000 1.847400 0.000000 
#    z 0.000000 0.000000 1.735480 
# 
# From -- ./inp_files/3023.got.cif
#   From: 2010.05.17/outbox.cif.g08.bks.cpg/sg52_2_cif.got.tgz:3023.got - 2010.06.03 12:15:38.
