data_PCOD9413976
_publ_section_title
;
Structure prediction by ZEFSAII (Michael W. Deem and Ramdas Pophale) SiO2 
 PCOD9413976
Probable space group: P N N A
;
_chemical_formula_sum "Si O2"
_cell_formula_units_Z 48
_cell_length_a 9.000000
_cell_length_b 9.000000
_cell_length_c 30.000000
_cell_angle_alpha 90.000000
_cell_angle_beta 90.000000
_cell_angle_gamma 90.000000
_cell_volume 2430.000000
_symmetry_space_group_name_H-M "P N N A"
_symmetry_group_IT_number 52
_symmetry_cell_setting 'orthorhombic'
loop_
_space_group_symop_operation_xyz
x,y,z
1/2-x,-y,z
x,1/2-y,1/2-z
1/2-x,1/2+y,1/2-z
-x,-y,-z
1/2+x,y,-z
-x,1/2+y,1/2+z
1/2+x,1/2-y,1/2+z
loop_
_atom_site_type_symbol
_atom_site_label
_atom_site_fract_x
_atom_site_fract_y
_atom_site_fract_z
Si Si1 0.924584 0.463069 0.394870
Si Si2 0.574608 0.528877 0.892658
Si Si3 0.596928 0.700022 0.550215
Si Si4 0.550117 0.269355 0.954716
Si Si5 0.585521 0.071846 0.802093
Si Si6 0.414400 0.570910 0.202015
O O1 0.750000 0.500000 0.397144
O O2 0.025620 0.548940 0.431647
O O3 0.955921 0.300003 0.413860
O O4 0.988502 0.478073 0.344755
O O5 0.750000 0.500000 0.886250
O O6 0.550047 0.694749 0.908542
O O7 0.543311 0.438917 0.938293
O O8 0.510329 0.489920 0.843693
O O9 0.776427 0.715303 0.545757
O O10 0.523804 0.738710 0.502520
O O11 0.598827 0.251235 0.803706
O O12 0.523249 0.038179 0.752000
O O13 0.750000 0.000000 0.806407
O O14 0.250000 0.500000 0.204629
#
# Coordination Sequence:
#
# PCOD9413976 Si02
#       6
#     8   8   8   8   8   8
#     4  12  25  40  58  84 121 159 200 242 292 349
#     4   9  19  35  60  90 118 151 191 240 290 351
#     4  11  23  38  63  88 118 152 197 245 296 354
#     4  11  21  40  61  87 118 153 196 242 297 349
#     4  10  20  36  65  92 118 154 195 245 295 346
#     4   9  18  35  63  94 121 145 196 243 292 347
#
# _framework density 19.753086
#
# number of rings (size 3 to 8) (size 9 to 14) (size 15 to 20)
#    0.000    1.667    1.667    3.500    4.667    0.000 
#    0.000    2.500    7.333    0.000    0.000    0.000 
#    0.000    0.000    0.000    0.000    0.000    0.000 
#
# Total GULP energy -267244.065415 kJ/mol
# GULP energy per Si atom -5567.584696 kJ/mol
# Density = 1.970813 g / cm^3
# Si number density = 19.753086 Si / 1000 Ang^3
#
#
#
# Elastic Constant Matrix: (Units=GPa)
#
#
# Indices 1 2 3 4 5 6 
#
# 1 74.3808 6.2401 30.6503 0.0000 0.0000 0.0000
# 2 6.2401 20.1754 8.7099 0.0000 0.0000 0.0000
# 3 30.6503 8.7099 180.4894 0.0000 0.0000 0.0000
# 4 0.0000 0.0000 0.0000 63.8746 0.0000 0.0000
# 5 0.0000 0.0000 0.0000 0.0000 76.5077 0.0000
# 6 0.0000 0.0000 0.0000 0.0000 0.0000 8.9365
#
#
#
# Elastic Compliance Matrix: (Units=1/GPa)
#
#
# Indices 1 2 3 4 5 6 
#
# 1 0.014700 -0.003543 -0.002325 0.000000 0.000000 0.000000
# 2 -0.003543 0.051474 -0.001882 0.000000 0.000000 0.000000
# 3 -0.002325 -0.001882 0.006026 0.000000 0.000000 0.000000
# 4 0.000000 0.000000 0.000000 0.015656 0.000000 0.000000
# 5 0.000000 0.000000 0.000000 0.000000 0.013071 0.000000
# 6 0.000000 0.000000 0.000000 0.000000 0.000000 0.111901
#
#
# Mechanical properties :
#
#
# Convention : Reuss Voigt Hill
#
# Bulk Modulus (GPa) = 17.63701 40.69404 29.16553
# Shear Modulus (GPa) = 20.22430 45.16009 32.69219
#
# Velocity S-wave (km/s) = 3.20324 4.78664 4.07263
# Velocity P-wave (km/s) = 4.75701 7.15509 6.07554
#
# Compressibility (1/GPa) = 0.05669896
#
# Stress axis : x y z
#
# Youngs Moduli (GPa) = 68.02845 19.42738 165.94175
#
# Poissons Ratio (x) = 0.06882 0.38587
# Poissons Ratio (y) = 0.24100 0.31237
# Poissons Ratio (z) = 0.15819 0.03657
#
# Static dielectric constant tensor:
#      x y z
#    x 1.696120 0.000000 0.000000 
#    y 0.000000 1.753270 0.000000 
#    z 0.000000 0.000000 1.705750 
# 
# From -- ./inp_files/44376.got.cif
#   From: 2010.05.17/outbox.ucp.g08.bks.cvg/sg52_23_cif.got.tgz:44376.got - 2010.06.11 16:30:12.
