data_PCOD9413955
_publ_section_title
;
Structure prediction by ZEFSAII (Michael W. Deem and Ramdas Pophale) SiO2 
 PCOD9413955
Probable space group: P N N A
;
_chemical_formula_sum "Si O2"
_cell_formula_units_Z 64
_cell_length_a 14.428069
_cell_length_b 12.954259
_cell_length_c 12.345633
_cell_angle_alpha 90.000000
_cell_angle_beta 90.000000
_cell_angle_gamma 90.000000
_cell_volume 2307.459828
_symmetry_space_group_name_H-M "P N N A"
_symmetry_group_IT_number 52
_symmetry_cell_setting 'orthorhombic'
loop_
_space_group_symop_operation_xyz
x,y,z
1/2-x,-y,z
x,1/2-y,1/2-z
1/2-x,1/2+y,1/2-z
-x,-y,-z
1/2+x,y,-z
-x,1/2+y,1/2+z
1/2+x,1/2-y,1/2+z
loop_
_atom_site_type_symbol
_atom_site_label
_atom_site_fract_x
_atom_site_fract_y
_atom_site_fract_z
Si Si1 0.906567 0.672117 0.976107
Si Si2 0.301501 0.126686 0.724416
Si Si3 0.172604 0.611682 0.465649
Si Si4 0.808382 0.157221 0.523301
Si Si5 0.992283 0.874046 0.743963
Si Si6 0.610210 0.094732 0.961980
Si Si7 0.894881 0.125640 0.740397
Si Si8 0.097536 0.127898 0.722422
O O1 0.798363 0.672341 0.940945
O O2 0.963154 0.614902 0.882165
O O3 0.931066 0.794169 0.997538
O O4 0.910752 0.619681 0.092725
O O5 0.297625 0.250000 0.750000
O O6 0.307179 0.109751 0.595129
O O7 0.401750 0.093435 0.766436
O O8 0.198833 0.089276 0.758097
O O9 0.146498 0.729006 0.491603
O O10 0.280614 0.604120 0.494121
O O11 0.100007 0.524053 0.502719
O O12 0.173423 0.597420 0.336002
O O13 0.860430 0.100670 0.620341
O O14 0.993724 0.750000 0.750000
O O15 0.917411 0.904260 0.834887
O O16 0.898374 0.250000 0.750000
O O17 0.998891 0.087934 0.763816
O O18 0.099198 0.250000 0.750000
#
# Coordination Sequence:
#
# PCOD9413955 Si02
#       8
#     8   8   8   8   8   8   8   8
#     4   9  16  27  46  71  95 120 154 195 238 282
#     4   9  17  28  44  65  88 119 161 201 230 262
#     4   9  17  29  47  74 103 124 146 185 241 297
#     4   9  16  27  46  71  95 120 154 195 238 282
#     4   9  16  27  46  68  93 120 151 191 236 280
#     4   9  17  29  47  74 103 124 146 185 241 297
#     4   9  16  27  46  68  93 120 151 191 236 280
#     4   9  17  28  44  65  88 119 161 201 230 262
#
# _framework density 27.736125999999999
#
# number of rings (size 3 to 8) (size 9 to 14) (size 15 to 20)
#    0.000    3.000    0.000    1.500    0.000    3.000 
#    0.000    0.000    0.000   30.750    0.000   14.000 
#    0.000    0.000    0.000    0.000    0.000    0.000 
#
# Total GULP energy -357827.778907 kJ/mol
# GULP energy per Si atom -5591.059045 kJ/mol
# Density = 2.767300 g / cm^3
# Si number density = 27.736126 Si / 1000 Ang^3
#
#
#
# Elastic Constant Matrix: (Units=GPa)
#
#
# Indices 1 2 3 4 5 6 
#
# 1 127.4997 25.3536 36.4143 0.0000 0.0000 0.0000
# 2 25.3536 97.6913 13.4753 0.0000 0.0000 0.0000
# 3 36.4143 13.4753 168.2882 0.0000 0.0000 0.0000
# 4 0.0000 0.0000 0.0000 4.8647 0.0000 0.0000
# 5 0.0000 0.0000 0.0000 0.0000 126.6878 0.0000
# 6 0.0000 0.0000 0.0000 0.0000 0.0000 45.6349
#
#
#
# Elastic Compliance Matrix: (Units=1/GPa)
#
#
# Indices 1 2 3 4 5 6 
#
# 1 0.008741 -0.002030 -0.001729 0.000000 0.000000 0.000000
# 2 -0.002030 0.010822 -0.000427 0.000000 0.000000 0.000000
# 3 -0.001729 -0.000427 0.006350 0.000000 0.000000 0.000000
# 4 0.000000 0.000000 0.000000 0.205562 0.000000 0.000000
# 5 0.000000 0.000000 0.000000 0.000000 0.007893 0.000000
# 6 0.000000 0.000000 0.000000 0.000000 0.000000 0.021913
#
#
# Mechanical properties :
#
#
# Convention : Reuss Voigt Hill
#
# Bulk Modulus (GPa) = 57.00896 60.44062 58.72479
# Shear Modulus (GPa) = 18.14875 56.65322 37.40099
#
# Velocity S-wave (km/s) = 2.56077 4.52439 3.67612
# Velocity P-wave (km/s) = 5.41683 7.00943 6.26395
#
# Compressibility (1/GPa) = 0.01754110
#
# Stress axis : x y z
#
# Youngs Moduli (GPa) = 114.40923 92.40351 157.46869
#
# Poissons Ratio (x) = 0.18757 0.27222
# Poissons Ratio (y) = 0.23225 0.06729
# Poissons Ratio (z) = 0.19778 0.03949
#
# Static dielectric constant tensor:
#      x y z
#    x 2.118900 0.000000 0.000000 
#    y 0.000000 2.391260 0.000000 
#    z 0.000000 0.000000 2.092300 
# 
# From -- ./inp_files/27487.got.cif
#   From: 2010.05.17/outbox.cif.g08.bks.cpg/sg52_14_cif.got.tgz:27487.got - 2010.06.03 12:15:38.
