data_PCOD9413657
_publ_section_title
;
Structure prediction by ZEFSAII (Michael W. Deem and Ramdas Pophale) SiO2 
 PCOD9413657
Probable space group: P N N A
;
_chemical_formula_sum "Si O2"
_cell_formula_units_Z 24
_cell_length_a 17.718873
_cell_length_b 10.679911
_cell_length_c 4.735141
_cell_angle_alpha 90.000000
_cell_angle_beta 90.000000
_cell_angle_gamma 90.000000
_cell_volume 896.059079
_symmetry_space_group_name_H-M "P N N A"
_symmetry_group_IT_number 52
_symmetry_cell_setting 'orthorhombic'
loop_
_space_group_symop_operation_xyz
x,y,z
1/2-x,-y,z
x,1/2-y,1/2-z
1/2-x,1/2+y,1/2-z
-x,-y,-z
1/2+x,y,-z
-x,1/2+y,1/2+z
1/2+x,1/2-y,1/2+z
loop_
_atom_site_type_symbol
_atom_site_label
_atom_site_fract_x
_atom_site_fract_y
_atom_site_fract_z
Si Si1 0.501843 0.750000 0.250000
Si Si2 0.376971 0.080520 0.443061
Si Si3 0.247767 0.250000 0.250000
Si Si4 0.877710 0.910051 0.054747
O O1 0.554037 0.842045 0.432191
O O2 0.448231 0.826877 0.037933
O O3 0.302172 0.163963 0.441210
O O4 0.386506 0.038546 0.120892
O O5 0.371379 0.952757 0.623475
O O6 0.195743 0.161697 0.057195
#
# Coordination Sequence:
#
# PCOD9413657 Si02
#       4
#     4   8   4   8
#     4  11  26  48  76 107 144 190 244 299 360 434
#     4  12  26  46  74 108 142 190 244 299 361 432
#     4  11  28  48  74 109 150 194 244 303 368 436
#     4  11  28  49  73 106 148 192 240 299 365 432
#
# _framework density 26.783950000000001
#
# number of rings (size 3 to 8) (size 9 to 14) (size 15 to 20)
#    0.000    0.667    0.000    5.000    0.000   24.000 
#    0.000    0.000    0.000    0.000    0.000    0.000 
#    0.000    0.000    0.000    0.000    0.000    0.000 
#
# Total GULP energy -135088.028224 kJ/mol
# GULP energy per Si atom -5628.667843 kJ/mol
# Density = 2.672299 g / cm^3
# Si number density = 26.783950 Si / 1000 Ang^3
#
#
#
# Elastic Constant Matrix: (Units=GPa)
#
#
# Indices 1 2 3 4 5 6 
#
# 1 200.0968 71.9882 31.7968 0.0000 0.0000 0.0000
# 2 71.9882 113.2095 15.6360 0.0000 0.0000 0.0000
# 3 31.7968 15.6360 88.1748 0.0000 0.0000 0.0000
# 4 0.0000 0.0000 0.0000 57.9795 0.0000 0.0000
# 5 0.0000 0.0000 0.0000 0.0000 24.4042 0.0000
# 6 0.0000 0.0000 0.0000 0.0000 0.0000 38.6391
#
#
#
# Elastic Compliance Matrix: (Units=1/GPa)
#
#
# Indices 1 2 3 4 5 6 
#
# 1 0.006722 -0.004038 -0.001708 0.000000 0.000000 0.000000
# 2 -0.004038 0.011481 -0.000580 0.000000 0.000000 0.000000
# 3 -0.001708 -0.000580 0.012060 0.000000 0.000000 0.000000
# 4 0.000000 0.000000 0.000000 0.017247 0.000000 0.000000
# 5 0.000000 0.000000 0.000000 0.000000 0.040977 0.000000
# 6 0.000000 0.000000 0.000000 0.000000 0.000000 0.025881
#
#
# Mechanical properties :
#
#
# Convention : Reuss Voigt Hill
#
# Bulk Modulus (GPa) = 56.78279 71.14703 63.96491
# Shear Modulus (GPa) = 37.62518 43.00855 40.31686
#
# Velocity S-wave (km/s) = 3.75209 4.01154 3.88398
# Velocity P-wave (km/s) = 6.32591 6.93380 6.63682
#
# Compressibility (1/GPa) = 0.01761097
#
# Stress axis : x y z
#
# Youngs Moduli (GPa) = 148.76804 87.09860 82.92035
#
# Poissons Ratio (x) = 0.35174 0.14162
# Poissons Ratio (y) = 0.60079 0.04806
# Poissons Ratio (z) = 0.25407 0.05049
#
# Static dielectric constant tensor:
#      x y z
#    x 2.018390 0.000000 0.000000 
#    y 0.000000 2.069060 0.000000 
#    z 0.000000 0.000000 1.993690 
# 
# From -- ./inp_files/2887.got.cif
#   From: 2010.05.17/outbox.cif.g08.bks.cpg/sg52_2_cif.got.tgz:2887.got - 2010.06.03 12:15:38.
