data_PCOD9413466
_publ_section_title
;
Structure prediction by ZEFSAII (Michael W. Deem and Ramdas Pophale) SiO2 
 PCOD9413466
Probable space group: P N N A
;
_chemical_formula_sum "Si O2"
_cell_formula_units_Z 40
_cell_length_a 18.795600
_cell_length_b 9.315933
_cell_length_c 8.814205
_cell_angle_alpha 90.000000
_cell_angle_beta 90.000000
_cell_angle_gamma 90.000000
_cell_volume 1543.354518
_symmetry_space_group_name_H-M "P N N A"
_symmetry_group_IT_number 52
_symmetry_cell_setting 'orthorhombic'
loop_
_space_group_symop_operation_xyz
x,y,z
1/2-x,-y,z
x,1/2-y,1/2-z
1/2-x,1/2+y,1/2-z
-x,-y,-z
1/2+x,y,-z
-x,1/2+y,1/2+z
1/2+x,1/2-y,1/2+z
loop_
_atom_site_type_symbol
_atom_site_label
_atom_site_fract_x
_atom_site_fract_y
_atom_site_fract_z
Si Si1 0.911199 0.583901 0.599194
Si Si2 0.258646 0.827117 0.099733
Si Si3 0.701324 0.372302 0.141066
Si Si4 0.419553 0.471183 0.060125
Si Si5 0.570232 0.686795 0.414974
O O1 0.844241 0.685371 0.600370
O O2 0.914629 0.511434 0.764139
O O3 0.900695 0.467345 0.465416
O O4 0.985012 0.665039 0.578154
O O5 0.230387 0.750000 0.250000
O O6 0.250000 0.000000 0.099129
O O7 0.243381 0.725438 0.957498
O O8 0.750000 0.500000 0.211074
O O9 0.669262 0.250000 0.250000
O O10 0.639625 0.449859 0.043556
O O11 0.500000 0.500000 0.000000
O O12 0.409309 0.302269 0.039086
O O13 0.588140 0.750000 0.250000
#
# Coordination Sequence:
#
# PCOD9413466 Si02
#       5
#     8   8   8   8   8
#     4  11  25  46  69 111 154 193 259 326 402 471
#     4  12  26  47  78 107 148 198 257 323 394 473
#     4  12  30  53  79 114 162 213 274 335 413 489
#     4  12  25  46  76 110 155 202 265 328 407 475
#     4  11  24  42  72 107 150 200 250 322 399 482
#
# _framework density 25.917570000000001
#
# number of rings (size 3 to 8) (size 9 to 14) (size 15 to 20)
#    0.000    0.400    4.000    3.600    5.600    2.400 
#    0.000    0.000    0.000    0.000    0.000    0.000 
#    0.000    0.000    0.000    0.000    0.000    0.000 
#
# Total GULP energy -224083.827187 kJ/mol
# GULP energy per Si atom -5602.095680 kJ/mol
# Density = 2.585858 g / cm^3
# Si number density = 25.917570 Si / 1000 Ang^3
#
#
#
# Elastic Constant Matrix: (Units=GPa)
#
#
# Indices 1 2 3 4 5 6 
#
# 1 112.4918 30.5145 16.2118 0.0000 0.0000 0.0000
# 2 30.5145 176.8450 57.5276 0.0000 0.0000 0.0000
# 3 16.2118 57.5276 103.2642 0.0000 0.0000 0.0000
# 4 0.0000 0.0000 0.0000 62.7637 0.0000 0.0000
# 5 0.0000 0.0000 0.0000 0.0000 27.6977 0.0000
# 6 0.0000 0.0000 0.0000 0.0000 0.0000 29.8914
#
#
#
# Elastic Compliance Matrix: (Units=1/GPa)
#
#
# Indices 1 2 3 4 5 6 
#
# 1 0.009367 -0.001390 -0.000696 0.000000 0.000000 0.000000
# 2 -0.001390 0.007112 -0.003744 0.000000 0.000000 0.000000
# 3 -0.000696 -0.003744 0.011879 0.000000 0.000000 0.000000
# 4 0.000000 0.000000 0.000000 0.015933 0.000000 0.000000
# 5 0.000000 0.000000 0.000000 0.000000 0.036104 0.000000
# 6 0.000000 0.000000 0.000000 0.000000 0.000000 0.033454
#
#
# Mechanical properties :
#
#
# Convention : Reuss Voigt Hill
#
# Bulk Modulus (GPa) = 59.88742 66.78987 63.33864
# Shear Modulus (GPa) = 38.14582 43.29369 40.71975
#
# Velocity S-wave (km/s) = 3.84058 4.09153 3.96804
# Velocity P-wave (km/s) = 6.54399 6.93880 6.74428
#
# Compressibility (1/GPa) = 0.01669800
#
# Stress axis : x y z
#
# Youngs Moduli (GPa) = 106.75930 140.59925 84.18211
#
# Poissons Ratio (x) = 0.19539 0.05862
# Poissons Ratio (y) = 0.14837 0.31518
# Poissons Ratio (z) = 0.07434 0.52642
#
# Static dielectric constant tensor:
#      x y z
#    x 2.098630 0.000000 0.000000 
#    y 0.000000 2.065830 0.000000 
#    z 0.000000 0.000000 2.101690 
# 
# From -- ./inp_files/14004.got.cif
#   From: 2010.05.17/outbox.cif.g08.bks.cpg/sg52_8_cif.got.tgz:14004.got - 2010.06.03 12:15:38.
