data_PCOD9413770
_publ_section_title
;
Structure prediction by ZEFSAII (Michael W. Deem and Ramdas Pophale) SiO2 
 PCOD9413770
Probable space group: P N N A
;
_chemical_formula_sum "Si O2"
_cell_formula_units_Z 40
_cell_length_a 18.368950
_cell_length_b 11.151924
_cell_length_c 8.206517
_cell_angle_alpha 90.000000
_cell_angle_beta 90.000000
_cell_angle_gamma 90.000000
_cell_volume 1681.097904
_symmetry_space_group_name_H-M "P N N A"
_symmetry_group_IT_number 52
_symmetry_cell_setting 'orthorhombic'
loop_
_space_group_symop_operation_xyz
x,y,z
1/2-x,-y,z
x,1/2-y,1/2-z
1/2-x,1/2+y,1/2-z
-x,-y,-z
1/2+x,y,-z
-x,1/2+y,1/2+z
1/2+x,1/2-y,1/2+z
loop_
_atom_site_type_symbol
_atom_site_label
_atom_site_fract_x
_atom_site_fract_y
_atom_site_fract_z
Si Si1 0.480071 0.250000 0.750000
Si Si2 0.049962 0.007584 0.160766
Si Si3 0.278299 0.250000 0.250000
Si Si4 0.889014 0.113424 0.530529
Si Si5 0.310689 0.583389 0.477263
Si Si6 0.750000 0.000000 0.392201
Si Si7 0.299017 0.750000 0.750000
O O1 0.534008 0.143603 0.795274
O O2 0.429832 0.186611 0.611930
O O3 0.129813 0.993936 0.088373
O O4 0.053290 0.931613 0.329440
O O5 0.000000 0.000000 0.000000
O O6 0.332141 0.201735 0.385443
O O7 0.227191 0.350660 0.327460
O O8 0.832652 0.008537 0.471870
O O9 0.250000 0.500000 0.560658
O O10 0.340318 0.681926 0.603669
O O11 0.754174 0.861654 0.324369
#
# Coordination Sequence:
#
# PCOD9413770 Si02
#       7
#     4   8   4   8   8   4   4
#     4  12  30  48  74 108 164 206 268 324 421 497
#     4  12  29  51  74 109 155 212 267 329 408 497
#     4  12  23  44  81 111 151 200 262 338 411 474
#     4  12  26  48  78 114 156 211 265 341 412 492
#     4  12  26  47  77 116 150 205 273 338 398 488
#     4  12  26  46  80 122 154 208 266 346 406 482
#     4  12  27  42  79 117 163 194 266 330 422 465
#
# _framework density 23.793975
#
# number of rings (size 3 to 8) (size 9 to 14) (size 15 to 20)
#    0.000    0.000    5.000    4.200    5.600    1.600 
#    0.000    0.000    0.000    0.000    0.000    0.000 
#    0.000    0.000    0.000    0.000    0.000    0.000 
#
# Total GULP energy -222848.634435 kJ/mol
# GULP energy per Si atom -5571.215861 kJ/mol
# Density = 2.373982 g / cm^3
# Si number density = 23.793975 Si / 1000 Ang^3
#
#
#
# Elastic Constant Matrix: (Units=GPa)
#
#
# Indices 1 2 3 4 5 6 
#
# 1 56.7204 20.9952 21.7020 0.0000 0.0000 0.0000
# 2 20.9952 98.7211 59.5899 0.0000 0.0000 0.0000
# 3 21.7020 59.5899 101.4487 0.0000 0.0000 0.0000
# 4 0.0000 0.0000 0.0000 55.1694 0.0000 0.0000
# 5 0.0000 0.0000 0.0000 0.0000 -2.8213 0.0000
# 6 0.0000 0.0000 0.0000 0.0000 0.0000 37.2573
#
#
#
# Elastic Compliance Matrix: (Units=1/GPa)
#
#
# Indices 1 2 3 4 5 6 
#
# 1 0.019604 -0.002538 -0.002703 0.000000 0.000000 0.000000
# 2 -0.002538 0.016022 -0.008869 0.000000 0.000000 0.000000
# 3 -0.002703 -0.008869 0.015645 0.000000 0.000000 0.000000
# 4 0.000000 0.000000 0.000000 0.018126 0.000000 0.000000
# 5 0.000000 0.000000 0.000000 0.000000 -0.354446 0.000000
# 6 0.000000 0.000000 0.000000 0.000000 0.000000 0.026840
#
#
# Mechanical properties :
#
#
# Convention : Reuss Voigt Hill
#
# Bulk Modulus (GPa) = 43.37912 51.27381 47.32646
# Shear Modulus (GPa) = -22.49151 28.22795 2.86822
#
# Velocity S-wave (km/s) = -3.07784 3.44808 1.09912
# Velocity P-wave (km/s) = 2.37484 6.11949 4.64155
#
# Compressibility (1/GPa) = 0.02305257
#
# Stress axis : x y z
#
# Youngs Moduli (GPa) = 51.01027 62.41238 63.91901
#
# Poissons Ratio (x) = 0.15837 0.17279
# Poissons Ratio (y) = 0.12944 0.56687
# Poissons Ratio (z) = 0.13789 0.55351
#
# Static dielectric constant tensor:
#      x y z
#    x 1.919890 0.000000 0.000000 
#    y 0.000000 1.893030 0.000000 
#    z 0.000000 0.000000 2.563860 
# 
# From -- ./inp_files/11721.got.cif
#   From: 2010.05.17/outbox.cif.g08.bks.cpg/sg52_6_cif.got.tgz:11721.got - 2010.06.03 12:15:38.
