data_PCOD9413033
_publ_section_title
;
Structure prediction by ZEFSAII (Michael W. Deem and Ramdas Pophale) SiO2 
 PCOD9413033
Probable space group: P N N A
;
_chemical_formula_sum "Si O2"
_cell_formula_units_Z 64
_cell_length_a 19.303927
_cell_length_b 11.941581
_cell_length_c 13.463196
_cell_angle_alpha 90.000000
_cell_angle_beta 90.000000
_cell_angle_gamma 90.000000
_cell_volume 3103.527970
_symmetry_space_group_name_H-M "P N N A"
_symmetry_group_IT_number 52
_symmetry_cell_setting 'orthorhombic'
loop_
_space_group_symop_operation_xyz
x,y,z
1/2-x,-y,z
x,1/2-y,1/2-z
1/2-x,1/2+y,1/2-z
-x,-y,-z
1/2+x,y,-z
-x,1/2+y,1/2+z
1/2+x,1/2-y,1/2+z
loop_
_atom_site_type_symbol
_atom_site_label
_atom_site_fract_x
_atom_site_fract_y
_atom_site_fract_z
Si Si1 0.292717 0.119531 0.268454
Si Si2 0.054313 0.594170 0.306449
Si Si3 0.781167 0.122032 0.504536
Si Si4 0.680177 0.068343 0.208082
Si Si5 0.340592 0.700529 0.903886
Si Si6 0.419577 0.176516 0.598832
Si Si7 0.997381 0.317176 0.904560
Si Si8 0.949881 0.414737 0.316241
O O1 0.265613 0.250000 0.250000
O O2 0.363539 0.104122 0.206836
O O3 0.311643 0.124574 0.385286
O O4 0.250000 0.000000 0.255352
O O5 0.019523 0.618671 0.198103
O O6 0.029339 0.692163 0.379386
O O7 0.022002 0.476261 0.338538
O O8 0.712088 0.195791 0.495067
O O9 0.838502 0.156660 0.424100
O O10 0.750000 0.000000 0.489170
O O11 0.676360 0.184349 0.150427
O O12 0.675097 0.102963 0.323636
O O13 0.750000 0.000000 0.190690
O O14 0.613672 0.999631 0.172851
O O15 0.421214 0.688603 0.925947
O O16 0.459172 0.135679 0.500922
O O17 0.435813 0.306826 0.616978
O O18 0.444735 0.120277 0.700319
#
# Coordination Sequence:
#
# PCOD9413033 Si02
#       8
#     8   8   8   8   8   8   8   8
#     4  11  24  47  72  96 132 180 235 296 350 416
#     4  11  20  44  70  92 126 176 227 277 345 423
#     4  11  23  40  64  95 132 175 225 276 343 421
#     4  11  20  36  59  87 126 165 201 260 331 409
#     4  11  21  37  61  93 122 161 218 269 326 409
#     4  11  24  40  59  93 136 171 215 282 340 402
#     4  11  21  41  70  90 126 170 225 278 334 411
#     4  11  23  39  59  94 132 169 216 270 348 404
#
# _framework density 20.621693
#
# number of rings (size 3 to 8) (size 9 to 14) (size 15 to 20)
#    0.000    1.000    5.000    3.375    0.000    5.000 
#    4.500    1.875    0.000    0.000    0.000    0.000 
#    0.000    0.000    0.000    0.000    0.000    0.000 
#
# Total GULP energy -357274.961886 kJ/mol
# GULP energy per Si atom -5582.421279 kJ/mol
# Density = 2.057476 g / cm^3
# Si number density = 20.621693 Si / 1000 Ang^3
#
#
#
# Elastic Constant Matrix: (Units=GPa)
#
#
# Indices 1 2 3 4 5 6 
#
# 1 101.8724 17.1020 3.1725 0.0000 0.0000 0.0000
# 2 17.1020 100.1649 -2.9676 0.0000 0.0000 0.0000
# 3 3.1725 -2.9676 37.4093 0.0000 0.0000 0.0000
# 4 0.0000 0.0000 0.0000 0.6295 0.0000 0.0000
# 5 0.0000 0.0000 0.0000 0.0000 11.6592 0.0000
# 6 0.0000 0.0000 0.0000 0.0000 0.0000 55.5219
#
#
#
# Elastic Compliance Matrix: (Units=1/GPa)
#
#
# Indices 1 2 3 4 5 6 
#
# 1 0.010143 -0.001761 -0.001000 0.000000 0.000000 0.000000
# 2 -0.001761 0.010313 0.000967 0.000000 0.000000 0.000000
# 3 -0.001000 0.000967 0.026893 0.000000 0.000000 0.000000
# 4 0.000000 0.000000 0.000000 1.588507 0.000000 0.000000
# 5 0.000000 0.000000 0.000000 0.000000 0.085769 0.000000
# 6 0.000000 0.000000 0.000000 0.000000 0.000000 0.018011
#
#
# Mechanical properties :
#
#
# Convention : Reuss Voigt Hill
#
# Bulk Modulus (GPa) = 22.85132 30.45117 26.65124
# Shear Modulus (GPa) = 2.84445 28.37142 15.60793
#
# Velocity S-wave (km/s) = 1.17573 3.71321 2.75411
# Velocity P-wave (km/s) = 3.59839 5.76043 4.80265
#
# Compressibility (1/GPa) = 0.04376114
#
# Stress axis : x y z
#
# Youngs Moduli (GPa) = 98.58977 96.96552 37.18453
#
# Poissons Ratio (x) = 0.17080 0.03718
# Poissons Ratio (y) = 0.17366 -0.03598
# Poissons Ratio (z) = 0.09858 -0.09381
#
# Static dielectric constant tensor:
#      x y z
#    x 1.748360 0.000000 0.000000 
#    y 0.000000 1.615680 0.000000 
#    z 0.000000 0.000000 1.723880 
# 
# From -- ./inp_files/28299.got.cif
#   From: 2010.05.17/outbox.cif.g08.bks.cpg/sg52_15_cif.got.tgz:28299.got - 2010.06.03 12:15:38.
