data_PCOD9413833
_publ_section_title
;
Structure prediction by ZEFSAII (Michael W. Deem and Ramdas Pophale) SiO2 
 PCOD9413833
Probable space group: P N N A
;
_chemical_formula_sum "Si O2"
_cell_formula_units_Z 24
_cell_length_a 19.543718
_cell_length_b 10.974035
_cell_length_c 4.697807
_cell_angle_alpha 90.000000
_cell_angle_beta 90.000000
_cell_angle_gamma 90.000000
_cell_volume 1007.554853
_symmetry_space_group_name_H-M "P N N A"
_symmetry_group_IT_number 52
_symmetry_cell_setting 'orthorhombic'
loop_
_space_group_symop_operation_xyz
x,y,z
1/2-x,-y,z
x,1/2-y,1/2-z
1/2-x,1/2+y,1/2-z
-x,-y,-z
1/2+x,y,-z
-x,1/2+y,1/2+z
1/2+x,1/2-y,1/2+z
loop_
_atom_site_type_symbol
_atom_site_label
_atom_site_fract_x
_atom_site_fract_y
_atom_site_fract_z
Si Si1 0.391661 0.250000 0.750000
Si Si2 0.004224 0.750000 0.250000
Si Si3 0.884860 0.872994 0.926527
Si Si4 0.173490 0.505364 0.921759
O O1 0.444186 0.218564 0.499169
O O2 0.344628 0.369659 0.759084
O O3 0.954818 0.648761 0.395143
O O4 0.872436 0.750000 0.750000
O O5 0.878308 0.974872 0.681283
O O6 0.832433 0.903786 0.176075
O O7 0.250000 0.500000 0.040964
#
# Coordination Sequence:
#
# PCOD9413833 Si02
#       4
#     4   4   8   8
#     4  12  28  45  72 117 142 194 250 308 366 428
#     4  12  24  49  74 113 148 186 254 302 370 448
#     4  12  24  49  76 106 142 202 236 301 381 429
#     4  12  28  48  75 106 153 195 245 308 361 452
#
# _framework density 23.820043999999999
#
# number of rings (size 3 to 8) (size 9 to 14) (size 15 to 20)
#    0.000    0.000    5.000    3.000    4.667    8.000 
#    0.000    0.000    0.000    0.000    0.000    0.000 
#    0.000    0.000    0.000    0.000    0.000    0.000 
#
# Total GULP energy -133947.660200 kJ/mol
# GULP energy per Si atom -5581.152508 kJ/mol
# Density = 2.376583 g / cm^3
# Si number density = 23.820044 Si / 1000 Ang^3
#
#
#
# Elastic Constant Matrix: (Units=GPa)
#
#
# Indices 1 2 3 4 5 6 
#
# 1 114.0638 59.6754 38.2621 0.0000 0.0000 0.0000
# 2 59.6754 111.5492 48.0353 0.0000 0.0000 0.0000
# 3 38.2621 48.0353 155.0088 0.0000 0.0000 0.0000
# 4 0.0000 0.0000 0.0000 38.1750 0.0000 0.0000
# 5 0.0000 0.0000 0.0000 0.0000 -314.4741 0.0000
# 6 0.0000 0.0000 0.0000 0.0000 0.0000 29.2007
#
#
#
# Elastic Compliance Matrix: (Units=1/GPa)
#
#
# Indices 1 2 3 4 5 6 
#
# 1 0.012351 -0.006110 -0.001155 0.000000 0.000000 0.000000
# 2 -0.006110 0.013368 -0.002634 0.000000 0.000000 0.000000
# 3 -0.001155 -0.002634 0.007553 0.000000 0.000000 0.000000
# 4 0.000000 0.000000 0.000000 0.026195 0.000000 0.000000
# 5 0.000000 0.000000 0.000000 0.000000 -0.003180 0.000000
# 6 0.000000 0.000000 0.000000 0.000000 0.000000 0.034246
#
#
# Mechanical properties :
#
#
# Convention : Reuss Voigt Hill
#
# Bulk Modulus (GPa) = 74.22592 74.72970 74.47781
# Shear Modulus (GPa) = 43.54543 -33.77640 4.88451
#
# Velocity S-wave (km/s) = 4.28027 -3.76970 1.43354
# Velocity P-wave (km/s) = 7.46032 3.53458 5.83736
#
# Compressibility (1/GPa) = 0.01347238
#
# Stress axis : x y z
#
# Youngs Moduli (GPa) = 80.96393 74.80721 132.40186
#
# Poissons Ratio (x) = 0.45707 0.15297
# Poissons Ratio (y) = 0.49469 0.34879
# Poissons Ratio (z) = 0.09354 0.19706
#
# Static dielectric constant tensor:
#      x y z
#    x 1.874290 0.000000 0.000000 
#    y 0.000000 1.909440 0.000000 
#    z 0.000000 0.000000 1.873510 
# 
# From -- ./inp_files/2875.got.cif
#   From: 2010.05.17/outbox.cif.g08.bks.cpg/sg52_2_cif.got.tgz:2875.got - 2010.06.03 12:15:38.
