data_PCOD9413093
_publ_section_title
;
Structure prediction by ZEFSAII (Michael W. Deem and Ramdas Pophale) SiO2 
 PCOD9413093
Probable space group: P N N A
;
_chemical_formula_sum "Si O2"
_cell_formula_units_Z 32
_cell_length_a 7.224566
_cell_length_b 13.066701
_cell_length_c 13.055911
_cell_angle_alpha 90.000000
_cell_angle_beta 90.000000
_cell_angle_gamma 90.000000
_cell_volume 1232.494237
_symmetry_space_group_name_H-M "P N N A"
_symmetry_group_IT_number 52
_symmetry_cell_setting 'orthorhombic'
loop_
_space_group_symop_operation_xyz
x,y,z
1/2-x,-y,z
x,1/2-y,1/2-z
1/2-x,1/2+y,1/2-z
-x,-y,-z
1/2+x,y,-z
-x,1/2+y,1/2+z
1/2+x,1/2-y,1/2+z
loop_
_atom_site_type_symbol
_atom_site_label
_atom_site_fract_x
_atom_site_fract_y
_atom_site_fract_z
Si Si1 0.560333 0.797151 0.859747
Si Si2 0.473531 0.018650 0.834750
Si Si3 0.133858 0.768650 0.916765
Si Si4 0.454165 0.456967 0.888232
O O1 0.618903 0.750000 0.750000
O O2 0.339339 0.774685 0.869531
O O3 0.572651 0.919464 0.880524
O O4 0.652270 0.752018 0.961160
O O5 0.483729 0.131121 0.884566
O O6 0.544209 0.010318 0.717933
O O7 0.250000 0.000000 0.840347
O O8 0.041765 0.664625 0.880807
O O9 0.250000 0.500000 0.874571
O O10 0.500000 0.500000 0.000000
#
# Coordination Sequence:
#
# PCOD9413093 Si02
#       4
#     8   8   8   8
#     4  11  22  40  62  88 120 156 196 245 300 358
#     4   9  19  36  59  84 115 156 196 237 293 355
#     4  11  21  38  62  86 117 156 198 245 297 357
#     4  11  21  36  57  84 115 154 198 243 295 350
#
# _framework density 25.963609999999999
#
# number of rings (size 3 to 8) (size 9 to 14) (size 15 to 20)
#    0.000    1.500    0.000    9.000    0.000    0.000 
#    0.000    8.750    0.000    1.500    0.000    0.000 
#    0.000    0.000    0.000    0.000    0.000    0.000 
#
# Total GULP energy -178889.306837 kJ/mol
# GULP energy per Si atom -5590.290839 kJ/mol
# Density = 2.590452 g / cm^3
# Si number density = 25.963610 Si / 1000 Ang^3
#
#
#
# Elastic Constant Matrix: (Units=GPa)
#
#
# Indices 1 2 3 4 5 6 
#
# 1 68.5487 4.0005 -4.2432 0.0000 0.0000 0.0000
# 2 4.0005 89.5225 -30.1930 0.0000 0.0000 0.0000
# 3 -4.2432 -30.1930 106.4770 0.0000 0.0000 0.0000
# 4 0.0000 0.0000 0.0000 48.7743 0.0000 0.0000
# 5 0.0000 0.0000 0.0000 0.0000 29.1065 0.0000
# 6 0.0000 0.0000 0.0000 0.0000 0.0000 19.9544
#
#
#
# Elastic Compliance Matrix: (Units=1/GPa)
#
#
# Indices 1 2 3 4 5 6 
#
# 1 0.014645 -0.000506 0.000440 0.000000 0.000000 0.000000
# 2 -0.000506 0.012369 0.003487 0.000000 0.000000 0.000000
# 3 0.000440 0.003487 0.010398 0.000000 0.000000 0.000000
# 4 0.000000 0.000000 0.000000 0.020503 0.000000 0.000000
# 5 0.000000 0.000000 0.000000 0.000000 0.034357 0.000000
# 6 0.000000 0.000000 0.000000 0.000000 0.000000 0.050114
#
#
# Mechanical properties :
#
#
# Convention : Reuss Voigt Hill
#
# Bulk Modulus (GPa) = 22.59632 22.63075 22.61354
# Shear Modulus (GPa) = 33.26800 39.23263 36.25031
#
# Velocity S-wave (km/s) = 3.58345 3.89146 3.74063
# Velocity P-wave (km/s) = 5.08365 5.37834 5.23307
#
# Compressibility (1/GPa) = 0.04425499
#
# Stress axis : x y z
#
# Youngs Moduli (GPa) = 68.28298 80.84641 96.17138
#
# Poissons Ratio (x) = 0.04091 -0.04233
# Poissons Ratio (y) = 0.03455 -0.33538
# Poissons Ratio (z) = -0.03005 -0.28193
#
# Static dielectric constant tensor:
#      x y z
#    x 2.088550 0.000000 0.000000 
#    y 0.000000 1.992660 0.000000 
#    z 0.000000 0.000000 2.114470 
# 
# From -- ./inp_files/16405.got.cif
#   From: 2010.05.17/outbox.cif.g08.bks.cpg/sg52_9_cif.got.tgz:16405.got - 2010.06.03 12:15:38.
