data_PCOD9413340
_publ_section_title
;
Structure prediction by ZEFSAII (Michael W. Deem and Ramdas Pophale) SiO2 
 PCOD9413340
Probable space group: P N N A
;
_chemical_formula_sum "Si O2"
_cell_formula_units_Z 24
_cell_length_a 27.572410
_cell_length_b 5.033413
_cell_length_c 7.862676
_cell_angle_alpha 90.000000
_cell_angle_beta 90.000000
_cell_angle_gamma 90.000000
_cell_volume 1091.208334
_symmetry_space_group_name_H-M "P N N A"
_symmetry_group_IT_number 52
_symmetry_cell_setting 'orthorhombic'
loop_
_space_group_symop_operation_xyz
x,y,z
1/2-x,-y,z
x,1/2-y,1/2-z
1/2-x,1/2+y,1/2-z
-x,-y,-z
1/2+x,y,-z
-x,1/2+y,1/2+z
1/2+x,1/2-y,1/2+z
loop_
_atom_site_type_symbol
_atom_site_label
_atom_site_fract_x
_atom_site_fract_y
_atom_site_fract_z
Si Si1 0.950681 0.636638 0.434628
Si Si2 0.719528 0.742281 0.956871
Si Si3 0.393375 0.342736 0.053288
O O1 0.961286 0.750000 0.250000
O O2 0.915245 0.387460 0.436979
O O3 0.000000 0.500000 0.500000
O O4 0.923115 0.881111 0.530754
O O5 0.750000 0.500000 0.024778
O O6 0.721421 0.750000 0.750000
O O7 0.663555 0.669822 0.991055
O O8 0.750000 0.000000 0.013218
O O9 0.398683 0.250000 0.250000
#
# Coordination Sequence:
#
# PCOD9413340 Si02
#       3
#     8   8   8
#     4  12  26  45  65  91 128 170 216 268 328 389
#     4   9  17  32  58  93 127 160 204 258 311 370
#     4  11  23  41  68  98 128 166 216 268 319 379
#
# _framework density 21.993969
#
# number of rings (size 3 to 8) (size 9 to 14) (size 15 to 20)
#    0.000    1.333    0.000    6.000    0.000    8.000 
#    0.000    0.000    0.000   20.000    0.000    0.000 
#    0.000    0.000    0.000    0.000    0.000    0.000 
#
# Total GULP energy -133873.127012 kJ/mol
# GULP energy per Si atom -5578.046959 kJ/mol
# Density = 2.194391 g / cm^3
# Si number density = 21.993969 Si / 1000 Ang^3
#
#
#
# Elastic Constant Matrix: (Units=GPa)
#
#
# Indices 1 2 3 4 5 6 
#
# 1 239.6957 133.1354 61.6400 0.0000 0.0000 0.0000
# 2 133.1354 231.0127 43.7293 0.0000 0.0000 0.0000
# 3 61.6400 43.7293 76.3203 0.0000 0.0000 0.0000
# 4 0.0000 0.0000 0.0000 24.8005 0.0000 0.0000
# 5 0.0000 0.0000 0.0000 0.0000 28.7673 0.0000
# 6 0.0000 0.0000 0.0000 0.0000 0.0000 -103.7913
#
#
#
# Elastic Compliance Matrix: (Units=1/GPa)
#
#
# Indices 1 2 3 4 5 6 
#
# 1 0.006971 -0.003311 -0.003733 0.000000 0.000000 0.000000
# 2 -0.003311 0.006428 -0.001009 0.000000 0.000000 0.000000
# 3 -0.003733 -0.001009 0.016696 0.000000 0.000000 0.000000
# 4 0.000000 0.000000 0.000000 0.040322 0.000000 0.000000
# 5 0.000000 0.000000 0.000000 0.000000 0.034762 0.000000
# 6 0.000000 0.000000 0.000000 0.000000 0.000000 -0.009635
#
#
# Mechanical properties :
#
#
# Convention : Reuss Voigt Hill
#
# Bulk Modulus (GPa) = 71.48560 113.78200 92.63380
# Shear Modulus (GPa) = 42.98797 10.52358 26.75577
#
# Velocity S-wave (km/s) = 4.42581 2.18978 3.49163
# Velocity P-wave (km/s) = 7.66094 7.63146 7.64621
#
# Compressibility (1/GPa) = 0.01398883
#
# Stress axis : x y z
#
# Youngs Moduli (GPa) = 143.45469 155.57452 59.89535
#
# Poissons Ratio (x) = 0.51507 0.22359
# Poissons Ratio (y) = 0.47494 0.06044
# Poissons Ratio (z) = 0.53552 0.15698
#
# Static dielectric constant tensor:
#      x y z
#    x 3.695530 0.000000 0.000000 
#    y 0.000000 1.756540 0.000000 
#    z 0.000000 0.000000 1.891220 
# 
# From -- ./inp_files/14595.got.cif
#   From: 2010.05.17/outbox.cif.g08.bks.cpg/sg52_8_cif.got.tgz:14595.got - 2010.06.03 12:15:38.
