data_PCOD9413520
_publ_section_title
;
Structure prediction by ZEFSAII (Michael W. Deem and Ramdas Pophale) SiO2 
 PCOD9413520
Probable space group: P N N A
;
_chemical_formula_sum "Si O2"
_cell_formula_units_Z 56
_cell_length_a 10.554683
_cell_length_b 14.829542
_cell_length_c 15.719067
_cell_angle_alpha 90.000000
_cell_angle_beta 90.000000
_cell_angle_gamma 90.000000
_cell_volume 2460.365891
_symmetry_space_group_name_H-M "P N N A"
_symmetry_group_IT_number 52
_symmetry_cell_setting 'orthorhombic'
loop_
_space_group_symop_operation_xyz
x,y,z
1/2-x,-y,z
x,1/2-y,1/2-z
1/2-x,1/2+y,1/2-z
-x,-y,-z
1/2+x,y,-z
-x,1/2+y,1/2+z
1/2+x,1/2-y,1/2+z
loop_
_atom_site_type_symbol
_atom_site_label
_atom_site_fract_x
_atom_site_fract_y
_atom_site_fract_z
Si Si1 0.397976 0.981999 0.772717
Si Si2 0.614148 0.292869 0.839521
Si Si3 0.110114 0.951906 0.944366
Si Si4 0.568129 0.215219 0.160476
Si Si5 0.653797 0.757414 0.097266
Si Si6 0.955392 0.995425 0.600528
Si Si7 0.146605 0.818419 0.432883
O O1 0.431096 0.891502 0.825400
O O2 0.446884 0.981880 0.677039
O O3 0.250000 0.000000 0.765210
O O4 0.438295 0.052750 0.845501
O O5 0.656378 0.250000 0.750000
O O6 0.474597 0.253572 0.852091
O O7 0.595060 0.398731 0.865766
O O8 0.728738 0.266843 0.901676
O O9 0.139966 0.847221 0.960562
O O10 0.250000 0.000000 0.950501
O O11 0.000000 0.000000 0.000000
O O12 0.517998 0.250000 0.250000
O O13 0.715275 0.239609 0.147313
O O14 0.480875 0.263677 0.091226
O O15 0.658105 0.673409 0.033644
O O16 0.862992 0.081892 0.605717
O O17 0.000000 0.000000 0.500000
#
# Coordination Sequence:
#
# PCOD9413520 Si02
#       7
#     8   8   8   8   8   8   8
#     4  11  24  46  76 108 149 195 264 321 378 462
#     4  12  28  48  74 111 157 199 254 326 398 465
#     4  11  24  46  72 110 150 193 256 323 392 463
#     4  12  24  45  76 104 142 198 252 309 378 454
#     4  12  25  45  74 107 144 197 254 313 384 463
#     4  12  27  50  74 114 155 208 264 321 395 474
#     4  12  27  48  75 109 156 200 249 316 396 473
#
# _framework density 22.760842
#
# number of rings (size 3 to 8) (size 9 to 14) (size 15 to 20)
#    0.000    0.286    5.714    3.857    4.000    1.143 
#    0.000    0.000    0.000    0.000    0.000    0.000 
#    0.000    0.000    0.000    0.000    0.000    0.000 
#
# Total GULP energy -311984.411900 kJ/mol
# GULP energy per Si atom -5571.150213 kJ/mol
# Density = 2.270904 g / cm^3
# Si number density = 22.760842 Si / 1000 Ang^3
#
#
#
# Elastic Constant Matrix: (Units=GPa)
#
#
# Indices 1 2 3 4 5 6 
#
# 1 98.5177 13.3448 24.3525 0.0000 0.0000 0.0000
# 2 13.3448 112.4469 12.6872 0.0000 0.0000 0.0000
# 3 24.3525 12.6872 127.6117 0.0000 0.0000 0.0000
# 4 0.0000 0.0000 0.0000 40.4893 0.0000 0.0000
# 5 0.0000 0.0000 0.0000 0.0000 46.7265 0.0000
# 6 0.0000 0.0000 0.0000 0.0000 0.0000 -79.3231
#
#
#
# Elastic Compliance Matrix: (Units=1/GPa)
#
#
# Indices 1 2 3 4 5 6 
#
# 1 0.010776 -0.001059 -0.001951 0.000000 0.000000 0.000000
# 2 -0.001059 0.009098 -0.000702 0.000000 0.000000 0.000000
# 3 -0.001951 -0.000702 0.008278 0.000000 0.000000 0.000000
# 4 0.000000 0.000000 0.000000 0.024698 0.000000 0.000000
# 5 0.000000 0.000000 0.000000 0.000000 0.021401 0.000000
# 6 0.000000 0.000000 0.000000 0.000000 0.000000 -0.012607
#
#
# Mechanical properties :
#
#
# Convention : Reuss Voigt Hill
#
# Bulk Modulus (GPa) = 48.24431 48.81614 48.53023
# Shear Modulus (GPa) = 65.80758 20.79132 43.29945
#
# Velocity S-wave (km/s) = 5.38288 3.02564 4.36634
# Velocity P-wave (km/s) = 7.73796 5.80517 6.84018
#
# Compressibility (1/GPa) = 0.02072783
#
# Stress axis : x y z
#
# Youngs Moduli (GPa) = 92.79722 109.91437 120.79531
#
# Poissons Ratio (x) = 0.11637 0.23569
# Poissons Ratio (y) = 0.09825 0.08486
# Poissons Ratio (z) = 0.18107 0.07721
#
# Static dielectric constant tensor:
#      x y z
#    x 1.855340 0.000000 0.000000 
#    y 0.000000 2.134280 0.000000 
#    z 0.000000 0.000000 1.869040 
# 
# From -- ./inp_files/26167.got.cif
#   From: 2010.05.17/outbox.cif.g08.bks.cpg/sg52_14_cif.got.tgz:26167.got - 2010.06.03 12:15:38.
