data_PCOD9413144
_publ_section_title
;
Structure prediction by ZEFSAII (Michael W. Deem and Ramdas Pophale) SiO2 
 PCOD9413144
Probable space group: P N N A
;
_chemical_formula_sum "Si O2"
_cell_formula_units_Z 48
_cell_length_a 16.947162
_cell_length_b 12.385886
_cell_length_c 11.897781
_cell_angle_alpha 90.000000
_cell_angle_beta 90.000000
_cell_angle_gamma 90.000000
_cell_volume 2497.411056
_symmetry_space_group_name_H-M "P N N A"
_symmetry_group_IT_number 52
_symmetry_cell_setting 'orthorhombic'
loop_
_space_group_symop_operation_xyz
x,y,z
1/2-x,-y,z
x,1/2-y,1/2-z
1/2-x,1/2+y,1/2-z
-x,-y,-z
1/2+x,y,-z
-x,1/2+y,1/2+z
1/2+x,1/2-y,1/2+z
loop_
_atom_site_type_symbol
_atom_site_label
_atom_site_fract_x
_atom_site_fract_y
_atom_site_fract_z
Si Si1 0.904625 0.375229 0.266461
Si Si2 0.415361 0.873990 0.146750
Si Si3 0.837912 0.044129 0.006783
Si Si4 0.335724 0.646644 0.122875
Si Si5 0.656140 0.769894 0.622285
Si Si6 0.410497 0.463516 0.982255
O O1 0.881128 0.250000 0.250000
O O2 0.855185 0.433330 0.363176
O O3 0.897809 0.434169 0.147360
O O4 0.995249 0.375511 0.310133
O O5 0.390079 0.753389 0.109796
O O6 0.360095 0.900042 0.254910
O O7 0.397277 0.958251 0.048942
O O8 0.750000 0.000000 0.990441
O O9 0.846074 0.157348 0.942848
O O10 0.245733 0.684842 0.124019
O O11 0.354709 0.558469 0.029208
O O12 0.630389 0.750000 0.750000
O O13 0.605125 0.857748 0.556873
O O14 0.500000 0.500000 0.000000
#
# Coordination Sequence:
#
# PCOD9413144 Si02
#       6
#     8   8   8   8   8   8
#     4  12  24  46  67  95 138 189 218 274 350 414
#     4  11  21  44  70  96 134 173 223 281 349 394
#     4  12  25  43  67  99 137 176 230 276 334 413
#     4  11  21  41  72  97 131 173 223 284 346 395
#     4  12  24  41  70 104 131 172 228 289 343 396
#     4  12  25  44  67  98 136 177 228 276 338 414
#
# _framework density 19.219902999999999
#
# number of rings (size 3 to 8) (size 9 to 14) (size 15 to 20)
#    0.000    0.333    8.333    2.000    0.000    1.333 
#    0.000    0.833    0.000    0.000    0.000    0.000 
#    0.000    0.000    0.000    0.000    0.000    0.000 
#
# Total GULP energy -268613.923856 kJ/mol
# GULP energy per Si atom -5596.123414 kJ/mol
# Density = 1.917616 g / cm^3
# Si number density = 19.219903 Si / 1000 Ang^3
#
#
#
# Elastic Constant Matrix: (Units=GPa)
#
#
# Indices 1 2 3 4 5 6 
#
# 1 33.7696 27.9187 12.9560 0.0000 0.0000 0.0000
# 2 27.9187 117.9069 83.1678 0.0000 0.0000 0.0000
# 3 12.9560 83.1678 150.1661 0.0000 0.0000 0.0000
# 4 0.0000 0.0000 0.0000 26.6649 0.0000 0.0000
# 5 0.0000 0.0000 0.0000 0.0000 17.7378 0.0000
# 6 0.0000 0.0000 0.0000 0.0000 0.0000 33.2411
#
#
#
# Elastic Compliance Matrix: (Units=1/GPa)
#
#
# Indices 1 2 3 4 5 6 
#
# 1 0.037505 -0.010829 0.002761 0.000000 0.000000 0.000000
# 2 -0.010829 0.017045 -0.008506 0.000000 0.000000 0.000000
# 3 0.002761 -0.008506 0.011132 0.000000 0.000000 0.000000
# 4 0.000000 0.000000 0.000000 0.037502 0.000000 0.000000
# 5 0.000000 0.000000 0.000000 0.000000 0.056377 0.000000
# 6 0.000000 0.000000 0.000000 0.000000 0.000000 0.030083
#
#
# Mechanical properties :
#
#
# Convention : Reuss Voigt Hill
#
# Bulk Modulus (GPa) = 30.73495 61.10307 45.91901
# Shear Modulus (GPa) = 21.40073 27.38212 24.39143
#
# Velocity S-wave (km/s) = 3.34049 3.77858 3.56627
# Velocity P-wave (km/s) = 5.55917 7.13425 6.39538
#
# Compressibility (1/GPa) = 0.03253625
#
# Stress axis : x y z
#
# Youngs Moduli (GPa) = 26.66282 58.66754 89.83100
#
# Poissons Ratio (x) = 0.63528 -0.24806
# Poissons Ratio (y) = 0.28872 0.76411
# Poissons Ratio (z) = -0.07363 0.49903
#
# Static dielectric constant tensor:
#      x y z
#    x 1.664660 0.000000 0.000000 
#    y 0.000000 1.661340 0.000000 
#    z 0.000000 0.000000 1.655760 
# 
# From -- ./inp_files/20620.got.cif
#   From: 2010.05.17/outbox.cif.g08.bks.cpg/sg52_11_cif.got.tgz:20620.got - 2010.06.03 12:15:38.
