data_PCOD9413183
_publ_section_title
;
Structure prediction by ZEFSAII (Michael W. Deem and Ramdas Pophale) SiO2 
 PCOD9413183
Probable space group: P N N A
;
_chemical_formula_sum "Si O2"
_cell_formula_units_Z 48
_cell_length_a 12.844168
_cell_length_b 28.129024
_cell_length_c 5.061599
_cell_angle_alpha 90.000000
_cell_angle_beta 90.000000
_cell_angle_gamma 90.000000
_cell_volume 1828.724893
_symmetry_space_group_name_H-M "P N N A"
_symmetry_group_IT_number 52
_symmetry_cell_setting 'orthorhombic'
loop_
_space_group_symop_operation_xyz
x,y,z
1/2-x,-y,z
x,1/2-y,1/2-z
1/2-x,1/2+y,1/2-z
-x,-y,-z
1/2+x,y,-z
-x,1/2+y,1/2+z
1/2+x,1/2-y,1/2+z
loop_
_atom_site_type_symbol
_atom_site_label
_atom_site_fract_x
_atom_site_fract_y
_atom_site_fract_z
Si Si1 0.551304 0.548411 0.903693
Si Si2 0.748798 0.801231 0.354338
Si Si3 0.251860 0.361946 0.362612
Si Si4 0.691857 0.952886 0.096135
Si Si5 0.496038 0.697939 0.164306
Si Si6 0.004763 0.140667 0.829080
O O1 0.629527 0.565974 0.142315
O O2 0.500000 0.500000 0.000000
O O3 0.609744 0.535219 0.632731
O O4 0.472208 0.590668 0.816114
O O5 0.783685 0.750000 0.250000
O O6 0.777939 0.825073 0.632420
O O7 0.622251 0.798800 0.345721
O O8 0.778883 0.838667 0.135356
O O9 0.231509 0.417210 0.431523
O O10 0.378016 0.362552 0.338722
O O11 0.750000 0.000000 0.185756
O O12 0.457841 0.750000 0.250000
O O13 0.469005 0.656229 0.373692
O O14 0.468447 0.683244 0.868808
#
# Coordination Sequence:
#
# PCOD9413183 Si02
#       6
#     8   8   8   8   8   8
#     4  11  22  37  56  79 110 147 189 233 279 330
#     4   9  15  23  38  62  94 130 165 200 253 324
#     4   9  16  27  42  64  96 132 167 208 262 315
#     4  11  22  37  56  79 110 147 189 233 279 330
#     4   9  15  23  38  62  94 130 165 200 253 324
#     4   9  16  27  42  64  96 132 167 208 262 315
#
# _framework density 26.247796000000001
#
# number of rings (size 3 to 8) (size 9 to 14) (size 15 to 20)
#    0.000    2.333    0.000    7.000    0.000    4.000 
#    0.000    0.000    0.000    0.000    0.000    0.000 
#    0.000   26.667    0.000    0.000    0.000   43.333 
#
# Total GULP energy -268280.704965 kJ/mol
# GULP energy per Si atom -5589.181353 kJ/mol
# Density = 2.618805 g / cm^3
# Si number density = 26.247796 Si / 1000 Ang^3
#
#
#
# Elastic Constant Matrix: (Units=GPa)
#
#
# Indices 1 2 3 4 5 6 
#
# 1 54.7673 13.6913 20.3679 0.0000 0.0000 0.0000
# 2 13.6913 174.6319 50.5193 0.0000 0.0000 0.0000
# 3 20.3679 50.5193 174.7136 0.0000 0.0000 0.0000
# 4 0.0000 0.0000 0.0000 35.4667 0.0000 0.0000
# 5 0.0000 0.0000 0.0000 0.0000 42.0029 0.0000
# 6 0.0000 0.0000 0.0000 0.0000 0.0000 28.1286
#
#
#
# Elastic Compliance Matrix: (Units=1/GPa)
#
#
# Indices 1 2 3 4 5 6 
#
# 1 0.019226 -0.000937 -0.001970 0.000000 0.000000 0.000000
# 2 -0.000937 0.006295 -0.001711 0.000000 0.000000 0.000000
# 3 -0.001970 -0.001711 0.006448 0.000000 0.000000 0.000000
# 4 0.000000 0.000000 0.000000 0.028195 0.000000 0.000000
# 5 0.000000 0.000000 0.000000 0.000000 0.023808 0.000000
# 6 0.000000 0.000000 0.000000 0.000000 0.000000 0.035551
#
#
# Mechanical properties :
#
#
# Convention : Reuss Voigt Hill
#
# Bulk Modulus (GPa) = 43.99113 63.69667 53.84390
# Shear Modulus (GPa) = 36.67360 42.42191 39.54775
#
# Velocity S-wave (km/s) = 3.74198 4.02457 3.88584
# Velocity P-wave (km/s) = 5.95535 6.77616 6.37897
#
# Compressibility (1/GPa) = 0.02273186
#
# Stress axis : x y z
#
# Youngs Moduli (GPa) = 52.01244 158.86226 155.08535
#
# Poissons Ratio (x) = 0.14891 0.30557
# Poissons Ratio (y) = 0.04875 0.26533
# Poissons Ratio (z) = 0.10248 0.27180
#
# Static dielectric constant tensor:
#      x y z
#    x 2.278750 0.000000 0.000000 
#    y 0.000000 2.127660 0.000000 
#    z 0.000000 0.000000 1.957010 
# 
# From -- ./inp_files/4486.got.cif
#   From: 2010.05.17/outbox.cif.g08.bks.cpg/sg52_3_cif.got.tgz:4486.got - 2010.06.03 12:15:38.
