data_PCOD9413844
_publ_section_title
;
Structure prediction by ZEFSAII (Michael W. Deem and Ramdas Pophale) SiO2 
 PCOD9413844
Probable space group: P N N A
;
_chemical_formula_sum "Si O2"
_cell_formula_units_Z 24
_cell_length_a 14.990087
_cell_length_b 13.119381
_cell_length_c 4.502692
_cell_angle_alpha 90.000000
_cell_angle_beta 90.000000
_cell_angle_gamma 90.000000
_cell_volume 885.502392
_symmetry_space_group_name_H-M "P N N A"
_symmetry_group_IT_number 52
_symmetry_cell_setting 'orthorhombic'
loop_
_space_group_symop_operation_xyz
x,y,z
1/2-x,-y,z
x,1/2-y,1/2-z
1/2-x,1/2+y,1/2-z
-x,-y,-z
1/2+x,y,-z
-x,1/2+y,1/2+z
1/2+x,1/2-y,1/2+z
loop_
_atom_site_type_symbol
_atom_site_label
_atom_site_fract_x
_atom_site_fract_y
_atom_site_fract_z
Si Si1 0.059572 0.919378 0.832468
Si Si2 0.072870 0.250000 0.250000
Si Si3 0.705634 0.250000 0.250000
Si Si4 0.186285 0.912051 0.348072
O O1 0.125421 0.870235 0.080929
O O2 0.121719 0.967199 0.582607
O O3 0.995333 0.839463 0.669370
O O4 0.000000 0.000000 0.000000
O O5 0.136842 0.294001 0.506001
O O6 0.762409 0.171161 0.450165
O O7 0.250000 0.000000 0.223476
#
# Coordination Sequence:
#
# PCOD9413844 Si02
#       4
#     8   4   4   8
#     4  12  25  45  71 104 142 188 241 300 365 439
#     4  12  25  44  69 102 142 188 234 294 363 436
#     4  12  25  44  69 102 142 188 238 296 363 432
#     4  12  25  45  71 104 143 190 242 302 364 435
#
# _framework density 27.103255000000001
#
# number of rings (size 3 to 8) (size 9 to 14) (size 15 to 20)
#    0.000    0.000    0.000   11.000    0.000    2.667 
#    0.000    0.000    0.000    0.000    0.000    0.000 
#    0.000    0.000    0.000    0.000    0.000    0.000 
#
# Total GULP energy -134542.587523 kJ/mol
# GULP energy per Si atom -5605.941147 kJ/mol
# Density = 2.704157 g / cm^3
# Si number density = 27.103255 Si / 1000 Ang^3
#
#
#
# Elastic Constant Matrix: (Units=GPa)
#
#
# Indices 1 2 3 4 5 6 
#
# 1 129.6056 50.1794 52.1921 0.0000 0.0000 0.0000
# 2 50.1794 86.3144 2.2919 0.0000 0.0000 0.0000
# 3 52.1921 2.2919 125.0374 0.0000 0.0000 0.0000
# 4 0.0000 0.0000 0.0000 42.7712 0.0000 0.0000
# 5 0.0000 0.0000 0.0000 0.0000 11.4271 0.0000
# 6 0.0000 0.0000 0.0000 0.0000 0.0000 42.5798
#
#
#
# Elastic Compliance Matrix: (Units=1/GPa)
#
#
# Indices 1 2 3 4 5 6 
#
# 1 0.012541 -0.007155 -0.005104 0.000000 0.000000 0.000000
# 2 -0.007155 0.015674 0.002699 0.000000 0.000000 0.000000
# 3 -0.005104 0.002699 0.010079 0.000000 0.000000 0.000000
# 4 0.000000 0.000000 0.000000 0.023380 0.000000 0.000000
# 5 0.000000 0.000000 0.000000 0.000000 0.087511 0.000000
# 6 0.000000 0.000000 0.000000 0.000000 0.000000 0.023485
#
#
# Mechanical properties :
#
#
# Convention : Reuss Voigt Hill
#
# Bulk Modulus (GPa) = 52.15365 61.14269 56.64817
# Shear Modulus (GPa) = 25.22945 35.10857 30.16901
#
# Velocity S-wave (km/s) = 3.05432 3.60302 3.33996
# Velocity P-wave (km/s) = 5.63230 6.31800 5.98498
#
# Compressibility (1/GPa) = 0.01917411
#
# Stress axis : x y z
#
# Youngs Moduli (GPa) = 79.73595 63.80090 99.22108
#
# Poissons Ratio (x) = 0.45653 0.50640
# Poissons Ratio (y) = 0.57055 -0.26785
# Poissons Ratio (z) = 0.40695 -0.17223
#
# Static dielectric constant tensor:
#      x y z
#    x 2.130790 0.000000 0.000000 
#    y 0.000000 2.071630 0.000000 
#    z 0.000000 0.000000 2.078200 
# 
# From -- ./inp_files/1793.got.cif
#   From: 2010.05.17/outbox.cif.g08.bks.cpg/sg52_1_cif.got.tgz:1793.got - 2010.06.03 12:15:38.
