data_PCOD9413747
_publ_section_title
;
Structure prediction by ZEFSAII (Michael W. Deem and Ramdas Pophale) SiO2 
 PCOD9413747
Probable space group: P N N A
;
_chemical_formula_sum "Si O2"
_cell_formula_units_Z 32
_cell_length_a 10.524002
_cell_length_b 11.176413
_cell_length_c 11.570454
_cell_angle_alpha 90.000000
_cell_angle_beta 90.000000
_cell_angle_gamma 90.000000
_cell_volume 1360.923658
_symmetry_space_group_name_H-M "P N N A"
_symmetry_group_IT_number 52
_symmetry_cell_setting 'orthorhombic'
loop_
_space_group_symop_operation_xyz
x,y,z
1/2-x,-y,z
x,1/2-y,1/2-z
1/2-x,1/2+y,1/2-z
-x,-y,-z
1/2+x,y,-z
-x,1/2+y,1/2+z
1/2+x,1/2-y,1/2+z
loop_
_atom_site_type_symbol
_atom_site_label
_atom_site_fract_x
_atom_site_fract_y
_atom_site_fract_z
Si Si1 0.856074 0.250000 0.250000
Si Si2 0.968916 0.511000 0.221623
Si Si3 0.250000 0.500000 0.155966
Si Si4 0.326392 0.826375 0.540785
Si Si5 0.620981 0.072779 0.039740
O O1 0.934718 0.373026 0.246044
O O2 0.772470 0.227963 0.365997
O O3 0.913233 0.573422 0.105250
O O4 0.896336 0.580817 0.322077
O O5 0.120515 0.519594 0.225196
O O6 0.265007 0.610834 0.068759
O O7 0.392942 0.707196 0.494257
O O8 0.750000 0.000000 0.012947
O O9 0.500000 0.000000 0.000000
#
# Coordination Sequence:
#
# PCOD9413747 Si02
#       5
#     4   8   4   8   8
#     4  12  22  46  74  98 146 192 248 302 386 454
#     4  12  26  49  73 109 152 197 254 320 387 465
#     4  12  30  44  80 114 148 198 262 326 382 460
#     4  12  24  49  75 107 147 198 260 313 388 464
#     4  12  28  48  75 108 151 204 256 318 394 465
#
# _framework density 23.513442000000001
#
# number of rings (size 3 to 8) (size 9 to 14) (size 15 to 20)
#    0.000    0.000    7.500    0.750    8.750    0.000 
#    4.500    0.000    0.000    0.000    0.000    0.000 
#    0.000    0.000    0.000    0.000    0.000    0.000 
#
# Total GULP energy -179012.586928 kJ/mol
# GULP energy per Si atom -5594.143341 kJ/mol
# Density = 2.345992 g / cm^3
# Si number density = 23.513442 Si / 1000 Ang^3
#
#
#
# Elastic Constant Matrix: (Units=GPa)
#
#
# Indices 1 2 3 4 5 6 
#
# 1 147.6620 57.3744 14.6822 0.0000 0.0000 0.0000
# 2 57.3744 195.8371 22.1116 0.0000 0.0000 0.0000
# 3 14.6822 22.1116 27.4190 0.0000 0.0000 0.0000
# 4 0.0000 0.0000 0.0000 17.9754 0.0000 0.0000
# 5 0.0000 0.0000 0.0000 0.0000 15.7102 0.0000
# 6 0.0000 0.0000 0.0000 0.0000 0.0000 37.9010
#
#
#
# Elastic Compliance Matrix: (Units=1/GPa)
#
#
# Indices 1 2 3 4 5 6 
#
# 1 0.007803 -0.001996 -0.002569 0.000000 0.000000 0.000000
# 2 -0.001996 0.006128 -0.003873 0.000000 0.000000 0.000000
# 3 -0.002569 -0.003873 0.040970 0.000000 0.000000 0.000000
# 4 0.000000 0.000000 0.000000 0.055632 0.000000 0.000000
# 5 0.000000 0.000000 0.000000 0.000000 0.063653 0.000000
# 6 0.000000 0.000000 0.000000 0.000000 0.000000 0.026385
#
#
# Mechanical properties :
#
#
# Convention : Reuss Voigt Hill
#
# Bulk Modulus (GPa) = 26.29813 62.13941 44.21877
# Shear Modulus (GPa) = 21.72759 32.76730 27.24745
#
# Velocity S-wave (km/s) = 3.04312 3.73709 3.40781
# Velocity P-wave (km/s) = 4.85345 6.71607 5.85925
#
# Compressibility (1/GPa) = 0.03802552
#
# Stress axis : x y z
#
# Youngs Moduli (GPa) = 128.15229 163.17460 24.40802
#
# Poissons Ratio (x) = 0.32571 0.06270
# Poissons Ratio (y) = 0.25580 0.09454
# Poissons Ratio (z) = 0.32919 0.63202
#
# Static dielectric constant tensor:
#      x y z
#    x 1.952050 0.000000 0.000000 
#    y 0.000000 1.937620 0.000000 
#    z 0.000000 0.000000 2.047000 
# 
# From -- ./inp_files/24133.got.cif
#   From: 2010.05.17/outbox.cif.g08.bks.cpg/sg52_13_cif.got.tgz:24133.got - 2010.06.03 12:15:38.
