data_PCOD9413630
_publ_section_title
;
Structure prediction by ZEFSAII (Michael W. Deem and Ramdas Pophale) SiO2 
 PCOD9413630
Probable space group: P N N A
;
_chemical_formula_sum "Si O2"
_cell_formula_units_Z 24
_cell_length_a 10.428358
_cell_length_b 13.178988
_cell_length_c 6.965170
_cell_angle_alpha 90.000000
_cell_angle_beta 90.000000
_cell_angle_gamma 90.000000
_cell_volume 957.259566
_symmetry_space_group_name_H-M "P N N A"
_symmetry_group_IT_number 52
_symmetry_cell_setting 'orthorhombic'
loop_
_space_group_symop_operation_xyz
x,y,z
1/2-x,-y,z
x,1/2-y,1/2-z
1/2-x,1/2+y,1/2-z
-x,-y,-z
1/2+x,y,-z
-x,1/2+y,1/2+z
1/2+x,1/2-y,1/2+z
loop_
_atom_site_type_symbol
_atom_site_label
_atom_site_fract_x
_atom_site_fract_y
_atom_site_fract_z
Si Si1 0.619508 0.890620 0.971673
Si Si2 0.466984 0.937873 0.313692
Si Si3 0.139677 0.239752 0.970567
O O1 0.598969 0.919476 0.195202
O O2 0.744065 0.823905 0.939709
O O3 0.491035 0.824217 0.947045
O O4 0.609062 0.987723 0.832718
O O5 0.500000 0.000000 0.500000
O O6 0.399252 0.837483 0.401749
O O7 0.182518 0.250000 0.750000
#
# Coordination Sequence:
#
# PCOD9413630 Si02
#       3
#     8   8   8
#     4  11  28  54  79 125 166 215 286 348 419 512
#     4  11  25  54  85 122 163 226 278 347 426 504
#     4  12  25  53  85 118 171 218 279 352 424 503
#
# _framework density 25.071570000000001
#
# number of rings (size 3 to 8) (size 9 to 14) (size 15 to 20)
#    0.000    0.667    3.333    3.000    0.000    8.000 
#   30.000    0.000    0.000    0.000    0.000    0.000 
#    0.000    0.000    0.000    0.000    0.000    0.000 
#
# Total GULP energy -134280.864955 kJ/mol
# GULP energy per Si atom -5595.036040 kJ/mol
# Density = 2.501451 g / cm^3
# Si number density = 25.071570 Si / 1000 Ang^3
#
#
#
# Elastic Constant Matrix: (Units=GPa)
#
#
# Indices 1 2 3 4 5 6 
#
# 1 172.3516 128.4220 43.5755 0.0000 0.0000 0.0000
# 2 128.4220 239.8473 105.0101 0.0000 0.0000 0.0000
# 3 43.5755 105.0101 195.0790 0.0000 0.0000 0.0000
# 4 0.0000 0.0000 0.0000 73.0541 0.0000 0.0000
# 5 0.0000 0.0000 0.0000 0.0000 4.3308 0.0000
# 6 0.0000 0.0000 0.0000 0.0000 0.0000 17.6240
#
#
#
# Elastic Compliance Matrix: (Units=1/GPa)
#
#
# Indices 1 2 3 4 5 6 
#
# 1 0.009754 -0.005585 0.000828 0.000000 0.000000 0.000000
# 2 -0.005585 0.008653 -0.003410 0.000000 0.000000 0.000000
# 3 0.000828 -0.003410 0.006777 0.000000 0.000000 0.000000
# 4 0.000000 0.000000 0.000000 0.013688 0.000000 0.000000
# 5 0.000000 0.000000 0.000000 0.000000 0.230906 0.000000
# 6 0.000000 0.000000 0.000000 0.000000 0.000000 0.056741
#
#
# Mechanical properties :
#
#
# Convention : Reuss Voigt Hill
#
# Bulk Modulus (GPa) = 113.01121 129.03256 121.02188
# Shear Modulus (GPa) = 14.45902 41.01978 27.73940
#
# Velocity S-wave (km/s) = 2.40408 4.04927 3.32988
# Velocity P-wave (km/s) = 7.27183 8.56969 7.94729
#
# Compressibility (1/GPa) = 0.00884868
#
# Stress axis : x y z
#
# Youngs Moduli (GPa) = 102.51700 115.56845 147.55859
#
# Poissons Ratio (x) = 0.64547 -0.12212
# Poissons Ratio (y) = 0.57258 0.50321
# Poissons Ratio (z) = -0.08484 0.39411
#
# Static dielectric constant tensor:
#      x y z
#    x 1.967440 0.000000 0.000000 
#    y 0.000000 2.031560 0.000000 
#    z 0.000000 0.000000 2.343950 
# 
# From -- ./inp_files/759.got.cif
#   From: 2010.05.17/outbox.cif.g08.bks.cpg/sg52_1_cif.got.tgz:759.got - 2010.06.03 12:15:38.
