data_PCOD9413953
_publ_section_title
;
Structure prediction by ZEFSAII (Michael W. Deem and Ramdas Pophale) SiO2 
 PCOD9413953
Probable space group: P N N A
;
_chemical_formula_sum "Si O2"
_cell_formula_units_Z 36
_cell_length_a 8.422679
_cell_length_b 17.302023
_cell_length_c 9.658031
_cell_angle_alpha 90.000000
_cell_angle_beta 90.000000
_cell_angle_gamma 90.000000
_cell_volume 1407.458925
_symmetry_space_group_name_H-M "P N N A"
_symmetry_group_IT_number 52
_symmetry_cell_setting 'orthorhombic'
loop_
_space_group_symop_operation_xyz
x,y,z
1/2-x,-y,z
x,1/2-y,1/2-z
1/2-x,1/2+y,1/2-z
-x,-y,-z
1/2+x,y,-z
-x,1/2+y,1/2+z
1/2+x,1/2-y,1/2+z
loop_
_atom_site_type_symbol
_atom_site_label
_atom_site_fract_x
_atom_site_fract_y
_atom_site_fract_z
Si Si1 0.029623 0.939061 0.326538
Si Si2 0.462778 0.730161 0.081835
Si Si3 0.181855 0.663740 0.390570
Si Si4 0.750000 0.000000 0.880399
Si Si5 0.280904 0.117285 0.581519
O O1 0.095126 0.862295 0.249189
O O2 0.101540 0.005595 0.227909
O O3 0.115288 0.934851 0.475665
O O4 0.842310 0.930694 0.328342
O O5 0.569261 0.780871 0.976379
O O6 0.343001 0.671074 0.004599
O O7 0.345805 0.794616 0.142149
O O8 0.594679 0.675311 0.153785
O O9 0.222456 0.579944 0.458824
#
# Coordination Sequence:
#
# PCOD9413953 Si02
#       5
#     8   8   8   4   8
#     4   9  19  37  54  83 112 148 183 231 281 332
#     4   9  18  33  57  83 107 143 183 231 288 326
#     4   9  19  37  54  83 112 148 183 231 281 332
#     4   8  20  36  58  78 110 164 178 218 296 316
#     4   9  18  33  57  83 107 143 183 231 288 326
#
# _framework density 25.578009000000002
#
# number of rings (size 3 to 8) (size 9 to 14) (size 15 to 20)
#    1.333    1.778    0.000    0.000    0.000    9.778 
#    0.000   15.556    0.000   10.667    0.000    0.000 
#    0.000    0.000    0.000    0.000    0.000    0.000 
#
# Total GULP energy -200890.560584 kJ/mol
# GULP energy per Si atom -5580.293350 kJ/mol
# Density = 2.551979 g / cm^3
# Si number density = 25.578009 Si / 1000 Ang^3
#
#
#
# Elastic Constant Matrix: (Units=GPa)
#
#
# Indices 1 2 3 4 5 6 
#
# 1 205.6292 70.4080 29.9159 0.0000 0.0000 0.0000
# 2 70.4080 118.9056 13.5477 0.0000 0.0000 0.0000
# 3 29.9159 13.5477 28.9028 0.0000 0.0000 0.0000
# 4 0.0000 0.0000 0.0000 18.7916 0.0000 0.0000
# 5 0.0000 0.0000 0.0000 0.0000 30.8262 0.0000
# 6 0.0000 0.0000 0.0000 0.0000 0.0000 62.5895
#
#
#
# Elastic Compliance Matrix: (Units=1/GPa)
#
#
# Indices 1 2 3 4 5 6 
#
# 1 0.006830 -0.003421 -0.005465 0.000000 0.000000 0.000000
# 2 -0.003421 0.010599 -0.001427 0.000000 0.000000 0.000000
# 3 -0.005465 -0.001427 0.040924 0.000000 0.000000 0.000000
# 4 0.000000 0.000000 0.000000 0.053215 0.000000 0.000000
# 5 0.000000 0.000000 0.000000 0.000000 0.032440 0.000000
# 6 0.000000 0.000000 0.000000 0.000000 0.000000 0.015977
#
#
# Mechanical properties :
#
#
# Convention : Reuss Voigt Hill
#
# Bulk Modulus (GPa) = 26.50696 64.57564 45.54130
# Shear Modulus (GPa) = 25.88163 38.41250 32.14707
#
# Velocity S-wave (km/s) = 3.18444 3.87948 3.54902
# Velocity P-wave (km/s) = 4.88944 6.73562 5.88537
#
# Compressibility (1/GPa) = 0.03772594
#
# Stress axis : x y z
#
# Youngs Moduli (GPa) = 146.41790 94.35293 24.43530
#
# Poissons Ratio (x) = 0.32282 0.13355
# Poissons Ratio (y) = 0.50096 0.03486
# Poissons Ratio (z) = 0.80024 0.13460
#
# Static dielectric constant tensor:
#      x y z
#    x 1.960170 0.000000 0.000000 
#    y 0.000000 2.105770 0.000000 
#    z 0.000000 0.000000 2.153940 
# 
# From -- ./inp_files/16784.got.cif
#   From: 2010.05.17/outbox.cif.g08.bks.cpg/sg52_9_cif.got.tgz:16784.got - 2010.06.03 12:15:38.
