data_PCOD9413139
_publ_section_title
;
Structure prediction by ZEFSAII (Michael W. Deem and Ramdas Pophale) SiO2 
 PCOD9413139
Probable space group: P N N A
;
_chemical_formula_sum "Si O2"
_cell_formula_units_Z 56
_cell_length_a 15.093269
_cell_length_b 9.606210
_cell_length_c 19.375435
_cell_angle_alpha 90.000000
_cell_angle_beta 90.000000
_cell_angle_gamma 90.000000
_cell_volume 2809.227108
_symmetry_space_group_name_H-M "P N N A"
_symmetry_group_IT_number 52
_symmetry_cell_setting 'orthorhombic'
loop_
_space_group_symop_operation_xyz
x,y,z
1/2-x,-y,z
x,1/2-y,1/2-z
1/2-x,1/2+y,1/2-z
-x,-y,-z
1/2+x,y,-z
-x,1/2+y,1/2+z
1/2+x,1/2-y,1/2+z
loop_
_atom_site_type_symbol
_atom_site_label
_atom_site_fract_x
_atom_site_fract_y
_atom_site_fract_z
Si Si1 0.053744 0.948049 0.136894
Si Si2 0.405423 0.741521 0.832900
Si Si3 0.605380 0.745512 0.520398
Si Si4 0.055982 0.970884 0.383136
Si Si5 0.170503 0.591433 0.239613
Si Si6 0.718935 0.163365 0.456375
Si Si7 0.935164 0.734454 0.562480
O O1 0.112429 0.843118 0.090261
O O2 0.084420 0.935332 0.215075
O O3 0.954526 0.882477 0.138825
O O4 0.077809 0.100408 0.109949
O O5 0.389456 0.750000 0.750000
O O6 0.477260 0.619695 0.849774
O O7 0.322563 0.703485 0.882002
O O8 0.577427 0.900674 0.543524
O O9 0.692701 0.751070 0.475342
O O10 0.519131 0.688201 0.482860
O O11 0.143514 0.949315 0.337334
O O12 0.036551 0.131985 0.392596
O O13 0.250000 0.500000 0.265873
O O14 0.195162 0.750000 0.250000
O O15 0.645072 0.211207 0.513560
O O16 0.750000 0.000000 0.458896
#
# Coordination Sequence:
#
# PCOD9413139 Si02
#       7
#     8   8   8   8   8   8   8
#     4  11  24  44  66  97 136 183 215 281 358 402
#     4  11  22  49  73  91 132 188 233 278 348 415
#     4  11  23  43  66  98 134 170 227 278 336 400
#     4  11  21  41  69  92 132 178 217 281 334 408
#     4  12  26  42  63  97 135 177 223 275 349 418
#     4  12  25  41  73 102 131 183 231 280 340 412
#     4  12  25  40  68 102 136 170 227 280 340 409
#
# _framework density 19.934308999999999
#
# number of rings (size 3 to 8) (size 9 to 14) (size 15 to 20)
#    0.000    0.571    8.571    1.714    6.000    0.000 
#    0.000    1.429    0.000    0.000    0.000    0.000 
#    0.000    0.000    0.000    0.000    0.000    0.000 
#
# Total GULP energy -312396.615573 kJ/mol
# GULP energy per Si atom -5578.510992 kJ/mol
# Density = 1.988894 g / cm^3
# Si number density = 19.934309 Si / 1000 Ang^3
#
#
#
# Elastic Constant Matrix: (Units=GPa)
#
#
# Indices 1 2 3 4 5 6 
#
# 1 80.2051 5.5077 27.5570 0.0000 0.0000 0.0000
# 2 5.5077 80.4392 51.4493 0.0000 0.0000 0.0000
# 3 27.5570 51.4493 59.2249 0.0000 0.0000 0.0000
# 4 0.0000 0.0000 0.0000 40.2537 0.0000 0.0000
# 5 0.0000 0.0000 0.0000 0.0000 53.7636 0.0000
# 6 0.0000 0.0000 0.0000 0.0000 0.0000 22.5682
#
#
#
# Elastic Compliance Matrix: (Units=1/GPa)
#
#
# Indices 1 2 3 4 5 6 
#
# 1 0.017277 0.008909 -0.015778 0.000000 0.000000 0.000000
# 2 0.008909 0.032570 -0.032439 0.000000 0.000000 0.000000
# 3 -0.015778 -0.032439 0.052407 0.000000 0.000000 0.000000
# 4 0.000000 0.000000 0.000000 0.024842 0.000000 0.000000
# 5 0.000000 0.000000 0.000000 0.000000 0.018600 0.000000
# 6 0.000000 0.000000 0.000000 0.000000 0.000000 0.044310
#
#
# Mechanical properties :
#
#
# Convention : Reuss Voigt Hill
#
# Bulk Modulus (GPa) = 42.30688 43.21081 42.75885
# Shear Modulus (GPa) = 18.08299 32.34077 25.21188
#
# Velocity S-wave (km/s) = 3.01513 4.03223 3.56019
# Velocity P-wave (km/s) = 5.77845 6.58803 6.19648
#
# Compressibility (1/GPa) = 0.02363682
#
# Stress axis : x y z
#
# Youngs Moduli (GPa) = 57.87898 30.70306 19.08154
#
# Poissons Ratio (x) = -0.27353 0.30108
# Poissons Ratio (y) = -0.51564 0.61899
# Poissons Ratio (z) = 0.91324 0.99598
#
# Static dielectric constant tensor:
#      x y z
#    x 1.746540 0.000000 0.000000 
#    y 0.000000 1.712540 0.000000 
#    z 0.000000 0.000000 1.709290 
# 
# From -- ./inp_files/37332.got.cif
#   From: 2010.05.17/outbox.cif.g08.bks.cpg/sg52_19_cif.got.tgz:37332.got - 2010.06.03 12:15:38.
