data_PCOD9413559
_publ_section_title
;
Structure prediction by ZEFSAII (Michael W. Deem and Ramdas Pophale) SiO2 
 PCOD9413559
Probable space group: P N N A
;
_chemical_formula_sum "Si O2"
_cell_formula_units_Z 36
_cell_length_a 24.823770
_cell_length_b 12.760490
_cell_length_c 4.908080
_cell_angle_alpha 90.000000
_cell_angle_beta 90.000000
_cell_angle_gamma 90.000000
_cell_volume 1554.700446
_symmetry_space_group_name_H-M "P N N A"
_symmetry_group_IT_number 52
_symmetry_cell_setting 'orthorhombic'
loop_
_space_group_symop_operation_xyz
x,y,z
1/2-x,-y,z
x,1/2-y,1/2-z
1/2-x,1/2+y,1/2-z
-x,-y,-z
1/2+x,y,-z
-x,1/2+y,1/2+z
1/2+x,1/2-y,1/2+z
loop_
_atom_site_type_symbol
_atom_site_label
_atom_site_fract_x
_atom_site_fract_y
_atom_site_fract_z
Si Si1 0.791337 0.750000 0.250000
Si Si2 0.556165 0.750000 0.250000
Si Si3 0.889040 0.850230 0.546785
Si Si4 0.481609 0.750000 0.750000
Si Si5 0.861952 0.079386 0.482580
Si Si6 0.712855 0.903870 0.961446
O O1 0.832240 0.826953 0.402714
O O2 0.753246 0.813382 0.050293
O O3 0.518320 0.714709 0.499141
O O4 0.592671 0.842957 0.369765
O O5 0.895112 0.750000 0.750000
O O6 0.940386 0.839340 0.349760
O O7 0.884848 0.972249 0.617904
O O8 0.822105 0.062034 0.225282
O O9 0.826826 0.128864 0.722327
O O10 0.750000 0.000000 0.865509
#
# Coordination Sequence:
#
# PCOD9413559 Si02
#       6
#     4   4   8   4   8   8
#     4  11  25  42  74 102 156 192 249 305 356 452
#     4  12  27  52  71 110 153 194 251 328 390 452
#     4  11  25  49  76 113 144 199 261 321 369 456
#     4  11  26  50  79 108 141 200 262 317 402 440
#     4  12  28  47  75 110 155 195 253 310 379 462
#     4  12  25  46  71 111 146 202 244 298 378 450
#
# _framework density 23.155587000000001
#
# number of rings (size 3 to 8) (size 9 to 14) (size 15 to 20)
#    0.000    0.444    3.333    4.000    6.222    3.556 
#    0.000    0.000    0.000    0.000    0.000    0.000 
#    0.000    0.000    0.000    0.000    0.000    0.000 
#
# Total GULP energy -201515.962424 kJ/mol
# GULP energy per Si atom -5597.665623 kJ/mol
# Density = 2.310288 g / cm^3
# Si number density = 23.155587 Si / 1000 Ang^3
#
#
#
# Elastic Constant Matrix: (Units=GPa)
#
#
# Indices 1 2 3 4 5 6 
#
# 1 159.2990 77.5405 74.4696 0.0000 0.0000 0.0000
# 2 77.5405 150.0957 45.2002 0.0000 0.0000 0.0000
# 3 74.4696 45.2002 138.7384 0.0000 0.0000 0.0000
# 4 0.0000 0.0000 0.0000 27.9029 0.0000 0.0000
# 5 0.0000 0.0000 0.0000 0.0000 24.9935 0.0000
# 6 0.0000 0.0000 0.0000 0.0000 0.0000 -25.6674
#
#
#
# Elastic Compliance Matrix: (Units=1/GPa)
#
#
# Indices 1 2 3 4 5 6 
#
# 1 0.010167 -0.004002 -0.004154 0.000000 0.000000 0.000000
# 2 -0.004002 0.008962 -0.000772 0.000000 0.000000 0.000000
# 3 -0.004154 -0.000772 0.009689 0.000000 0.000000 0.000000
# 4 0.000000 0.000000 0.000000 0.035839 0.000000 0.000000
# 5 0.000000 0.000000 0.000000 0.000000 0.040010 0.000000
# 6 0.000000 0.000000 0.000000 0.000000 0.000000 -0.038960
#
#
# Mechanical properties :
#
#
# Convention : Reuss Voigt Hill
#
# Bulk Modulus (GPa) = 91.20929 93.61708 92.41319
# Shear Modulus (GPa) = 57.32913 22.17400 39.75157
#
# Velocity S-wave (km/s) = 4.98116 3.09788 4.14782
# Velocity P-wave (km/s) = 8.51809 7.30159 7.93319
#
# Compressibility (1/GPa) = 0.01096380
#
# Stress axis : x y z
#
# Youngs Moduli (GPa) = 98.35709 111.58109 103.21198
#
# Poissons Ratio (x) = 0.44650 0.42870
# Poissons Ratio (y) = 0.39358 0.07967
# Poissons Ratio (z) = 0.40854 0.08613
#
# Static dielectric constant tensor:
#      x y z
#    x 1.863350 0.000000 0.000000 
#    y 0.000000 1.912180 0.000000 
#    z 0.000000 0.000000 1.913590 
# 
# From -- ./inp_files/4948.got.cif
#   From: 2010.05.17/outbox.cif.g08.bks.cpg/sg52_3_cif.got.tgz:4948.got - 2010.06.03 12:15:38.
