data_PCOD9413262
_publ_section_title
;
Structure prediction by ZEFSAII (Michael W. Deem and Ramdas Pophale) SiO2 
 PCOD9413262
Probable space group: P N N A
;
_chemical_formula_sum "Si O2"
_cell_formula_units_Z 44
_cell_length_a 18.614840
_cell_length_b 13.965352
_cell_length_c 8.141924
_cell_angle_alpha 90.000000
_cell_angle_beta 90.000000
_cell_angle_gamma 90.000000
_cell_volume 2116.597304
_symmetry_space_group_name_H-M "P N N A"
_symmetry_group_IT_number 52
_symmetry_cell_setting 'orthorhombic'
loop_
_space_group_symop_operation_xyz
x,y,z
1/2-x,-y,z
x,1/2-y,1/2-z
1/2-x,1/2+y,1/2-z
-x,-y,-z
1/2+x,y,-z
-x,1/2+y,1/2+z
1/2+x,1/2-y,1/2+z
loop_
_atom_site_type_symbol
_atom_site_label
_atom_site_fract_x
_atom_site_fract_y
_atom_site_fract_z
Si Si1 0.636955 0.111987 0.385635
Si Si2 0.858821 0.862243 0.752897
Si Si3 0.745216 0.750000 0.250000
Si Si4 0.148451 0.931264 0.840387
Si Si5 0.250000 0.500000 0.381601
Si Si6 0.019655 0.250000 0.750000
Si Si7 0.504713 0.827542 0.101088
O O1 0.615598 0.102118 0.574878
O O2 0.700765 0.191372 0.370182
O O3 0.570518 0.159864 0.291481
O O4 0.657602 0.012200 0.299807
O O5 0.844964 0.750000 0.750000
O O6 0.924333 0.871232 0.882791
O O7 0.783585 0.913975 0.781612
O O8 0.693357 0.833917 0.188021
O O9 0.065826 0.904597 0.863864
O O10 0.184062 0.971747 0.003727
O O11 0.982480 0.278458 0.577157
O O12 0.508257 0.750000 0.250000
#
# Coordination Sequence:
#
# PCOD9413262 Si02
#       7
#     8   8   4   8   4   4   8
#     4  11  23  42  76 100 135 191 236 283 364 421
#     4  11  24  47  71 102 143 183 235 292 351 424
#     4  11  22  42  70  98 139 182 234 296 349 414
#     4  12  25  44  70 104 140 184 239 296 349 419
#     4  12  26  44  66 106 140 184 238 290 346 418
#     4  11  22  46  76  98 135 194 228 282 365 418
#     4  11  24  48  70 103 143 184 233 292 351 420
#
# _framework density 20.788084000000001
#
# number of rings (size 3 to 8) (size 9 to 14) (size 15 to 20)
#    0.000    0.727    6.364    2.182    2.545    3.636 
#    8.182    0.000    0.000    0.000    0.000    0.000 
#    0.000    0.000    0.000    0.000    0.000    0.000 
#
# Total GULP energy -245570.371094 kJ/mol
# GULP energy per Si atom -5581.144798 kJ/mol
# Density = 2.074077 g / cm^3
# Si number density = 20.788084 Si / 1000 Ang^3
#
#
#
# Elastic Constant Matrix: (Units=GPa)
#
#
# Indices 1 2 3 4 5 6 
#
# 1 78.8856 40.7018 9.3812 0.0000 0.0000 0.0000
# 2 40.7018 105.0227 26.3394 0.0000 0.0000 0.0000
# 3 9.3812 26.3394 112.9286 0.0000 0.0000 0.0000
# 4 0.0000 0.0000 0.0000 38.3472 0.0000 0.0000
# 5 0.0000 0.0000 0.0000 0.0000 -51.9638 0.0000
# 6 0.0000 0.0000 0.0000 0.0000 0.0000 39.2197
#
#
#
# Elastic Compliance Matrix: (Units=1/GPa)
#
#
# Indices 1 2 3 4 5 6 
#
# 1 0.015847 -0.006172 0.000123 0.000000 0.000000 0.000000
# 2 -0.006172 0.012517 -0.002407 0.000000 0.000000 0.000000
# 3 0.000123 -0.002407 0.009406 0.000000 0.000000 0.000000
# 4 0.000000 0.000000 0.000000 0.026078 0.000000 0.000000
# 5 0.000000 0.000000 0.000000 0.000000 -0.019244 0.000000
# 6 0.000000 0.000000 0.000000 0.000000 0.000000 0.025497
#
#
# Mechanical properties :
#
#
# Convention : Reuss Voigt Hill
#
# Bulk Modulus (GPa) = 47.94198 49.96463 48.95330
# Shear Modulus (GPa) = 53.21089 19.81492 36.51290
#
# Velocity S-wave (km/s) = 5.06482 3.09072 4.19553
# Velocity P-wave (km/s) = 7.57070 6.06829 6.86074
#
# Compressibility (1/GPa) = 0.02085855
#
# Stress axis : x y z
#
# Youngs Moduli (GPa) = 63.10505 79.88835 106.31186
#
# Poissons Ratio (x) = 0.49309 -0.01310
# Poissons Ratio (y) = 0.38950 0.25587
# Poissons Ratio (z) = -0.00778 0.19228
#
# Static dielectric constant tensor:
#      x y z
#    x 1.731350 0.000000 0.000000 
#    y 0.000000 1.756140 0.000000 
#    z 0.000000 0.000000 1.834640 
# 
# From -- ./inp_files/12010.got.cif
#   From: 2010.05.17/outbox.cif.g08.bks.cpg/sg52_7_cif.got.tgz:12010.got - 2010.06.03 12:15:38.
