data_PCOD9413760
_publ_section_title
;
Structure prediction by ZEFSAII (Michael W. Deem and Ramdas Pophale) SiO2 
 PCOD9413760
Probable space group: P N N A
;
_chemical_formula_sum "Si O2"
_cell_formula_units_Z 32
_cell_length_a 5.980821
_cell_length_b 12.280826
_cell_length_c 18.143683
_cell_angle_alpha 90.000000
_cell_angle_beta 90.000000
_cell_angle_gamma 90.000000
_cell_volume 1332.643030
_symmetry_space_group_name_H-M "P N N A"
_symmetry_group_IT_number 52
_symmetry_cell_setting 'orthorhombic'
loop_
_space_group_symop_operation_xyz
x,y,z
1/2-x,-y,z
x,1/2-y,1/2-z
1/2-x,1/2+y,1/2-z
-x,-y,-z
1/2+x,y,-z
-x,1/2+y,1/2+z
1/2+x,1/2-y,1/2+z
loop_
_atom_site_type_symbol
_atom_site_label
_atom_site_fract_x
_atom_site_fract_y
_atom_site_fract_z
Si Si1 0.263822 0.121405 0.826915
Si Si2 0.927069 0.090116 0.692030
Si Si3 0.750000 0.500000 0.068409
Si Si4 0.861321 0.750000 0.750000
Si Si5 0.214344 0.758797 0.529040
O O1 0.487440 0.156423 0.784633
O O2 0.242577 0.214070 0.888343
O O3 0.087286 0.115265 0.760495
O O4 0.250000 0.000000 0.860855
O O5 0.784761 0.199900 0.683756
O O6 0.056452 0.041200 0.623350
O O7 0.750000 0.000000 0.713379
O O8 0.805321 0.390458 0.024623
O O9 0.454864 0.723971 0.491163
#
# Coordination Sequence:
#
# PCOD9413760 Si02
#       5
#     8   8   4   4   8
#     4  12  26  49  74 114 154 200 263 319 400 472
#     4  12  23  42  78 115 150 192 244 345 406 462
#     4  12  26  50  78 118 152 194 270 336 408 460
#     4  12  24  44  76 114 156 194 252 332 414 472
#     4  12  31  52  78 111 158 221 269 317 381 479
#
# _framework density 24.012430999999999
#
# number of rings (size 3 to 8) (size 9 to 14) (size 15 to 20)
#    0.000    0.000    3.750    6.000   10.500    1.000 
#    0.000    0.000    0.000    0.000    0.000    0.000 
#    0.000    0.000    0.000    0.000    0.000    0.000 
#
# Total GULP energy -178660.716769 kJ/mol
# GULP energy per Si atom -5583.147399 kJ/mol
# Density = 2.395778 g / cm^3
# Si number density = 24.012431 Si / 1000 Ang^3
#
#
#
# Elastic Constant Matrix: (Units=GPa)
#
#
# Indices 1 2 3 4 5 6 
#
# 1 169.4692 36.6059 54.4297 0.0000 0.0000 0.0000
# 2 36.6059 84.9987 -6.9091 0.0000 0.0000 0.0000
# 3 54.4297 -6.9091 75.7532 0.0000 0.0000 0.0000
# 4 0.0000 0.0000 0.0000 36.6079 0.0000 0.0000
# 5 0.0000 0.0000 0.0000 0.0000 74.9314 0.0000
# 6 0.0000 0.0000 0.0000 0.0000 0.0000 47.8682
#
#
#
# Elastic Compliance Matrix: (Units=1/GPa)
#
#
# Indices 1 2 3 4 5 6 
#
# 1 0.009101 -0.004484 -0.006948 0.000000 0.000000 0.000000
# 2 -0.004484 0.014062 0.004505 0.000000 0.000000 0.000000
# 3 -0.006948 0.004505 0.018604 0.000000 0.000000 0.000000
# 4 0.000000 0.000000 0.000000 0.027316 0.000000 0.000000
# 5 0.000000 0.000000 0.000000 0.000000 0.013346 0.000000
# 6 0.000000 0.000000 0.000000 0.000000 0.000000 0.020891
#
#
# Mechanical properties :
#
#
# Convention : Reuss Voigt Hill
#
# Bulk Modulus (GPa) = 35.82762 55.38603 45.60682
# Shear Modulus (GPa) = 39.53211 48.28781 43.90996
#
# Velocity S-wave (km/s) = 4.06189 4.48923 4.28089
# Velocity P-wave (km/s) = 6.07877 7.07011 6.59310
#
# Compressibility (1/GPa) = 0.02791143
#
# Stress axis : x y z
#
# Youngs Moduli (GPa) = 109.87822 71.11246 53.75202
#
# Poissons Ratio (x) = 0.31889 0.37348
# Poissons Ratio (y) = 0.49272 -0.24213
# Poissons Ratio (z) = 0.76345 -0.32033
#
# Static dielectric constant tensor:
#      x y z
#    x 2.008880 0.000000 0.000000 
#    y 0.000000 1.951360 0.000000 
#    z 0.000000 0.000000 1.881080 
# 
# From -- ./inp_files/30031.got.cif
#   From: 2010.05.17/outbox.cif.g08.bks.cpg/sg52_16_cif.got.tgz:30031.got - 2010.06.03 12:15:38.
