data_PCOD9413168
_publ_section_title
;
Structure prediction by ZEFSAII (Michael W. Deem and Ramdas Pophale) SiO2 
 PCOD9413168
Probable space group: P N N A
;
_chemical_formula_sum "Si O2"
_cell_formula_units_Z 48
_cell_length_a 19.661367
_cell_length_b 15.263762
_cell_length_c 8.493949
_cell_angle_alpha 90.000000
_cell_angle_beta 90.000000
_cell_angle_gamma 90.000000
_cell_volume 2549.088681
_symmetry_space_group_name_H-M "P N N A"
_symmetry_group_IT_number 52
_symmetry_cell_setting 'orthorhombic'
loop_
_space_group_symop_operation_xyz
x,y,z
1/2-x,-y,z
x,1/2-y,1/2-z
1/2-x,1/2+y,1/2-z
-x,-y,-z
1/2+x,y,-z
-x,1/2+y,1/2+z
1/2+x,1/2-y,1/2+z
loop_
_atom_site_type_symbol
_atom_site_label
_atom_site_fract_x
_atom_site_fract_y
_atom_site_fract_z
Si Si1 0.029099 0.326717 0.126267
Si Si2 0.805599 0.564747 0.578802
Si Si3 0.576401 0.839101 0.649513
Si Si4 0.952647 0.503391 0.653268
Si Si5 0.233456 0.661553 0.143973
Si Si6 0.839781 0.744702 0.064498
O O1 0.018372 0.250000 0.250000
O O2 0.035813 0.415713 0.227059
O O3 0.096518 0.298452 0.027949
O O4 0.966007 0.330317 0.008884
O O5 0.750000 0.500000 0.502159
O O6 0.875019 0.512392 0.597521
O O7 0.774227 0.593283 0.747719
O O8 0.824191 0.656218 0.494098
O O9 0.575196 0.750000 0.750000
O O10 0.540768 0.914058 0.751353
O O11 0.655226 0.863271 0.618008
O O12 0.000000 0.500000 0.500000
O O13 0.232876 0.750000 0.250000
O O14 0.274909 0.686327 0.987577
O O15 0.851909 0.750000 0.250000
#
# Coordination Sequence:
#
# PCOD9413168 Si02
#       6
#     8   8   8   8   8   8
#     4  12  23  43  66  93 134 179 223 276 339 410
#     4  11  21  44  70  92 130 177 223 276 338 416
#     4  11  24  41  66  96 133 176 219 277 345 400
#     4  12  25  42  66  99 132 174 228 279 336 408
#     4   9  19  40  64  88 121 169 214 260 331 398
#     4  11  23  41  69  98 129 171 229 277 339 413
#
# _framework density 18.830259000000002
#
# number of rings (size 3 to 8) (size 9 to 14) (size 15 to 20)
#    0.000    1.000    5.000    2.500    2.333    0.667 
#    3.000    0.833    0.000    0.000    0.000    0.000 
#    0.000    0.000    0.000    0.000    0.000    0.000 
#
# Total GULP energy -268072.338205 kJ/mol
# GULP energy per Si atom -5584.840379 kJ/mol
# Density = 1.878740 g / cm^3
# Si number density = 18.830259 Si / 1000 Ang^3
#
#
#
# Elastic Constant Matrix: (Units=GPa)
#
#
# Indices 1 2 3 4 5 6 
#
# 1 135.6529 26.3910 77.9844 0.0000 0.0000 0.0000
# 2 26.3910 98.6320 56.0159 0.0000 0.0000 0.0000
# 3 77.9844 56.0159 143.2695 0.0000 0.0000 0.0000
# 4 0.0000 0.0000 0.0000 -3.5962 0.0000 0.0000
# 5 0.0000 0.0000 0.0000 0.0000 31.6135 0.0000
# 6 0.0000 0.0000 0.0000 0.0000 0.0000 44.9082
#
#
#
# Elastic Compliance Matrix: (Units=1/GPa)
#
#
# Indices 1 2 3 4 5 6 
#
# 1 0.010754 0.000575 -0.006078 0.000000 0.000000 0.000000
# 2 0.000575 0.013063 -0.005420 0.000000 0.000000 0.000000
# 3 -0.006078 -0.005420 0.012408 0.000000 0.000000 0.000000
# 4 0.000000 0.000000 0.000000 -0.278074 0.000000 0.000000
# 5 0.000000 0.000000 0.000000 0.000000 0.031632 0.000000
# 6 0.000000 0.000000 0.000000 0.000000 0.000000 0.022268
#
#
# Mechanical properties :
#
#
# Convention : Reuss Voigt Hill
#
# Bulk Modulus (GPa) = 69.55531 77.59301 73.57416
# Shear Modulus (GPa) = -30.99659 29.06266 -0.96697
#
# Velocity S-wave (km/s) = -4.06162 3.93288 -0.71738
# Velocity P-wave (km/s) = 3.87589 7.86889 6.20250
#
# Compressibility (1/GPa) = 0.01437705
#
# Stress axis : x y z
#
# Youngs Moduli (GPa) = 92.98549 76.55045 80.59507
#
# Poissons Ratio (x) = -0.04398 0.48989
# Poissons Ratio (y) = -0.05343 0.43685
# Poissons Ratio (z) = 0.56521 0.41492
#
# Static dielectric constant tensor:
#      x y z
#    x 1.661930 0.000000 0.000000 
#    y 0.000000 1.689670 0.000000 
#    z 0.000000 0.000000 1.582050 
# 
# From -- ./inp_files/12120.got.cif
#   From: 2010.05.17/outbox.cif.g08.bks.cpg/sg52_7_cif.got.tgz:12120.got - 2010.06.03 12:15:38.
