data_PCOD9413929
_publ_section_title
;
Structure prediction by ZEFSAII (Michael W. Deem and Ramdas Pophale) SiO2 
 PCOD9413929
Probable space group: P N N A
;
_chemical_formula_sum "Si O2"
_cell_formula_units_Z 24
_cell_length_a 10.681780
_cell_length_b 18.301955
_cell_length_c 4.697900
_cell_angle_alpha 90.000000
_cell_angle_beta 90.000000
_cell_angle_gamma 90.000000
_cell_volume 918.427503
_symmetry_space_group_name_H-M "P N N A"
_symmetry_group_IT_number 52
_symmetry_cell_setting 'orthorhombic'
loop_
_space_group_symop_operation_xyz
x,y,z
1/2-x,-y,z
x,1/2-y,1/2-z
1/2-x,1/2+y,1/2-z
-x,-y,-z
1/2+x,y,-z
-x,1/2+y,1/2+z
1/2+x,1/2-y,1/2+z
loop_
_atom_site_type_symbol
_atom_site_label
_atom_site_fract_x
_atom_site_fract_y
_atom_site_fract_z
Si Si1 0.724223 0.075118 0.854642
Si Si2 0.352828 0.197617 0.489857
Si Si3 0.038609 0.937964 0.730977
O O1 0.749807 0.146227 0.665916
O O2 0.579928 0.068125 0.945241
O O3 0.829096 0.068381 0.100089
O O4 0.750000 0.000000 0.680586
O O5 0.404926 0.250000 0.250000
O O6 0.457259 0.139737 0.574822
O O7 0.311606 0.250000 0.750000
O O8 0.000000 0.000000 0.500000
#
# Coordination Sequence:
#
# PCOD9413929 Si02
#       3
#     8   8   8
#     4  12  28  52  87 124 170 222 292 350 430 521
#     4  12  28  54  80 130 174 225 282 368 439 514
#     4  12  29  53  88 124 173 229 292 360 432 524
#
# _framework density 26.131623000000001
#
# number of rings (size 3 to 8) (size 9 to 14) (size 15 to 20)
#    0.000    0.000    6.667    1.000    4.667    2.667 
#    0.000    0.000    0.000    0.000    0.000    0.000 
#    0.000    0.000    0.000    0.000    0.000    0.000 
#
# Total GULP energy -134002.968306 kJ/mol
# GULP energy per Si atom -5583.457013 kJ/mol
# Density = 2.607215 g / cm^3
# Si number density = 26.131623 Si / 1000 Ang^3
#
#
#
# Elastic Constant Matrix: (Units=GPa)
#
#
# Indices 1 2 3 4 5 6 
#
# 1 228.8006 30.5866 80.4483 0.0000 0.0000 0.0000
# 2 30.5866 193.9004 82.9394 0.0000 0.0000 0.0000
# 3 80.4483 82.9394 170.6557 0.0000 0.0000 0.0000
# 4 0.0000 0.0000 0.0000 43.7295 0.0000 0.0000
# 5 0.0000 0.0000 0.0000 0.0000 32.0492 0.0000
# 6 0.0000 0.0000 0.0000 0.0000 0.0000 9.2887
#
#
#
# Elastic Compliance Matrix: (Units=1/GPa)
#
#
# Indices 1 2 3 4 5 6 
#
# 1 0.005252 0.000291 -0.002617 0.000000 0.000000 0.000000
# 2 0.000291 0.006527 -0.003309 0.000000 0.000000 0.000000
# 3 -0.002617 -0.003309 0.008702 0.000000 0.000000 0.000000
# 4 0.000000 0.000000 0.000000 0.022868 0.000000 0.000000
# 5 0.000000 0.000000 0.000000 0.000000 0.031202 0.000000
# 6 0.000000 0.000000 0.000000 0.000000 0.000000 0.107657
#
#
# Mechanical properties :
#
#
# Convention : Reuss Voigt Hill
#
# Bulk Modulus (GPa) = 108.58103 109.03392 108.80747
# Shear Modulus (GPa) = 25.43895 43.63898 34.53897
#
# Velocity S-wave (km/s) = 3.12347 4.09096 3.63951
# Velocity P-wave (km/s) = 7.39256 8.00812 7.70649
#
# Compressibility (1/GPa) = 0.00920971
#
# Stress axis : x y z
#
# Youngs Moduli (GPa) = 190.40497 153.21200 114.91765
#
# Poissons Ratio (x) = -0.04459 0.30077
# Poissons Ratio (y) = -0.05542 0.38030
# Poissons Ratio (z) = 0.49834 0.50703
#
# Static dielectric constant tensor:
#      x y z
#    x 4.951090 0.000000 0.000000 
#    y 0.000000 2.234640 0.000000 
#    z 0.000000 0.000000 2.188310 
# 
# From -- ./inp_files/747.got.cif
#   From: 2010.05.17/outbox.cif.g08.bks.cpg/sg52_1_cif.got.tgz:747.got - 2010.06.03 12:15:38.
