data_PCOD9413342
_publ_section_title
;
Structure prediction by ZEFSAII (Michael W. Deem and Ramdas Pophale) SiO2 
 PCOD9413342
Probable space group: P N N A
;
_chemical_formula_sum "Si O2"
_cell_formula_units_Z 36
_cell_length_a 8.204132
_cell_length_b 25.524680
_cell_length_c 6.933812
_cell_angle_alpha 90.000000
_cell_angle_beta 90.000000
_cell_angle_gamma 90.000000
_cell_volume 1451.994621
_symmetry_space_group_name_H-M "P N N A"
_symmetry_group_IT_number 52
_symmetry_cell_setting 'orthorhombic'
loop_
_space_group_symop_operation_xyz
x,y,z
1/2-x,-y,z
x,1/2-y,1/2-z
1/2-x,1/2+y,1/2-z
-x,-y,-z
1/2+x,y,-z
-x,1/2+y,1/2+z
1/2+x,1/2-y,1/2+z
loop_
_atom_site_type_symbol
_atom_site_label
_atom_site_fract_x
_atom_site_fract_y
_atom_site_fract_z
Si Si1 0.646901 0.107923 0.797241
Si Si2 0.181159 0.152245 0.629808
Si Si3 0.547056 0.750000 0.750000
Si Si4 0.532672 0.703703 0.367241
Si Si5 0.696765 0.559591 0.360063
O O1 0.690698 0.134122 0.593009
O O2 0.344289 0.177903 0.716620
O O3 0.785242 0.078548 0.917556
O O4 0.487001 0.070720 0.786863
O O5 0.053366 0.198966 0.670922
O O6 0.179009 0.096581 0.740762
O O7 0.087577 0.157600 0.076697
O O8 0.621124 0.727164 0.553811
O O9 0.447903 0.750000 0.250000
O O10 0.750000 0.500000 0.343294
#
# Coordination Sequence:
#
# PCOD9413342 Si02
#       5
#     8   8   4   8   8
#     4  11  25  46  74 109 152 200 256 314 384 459
#     4  11  25  43  71 110 149 196 252 307 385 457
#     4  12  22  44  68 100 150 194 244 308 382 460
#     4  11  23  41  69 106 145 197 238 308 370 461
#     4  11  26  48  76 111 151 205 261 328 383 446
#
# _framework density 24.793479000000001
#
# number of rings (size 3 to 8) (size 9 to 14) (size 15 to 20)
#    0.000    0.889    5.556    0.667    0.000    8.889 
#    2.000    0.000    0.000    0.000    0.000    0.000 
#    0.000    0.000    0.000    0.000    0.000    0.000 
#
# Total GULP energy -201237.028783 kJ/mol
# GULP energy per Si atom -5589.917466 kJ/mol
# Density = 2.473705 g / cm^3
# Si number density = 24.793479 Si / 1000 Ang^3
#
#
#
# Elastic Constant Matrix: (Units=GPa)
#
#
# Indices 1 2 3 4 5 6 
#
# 1 55.4969 30.3162 32.8811 0.0000 0.0000 0.0000
# 2 30.3162 183.4989 66.4975 0.0000 0.0000 0.0000
# 3 32.8811 66.4975 178.7712 0.0000 0.0000 0.0000
# 4 0.0000 0.0000 0.0000 35.8524 0.0000 0.0000
# 5 0.0000 0.0000 0.0000 0.0000 32.6448 0.0000
# 6 0.0000 0.0000 0.0000 0.0000 0.0000 28.4893
#
#
#
# Elastic Compliance Matrix: (Units=1/GPa)
#
#
# Indices 1 2 3 4 5 6 
#
# 1 0.021102 -0.002404 -0.002987 0.000000 0.000000 0.000000
# 2 -0.002404 0.006572 -0.002003 0.000000 0.000000 0.000000
# 3 -0.002987 -0.002003 0.006888 0.000000 0.000000 0.000000
# 4 0.000000 0.000000 0.000000 0.027892 0.000000 0.000000
# 5 0.000000 0.000000 0.000000 0.000000 0.030633 0.000000
# 6 0.000000 0.000000 0.000000 0.000000 0.000000 0.035101
#
#
# Mechanical properties :
#
#
# Convention : Reuss Voigt Hill
#
# Bulk Modulus (GPa) = 50.56779 75.23963 62.90371
# Shear Modulus (GPa) = 33.42977 38.60210 36.01594
#
# Velocity S-wave (km/s) = 3.67594 3.95010 3.81548
# Velocity P-wave (km/s) = 6.20134 7.15659 6.69602
#
# Compressibility (1/GPa) = 0.01977543
#
# Stress axis : x y z
#
# Youngs Moduli (GPa) = 47.38889 152.14926 145.17836
#
# Poissons Ratio (x) = 0.36574 0.43366
# Poissons Ratio (y) = 0.11391 0.29074
# Poissons Ratio (z) = 0.14156 0.30470
#
# Static dielectric constant tensor:
#      x y z
#    x 2.023460 0.000000 0.000000 
#    y 0.000000 1.955410 0.000000 
#    z 0.000000 0.000000 2.007750 
# 
# From -- ./inp_files/1251.got.cif
#   From: 2010.05.17/outbox.cif.g08.bks.cpg/sg52_1_cif.got.tgz:1251.got - 2010.06.03 12:15:38.
