data_PCOD9413813
_publ_section_title
;
Structure prediction by ZEFSAII (Michael W. Deem and Ramdas Pophale) SiO2 
 PCOD9413813
Probable space group: P N N A
;
_chemical_formula_sum "Si O2"
_cell_formula_units_Z 48
_cell_length_a 16.369393
_cell_length_b 22.361472
_cell_length_c 5.694583
_cell_angle_alpha 90.000000
_cell_angle_beta 90.000000
_cell_angle_gamma 90.000000
_cell_volume 2084.466364
_symmetry_space_group_name_H-M "P N N A"
_symmetry_group_IT_number 52
_symmetry_cell_setting 'orthorhombic'
loop_
_space_group_symop_operation_xyz
x,y,z
1/2-x,-y,z
x,1/2-y,1/2-z
1/2-x,1/2+y,1/2-z
-x,-y,-z
1/2+x,y,-z
-x,1/2+y,1/2+z
1/2+x,1/2-y,1/2+z
loop_
_atom_site_type_symbol
_atom_site_label
_atom_site_fract_x
_atom_site_fract_y
_atom_site_fract_z
Si Si1 0.758758 0.750000 0.250000
Si Si2 0.250000 0.500000 0.673714
Si Si3 0.881217 0.171355 0.087763
Si Si4 0.191779 0.575086 0.285747
Si Si5 0.030161 0.151698 0.409112
Si Si6 0.853364 0.750000 0.750000
Si Si7 0.523136 0.750000 0.750000
Si Si8 0.145587 0.042461 0.446875
O O1 0.700292 0.807395 0.216628
O O2 0.804947 0.753818 0.502117
O O3 0.238984 0.558849 0.522946
O O4 0.166729 0.490373 0.813135
O O5 0.861604 0.130799 0.859129
O O6 0.944524 0.144053 0.273736
O O7 0.923213 0.229133 0.970341
O O8 0.141622 0.514507 0.227265
O O9 0.267717 0.577180 0.105473
O O10 0.089035 0.191640 0.243129
O O11 0.072793 0.088411 0.449911
O O12 0.023927 0.192547 0.644655
#
# Coordination Sequence:
#
# PCOD9413813 Si02
#       8
#     4   4   8   8   8   4   4   8
#     4  12  26  44  73 103 142 188 256 292 370 440
#     4   8  18  40  66  96 132 166 232 280 358 406
#     4  12  25  44  66  97 142 186 228 304 361 439
#     4   9  21  42  68  98 132 172 240 293 354 431
#     4  12  25  44  67  98 146 181 236 301 365 437
#     4  12  26  44  71 109 134 194 250 296 366 438
#     4  12  24  46  62  94 152 186 234 288 376 440
#     4   9  21  41  66 100 128 179 233 293 357 428
#
# _framework density 23.027476
#
# number of rings (size 3 to 8) (size 9 to 14) (size 15 to 20)
#    0.000    1.667    3.333    2.000    2.333    6.000 
#    0.000    1.667    0.000    0.000    0.000    0.000 
#    0.000    0.000    0.000    0.000    0.000    0.000 
#
# Total GULP energy -267831.049626 kJ/mol
# GULP energy per Si atom -5579.813534 kJ/mol
# Density = 2.297506 g / cm^3
# Si number density = 23.027476 Si / 1000 Ang^3
#
#
#
# Elastic Constant Matrix: (Units=GPa)
#
#
# Indices 1 2 3 4 5 6 
#
# 1 69.1493 11.8120 21.8833 0.0000 0.0000 0.0000
# 2 11.8120 58.1476 -3.6054 0.0000 0.0000 0.0000
# 3 21.8833 -3.6054 93.3555 0.0000 0.0000 0.0000
# 4 0.0000 0.0000 0.0000 23.9340 0.0000 0.0000
# 5 0.0000 0.0000 0.0000 0.0000 -11.1267 0.0000
# 6 0.0000 0.0000 0.0000 0.0000 0.0000 28.9092
#
#
#
# Elastic Compliance Matrix: (Units=1/GPa)
#
#
# Indices 1 2 3 4 5 6 
#
# 1 0.016324 -0.003562 -0.003964 0.000000 0.000000 0.000000
# 2 -0.003562 0.018016 0.001531 0.000000 0.000000 0.000000
# 3 -0.003964 0.001531 0.011700 0.000000 0.000000 0.000000
# 4 0.000000 0.000000 0.000000 0.041782 0.000000 0.000000
# 5 0.000000 0.000000 0.000000 0.000000 -0.089874 0.000000
# 6 0.000000 0.000000 0.000000 0.000000 0.000000 0.034591
#
#
# Mechanical properties :
#
#
# Convention : Reuss Voigt Hill
#
# Bulk Modulus (GPa) = 29.36863 31.20359 30.28611
# Shear Modulus (GPa) = 89.47763 21.04746 55.26254
#
# Velocity S-wave (km/s) = 6.24029 3.02655 4.90414
# Velocity P-wave (km/s) = 8.04382 5.07871 6.72668
#
# Compressibility (1/GPa) = 0.03404993
#
# Stress axis : x y z
#
# Youngs Moduli (GPa) = 61.25790 55.50592 85.46943
#
# Poissons Ratio (x) = 0.19771 0.33881
# Poissons Ratio (y) = 0.21820 -0.13083
# Poissons Ratio (z) = 0.24284 -0.08496
#
# Static dielectric constant tensor:
#      x y z
#    x 1.928600 0.000000 0.000000 
#    y 0.000000 1.919500 0.000000 
#    z 0.000000 0.000000 1.946130 
# 
# From -- ./inp_files/2531.got.cif
#   From: 2010.05.17/outbox.cif.g08.bks.cpg/sg52_2_cif.got.tgz:2531.got - 2010.06.03 12:15:38.
