data_PCOD9413212
_publ_section_title
;
Structure prediction by ZEFSAII (Michael W. Deem and Ramdas Pophale) SiO2 
 PCOD9413212
Probable space group: P N N A
;
_chemical_formula_sum "Si O2"
_cell_formula_units_Z 64
_cell_length_a 8.982074
_cell_length_b 16.319781
_cell_length_c 17.785930
_cell_angle_alpha 90.000000
_cell_angle_beta 90.000000
_cell_angle_gamma 90.000000
_cell_volume 2607.159097
_symmetry_space_group_name_H-M "P N N A"
_symmetry_group_IT_number 52
_symmetry_cell_setting 'orthorhombic'
loop_
_space_group_symop_operation_xyz
x,y,z
1/2-x,-y,z
x,1/2-y,1/2-z
1/2-x,1/2+y,1/2-z
-x,-y,-z
1/2+x,y,-z
-x,1/2+y,1/2+z
1/2+x,1/2-y,1/2+z
loop_
_atom_site_type_symbol
_atom_site_label
_atom_site_fract_x
_atom_site_fract_y
_atom_site_fract_z
Si Si1 0.051872 0.675185 0.584950
Si Si2 0.701511 0.372245 0.671696
Si Si3 0.609733 0.787458 0.645071
Si Si4 0.784978 0.905723 0.537010
Si Si5 0.486497 0.415878 0.266541
Si Si6 0.518508 0.083501 0.681225
Si Si7 0.726420 0.664443 0.268301
Si Si8 0.354029 0.749016 0.540271
O O1 0.106780 0.691328 0.669364
O O2 0.214317 0.686415 0.544782
O O3 0.926566 0.607109 0.609931
O O4 0.951345 0.732287 0.533565
O O5 0.759904 0.279391 0.656356
O O6 0.853802 0.424858 0.673701
O O7 0.633040 0.380485 0.755909
O O8 0.660755 0.857219 0.585625
O O9 0.561860 0.836973 0.718286
O O10 0.469017 0.741267 0.608433
O O11 0.921310 0.909254 0.597201
O O12 0.807339 0.844145 0.467533
O O13 0.750000 0.000000 0.517658
O O14 0.490618 0.490246 0.208557
O O15 0.652086 0.400287 0.296358
O O16 0.361858 0.125700 0.698784
O O17 0.799432 0.750000 0.250000
#
# Coordination Sequence:
#
# PCOD9413212 Si02
#       8
#     8   8   8   8   8   8   8   8
#     4  11  23  40  63  96 125 171 227 286 325 395
#     4  11  22  39  69  95 125 172 228 289 345 406
#     4  12  24  41  65  95 133 184 233 279 333 403
#     4  12  23  42  65  94 141 189 232 269 331 420
#     4  12  23  43  65 103 142 176 220 289 361 421
#     4  11  24  41  68 102 139 177 224 284 356 417
#     4  11  24  40  66 102 138 177 230 288 347 406
#     4  12  24  43  63  94 137 179 238 275 324 399
#
# _framework density 24.547792000000001
#
# number of rings (size 3 to 8) (size 9 to 14) (size 15 to 20)
#    0.000    0.500    5.000    4.125    1.750    0.500 
#    0.000    0.000    0.000    0.000    0.000  106.750 
#    0.000    0.000    0.000    0.000    0.000    0.000 
#
# Total GULP energy -357042.278696 kJ/mol
# GULP energy per Si atom -5578.785605 kJ/mol
# Density = 2.449192 g / cm^3
# Si number density = 24.547792 Si / 1000 Ang^3
#
#
#
# Elastic Constant Matrix: (Units=GPa)
#
#
# Indices 1 2 3 4 5 6 
#
# 1 133.3596 33.0476 23.3376 0.0000 0.0000 0.0000
# 2 33.0476 55.7715 15.7769 0.0000 0.0000 0.0000
# 3 23.3376 15.7769 64.7290 0.0000 0.0000 0.0000
# 4 0.0000 0.0000 0.0000 28.2311 0.0000 0.0000
# 5 0.0000 0.0000 0.0000 0.0000 33.1527 0.0000
# 6 0.0000 0.0000 0.0000 0.0000 0.0000 26.0852
#
#
#
# Elastic Compliance Matrix: (Units=1/GPa)
#
#
# Indices 1 2 3 4 5 6 
#
# 1 0.009047 -0.004767 -0.002100 0.000000 0.000000 0.000000
# 2 -0.004767 0.021770 -0.003587 0.000000 0.000000 0.000000
# 3 -0.002100 -0.003587 0.017081 0.000000 0.000000 0.000000
# 4 0.000000 0.000000 0.000000 0.035422 0.000000 0.000000
# 5 0.000000 0.000000 0.000000 0.000000 0.030163 0.000000
# 6 0.000000 0.000000 0.000000 0.000000 0.000000 0.038336
#
#
# Mechanical properties :
#
#
# Convention : Reuss Voigt Hill
#
# Bulk Modulus (GPa) = 37.05240 44.24270 40.64755
# Shear Modulus (GPa) = 27.51423 29.60699 28.56061
#
# Velocity S-wave (km/s) = 3.35153 3.47666 3.41467
# Velocity P-wave (km/s) = 5.48669 5.84623 5.66931
#
# Compressibility (1/GPa) = 0.02698880
#
# Stress axis : x y z
#
# Youngs Moduli (GPa) = 110.53004 45.93524 58.54597
#
# Poissons Ratio (x) = 0.21897 0.12295
# Poissons Ratio (y) = 0.52689 0.21003
# Poissons Ratio (z) = 0.23212 0.16479
#
# Static dielectric constant tensor:
#      x y z
#    x 2.062580 0.000000 0.000000 
#    y 0.000000 1.956140 0.000000 
#    z 0.000000 0.000000 1.984290 
# 
# From -- ./inp_files/36187.got.cif
#   From: 2010.05.17/outbox.cif.g08.bks.cpg/sg52_19_cif.got.tgz:36187.got - 2010.06.03 12:15:38.
