data_PCOD9413256
_publ_section_title
;
Structure prediction by ZEFSAII (Michael W. Deem and Ramdas Pophale) SiO2 
 PCOD9413256
Probable space group: P N N A
;
_chemical_formula_sum "Si O2"
_cell_formula_units_Z 32
_cell_length_a 8.071907
_cell_length_b 10.772050
_cell_length_c 14.656587
_cell_angle_alpha 90.000000
_cell_angle_beta 90.000000
_cell_angle_gamma 90.000000
_cell_volume 1274.404688
_symmetry_space_group_name_H-M "P N N A"
_symmetry_group_IT_number 52
_symmetry_cell_setting 'orthorhombic'
loop_
_space_group_symop_operation_xyz
x,y,z
1/2-x,-y,z
x,1/2-y,1/2-z
1/2-x,1/2+y,1/2-z
-x,-y,-z
1/2+x,y,-z
-x,1/2+y,1/2+z
1/2+x,1/2-y,1/2+z
loop_
_atom_site_type_symbol
_atom_site_label
_atom_site_fract_x
_atom_site_fract_y
_atom_site_fract_z
Si Si1 0.717780 0.199759 0.407196
Si Si2 0.977023 0.387686 0.781733
Si Si3 0.750000 0.000000 0.561871
Si Si4 0.750000 0.500000 0.641873
Si Si5 0.062756 0.639641 0.485529
O O1 0.668644 0.132075 0.312686
O O2 0.698619 0.106457 0.491679
O O3 0.569058 0.295761 0.421003
O O4 0.883877 0.277866 0.427671
O O5 0.916144 0.250000 0.750000
O O6 0.887956 0.440705 0.872551
O O7 0.910844 0.485278 0.706351
O O8 0.770497 0.381718 0.575454
O O9 0.000000 0.500000 0.500000
#
# Coordination Sequence:
#
# PCOD9413256 Si02
#       5
#     8   8   4   4   8
#     4  12  23  44  72 103 144 185 253 297 366 454
#     4  11  23  41  67 100 143 186 232 299 374 444
#     4  11  24  42  74 101 138 190 246 301 372 446
#     4  11  22  42  68  99 140 190 240 291 378 426
#     4  12  24  43  76 103 140 196 252 302 362 455
#
# _framework density 25.109763999999998
#
# number of rings (size 3 to 8) (size 9 to 14) (size 15 to 20)
#    0.000    0.500    7.500    0.750    0.000    0.000 
#    0.000    2.500    0.000    0.000    0.000    0.000 
#    0.000    0.000    0.000    0.000    0.000    0.000 
#
# Total GULP energy -178410.264935 kJ/mol
# GULP energy per Si atom -5575.320779 kJ/mol
# Density = 2.505261 g / cm^3
# Si number density = 25.109764 Si / 1000 Ang^3
#
#
#
# Elastic Constant Matrix: (Units=GPa)
#
#
# Indices 1 2 3 4 5 6 
#
# 1 56.5209 22.6035 5.1711 0.0000 0.0000 0.0000
# 2 22.6035 124.8376 24.2796 0.0000 0.0000 0.0000
# 3 5.1711 24.2796 81.3185 0.0000 0.0000 0.0000
# 4 0.0000 0.0000 0.0000 50.9489 0.0000 0.0000
# 5 0.0000 0.0000 0.0000 0.0000 32.3654 0.0000
# 6 0.0000 0.0000 0.0000 0.0000 0.0000 49.0216
#
#
#
# Elastic Compliance Matrix: (Units=1/GPa)
#
#
# Indices 1 2 3 4 5 6 
#
# 1 0.019077 -0.003417 -0.000193 0.000000 0.000000 0.000000
# 2 -0.003417 0.009116 -0.002505 0.000000 0.000000 0.000000
# 3 -0.000193 -0.002505 0.013057 0.000000 0.000000 0.000000
# 4 0.000000 0.000000 0.000000 0.019628 0.000000 0.000000
# 5 0.000000 0.000000 0.000000 0.000000 0.030897 0.000000
# 6 0.000000 0.000000 0.000000 0.000000 0.000000 0.020399
#
#
# Mechanical properties :
#
#
# Convention : Reuss Voigt Hill
#
# Bulk Modulus (GPa) = 34.45679 40.75393 37.60536
# Shear Modulus (GPa) = 37.29226 40.50871 38.90048
#
# Velocity S-wave (km/s) = 3.85797 4.02090 3.94028
# Velocity P-wave (km/s) = 5.79634 6.15000 5.97578
#
# Compressibility (1/GPa) = 0.02902185
#
# Stress axis : x y z
#
# Youngs Moduli (GPa) = 52.42040 109.69567 76.58491
#
# Poissons Ratio (x) = 0.37478 0.01478
# Poissons Ratio (y) = 0.17910 0.19181
# Poissons Ratio (z) = 0.01012 0.27474
#
# Static dielectric constant tensor:
#      x y z
#    x 2.118750 0.000000 0.000000 
#    y 0.000000 2.042510 0.000000 
#    z 0.000000 0.000000 2.095800 
# 
# From -- ./inp_files/24140.got.cif
#   From: 2010.05.17/outbox.cif.g08.bks.cpg/sg52_13_cif.got.tgz:24140.got - 2010.06.03 12:15:38.
