data_PCOD9413429
_publ_section_title
;
Structure prediction by ZEFSAII (Michael W. Deem and Ramdas Pophale) SiO2 
 PCOD9413429
Probable space group: P N N A
;
_chemical_formula_sum "Si O2"
_cell_formula_units_Z 32
_cell_length_a 16.061763
_cell_length_b 13.440763
_cell_length_c 6.652121
_cell_angle_alpha 90.000000
_cell_angle_beta 90.000000
_cell_angle_gamma 90.000000
_cell_volume 1436.075513
_symmetry_space_group_name_H-M "P N N A"
_symmetry_group_IT_number 52
_symmetry_cell_setting 'orthorhombic'
loop_
_space_group_symop_operation_xyz
x,y,z
1/2-x,-y,z
x,1/2-y,1/2-z
1/2-x,1/2+y,1/2-z
-x,-y,-z
1/2+x,y,-z
-x,1/2+y,1/2+z
1/2+x,1/2-y,1/2+z
loop_
_atom_site_type_symbol
_atom_site_label
_atom_site_fract_x
_atom_site_fract_y
_atom_site_fract_z
Si Si1 0.071394 0.250000 0.750000
Si Si2 0.437798 0.985270 0.186348
Si Si3 0.956699 0.351958 0.011843
Si Si4 0.184306 0.750000 0.750000
Si Si5 0.696826 0.405607 0.396244
O O1 0.126093 0.350982 0.740334
O O2 0.011300 0.241861 0.559224
O O3 0.482842 0.912664 0.342513
O O4 0.430606 0.086168 0.314600
O O5 0.351990 0.943372 0.093256
O O6 0.500000 0.000000 0.000000
O O7 0.874892 0.323367 0.130087
O O8 0.238813 0.685850 0.593684
O O9 0.750000 0.500000 0.317278
#
# Coordination Sequence:
#
# PCOD9413429 Si02
#       5
#     4   8   8   4   8
#     4  11  24  46  76 103 142 196 252 295 358 450
#     4  11  23  48  77 101 143 195 247 297 360 445
#     4  11  25  46  80 104 139 201 253 298 363 447
#     4  11  26  46  74 109 152 184 246 315 374 434
#     4  11  25  46  67 107 155 181 237 315 368 430
#
# _framework density 22.282952000000002
#
# number of rings (size 3 to 8) (size 9 to 14) (size 15 to 20)
#    0.000    1.000    2.500    3.000    7.000    0.000 
#   13.500    0.000    0.000    0.000    0.000    0.000 
#    0.000    0.000    0.000    0.000    0.000    0.000 
#
# Total GULP energy -178728.893197 kJ/mol
# GULP energy per Si atom -5585.277912 kJ/mol
# Density = 2.223223 g / cm^3
# Si number density = 22.282952 Si / 1000 Ang^3
#
#
#
# Elastic Constant Matrix: (Units=GPa)
#
#
# Indices 1 2 3 4 5 6 
#
# 1 125.9544 52.0877 42.9643 0.0000 0.0000 0.0000
# 2 52.0877 105.6289 40.3899 0.0000 0.0000 0.0000
# 3 42.9643 40.3899 101.7068 0.0000 0.0000 0.0000
# 4 0.0000 0.0000 0.0000 45.9645 0.0000 0.0000
# 5 0.0000 0.0000 0.0000 0.0000 12.3626 0.0000
# 6 0.0000 0.0000 0.0000 0.0000 0.0000 35.8625
#
#
#
# Elastic Compliance Matrix: (Units=1/GPa)
#
#
# Indices 1 2 3 4 5 6 
#
# 1 0.010626 -0.004154 -0.002839 0.000000 0.000000 0.000000
# 2 -0.004154 0.012786 -0.003323 0.000000 0.000000 0.000000
# 3 -0.002839 -0.003323 0.012351 0.000000 0.000000 0.000000
# 4 0.000000 0.000000 0.000000 0.021756 0.000000 0.000000
# 5 0.000000 0.000000 0.000000 0.000000 0.080889 0.000000
# 6 0.000000 0.000000 0.000000 0.000000 0.000000 0.027884
#
#
# Mechanical properties :
#
#
# Convention : Reuss Voigt Hill
#
# Bulk Modulus (GPa) = 66.08932 67.13044 66.60988
# Shear Modulus (GPa) = 26.04601 32.02780 29.03691
#
# Velocity S-wave (km/s) = 3.42259 3.79532 3.61376
# Velocity P-wave (km/s) = 6.73368 7.02835 6.88259
#
# Compressibility (1/GPa) = 0.01513104
#
# Stress axis : x y z
#
# Youngs Moduli (GPa) = 94.11123 78.20945 80.96516
#
# Poissons Ratio (x) = 0.32490 0.22985
# Poissons Ratio (y) = 0.39096 0.26903
# Poissons Ratio (z) = 0.26718 0.25987
#
# Static dielectric constant tensor:
#      x y z
#    x 1.845170 0.000000 0.000000 
#    y 0.000000 1.884090 0.000000 
#    z 0.000000 0.000000 1.801500 
# 
# From -- ./inp_files/3034.got.cif
#   From: 2010.05.17/outbox.cif.g08.bks.cpg/sg52_2_cif.got.tgz:3034.got - 2010.06.03 12:15:38.
