data_PCOD9413948
_publ_section_title
;
Structure prediction by ZEFSAII (Michael W. Deem and Ramdas Pophale) SiO2 
 PCOD9413948
Probable space group: P N N A
;
_chemical_formula_sum "Si O2"
_cell_formula_units_Z 32
_cell_length_a 13.798979
_cell_length_b 11.466378
_cell_length_c 7.653617
_cell_angle_alpha 90.000000
_cell_angle_beta 90.000000
_cell_angle_gamma 90.000000
_cell_volume 1210.988263
_symmetry_space_group_name_H-M "P N N A"
_symmetry_group_IT_number 52
_symmetry_cell_setting 'orthorhombic'
loop_
_space_group_symop_operation_xyz
x,y,z
1/2-x,-y,z
x,1/2-y,1/2-z
1/2-x,1/2+y,1/2-z
-x,-y,-z
1/2+x,y,-z
-x,1/2+y,1/2+z
1/2+x,1/2-y,1/2+z
loop_
_atom_site_type_symbol
_atom_site_label
_atom_site_fract_x
_atom_site_fract_y
_atom_site_fract_z
Si Si1 0.857553 0.649686 0.361347
Si Si2 0.564267 0.569155 0.178505
Si Si3 0.929148 0.217424 0.971724
Si Si4 0.351430 0.499219 0.279312
O O1 0.801161 0.750000 0.250000
O O2 0.832663 0.581517 0.544164
O O3 0.880185 0.548951 0.220748
O O4 0.958396 0.710093 0.418682
O O5 0.595176 0.650819 0.020091
O O6 0.580849 0.644897 0.351177
O O7 0.447851 0.547168 0.184712
O O8 0.874183 0.133104 0.839308
O O9 0.250000 0.500000 0.180563
#
# Coordination Sequence:
#
# PCOD9413948 Si02
#       4
#     8   8   8   8
#     4   9  17  29  46  72  99 132 169 201 258 324
#     4   8  15  30  52  71  92 137 177 202 246 317
#     4   8  15  30  52  71  93 135 177 201 246 318
#     4   9  17  31  51  75 102 130 176 225 262 296
#
# _framework density 26.424696000000001
#
# number of rings (size 3 to 8) (size 9 to 14) (size 15 to 20)
#    0.000    3.500    0.000    3.000    0.000    1.000 
#    9.000    0.000   44.000    1.500    0.000    0.000 
#    0.000    0.000    0.000    0.000    0.000    0.000 
#
# Total GULP energy -178729.638854 kJ/mol
# GULP energy per Si atom -5585.301214 kJ/mol
# Density = 2.636455 g / cm^3
# Si number density = 26.424696 Si / 1000 Ang^3
#
#
#
# Elastic Constant Matrix: (Units=GPa)
#
#
# Indices 1 2 3 4 5 6 
#
# 1 92.6755 17.7511 0.3512 0.0000 0.0000 0.0000
# 2 17.7511 179.8742 57.6432 0.0000 0.0000 0.0000
# 3 0.3512 57.6432 120.8719 0.0000 0.0000 0.0000
# 4 0.0000 0.0000 0.0000 38.6979 0.0000 0.0000
# 5 0.0000 0.0000 0.0000 0.0000 11.7664 0.0000
# 6 0.0000 0.0000 0.0000 0.0000 0.0000 -0.9886
#
#
#
# Elastic Compliance Matrix: (Units=1/GPa)
#
#
# Indices 1 2 3 4 5 6 
#
# 1 0.011032 -0.001273 0.000575 0.000000 0.000000 0.000000
# 2 -0.001273 0.006709 -0.003196 0.000000 0.000000 0.000000
# 3 0.000575 -0.003196 0.009796 0.000000 0.000000 0.000000
# 4 0.000000 0.000000 0.000000 0.025841 0.000000 0.000000
# 5 0.000000 0.000000 0.000000 0.000000 0.084988 0.000000
# 6 0.000000 0.000000 0.000000 0.000000 0.000000 -1.011575
#
#
# Mechanical properties :
#
#
# Convention : Reuss Voigt Hill
#
# Bulk Modulus (GPa) = 50.63503 60.54582 55.59043
# Shear Modulus (GPa) = -5.82182 31.07356 12.62587
#
# Velocity S-wave (km/s) = -1.48592 3.43290 2.18825
# Velocity P-wave (km/s) = 4.03233 6.21896 5.24095
#
# Compressibility (1/GPa) = 0.01974917
#
# Stress axis : x y z
#
# Youngs Moduli (GPa) = 90.64555 149.04824 102.08604
#
# Poissons Ratio (x) = 0.18973 -0.05870
# Poissons Ratio (y) = 0.11539 0.32626
# Poissons Ratio (z) = -0.05212 0.47634
#
# Static dielectric constant tensor:
#      x y z
#    x 2.012830 0.000000 0.000000 
#    y 0.000000 2.087330 0.000000 
#    z 0.000000 0.000000 2.169070 
# 
# From -- ./inp_files/9543.got.cif
#   From: 2010.05.17/outbox.cif.g08.bks.cpg/sg52_5_cif.got.tgz:9543.got - 2010.06.03 12:15:38.
