data_PCOD9413242
_publ_section_title
;
Structure prediction by ZEFSAII (Michael W. Deem and Ramdas Pophale) SiO2 
 PCOD9413242
Probable space group: P N N A
;
_chemical_formula_sum "Si O2"
_cell_formula_units_Z 56
_cell_length_a 14.657487
_cell_length_b 9.037541
_cell_length_c 20.141125
_cell_angle_alpha 90.000000
_cell_angle_beta 90.000000
_cell_angle_gamma 90.000000
_cell_volume 2668.047290
_symmetry_space_group_name_H-M "P N N A"
_symmetry_group_IT_number 52
_symmetry_cell_setting 'orthorhombic'
loop_
_space_group_symop_operation_xyz
x,y,z
1/2-x,-y,z
x,1/2-y,1/2-z
1/2-x,1/2+y,1/2-z
-x,-y,-z
1/2+x,y,-z
-x,1/2+y,1/2+z
1/2+x,1/2-y,1/2+z
loop_
_atom_site_type_symbol
_atom_site_label
_atom_site_fract_x
_atom_site_fract_y
_atom_site_fract_z
Si Si1 0.028063 0.009444 0.110155
Si Si2 0.408534 0.760310 0.828839
Si Si3 0.635446 0.751957 0.538110
Si Si4 0.084994 0.946769 0.355231
Si Si5 0.336182 0.586533 0.275921
Si Si6 0.708606 0.166203 0.448377
Si Si7 0.968968 0.811322 0.540466
O O1 0.090549 0.894297 0.068854
O O2 0.945004 0.918119 0.143119
O O3 0.086180 0.081721 0.169117
O O4 0.005282 0.145466 0.062967
O O5 0.389943 0.750000 0.750000
O O6 0.496074 0.654437 0.842499
O O7 0.323898 0.710705 0.874738
O O8 0.658617 0.853816 0.601770
O O9 0.715784 0.734245 0.485678
O O10 0.557276 0.851288 0.502576
O O11 0.128518 0.993676 0.286599
O O12 0.051321 0.088672 0.396177
O O13 0.250000 0.500000 0.304583
O O14 0.314527 0.750000 0.250000
O O15 0.618476 0.183427 0.493243
O O16 0.750000 0.000000 0.448913
#
# Coordination Sequence:
#
# PCOD9413242 Si02
#       7
#     8   8   8   8   8   8   8
#     4  11  25  44  67 101 139 182 223 292 360 410
#     4  11  24  47  74  97 136 188 237 284 354 422
#     4  11  25  41  70  99 137 176 228 287 348 409
#     4  11  22  41  69  96 133 181 224 283 342 416
#     4  12  28  42  64 102 141 181 230 283 353 432
#     4  12  25  43  72 103 136 184 235 287 344 421
#     4  12  23  44  68 103 136 174 232 284 350 415
#
# _framework density 20.989132000000001
#
# number of rings (size 3 to 8) (size 9 to 14) (size 15 to 20)
#    0.000    0.571    7.143    1.714    8.000    0.000 
#    0.000    1.429    0.000    0.000    0.000    0.000 
#    0.000    0.000    0.000    0.000    0.000    0.000 
#
# Total GULP energy -313136.444163 kJ/mol
# GULP energy per Si atom -5591.722217 kJ/mol
# Density = 2.094136 g / cm^3
# Si number density = 20.989132 Si / 1000 Ang^3
#
#
#
# Elastic Constant Matrix: (Units=GPa)
#
#
# Indices 1 2 3 4 5 6 
#
# 1 65.1278 -13.5659 27.4183 0.0000 0.0000 0.0000
# 2 -13.5659 70.7818 17.8747 0.0000 0.0000 0.0000
# 3 27.4183 17.8747 127.5962 0.0000 0.0000 0.0000
# 4 0.0000 0.0000 0.0000 35.0415 0.0000 0.0000
# 5 0.0000 0.0000 0.0000 0.0000 34.5778 0.0000
# 6 0.0000 0.0000 0.0000 0.0000 0.0000 15.0925
#
#
#
# Elastic Compliance Matrix: (Units=1/GPa)
#
#
# Indices 1 2 3 4 5 6 
#
# 1 0.018249 0.004652 -0.004573 0.000000 0.000000 0.000000
# 2 0.004652 0.015832 -0.003218 0.000000 0.000000 0.000000
# 3 -0.004573 -0.003218 0.009271 0.000000 0.000000 0.000000
# 4 0.000000 0.000000 0.000000 0.028538 0.000000 0.000000
# 5 0.000000 0.000000 0.000000 0.000000 0.028920 0.000000
# 6 0.000000 0.000000 0.000000 0.000000 0.000000 0.066258
#
#
# Mechanical properties :
#
#
# Convention : Reuss Voigt Hill
#
# Bulk Modulus (GPa) = 26.97247 36.32891 31.65069
# Shear Modulus (GPa) = 26.92479 32.39426 29.65952
#
# Velocity S-wave (km/s) = 3.58550 3.93285 3.76319
# Velocity P-wave (km/s) = 5.47902 6.16191 5.83047
#
# Compressibility (1/GPa) = 0.03707483
#
# Stress axis : x y z
#
# Youngs Moduli (GPa) = 54.79833 63.16271 107.86730
#
# Poissons Ratio (x) = -0.29386 0.49329
# Poissons Ratio (y) = -0.25494 0.34707
# Poissons Ratio (z) = 0.25060 0.20323
#
# Static dielectric constant tensor:
#      x y z
#    x 1.747650 0.000000 0.000000 
#    y 0.000000 1.894850 0.000000 
#    z 0.000000 0.000000 1.757860 
# 
# From -- ./inp_files/37331.got.cif
#   From: 2010.05.17/outbox.cif.g08.bks.cpg/sg52_19_cif.got.tgz:37331.got - 2010.06.03 12:15:38.
