data_PCOD9413155
_publ_section_title
;
Structure prediction by ZEFSAII (Michael W. Deem and Ramdas Pophale) SiO2 
 PCOD9413155
Probable space group: P N N A
;
_chemical_formula_sum "Si O2"
_cell_formula_units_Z 40
_cell_length_a 9.449243
_cell_length_b 7.813383
_cell_length_c 26.084674
_cell_angle_alpha 90.000000
_cell_angle_beta 90.000000
_cell_angle_gamma 90.000000
_cell_volume 1925.845948
_symmetry_space_group_name_H-M "P N N A"
_symmetry_group_IT_number 52
_symmetry_cell_setting 'orthorhombic'
loop_
_space_group_symop_operation_xyz
x,y,z
1/2-x,-y,z
x,1/2-y,1/2-z
1/2-x,1/2+y,1/2-z
-x,-y,-z
1/2+x,y,-z
-x,1/2+y,1/2+z
1/2+x,1/2-y,1/2+z
loop_
_atom_site_type_symbol
_atom_site_label
_atom_site_fract_x
_atom_site_fract_y
_atom_site_fract_z
Si Si1 0.294146 0.195374 0.447603
Si Si2 0.260505 0.708732 0.167469
Si Si3 0.250000 0.000000 0.878522
Si Si4 0.977978 0.250000 0.750000
Si Si5 0.051942 0.616765 0.709698
Si Si6 0.419074 0.653538 0.528935
O O1 0.257535 0.266861 0.391225
O O2 0.203627 0.287308 0.491098
O O3 0.459162 0.210095 0.459832
O O4 0.250000 0.000000 0.447491
O O5 0.250000 0.500000 0.168206
O O6 0.124730 0.752470 0.200930
O O7 0.398407 0.801583 0.192468
O O8 0.352992 0.103486 0.840863
O O9 0.150438 0.104609 0.917106
O O10 0.051099 0.433537 0.739628
O O11 0.113740 0.750000 0.750000
O O12 0.500000 0.500000 0.500000
#
# Coordination Sequence:
#
# PCOD9413155 Si02
#       6
#     8   8   4   4   8   8
#     4  11  25  42  73 108 148 187 245 308 371 437
#     4  11  21  42  71 107 142 193 242 306 365 432
#     4  12  28  46  76 106 146 202 240 302 390 440
#     4  12  22  44  74 108 144 192 252 298 372 434
#     4  12  26  46  72 106 152 191 248 310 364 449
#     4  12  23  48  72 105 143 192 247 302 367 447
#
# _framework density 20.770092999999999
#
# number of rings (size 3 to 8) (size 9 to 14) (size 15 to 20)
#    0.000    0.400    5.000    3.600    1.400    1.600 
#    0.000    0.000    0.000    0.000    0.000    0.000 
#    0.000    0.000    0.000    0.000    0.000    0.000 
#
# Total GULP energy -223393.074034 kJ/mol
# GULP energy per Si atom -5584.826851 kJ/mol
# Density = 2.072282 g / cm^3
# Si number density = 20.770093 Si / 1000 Ang^3
#
#
#
# Elastic Constant Matrix: (Units=GPa)
#
#
# Indices 1 2 3 4 5 6 
#
# 1 111.4599 50.3657 59.0154 0.0000 0.0000 0.0000
# 2 50.3657 112.2309 56.6447 0.0000 0.0000 0.0000
# 3 59.0154 56.6447 182.1703 0.0000 0.0000 0.0000
# 4 0.0000 0.0000 0.0000 36.3049 0.0000 0.0000
# 5 0.0000 0.0000 0.0000 0.0000 52.6471 0.0000
# 6 0.0000 0.0000 0.0000 0.0000 0.0000 27.7248
#
#
#
# Elastic Compliance Matrix: (Units=1/GPa)
#
#
# Indices 1 2 3 4 5 6 
#
# 1 0.012269 -0.004151 -0.002684 0.000000 0.000000 0.000000
# 2 -0.004151 0.011974 -0.002378 0.000000 0.000000 0.000000
# 3 -0.002684 -0.002378 0.007098 0.000000 0.000000 0.000000
# 4 0.000000 0.000000 0.000000 0.027545 0.000000 0.000000
# 5 0.000000 0.000000 0.000000 0.000000 0.018994 0.000000
# 6 0.000000 0.000000 0.000000 0.000000 0.000000 0.036069
#
#
# Mechanical properties :
#
#
# Convention : Reuss Voigt Hill
#
# Bulk Modulus (GPa) = 77.43552 81.99030 79.71291
# Shear Modulus (GPa) = 36.58199 39.32436 37.95318
#
# Velocity S-wave (km/s) = 4.20132 4.35595 4.27933
# Velocity P-wave (km/s) = 7.80371 8.05356 7.92962
#
# Compressibility (1/GPa) = 0.01291397
#
# Stress axis : x y z
#
# Youngs Moduli (GPa) = 81.50861 83.51773 140.87921
#
# Poissons Ratio (x) = 0.34670 0.37808
# Poissons Ratio (y) = 0.33836 0.33505
# Poissons Ratio (z) = 0.21875 0.19863
#
# Static dielectric constant tensor:
#      x y z
#    x 1.796660 0.000000 0.000000 
#    y 0.000000 1.815190 0.000000 
#    z 0.000000 0.000000 1.675500 
# 
# From -- ./inp_files/39286.got.cif
#   From: 2010.05.17/outbox.cif.g08.bks.cpg/sg52_20_cif.got.tgz:39286.got - 2010.06.03 12:15:38.
