data_PCOD9413693
_publ_section_title
;
Structure prediction by ZEFSAII (Michael W. Deem and Ramdas Pophale) SiO2 
 PCOD9413693
Probable space group: P N N A
;
_chemical_formula_sum "Si O2"
_cell_formula_units_Z 48
_cell_length_a 33.300030
_cell_length_b 9.086528
_cell_length_c 8.287560
_cell_angle_alpha 90.000000
_cell_angle_beta 90.000000
_cell_angle_gamma 90.000000
_cell_volume 2507.663621
_symmetry_space_group_name_H-M "P N N A"
_symmetry_group_IT_number 52
_symmetry_cell_setting 'orthorhombic'
loop_
_space_group_symop_operation_xyz
x,y,z
1/2-x,-y,z
x,1/2-y,1/2-z
1/2-x,1/2+y,1/2-z
-x,-y,-z
1/2+x,y,-z
-x,1/2+y,1/2+z
1/2+x,1/2-y,1/2+z
loop_
_atom_site_type_symbol
_atom_site_label
_atom_site_fract_x
_atom_site_fract_y
_atom_site_fract_z
Si Si1 0.654709 0.004095 0.694310
Si Si2 0.437204 0.696120 0.505815
Si Si3 0.760545 0.669284 0.409140
Si Si4 0.435375 0.999851 0.313308
Si Si5 0.496011 0.250000 0.250000
Si Si6 0.847801 0.786191 0.008628
Si Si7 0.280102 0.250000 0.250000
O O1 0.610010 0.937555 0.677711
O O2 0.658373 0.117119 0.545819
O O3 0.690441 0.888947 0.717789
O O4 0.653425 0.110939 0.849348
O O5 0.439769 0.862931 0.435956
O O6 0.439784 0.580163 0.360065
O O7 0.473727 0.673153 0.625585
O O8 0.392172 0.686813 0.577382
O O9 0.750000 0.500000 0.405427
O O10 0.743355 0.750000 0.250000
O O11 0.808555 0.672714 0.396143
O O12 0.745949 0.729029 0.585581
O O13 0.467651 0.127938 0.331302
#
# Coordination Sequence:
#
# PCOD9413693 Si02
#       7
#     8   8   8   8   4   8   4
#     4   9  18  36  64  86 111 157 201 252 299 365
#     4   9  20  35  55  80 111 154 193 238 285 362
#     4  12  28  42  63  94 128 163 207 264 309 368
#     4   9  19  36  54  82 116 146 196 243 291 350
#     4  12  19  30  56  86 112 150 190 242 301 342
#     4   9  19  39  59  81 116 157 205 239 302 369
#     4  12  23  40  66  94 120 160 214 252 319 370
#
# _framework density 19.141324000000001
#
# number of rings (size 3 to 8) (size 9 to 14) (size 15 to 20)
#    0.000    2.000    1.667    4.500    3.500    0.000 
#    0.000    0.000    0.000    0.000    0.000    0.000 
#    0.000    0.000    0.000    0.000    0.000    0.000 
#
# Total GULP energy -267622.127723 kJ/mol
# GULP energy per Si atom -5575.460994 kJ/mol
# Density = 1.909776 g / cm^3
# Si number density = 19.141324 Si / 1000 Ang^3
#
#
#
# Elastic Constant Matrix: (Units=GPa)
#
#
# Indices 1 2 3 4 5 6 
#
# 1 132.5421 35.8579 21.2875 0.0000 0.0000 0.0000
# 2 35.8579 61.4722 6.4437 0.0000 0.0000 0.0000
# 3 21.2875 6.4437 61.2377 0.0000 0.0000 0.0000
# 4 0.0000 0.0000 0.0000 12.0618 0.0000 0.0000
# 5 0.0000 0.0000 0.0000 0.0000 19.6372 0.0000
# 6 0.0000 0.0000 0.0000 0.0000 0.0000 23.2753
#
#
#
# Elastic Compliance Matrix: (Units=1/GPa)
#
#
# Indices 1 2 3 4 5 6 
#
# 1 0.009385 -0.005190 -0.002716 0.000000 0.000000 0.000000
# 2 -0.005190 0.019319 -0.000229 0.000000 0.000000 0.000000
# 3 -0.002716 -0.000229 0.017298 0.000000 0.000000 0.000000
# 4 0.000000 0.000000 0.000000 0.082907 0.000000 0.000000
# 5 0.000000 0.000000 0.000000 0.000000 0.050924 0.000000
# 6 0.000000 0.000000 0.000000 0.000000 0.000000 0.042964
#
#
# Mechanical properties :
#
#
# Convention : Reuss Voigt Hill
#
# Bulk Modulus (GPa) = 33.63347 42.49225 38.06286
# Shear Modulus (GPa) = 20.08220 23.77239 21.92729
#
# Velocity S-wave (km/s) = 3.24258 3.52794 3.38827
# Velocity P-wave (km/s) = 5.62391 6.23238 5.93595
#
# Compressibility (1/GPa) = 0.02973229
#
# Stress axis : x y z
#
# Youngs Moduli (GPa) = 106.55211 51.76314 57.80967
#
# Poissons Ratio (x) = 0.26864 0.15703
# Poissons Ratio (y) = 0.55298 0.01322
# Poissons Ratio (z) = 0.28943 0.01184
#
# Static dielectric constant tensor:
#      x y z
#    x 1.682100 0.000000 0.000000 
#    y 0.000000 1.643200 0.000000 
#    z 0.000000 0.000000 1.702400 
# 
# From -- ./inp_files/15612.got.cif
#   From: 2010.05.17/outbox.cif.g08.bks.cpg/sg52_8_cif.got.tgz:15612.got - 2010.06.03 12:15:38.
