data_PCOD9413458
_publ_section_title
;
Structure prediction by ZEFSAII (Michael W. Deem and Ramdas Pophale) SiO2 
 PCOD9413458
Probable space group: P N N A
;
_chemical_formula_sum "Si O2"
_cell_formula_units_Z 28
_cell_length_a 9.095365
_cell_length_b 7.232806
_cell_length_c 17.172022
_cell_angle_alpha 90.000000
_cell_angle_beta 90.000000
_cell_angle_gamma 90.000000
_cell_volume 1129.661648
_symmetry_space_group_name_H-M "P N N A"
_symmetry_group_IT_number 52
_symmetry_cell_setting 'orthorhombic'
loop_
_space_group_symop_operation_xyz
x,y,z
1/2-x,-y,z
x,1/2-y,1/2-z
1/2-x,1/2+y,1/2-z
-x,-y,-z
1/2+x,y,-z
-x,1/2+y,1/2+z
1/2+x,1/2-y,1/2+z
loop_
_atom_site_type_symbol
_atom_site_label
_atom_site_fract_x
_atom_site_fract_y
_atom_site_fract_z
Si Si1 0.955976 0.333217 0.877011
Si Si2 0.973870 0.785365 0.558805
Si Si3 0.250000 0.500000 0.378472
Si Si4 0.233681 0.782375 0.832928
O O1 0.904663 0.543803 0.891749
O O2 0.109751 0.319466 0.831208
O O3 0.845436 0.174764 0.844737
O O4 0.006009 0.295644 0.966706
O O5 0.875657 0.607851 0.575069
O O6 0.135875 0.778611 0.595056
O O7 0.156066 0.750000 0.750000
O O8 0.250000 0.000000 0.841960
#
# Coordination Sequence:
#
# PCOD9413458 Si02
#       4
#     8   8   4   8
#     4  11  24  42  68 104 141 182 233 289 340 410
#     4  11  24  42  68 104 141 182 233 289 340 410
#     4  12  22  38  66  98 138 176 220 282 350 398
#     4  12  25  46  74  99 138 187 239 285 344 421
#
# _framework density 24.786183000000001
#
# number of rings (size 3 to 8) (size 9 to 14) (size 15 to 20)
#    0.000    0.571    2.857    6.000    4.000    4.571 
#    0.000    1.429    0.000    0.000    0.000    0.000 
#    0.000    0.000    0.000    0.000    0.000    0.000 
#
# Total GULP energy -156312.005879 kJ/mol
# GULP energy per Si atom -5582.571639 kJ/mol
# Density = 2.472977 g / cm^3
# Si number density = 24.786183 Si / 1000 Ang^3
#
#
#
# Elastic Constant Matrix: (Units=GPa)
#
#
# Indices 1 2 3 4 5 6 
#
# 1 92.5699 13.1186 5.3362 0.0000 0.0000 0.0000
# 2 13.1186 156.7360 -11.7054 0.0000 0.0000 0.0000
# 3 5.3362 -11.7054 75.8364 0.0000 0.0000 0.0000
# 4 0.0000 0.0000 0.0000 14.0266 0.0000 0.0000
# 5 0.0000 0.0000 0.0000 0.0000 10.2053 0.0000
# 6 0.0000 0.0000 0.0000 0.0000 0.0000 23.8059
#
#
#
# Elastic Compliance Matrix: (Units=1/GPa)
#
#
# Indices 1 2 3 4 5 6 
#
# 1 0.010996 -0.000990 -0.000926 0.000000 0.000000 0.000000
# 2 -0.000990 0.006544 0.001080 0.000000 0.000000 0.000000
# 3 -0.000926 0.001080 0.013418 0.000000 0.000000 0.000000
# 4 0.000000 0.000000 0.000000 0.071293 0.000000 0.000000
# 5 0.000000 0.000000 0.000000 0.000000 0.097989 0.000000
# 6 0.000000 0.000000 0.000000 0.000000 0.000000 0.042006
#
#
# Mechanical properties :
#
#
# Convention : Reuss Voigt Hill
#
# Bulk Modulus (GPa) = 34.14696 37.62678 35.88687
# Shear Modulus (GPa) = 19.70982 30.83375 25.27179
#
# Velocity S-wave (km/s) = 2.82298 3.53085 3.19657
# Velocity P-wave (km/s) = 4.94289 5.64234 5.30416
#
# Compressibility (1/GPa) = 0.02928519
#
# Stress axis : x y z
#
# Youngs Moduli (GPa) = 90.93969 152.82080 74.52610
#
# Poissons Ratio (x) = 0.15123 0.06905
# Poissons Ratio (y) = 0.08999 -0.08046
# Poissons Ratio (z) = 0.08426 -0.16499
#
# Static dielectric constant tensor:
#      x y z
#    x 2.109800 0.000000 0.000000 
#    y 0.000000 1.991840 0.000000 
#    z 0.000000 0.000000 1.841810 
# 
# From -- ./inp_files/30728.got.cif
#   From: 2010.05.17/outbox.cif.g08.bks.cpg/sg52_16_cif.got.tgz:30728.got - 2010.06.03 12:15:38.
