data_PCOD9413873
_publ_section_title
;
Structure prediction by ZEFSAII (Michael W. Deem and Ramdas Pophale) SiO2 
 PCOD9413873
Probable space group: P N N A
;
_chemical_formula_sum "Si O2"
_cell_formula_units_Z 24
_cell_length_a 11.108883
_cell_length_b 7.871493
_cell_length_c 9.818483
_cell_angle_alpha 90.000000
_cell_angle_beta 90.000000
_cell_angle_gamma 90.000000
_cell_volume 858.562467
_symmetry_space_group_name_H-M "P N N A"
_symmetry_group_IT_number 52
_symmetry_cell_setting 'orthorhombic'
loop_
_space_group_symop_operation_xyz
x,y,z
1/2-x,-y,z
x,1/2-y,1/2-z
1/2-x,1/2+y,1/2-z
-x,-y,-z
1/2+x,y,-z
-x,1/2+y,1/2+z
1/2+x,1/2-y,1/2+z
loop_
_atom_site_type_symbol
_atom_site_label
_atom_site_fract_x
_atom_site_fract_y
_atom_site_fract_z
Si Si1 0.238361 0.750000 0.250000
Si Si2 0.005795 0.573797 0.347978
Si Si3 0.689274 0.315458 0.045888
Si Si4 0.618878 0.750000 0.250000
O O1 0.313294 0.787314 0.385158
O O2 0.140478 0.609774 0.298479
O O3 0.932889 0.751616 0.381749
O O4 0.954362 0.425483 0.249565
O O5 0.000000 0.500000 0.500000
O O6 0.750000 0.500000 0.065298
O O7 0.792322 0.210576 0.123622
#
# Coordination Sequence:
#
# PCOD9413873 Si02
#       4
#     4   8   8   4
#     4  12  29  49  82 114 162 220 277 339 418 484
#     4  12  28  49  78 122 161 207 276 344 417 490
#     4  12  28  48  80 114 161 216 283 340 409 499
#     4  12  25  49  82 108 164 208 263 355 410 492
#
# _framework density 27.953703000000001
#
# number of rings (size 3 to 8) (size 9 to 14) (size 15 to 20)
#    0.000    0.000    3.333    6.000    9.333    2.667 
#    0.000    0.000    0.000    0.000    0.000    0.000 
#    0.000    0.000    0.000    0.000    0.000    0.000 
#
# Total GULP energy -134257.735947 kJ/mol
# GULP energy per Si atom -5594.072331 kJ/mol
# Density = 2.789008 g / cm^3
# Si number density = 27.953703 Si / 1000 Ang^3
#
#
#
# Elastic Constant Matrix: (Units=GPa)
#
#
# Indices 1 2 3 4 5 6 
#
# 1 132.1324 49.8427 53.6802 0.0000 0.0000 0.0000
# 2 49.8427 155.9266 20.4981 0.0000 0.0000 0.0000
# 3 53.6802 20.4981 202.9850 0.0000 0.0000 0.0000
# 4 0.0000 0.0000 0.0000 47.3875 0.0000 0.0000
# 5 0.0000 0.0000 0.0000 0.0000 33.1089 0.0000
# 6 0.0000 0.0000 0.0000 0.0000 0.0000 48.2687
#
#
#
# Elastic Compliance Matrix: (Units=1/GPa)
#
#
# Indices 1 2 3 4 5 6 
#
# 1 0.009514 -0.002747 -0.002239 0.000000 0.000000 0.000000
# 2 -0.002747 0.007293 -0.000010 0.000000 0.000000 0.000000
# 3 -0.002239 -0.000010 0.005519 0.000000 0.000000 0.000000
# 4 0.000000 0.000000 0.000000 0.021103 0.000000 0.000000
# 5 0.000000 0.000000 0.000000 0.000000 0.030203 0.000000
# 6 0.000000 0.000000 0.000000 0.000000 0.000000 0.020717
#
#
# Mechanical properties :
#
#
# Convention : Reuss Voigt Hill
#
# Bulk Modulus (GPa) = 81.06998 82.12066 81.59532
# Shear Modulus (GPa) = 46.10342 50.22119 48.16231
#
# Velocity S-wave (km/s) = 4.06554 4.24321 4.15532
# Velocity P-wave (km/s) = 7.14861 7.31079 7.23015
#
# Compressibility (1/GPa) = 0.01233502
#
# Stress axis : x y z
#
# Youngs Moduli (GPa) = 105.11088 137.12468 181.17634
#
# Poissons Ratio (x) = 0.37666 0.40558
# Poissons Ratio (y) = 0.28872 0.00182
# Poissons Ratio (z) = 0.23530 0.00137
#
# Static dielectric constant tensor:
#      x y z
#    x 2.105860 0.000000 0.000000 
#    y 0.000000 2.423960 0.000000 
#    z 0.000000 0.000000 2.231570 
# 
# From -- ./inp_files/9376.got.cif
#   From: 2010.05.17/outbox.cif.g08.bks.cpg/sg52_5_cif.got.tgz:9376.got - 2010.06.03 12:15:38.
