data_PCOD9413214
_publ_section_title
;
Structure prediction by ZEFSAII (Michael W. Deem and Ramdas Pophale) SiO2 
 PCOD9413214
Probable space group: P N N A
;
_chemical_formula_sum "Si O2"
_cell_formula_units_Z 40
_cell_length_a 23.736045
_cell_length_b 8.201351
_cell_length_c 10.417522
_cell_angle_alpha 90.000000
_cell_angle_beta 90.000000
_cell_angle_gamma 90.000000
_cell_volume 2027.954385
_symmetry_space_group_name_H-M "P N N A"
_symmetry_group_IT_number 52
_symmetry_cell_setting 'orthorhombic'
loop_
_space_group_symop_operation_xyz
x,y,z
1/2-x,-y,z
x,1/2-y,1/2-z
1/2-x,1/2+y,1/2-z
-x,-y,-z
1/2+x,y,-z
-x,1/2+y,1/2+z
1/2+x,1/2-y,1/2+z
loop_
_atom_site_type_symbol
_atom_site_label
_atom_site_fract_x
_atom_site_fract_y
_atom_site_fract_z
Si Si1 0.484283 0.441187 0.139671
Si Si2 0.122899 0.716012 0.398341
Si Si3 0.258711 0.192503 0.399053
Si Si4 0.913234 0.750000 0.250000
Si Si5 0.853882 0.651707 0.512388
Si Si6 0.576156 0.250000 0.750000
O O1 0.438535 0.299307 0.103823
O O2 0.542197 0.385277 0.203938
O O3 0.458986 0.583396 0.230493
O O4 0.500000 0.500000 0.000000
O O5 0.137382 0.750000 0.250000
O O6 0.179034 0.790554 0.461369
O O7 0.127764 0.530887 0.445749
O O8 0.252784 0.250000 0.250000
O O9 0.211587 0.299817 0.472486
O O10 0.250000 0.000000 0.399562
O O11 0.876786 0.693665 0.371674
O O12 0.885622 0.753844 0.623037
#
# Coordination Sequence:
#
# PCOD9413214 Si02
#       6
#     8   8   8   4   8   4
#     4  12  25  42  67 102 136 183 229 286 354 414
#     4  11  22  41  67 101 132 172 235 293 342 405
#     4  11  22  39  70 103 131 171 236 296 345 404
#     4  12  28  44  65  97 152 182 224 282 358 436
#     4  12  24  43  67 101 138 182 226 287 356 418
#     4  12  22  40  69  95 134 174 238 284 334 412
#
# _framework density 19.724309999999999
#
# number of rings (size 3 to 8) (size 9 to 14) (size 15 to 20)
#    0.000    0.400    6.000    4.200    2.800    1.600 
#    0.000    2.000    0.000    0.000    0.000    0.000 
#    0.000    0.000    0.000    0.000    0.000    0.000 
#
# Total GULP energy -222689.215052 kJ/mol
# GULP energy per Si atom -5567.230376 kJ/mol
# Density = 1.967942 g / cm^3
# Si number density = 19.724310 Si / 1000 Ang^3
#
#
#
# Elastic Constant Matrix: (Units=GPa)
#
#
# Indices 1 2 3 4 5 6 
#
# 1 111.9989 30.0809 40.4682 0.0000 0.0000 0.0000
# 2 30.0809 88.7880 16.6372 0.0000 0.0000 0.0000
# 3 40.4682 16.6372 112.7785 0.0000 0.0000 0.0000
# 4 0.0000 0.0000 0.0000 26.1958 0.0000 0.0000
# 5 0.0000 0.0000 0.0000 0.0000 11.0530 0.0000
# 6 0.0000 0.0000 0.0000 0.0000 0.0000 37.0710
#
#
#
# Elastic Compliance Matrix: (Units=1/GPa)
#
#
# Indices 1 2 3 4 5 6 
#
# 1 0.011020 -0.003078 -0.003500 0.000000 0.000000 0.000000
# 2 -0.003078 0.012442 -0.000731 0.000000 0.000000 0.000000
# 3 -0.003500 -0.000731 0.010231 0.000000 0.000000 0.000000
# 4 0.000000 0.000000 0.000000 0.038174 0.000000 0.000000
# 5 0.000000 0.000000 0.000000 0.000000 0.090473 0.000000
# 6 0.000000 0.000000 0.000000 0.000000 0.000000 0.026975
#
#
# Mechanical properties :
#
#
# Convention : Reuss Voigt Hill
#
# Bulk Modulus (GPa) = 52.42438 54.21533 53.31985
# Shear Modulus (GPa) = 23.77642 29.95589 26.86616
#
# Velocity S-wave (km/s) = 3.47571 3.90132 3.69465
# Velocity P-wave (km/s) = 6.53786 6.91664 6.72992
#
# Compressibility (1/GPa) = 0.01907510
#
# Stress axis : x y z
#
# Youngs Moduli (GPa) = 90.74413 80.36986 97.74402
#
# Poissons Ratio (x) = 0.24735 0.34213
# Poissons Ratio (y) = 0.27928 0.07147
# Poissons Ratio (z) = 0.31763 0.05877
#
# Static dielectric constant tensor:
#      x y z
#    x 1.790770 0.000000 0.000000 
#    y 0.000000 1.755840 0.000000 
#    z 0.000000 0.000000 1.655970 
# 
# From -- ./inp_files/14008.got.cif
#   From: 2010.05.17/outbox.cif.g08.bks.cpg/sg52_8_cif.got.tgz:14008.got - 2010.06.03 12:15:38.
