data_PCOD9413989
_publ_section_title
;
Structure prediction by ZEFSAII (Michael W. Deem and Ramdas Pophale) SiO2 
 PCOD9413989
Probable space group: P N N A
;
_chemical_formula_sum "Si O2"
_cell_formula_units_Z 48
_cell_length_a 9.000000
_cell_length_b 30.000000
_cell_length_c 9.000000
_cell_angle_alpha 90.000000
_cell_angle_beta 90.000000
_cell_angle_gamma 90.000000
_cell_volume 2430.000000
_symmetry_space_group_name_H-M "P N N A"
_symmetry_group_IT_number 52
_symmetry_cell_setting 'orthorhombic'
loop_
_space_group_symop_operation_xyz
x,y,z
1/2-x,-y,z
x,1/2-y,1/2-z
1/2-x,1/2+y,1/2-z
-x,-y,-z
1/2+x,y,-z
-x,1/2+y,1/2+z
1/2+x,1/2-y,1/2+z
loop_
_atom_site_type_symbol
_atom_site_label
_atom_site_fract_x
_atom_site_fract_y
_atom_site_fract_z
Si Si1 0.614028 0.966832 0.833745
Si Si2 0.886555 0.032030 0.165815
Si Si3 0.732526 0.882139 0.662022
Si Si4 0.590765 0.706991 0.339827
Si Si5 0.734895 0.792900 0.840794
Si Si6 0.088898 0.881637 0.658319
O O1 0.663104 0.923376 0.749474
O O2 0.750000 0.000000 0.851162
O O3 0.499582 0.999156 0.751788
O O4 0.555496 0.955258 0.000139
O O5 0.850840 0.075973 0.253756
O O6 0.750000 0.000000 0.146362
O O7 0.699261 0.837229 0.750718
O O8 0.660191 0.879502 0.501844
O O9 0.910494 0.886728 0.651329
O O10 0.643389 0.750000 0.250000
O O11 0.663286 0.705518 0.499287
O O12 0.412882 0.709936 0.356007
O O13 0.624875 0.662855 0.247856
O O14 0.682470 0.750000 0.750000
#
# Coordination Sequence:
#
# PCOD9413989 Si02
#       6
#     8   8   8   8   8   8
#     4  10  20  40  60  83 117 154 195 248 294 345
#     4  10  22  38  62  86 114 156 200 245 298 354
#     4  11  24  39  59  86 121 157 197 245 292 349
#     4  10  22  41  65  91 122 154 195 242 291 351
#     4  10  22  41  64  91 122 155 194 242 293 348
#     4  11  24  40  57  88 121 156 199 243 292 350
#
# _framework density 19.753086
#
# number of rings (size 3 to 8) (size 9 to 14) (size 15 to 20)
#    0.000    1.667    1.667    2.000    2.333    3.333 
#    0.000    0.000    0.000    0.000    0.000    0.000 
#    0.000    0.000    0.000    0.000    0.000    0.000 
#
# Total GULP energy -267739.321118 kJ/mol
# GULP energy per Si atom -5577.902523 kJ/mol
# Density = 1.970813 g / cm^3
# Si number density = 19.753086 Si / 1000 Ang^3
#
#
#
# Elastic Constant Matrix: (Units=GPa)
#
#
# Indices 1 2 3 4 5 6 
#
# 1 -1.7625 39.9544 20.7799 0.0000 0.0000 0.0000
# 2 39.9544 152.1339 90.2039 0.0000 0.0000 0.0000
# 3 20.7799 90.2039 145.8393 0.0000 0.0000 0.0000
# 4 0.0000 0.0000 0.0000 58.0971 0.0000 0.0000
# 5 0.0000 0.0000 0.0000 0.0000 14.7200 0.0000
# 6 0.0000 0.0000 0.0000 0.0000 0.0000 20.8855
#
#
#
# Elastic Compliance Matrix: (Units=1/GPa)
#
#
# Indices 1 2 3 4 5 6 
#
# 1 -0.080990 0.022783 -0.002552 0.000000 0.000000 0.000000
# 2 0.022783 0.003971 -0.005702 0.000000 0.000000 0.000000
# 3 -0.002552 -0.005702 0.010747 0.000000 0.000000 0.000000
# 4 0.000000 0.000000 0.000000 0.017213 0.000000 0.000000
# 5 0.000000 0.000000 0.000000 0.000000 0.067935 0.000000
# 6 0.000000 0.000000 0.000000 0.000000 0.000000 0.047880
#
#
# Mechanical properties :
#
#
# Convention : Reuss Voigt Hill
#
# Bulk Modulus (GPa) = -26.87192 66.45413 19.79110
# Shear Modulus (GPa) = 197.68034 28.42536 113.05285
#
# Velocity S-wave (km/s) = 10.01464 3.79758 7.57346
# Velocity P-wave (km/s) = 10.95858 7.27628 9.30147
#
# Compressibility (1/GPa) = -0.03721356
#
# Stress axis : x y z
#
# Youngs Moduli (GPa) = -12.34726 251.84748 93.04624
#
# Poissons Ratio (x) = -5.73787 0.23745
# Poissons Ratio (y) = 0.28131 0.53056
# Poissons Ratio (z) = -0.03151 1.43608
#
# Static dielectric constant tensor:
#      x y z
#    x 1.678950 0.000000 0.000000 
#    y 0.000000 1.508040 0.000000 
#    z 0.000000 0.000000 1.652210 
# 
# From -- ./inp_files/7688.got.cif
#   From: 2010.05.17/outbox.ucp.g08.bks.cvg/sg52_4_cif.got.tgz:7688.got - 2010.06.11 16:30:12.
