data_PCOD9413049
_publ_section_title
;
Structure prediction by ZEFSAII (Michael W. Deem and Ramdas Pophale) SiO2 
 PCOD9413049
Probable space group: P N N A
;
_chemical_formula_sum "Si O2"
_cell_formula_units_Z 64
_cell_length_a 18.306654
_cell_length_b 10.821823
_cell_length_c 15.689112
_cell_angle_alpha 90.000000
_cell_angle_beta 90.000000
_cell_angle_gamma 90.000000
_cell_volume 3108.191462
_symmetry_space_group_name_H-M "P N N A"
_symmetry_group_IT_number 52
_symmetry_cell_setting 'orthorhombic'
loop_
_space_group_symop_operation_xyz
x,y,z
1/2-x,-y,z
x,1/2-y,1/2-z
1/2-x,1/2+y,1/2-z
-x,-y,-z
1/2+x,y,-z
-x,1/2+y,1/2+z
1/2+x,1/2-y,1/2+z
loop_
_atom_site_type_symbol
_atom_site_label
_atom_site_fract_x
_atom_site_fract_y
_atom_site_fract_z
Si Si1 0.066866 0.939602 0.818096
Si Si2 0.107562 0.423174 0.130715
Si Si3 0.218876 0.256841 0.051604
Si Si4 0.331113 0.943519 0.941490
Si Si5 0.428958 0.434126 0.412279
Si Si6 0.111981 0.827200 0.454143
Si Si7 0.449149 0.344536 0.869257
Si Si8 0.821334 0.559039 0.699731
O O1 0.071991 0.797011 0.848678
O O2 0.059870 0.927297 0.715868
O O3 0.137055 0.016164 0.850711
O O4 0.997110 0.000834 0.866042
O O5 0.175543 0.379209 0.075131
O O6 0.098628 0.568588 0.116177
O O7 0.126574 0.390721 0.227731
O O8 0.034444 0.351647 0.107131
O O9 0.304728 0.279609 0.046034
O O10 0.200803 0.158565 0.128058
O O11 0.183705 0.197294 0.967000
O O12 0.250000 0.000000 0.956883
O O13 0.393474 0.995690 0.006371
O O14 0.438813 0.292457 0.438081
O O15 0.363553 0.447442 0.344996
O O16 0.094688 0.882924 0.546944
O O17 0.750000 0.500000 0.741553
#
# Coordination Sequence:
#
# PCOD9413049 Si02
#       8
#     8   8   8   8   8   8   8   8
#     4  11  23  40  69  97 122 168 220 282 332 376
#     4  12  26  39  60  94 133 181 215 258 333 410
#     4  11  22  39  65  95 127 166 223 270 326 394
#     4  11  20  39  67  98 125 157 219 283 332 380
#     4  11  20  38  63  96 127 161 212 268 331 386
#     4  12  24  43  63  90 136 183 212 261 335 407
#     4  11  24  44  63  93 133 169 223 267 328 400
#     4  11  20  38  61  96 134 159 211 279 328 383
#
# _framework density 20.590751999999998
#
# number of rings (size 3 to 8) (size 9 to 14) (size 15 to 20)
#    0.000    0.750    5.000    4.500    3.500    0.500 
#    0.000    1.250    0.000    1.500    0.000    0.000 
#    0.000    0.000    0.000    0.000    0.000    0.000 
#
# Total GULP energy -357329.052043 kJ/mol
# GULP energy per Si atom -5583.266438 kJ/mol
# Density = 2.054389 g / cm^3
# Si number density = 20.590752 Si / 1000 Ang^3
#
#
#
# Elastic Constant Matrix: (Units=GPa)
#
#
# Indices 1 2 3 4 5 6 
#
# 1 71.6563 3.2392 46.3916 0.0000 0.0000 0.0000
# 2 3.2392 32.1288 17.6597 0.0000 0.0000 0.0000
# 3 46.3916 17.6597 97.0147 0.0000 0.0000 0.0000
# 4 0.0000 0.0000 0.0000 21.8748 0.0000 0.0000
# 5 0.0000 0.0000 0.0000 0.0000 29.8817 0.0000
# 6 0.0000 0.0000 0.0000 0.0000 0.0000 18.1406
#
#
#
# Elastic Compliance Matrix: (Units=1/GPa)
#
#
# Indices 1 2 3 4 5 6 
#
# 1 0.020604 0.003709 -0.010528 0.000000 0.000000 0.000000
# 2 0.003709 0.035253 -0.008191 0.000000 0.000000 0.000000
# 3 -0.010528 -0.008191 0.016833 0.000000 0.000000 0.000000
# 4 0.000000 0.000000 0.000000 0.045715 0.000000 0.000000
# 5 0.000000 0.000000 0.000000 0.000000 0.033465 0.000000
# 6 0.000000 0.000000 0.000000 0.000000 0.000000 0.055125
#
#
# Mechanical properties :
#
#
# Convention : Reuss Voigt Hill
#
# Bulk Modulus (GPa) = 23.43513 37.26453 30.34983
# Shear Modulus (GPa) = 19.90156 22.88004 21.39080
#
# Velocity S-wave (km/s) = 3.11228 3.33705 3.22662
# Velocity P-wave (km/s) = 4.93165 5.74325 5.35285
#
# Compressibility (1/GPa) = 0.04267097
#
# Stress axis : x y z
#
# Youngs Moduli (GPa) = 48.53513 28.36647 59.40726
#
# Poissons Ratio (x) = -0.10522 0.62542
# Poissons Ratio (y) = -0.18003 0.48660
# Poissons Ratio (z) = 0.51096 0.23235
#
# Static dielectric constant tensor:
#      x y z
#    x 1.738380 0.000000 0.000000 
#    y 0.000000 1.744460 0.000000 
#    z 0.000000 0.000000 1.775430 
# 
# From -- ./inp_files/28296.got.cif
#   From: 2010.05.17/outbox.cif.g08.bks.cpg/sg52_15_cif.got.tgz:28296.got - 2010.06.03 12:15:38.
