data_PCOD9413474
_publ_section_title
;
Structure prediction by ZEFSAII (Michael W. Deem and Ramdas Pophale) SiO2 
 PCOD9413474
Probable space group: P N N A
;
_chemical_formula_sum "Si O2"
_cell_formula_units_Z 24
_cell_length_a 12.929559
_cell_length_b 7.003430
_cell_length_c 12.119383
_cell_angle_alpha 90.000000
_cell_angle_beta 90.000000
_cell_angle_gamma 90.000000
_cell_volume 1097.425418
_symmetry_space_group_name_H-M "P N N A"
_symmetry_group_IT_number 52
_symmetry_cell_setting 'orthorhombic'
loop_
_space_group_symop_operation_xyz
x,y,z
1/2-x,-y,z
x,1/2-y,1/2-z
1/2-x,1/2+y,1/2-z
-x,-y,-z
1/2+x,y,-z
-x,1/2+y,1/2+z
1/2+x,1/2-y,1/2+z
loop_
_atom_site_type_symbol
_atom_site_label
_atom_site_fract_x
_atom_site_fract_y
_atom_site_fract_z
Si Si1 0.841179 0.630731 0.499923
Si Si2 0.526269 0.915084 0.838242
Si Si3 0.250000 0.500000 0.926781
Si Si4 0.381397 0.250000 0.750000
O O1 0.750000 0.500000 0.445348
O O2 0.947584 0.659644 0.432020
O O3 0.802859 0.846282 0.506782
O O4 0.873704 0.507788 0.605833
O O5 0.546522 0.750000 0.750000
O O6 0.457484 0.086439 0.792073
O O7 0.314866 0.362898 0.843029
#
# Coordination Sequence:
#
# PCOD9413474 Si02
#       4
#     8   8   4   4
#     4  11  24  43  68 100 141 183 236 294 353 421
#     4  11  24  43  68 101 139 181 237 295 355 417
#     4  12  22  38  70 102 136 190 242 292 344 414
#     4  12  22  38  68 100 134 182 238 292 340 422
#
# _framework density 21.869365999999999
#
# number of rings (size 3 to 8) (size 9 to 14) (size 15 to 20)
#    0.000    0.667    6.667    2.000    0.000    4.000 
#    3.000    0.000    0.000    0.000    0.000    0.000 
#    0.000    0.000    0.000    0.000    0.000    0.000 
#
# Total GULP energy -133805.178862 kJ/mol
# GULP energy per Si atom -5575.215786 kJ/mol
# Density = 2.181959 g / cm^3
# Si number density = 21.869366 Si / 1000 Ang^3
#
#
#
# Elastic Constant Matrix: (Units=GPa)
#
#
# Indices 1 2 3 4 5 6 
#
# 1 83.0665 59.9798 27.8120 0.0000 0.0000 0.0000
# 2 59.9798 212.5125 60.2858 0.0000 0.0000 0.0000
# 3 27.8120 60.2858 65.2950 0.0000 0.0000 0.0000
# 4 0.0000 0.0000 0.0000 34.0253 0.0000 0.0000
# 5 0.0000 0.0000 0.0000 0.0000 -5.3976 0.0000
# 6 0.0000 0.0000 0.0000 0.0000 0.0000 -42.0194
#
#
#
# Elastic Compliance Matrix: (Units=1/GPa)
#
#
# Indices 1 2 3 4 5 6 
#
# 1 0.015694 -0.003432 -0.003516 0.000000 0.000000 0.000000
# 2 -0.003432 0.007126 -0.005117 0.000000 0.000000 0.000000
# 3 -0.003516 -0.005117 0.021538 0.000000 0.000000 0.000000
# 4 0.000000 0.000000 0.000000 0.029390 0.000000 0.000000
# 5 0.000000 0.000000 0.000000 0.000000 -0.185268 0.000000
# 6 0.000000 0.000000 0.000000 0.000000 0.000000 -0.023799
#
#
# Mechanical properties :
#
#
# Convention : Reuss Voigt Hill
#
# Bulk Modulus (GPa) = 49.43999 73.00325 61.22162
# Shear Modulus (GPa) = -47.87143 11.50810 -18.18167
#
# Velocity S-wave (km/s) = -4.68372 2.29644 -2.88649
# Velocity P-wave (km/s) = 2.56780 6.36282 4.11654
#
# Compressibility (1/GPa) = 0.02022654
#
# Stress axis : x y z
#
# Youngs Moduli (GPa) = 63.71886 140.33110 46.43054
#
# Poissons Ratio (x) = 0.48163 0.16325
# Poissons Ratio (y) = 0.21869 0.23761
# Poissons Ratio (z) = 0.22403 0.71814
#
# Static dielectric constant tensor:
#      x y z
#    x 1.865020 0.000000 0.000000 
#    y 0.000000 1.733720 0.000000 
#    z 0.000000 0.000000 1.915500 
# 
# From -- ./inp_files/26486.got.cif
#   From: 2010.05.17/outbox.cif.g08.bks.cpg/sg52_14_cif.got.tgz:26486.got - 2010.06.03 12:15:38.
