data_PCOD9413617
_publ_section_title
;
Structure prediction by ZEFSAII (Michael W. Deem and Ramdas Pophale) SiO2 
 PCOD9413617
Probable space group: P N N A
;
_chemical_formula_sum "Si O2"
_cell_formula_units_Z 40
_cell_length_a 26.564052
_cell_length_b 8.270769
_cell_length_c 7.993703
_cell_angle_alpha 90.000000
_cell_angle_beta 90.000000
_cell_angle_gamma 90.000000
_cell_volume 1756.257619
_symmetry_space_group_name_H-M "P N N A"
_symmetry_group_IT_number 52
_symmetry_cell_setting 'orthorhombic'
loop_
_space_group_symop_operation_xyz
x,y,z
1/2-x,-y,z
x,1/2-y,1/2-z
1/2-x,1/2+y,1/2-z
-x,-y,-z
1/2+x,y,-z
-x,1/2+y,1/2+z
1/2+x,1/2-y,1/2+z
loop_
_atom_site_type_symbol
_atom_site_label
_atom_site_fract_x
_atom_site_fract_y
_atom_site_fract_z
Si Si1 0.250000 0.500000 0.458011
Si Si2 0.506324 0.750000 0.750000
Si Si3 0.432405 0.769397 0.055828
Si Si4 0.347446 0.908499 0.865071
Si Si5 0.090302 0.590634 0.066914
Si Si6 0.317267 0.250000 0.250000
Si Si7 0.889064 0.250000 0.250000
O O1 0.290836 0.593002 0.568850
O O2 0.282149 0.373722 0.349376
O O3 0.473225 0.701829 0.589634
O O4 0.545044 0.610567 0.802533
O O5 0.447601 0.750000 0.250000
O O6 0.409851 0.592991 0.014200
O O7 0.386858 0.893325 0.020107
O O8 0.355293 0.750000 0.750000
O O9 0.357756 0.085272 0.783957
O O10 0.143999 0.649835 0.133900
O O11 0.078302 0.706486 0.911158
#
# Coordination Sequence:
#
# PCOD9413617 Si02
#       7
#     4   4   8   8   8   4   4
#     4  12  28  44  78 112 146 204 260 330 396 472
#     4  11  26  48  71 122 154 211 266 311 410 468
#     4  12  26  48  78 109 157 207 259 327 389 477
#     4  12  27  50  75 110 152 197 264 319 395 469
#     4  11  25  48  75 108 158 204 258 323 394 469
#     4  11  26  46  70 109 151 198 260 321 390 470
#     4  12  24  50  77 105 155 203 248 334 380 460
#
# _framework density 22.775701999999999
#
# number of rings (size 3 to 8) (size 9 to 14) (size 15 to 20)
#    0.000    0.400    5.000    1.800    9.800    0.800 
#    0.000    0.000    0.000    0.000    0.000    0.000 
#    0.000    0.000    0.000    0.000    0.000    0.000 
#
# Total GULP energy -223649.757991 kJ/mol
# GULP energy per Si atom -5591.243950 kJ/mol
# Density = 2.272386 g / cm^3
# Si number density = 22.775702 Si / 1000 Ang^3
#
#
#
# Elastic Constant Matrix: (Units=GPa)
#
#
# Indices 1 2 3 4 5 6 
#
# 1 143.6489 38.8128 73.9491 0.0000 0.0000 0.0000
# 2 38.8128 133.1511 49.6393 0.0000 0.0000 0.0000
# 3 73.9491 49.6393 152.3895 0.0000 0.0000 0.0000
# 4 0.0000 0.0000 0.0000 33.9359 0.0000 0.0000
# 5 0.0000 0.0000 0.0000 0.0000 46.2591 0.0000
# 6 0.0000 0.0000 0.0000 0.0000 0.0000 -12.5201
#
#
#
# Elastic Compliance Matrix: (Units=1/GPa)
#
#
# Indices 1 2 3 4 5 6 
#
# 1 0.009442 -0.001188 -0.004195 0.000000 0.000000 0.000000
# 2 -0.001188 0.008698 -0.002257 0.000000 0.000000 0.000000
# 3 -0.004195 -0.002257 0.009333 0.000000 0.000000 0.000000
# 4 0.000000 0.000000 0.000000 0.029467 0.000000 0.000000
# 5 0.000000 0.000000 0.000000 0.000000 0.021617 0.000000
# 6 0.000000 0.000000 0.000000 0.000000 0.000000 -0.079871
#
#
# Mechanical properties :
#
#
# Convention : Reuss Voigt Hill
#
# Bulk Modulus (GPa) = 82.01314 83.77688 82.89501
# Shear Modulus (GPa) = 277.32127 31.32086 154.32107
#
# Velocity S-wave (km/s) = 11.04655 3.71238 8.24039
# Velocity P-wave (km/s) = 14.09925 7.43229 11.27004
#
# Compressibility (1/GPa) = 0.01219317
#
# Stress axis : x y z
#
# Youngs Moduli (GPa) = 105.91073 114.96963 107.15004
#
# Poissons Ratio (x) = 0.13664 0.44946
# Poissons Ratio (y) = 0.12587 0.24179
# Poissons Ratio (z) = 0.44426 0.25943
#
# Static dielectric constant tensor:
#      x y z
#    x 1.798420 0.000000 0.000000 
#    y 0.000000 1.840270 0.000000 
#    z 0.000000 0.000000 1.940860 
# 
# From -- ./inp_files/14889.got.cif
#   From: 2010.05.17/outbox.cif.g08.bks.cpg/sg52_8_cif.got.tgz:14889.got - 2010.06.03 12:15:38.
