data_PCOD9413062
_publ_section_title
;
Structure prediction by ZEFSAII (Michael W. Deem and Ramdas Pophale) SiO2 
 PCOD9413062
Probable space group: P N N A
;
_chemical_formula_sum "Si O2"
_cell_formula_units_Z 56
_cell_length_a 21.367367
_cell_length_b 9.597741
_cell_length_c 14.330023
_cell_angle_alpha 90.000000
_cell_angle_beta 90.000000
_cell_angle_gamma 90.000000
_cell_volume 2938.778967
_symmetry_space_group_name_H-M "P N N A"
_symmetry_group_IT_number 52
_symmetry_cell_setting 'orthorhombic'
loop_
_space_group_symop_operation_xyz
x,y,z
1/2-x,-y,z
x,1/2-y,1/2-z
1/2-x,1/2+y,1/2-z
-x,-y,-z
1/2+x,y,-z
-x,1/2+y,1/2+z
1/2+x,1/2-y,1/2+z
loop_
_atom_site_type_symbol
_atom_site_label
_atom_site_fract_x
_atom_site_fract_y
_atom_site_fract_z
Si Si1 0.427355 0.416229 0.750243
Si Si2 0.428805 0.487949 0.533502
Si Si3 0.745474 0.168915 0.657660
Si Si4 0.325048 0.007501 0.608863
Si Si5 0.967047 0.987076 0.600573
Si Si6 0.869263 0.722405 0.976274
Si Si7 0.870168 0.212847 0.556626
O O1 0.434510 0.250000 0.750000
O O2 0.429511 0.471370 0.645188
O O3 0.360869 0.452270 0.797285
O O4 0.482441 0.472881 0.817842
O O5 0.500000 0.500000 0.500000
O O6 0.391217 0.624212 0.501347
O O7 0.397923 0.352904 0.485812
O O8 0.725778 0.250000 0.750000
O O9 0.695135 0.206576 0.579292
O O10 0.812343 0.228228 0.625929
O O11 0.750000 0.000000 0.667053
O O12 0.356238 0.865938 0.569991
O O13 0.250000 0.000000 0.616475
O O14 0.344018 0.119803 0.529475
O O15 0.923339 0.122332 0.607878
O O16 0.921764 0.853898 0.587383
O O17 0.000000 0.000000 0.500000
#
# Coordination Sequence:
#
# PCOD9413062 Si02
#       7
#     8   8   8   8   8   8   8
#     4  12  24  43  70 103 133 177 240 282 339 418
#     4  12  28  44  65 105 142 176 230 294 344 406
#     4  12  26  46  73 104 138 180 236 280 339 421
#     4  11  21  46  74  94 130 186 225 274 350 422
#     4  11  20  41  75  93 130 187 225 276 350 402
#     4  11  23  44  70  98 137 182 221 281 354 403
#     4  11  22  46  69  93 141 185 217 279 353 400
#
# _framework density 19.055534999999999
#
# number of rings (size 3 to 8) (size 9 to 14) (size 15 to 20)
#    0.000    0.571    8.571    1.714    2.000    3.429 
#    5.143    0.000    0.000    0.000    0.000    0.000 
#    0.000    0.000    0.000    0.000    0.000    0.000 
#
# Total GULP energy -313039.161939 kJ/mol
# GULP energy per Si atom -5589.985035 kJ/mol
# Density = 1.901216 g / cm^3
# Si number density = 19.055535 Si / 1000 Ang^3
#
#
#
# Elastic Constant Matrix: (Units=GPa)
#
#
# Indices 1 2 3 4 5 6 
#
# 1 113.4778 59.4022 16.8251 0.0000 0.0000 0.0000
# 2 59.4022 142.9958 45.9951 0.0000 0.0000 0.0000
# 3 16.8251 45.9951 75.3485 0.0000 0.0000 0.0000
# 4 0.0000 0.0000 0.0000 28.1979 0.0000 0.0000
# 5 0.0000 0.0000 0.0000 0.0000 102.1109 0.0000
# 6 0.0000 0.0000 0.0000 0.0000 0.0000 14.5579
#
#
#
# Elastic Compliance Matrix: (Units=1/GPa)
#
#
# Indices 1 2 3 4 5 6 
#
# 1 0.011272 -0.004819 0.000425 0.000000 0.000000 0.000000
# 2 -0.004819 0.010762 -0.005493 0.000000 0.000000 0.000000
# 3 0.000425 -0.005493 0.016530 0.000000 0.000000 0.000000
# 4 0.000000 0.000000 0.000000 0.035464 0.000000 0.000000
# 5 0.000000 0.000000 0.000000 0.000000 0.009793 0.000000
# 6 0.000000 0.000000 0.000000 0.000000 0.000000 0.068691
#
#
# Mechanical properties :
#
#
# Convention : Reuss Voigt Hill
#
# Bulk Modulus (GPa) = 53.22364 64.02964 58.62664
# Shear Modulus (GPa) = 28.00320 42.94666 35.47493
#
# Velocity S-wave (km/s) = 3.83764 4.75253 4.31938
# Velocity P-wave (km/s) = 6.90131 7.98686 7.46385
#
# Compressibility (1/GPa) = 0.01878864
#
# Stress axis : x y z
#
# Youngs Moduli (GPa) = 88.71540 92.91841 60.49543
#
# Poissons Ratio (x) = 0.44779 -0.02570
# Poissons Ratio (y) = 0.42753 0.33233
# Poissons Ratio (z) = -0.03768 0.51044
#
# Static dielectric constant tensor:
#      x y z
#    x 1.680460 0.000000 0.000000 
#    y 0.000000 1.457750 0.000000 
#    z 0.000000 0.000000 1.679540 
# 
# From -- ./inp_files/28757.got.cif
#   From: 2010.05.17/outbox.cif.g08.bks.cpg/sg52_15_cif.got.tgz:28757.got - 2010.06.03 12:15:38.
