data_PCOD9413337
_publ_section_title
;
Structure prediction by ZEFSAII (Michael W. Deem and Ramdas Pophale) SiO2 
 PCOD9413337
Probable space group: P N N A
;
_chemical_formula_sum "Si O2"
_cell_formula_units_Z 48
_cell_length_a 14.259264
_cell_length_b 8.173245
_cell_length_c 20.631084
_cell_angle_alpha 90.000000
_cell_angle_beta 90.000000
_cell_angle_gamma 90.000000
_cell_volume 2404.438507
_symmetry_space_group_name_H-M "P N N A"
_symmetry_group_IT_number 52
_symmetry_cell_setting 'orthorhombic'
loop_
_space_group_symop_operation_xyz
x,y,z
1/2-x,-y,z
x,1/2-y,1/2-z
1/2-x,1/2+y,1/2-z
-x,-y,-z
1/2+x,y,-z
-x,1/2+y,1/2+z
1/2+x,1/2-y,1/2+z
loop_
_atom_site_type_symbol
_atom_site_label
_atom_site_fract_x
_atom_site_fract_y
_atom_site_fract_z
Si Si1 0.283494 0.814995 0.021155
Si Si2 0.469858 0.802208 0.430950
Si Si3 0.397599 0.326608 0.679013
Si Si4 0.086527 0.682045 0.059832
Si Si5 0.712494 0.315863 0.121887
Si Si6 0.527607 0.303518 0.320019
O O1 0.375893 0.804474 0.064775
O O2 0.196255 0.714455 0.049921
O O3 0.250000 0.000000 0.012447
O O4 0.309297 0.739329 0.951288
O O5 0.531976 0.768237 0.368525
O O6 0.533644 0.764356 0.493906
O O7 0.437300 0.990508 0.432973
O O8 0.398899 0.250000 0.750000
O O9 0.293547 0.300608 0.650243
O O10 0.432422 0.512833 0.680515
O O11 0.045334 0.775621 0.121902
O O12 0.750000 0.500000 0.121274
O O13 0.618605 0.306403 0.163621
O O14 0.489948 0.250000 0.250000
#
# Coordination Sequence:
#
# PCOD9413337 Si02
#       6
#     8   8   8   8   8   8
#     4  12  24  39  64  97 128 163 211 261 313 369
#     4  11  23  41  66  93 127 167 210 258 312 371
#     4  12  25  42  64  93 129 168 211 259 316 377
#     4  11  23  41  66  93 127 167 210 258 312 371
#     4  12  23  39  62  93 130 167 208 259 317 373
#     4  12  25  42  64  93 129 168 211 259 316 377
#
# _framework density 19.963080999999999
#
# number of rings (size 3 to 8) (size 9 to 14) (size 15 to 20)
#    0.000    0.333    3.333    7.500    0.000    1.333 
#    0.000    0.833    0.000    0.000    0.000    0.000 
#    0.000    0.000    0.000    0.000    0.000    0.000 
#
# Total GULP energy -268869.386340 kJ/mol
# GULP energy per Si atom -5601.445549 kJ/mol
# Density = 1.991764 g / cm^3
# Si number density = 19.963081 Si / 1000 Ang^3
#
#
#
# Elastic Constant Matrix: (Units=GPa)
#
#
# Indices 1 2 3 4 5 6 
#
# 1 78.8629 -21.6439 28.1317 0.0000 0.0000 0.0000
# 2 -21.6439 46.2360 -7.4312 0.0000 0.0000 0.0000
# 3 28.1317 -7.4312 105.2142 0.0000 0.0000 0.0000
# 4 0.0000 0.0000 0.0000 25.0626 0.0000 0.0000
# 5 0.0000 0.0000 0.0000 0.0000 -3.1167 0.0000
# 6 0.0000 0.0000 0.0000 0.0000 0.0000 25.7849
#
#
#
# Elastic Compliance Matrix: (Units=1/GPa)
#
#
# Indices 1 2 3 4 5 6 
#
# 1 0.015901 0.006838 -0.003769 0.000000 0.000000 0.000000
# 2 0.006838 0.024817 -0.000075 0.000000 0.000000 0.000000
# 3 -0.003769 -0.000075 0.010507 0.000000 0.000000 0.000000
# 4 0.000000 0.000000 0.000000 0.039900 0.000000 0.000000
# 5 0.000000 0.000000 0.000000 0.000000 -0.320854 0.000000
# 6 0.000000 0.000000 0.000000 0.000000 0.000000 0.038782
#
#
# Mechanical properties :
#
#
# Convention : Reuss Voigt Hill
#
# Bulk Modulus (GPa) = 17.47864 25.38069 21.42967
# Shear Modulus (GPa) = -28.11153 24.96327 -1.57413
#
# Velocity S-wave (km/s) = -3.75664 3.54004 -0.88895
# Velocity P-wave (km/s) = 3.16890 5.42684 3.11517
#
# Compressibility (1/GPa) = 0.05721268
#
# Stress axis : x y z
#
# Youngs Moduli (GPa) = 62.88815 40.29491 95.17711
#
# Poissons Ratio (x) = -0.27554 0.35869
# Poissons Ratio (y) = -0.43003 0.00718
# Poissons Ratio (z) = 0.23700 0.00304
#
# Static dielectric constant tensor:
#      x y z
#    x 1.669960 0.000000 0.000000 
#    y 0.000000 1.717290 0.000000 
#    z 0.000000 0.000000 1.669880 
# 
# From -- ./inp_files/31229.got.cif
#   From: 2010.05.17/outbox.cif.g08.bks.cpg/sg52_16_cif.got.tgz:31229.got - 2010.06.03 12:15:38.
