data_PCOD9413326
_publ_section_title
;
Structure prediction by ZEFSAII (Michael W. Deem and Ramdas Pophale) SiO2 
 PCOD9413326
Probable space group: P N N A
;
_chemical_formula_sum "Si O2"
_cell_formula_units_Z 40
_cell_length_a 26.122702
_cell_length_b 8.006592
_cell_length_c 8.731869
_cell_angle_alpha 90.000000
_cell_angle_beta 90.000000
_cell_angle_gamma 90.000000
_cell_volume 1826.303730
_symmetry_space_group_name_H-M "P N N A"
_symmetry_group_IT_number 52
_symmetry_cell_setting 'orthorhombic'
loop_
_space_group_symop_operation_xyz
x,y,z
1/2-x,-y,z
x,1/2-y,1/2-z
1/2-x,1/2+y,1/2-z
-x,-y,-z
1/2+x,y,-z
-x,1/2+y,1/2+z
1/2+x,1/2-y,1/2+z
loop_
_atom_site_type_symbol
_atom_site_label
_atom_site_fract_x
_atom_site_fract_y
_atom_site_fract_z
Si Si1 0.169182 0.779005 0.428006
Si Si2 0.394954 0.516550 0.584153
Si Si3 0.575532 0.935085 0.432168
Si Si4 0.750000 0.000000 0.402084
Si Si5 0.476679 0.760953 0.067826
Si Si6 0.173903 0.250000 0.750000
O O1 0.177410 0.750000 0.250000
O O2 0.143434 0.614269 0.503774
O O3 0.124490 0.912338 0.461294
O O4 0.219964 0.856960 0.503278
O O5 0.408553 0.451918 0.755024
O O6 0.446248 0.579426 0.497570
O O7 0.361826 0.684087 0.614136
O O8 0.537224 0.777412 0.454592
O O9 0.547047 0.102127 0.481199
O O10 0.708716 0.096386 0.300694
O O11 0.468009 0.750000 0.250000
#
# Coordination Sequence:
#
# PCOD9413326 Si02
#       6
#     8   8   8   4   8   4
#     4  12  27  45  71 103 145 180 235 302 362 421
#     4  12  23  45  71 101 140 191 237 293 349 432
#     4  11  24  44  66 102 145 188 242 286 345 434
#     4  12  26  46  72 104 132 184 242 296 374 416
#     4  11  23  40  68 103 146 191 238 289 353 417
#     4  12  24  44  74 100 134 182 242 304 340 438
#
# _framework density 21.902161
#
# number of rings (size 3 to 8) (size 9 to 14) (size 15 to 20)
#    0.000    0.400    4.000    4.200    0.000    8.000 
#    0.000    1.000    0.000    0.000    0.000    0.000 
#    0.000    0.000    0.000    0.000    0.000    0.000 
#
# Total GULP energy -223631.765015 kJ/mol
# GULP energy per Si atom -5590.794125 kJ/mol
# Density = 2.185231 g / cm^3
# Si number density = 21.902161 Si / 1000 Ang^3
#
#
#
# Elastic Constant Matrix: (Units=GPa)
#
#
# Indices 1 2 3 4 5 6 
#
# 1 122.8238 27.0550 35.4521 0.0000 0.0000 0.0000
# 2 27.0550 102.0495 16.6411 0.0000 0.0000 0.0000
# 3 35.4521 16.6411 91.2609 0.0000 0.0000 0.0000
# 4 0.0000 0.0000 0.0000 41.0647 0.0000 0.0000
# 5 0.0000 0.0000 0.0000 0.0000 65.9084 0.0000
# 6 0.0000 0.0000 0.0000 0.0000 0.0000 114.8289
#
#
#
# Elastic Compliance Matrix: (Units=1/GPa)
#
#
# Indices 1 2 3 4 5 6 
#
# 1 0.009545 -0.001985 -0.003346 0.000000 0.000000 0.000000
# 2 -0.001985 0.010512 -0.001146 0.000000 0.000000 0.000000
# 3 -0.003346 -0.001146 0.012466 0.000000 0.000000 0.000000
# 4 0.000000 0.000000 0.000000 0.024352 0.000000 0.000000
# 5 0.000000 0.000000 0.000000 0.000000 0.015173 0.000000
# 6 0.000000 0.000000 0.000000 0.000000 0.000000 0.008709
#
#
# Mechanical properties :
#
#
# Convention : Reuss Voigt Hill
#
# Bulk Modulus (GPa) = 51.09831 52.71453 51.90642
# Shear Modulus (GPa) = 49.88387 60.15945 55.02166
#
# Velocity S-wave (km/s) = 4.77757 5.24662 5.01758
# Velocity P-wave (km/s) = 7.33584 7.79892 7.57092
#
# Compressibility (1/GPa) = 0.01957012
#
# Stress axis : x y z
#
# Youngs Moduli (GPa) = 104.76986 95.12729 80.21619
#
# Poissons Ratio (x) = 0.18881 0.26840
# Poissons Ratio (y) = 0.20795 0.09191
# Poissons Ratio (z) = 0.35055 0.10900
#
# Static dielectric constant tensor:
#      x y z
#    x 1.801450 0.000000 0.000000 
#    y 0.000000 1.862640 0.000000 
#    z 0.000000 0.000000 1.739460 
# 
# From -- ./inp_files/14020.got.cif
#   From: 2010.05.17/outbox.cif.g08.bks.cpg/sg52_8_cif.got.tgz:14020.got - 2010.06.03 12:15:38.
