data_PCOD9413681
_publ_section_title
;
Structure prediction by ZEFSAII (Michael W. Deem and Ramdas Pophale) SiO2 
 PCOD9413681
Probable space group: P N N A
;
_chemical_formula_sum "Si O2"
_cell_formula_units_Z 32
_cell_length_a 31.086861
_cell_length_b 5.323153
_cell_length_c 8.317518
_cell_angle_alpha 90.000000
_cell_angle_beta 90.000000
_cell_angle_gamma 90.000000
_cell_volume 1376.383855
_symmetry_space_group_name_H-M "P N N A"
_symmetry_group_IT_number 52
_symmetry_cell_setting 'orthorhombic'
loop_
_space_group_symop_operation_xyz
x,y,z
1/2-x,-y,z
x,1/2-y,1/2-z
1/2-x,1/2+y,1/2-z
-x,-y,-z
1/2+x,y,-z
-x,1/2+y,1/2+z
1/2+x,1/2-y,1/2+z
loop_
_atom_site_type_symbol
_atom_site_label
_atom_site_fract_x
_atom_site_fract_y
_atom_site_fract_z
Si Si1 0.250000 0.500000 0.112811
Si Si2 0.376779 0.644379 0.932432
Si Si3 0.174970 0.250000 0.250000
Si Si4 0.250000 0.500000 0.597389
Si Si5 0.476201 0.753408 0.559307
Si Si6 0.828510 0.250000 0.250000
O O1 0.207689 0.479775 0.221254
O O2 0.248258 0.255551 0.002680
O O3 0.373281 0.750000 0.750000
O O4 0.426095 0.698490 0.981014
O O5 0.358307 0.362322 0.893491
O O6 0.351049 0.758560 0.083554
O O7 0.205698 0.536650 0.695362
O O8 0.478499 0.750000 0.750000
O O9 0.500000 0.500000 0.500000
O O10 0.500000 0.000000 0.500000
#
# Coordination Sequence:
#
# PCOD9413681 Si02
#       6
#     4   8   4   4   8   4
#     4  12  26  50  72 115 163 214 285 339 412 469
#     4  11  28  51  81 116 163 213 286 343 413 505
#     4  12  26  52  75 114 160 218 275 340 404 480
#     4  12  26  48  76 111 165 222 275 351 400 487
#     4  11  27  52  84 122 165 209 265 342 427 505
#     4  12  26  48  81 118 166 228 283 344 426 484
#
# _framework density 23.249327000000001
#
# number of rings (size 3 to 8) (size 9 to 14) (size 15 to 20)
#    0.000    0.500    2.500    3.750   12.250    0.000 
#    4.500    0.000    0.000    0.000    0.000    0.000 
#    0.000    0.000    0.000    0.000    0.000    0.000 
#
# Total GULP energy -178742.849509 kJ/mol
# GULP energy per Si atom -5585.714047 kJ/mol
# Density = 2.319641 g / cm^3
# Si number density = 23.249327 Si / 1000 Ang^3
#
#
#
# Elastic Constant Matrix: (Units=GPa)
#
#
# Indices 1 2 3 4 5 6 
#
# 1 244.7703 93.9294 95.4649 0.0000 0.0000 0.0000
# 2 93.9294 182.8695 62.1138 0.0000 0.0000 0.0000
# 3 95.4649 62.1138 130.5048 0.0000 0.0000 0.0000
# 4 0.0000 0.0000 0.0000 61.2603 0.0000 0.0000
# 5 0.0000 0.0000 0.0000 0.0000 41.7007 0.0000
# 6 0.0000 0.0000 0.0000 0.0000 0.0000 29.8314
#
#
#
# Elastic Compliance Matrix: (Units=1/GPa)
#
#
# Indices 1 2 3 4 5 6 
#
# 1 0.006266 -0.001982 -0.003640 0.000000 0.000000 0.000000
# 2 -0.001982 0.007150 -0.001953 0.000000 0.000000 0.000000
# 3 -0.003640 -0.001953 0.011255 0.000000 0.000000 0.000000
# 4 0.000000 0.000000 0.000000 0.016324 0.000000 0.000000
# 5 0.000000 0.000000 0.000000 0.000000 0.023980 0.000000
# 6 0.000000 0.000000 0.000000 0.000000 0.000000 0.033522
#
#
# Mechanical properties :
#
#
# Convention : Reuss Voigt Hill
#
# Bulk Modulus (GPa) = 105.04150 117.90675 111.47412
# Shear Modulus (GPa) = 42.80084 47.00091 44.90088
#
# Velocity S-wave (km/s) = 4.29528 4.50110 4.39940
# Velocity P-wave (km/s) = 8.35929 8.82255 8.59404
#
# Compressibility (1/GPa) = 0.00952005
#
# Stress axis : x y z
#
# Youngs Moduli (GPa) = 159.59839 139.86419 88.85009
#
# Poissons Ratio (x) = 0.27720 0.32342
# Poissons Ratio (y) = 0.31631 0.17354
# Poissons Ratio (z) = 0.58096 0.27318
#
# Static dielectric constant tensor:
#      x y z
#    x 1.922440 0.000000 0.000000 
#    y 0.000000 1.945000 0.000000 
#    z 0.000000 0.000000 1.959700 
# 
# From -- ./inp_files/15248.got.cif
#   From: 2010.05.17/outbox.cif.g08.bks.cpg/sg52_8_cif.got.tgz:15248.got - 2010.06.03 12:15:38.
