data_PCOD9413684
_publ_section_title
;
Structure prediction by ZEFSAII (Michael W. Deem and Ramdas Pophale) SiO2 
 PCOD9413684
Probable space group: P N N A
;
_chemical_formula_sum "Si O2"
_cell_formula_units_Z 20
_cell_length_a 14.125056
_cell_length_b 5.152977
_cell_length_c 12.248556
_cell_angle_alpha 90.000000
_cell_angle_beta 90.000000
_cell_angle_gamma 90.000000
_cell_volume 891.524483
_symmetry_space_group_name_H-M "P N N A"
_symmetry_group_IT_number 52
_symmetry_cell_setting 'orthorhombic'
loop_
_space_group_symop_operation_xyz
x,y,z
1/2-x,-y,z
x,1/2-y,1/2-z
1/2-x,1/2+y,1/2-z
-x,-y,-z
1/2+x,y,-z
-x,1/2+y,1/2+z
1/2+x,1/2-y,1/2+z
loop_
_atom_site_type_symbol
_atom_site_label
_atom_site_fract_x
_atom_site_fract_y
_atom_site_fract_z
Si Si1 0.039201 0.999539 0.323673
Si Si2 0.146087 0.874861 0.546777
Si Si3 0.750000 0.500000 0.328869
O O1 0.045592 0.750000 0.250000
O O2 0.103881 0.941152 0.428955
O O3 0.064095 0.250000 0.250000
O O4 0.932434 0.029157 0.368093
O O5 0.165088 0.579451 0.588566
O O6 0.250000 0.000000 0.549224
O O7 0.762511 0.750000 0.250000
#
# Coordination Sequence:
#
# PCOD9413684 Si02
#       3
#     8   8   4
#     4  11  29  48  73 110 154 196 243 311 381 442
#     4  11  28  47  77 111 147 195 258 305 368 455
#     4  12  26  42  78 114 142 192 254 312 368 434
#
# _framework density 22.433482999999999
#
# number of rings (size 3 to 8) (size 9 to 14) (size 15 to 20)
#    0.000    0.800    2.000    1.200   16.800    4.800 
#    0.000    0.000    0.000    0.000    0.000    0.000 
#    0.000    0.000    0.000    0.000    0.000    0.000 
#
# Total GULP energy -111754.755430 kJ/mol
# GULP energy per Si atom -5587.737771 kJ/mol
# Density = 2.238242 g / cm^3
# Si number density = 22.433483 Si / 1000 Ang^3
#
#
#
# Elastic Constant Matrix: (Units=GPa)
#
#
# Indices 1 2 3 4 5 6 
#
# 1 110.0961 44.7690 51.0255 0.0000 0.0000 0.0000
# 2 44.7690 193.8058 103.6417 0.0000 0.0000 0.0000
# 3 51.0255 103.6417 176.7765 0.0000 0.0000 0.0000
# 4 0.0000 0.0000 0.0000 13.4060 0.0000 0.0000
# 5 0.0000 0.0000 0.0000 0.0000 19.6551 0.0000
# 6 0.0000 0.0000 0.0000 0.0000 0.0000 46.5337
#
#
#
# Elastic Compliance Matrix: (Units=1/GPa)
#
#
# Indices 1 2 3 4 5 6 
#
# 1 0.010671 -0.001191 -0.002382 0.000000 0.000000 0.000000
# 2 -0.001191 0.007649 -0.004141 0.000000 0.000000 0.000000
# 3 -0.002382 -0.004141 0.008772 0.000000 0.000000 0.000000
# 4 0.000000 0.000000 0.000000 0.074594 0.000000 0.000000
# 5 0.000000 0.000000 0.000000 0.000000 0.050878 0.000000
# 6 0.000000 0.000000 0.000000 0.000000 0.000000 0.021490
#
#
# Mechanical properties :
#
#
# Convention : Reuss Voigt Hill
#
# Bulk Modulus (GPa) = 85.72773 97.72785 91.72779
# Shear Modulus (GPa) = 25.85717 34.66843 30.26280
#
# Velocity S-wave (km/s) = 3.39870 3.93541 3.67686
# Velocity P-wave (km/s) = 7.32794 8.01922 7.68136
#
# Compressibility (1/GPa) = 0.01166484
#
# Stress axis : x y z
#
# Youngs Moduli (GPa) = 93.70955 130.72871 113.99828
#
# Poissons Ratio (x) = 0.15575 0.27151
# Poissons Ratio (y) = 0.11164 0.47205
# Poissons Ratio (z) = 0.22319 0.54133
#
# Static dielectric constant tensor:
#      x y z
#    x 1.827950 0.000000 0.000000 
#    y 0.000000 1.926130 0.000000 
#    z 0.000000 0.000000 3.818980 
# 
# From -- ./inp_files/18618.got.cif
#   From: 2010.05.17/outbox.cif.g08.bks.cpg/sg52_10_cif.got.tgz:18618.got - 2010.06.03 12:15:38.
