data_PCOD9413556
_publ_section_title
;
Structure prediction by ZEFSAII (Michael W. Deem and Ramdas Pophale) SiO2 
 PCOD9413556
Probable space group: P N N A
;
_chemical_formula_sum "Si O2"
_cell_formula_units_Z 24
_cell_length_a 12.418961
_cell_length_b 9.311364
_cell_length_c 7.223584
_cell_angle_alpha 90.000000
_cell_angle_beta 90.000000
_cell_angle_gamma 90.000000
_cell_volume 835.316952
_symmetry_space_group_name_H-M "P N N A"
_symmetry_group_IT_number 52
_symmetry_cell_setting 'orthorhombic'
loop_
_space_group_symop_operation_xyz
x,y,z
1/2-x,-y,z
x,1/2-y,1/2-z
1/2-x,1/2+y,1/2-z
-x,-y,-z
1/2+x,y,-z
-x,1/2+y,1/2+z
1/2+x,1/2-y,1/2+z
loop_
_atom_site_type_symbol
_atom_site_label
_atom_site_fract_x
_atom_site_fract_y
_atom_site_fract_z
Si Si1 0.529607 0.911110 0.710997
Si Si2 0.654321 0.387679 0.517871
Si Si3 0.809694 0.352666 0.077350
O O1 0.581256 0.750000 0.750000
O O2 0.421830 0.891428 0.835792
O O3 0.425483 0.094076 0.500024
O O4 0.585963 0.045628 0.813824
O O5 0.750000 0.500000 0.500251
O O6 0.717194 0.237613 0.532543
O O7 0.750000 0.500000 0.113318
O O8 0.832534 0.250000 0.250000
#
# Coordination Sequence:
#
# PCOD9413556 Si02
#       3
#     8   8   8
#     4  11  25  48  95 127 172 243 298 376 460 545
#     4  11  24  52  89 129 180 226 312 377 448 549
#     4  12  28  52  89 129 183 237 301 386 463 550
#
# _framework density 28.731607
#
# number of rings (size 3 to 8) (size 9 to 14) (size 15 to 20)
#    0.000    0.667    3.333    3.000    0.000    0.000 
#    0.000   15.000   22.000    0.000    0.000    2.333 
#    0.000    0.000    0.000    0.000    0.000    0.000 
#
# Total GULP energy -133977.563376 kJ/mol
# GULP energy per Si atom -5582.398474 kJ/mol
# Density = 2.866621 g / cm^3
# Si number density = 28.731607 Si / 1000 Ang^3
#
#
#
# Elastic Constant Matrix: (Units=GPa)
#
#
# Indices 1 2 3 4 5 6 
#
# 1 225.1960 87.5577 101.0973 0.0000 0.0000 0.0000
# 2 87.5577 180.7528 34.9502 0.0000 0.0000 0.0000
# 3 101.0973 34.9502 135.0653 0.0000 0.0000 0.0000
# 4 0.0000 0.0000 0.0000 43.5077 0.0000 0.0000
# 5 0.0000 0.0000 0.0000 0.0000 72.6840 0.0000
# 6 0.0000 0.0000 0.0000 0.0000 0.0000 78.7633
#
#
#
# Elastic Compliance Matrix: (Units=1/GPa)
#
#
# Indices 1 2 3 4 5 6 
#
# 1 0.007839 -0.002803 -0.005142 0.000000 0.000000 0.000000
# 2 -0.002803 0.006826 0.000332 0.000000 0.000000 0.000000
# 3 -0.005142 0.000332 0.011167 0.000000 0.000000 0.000000
# 4 0.000000 0.000000 0.000000 0.022984 0.000000 0.000000
# 5 0.000000 0.000000 0.000000 0.000000 0.013758 0.000000
# 6 0.000000 0.000000 0.000000 0.000000 0.000000 0.012696
#
#
# Mechanical properties :
#
#
# Convention : Reuss Voigt Hill
#
# Bulk Modulus (GPa) = 94.29487 109.80275 102.04881
# Shear Modulus (GPa) = 53.17318 60.15158 56.66238
#
# Velocity S-wave (km/s) = 4.30663 4.58052 4.44568
# Velocity P-wave (km/s) = 7.59077 8.14092 7.87065
#
# Compressibility (1/GPa) = 0.01060503
#
# Stress axis : x y z
#
# Youngs Moduli (GPa) = 127.57039 146.49807 89.55028
#
# Poissons Ratio (x) = 0.41062 0.46048
# Poissons Ratio (y) = 0.35757 -0.02970
# Poissons Ratio (z) = 0.65598 -0.04859
#
# Static dielectric constant tensor:
#      x y z
#    x 2.207640 0.000000 0.000000 
#    y 0.000000 3.231020 0.000000 
#    z 0.000000 0.000000 2.883610 
# 
# From -- ./inp_files/17420.got.cif
#   From: 2010.05.17/outbox.cif.g08.bks.cpg/sg52_9_cif.got.tgz:17420.got - 2010.06.03 12:15:38.
