data_PCOD9413025
_publ_section_title
;
Structure prediction by ZEFSAII (Michael W. Deem and Ramdas Pophale) SiO2 
 PCOD9413025
Probable space group: P N N A
;
_chemical_formula_sum "Si O2"
_cell_formula_units_Z 60
_cell_length_a 7.790603
_cell_length_b 22.592166
_cell_length_c 16.215148
_cell_angle_alpha 90.000000
_cell_angle_beta 90.000000
_cell_angle_gamma 90.000000
_cell_volume 2853.973007
_symmetry_space_group_name_H-M "P N N A"
_symmetry_group_IT_number 52
_symmetry_cell_setting 'orthorhombic'
loop_
_space_group_symop_operation_xyz
x,y,z
1/2-x,-y,z
x,1/2-y,1/2-z
1/2-x,1/2+y,1/2-z
-x,-y,-z
1/2+x,y,-z
-x,1/2+y,1/2+z
1/2+x,1/2-y,1/2+z
loop_
_atom_site_type_symbol
_atom_site_label
_atom_site_fract_x
_atom_site_fract_y
_atom_site_fract_z
Si Si1 0.790114 0.763392 0.929531
Si Si2 0.141348 0.051865 0.764148
Si Si3 0.670154 0.717545 0.090717
Si Si4 0.655447 0.250000 0.250000
Si Si5 0.214740 0.638747 0.138544
Si Si6 0.605271 0.592417 0.115004
Si Si7 0.916258 0.151449 0.821851
Si Si8 0.941722 0.022440 0.608366
O O1 0.691548 0.705234 0.894262
O O2 0.710015 0.823114 0.891986
O O3 0.985056 0.748584 0.907209
O O4 0.777411 0.756972 0.027605
O O5 0.271417 0.081435 0.695035
O O6 0.044513 0.095445 0.826444
O O7 0.998864 0.021533 0.704875
O O8 0.250000 0.000000 0.805674
O O9 0.732645 0.716197 0.183732
O O10 0.679762 0.648241 0.064849
O O11 0.540501 0.205324 0.199497
O O12 0.410458 0.615666 0.129847
O O13 0.184295 0.640100 0.236548
O O14 0.078750 0.593152 0.096757
O O15 0.571946 0.527759 0.072931
O O16 0.750000 0.000000 0.597607
#
# Coordination Sequence:
#
# PCOD9413025 Si02
#       8
#     8   8   8   4   8   8   8   8
#     4  11  23  37  53  81 117 150 190 236 291 338
#     4   9  17  30  53  84 113 145 194 245 287 342
#     4  11  25  38  56  81 114 152 192 240 286 350
#     4  12  22  36  60  82 108 148 192 228 294 348
#     4   9  18  31  53  77 112 151 187 229 280 345
#     4   9  17  32  51  78 111 147 193 234 280 334
#     4  11  20  34  58  82 115 149 190 234 293 349
#     4   8  15  28  48  76 109 148 189 236 278 331
#
# _framework density 21.023323999999999
#
# number of rings (size 3 to 8) (size 9 to 14) (size 15 to 20)
#    0.000    2.133    2.667    0.800    3.733    0.000 
#    0.000    0.667    0.000    5.600    0.000    3.733 
#    0.000    0.000    0.000    2.000    0.000    0.000 
#
# Total GULP energy -334149.753081 kJ/mol
# GULP energy per Si atom -5569.162551 kJ/mol
# Density = 2.097547 g / cm^3
# Si number density = 21.023324 Si / 1000 Ang^3
#
#
#
# Elastic Constant Matrix: (Units=GPa)
#
#
# Indices 1 2 3 4 5 6 
#
# 1 80.7793 29.3940 14.4630 0.0000 0.0000 0.0000
# 2 29.3940 70.2478 17.0500 0.0000 0.0000 0.0000
# 3 14.4630 17.0500 56.0783 0.0000 0.0000 0.0000
# 4 0.0000 0.0000 0.0000 14.3338 0.0000 0.0000
# 5 0.0000 0.0000 0.0000 0.0000 8.4457 0.0000
# 6 0.0000 0.0000 0.0000 0.0000 0.0000 34.9561
#
#
#
# Elastic Compliance Matrix: (Units=1/GPa)
#
#
# Indices 1 2 3 4 5 6 
#
# 1 0.014827 -0.005696 -0.002092 0.000000 0.000000 0.000000
# 2 -0.005696 0.017558 -0.003869 0.000000 0.000000 0.000000
# 3 -0.002092 -0.003869 0.019548 0.000000 0.000000 0.000000
# 4 0.000000 0.000000 0.000000 0.069765 0.000000 0.000000
# 5 0.000000 0.000000 0.000000 0.000000 0.118404 0.000000
# 6 0.000000 0.000000 0.000000 0.000000 0.000000 0.028607
#
#
# Mechanical properties :
#
#
# Convention : Reuss Voigt Hill
#
# Bulk Modulus (GPa) = 34.94321 36.54659 35.74490
# Shear Modulus (GPa) = 16.58027 21.29368 18.93697
#
# Velocity S-wave (km/s) = 2.81136 3.18600 3.00452
# Velocity P-wave (km/s) = 5.21494 5.56378 5.39218
#
# Compressibility (1/GPa) = 0.02861787
#
# Stress axis : x y z
#
# Youngs Moduli (GPa) = 67.44577 56.95440 51.15570
#
# Poissons Ratio (x) = 0.32443 0.10702
# Poissons Ratio (y) = 0.38419 0.19793
# Poissons Ratio (z) = 0.14110 0.22037
#
# Static dielectric constant tensor:
#      x y z
#    x 1.794600 0.000000 0.000000 
#    y 0.000000 1.837450 0.000000 
#    z 0.000000 0.000000 1.703410 
# 
# From -- ./inp_files/25097.got.cif
#   From: 2010.05.17/outbox.cif.g08.bks.cpg/sg52_13_cif.got.tgz:25097.got - 2010.06.03 12:15:38.
