data_PCOD9413987
_publ_section_title
;
Structure prediction by ZEFSAII (Michael W. Deem and Ramdas Pophale) SiO2 
 PCOD9413987
Probable space group: P N N A
;
_chemical_formula_sum "Si O2"
_cell_formula_units_Z 48
_cell_length_a 30.000000
_cell_length_b 9.000000
_cell_length_c 9.000000
_cell_angle_alpha 90.000000
_cell_angle_beta 90.000000
_cell_angle_gamma 90.000000
_cell_volume 2430.000000
_symmetry_space_group_name_H-M "P N N A"
_symmetry_group_IT_number 52
_symmetry_cell_setting 'orthorhombic'
loop_
_space_group_symop_operation_xyz
x,y,z
1/2-x,-y,z
x,1/2-y,1/2-z
1/2-x,1/2+y,1/2-z
-x,-y,-z
1/2+x,y,-z
-x,1/2+y,1/2+z
1/2+x,1/2-y,1/2+z
loop_
_atom_site_type_symbol
_atom_site_label
_atom_site_fract_x
_atom_site_fract_y
_atom_site_fract_z
Si Si1 0.143135 0.279294 0.074929
Si Si2 0.199377 0.512316 0.944357
Si Si3 0.363226 0.279392 0.582186
Si Si4 0.545456 0.179649 0.913460
Si Si5 0.046304 0.678830 0.411142
Si Si6 0.300315 0.549807 0.597997
O O1 0.144123 0.250000 0.250000
O O2 0.092781 0.241600 0.022158
O O3 0.159629 0.444200 0.042208
O O4 0.182713 0.192834 0.989383
O O5 0.250000 0.500000 0.002615
O O6 0.181264 0.678670 0.930990
O O7 0.200068 0.442668 0.777816
O O8 0.379119 0.250000 0.750000
O O9 0.407283 0.263560 0.482832
O O10 0.341011 0.439115 0.561202
O O11 0.541485 0.250000 0.750000
O O12 0.549487 0.000851 0.904748
O O13 0.499671 0.214543 0.000865
O O14 0.042314 0.750000 0.250000
O O15 0.250000 0.500000 0.555607
#
# Coordination Sequence:
#
# PCOD9413987 Si02
#       6
#     8   8   8   8   8   8
#     4  11  23  39  60  91 126 163 196 256 308 360
#     4  10  22  39  63  91 122 163 214 253 298 361
#     4  10  21  38  61  91 122 161 202 256 306 357
#     4  10  24  45  62  92 128 157 203 251 305 370
#     4  11  24  42  67  92 121 162 202 252 308 366
#     4  10  20  39  63  87 121 162 208 256 300 358
#
# _framework density 19.753086
#
# number of rings (size 3 to 8) (size 9 to 14) (size 15 to 20)
#    0.000    1.667    1.667    2.000    4.667    5.333 
#    3.000    1.667    0.000    0.000    0.000    0.000 
#    0.000    0.000    0.000    0.000    0.000    0.000 
#
# Total GULP energy -267486.644062 kJ/mol
# GULP energy per Si atom -5572.638418 kJ/mol
# Density = 1.970813 g / cm^3
# Si number density = 19.753086 Si / 1000 Ang^3
#
#
#
# Elastic Constant Matrix: (Units=GPa)
#
#
# Indices 1 2 3 4 5 6 
#
# 1 184.4533 14.2974 51.0095 0.0000 0.0000 0.0000
# 2 14.2974 22.4026 8.1260 0.0000 0.0000 0.0000
# 3 51.0095 8.1260 41.4814 0.0000 0.0000 0.0000
# 4 0.0000 0.0000 0.0000 25.5668 0.0000 0.0000
# 5 0.0000 0.0000 0.0000 0.0000 50.2069 0.0000
# 6 0.0000 0.0000 0.0000 0.0000 0.0000 53.9965
#
#
#
# Elastic Compliance Matrix: (Units=1/GPa)
#
#
# Indices 1 2 3 4 5 6 
#
# 1 0.008276 -0.001712 -0.009841 0.000000 0.000000 0.000000
# 2 -0.001712 0.048406 -0.007377 0.000000 0.000000 0.000000
# 3 -0.009841 -0.007377 0.037654 0.000000 0.000000 0.000000
# 4 0.000000 0.000000 0.000000 0.039113 0.000000 0.000000
# 5 0.000000 0.000000 0.000000 0.000000 0.019918 0.000000
# 6 0.000000 0.000000 0.000000 0.000000 0.000000 0.018520
#
#
# Mechanical properties :
#
#
# Convention : Reuss Voigt Hill
#
# Bulk Modulus (GPa) = 17.70701 43.91148 30.80925
# Shear Modulus (GPa) = 21.87491 37.61435 29.74463
#
# Velocity S-wave (km/s) = 3.33140 4.36848 3.88470
# Velocity P-wave (km/s) = 4.87660 6.90820 5.97932
#
# Compressibility (1/GPa) = 0.05647480
#
# Stress axis : x y z
#
# Youngs Moduli (GPa) = 120.83659 20.65853 26.55754
#
# Poissons Ratio (x) = 0.03536 0.26136
# Poissons Ratio (y) = 0.20686 0.19593
# Poissons Ratio (z) = 1.18917 0.15241
#
# Static dielectric constant tensor:
#      x y z
#    x 1.651020 0.000000 0.000000 
#    y 0.000000 1.760800 0.000000 
#    z 0.000000 0.000000 1.675840 
# 
# From -- ./inp_files/15485.got.cif
#   From: 2010.05.17/outbox.ucp.g08.bks.cvg/sg52_8_cif.got.tgz:15485.got - 2010.06.11 16:30:12.
