data_PCOD9413281
_publ_section_title
;
Structure prediction by ZEFSAII (Michael W. Deem and Ramdas Pophale) SiO2 
 PCOD9413281
Probable space group: P N N A
;
_chemical_formula_sum "Si O2"
_cell_formula_units_Z 44
_cell_length_a 8.767917
_cell_length_b 15.240561
_cell_length_c 16.399401
_cell_angle_alpha 90.000000
_cell_angle_beta 90.000000
_cell_angle_gamma 90.000000
_cell_volume 2191.418728
_symmetry_space_group_name_H-M "P N N A"
_symmetry_group_IT_number 52
_symmetry_cell_setting 'orthorhombic'
loop_
_space_group_symop_operation_xyz
x,y,z
1/2-x,-y,z
x,1/2-y,1/2-z
1/2-x,1/2+y,1/2-z
-x,-y,-z
1/2+x,y,-z
-x,1/2+y,1/2+z
1/2+x,1/2-y,1/2+z
loop_
_atom_site_type_symbol
_atom_site_label
_atom_site_fract_x
_atom_site_fract_y
_atom_site_fract_z
Si Si1 0.236770 0.798012 0.509507
Si Si2 0.511846 0.412469 0.050232
Si Si3 0.791056 0.302697 0.331576
Si Si4 0.250000 0.000000 0.785126
Si Si5 0.623925 0.218731 0.665825
Si Si6 0.082557 0.486562 0.201956
O O1 0.064863 0.829474 0.493641
O O2 0.312898 0.885481 0.548974
O O3 0.266333 0.730324 0.581232
O O4 0.291311 0.769804 0.419858
O O5 0.423326 0.438625 0.131834
O O6 0.500000 0.500000 0.000000
O O7 0.733442 0.250000 0.250000
O O8 0.757136 0.405120 0.326990
O O9 0.970634 0.277650 0.334115
O O10 0.084165 0.999716 0.741070
O O11 0.705950 0.250000 0.750000
O O12 0.583491 0.114975 0.672383
O O13 0.250000 0.500000 0.243759
#
# Coordination Sequence:
#
# PCOD9413281 Si02
#       6
#     8   8   8   4   8   8
#     4  12  23  41  65 101 142 179 233 293 362 437
#     4  12  22  34  64 104 138 173 223 296 373 436
#     4  11  23  46  70 101 141 199 236 291 369 432
#     4  12  26  46  78  98 148 198 250 292 356 442
#     4  11  22  44  69  93 149 186 225 307 372 411
#     4  12  23  42  67 110 139 177 240 301 372 438
#
# _framework density 20.078316000000001
#
# number of rings (size 3 to 8) (size 9 to 14) (size 15 to 20)
#    0.000    0.364    9.091    1.636    2.545    0.000 
#    3.273    0.909    2.000    0.000    0.000    0.000 
#    0.000    0.000    0.000    0.000    0.000    0.000 
#
# Total GULP energy -244936.910131 kJ/mol
# GULP energy per Si atom -5566.747958 kJ/mol
# Density = 2.003262 g / cm^3
# Si number density = 20.078316 Si / 1000 Ang^3
#
#
#
# Elastic Constant Matrix: (Units=GPa)
#
#
# Indices 1 2 3 4 5 6 
#
# 1 85.1374 16.0185 33.5531 0.0000 0.0000 0.0000
# 2 16.0185 125.5248 67.2710 0.0000 0.0000 0.0000
# 3 33.5531 67.2710 137.3570 0.0000 0.0000 0.0000
# 4 0.0000 0.0000 0.0000 30.2006 0.0000 0.0000
# 5 0.0000 0.0000 0.0000 0.0000 26.3394 0.0000
# 6 0.0000 0.0000 0.0000 0.0000 0.0000 23.0833
#
#
#
# Elastic Compliance Matrix: (Units=1/GPa)
#
#
# Indices 1 2 3 4 5 6 
#
# 1 0.012997 0.000058 -0.003203 0.000000 0.000000 0.000000
# 2 0.000058 0.010802 -0.005304 0.000000 0.000000 0.000000
# 3 -0.003203 -0.005304 0.010661 0.000000 0.000000 0.000000
# 4 0.000000 0.000000 0.000000 0.033112 0.000000 0.000000
# 5 0.000000 0.000000 0.000000 0.000000 0.037966 0.000000
# 6 0.000000 0.000000 0.000000 0.000000 0.000000 0.043321
#
#
# Mechanical properties :
#
#
# Convention : Reuss Voigt Hill
#
# Bulk Modulus (GPa) = 56.94631 64.63384 60.79007
# Shear Modulus (GPa) = 29.13551 31.33645 30.23598
#
# Velocity S-wave (km/s) = 3.81345 3.95487 3.88481
# Velocity P-wave (km/s) = 6.91474 7.28803 7.10384
#
# Compressibility (1/GPa) = 0.01756040
#
# Stress axis : x y z
#
# Youngs Moduli (GPa) = 76.93935 92.57646 93.80256
#
# Poissons Ratio (x) = -0.00538 0.30049
# Poissons Ratio (y) = -0.00447 0.49757
# Poissons Ratio (z) = 0.24647 0.49107
#
# Static dielectric constant tensor:
#      x y z
#    x 1.811980 0.000000 0.000000 
#    y 0.000000 1.701590 0.000000 
#    z 0.000000 0.000000 1.783750 
# 
# From -- ./inp_files/31153.got.cif
#   From: 2010.05.17/outbox.cif.g08.bks.cpg/sg52_16_cif.got.tgz:31153.got - 2010.06.03 12:15:38.
