data_PCOD9413264
_publ_section_title
;
Structure prediction by ZEFSAII (Michael W. Deem and Ramdas Pophale) SiO2 
 PCOD9413264
Probable space group: P N N A
;
_chemical_formula_sum "Si O2"
_cell_formula_units_Z 56
_cell_length_a 14.294374
_cell_length_b 14.030422
_cell_length_c 12.738422
_cell_angle_alpha 90.000000
_cell_angle_beta 90.000000
_cell_angle_gamma 90.000000
_cell_volume 2554.768229
_symmetry_space_group_name_H-M "P N N A"
_symmetry_group_IT_number 52
_symmetry_cell_setting 'orthorhombic'
loop_
_space_group_symop_operation_xyz
x,y,z
1/2-x,-y,z
x,1/2-y,1/2-z
1/2-x,1/2+y,1/2-z
-x,-y,-z
1/2+x,y,-z
-x,1/2+y,1/2+z
1/2+x,1/2-y,1/2+z
loop_
_atom_site_type_symbol
_atom_site_label
_atom_site_fract_x
_atom_site_fract_y
_atom_site_fract_z
Si Si1 0.293145 0.646127 0.763241
Si Si2 0.078340 0.003394 0.406449
Si Si3 0.465374 0.973213 0.808051
Si Si4 0.159730 0.806160 0.356235
Si Si5 0.091161 0.821028 0.841007
Si Si6 0.501726 0.706870 0.554868
Si Si7 0.318788 0.682618 0.998110
O O1 0.340198 0.750000 0.750000
O O2 0.362890 0.566363 0.722727
O O3 0.197266 0.655882 0.697088
O O4 0.280777 0.637444 0.888726
O O5 0.153742 0.918131 0.388916
O O6 0.021657 0.993105 0.298378
O O7 0.132269 0.101332 0.431225
O O8 0.000000 0.000000 0.500000
O O9 0.506752 0.895525 0.888493
O O10 0.457748 0.077597 0.854871
O O11 0.187752 0.750000 0.250000
O O12 0.050562 0.780036 0.366643
O O13 0.235427 0.768916 0.439145
O O14 0.054974 0.750000 0.750000
O O15 0.066534 0.776664 0.952495
O O16 0.397902 0.739375 0.527723
#
# Coordination Sequence:
#
# PCOD9413264 Si02
#       7
#     8   8   8   8   8   8   8
#     4  11  22  42  72 111 141 186 245 316 371 439
#     4  12  24  41  73 108 143 185 247 306 380 442
#     4  12  24  43  73 104 144 195 239 303 381 451
#     4  12  26  47  69 104 149 194 236 307 377 446
#     4  11  26  43  69 105 149 187 251 308 359 442
#     4  12  25  47  72 102 146 199 244 300 383 452
#     4  12  26  43  78 107 144 196 251 312 373 450
#
# _framework density 21.919798
#
# number of rings (size 3 to 8) (size 9 to 14) (size 15 to 20)
#    0.000    0.286    5.714    3.857    2.000    2.857 
#    0.000    0.000    0.000    0.000    0.000    0.000 
#    0.000    0.000    0.000    0.000    0.000    0.000 
#
# Total GULP energy -312245.953492 kJ/mol
# GULP energy per Si atom -5575.820598 kJ/mol
# Density = 2.186991 g / cm^3
# Si number density = 21.919798 Si / 1000 Ang^3
#
#
#
# Elastic Constant Matrix: (Units=GPa)
#
#
# Indices 1 2 3 4 5 6 
#
# 1 73.4757 -17.2624 31.1396 0.0000 0.0000 0.0000
# 2 -17.2624 84.2374 5.0131 0.0000 0.0000 0.0000
# 3 31.1396 5.0131 128.2437 0.0000 0.0000 0.0000
# 4 0.0000 0.0000 0.0000 41.1474 0.0000 0.0000
# 5 0.0000 0.0000 0.0000 0.0000 34.3745 0.0000
# 6 0.0000 0.0000 0.0000 0.0000 0.0000 15.2274
#
#
#
# Elastic Compliance Matrix: (Units=1/GPa)
#
#
# Indices 1 2 3 4 5 6 
#
# 1 0.016168 0.003555 -0.004065 0.000000 0.000000 0.000000
# 2 0.003555 0.012681 -0.001359 0.000000 0.000000 0.000000
# 3 -0.004065 -0.001359 0.008838 0.000000 0.000000 0.000000
# 4 0.000000 0.000000 0.000000 0.024303 0.000000 0.000000
# 5 0.000000 0.000000 0.000000 0.000000 0.029091 0.000000
# 6 0.000000 0.000000 0.000000 0.000000 0.000000 0.065671
#
#
# Mechanical properties :
#
#
# Convention : Reuss Voigt Hill
#
# Bulk Modulus (GPa) = 29.45590 35.97083 32.71337
# Shear Modulus (GPa) = 29.10272 35.95428 32.52850
#
# Velocity S-wave (km/s) = 3.64770 4.05441 3.85642
# Velocity P-wave (km/s) = 5.58643 6.19383 5.89795
#
# Compressibility (1/GPa) = 0.03394905
#
# Stress axis : x y z
#
# Youngs Moduli (GPa) = 61.85104 78.86053 113.15073
#
# Poissons Ratio (x) = -0.28036 0.45993
# Poissons Ratio (y) = -0.21989 0.15376
# Poissons Ratio (z) = 0.25141 0.10717
#
# Static dielectric constant tensor:
#      x y z
#    x 1.818400 0.000000 0.000000 
#    y 0.000000 1.894950 0.000000 
#    z 0.000000 0.000000 1.852440 
# 
# From -- ./inp_files/19660.got.cif
#   From: 2010.05.17/outbox.cif.g08.bks.cpg/sg52_10_cif.got.tgz:19660.got - 2010.06.03 12:15:38.
