data_PCOD9413835
_publ_section_title
;
Structure prediction by ZEFSAII (Michael W. Deem and Ramdas Pophale) SiO2 
 PCOD9413835
Probable space group: P N N A
;
_chemical_formula_sum "Si O2"
_cell_formula_units_Z 28
_cell_length_a 23.411206
_cell_length_b 8.314076
_cell_length_c 5.351407
_cell_angle_alpha 90.000000
_cell_angle_beta 90.000000
_cell_angle_gamma 90.000000
_cell_volume 1041.611483
_symmetry_space_group_name_H-M "P N N A"
_symmetry_group_IT_number 52
_symmetry_cell_setting 'orthorhombic'
loop_
_space_group_symop_operation_xyz
x,y,z
1/2-x,-y,z
x,1/2-y,1/2-z
1/2-x,1/2+y,1/2-z
-x,-y,-z
1/2+x,y,-z
-x,1/2+y,1/2+z
1/2+x,1/2-y,1/2+z
loop_
_atom_site_type_symbol
_atom_site_label
_atom_site_fract_x
_atom_site_fract_y
_atom_site_fract_z
Si Si1 0.500000 0.500000 0.500000
Si Si2 0.250000 0.500000 0.508541
Si Si3 0.668182 0.250000 0.750000
Si Si4 0.911154 0.503042 0.982268
Si Si5 0.836445 0.250000 0.250000
Si Si6 0.025105 0.250000 0.750000
O O1 0.553135 0.504587 0.729562
O O2 0.504036 0.702520 0.498617
O O3 0.291072 0.613444 0.352383
O O4 0.206312 0.612925 0.654320
O O5 0.628965 0.338624 0.952617
O O6 0.875251 0.346195 0.050994
O O7 0.948262 0.566518 0.224318
#
# Coordination Sequence:
#
# PCOD9413835 Si02
#       6
#     4   4   4   8   4   4
#     4  12  28  48  80 116 166 226 292 356 412 530
#     4  12  26  50  82 128 164 222 294 368 428 518
#     4  12  24  50  80 120 170 218 284 366 436 510
#     4  12  27  50  79 121 168 230 287 354 435 522
#     4  12  28  49  85 124 172 227 291 362 444 512
#     4  12  26  51  75 118 160 225 287 352 416 504
#
# _framework density 26.881421
#
# number of rings (size 3 to 8) (size 9 to 14) (size 15 to 20)
#    0.000    0.000    2.857    6.000    4.000    0.000 
#    0.000    0.000    0.000    0.000    0.000    0.000 
#    0.000    0.000    0.000    0.000    0.000    0.000 
#
# Total GULP energy -155974.971763 kJ/mol
# GULP energy per Si atom -5570.534706 kJ/mol
# Density = 2.682024 g / cm^3
# Si number density = 26.881421 Si / 1000 Ang^3
#
#
#
# Elastic Constant Matrix: (Units=GPa)
#
#
# Indices 1 2 3 4 5 6 
#
# 1 89.9709 50.9354 19.6344 0.0000 0.0000 0.0000
# 2 50.9354 201.3203 75.7162 0.0000 0.0000 0.0000
# 3 19.6344 75.7162 127.6375 0.0000 0.0000 0.0000
# 4 0.0000 0.0000 0.0000 91.6894 0.0000 0.0000
# 5 0.0000 0.0000 0.0000 0.0000 -22.3455 0.0000
# 6 0.0000 0.0000 0.0000 0.0000 0.0000 71.5432
#
#
#
# Elastic Compliance Matrix: (Units=1/GPa)
#
#
# Indices 1 2 3 4 5 6 
#
# 1 0.012973 -0.003259 -0.000062 0.000000 0.000000 0.000000
# 2 -0.003259 0.007212 -0.003777 0.000000 0.000000 0.000000
# 3 -0.000062 -0.003777 0.010085 0.000000 0.000000 0.000000
# 4 0.000000 0.000000 0.000000 0.010906 0.000000 0.000000
# 5 0.000000 0.000000 0.000000 0.000000 -0.044752 0.000000
# 6 0.000000 0.000000 0.000000 0.000000 0.000000 0.013978
#
#
# Mechanical properties :
#
#
# Convention : Reuss Voigt Hill
#
# Bulk Modulus (GPa) = 62.21373 79.05564 70.63469
# Shear Modulus (GPa) = 166.90375 46.35359 106.62867
#
# Velocity S-wave (km/s) = 7.88820 4.15706 6.30495
# Velocity P-wave (km/s) = 10.30334 7.24668 8.90711
#
# Compressibility (1/GPa) = 0.01607362
#
# Stress axis : x y z
#
# Youngs Moduli (GPa) = 77.08154 138.65236 99.15776
#
# Poissons Ratio (x) = 0.45184 0.00620
# Poissons Ratio (y) = 0.25120 0.37453
# Poissons Ratio (z) = 0.00482 0.52371
#
# Static dielectric constant tensor:
#      x y z
#    x 2.810320 0.000000 0.000000 
#    y 0.000000 2.178250 0.000000 
#    z 0.000000 0.000000 3.229180 
# 
# From -- ./inp_files/5536.got.cif
#   From: 2010.05.17/outbox.cif.g08.bks.cpg/sg52_3_cif.got.tgz:5536.got - 2010.06.03 12:15:38.
