data_PCOD9413096
_publ_section_title
;
Structure prediction by ZEFSAII (Michael W. Deem and Ramdas Pophale) SiO2 
 PCOD9413096
Probable space group: P N N A
;
_chemical_formula_sum "Si O2"
_cell_formula_units_Z 48
_cell_length_a 16.045028
_cell_length_b 27.909240
_cell_length_c 4.910977
_cell_angle_alpha 90.000000
_cell_angle_beta 90.000000
_cell_angle_gamma 90.000000
_cell_volume 2199.157783
_symmetry_space_group_name_H-M "P N N A"
_symmetry_group_IT_number 52
_symmetry_cell_setting 'orthorhombic'
loop_
_space_group_symop_operation_xyz
x,y,z
1/2-x,-y,z
x,1/2-y,1/2-z
1/2-x,1/2+y,1/2-z
-x,-y,-z
1/2+x,y,-z
-x,1/2+y,1/2+z
1/2+x,1/2-y,1/2+z
loop_
_atom_site_type_symbol
_atom_site_label
_atom_site_fract_x
_atom_site_fract_y
_atom_site_fract_z
Si Si1 0.119058 0.461886 0.360088
Si Si2 0.063523 0.566036 0.432920
Si Si3 0.187456 0.801866 0.211018
Si Si4 0.816248 0.590134 0.156925
Si Si5 0.305503 0.696685 0.801305
Si Si6 0.126960 0.886784 0.556104
O O1 0.119659 0.518131 0.426686
O O2 0.183954 0.434635 0.551406
O O3 0.027861 0.445571 0.459947
O O4 0.135076 0.443756 0.054507
O O5 0.064761 0.580893 0.119306
O O6 0.100031 0.606900 0.632185
O O7 0.147539 0.750000 0.250000
O O8 0.271155 0.800782 0.393360
O O9 0.130585 0.838670 0.377673
O O10 0.225371 0.808511 0.907134
O O11 0.850195 0.644785 0.204784
O O12 0.722391 0.595254 0.046810
O O13 0.342934 0.750000 0.750000
#
# Coordination Sequence:
#
# PCOD9413096 Si02
#       6
#     8   8   8   8   8   8
#     4  11  24  40  56  77 112 155 188 223 285 350
#     4  11  24  40  56  77 112 155 188 223 285 350
#     4   9  17  31  53  83 116 145 177 225 285 341
#     4  11  21  36  60  87 110 139 189 241 276 319
#     4   9  17  31  53  83 116 145 177 225 285 341
#     4  11  21  36  60  87 110 139 189 241 276 319
#
# _framework density 21.826535
#
# number of rings (size 3 to 8) (size 9 to 14) (size 15 to 20)
#    0.000    1.667    0.000    7.000    0.000    6.667 
#    0.000    0.000    0.000    6.000    0.000    0.000 
#    0.000    0.000    0.000    0.000    0.000    0.000 
#
# Total GULP energy -267413.672803 kJ/mol
# GULP energy per Si atom -5571.118183 kJ/mol
# Density = 2.177686 g / cm^3
# Si number density = 21.826535 Si / 1000 Ang^3
#
#
#
# Elastic Constant Matrix: (Units=GPa)
#
#
# Indices 1 2 3 4 5 6 
#
# 1 27.2946 8.4011 4.5531 0.0000 0.0000 0.0000
# 2 8.4011 66.6822 24.1313 0.0000 0.0000 0.0000
# 3 4.5531 24.1313 114.1630 0.0000 0.0000 0.0000
# 4 0.0000 0.0000 0.0000 28.2049 0.0000 0.0000
# 5 0.0000 0.0000 0.0000 0.0000 -4.3941 0.0000
# 6 0.0000 0.0000 0.0000 0.0000 0.0000 -5.2781
#
#
#
# Elastic Compliance Matrix: (Units=1/GPa)
#
#
# Indices 1 2 3 4 5 6 
#
# 1 0.038147 -0.004608 -0.000547 0.000000 0.000000 0.000000
# 2 -0.004608 0.016795 -0.003366 0.000000 0.000000 0.000000
# 3 -0.000547 -0.003366 0.009493 0.000000 0.000000 0.000000
# 4 0.000000 0.000000 0.000000 0.035455 0.000000 0.000000
# 5 0.000000 0.000000 0.000000 0.000000 -0.227578 0.000000
# 6 0.000000 0.000000 0.000000 0.000000 0.000000 -0.189464
#
#
# Mechanical properties :
#
#
# Convention : Reuss Voigt Hill
#
# Bulk Modulus (GPa) = 21.10075 31.36788 26.23431
# Shear Modulus (GPa) = -17.58637 15.11016 -1.23810
#
# Velocity S-wave (km/s) = -2.84162 2.63398 -0.75397
# Velocity P-wave (km/s) = 1.03825 4.86345 3.35970
#
# Compressibility (1/GPa) = 0.04739169
#
# Stress axis : x y z
#
# Youngs Moduli (GPa) = 26.21441 59.54053 105.34301
#
# Poissons Ratio (x) = 0.27436 0.05766
# Poissons Ratio (y) = 0.12079 0.35462
# Poissons Ratio (z) = 0.01435 0.20043
#
# Static dielectric constant tensor:
#      x y z
#    x 1.774710 0.000000 0.000000 
#    y 0.000000 1.939250 0.000000 
#    z 0.000000 0.000000 1.744400 
# 
# From -- ./inp_files/2583.got.cif
#   From: 2010.05.17/outbox.cif.g08.bks.cpg/sg52_2_cif.got.tgz:2583.got - 2010.06.03 12:15:38.
