data_PCOD9413600
_publ_section_title
;
Structure prediction by ZEFSAII (Michael W. Deem and Ramdas Pophale) SiO2 
 PCOD9413600
Probable space group: P N N A
;
_chemical_formula_sum "Si O2"
_cell_formula_units_Z 24
_cell_length_a 7.577908
_cell_length_b 7.471033
_cell_length_c 17.753333
_cell_angle_alpha 90.000000
_cell_angle_beta 90.000000
_cell_angle_gamma 90.000000
_cell_volume 1005.101410
_symmetry_space_group_name_H-M "P N N A"
_symmetry_group_IT_number 52
_symmetry_cell_setting 'orthorhombic'
loop_
_space_group_symop_operation_xyz
x,y,z
1/2-x,-y,z
x,1/2-y,1/2-z
1/2-x,1/2+y,1/2-z
-x,-y,-z
1/2+x,y,-z
-x,1/2+y,1/2+z
1/2+x,1/2-y,1/2+z
loop_
_atom_site_type_symbol
_atom_site_label
_atom_site_fract_x
_atom_site_fract_y
_atom_site_fract_z
Si Si1 0.683427 0.812228 0.947046
Si Si2 0.047320 0.661569 0.899729
Si Si3 0.101882 0.239370 0.662590
O O1 0.525345 0.854845 0.889915
O O2 0.846433 0.725022 0.902606
O O3 0.750000 0.000000 0.980010
O O4 0.618087 0.686916 0.014793
O O5 0.061532 0.460373 0.869094
O O6 0.190252 0.770687 0.850481
O O7 0.059397 0.250000 0.750000
#
# Coordination Sequence:
#
# PCOD9413600 Si02
#       3
#     8   8   8
#     4  12  25  43  77 108 144 187 247 295 356 438
#     4  11  25  46  76 103 144 190 242 296 361 428
#     4  11  27  45  70 107 147 190 242 304 366 420
#
# _framework density 23.878187
#
# number of rings (size 3 to 8) (size 9 to 14) (size 15 to 20)
#    0.000    0.667    3.333    3.000    4.667    9.333 
#    0.000    0.000    0.000    0.000    0.000    0.000 
#    0.000    0.000    0.000    0.000    0.000    0.000 
#
# Total GULP energy -134453.281425 kJ/mol
# GULP energy per Si atom -5602.220059 kJ/mol
# Density = 2.382384 g / cm^3
# Si number density = 23.878187 Si / 1000 Ang^3
#
#
#
# Elastic Constant Matrix: (Units=GPa)
#
#
# Indices 1 2 3 4 5 6 
#
# 1 117.3495 26.5580 27.5521 0.0000 0.0000 0.0000
# 2 26.5580 85.6543 36.6123 0.0000 0.0000 0.0000
# 3 27.5521 36.6123 174.3744 0.0000 0.0000 0.0000
# 4 0.0000 0.0000 0.0000 6.4146 0.0000 0.0000
# 5 0.0000 0.0000 0.0000 0.0000 22.4166 0.0000
# 6 0.0000 0.0000 0.0000 0.0000 0.0000 33.0436
#
#
#
# Elastic Compliance Matrix: (Units=1/GPa)
#
#
# Indices 1 2 3 4 5 6 
#
# 1 0.009306 -0.002479 -0.000950 0.000000 0.000000 0.000000
# 2 -0.002479 0.013487 -0.002440 0.000000 0.000000 0.000000
# 3 -0.000950 -0.002440 0.006397 0.000000 0.000000 0.000000
# 4 0.000000 0.000000 0.000000 0.155895 0.000000 0.000000
# 5 0.000000 0.000000 0.000000 0.000000 0.044610 0.000000
# 6 0.000000 0.000000 0.000000 0.000000 0.000000 0.030263
#
#
# Mechanical properties :
#
#
# Convention : Reuss Voigt Hill
#
# Bulk Modulus (GPa) = 57.30253 62.09144 59.69699
# Shear Modulus (GPa) = 18.01722 31.48535 24.75129
#
# Velocity S-wave (km/s) = 2.74988 3.63517 3.22307
# Velocity P-wave (km/s) = 5.84230 6.60902 6.23745
#
# Compressibility (1/GPa) = 0.01745124
#
# Stress axis : x y z
#
# Youngs Moduli (GPa) = 107.46152 74.14816 156.31948
#
# Poissons Ratio (x) = 0.18384 0.14847
# Poissons Ratio (y) = 0.26643 0.38141
# Poissons Ratio (z) = 0.10206 0.18092
#
# Static dielectric constant tensor:
#      x y z
#    x 1.949010 0.000000 0.000000 
#    y 0.000000 1.983100 0.000000 
#    z 0.000000 0.000000 1.822920 
# 
# From -- ./inp_files/23864.got.cif
#   From: 2010.05.17/outbox.cif.g08.bks.cpg/sg52_12_cif.got.tgz:23864.got - 2010.06.03 12:15:38.
