data_PCOD9413477
_publ_section_title
;
Structure prediction by ZEFSAII (Michael W. Deem and Ramdas Pophale) SiO2 
 PCOD9413477
Probable space group: P N N A
;
_chemical_formula_sum "Si O2"
_cell_formula_units_Z 64
_cell_length_a 11.829949
_cell_length_b 17.053424
_cell_length_c 15.183841
_cell_angle_alpha 90.000000
_cell_angle_beta 90.000000
_cell_angle_gamma 90.000000
_cell_volume 3063.205335
_symmetry_space_group_name_H-M "P N N A"
_symmetry_group_IT_number 52
_symmetry_cell_setting 'orthorhombic'
loop_
_space_group_symop_operation_xyz
x,y,z
1/2-x,-y,z
x,1/2-y,1/2-z
1/2-x,1/2+y,1/2-z
-x,-y,-z
1/2+x,y,-z
-x,1/2+y,1/2+z
1/2+x,1/2-y,1/2+z
loop_
_atom_site_type_symbol
_atom_site_label
_atom_site_fract_x
_atom_site_fract_y
_atom_site_fract_z
Si Si1 0.294515 0.350413 0.609512
Si Si2 0.567080 0.066470 0.173092
Si Si3 0.461874 0.394342 0.750305
Si Si4 0.802926 0.165159 0.403545
Si Si5 0.640777 0.694884 0.902981
Si Si6 0.584562 0.177492 0.315369
Si Si7 0.851113 0.381451 0.583618
Si Si8 0.729197 0.088024 0.736321
O O1 0.189182 0.396607 0.651789
O O2 0.404508 0.345401 0.671745
O O3 0.270598 0.258195 0.597358
O O4 0.316687 0.393787 0.517397
O O5 0.518347 0.119638 0.251151
O O6 0.476966 0.082566 0.096125
O O7 0.571239 0.980824 0.214419
O O8 0.402903 0.364317 0.840024
O O9 0.596207 0.392520 0.759309
O O10 0.828833 0.151858 0.505587
O O11 0.689833 0.132755 0.357900
O O12 0.505593 0.697291 0.889259
O O13 0.664087 0.787609 0.905573
O O14 0.708082 0.651896 0.824807
O O15 0.614442 0.250000 0.250000
O O16 0.777046 0.413764 0.663924
O O17 0.750000 0.000000 0.699992
#
# Coordination Sequence:
#
# PCOD9413477 Si02
#       8
#     8   8   8   8   8   8   8   8
#     4  11  25  42  68 104 135 178 232 284 334 405
#     4  12  23  45  70  98 135 184 232 271 349 409
#     4  12  26  44  67  98 143 175 215 288 355 399
#     4  11  25  43  68 105 138 171 232 290 340 397
#     4  11  24  43  71 101 129 183 235 275 337 407
#     4  12  19  42  72  93 131 182 227 279 325 410
#     4  11  24  43  70  97 134 182 233 277 332 408
#     4  12  25  47  64  98 142 177 219 282 343 409
#
# _framework density 20.893146999999999
#
# number of rings (size 3 to 8) (size 9 to 14) (size 15 to 20)
#    0.000    0.500    6.250    1.125    3.500    3.500 
#    2.250    1.250    0.000    0.000    0.000    0.000 
#    0.000    0.000    0.000    0.000    0.000    0.000 
#
# Total GULP energy -356901.332458 kJ/mol
# GULP energy per Si atom -5576.583320 kJ/mol
# Density = 2.084559 g / cm^3
# Si number density = 20.893147 Si / 1000 Ang^3
#
#
#
# Elastic Constant Matrix: (Units=GPa)
#
#
# Indices 1 2 3 4 5 6 
#
# 1 153.4342 3.0773 51.7301 0.0000 0.0000 0.0000
# 2 3.0773 39.3771 10.5224 0.0000 0.0000 0.0000
# 3 51.7301 10.5224 128.9751 0.0000 0.0000 0.0000
# 4 0.0000 0.0000 0.0000 12.5201 0.0000 0.0000
# 5 0.0000 0.0000 0.0000 0.0000 21.5561 0.0000
# 6 0.0000 0.0000 0.0000 0.0000 0.0000 23.5755
#
#
#
# Elastic Compliance Matrix: (Units=1/GPa)
#
#
# Indices 1 2 3 4 5 6 
#
# 1 0.007539 0.000224 -0.003042 0.000000 0.000000 0.000000
# 2 0.000224 0.025968 -0.002208 0.000000 0.000000 0.000000
# 3 -0.003042 -0.002208 0.009154 0.000000 0.000000 0.000000
# 4 0.000000 0.000000 0.000000 0.079872 0.000000 0.000000
# 5 0.000000 0.000000 0.000000 0.000000 0.046391 0.000000
# 6 0.000000 0.000000 0.000000 0.000000 0.000000 0.042417
#
#
# Mechanical properties :
#
#
# Convention : Reuss Voigt Hill
#
# Bulk Modulus (GPa) = 30.66792 50.27177 40.46985
# Shear Modulus (GPa) = 21.52746 28.62744 25.07745
#
# Velocity S-wave (km/s) = 3.21340 3.70561 3.46825
# Velocity P-wave (km/s) = 5.33650 6.51325 5.95402
#
# Compressibility (1/GPa) = 0.03260736
#
# Stress axis : x y z
#
# Youngs Moduli (GPa) = 132.65203 38.50875 109.24617
#
# Poissons Ratio (x) = -0.00861 0.33231
# Poissons Ratio (y) = -0.02968 0.24125
# Poissons Ratio (z) = 0.40351 0.08504
#
# Static dielectric constant tensor:
#      x y z
#    x 1.772110 0.000000 0.000000 
#    y 0.000000 2.007780 0.000000 
#    z 0.000000 0.000000 1.794840 
# 
# From -- ./inp_files/26356.got.cif
#   From: 2010.05.17/outbox.cif.g08.bks.cpg/sg52_14_cif.got.tgz:26356.got - 2010.06.03 12:15:38.
