data_PCOD9413848
_publ_section_title
;
Structure prediction by ZEFSAII (Michael W. Deem and Ramdas Pophale) SiO2 
 PCOD9413848
Probable space group: P N N A
;
_chemical_formula_sum "Si O2"
_cell_formula_units_Z 56
_cell_length_a 10.416098
_cell_length_b 8.871618
_cell_length_c 24.989309
_cell_angle_alpha 90.000000
_cell_angle_beta 90.000000
_cell_angle_gamma 90.000000
_cell_volume 2309.203133
_symmetry_space_group_name_H-M "P N N A"
_symmetry_group_IT_number 52
_symmetry_cell_setting 'orthorhombic'
loop_
_space_group_symop_operation_xyz
x,y,z
1/2-x,-y,z
x,1/2-y,1/2-z
1/2-x,1/2+y,1/2-z
-x,-y,-z
1/2+x,y,-z
-x,1/2+y,1/2+z
1/2+x,1/2-y,1/2+z
loop_
_atom_site_type_symbol
_atom_site_label
_atom_site_fract_x
_atom_site_fract_y
_atom_site_fract_z
Si Si1 0.332481 0.119614 0.793443
Si Si2 0.773310 0.336972 0.111403
Si Si3 0.332481 0.880385 0.206557
Si Si4 0.500001 0.336194 0.973223
Si Si5 1.000000 0.888568 0.205176
Si Si6 0.000001 0.222847 0.918194
Si Si7 0.226692 0.336972 0.111402
O O1 0.329504 0.250000 0.750000
O O2 0.319958 0.204564 0.850116
O O3 0.500000 0.082673 0.789404
O O4 0.164170 0.071156 0.788801
O O5 0.750000 0.500000 0.139801
O O6 0.875476 0.337145 0.064188
O O7 0.633907 0.306963 0.088042
O O8 0.329504 0.750000 0.250000
O O9 0.164170 0.928844 0.211198
O O10 0.319959 0.795435 0.149884
O O11 0.624530 0.337144 0.935813
O O12 0.500000 0.500000 0.000000
O O13 0.500000 0.200117 0.016971
O O14 0.000000 0.750000 0.250000
O O15 0.999998 0.864899 0.139393
O O16 0.866096 0.306964 0.911956
O O17 0.250000 0.500000 0.139801
#
# Coordination Sequence:
#
# PCOD9413848 Si02
#       7
#     8   8   8   8   8   8   8
#     4  12  26  46  74 109 153 202 255 315 391 463
#     4  12  25  46  78 112 153 200 260 317 381 452
#     4  12  26  46  74 109 153 202 255 315 391 463
#     4  12  25  45  76 112 150 203 262 313 372 459
#     4  12  28  49  75 112 152 200 261 322 386 465
#     4  12  26  44  75 111 154 190 256 319 380 445
#     4  12  25  46  78 112 153 200 260 317 381 452
#
# _framework density 24.250788
#
# number of rings (size 3 to 8) (size 9 to 14) (size 15 to 20)
#    0.000    0.000    5.714    3.857    4.000    0.000 
#    0.000    2.857    0.000    0.000    0.000    0.000 
#    0.000    0.000    0.000    0.000    0.000    0.000 
#
# Total GULP energy -311963.154711 kJ/mol
# GULP energy per Si atom -5570.770620 kJ/mol
# Density = 2.419559 g / cm^3
# Si number density = 24.250788 Si / 1000 Ang^3
#
#
#
# Elastic Constant Matrix: (Units=GPa)
#
#
# Indices 1 2 3 4 5 6 
#
# 1 255.8412 92.0695 70.9615 0.0000 0.0000 0.0000
# 2 92.0695 161.9894 112.6196 0.0000 0.0000 0.0000
# 3 70.9615 112.6196 165.2707 0.0000 0.0000 0.0000
# 4 0.0000 0.0000 0.0000 33.3267 0.0000 0.0000
# 5 0.0000 0.0000 0.0000 0.0000-4510.1861 0.0000
# 6 0.0000 0.0000 0.0000 0.0000 0.0000 204.5342
#
#
#
# Elastic Compliance Matrix: (Units=1/GPa)
#
#
# Indices 1 2 3 4 5 6 
#
# 1 0.004927 -0.002527 -0.000394 0.000000 0.000000 0.000000
# 2 -0.002527 0.013026 -0.007792 0.000000 0.000000 0.000000
# 3 -0.000394 -0.007792 0.011529 0.000000 0.000000 0.000000
# 4 0.000000 0.000000 0.000000 0.030006 0.000000 0.000000
# 5 0.000000 0.000000 0.000000 0.000000 -0.000222 0.000000
# 6 0.000000 0.000000 0.000000 0.000000 0.000000 0.004889
#
#
# Mechanical properties :
#
#
# Convention : Reuss Voigt Hill
#
# Bulk Modulus (GPa) = 124.09287 126.04471 125.06879
# Shear Modulus (GPa) = 56.64694 -833.96831 -388.66069
#
# Velocity S-wave (km/s) = 4.83834 -18.56448 -12.67340
# Velocity P-wave (km/s) = 9.08264 20.18493 12.74631
#
# Compressibility (1/GPa) = 0.00805848
#
# Stress axis : x y z
#
# Youngs Moduli (GPa) = 202.95625 76.76856 86.73694
#
# Poissons Ratio (x) = 0.19397 0.03416
# Poissons Ratio (y) = 0.51279 0.67581
# Poissons Ratio (z) = 0.07993 0.59814
#
# Static dielectric constant tensor:
#      x y z
#    x 2.249540 0.000000 0.000000 
#    y 0.000000 1.934030 0.000000 
#    z 0.000000 0.000000 2.049830 
# 
# From -- ./inp_files/36232.got.cif
#   From: 2010.05.17/outbox.cif.g08.bks.cpg/sg52_19_cif.got.tgz:36232.got - 2010.06.03 12:15:38.
