data_PCOD9413099
_publ_section_title
;
Structure prediction by ZEFSAII (Michael W. Deem and Ramdas Pophale) SiO2 
 PCOD9413099
Probable space group: P N N A
;
_chemical_formula_sum "Si O2"
_cell_formula_units_Z 32
_cell_length_a 19.068916
_cell_length_b 4.846340
_cell_length_c 17.123801
_cell_angle_alpha 90.000000
_cell_angle_beta 90.000000
_cell_angle_gamma 90.000000
_cell_volume 1582.486658
_symmetry_space_group_name_H-M "P N N A"
_symmetry_group_IT_number 52
_symmetry_cell_setting 'orthorhombic'
loop_
_space_group_symop_operation_xyz
x,y,z
1/2-x,-y,z
x,1/2-y,1/2-z
1/2-x,1/2+y,1/2-z
-x,-y,-z
1/2+x,y,-z
-x,1/2+y,1/2+z
1/2+x,1/2-y,1/2+z
loop_
_atom_site_type_symbol
_atom_site_label
_atom_site_fract_x
_atom_site_fract_y
_atom_site_fract_z
Si Si1 0.135964 0.926261 0.671131
Si Si2 0.826006 0.590835 0.425800
Si Si3 0.520807 0.995283 0.694353
Si Si4 0.952191 0.757665 0.530206
O O1 0.150377 0.750000 0.750000
O O2 0.137618 0.684766 0.607173
O O3 0.059565 0.075317 0.671482
O O4 0.183946 0.181604 0.643380
O O5 0.750000 0.500000 0.455196
O O6 0.877006 0.720024 0.490047
O O7 0.509931 0.250000 0.750000
O O8 0.557955 0.137707 0.619861
O O9 0.550108 0.750000 0.750000
O O10 0.000000 0.500000 0.500000
O O11 0.000000 0.000000 0.500000
#
# Coordination Sequence:
#
# PCOD9413099 Si02
#       4
#     8   8   8   8
#     4  11  22  38  59  86 130 173 217 257 319 395
#     4  12  24  40  60  90 127 175 218 267 324 398
#     4  11  21  36  61  90 123 159 215 273 327 383
#     4  12  22  40  63  91 123 170 215 271 330 392
#
# _framework density 20.221340000000001
#
# number of rings (size 3 to 8) (size 9 to 14) (size 15 to 20)
#    0.000    0.500    5.000    6.000    0.000    2.000 
#    0.000    1.250    0.000    0.000    0.000    8.750 
#    0.000    0.000    0.000    0.000    0.000    0.000 
#
# Total GULP energy -178225.710113 kJ/mol
# GULP energy per Si atom -5569.553441 kJ/mol
# Density = 2.017531 g / cm^3
# Si number density = 20.221340 Si / 1000 Ang^3
#
#
#
# Elastic Constant Matrix: (Units=GPa)
#
#
# Indices 1 2 3 4 5 6 
#
# 1 107.1725 28.1587 53.2090 0.0000 0.0000 0.0000
# 2 28.1587 133.9367 25.0345 0.0000 0.0000 0.0000
# 3 53.2090 25.0345 103.2103 0.0000 0.0000 0.0000
# 4 0.0000 0.0000 0.0000 35.1649 0.0000 0.0000
# 5 0.0000 0.0000 0.0000 0.0000 58.5942 0.0000
# 6 0.0000 0.0000 0.0000 0.0000 0.0000 26.6320
#
#
#
# Elastic Compliance Matrix: (Units=1/GPa)
#
#
# Indices 1 2 3 4 5 6 
#
# 1 0.012833 -0.001531 -0.006245 0.000000 0.000000 0.000000
# 2 -0.001531 0.008003 -0.001152 0.000000 0.000000 0.000000
# 3 -0.006245 -0.001152 0.013188 0.000000 0.000000 0.000000
# 4 0.000000 0.000000 0.000000 0.028437 0.000000 0.000000
# 5 0.000000 0.000000 0.000000 0.000000 0.017067 0.000000
# 6 0.000000 0.000000 0.000000 0.000000 0.000000 0.037549
#
#
# Mechanical properties :
#
#
# Convention : Reuss Voigt Hill
#
# Bulk Modulus (GPa) = 61.84605 61.90265 61.87435
# Shear Modulus (GPa) = 35.63218 39.93938 37.78578
#
# Velocity S-wave (km/s) = 4.20230 4.44904 4.32743
# Velocity P-wave (km/s) = 7.36184 7.55453 7.45881
#
# Compressibility (1/GPa) = 0.01616918
#
# Stress axis : x y z
#
# Youngs Moduli (GPa) = 77.92176 124.94695 75.82744
#
# Poissons Ratio (x) = 0.19127 0.47353
# Poissons Ratio (y) = 0.11929 0.08736
# Poissons Ratio (z) = 0.48661 0.14395
#
# Static dielectric constant tensor:
#      x y z
#    x 1.790370 0.000000 0.000000 
#    y 0.000000 1.711050 0.000000 
#    z 0.000000 0.000000 1.748370 
# 
# From -- ./inp_files/33387.got.cif
#   From: 2010.05.17/outbox.cif.g08.bks.cpg/sg52_17_cif.got.tgz:33387.got - 2010.06.03 12:15:38.
