data_PCOD9413913
_publ_section_title
;
Structure prediction by ZEFSAII (Michael W. Deem and Ramdas Pophale) SiO2 
 PCOD9413913
Probable space group: P N N A
;
_chemical_formula_sum "Si O2"
_cell_formula_units_Z 40
_cell_length_a 16.736000
_cell_length_b 10.834419
_cell_length_c 8.632151
_cell_angle_alpha 90.000000
_cell_angle_beta 90.000000
_cell_angle_gamma 90.000000
_cell_volume 1565.223368
_symmetry_space_group_name_H-M "P N N A"
_symmetry_group_IT_number 52
_symmetry_cell_setting 'orthorhombic'
loop_
_space_group_symop_operation_xyz
x,y,z
1/2-x,-y,z
x,1/2-y,1/2-z
1/2-x,1/2+y,1/2-z
-x,-y,-z
1/2+x,y,-z
-x,1/2+y,1/2+z
1/2+x,1/2-y,1/2+z
loop_
_atom_site_type_symbol
_atom_site_label
_atom_site_fract_x
_atom_site_fract_y
_atom_site_fract_z
Si Si1 0.517548 0.997191 0.679571
Si Si2 0.352153 0.375405 0.336311
Si Si3 0.448562 0.750000 0.250000
Si Si4 0.872903 0.972460 0.153153
Si Si5 0.698486 0.236514 0.968436
Si Si6 0.750000 0.000000 0.408369
O O1 0.498083 0.131327 0.745606
O O2 0.500000 0.000000 0.500000
O O3 0.610027 0.973555 0.718271
O O4 0.457543 0.919384 0.785804
O O5 0.383720 0.250000 0.250000
O O6 0.376845 0.435324 0.504107
O O7 0.259494 0.343470 0.362615
O O8 0.388457 0.750118 0.393650
O O9 0.817405 0.855655 0.109536
O O10 0.827100 0.027377 0.300886
O O11 0.733366 0.371383 0.002802
#
# Coordination Sequence:
#
# PCOD9413913 Si02
#       6
#     8   8   4   8   8   4
#     4  12  31  52  80 120 162 220 274 343 423 493
#     4  12  28  49  80 114 159 213 274 334 417 491
#     4  12  28  48  84 114 164 206 278 334 410 500
#     4  12  27  54  79 118 166 210 274 344 416 492
#     4  12  27  49  82 119 161 216 268 345 412 496
#     4  12  28  46  86 122 158 210 278 334 420 500
#
# _framework density 25.555458999999999
#
# number of rings (size 3 to 8) (size 9 to 14) (size 15 to 20)
#    0.000    0.000    5.000    2.400    8.400    1.600 
#    0.000    0.000    0.000    0.000    0.000    0.000 
#    0.000    0.000    0.000    0.000    0.000    0.000 
#
# Total GULP energy -223441.621896 kJ/mol
# GULP energy per Si atom -5586.040547 kJ/mol
# Density = 2.549729 g / cm^3
# Si number density = 25.555459 Si / 1000 Ang^3
#
#
#
# Elastic Constant Matrix: (Units=GPa)
#
#
# Indices 1 2 3 4 5 6 
#
# 1 110.2098 23.2695 53.4596 0.0000 0.0000 0.0000
# 2 23.2695 118.2223 42.5172 0.0000 0.0000 0.0000
# 3 53.4596 42.5172 127.0410 0.0000 0.0000 0.0000
# 4 0.0000 0.0000 0.0000 45.7779 0.0000 0.0000
# 5 0.0000 0.0000 0.0000 0.0000 41.4484 0.0000
# 6 0.0000 0.0000 0.0000 0.0000 0.0000 29.1687
#
#
#
# Elastic Compliance Matrix: (Units=1/GPa)
#
#
# Indices 1 2 3 4 5 6 
#
# 1 0.011437 -0.000591 -0.004615 0.000000 0.000000 0.000000
# 2 -0.000591 0.009647 -0.002980 0.000000 0.000000 0.000000
# 3 -0.004615 -0.002980 0.010811 0.000000 0.000000 0.000000
# 4 0.000000 0.000000 0.000000 0.021845 0.000000 0.000000
# 5 0.000000 0.000000 0.000000 0.000000 0.024126 0.000000
# 6 0.000000 0.000000 0.000000 0.000000 0.000000 0.034283
#
#
# Mechanical properties :
#
#
# Convention : Reuss Voigt Hill
#
# Bulk Modulus (GPa) = 64.42251 65.99618 65.20935
# Shear Modulus (GPa) = 37.39874 39.02746 38.21310
#
# Velocity S-wave (km/s) = 3.82964 3.91214 3.87111
# Velocity P-wave (km/s) = 6.69466 6.80347 6.74928
#
# Compressibility (1/GPa) = 0.01552252
#
# Stress axis : x y z
#
# Youngs Moduli (GPa) = 87.43559 103.66323 92.50191
#
# Poissons Ratio (x) = 0.06131 0.42688
# Poissons Ratio (y) = 0.05172 0.27562
# Poissons Ratio (z) = 0.40350 0.30887
#
# Static dielectric constant tensor:
#      x y z
#    x 1.984720 0.000000 0.000000 
#    y 0.000000 2.167810 0.000000 
#    z 0.000000 0.000000 2.080720 
# 
# From -- ./inp_files/11709.got.cif
#   From: 2010.05.17/outbox.cif.g08.bks.cpg/sg52_6_cif.got.tgz:11709.got - 2010.06.03 12:15:38.
