data_PCOD9413291
_publ_section_title
;
Structure prediction by ZEFSAII (Michael W. Deem and Ramdas Pophale) SiO2 
 PCOD9413291
Probable space group: P N N A
;
_chemical_formula_sum "Si O2"
_cell_formula_units_Z 48
_cell_length_a 19.406001
_cell_length_b 14.987481
_cell_length_c 8.437500
_cell_angle_alpha 90.000000
_cell_angle_beta 90.000000
_cell_angle_gamma 90.000000
_cell_volume 2454.022164
_symmetry_space_group_name_H-M "P N N A"
_symmetry_group_IT_number 52
_symmetry_cell_setting 'orthorhombic'
loop_
_space_group_symop_operation_xyz
x,y,z
1/2-x,-y,z
x,1/2-y,1/2-z
1/2-x,1/2+y,1/2-z
-x,-y,-z
1/2+x,y,-z
-x,1/2+y,1/2+z
1/2+x,1/2-y,1/2+z
loop_
_atom_site_type_symbol
_atom_site_label
_atom_site_fract_x
_atom_site_fract_y
_atom_site_fract_z
Si Si1 0.026675 0.326450 0.120473
Si Si2 0.802188 0.574752 0.591236
Si Si3 0.585765 0.837533 0.647522
Si Si4 0.954061 0.504217 0.657731
Si Si5 0.236800 0.599459 0.060686
Si Si6 0.838733 0.737806 0.068363
O O1 0.019816 0.250000 0.250000
O O2 0.025023 0.420504 0.213574
O O3 0.098674 0.306130 0.030744
O O4 0.965145 0.318307 0.996442
O O5 0.750000 0.500000 0.522940
O O6 0.875940 0.528594 0.611781
O O7 0.771553 0.600591 0.763960
O O8 0.815774 0.666041 0.498505
O O9 0.601684 0.750000 0.750000
O O10 0.656727 0.879758 0.584531
O O11 0.547487 0.908878 0.758464
O O12 0.000000 0.500000 0.500000
O O13 0.250000 0.500000 0.998087
O O14 0.274304 0.671779 0.952762
O O15 0.859753 0.750000 0.250000
#
# Coordination Sequence:
#
# PCOD9413291 Si02
#       6
#     8   8   8   8   8   8
#     4  12  24  46  68  99 144 185 225 285 348 419
#     4  11  22  46  73  95 134 186 234 277 346 422
#     4  12  25  42  71 103 138 182 234 282 350 416
#     4  12  25  44  70 103 136 180 231 286 347 420
#     4  11  22  46  71  96 133 185 228 281 349 415
#     4  12  25  42  71 103 138 179 232 286 348 418
#
# _framework density 19.559726999999999
#
# number of rings (size 3 to 8) (size 9 to 14) (size 15 to 20)
#    0.000    0.333    6.667    3.500    2.333    1.333 
#    3.000    0.000    0.000    0.000    0.000    0.000 
#    0.000    0.000    0.000    0.000    0.000    0.000 
#
# Total GULP energy -268483.263129 kJ/mol
# GULP energy per Si atom -5593.401315 kJ/mol
# Density = 1.951521 g / cm^3
# Si number density = 19.559727 Si / 1000 Ang^3
#
#
#
# Elastic Constant Matrix: (Units=GPa)
#
#
# Indices 1 2 3 4 5 6 
#
# 1 97.5276 -13.7137 31.0895 0.0000 0.0000 0.0000
# 2 -13.7137 80.0900 29.0396 0.0000 0.0000 0.0000
# 3 31.0895 29.0396 77.2507 0.0000 0.0000 0.0000
# 4 0.0000 0.0000 0.0000 -13.4336 0.0000 0.0000
# 5 0.0000 0.0000 0.0000 0.0000 24.0535 0.0000
# 6 0.0000 0.0000 0.0000 0.0000 0.0000 49.2318
#
#
#
# Elastic Compliance Matrix: (Units=1/GPa)
#
#
# Indices 1 2 3 4 5 6 
#
# 1 0.013212 0.004851 -0.007141 0.000000 0.000000 0.000000
# 2 0.004851 0.016238 -0.008056 0.000000 0.000000 0.000000
# 3 -0.007141 -0.008056 0.018847 0.000000 0.000000 0.000000
# 4 0.000000 0.000000 0.000000 -0.074440 0.000000 0.000000
# 5 0.000000 0.000000 0.000000 0.000000 0.041574 0.000000
# 6 0.000000 0.000000 0.000000 0.000000 0.000000 0.020312
#
#
# Mechanical properties :
#
#
# Convention : Reuss Voigt Hill
#
# Bulk Modulus (GPa) = 36.22494 38.63324 37.42909
# Shear Modulus (GPa) = 76.17713 25.86722 51.02217
#
# Velocity S-wave (km/s) = 6.24744 3.64053 5.11292
# Velocity P-wave (km/s) = 8.40244 6.12091 7.35073
#
# Compressibility (1/GPa) = 0.02760529
#
# Stress axis : x y z
#
# Youngs Moduli (GPa) = 75.68848 61.58450 53.05810
#
# Poissons Ratio (x) = -0.29878 0.37888
# Poissons Ratio (y) = -0.36720 0.42746
# Poissons Ratio (z) = 0.54049 0.49616
#
# Static dielectric constant tensor:
#      x y z
#    x 1.649840 0.000000 0.000000 
#    y 0.000000 1.718200 0.000000 
#    z 0.000000 0.000000 2.094770 
# 
# From -- ./inp_files/12074.got.cif
#   From: 2010.05.17/outbox.cif.g08.bks.cpg/sg52_7_cif.got.tgz:12074.got - 2010.06.03 12:15:38.
