data_PCOD9413699
_publ_section_title
;
Structure prediction by ZEFSAII (Michael W. Deem and Ramdas Pophale) SiO2 
 PCOD9413699
Probable space group: P N N A
;
_chemical_formula_sum "Si O2"
_cell_formula_units_Z 44
_cell_length_a 15.640790
_cell_length_b 11.679529
_cell_length_c 10.145262
_cell_angle_alpha 90.000000
_cell_angle_beta 90.000000
_cell_angle_gamma 90.000000
_cell_volume 1853.306639
_symmetry_space_group_name_H-M "P N N A"
_symmetry_group_IT_number 52
_symmetry_cell_setting 'orthorhombic'
loop_
_space_group_symop_operation_xyz
x,y,z
1/2-x,-y,z
x,1/2-y,1/2-z
1/2-x,1/2+y,1/2-z
-x,-y,-z
1/2+x,y,-z
-x,1/2+y,1/2+z
1/2+x,1/2-y,1/2+z
loop_
_atom_site_type_symbol
_atom_site_label
_atom_site_fract_x
_atom_site_fract_y
_atom_site_fract_z
Si Si1 0.225137 0.750000 0.250000
Si Si2 0.086366 0.303503 0.021692
Si Si3 0.592371 0.681849 0.949472
Si Si4 0.530040 0.020993 0.744575
Si Si5 0.150818 0.508181 0.833458
Si Si6 0.180298 0.416229 0.402249
O O1 0.164774 0.749911 0.124167
O O2 0.277899 0.632991 0.264877
O O3 0.054346 0.366869 0.155891
O O4 0.154162 0.202589 0.031514
O O5 0.126008 0.399999 0.926586
O O6 0.995752 0.252419 0.973629
O O7 0.559940 0.581588 0.850834
O O8 0.633534 0.619523 0.075259
O O9 0.592229 0.022249 0.867818
O O10 0.428498 0.013409 0.768927
O O11 0.250000 0.500000 0.793081
O O12 0.250000 0.500000 0.463282
#
# Coordination Sequence:
#
# PCOD9413699 Si02
#       6
#     4   8   8   8   8   8
#     4  12  20  30  54  80 108 142 182 232 272 332
#     4   9  18  33  49  77 113 142 170 232 283 328
#     4   9  19  31  49  79 108 141 183 219 279 326
#     4   9  17  31  48  81 107 133 175 235 276 315
#     4   9  17  30  54  79 107 137 181 230 280 332
#     4  12  21  30  53  85 114 139 186 231 282 334
#
# _framework density 23.741350000000001
#
# number of rings (size 3 to 8) (size 9 to 14) (size 15 to 20)
#    0.000    2.182    3.636    3.273    2.545    0.000 
#    0.000    0.909    0.000    0.000   47.273    0.000 
#    0.000    0.000    0.000    0.000    0.000    0.000 
#
# Total GULP energy -245576.182890 kJ/mol
# GULP energy per Si atom -5581.276884 kJ/mol
# Density = 2.368731 g / cm^3
# Si number density = 23.741350 Si / 1000 Ang^3
#
#
#
# Elastic Constant Matrix: (Units=GPa)
#
#
# Indices 1 2 3 4 5 6 
#
# 1 241.0944 52.1184 32.2310 0.0000 0.0000 0.0000
# 2 52.1184 80.8218 5.3514 0.0000 0.0000 0.0000
# 3 32.2310 5.3514 17.9115 0.0000 0.0000 0.0000
# 4 0.0000 0.0000 0.0000 8.8528 0.0000 0.0000
# 5 0.0000 0.0000 0.0000 0.0000 21.0497 0.0000
# 6 0.0000 0.0000 0.0000 0.0000 0.0000 45.0664
#
#
#
# Elastic Compliance Matrix: (Units=1/GPa)
#
#
# Indices 1 2 3 4 5 6 
#
# 1 0.006238 -0.003346 -0.010225 0.000000 0.000000 0.000000
# 2 -0.003346 0.014417 0.001713 0.000000 0.000000 0.000000
# 3 -0.010225 0.001713 0.073719 0.000000 0.000000 0.000000
# 4 0.000000 0.000000 0.000000 0.112958 0.000000 0.000000
# 5 0.000000 0.000000 0.000000 0.000000 0.047507 0.000000
# 6 0.000000 0.000000 0.000000 0.000000 0.000000 0.022189
#
#
# Mechanical properties :
#
#
# Convention : Reuss Voigt Hill
#
# Bulk Modulus (GPa) = 14.15283 57.69217 35.92250
# Shear Modulus (GPa) = 15.41799 31.66892 23.54346
#
# Velocity S-wave (km/s) = 2.55113 3.65624 3.15249
# Velocity P-wave (km/s) = 3.82778 6.49440 5.33053
#
# Compressibility (1/GPa) = 0.07065724
#
# Stress axis : x y z
#
# Youngs Moduli (GPa) = 160.30835 69.36315 13.56508
#
# Poissons Ratio (x) = 0.23206 0.13871
# Poissons Ratio (y) = 0.53632 -0.02323
# Poissons Ratio (z) = 1.63923 -0.11881
#
# Static dielectric constant tensor:
#      x y z
#    x 1.963760 0.000000 0.000000 
#    y 0.000000 1.903630 0.000000 
#    z 0.000000 0.000000 1.947690 
# 
# From -- ./inp_files/27092.got.cif
#   From: 2010.05.17/outbox.cif.g08.bks.cpg/sg52_14_cif.got.tgz:27092.got - 2010.06.03 12:15:38.
