data_PCOD9413448
_publ_section_title
;
Structure prediction by ZEFSAII (Michael W. Deem and Ramdas Pophale) SiO2 
 PCOD9413448
Probable space group: P N N A
;
_chemical_formula_sum "Si O2"
_cell_formula_units_Z 28
_cell_length_a 4.866560
_cell_length_b 20.157662
_cell_length_c 10.654243
_cell_angle_alpha 90.000000
_cell_angle_beta 90.000000
_cell_angle_gamma 90.000000
_cell_volume 1045.164954
_symmetry_space_group_name_H-M "P N N A"
_symmetry_group_IT_number 52
_symmetry_cell_setting 'orthorhombic'
loop_
_space_group_symop_operation_xyz
x,y,z
1/2-x,-y,z
x,1/2-y,1/2-z
1/2-x,1/2+y,1/2-z
-x,-y,-z
1/2+x,y,-z
-x,1/2+y,1/2+z
1/2+x,1/2-y,1/2+z
loop_
_atom_site_type_symbol
_atom_site_label
_atom_site_fract_x
_atom_site_fract_y
_atom_site_fract_z
Si Si1 0.611295 0.152927 0.848619
Si Si2 0.750000 0.500000 0.900298
Si Si3 0.420120 0.934166 0.829759
Si Si4 0.884144 0.698413 0.925847
O O1 0.318524 0.120256 0.819550
O O2 0.598399 0.221714 0.922707
O O3 0.710846 0.175742 0.709953
O O4 0.831334 0.101257 0.905930
O O5 0.590860 0.545570 0.795247
O O6 0.500000 0.500000 0.000000
O O7 0.250000 0.000000 0.869697
O O8 0.181351 0.674034 0.966448
#
# Coordination Sequence:
#
# PCOD9413448 Si02
#       4
#     8   4   8   8
#     4  11  24  41  69  95 129 174 216 265 332 387
#     4  12  22  36  54  90 130 164 206 248 308 390
#     4  12  22  41  61  93 129 179 203 257 323 395
#     4  11  24  44  66  97 127 167 222 278 325 377
#
# _framework density 26.790026999999998
#
# number of rings (size 3 to 8) (size 9 to 14) (size 15 to 20)
#    0.000    0.571    4.286    3.429    0.000   11.429 
#    0.000    0.000    0.000   17.143    0.000    0.000 
#    0.000    0.000    0.000    0.000    0.000    0.000 
#
# Total GULP energy -156322.820433 kJ/mol
# GULP energy per Si atom -5582.957873 kJ/mol
# Density = 2.672905 g / cm^3
# Si number density = 26.790027 Si / 1000 Ang^3
#
#
#
# Elastic Constant Matrix: (Units=GPa)
#
#
# Indices 1 2 3 4 5 6 
#
# 1 220.5921 59.7027 21.7968 0.0000 0.0000 0.0000
# 2 59.7027 98.2176 29.3701 0.0000 0.0000 0.0000
# 3 21.7968 29.3701 89.0643 0.0000 0.0000 0.0000
# 4 0.0000 0.0000 0.0000 12.2149 0.0000 0.0000
# 5 0.0000 0.0000 0.0000 0.0000 32.8531 0.0000
# 6 0.0000 0.0000 0.0000 0.0000 0.0000 47.4238
#
#
#
# Elastic Compliance Matrix: (Units=1/GPa)
#
#
# Indices 1 2 3 4 5 6 
#
# 1 0.005432 -0.003222 -0.000267 0.000000 0.000000 0.000000
# 2 -0.003222 0.013206 -0.003566 0.000000 0.000000 0.000000
# 3 -0.000267 -0.003566 0.012469 0.000000 0.000000 0.000000
# 4 0.000000 0.000000 0.000000 0.081868 0.000000 0.000000
# 5 0.000000 0.000000 0.000000 0.000000 0.030438 0.000000
# 6 0.000000 0.000000 0.000000 0.000000 0.000000 0.021086
#
#
# Mechanical properties :
#
#
# Convention : Reuss Voigt Hill
#
# Bulk Modulus (GPa) = 58.83435 69.95703 64.39569
# Shear Modulus (GPa) = 27.13325 38.29866 32.71595
#
# Velocity S-wave (km/s) = 3.18592 3.78509 3.49836
# Velocity P-wave (km/s) = 5.96175 6.72847 6.35668
#
# Compressibility (1/GPa) = 0.01699687
#
# Stress axis : x y z
#
# Youngs Moduli (GPa) = 184.10744 75.72077 80.19738
#
# Poissons Ratio (x) = 0.24396 0.02140
# Poissons Ratio (y) = 0.59317 0.28602
# Poissons Ratio (z) = 0.04913 0.27006
#
# Static dielectric constant tensor:
#      x y z
#    x 2.027290 0.000000 0.000000 
#    y 0.000000 2.199230 0.000000 
#    z 0.000000 0.000000 2.049620 
# 
# From -- ./inp_files/15933.got.cif
#   From: 2010.05.17/outbox.cif.g08.bks.cpg/sg52_8_cif.got.tgz:15933.got - 2010.06.03 12:15:38.
