data_PCOD9413720
_publ_section_title
;
Structure prediction by ZEFSAII (Michael W. Deem and Ramdas Pophale) SiO2 
 PCOD9413720
Probable space group: P N N A
;
_chemical_formula_sum "Si O2"
_cell_formula_units_Z 64
_cell_length_a 19.275273
_cell_length_b 8.462755
_cell_length_c 23.414678
_cell_angle_alpha 90.000000
_cell_angle_beta 90.000000
_cell_angle_gamma 90.000000
_cell_volume 3819.447067
_symmetry_space_group_name_H-M "P N N A"
_symmetry_group_IT_number 52
_symmetry_cell_setting 'orthorhombic'
loop_
_space_group_symop_operation_xyz
x,y,z
1/2-x,-y,z
x,1/2-y,1/2-z
1/2-x,1/2+y,1/2-z
-x,-y,-z
1/2+x,y,-z
-x,1/2+y,1/2+z
1/2+x,1/2-y,1/2+z
loop_
_atom_site_type_symbol
_atom_site_label
_atom_site_fract_x
_atom_site_fract_y
_atom_site_fract_z
Si Si1 0.488100 0.789734 0.086036
Si Si2 0.228983 0.182619 0.127903
Si Si3 0.539498 0.835770 0.904360
Si Si4 0.877747 0.339644 0.479053
Si Si5 0.904345 0.816470 0.688180
Si Si6 0.136679 0.819698 0.313104
Si Si7 0.765562 0.818109 0.502345
Si Si8 0.405359 0.786136 0.969708
O O1 0.567368 0.771177 0.066297
O O2 0.464862 0.695652 0.141408
O O3 0.472501 0.975402 0.098145
O O4 0.442062 0.747724 0.030356
O O5 0.159403 0.213575 0.163252
O O6 0.291749 0.284141 0.153997
O O7 0.218316 0.231707 0.062312
O O8 0.250000 0.000000 0.130695
O O9 0.575579 0.765360 0.848872
O O10 0.464897 0.765391 0.922368
O O11 0.591339 0.805613 0.957766
O O12 0.801164 0.269531 0.476096
O O13 0.883287 0.528970 0.471949
O O14 0.924052 0.750000 0.750000
O O15 0.878128 0.995269 0.691137
O O16 0.141960 0.750000 0.250000
O O17 0.834511 0.808338 0.464257
O O18 0.750000 0.000000 0.514383
#
# Coordination Sequence:
#
# PCOD9413720 Si02
#       8
#     8   8   8   8   8   8   8   8
#     4   9  18  34  54  76 100 134 174 213 255 304
#     4  12  23  37  52  70 103 141 179 217 252 299
#     4   9  18  34  54  76 100 134 174 213 255 304
#     4   9  18  33  54  75 102 137 171 208 258 309
#     4  12  24  37  53  75 103 138 177 216 257 302
#     4  12  24  37  53  75 103 138 177 216 257 302
#     4  12  22  31  49  80 109 137 173 211 256 307
#     4   9  18  33  54  75 102 137 171 208 258 309
#
# _framework density 16.756352
#
# number of rings (size 3 to 8) (size 9 to 14) (size 15 to 20)
#    0.000    1.500    2.500    6.375    0.000    1.000 
#    0.000    2.500    0.000    0.000    0.000    0.875 
#    0.000    0.000    0.000    0.000    0.000    0.000 
#
# Total GULP energy -357548.911978 kJ/mol
# GULP energy per Si atom -5586.701750 kJ/mol
# Density = 1.671821 g / cm^3
# Si number density = 16.756352 Si / 1000 Ang^3
#
#
#
# Elastic Constant Matrix: (Units=GPa)
#
#
# Indices 1 2 3 4 5 6 
#
# 1 70.2440 -17.0043 16.1130 0.0000 0.0000 0.0000
# 2 -17.0043 14.2169 -10.2029 0.0000 0.0000 0.0000
# 3 16.1130 -10.2029 44.0241 0.0000 0.0000 0.0000
# 4 0.0000 0.0000 0.0000 20.6392 0.0000 0.0000
# 5 0.0000 0.0000 0.0000 0.0000 -4.7574 0.0000
# 6 0.0000 0.0000 0.0000 0.0000 0.0000 9.1871
#
#
#
# Elastic Compliance Matrix: (Units=1/GPa)
#
#
# Indices 1 2 3 4 5 6 
#
# 1 0.020206 0.022623 -0.002153 0.000000 0.000000 0.000000
# 2 0.022623 0.109701 0.017144 0.000000 0.000000 0.000000
# 3 -0.002153 0.017144 0.027476 0.000000 0.000000 0.000000
# 4 0.000000 0.000000 0.000000 0.048452 0.000000 0.000000
# 5 0.000000 0.000000 0.000000 0.000000 -0.210200 0.000000
# 6 0.000000 0.000000 0.000000 0.000000 0.000000 0.108848
#
#
# Mechanical properties :
#
#
# Convention : Reuss Voigt Hill
#
# Bulk Modulus (GPa) = 4.29899 11.81074 8.05486
# Shear Modulus (GPa) = 46.81999 14.31906 30.56953
#
# Velocity S-wave (km/s) = 5.29172 2.92643 4.27588
# Velocity P-wave (km/s) = 6.31724 4.29913 5.40324
#
# Compressibility (1/GPa) = 0.23261298
#
# Stress axis : x y z
#
# Youngs Moduli (GPa) = 49.48920 9.11565 36.39562
#
# Poissons Ratio (x) = -0.20623 0.07834
# Poissons Ratio (y) = -1.11962 -0.62396
# Poissons Ratio (z) = 0.10653 -0.15628
#
# Static dielectric constant tensor:
#      x y z
#    x 1.573710 0.000000 0.000000 
#    y 0.000000 1.583990 0.000000 
#    z 0.000000 0.000000 1.538820 
# 
# From -- ./inp_files/37679.got.cif
#   From: 2010.05.17/outbox.cif.g08.bks.cpg/sg52_19_cif.got.tgz:37679.got - 2010.06.03 12:15:38.
