data_PCOD9413378
_publ_section_title
;
Structure prediction by ZEFSAII (Michael W. Deem and Ramdas Pophale) SiO2 
 PCOD9413378
Probable space group: P N N A
;
_chemical_formula_sum "Si O2"
_cell_formula_units_Z 44
_cell_length_a 16.625942
_cell_length_b 13.982153
_cell_length_c 7.634625
_cell_angle_alpha 90.000000
_cell_angle_beta 90.000000
_cell_angle_gamma 90.000000
_cell_volume 1774.794284
_symmetry_space_group_name_H-M "P N N A"
_symmetry_group_IT_number 52
_symmetry_cell_setting 'orthorhombic'
loop_
_space_group_symop_operation_xyz
x,y,z
1/2-x,-y,z
x,1/2-y,1/2-z
1/2-x,1/2+y,1/2-z
-x,-y,-z
1/2+x,y,-z
-x,1/2+y,1/2+z
1/2+x,1/2-y,1/2+z
loop_
_atom_site_type_symbol
_atom_site_label
_atom_site_fract_x
_atom_site_fract_y
_atom_site_fract_z
Si Si1 0.520498 0.641731 0.208730
Si Si2 0.820080 0.446563 0.317008
Si Si3 0.579695 0.651655 0.851235
Si Si4 0.232645 0.331370 0.100907
Si Si5 0.372877 0.538177 0.329601
Si Si6 0.761373 0.750000 0.250000
O O1 0.545399 0.750000 0.250000
O O2 0.591079 0.566884 0.245850
O O3 0.443397 0.616137 0.323093
O O4 0.512975 0.637633 0.999610
O O5 0.750000 0.500000 0.209075
O O6 0.831796 0.513522 0.487316
O O7 0.788645 0.337682 0.337832
O O8 0.566656 0.750000 0.750000
O O9 0.671153 0.656784 0.930930
O O10 0.585569 0.560687 0.727051
O O11 0.225315 0.250000 0.250000
O O12 0.190299 0.422089 0.188180
O O13 0.195185 0.296625 0.917335
#
# Coordination Sequence:
#
# PCOD9413378 Si02
#       6
#     8   8   8   8   8   4
#     4  12  25  46  71 105 148 191 239 304 383 447
#     4  12  25  46  76 106 142 196 254 305 369 448
#     4  11  23  43  70  98 140 192 250 304 368 443
#     4  11  23  44  72 105 144 190 249 311 368 443
#     4  12  26  44  70 108 145 190 239 311 378 445
#     4  12  24  46  76 108 144 198 260 310 372 446
#
# _framework density 24.791605000000001
#
# number of rings (size 3 to 8) (size 9 to 14) (size 15 to 20)
#    0.000    0.364    2.727    7.636    2.545    0.000 
#    1.636    0.000    0.000    0.000    0.000    0.000 
#    0.000    0.000    0.000    0.000    0.000    0.000 
#
# Total GULP energy -246145.401081 kJ/mol
# GULP energy per Si atom -5594.213661 kJ/mol
# Density = 2.473518 g / cm^3
# Si number density = 24.791605 Si / 1000 Ang^3
#
#
#
# Elastic Constant Matrix: (Units=GPa)
#
#
# Indices 1 2 3 4 5 6 
#
# 1 94.1790 37.9803 26.0807 0.0000 0.0000 0.0000
# 2 37.9803 110.2172 24.5850 0.0000 0.0000 0.0000
# 3 26.0807 24.5850 119.7479 0.0000 0.0000 0.0000
# 4 0.0000 0.0000 0.0000 42.7171 0.0000 0.0000
# 5 0.0000 0.0000 0.0000 0.0000 -14.1717 0.0000
# 6 0.0000 0.0000 0.0000 0.0000 0.0000 25.8803
#
#
#
# Elastic Compliance Matrix: (Units=1/GPa)
#
#
# Indices 1 2 3 4 5 6 
#
# 1 0.012759 -0.003958 -0.001966 0.000000 0.000000 0.000000
# 2 -0.003958 0.010736 -0.001342 0.000000 0.000000 0.000000
# 3 -0.001966 -0.001342 0.009055 0.000000 0.000000 0.000000
# 4 0.000000 0.000000 0.000000 0.023410 0.000000 0.000000
# 5 0.000000 0.000000 0.000000 0.000000 -0.070563 0.000000
# 6 0.000000 0.000000 0.000000 0.000000 0.000000 0.038639
#
#
# Mechanical properties :
#
#
# Convention : Reuss Voigt Hill
#
# Bulk Modulus (GPa) = 55.50349 55.71514 55.60932
# Shear Modulus (GPa) = 112.17210 26.58502 69.37856
#
# Velocity S-wave (km/s) = 6.73381 3.27821 5.29580
# Velocity P-wave (km/s) = 9.10470 6.07051 7.73779
#
# Compressibility (1/GPa) = 0.01801688
#
# Stress axis : x y z
#
# Youngs Moduli (GPa) = 78.37754 93.14197 110.44025
#
# Poissons Ratio (x) = 0.36866 0.21715
# Poissons Ratio (y) = 0.31022 0.14823
# Poissons Ratio (z) = 0.15411 0.12501
#
# Static dielectric constant tensor:
#      x y z
#    x 1.976610 0.000000 0.000000 
#    y 0.000000 1.958650 0.000000 
#    z 0.000000 0.000000 2.068700 
# 
# From -- ./inp_files/11974.got.cif
#   From: 2010.05.17/outbox.cif.g08.bks.cpg/sg52_6_cif.got.tgz:11974.got - 2010.06.03 12:15:38.
