data_PCOD9413280
_publ_section_title
;
Structure prediction by ZEFSAII (Michael W. Deem and Ramdas Pophale) SiO2 
 PCOD9413280
Probable space group: P N N A
;
_chemical_formula_sum "Si O2"
_cell_formula_units_Z 48
_cell_length_a 9.756721
_cell_length_b 16.266019
_cell_length_c 13.839456
_cell_angle_alpha 90.000000
_cell_angle_beta 90.000000
_cell_angle_gamma 90.000000
_cell_volume 2196.363312
_symmetry_space_group_name_H-M "P N N A"
_symmetry_group_IT_number 52
_symmetry_cell_setting 'orthorhombic'
loop_
_space_group_symop_operation_xyz
x,y,z
1/2-x,-y,z
x,1/2-y,1/2-z
1/2-x,1/2+y,1/2-z
-x,-y,-z
1/2+x,y,-z
-x,1/2+y,1/2+z
1/2+x,1/2-y,1/2+z
loop_
_atom_site_type_symbol
_atom_site_label
_atom_site_fract_x
_atom_site_fract_y
_atom_site_fract_z
Si Si1 0.219240 0.406031 0.911560
Si Si2 0.182713 0.911966 0.923772
Si Si3 0.873351 0.656644 0.283250
Si Si4 0.463477 0.193505 0.488937
Si Si5 0.453742 0.691229 0.337621
Si Si6 0.852103 0.342112 0.632510
O O1 0.250000 0.500000 0.936293
O O2 0.208428 0.394943 0.796020
O O3 0.074734 0.370702 0.950018
O O4 0.339633 0.351261 0.956590
O O5 0.298120 0.848826 0.886177
O O6 0.049684 0.886775 0.861743
O O7 0.250000 0.000000 0.907338
O O8 0.153952 0.897703 0.036311
O O9 0.870506 0.750000 0.250000
O O10 0.028883 0.627783 0.296793
O O11 0.536028 0.253210 0.566389
O O12 0.401699 0.252419 0.405756
O O13 0.501252 0.750000 0.250000
O O14 0.297489 0.664408 0.321961
#
# Coordination Sequence:
#
# PCOD9413280 Si02
#       6
#     8   8   8   8   8   8
#     4  12  25  42  69 101 138 183 226 293 359 424
#     4  11  24  43  66  99 139 183 228 287 361 428
#     4  12  23  42  68  96 133 183 236 288 350 420
#     4  11  22  44  65  97 137 180 232 281 348 419
#     4  11  23  40  67 101 131 178 239 290 337 416
#     4  11  23  40  68  96 131 182 231 290 343 415
#
# _framework density 21.854309000000001
#
# number of rings (size 3 to 8) (size 9 to 14) (size 15 to 20)
#    0.000    0.667    3.333    7.000    0.000    2.667 
#    0.000    0.000    0.000    3.000    0.000    0.000 
#    0.000    0.000    0.000    0.000    0.000    0.000 
#
# Total GULP energy -268676.687108 kJ/mol
# GULP energy per Si atom -5597.430981 kJ/mol
# Density = 2.180457 g / cm^3
# Si number density = 21.854309 Si / 1000 Ang^3
#
#
#
# Elastic Constant Matrix: (Units=GPa)
#
#
# Indices 1 2 3 4 5 6 
#
# 1 120.1301 29.5414 8.8023 0.0000 0.0000 0.0000
# 2 29.5414 57.9613 19.6886 0.0000 0.0000 0.0000
# 3 8.8023 19.6886 60.6939 0.0000 0.0000 0.0000
# 4 0.0000 0.0000 0.0000 19.2446 0.0000 0.0000
# 5 0.0000 0.0000 0.0000 0.0000 85.4097 0.0000
# 6 0.0000 0.0000 0.0000 0.0000 0.0000 22.3836
#
#
#
# Elastic Compliance Matrix: (Units=1/GPa)
#
#
# Indices 1 2 3 4 5 6 
#
# 1 0.009520 -0.004926 0.000217 0.000000 0.000000 0.000000
# 2 -0.004926 0.021938 -0.006402 0.000000 0.000000 0.000000
# 3 0.000217 -0.006402 0.018521 0.000000 0.000000 0.000000
# 4 0.000000 0.000000 0.000000 0.051963 0.000000 0.000000
# 5 0.000000 0.000000 0.000000 0.000000 0.011708 0.000000
# 6 0.000000 0.000000 0.000000 0.000000 0.000000 0.044676
#
#
# Mechanical properties :
#
#
# Convention : Reuss Voigt Hill
#
# Bulk Modulus (GPa) = 36.02578 39.42778 37.72678
# Shear Modulus (GPa) = 26.34355 37.45777 31.90066
#
# Velocity S-wave (km/s) = 3.47568 4.14451 3.82474
# Velocity P-wave (km/s) = 5.71204 6.40180 6.06673
#
# Compressibility (1/GPa) = 0.02775790
#
# Stress axis : x y z
#
# Youngs Moduli (GPa) = 105.04545 45.58270 53.99151
#
# Poissons Ratio (x) = 0.22453 -0.01173
# Poissons Ratio (y) = 0.51743 0.34566
# Poissons Ratio (z) = -0.02282 0.29183
#
# Static dielectric constant tensor:
#      x y z
#    x 1.817550 0.000000 0.000000 
#    y 0.000000 1.794570 0.000000 
#    z 0.000000 0.000000 1.817590 
# 
# From -- ./inp_files/24736.got.cif
#   From: 2010.05.17/outbox.cif.g08.bks.cpg/sg52_13_cif.got.tgz:24736.got - 2010.06.03 12:15:38.
