data_PCOD9413509
_publ_section_title
;
Structure prediction by ZEFSAII (Michael W. Deem and Ramdas Pophale) SiO2 
 PCOD9413509
Probable space group: P N N A
;
_chemical_formula_sum "Si O2"
_cell_formula_units_Z 28
_cell_length_a 10.235371
_cell_length_b 12.759470
_cell_length_c 8.269830
_cell_angle_alpha 90.000000
_cell_angle_beta 90.000000
_cell_angle_gamma 90.000000
_cell_volume 1080.022508
_symmetry_space_group_name_H-M "P N N A"
_symmetry_group_IT_number 52
_symmetry_cell_setting 'orthorhombic'
loop_
_space_group_symop_operation_xyz
x,y,z
1/2-x,-y,z
x,1/2-y,1/2-z
1/2-x,1/2+y,1/2-z
-x,-y,-z
1/2+x,y,-z
-x,1/2+y,1/2+z
1/2+x,1/2-y,1/2+z
loop_
_atom_site_type_symbol
_atom_site_label
_atom_site_fract_x
_atom_site_fract_y
_atom_site_fract_z
Si Si1 0.828363 0.750000 0.750000
Si Si2 0.973723 0.642553 0.358871
Si Si3 0.897416 0.525445 0.862262
Si Si4 0.693582 0.816759 0.085372
O O1 0.899904 0.644227 0.804363
O O2 0.743693 0.732076 0.586018
O O3 0.972909 0.750000 0.250000
O O4 0.060736 0.554783 0.275515
O O5 0.048055 0.655615 0.528388
O O6 0.821462 0.611111 0.377582
O O7 0.750000 0.500000 0.915349
O O8 0.000000 0.500000 0.000000
O O9 0.683849 0.750000 0.250000
#
# Coordination Sequence:
#
# PCOD9413509 Si02
#       4
#     4   8   8   8
#     4  12  26  52  82 118 170 220 278 354 424 526
#     4  11  24  48  76 117 159 213 278 344 424 507
#     4  12  26  53  87 122 176 227 285 366 438 524
#     4  11  24  45  78 115 160 213 269 344 419 494
#
# _framework density 25.925386
#
# number of rings (size 3 to 8) (size 9 to 14) (size 15 to 20)
#    0.000    0.571    4.286    3.429    2.000    1.143 
#    5.143    0.000    6.286    0.000    0.000    0.000 
#    0.000    0.000    0.000    0.000    0.000    0.000 
#
# Total GULP energy -156579.190903 kJ/mol
# GULP energy per Si atom -5592.113961 kJ/mol
# Density = 2.586638 g / cm^3
# Si number density = 25.925386 Si / 1000 Ang^3
#
#
#
# Elastic Constant Matrix: (Units=GPa)
#
#
# Indices 1 2 3 4 5 6 
#
# 1 220.5525 65.1221 70.4502 0.0000 0.0000 0.0000
# 2 65.1221 156.8587 51.7763 0.0000 0.0000 0.0000
# 3 70.4502 51.7763 192.0096 0.0000 0.0000 0.0000
# 4 0.0000 0.0000 0.0000 22.4923 0.0000 0.0000
# 5 0.0000 0.0000 0.0000 0.0000 14.1577 0.0000
# 6 0.0000 0.0000 0.0000 0.0000 0.0000 36.7397
#
#
#
# Elastic Compliance Matrix: (Units=1/GPa)
#
#
# Indices 1 2 3 4 5 6 
#
# 1 0.005561 -0.001795 -0.001556 0.000000 0.000000 0.000000
# 2 -0.001795 0.007577 -0.001385 0.000000 0.000000 0.000000
# 3 -0.001556 -0.001385 0.006153 0.000000 0.000000 0.000000
# 4 0.000000 0.000000 0.000000 0.044460 0.000000 0.000000
# 5 0.000000 0.000000 0.000000 0.000000 0.070633 0.000000
# 6 0.000000 0.000000 0.000000 0.000000 0.000000 0.027219
#
#
# Mechanical properties :
#
#
# Convention : Reuss Voigt Hill
#
# Bulk Modulus (GPa) = 101.84444 104.90200 103.37322
# Shear Modulus (GPa) = 28.67834 40.14942 34.41388
#
# Velocity S-wave (km/s) = 3.32955 3.93956 3.64733
# Velocity P-wave (km/s) = 7.35868 7.82588 7.59587
#
# Compressibility (1/GPa) = 0.00981890
#
# Stress axis : x y z
#
# Youngs Moduli (GPa) = 179.81526 131.97004 162.53493
#
# Poissons Ratio (x) = 0.23690 0.25297
# Poissons Ratio (y) = 0.32278 0.22506
# Poissons Ratio (z) = 0.27987 0.18273
#
# Static dielectric constant tensor:
#      x y z
#    x 2.119700 0.000000 0.000000 
#    y 0.000000 -3.243900 0.000000 
#    z 0.000000 0.000000 2.256550 
# 
# From -- ./inp_files/8097.got.cif
#   From: 2010.05.17/outbox.cif.g08.bks.cpg/sg52_5_cif.got.tgz:8097.got - 2010.06.03 12:15:38.
