data_PCOD9413500
_publ_section_title
;
Structure prediction by ZEFSAII (Michael W. Deem and Ramdas Pophale) SiO2 
 PCOD9413500
Probable space group: P N N A
;
_chemical_formula_sum "Si O2"
_cell_formula_units_Z 36
_cell_length_a 20.379428
_cell_length_b 6.857886
_cell_length_c 11.290481
_cell_angle_alpha 90.000000
_cell_angle_beta 90.000000
_cell_angle_gamma 90.000000
_cell_volume 1577.955298
_symmetry_space_group_name_H-M "P N N A"
_symmetry_group_IT_number 52
_symmetry_cell_setting 'orthorhombic'
loop_
_space_group_symop_operation_xyz
x,y,z
1/2-x,-y,z
x,1/2-y,1/2-z
1/2-x,1/2+y,1/2-z
-x,-y,-z
1/2+x,y,-z
-x,1/2+y,1/2+z
1/2+x,1/2-y,1/2+z
loop_
_atom_site_type_symbol
_atom_site_label
_atom_site_fract_x
_atom_site_fract_y
_atom_site_fract_z
Si Si1 0.385215 0.151330 0.126923
Si Si2 0.709109 0.177984 0.374623
Si Si3 0.961148 0.769647 0.880530
Si Si4 0.910950 0.041135 0.429324
Si Si5 0.750000 0.500000 0.560372
O O1 0.406196 0.250000 0.250000
O O2 0.311453 0.069900 0.138232
O O3 0.440612 0.991877 0.091491
O O4 0.379720 0.306726 0.021368
O O5 0.737565 0.250000 0.250000
O O6 0.714841 0.346027 0.471407
O O7 0.750000 0.000000 0.425680
O O8 0.639696 0.073645 0.346977
O O9 0.929055 0.750000 0.750000
O O10 0.032993 0.669932 0.867707
O O11 0.935555 0.633393 0.985897
#
# Coordination Sequence:
#
# PCOD9413500 Si02
#       5
#     8   8   8   8   4
#     4  12  25  44  73 101 140 185 234 288 348 421
#     4  12  25  45  73 102 140 184 232 289 353 419
#     4  11  24  45  69 101 140 181 233 287 348 418
#     4  11  25  45  70 101 138 183 229 288 352 418
#     4  12  26  42  70 106 142 182 234 290 350 418
#
# _framework density 22.814333000000001
#
# number of rings (size 3 to 8) (size 9 to 14) (size 15 to 20)
#    0.000    0.444    7.778    0.667    0.000    5.333 
#    8.000    0.000    0.000    0.000    0.000    0.000 
#    0.000    0.000    0.000    0.000    0.000    0.000 
#
# Total GULP energy -200688.574330 kJ/mol
# GULP energy per Si atom -5574.682620 kJ/mol
# Density = 2.276241 g / cm^3
# Si number density = 22.814333 Si / 1000 Ang^3
#
#
#
# Elastic Constant Matrix: (Units=GPa)
#
#
# Indices 1 2 3 4 5 6 
#
# 1 79.8857 55.2134 -7.8074 0.0000 0.0000 0.0000
# 2 55.2134 136.8233 27.6722 0.0000 0.0000 0.0000
# 3 -7.8074 27.6722 47.9349 0.0000 0.0000 0.0000
# 4 0.0000 0.0000 0.0000 12.5075 0.0000 0.0000
# 5 0.0000 0.0000 0.0000 0.0000 20.2837 0.0000
# 6 0.0000 0.0000 0.0000 0.0000 0.0000 36.4351
#
#
#
# Elastic Compliance Matrix: (Units=1/GPa)
#
#
# Indices 1 2 3 4 5 6 
#
# 1 0.020366 -0.010064 0.009127 0.000000 0.000000 0.000000
# 2 -0.010064 0.013248 -0.009287 0.000000 0.000000 0.000000
# 3 0.009127 -0.009287 0.027710 0.000000 0.000000 0.000000
# 4 0.000000 0.000000 0.000000 0.079952 0.000000 0.000000
# 5 0.000000 0.000000 0.000000 0.000000 0.049301 0.000000
# 6 0.000000 0.000000 0.000000 0.000000 0.000000 0.027446
#
#
# Mechanical properties :
#
#
# Convention : Reuss Voigt Hill
#
# Bulk Modulus (GPa) = 24.46494 46.08894 35.27694
# Shear Modulus (GPa) = 19.83365 26.48297 23.15831
#
# Velocity S-wave (km/s) = 2.95167 3.41075 3.18948
# Velocity P-wave (km/s) = 4.72898 5.97968 5.39073
#
# Compressibility (1/GPa) = 0.04087482
#
# Stress axis : x y z
#
# Youngs Moduli (GPa) = 49.10160 75.48077 36.08842
#
# Poissons Ratio (x) = 0.75967 -0.32938
# Poissons Ratio (y) = 0.49418 0.33517
# Poissons Ratio (z) = -0.44816 0.70102
#
# Static dielectric constant tensor:
#      x y z
#    x 1.984440 0.000000 0.000000 
#    y 0.000000 1.901800 0.000000 
#    z 0.000000 0.000000 1.789890 
# 
# From -- ./inp_files/22060.got.cif
#   From: 2010.05.17/outbox.cif.g08.bks.cpg/sg52_12_cif.got.tgz:22060.got - 2010.06.03 12:15:38.
