data_PCOD9413741
_publ_section_title
;
Structure prediction by ZEFSAII (Michael W. Deem and Ramdas Pophale) SiO2 
 PCOD9413741
Probable space group: P N N A
;
_chemical_formula_sum "Si O2"
_cell_formula_units_Z 40
_cell_length_a 9.341379
_cell_length_b 10.741111
_cell_length_c 20.273279
_cell_angle_alpha 90.000000
_cell_angle_beta 90.000000
_cell_angle_gamma 90.000000
_cell_volume 2034.155712
_symmetry_space_group_name_H-M "P N N A"
_symmetry_group_IT_number 52
_symmetry_cell_setting 'orthorhombic'
loop_
_space_group_symop_operation_xyz
x,y,z
1/2-x,-y,z
x,1/2-y,1/2-z
1/2-x,1/2+y,1/2-z
-x,-y,-z
1/2+x,y,-z
-x,1/2+y,1/2+z
1/2+x,1/2-y,1/2+z
loop_
_atom_site_type_symbol
_atom_site_label
_atom_site_fract_x
_atom_site_fract_y
_atom_site_fract_z
Si Si1 0.549873 0.825887 0.858942
Si Si2 0.009229 0.562526 0.719769
Si Si3 0.250000 0.000000 0.681391
Si Si4 0.628827 0.903105 0.994564
Si Si5 0.284112 0.269494 0.631072
Si Si6 0.233729 0.250000 0.250000
O O1 0.596214 0.812248 0.934372
O O2 0.382118 0.795878 0.854165
O O3 0.659874 0.754403 0.812120
O O4 0.552785 0.969010 0.834695
O O5 0.110783 0.487535 0.770774
O O6 0.114040 0.662475 0.684378
O O7 0.874671 0.633295 0.751102
O O8 0.209802 0.879088 0.638690
O O9 0.750000 0.000000 0.975467
O O10 0.670871 0.829922 0.061100
O O11 0.500000 0.000000 0.000000
#
# Coordination Sequence:
#
# PCOD9413741 Si02
#       6
#     8   8   4   8   8   4
#     4  12  25  43  71 102 136 177 226 291 343 402
#     4  12  22  43  69 101 134 179 234 285 341 410
#     4  12  24  40  72  94 142 180 228 274 342 432
#     4  12  23  43  73 101 131 172 237 289 330 399
#     4  12  24  44  69 100 135 188 228 279 348 413
#     4  12  26  38  66 108 142 166 220 294 362 396
#
# _framework density 19.664178
#
# number of rings (size 3 to 8) (size 9 to 14) (size 15 to 20)
#    0.000    0.000    8.000    3.000    0.000    0.000 
#    0.000    1.000    4.400    0.000    0.000    0.000 
#    0.000    0.000    0.000    0.000    0.000    0.000 
#
# Total GULP energy -223391.600296 kJ/mol
# GULP energy per Si atom -5584.790007 kJ/mol
# Density = 1.961942 g / cm^3
# Si number density = 19.664178 Si / 1000 Ang^3
#
#
#
# Elastic Constant Matrix: (Units=GPa)
#
#
# Indices 1 2 3 4 5 6 
#
# 1 155.9921 22.8370 56.8251 0.0000 0.0000 0.0000
# 2 22.8370 76.1281 27.1234 0.0000 0.0000 0.0000
# 3 56.8251 27.1234 98.5781 0.0000 0.0000 0.0000
# 4 0.0000 0.0000 0.0000 10.9388 0.0000 0.0000
# 5 0.0000 0.0000 0.0000 0.0000 31.6900 0.0000
# 6 0.0000 0.0000 0.0000 0.0000 0.0000 43.4100
#
#
#
# Elastic Compliance Matrix: (Units=1/GPa)
#
#
# Indices 1 2 3 4 5 6 
#
# 1 0.008165 -0.000856 -0.004471 0.000000 0.000000 0.000000
# 2 -0.000856 0.014653 -0.003538 0.000000 0.000000 0.000000
# 3 -0.004471 -0.003538 0.013695 0.000000 0.000000 0.000000
# 4 0.000000 0.000000 0.000000 0.091417 0.000000 0.000000
# 5 0.000000 0.000000 0.000000 0.000000 0.031556 0.000000
# 6 0.000000 0.000000 0.000000 0.000000 0.000000 0.023036
#
#
# Mechanical properties :
#
#
# Convention : Reuss Voigt Hill
#
# Bulk Modulus (GPa) = 53.24208 60.47436 56.85822
# Shear Modulus (GPa) = 24.21150 32.13528 28.17339
#
# Velocity S-wave (km/s) = 3.51272 4.04691 3.78924
# Velocity P-wave (km/s) = 6.60203 7.25652 6.93699
#
# Compressibility (1/GPa) = 0.01878214
#
# Stress axis : x y z
#
# Youngs Moduli (GPa) = 122.47997 68.24435 73.01951
#
# Poissons Ratio (x) = 0.05844 0.32646
# Poissons Ratio (y) = 0.10488 0.25835
# Poissons Ratio (z) = 0.54759 0.24146
#
# Static dielectric constant tensor:
#      x y z
#    x 1.686860 0.000000 0.000000 
#    y 0.000000 1.749110 0.000000 
#    z 0.000000 0.000000 1.705590 
# 
# From -- ./inp_files/30926.got.cif
#   From: 2010.05.17/outbox.cif.g08.bks.cpg/sg52_16_cif.got.tgz:30926.got - 2010.06.03 12:15:38.
