data_PCOD9413586
_publ_section_title
;
Structure prediction by ZEFSAII (Michael W. Deem and Ramdas Pophale) SiO2 
 PCOD9413586
Probable space group: P N N A
;
_chemical_formula_sum "Si O2"
_cell_formula_units_Z 48
_cell_length_a 9.278547
_cell_length_b 8.523024
_cell_length_c 27.185656
_cell_angle_alpha 90.000000
_cell_angle_beta 90.000000
_cell_angle_gamma 90.000000
_cell_volume 2149.876441
_symmetry_space_group_name_H-M "P N N A"
_symmetry_group_IT_number 52
_symmetry_cell_setting 'orthorhombic'
loop_
_space_group_symop_operation_xyz
x,y,z
1/2-x,-y,z
x,1/2-y,1/2-z
1/2-x,1/2+y,1/2-z
-x,-y,-z
1/2+x,y,-z
-x,1/2+y,1/2+z
1/2+x,1/2-y,1/2+z
loop_
_atom_site_type_symbol
_atom_site_label
_atom_site_fract_x
_atom_site_fract_y
_atom_site_fract_z
Si Si1 0.909567 0.064572 0.624681
Si Si2 0.155485 0.859671 0.615819
Si Si3 0.175844 0.329394 0.532516
Si Si4 0.910198 0.067494 0.736758
Si Si5 0.136900 0.635329 0.705926
Si Si6 0.155729 0.844797 0.059256
O O1 0.963494 0.057259 0.680621
O O2 0.888690 0.240123 0.605562
O O3 0.750000 0.000000 0.623309
O O4 0.016284 0.950653 0.594658
O O5 0.257187 0.776151 0.575774
O O6 0.109458 0.735923 0.657173
O O7 0.250000 0.000000 0.638409
O O8 0.250000 0.500000 0.536992
O O9 0.237915 0.264638 0.480740
O O10 0.003950 0.357670 0.534571
O O11 0.913936 0.250000 0.750000
O O12 0.750000 0.000000 0.737667
O O13 0.000951 0.956597 0.772386
O O14 0.250000 0.500000 0.694071
O O15 0.189408 0.750000 0.750000
O O16 0.250000 0.000000 0.072578
#
# Coordination Sequence:
#
# PCOD9413586 Si02
#       6
#     8   8   8   8   8   8
#     4  11  27  45  70 100 141 185 241 301 364 443
#     4  12  26  47  69 104 146 184 245 303 371 435
#     4  11  25  45  73 104 145 190 242 303 364 446
#     4  11  26  47  70 102 141 187 240 297 362 437
#     4  12  25  43  72  99 139 186 237 300 368 437
#     4  11  25  47  73 105 145 192 243 301 366 444
#
# _framework density 22.326865999999999
#
# number of rings (size 3 to 8) (size 9 to 14) (size 15 to 20)
#    0.000    0.667    3.333    4.000    9.333    3.333 
#    0.000    0.000    0.000    0.000    0.000    0.000 
#    0.000    0.000    0.000    0.000    0.000    0.000 
#
# Total GULP energy -268144.443659 kJ/mol
# GULP energy per Si atom -5586.342576 kJ/mol
# Density = 2.227605 g / cm^3
# Si number density = 22.326866 Si / 1000 Ang^3
#
#
#
# Elastic Constant Matrix: (Units=GPa)
#
#
# Indices 1 2 3 4 5 6 
#
# 1 147.4204 47.5682 33.1708 0.0000 0.0000 0.0000
# 2 47.5682 118.1368 46.8977 0.0000 0.0000 0.0000
# 3 33.1708 46.8977 69.6146 0.0000 0.0000 0.0000
# 4 0.0000 0.0000 0.0000 14.5809 0.0000 0.0000
# 5 0.0000 0.0000 0.0000 0.0000 18.6562 0.0000
# 6 0.0000 0.0000 0.0000 0.0000 0.0000 44.9810
#
#
#
# Elastic Compliance Matrix: (Units=1/GPa)
#
#
# Indices 1 2 3 4 5 6 
#
# 1 0.008047 -0.002345 -0.002255 0.000000 0.000000 0.000000
# 2 -0.002345 0.012238 -0.007127 0.000000 0.000000 0.000000
# 3 -0.002255 -0.007127 0.020241 0.000000 0.000000 0.000000
# 4 0.000000 0.000000 0.000000 0.068583 0.000000 0.000000
# 5 0.000000 0.000000 0.000000 0.000000 0.053601 0.000000
# 6 0.000000 0.000000 0.000000 0.000000 0.000000 0.022232
#
#
# Mechanical properties :
#
#
# Convention : Reuss Voigt Hill
#
# Bulk Modulus (GPa) = 58.57477 65.60503 62.08990
# Shear Modulus (GPa) = 23.35497 29.47930 26.41714
#
# Velocity S-wave (km/s) = 3.23778 3.63761 3.44350
# Velocity P-wave (km/s) = 6.34584 6.86226 6.60909
#
# Compressibility (1/GPa) = 0.01707220
#
# Stress axis : x y z
#
# Youngs Moduli (GPa) = 124.26415 81.70955 49.40585
#
# Poissons Ratio (x) = 0.19163 0.11139
# Poissons Ratio (y) = 0.29144 0.35213
# Poissons Ratio (z) = 0.28016 0.58236
#
# Static dielectric constant tensor:
#      x y z
#    x 1.843450 0.000000 0.000000 
#    y 0.000000 1.687460 0.000000 
#    z 0.000000 0.000000 1.878080 
# 
# From -- ./inp_files/44392.got.cif
#   From: 2010.05.17/outbox.cif.g08.bks.cpg/sg52_23_cif.got.tgz:44392.got - 2010.06.03 12:15:38.
