data_PCOD9413903
_publ_section_title
;
Structure prediction by ZEFSAII (Michael W. Deem and Ramdas Pophale) SiO2 
 PCOD9413903
Probable space group: P N N A
;
_chemical_formula_sum "Si O2"
_cell_formula_units_Z 28
_cell_length_a 28.570169
_cell_length_b 7.839664
_cell_length_c 5.000539
_cell_angle_alpha 90.000000
_cell_angle_beta 90.000000
_cell_angle_gamma 90.000000
_cell_volume 1120.023352
_symmetry_space_group_name_H-M "P N N A"
_symmetry_group_IT_number 52
_symmetry_cell_setting 'orthorhombic'
loop_
_space_group_symop_operation_xyz
x,y,z
1/2-x,-y,z
x,1/2-y,1/2-z
1/2-x,1/2+y,1/2-z
-x,-y,-z
1/2+x,y,-z
-x,1/2+y,1/2+z
1/2+x,1/2-y,1/2+z
loop_
_atom_site_type_symbol
_atom_site_label
_atom_site_fract_x
_atom_site_fract_y
_atom_site_fract_z
Si Si1 0.049782 0.063452 0.104868
Si Si2 0.750000 0.500000 0.939716
Si Si3 0.179759 0.250000 0.250000
Si Si4 0.819384 0.250000 0.250000
Si Si5 0.888952 0.250000 0.750000
Si Si6 0.614338 0.250000 0.250000
O O1 0.046351 0.250000 0.250000
O O2 0.076989 0.915932 0.268331
O O3 0.081263 0.098534 0.843987
O O4 0.000000 0.000000 0.000000
O O5 0.783528 0.389314 0.129970
O O6 0.785164 0.594363 0.740372
O O7 0.147532 0.217464 0.501568
O O8 0.854668 0.282669 0.498222
#
# Coordination Sequence:
#
# PCOD9413903 Si02
#       6
#     8   4   4   4   4   4
#     4  12  30  55  88 126 171 221 282 354 427 510
#     4  12  28  52  80 122 166 218 282 346 414 498
#     4  12  27  50  81 115 162 217 275 338 413 488
#     4  12  29  54  83 121 166 223 281 348 415 512
#     4  12  30  54  84 127 168 225 286 344 430 510
#     4  12  26  52  80 117 164 223 270 344 418 496
#
# _framework density 24.999480999999999
#
# number of rings (size 3 to 8) (size 9 to 14) (size 15 to 20)
#    0.000    0.000    1.429    6.000    6.000   10.286 
#    0.000    0.000    0.000    0.000    0.000    0.000 
#    0.000    0.000    0.000    0.000    0.000    0.000 
#
# Total GULP energy -156883.475835 kJ/mol
# GULP energy per Si atom -5602.981280 kJ/mol
# Density = 2.494258 g / cm^3
# Si number density = 24.999481 Si / 1000 Ang^3
#
#
#
# Elastic Constant Matrix: (Units=GPa)
#
#
# Indices 1 2 3 4 5 6 
#
# 1 220.8083 87.4756 53.6551 0.0000 0.0000 0.0000
# 2 87.4756 152.3839 31.0602 0.0000 0.0000 0.0000
# 3 53.6551 31.0602 109.2826 0.0000 0.0000 0.0000
# 4 0.0000 0.0000 0.0000 39.5108 0.0000 0.0000
# 5 0.0000 0.0000 0.0000 0.0000 24.6786 0.0000
# 6 0.0000 0.0000 0.0000 0.0000 0.0000 53.3355
#
#
#
# Elastic Compliance Matrix: (Units=1/GPa)
#
#
# Indices 1 2 3 4 5 6 
#
# 1 0.006324 -0.003182 -0.002201 0.000000 0.000000 0.000000
# 2 -0.003182 0.008567 -0.000873 0.000000 0.000000 0.000000
# 3 -0.002201 -0.000873 0.010479 0.000000 0.000000 0.000000
# 4 0.000000 0.000000 0.000000 0.025310 0.000000 0.000000
# 5 0.000000 0.000000 0.000000 0.000000 0.040521 0.000000
# 6 0.000000 0.000000 0.000000 0.000000 0.000000 0.018749
#
#
# Mechanical properties :
#
#
# Convention : Reuss Voigt Hill
#
# Bulk Modulus (GPa) = 77.76205 91.87294 84.81750
# Shear Modulus (GPa) = 39.44892 44.19058 41.81975
#
# Velocity S-wave (km/s) = 3.97670 4.20892 4.09446
# Velocity P-wave (km/s) = 7.22901 7.77494 7.50694
#
# Compressibility (1/GPa) = 0.01285974
#
# Stress axis : x y z
#
# Youngs Moduli (GPa) = 158.12670 116.73077 95.42823
#
# Poissons Ratio (x) = 0.37141 0.21000
# Poissons Ratio (y) = 0.50312 0.08328
# Poissons Ratio (z) = 0.34798 0.10187
#
# Static dielectric constant tensor:
#      x y z
#    x 1.924780 0.000000 0.000000 
#    y 0.000000 2.045730 0.000000 
#    z 0.000000 0.000000 2.084230 
# 
# From -- ./inp_files/5520.got.cif
#   From: 2010.05.17/outbox.cif.g08.bks.cpg/sg52_3_cif.got.tgz:5520.got - 2010.06.03 12:15:38.
