data_PCOD9413909
_publ_section_title
;
Structure prediction by ZEFSAII (Michael W. Deem and Ramdas Pophale) SiO2 
 PCOD9413909
Probable space group: P N N A
;
_chemical_formula_sum "Si O2"
_cell_formula_units_Z 32
_cell_length_a 19.406573
_cell_length_b 6.726390
_cell_length_c 11.809374
_cell_angle_alpha 90.000000
_cell_angle_beta 90.000000
_cell_angle_gamma 90.000000
_cell_volume 1541.550553
_symmetry_space_group_name_H-M "P N N A"
_symmetry_group_IT_number 52
_symmetry_cell_setting 'orthorhombic'
loop_
_space_group_symop_operation_xyz
x,y,z
1/2-x,-y,z
x,1/2-y,1/2-z
1/2-x,1/2+y,1/2-z
-x,-y,-z
1/2+x,y,-z
-x,1/2+y,1/2+z
1/2+x,1/2-y,1/2+z
loop_
_atom_site_type_symbol
_atom_site_label
_atom_site_fract_x
_atom_site_fract_y
_atom_site_fract_z
Si Si1 0.488435 0.750000 0.750000
Si Si2 0.250000 0.500000 0.536673
Si Si3 0.068534 0.902830 0.454062
Si Si4 0.807860 0.838954 0.629445
Si Si5 0.106263 0.595388 0.645802
O O1 0.542608 0.855741 0.669692
O O2 0.440073 0.594360 0.681478
O O3 0.227856 0.322151 0.452316
O O4 0.184599 0.539413 0.616771
O O5 0.082906 0.711691 0.532264
O O6 0.132817 0.050751 0.442578
O O7 0.000000 0.000000 0.500000
O O8 0.833260 0.750000 0.750000
O O9 0.750000 0.000000 0.660470
O O10 0.102517 0.750000 0.750000
#
# Coordination Sequence:
#
# PCOD9413909 Si02
#       5
#     4   4   8   8   8
#     4  12  28  48  78 108 148 198 248 314 376 448
#     4  12  28  46  76 104 152 192 250 302 376 452
#     4  12  27  49  76 107 149 191 249 308 373 445
#     4  12  27  48  73 111 148 195 247 310 373 445
#     4  12  28  49  73 110 148 199 245 310 381 449
#
# _framework density 20.758319
#
# number of rings (size 3 to 8) (size 9 to 14) (size 15 to 20)
#    0.000    0.000    6.250    2.250   10.500    0.000 
#    0.000    0.000    0.000    0.000    0.000    0.000 
#    0.000    0.000    0.000    0.000    0.000    0.000 
#
# Total GULP energy -178788.126923 kJ/mol
# GULP energy per Si atom -5587.128966 kJ/mol
# Density = 2.071107 g / cm^3
# Si number density = 20.758319 Si / 1000 Ang^3
#
#
#
# Elastic Constant Matrix: (Units=GPa)
#
#
# Indices 1 2 3 4 5 6 
#
# 1 108.9742 52.6219 15.6714 0.0000 0.0000 0.0000
# 2 52.6219 96.0027 1.7027 0.0000 0.0000 0.0000
# 3 15.6714 1.7027 17.5832 0.0000 0.0000 0.0000
# 4 0.0000 0.0000 0.0000 51.5004 0.0000 0.0000
# 5 0.0000 0.0000 0.0000 0.0000 31.4638 0.0000
# 6 0.0000 0.0000 0.0000 0.0000 0.0000 44.8603
#
#
#
# Elastic Compliance Matrix: (Units=1/GPa)
#
#
# Indices 1 2 3 4 5 6 
#
# 1 0.014759 -0.007870 -0.012392 0.000000 0.000000 0.000000
# 2 -0.007870 0.014631 0.005597 0.000000 0.000000 0.000000
# 3 -0.012392 0.005597 0.067375 0.000000 0.000000 0.000000
# 4 0.000000 0.000000 0.000000 0.019417 0.000000 0.000000
# 5 0.000000 0.000000 0.000000 0.000000 0.031783 0.000000
# 6 0.000000 0.000000 0.000000 0.000000 0.000000 0.022291
#
#
# Mechanical properties :
#
#
# Convention : Reuss Voigt Hill
#
# Bulk Modulus (GPa) = 14.82893 40.28356 27.55624
# Shear Modulus (GPa) = 22.51605 35.73583 29.12594
#
# Velocity S-wave (km/s) = 3.29701 4.15362 3.74986
# Velocity P-wave (km/s) = 4.65326 6.51548 5.66147
#
# Compressibility (1/GPa) = 0.06743575
#
# Stress axis : x y z
#
# Youngs Moduli (GPa) = 67.75598 68.34870 14.84227
#
# Poissons Ratio (x) = 0.53790 0.18393
# Poissons Ratio (y) = 0.53324 -0.08308
# Poissons Ratio (z) = 0.83963 -0.38258
#
# Static dielectric constant tensor:
#      x y z
#    x 1.053920 0.000000 0.000000 
#    y 0.000000 1.753150 0.000000 
#    z 0.000000 0.000000 1.689250 
# 
# From -- ./inp_files/21264.got.cif
#   From: 2010.05.17/outbox.cif.g08.bks.cpg/sg52_11_cif.got.tgz:21264.got - 2010.06.03 12:15:38.
