data_PCOD9413954
_publ_section_title
;
Structure prediction by ZEFSAII (Michael W. Deem and Ramdas Pophale) SiO2 
 PCOD9413954
Probable space group: P N N A
;
_chemical_formula_sum "Si O2"
_cell_formula_units_Z 32
_cell_length_a 18.994208
_cell_length_b 8.350074
_cell_length_c 7.091083
_cell_angle_alpha 90.000000
_cell_angle_beta 90.000000
_cell_angle_gamma 90.000000
_cell_volume 1124.667338
_symmetry_space_group_name_H-M "P N N A"
_symmetry_group_IT_number 52
_symmetry_cell_setting 'orthorhombic'
loop_
_space_group_symop_operation_xyz
x,y,z
1/2-x,-y,z
x,1/2-y,1/2-z
1/2-x,1/2+y,1/2-z
-x,-y,-z
1/2+x,y,-z
-x,1/2+y,1/2+z
1/2+x,1/2-y,1/2+z
loop_
_atom_site_type_symbol
_atom_site_label
_atom_site_fract_x
_atom_site_fract_y
_atom_site_fract_z
Si Si1 0.887440 0.962909 0.436458
Si Si2 0.227106 0.252252 0.519656
Si Si3 0.487340 0.254919 0.978412
Si Si4 0.638620 0.940867 0.006033
O O1 0.815152 0.907420 0.530206
O O2 0.937838 0.805614 0.438221
O O3 0.935490 0.097720 0.527245
O O4 0.868754 0.032776 0.231810
O O5 0.225793 0.250000 0.750000
O O6 0.306543 0.296730 0.467829
O O7 0.178895 0.399110 0.446976
O O8 0.495364 0.250000 0.750000
O O9 0.441035 0.104155 0.049230
#
# Coordination Sequence:
#
# PCOD9413954 Si02
#       4
#     8   8   8   8
#     4   9  17  28  44  68  97 126 164 210 256 301
#     4   9  16  27  44  68  93 121 161 213 262 296
#     4   9  17  29  44  66  97 133 166 202 254 310
#     4   9  17  28  44  68  95 123 162 212 258 299
#
# _framework density 28.452860999999999
#
# number of rings (size 3 to 8) (size 9 to 14) (size 15 to 20)
#    0.000    3.000    0.000    2.250    0.000    4.000 
#    0.000    0.000    0.000    0.000    0.000   40.250 
#    0.000    0.000    0.000    0.000    0.000    1.000 
#
# Total GULP energy -179017.822970 kJ/mol
# GULP energy per Si atom -5594.306968 kJ/mol
# Density = 2.838810 g / cm^3
# Si number density = 28.452861 Si / 1000 Ang^3
#
#
#
# Elastic Constant Matrix: (Units=GPa)
#
#
# Indices 1 2 3 4 5 6 
#
# 1 247.9003 89.7416 10.7685 0.0000 0.0000 0.0000
# 2 89.7416 71.2013 15.7596 0.0000 0.0000 0.0000
# 3 10.7685 15.7596 170.5153 0.0000 0.0000 0.0000
# 4 0.0000 0.0000 0.0000 -3.8503 0.0000 0.0000
# 5 0.0000 0.0000 0.0000 0.0000 -12.3842 0.0000
# 6 0.0000 0.0000 0.0000 0.0000 0.0000 84.9397
#
#
#
# Elastic Compliance Matrix: (Units=1/GPa)
#
#
# Indices 1 2 3 4 5 6 
#
# 1 0.007446 -0.009475 0.000405 0.000000 0.000000 0.000000
# 2 -0.009475 0.026394 -0.001841 0.000000 0.000000 0.000000
# 3 0.000405 -0.001841 0.006009 0.000000 0.000000 0.000000
# 4 0.000000 0.000000 0.000000 -0.259722 0.000000 0.000000
# 5 0.000000 0.000000 0.000000 0.000000 -0.080748 0.000000
# 6 0.000000 0.000000 0.000000 0.000000 0.000000 0.011773
#
#
# Mechanical properties :
#
#
# Convention : Reuss Voigt Hill
#
# Bulk Modulus (GPa) = 55.46750 80.23957 67.85354
# Shear Modulus (GPa) = -19.15588 38.63085 9.73748
#
# Velocity S-wave (km/s) = -2.59752 3.68871 1.85196
# Velocity P-wave (km/s) = 3.24664 6.81207 5.33596
#
# Compressibility (1/GPa) = 0.01802858
#
# Stress axis : x y z
#
# Youngs Moduli (GPa) = 134.29534 37.88684 166.41337
#
# Poissons Ratio (x) = 0.35898 -0.06747
# Poissons Ratio (y) = 1.27245 0.30638
# Poissons Ratio (z) = -0.05445 0.06975
#
# Static dielectric constant tensor:
#      x y z
#    x 2.139100 0.000000 0.000000 
#    y 0.000000 2.278280 0.000000 
#    z 0.000000 0.000000 2.175660 
# 
# From -- ./inp_files/12786.got.cif
#   From: 2010.05.17/outbox.cif.g08.bks.cpg/sg52_7_cif.got.tgz:12786.got - 2010.06.03 12:15:38.
