data_PCOD9413415
_publ_section_title
;
Structure prediction by ZEFSAII (Michael W. Deem and Ramdas Pophale) SiO2 
 PCOD9413415
Probable space group: P N N A
;
_chemical_formula_sum "Si O2"
_cell_formula_units_Z 36
_cell_length_a 15.765649
_cell_length_b 9.509563
_cell_length_c 9.535301
_cell_angle_alpha 90.000000
_cell_angle_beta 90.000000
_cell_angle_gamma 90.000000
_cell_volume 1429.574590
_symmetry_space_group_name_H-M "P N N A"
_symmetry_group_IT_number 52
_symmetry_cell_setting 'orthorhombic'
loop_
_space_group_symop_operation_xyz
x,y,z
1/2-x,-y,z
x,1/2-y,1/2-z
1/2-x,1/2+y,1/2-z
-x,-y,-z
1/2+x,y,-z
-x,1/2+y,1/2+z
1/2+x,1/2-y,1/2+z
loop_
_atom_site_type_symbol
_atom_site_label
_atom_site_fract_x
_atom_site_fract_y
_atom_site_fract_z
Si Si1 0.460137 0.403672 0.713015
Si Si2 0.875376 0.014189 0.943476
Si Si3 0.884158 0.250000 0.750000
Si Si4 0.302176 0.783050 0.414573
Si Si5 0.622841 0.929778 0.511172
O O1 0.492913 0.250000 0.750000
O O2 0.536157 0.485898 0.638054
O O3 0.390261 0.406108 0.589359
O O4 0.415811 0.445148 0.857869
O O5 0.831147 0.866428 0.978331
O O6 0.835533 0.121027 0.829391
O O7 0.929400 0.169743 0.620678
O O8 0.303330 0.750000 0.250000
O O9 0.215356 0.852551 0.477140
O O10 0.367522 0.911762 0.434740
#
# Coordination Sequence:
#
# PCOD9413415 Si02
#       5
#     8   8   4   8   8
#     4  11  25  48  68 111 152 203 250 320 386 460
#     4  11  26  45  77 104 155 196 255 312 390 460
#     4  12  22  42  70 112 136 206 240 324 372 460
#     4  11  23  46  75 112 146 207 254 323 383 462
#     4  11  25  44  74 106 153 194 266 312 385 458
#
# _framework density 25.182317000000001
#
# number of rings (size 3 to 8) (size 9 to 14) (size 15 to 20)
#    0.000    0.889    5.556    0.667    0.000    6.222 
#    8.000    0.000    0.000    0.000    0.000    0.000 
#    0.000    0.000    0.000    0.000    0.000    0.000 
#
# Total GULP energy -200954.901654 kJ/mol
# GULP energy per Si atom -5582.080601 kJ/mol
# Density = 2.512500 g / cm^3
# Si number density = 25.182317 Si / 1000 Ang^3
#
#
#
# Elastic Constant Matrix: (Units=GPa)
#
#
# Indices 1 2 3 4 5 6 
#
# 1 72.6839 38.0204 65.7092 0.0000 0.0000 0.0000
# 2 38.0204 171.7982 83.1078 0.0000 0.0000 0.0000
# 3 65.7092 83.1078 220.5063 0.0000 0.0000 0.0000
# 4 0.0000 0.0000 0.0000 47.4129 0.0000 0.0000
# 5 0.0000 0.0000 0.0000 0.0000 -39.2734 0.0000
# 6 0.0000 0.0000 0.0000 0.0000 0.0000 31.0031
#
#
#
# Elastic Compliance Matrix: (Units=1/GPa)
#
#
# Indices 1 2 3 4 5 6 
#
# 1 0.019286 -0.001820 -0.005061 0.000000 0.000000 0.000000
# 2 -0.001820 0.007290 -0.002205 0.000000 0.000000 0.000000
# 3 -0.005061 -0.002205 0.006874 0.000000 0.000000 0.000000
# 4 0.000000 0.000000 0.000000 0.021091 0.000000 0.000000
# 5 0.000000 0.000000 0.000000 0.000000 -0.025462 0.000000
# 6 0.000000 0.000000 0.000000 0.000000 0.000000 0.032255
#
#
# Mechanical properties :
#
#
# Convention : Reuss Voigt Hill
#
# Bulk Modulus (GPa) = 65.45450 93.18480 79.31965
# Shear Modulus (GPa) = 59.10224 26.37191 42.73707
#
# Velocity S-wave (km/s) = 4.84981 3.23962 4.12406
# Velocity P-wave (km/s) = 7.57691 7.14688 7.36504
#
# Compressibility (1/GPa) = 0.01527779
#
# Stress axis : x y z
#
# Youngs Moduli (GPa) = 51.85234 137.16675 145.46712
#
# Poissons Ratio (x) = 0.24961 0.73622
# Poissons Ratio (y) = 0.09436 0.32082
# Poissons Ratio (z) = 0.26243 0.30251
#
# Static dielectric constant tensor:
#      x y z
#    x 2.231820 0.000000 0.000000 
#    y 0.000000 2.074300 0.000000 
#    z 0.000000 0.000000 1.933370 
# 
# From -- ./inp_files/12954.got.cif
#   From: 2010.05.17/outbox.cif.g08.bks.cpg/sg52_7_cif.got.tgz:12954.got - 2010.06.03 12:15:38.
