data_PCOD9413365
_publ_section_title
;
Structure prediction by ZEFSAII (Michael W. Deem and Ramdas Pophale) SiO2 
 PCOD9413365
Probable space group: P N N A
;
_chemical_formula_sum "Si O2"
_cell_formula_units_Z 24
_cell_length_a 28.210534
_cell_length_b 8.127786
_cell_length_c 5.019178
_cell_angle_alpha 90.000000
_cell_angle_beta 90.000000
_cell_angle_gamma 90.000000
_cell_volume 1150.843224
_symmetry_space_group_name_H-M "P N N A"
_symmetry_group_IT_number 52
_symmetry_cell_setting 'orthorhombic'
loop_
_space_group_symop_operation_xyz
x,y,z
1/2-x,-y,z
x,1/2-y,1/2-z
1/2-x,1/2+y,1/2-z
-x,-y,-z
1/2+x,y,-z
-x,1/2+y,1/2+z
1/2+x,1/2-y,1/2+z
loop_
_atom_site_type_symbol
_atom_site_label
_atom_site_fract_x
_atom_site_fract_y
_atom_site_fract_z
Si Si1 0.801370 0.432923 0.367941
Si Si2 0.542213 0.370137 0.996031
Si Si3 0.147187 0.434890 0.137154
O O1 0.750000 0.500000 0.450327
O O2 0.798306 0.250000 0.250000
O O3 0.835517 0.448826 0.622951
O O4 0.821077 0.541201 0.123665
O O5 0.534214 0.250000 0.750000
O O6 0.592784 0.458277 0.950240
O O7 0.544940 0.250000 0.250000
O O8 0.500000 0.500000 0.000000
O O9 0.151410 0.250000 0.250000
#
# Coordination Sequence:
#
# PCOD9413365 Si02
#       3
#     8   8   8
#     4  12  25  42  65  95 127 167 213 264 317 378
#     4  11  24  43  67  97 130 170 212 263 321 379
#     4  11  23  43  65  92 129 169 210 261 319 377
#
# _framework density 20.854274
#
# number of rings (size 3 to 8) (size 9 to 14) (size 15 to 20)
#    0.000    0.667    0.000   10.000    0.000    4.000 
#    0.000    0.000    0.000    0.000    0.000    0.000 
#    0.000    0.000    0.000    0.000    0.000    0.000 
#
# Total GULP energy -134371.530519 kJ/mol
# GULP energy per Si atom -5598.813772 kJ/mol
# Density = 2.080681 g / cm^3
# Si number density = 20.854274 Si / 1000 Ang^3
#
#
#
# Elastic Constant Matrix: (Units=GPa)
#
#
# Indices 1 2 3 4 5 6 
#
# 1 159.0594 63.8623 60.1885 0.0000 0.0000 0.0000
# 2 63.8623 67.1467 26.9475 0.0000 0.0000 0.0000
# 3 60.1885 26.9475 158.7742 0.0000 0.0000 0.0000
# 4 0.0000 0.0000 0.0000 28.2253 0.0000 0.0000
# 5 0.0000 0.0000 0.0000 0.0000 40.6233 0.0000
# 6 0.0000 0.0000 0.0000 0.0000 0.0000 36.9711
#
#
#
# Elastic Compliance Matrix: (Units=1/GPa)
#
#
# Indices 1 2 3 4 5 6 
#
# 1 0.011080 -0.009500 -0.002588 0.000000 0.000000 0.000000
# 2 -0.009500 0.024126 -0.000494 0.000000 0.000000 0.000000
# 3 -0.002588 -0.000494 0.007363 0.000000 0.000000 0.000000
# 4 0.000000 0.000000 0.000000 0.035429 0.000000 0.000000
# 5 0.000000 0.000000 0.000000 0.000000 0.024616 0.000000
# 6 0.000000 0.000000 0.000000 0.000000 0.000000 0.027048
#
#
# Mechanical properties :
#
#
# Convention : Reuss Voigt Hill
#
# Bulk Modulus (GPa) = 57.44899 76.33076 66.88988
# Shear Modulus (GPa) = 31.12774 36.76274 33.94524
#
# Velocity S-wave (km/s) = 3.86765 4.20317 4.03890
# Velocity P-wave (km/s) = 6.89584 7.76125 7.34131
#
# Compressibility (1/GPa) = 0.01740675
#
# Stress axis : x y z
#
# Youngs Moduli (GPa) = 90.24890 41.44908 135.81233
#
# Poissons Ratio (x) = 0.39376 0.35149
# Poissons Ratio (y) = 0.85735 0.06702
# Poissons Ratio (z) = 0.23357 0.02046
#
# Static dielectric constant tensor:
#      x y z
#    x 1.768130 0.000000 0.000000 
#    y 0.000000 1.720340 0.000000 
#    z 0.000000 0.000000 1.710810 
# 
# From -- ./inp_files/4694.got.cif
#   From: 2010.05.17/outbox.cif.g08.bks.cpg/sg52_3_cif.got.tgz:4694.got - 2010.06.03 12:15:38.
