data_PCOD9413393
_publ_section_title
;
Structure prediction by ZEFSAII (Michael W. Deem and Ramdas Pophale) SiO2 
 PCOD9413393
Probable space group: P N N A
;
_chemical_formula_sum "Si O2"
_cell_formula_units_Z 40
_cell_length_a 18.684414
_cell_length_b 7.714647
_cell_length_c 11.569199
_cell_angle_alpha 90.000000
_cell_angle_beta 90.000000
_cell_angle_gamma 90.000000
_cell_volume 1667.626669
_symmetry_space_group_name_H-M "P N N A"
_symmetry_group_IT_number 52
_symmetry_cell_setting 'orthorhombic'
loop_
_space_group_symop_operation_xyz
x,y,z
1/2-x,-y,z
x,1/2-y,1/2-z
1/2-x,1/2+y,1/2-z
-x,-y,-z
1/2+x,y,-z
-x,1/2+y,1/2+z
1/2+x,1/2-y,1/2+z
loop_
_atom_site_type_symbol
_atom_site_label
_atom_site_fract_x
_atom_site_fract_y
_atom_site_fract_z
Si Si1 0.250000 0.500000 0.984375
Si Si2 0.520775 0.557730 0.838695
Si Si3 0.108147 0.250000 0.250000
Si Si4 0.443235 0.986678 0.897742
Si Si5 0.600765 0.639261 0.053307
Si Si6 0.687283 0.361197 0.542894
O O1 0.318260 0.415605 0.922758
O O2 0.282780 0.665674 0.049101
O O3 0.559629 0.371267 0.828553
O O4 0.487980 0.587520 0.710296
O O5 0.578070 0.664119 0.917151
O O6 0.449020 0.520357 0.910036
O O7 0.151553 0.380726 0.331561
O O8 0.416819 0.183906 0.880364
O O9 0.500000 0.000000 0.000000
O O10 0.373488 0.885363 0.944826
O O11 0.750000 0.500000 0.524309
#
# Coordination Sequence:
#
# PCOD9413393 Si02
#       6
#     4   8   4   8   8   8
#     4  12  26  48  70 108 156 194 242 308 380 448
#     4  11  23  44  74 107 145 192 245 315 369 437
#     4  12  22  44  72 108 146 184 250 316 360 438
#     4  12  24  47  72 108 150 191 254 308 371 447
#     4  11  24  45  74 106 147 193 246 306 378 445
#     4  12  27  47  72 108 153 198 249 307 376 458
#
# _framework density 23.986181999999999
#
# number of rings (size 3 to 8) (size 9 to 14) (size 15 to 20)
#    0.000    0.400    8.000    0.000    4.200    0.800 
#    1.800    0.000    0.000    0.000    0.000    0.000 
#    0.000    0.000    0.000    0.000    0.000    0.000 
#
# Total GULP energy -223377.148493 kJ/mol
# GULP energy per Si atom -5584.428712 kJ/mol
# Density = 2.393159 g / cm^3
# Si number density = 23.986182 Si / 1000 Ang^3
#
#
#
# Elastic Constant Matrix: (Units=GPa)
#
#
# Indices 1 2 3 4 5 6 
#
# 1 127.5597 32.8931 16.8840 0.0000 0.0000 0.0000
# 2 32.8931 110.4840 23.2655 0.0000 0.0000 0.0000
# 3 16.8840 23.2655 104.6637 0.0000 0.0000 0.0000
# 4 0.0000 0.0000 0.0000 33.6025 0.0000 0.0000
# 5 0.0000 0.0000 0.0000 0.0000 25.8236 0.0000
# 6 0.0000 0.0000 0.0000 0.0000 0.0000 48.7455
#
#
#
# Elastic Compliance Matrix: (Units=1/GPa)
#
#
# Indices 1 2 3 4 5 6 
#
# 1 0.008564 -0.002370 -0.000855 0.000000 0.000000 0.000000
# 2 -0.002370 0.010151 -0.001874 0.000000 0.000000 0.000000
# 3 -0.000855 -0.001874 0.010109 0.000000 0.000000 0.000000
# 4 0.000000 0.000000 0.000000 0.029760 0.000000 0.000000
# 5 0.000000 0.000000 0.000000 0.000000 0.038724 0.000000
# 6 0.000000 0.000000 0.000000 0.000000 0.000000 0.020515
#
#
# Mechanical properties :
#
#
# Convention : Reuss Voigt Hill
#
# Bulk Modulus (GPa) = 53.68640 54.31027 53.99833
# Shear Modulus (GPa) = 37.24991 39.61196 38.43094
#
# Velocity S-wave (km/s) = 3.94505 4.06821 4.00711
# Velocity P-wave (km/s) = 6.57131 6.69019 6.63101
#
# Compressibility (1/GPa) = 0.01862669
#
# Stress axis : x y z
#
# Youngs Moduli (GPa) = 116.77299 98.51037 98.92259
#
# Poissons Ratio (x) = 0.23343 0.08455
# Poissons Ratio (y) = 0.27670 0.18540
# Poissons Ratio (z) = 0.09981 0.18463
#
# Static dielectric constant tensor:
#      x y z
#    x 1.914780 0.000000 0.000000 
#    y 0.000000 2.396930 0.000000 
#    z 0.000000 0.000000 2.017180 
# 
# From -- ./inp_files/20393.got.cif
#   From: 2010.05.17/outbox.cif.g08.bks.cpg/sg52_11_cif.got.tgz:20393.got - 2010.06.03 12:15:38.
