data_PCOD9413800
_publ_section_title
;
Structure prediction by ZEFSAII (Michael W. Deem and Ramdas Pophale) SiO2 
 PCOD9413800
Probable space group: P N N A
;
_chemical_formula_sum "Si O2"
_cell_formula_units_Z 24
_cell_length_a 22.935248
_cell_length_b 9.130269
_cell_length_c 4.831278
_cell_angle_alpha 90.000000
_cell_angle_beta 90.000000
_cell_angle_gamma 90.000000
_cell_volume 1011.693691
_symmetry_space_group_name_H-M "P N N A"
_symmetry_group_IT_number 52
_symmetry_cell_setting 'orthorhombic'
loop_
_space_group_symop_operation_xyz
x,y,z
1/2-x,-y,z
x,1/2-y,1/2-z
1/2-x,1/2+y,1/2-z
-x,-y,-z
1/2+x,y,-z
-x,1/2+y,1/2+z
1/2+x,1/2-y,1/2+z
loop_
_atom_site_type_symbol
_atom_site_label
_atom_site_fract_x
_atom_site_fract_y
_atom_site_fract_z
Si Si1 0.553408 0.920330 0.344946
Si Si2 0.250000 0.000000 0.373199
Si Si3 0.199328 0.750000 0.750000
Si Si4 0.868115 0.029913 0.871403
O O1 0.541103 0.750000 0.250000
O O2 0.602461 0.930630 0.582690
O O3 0.500000 0.000000 0.500000
O O4 0.579465 0.012356 0.082643
O O5 0.265324 0.134514 0.570952
O O6 0.307132 0.949431 0.199561
O O7 0.159224 0.663777 0.537711
#
# Coordination Sequence:
#
# PCOD9413800 Si02
#       4
#     8   4   4   8
#     4  12  25  47  77 105 146 200 256 307 374 445
#     4  12  24  44  78 114 146 198 246 306 380 450
#     4  12  24  46  78 108 152 196 246 300 370 470
#     4  12  25  46  78 108 147 199 244 302 381 451
#
# _framework density 23.722594999999998
#
# number of rings (size 3 to 8) (size 9 to 14) (size 15 to 20)
#    0.000    0.000    5.000    6.000    0.000    0.000 
#    0.000    6.667    0.000    0.000    0.000    0.000 
#    0.000    0.000    0.000    0.000    0.000    0.000 
#
# Total GULP energy -133956.048022 kJ/mol
# GULP energy per Si atom -5581.502001 kJ/mol
# Density = 2.366860 g / cm^3
# Si number density = 23.722595 Si / 1000 Ang^3
#
#
#
# Elastic Constant Matrix: (Units=GPa)
#
#
# Indices 1 2 3 4 5 6 
#
# 1 161.4334 33.4824 45.0782 0.0000 0.0000 0.0000
# 2 33.4824 32.0825 4.2758 0.0000 0.0000 0.0000
# 3 45.0782 4.2758 150.3701 0.0000 0.0000 0.0000
# 4 0.0000 0.0000 0.0000 35.8226 0.0000 0.0000
# 5 0.0000 0.0000 0.0000 0.0000 80.9641 0.0000
# 6 0.0000 0.0000 0.0000 0.0000 0.0000 32.4549
#
#
#
# Elastic Compliance Matrix: (Units=1/GPa)
#
#
# Indices 1 2 3 4 5 6 
#
# 1 0.008660 -0.008725 -0.002348 0.000000 0.000000 0.000000
# 2 -0.008725 0.040078 0.001476 0.000000 0.000000 0.000000
# 3 -0.002348 0.001476 0.007312 0.000000 0.000000 0.000000
# 4 0.000000 0.000000 0.000000 0.027915 0.000000 0.000000
# 5 0.000000 0.000000 0.000000 0.000000 0.012351 0.000000
# 6 0.000000 0.000000 0.000000 0.000000 0.000000 0.030812
#
#
# Mechanical properties :
#
#
# Convention : Reuss Voigt Hill
#
# Bulk Modulus (GPa) = 27.13211 56.61764 41.87488
# Shear Modulus (GPa) = 31.52439 47.25165 39.38802
#
# Velocity S-wave (km/s) = 3.64933 4.46785 4.07917
# Velocity P-wave (km/s) = 5.40545 7.10872 6.31478
#
# Compressibility (1/GPa) = 0.03685669
#
# Stress axis : x y z
#
# Youngs Moduli (GPa) = 115.47778 24.95122 136.75849
#
# Poissons Ratio (x) = 0.21769 0.32110
# Poissons Ratio (y) = 1.00750 -0.20184
# Poissons Ratio (z) = 0.27113 -0.03682
#
# Static dielectric constant tensor:
#      x y z
#    x 2.096580 0.000000 0.000000 
#    y 0.000000 1.921770 0.000000 
#    z 0.000000 0.000000 1.991510 
# 
# From -- ./inp_files/4734.got.cif
#   From: 2010.05.17/outbox.cif.g08.bks.cpg/sg52_3_cif.got.tgz:4734.got - 2010.06.03 12:15:38.
