data_PCOD9413906
_publ_section_title
;
Structure prediction by ZEFSAII (Michael W. Deem and Ramdas Pophale) SiO2 
 PCOD9413906
Probable space group: P N N A
;
_chemical_formula_sum "Si O2"
_cell_formula_units_Z 24
_cell_length_a 18.190844
_cell_length_b 9.424223
_cell_length_c 5.380415
_cell_angle_alpha 90.000000
_cell_angle_beta 90.000000
_cell_angle_gamma 90.000000
_cell_volume 922.389134
_symmetry_space_group_name_H-M "P N N A"
_symmetry_group_IT_number 52
_symmetry_cell_setting 'orthorhombic'
loop_
_space_group_symop_operation_xyz
x,y,z
1/2-x,-y,z
x,1/2-y,1/2-z
1/2-x,1/2+y,1/2-z
-x,-y,-z
1/2+x,y,-z
-x,1/2+y,1/2+z
1/2+x,1/2-y,1/2+z
loop_
_atom_site_type_symbol
_atom_site_label
_atom_site_fract_x
_atom_site_fract_y
_atom_site_fract_z
Si Si1 0.998464 0.750000 0.750000
Si Si2 0.134271 0.443821 0.386063
Si Si3 0.750000 0.000000 0.504928
Si Si4 0.086864 0.750000 0.250000
Si Si5 0.271138 0.750000 0.750000
O O1 0.944734 0.623087 0.662108
O O2 0.040454 0.795443 0.496981
O O3 0.189686 0.415317 0.160165
O O4 0.129055 0.613573 0.362780
O O5 0.174359 0.361728 0.610146
O O6 0.716417 0.866503 0.365890
#
# Coordination Sequence:
#
# PCOD9413906 Si02
#       5
#     4   8   4   4   4
#     4  12  26  54  78 117 159 216 272 336 402 492
#     4  12  28  50  78 118 159 207 274 340 412 495
#     4  12  28  48  80 118 154 218 262 352 418 486
#     4  12  31  47  86 115 160 219 270 332 412 494
#     4  12  27  49  80 114 169 203 274 340 424 494
#
# _framework density 26.019389
#
# number of rings (size 3 to 8) (size 9 to 14) (size 15 to 20)
#    0.000    0.000    3.333    4.000   14.000    0.000 
#    0.000    0.000    0.000    0.000    0.000    0.000 
#    0.000    0.000    0.000    0.000    0.000    0.000 
#
# Total GULP energy -133935.124438 kJ/mol
# GULP energy per Si atom -5580.630185 kJ/mol
# Density = 2.596017 g / cm^3
# Si number density = 26.019389 Si / 1000 Ang^3
#
#
#
# Elastic Constant Matrix: (Units=GPa)
#
#
# Indices 1 2 3 4 5 6 
#
# 1 51.6870 22.0605 35.1238 0.0000 0.0000 0.0000
# 2 22.0605 222.8450 51.1805 0.0000 0.0000 0.0000
# 3 35.1238 51.1805 135.7634 0.0000 0.0000 0.0000
# 4 0.0000 0.0000 0.0000 59.8730 0.0000 0.0000
# 5 0.0000 0.0000 0.0000 0.0000 50.1746 0.0000
# 6 0.0000 0.0000 0.0000 0.0000 0.0000 40.3173
#
#
#
# Elastic Compliance Matrix: (Units=1/GPa)
#
#
# Indices 1 2 3 4 5 6 
#
# 1 0.023687 -0.001026 -0.005741 0.000000 0.000000 0.000000
# 2 -0.001026 0.004957 -0.001603 0.000000 0.000000 0.000000
# 3 -0.005741 -0.001603 0.009455 0.000000 0.000000 0.000000
# 4 0.000000 0.000000 0.000000 0.016702 0.000000 0.000000
# 5 0.000000 0.000000 0.000000 0.000000 0.019930 0.000000
# 6 0.000000 0.000000 0.000000 0.000000 0.000000 0.024803
#
#
# Mechanical properties :
#
#
# Convention : Reuss Voigt Hill
#
# Bulk Modulus (GPa) = 46.82105 69.66943 58.24524
# Shear Modulus (GPa) = 40.52003 50.20170 45.36087
#
# Velocity S-wave (km/s) = 3.95055 4.39725 4.17987
# Velocity P-wave (km/s) = 6.23240 7.25363 6.76232
#
# Compressibility (1/GPa) = 0.02135792
#
# Stress axis : x y z
#
# Youngs Moduli (GPa) = 42.21789 201.72495 105.75885
#
# Poissons Ratio (x) = 0.20703 0.60718
# Poissons Ratio (y) = 0.04333 0.16956
# Poissons Ratio (z) = 0.24238 0.32342
#
# Static dielectric constant tensor:
#      x y z
#    x 2.037600 0.000000 0.000000 
#    y 0.000000 1.994770 0.000000 
#    z 0.000000 0.000000 2.691960 
# 
# From -- ./inp_files/3773.got.cif
#   From: 2010.05.17/outbox.cif.g08.bks.cpg/sg52_2_cif.got.tgz:3773.got - 2010.06.03 12:15:38.
