data_PCOD9413109
_publ_section_title
;
Structure prediction by ZEFSAII (Michael W. Deem and Ramdas Pophale) SiO2 
 PCOD9413109
Probable space group: P N N A
;
_chemical_formula_sum "Si O2"
_cell_formula_units_Z 40
_cell_length_a 19.055429
_cell_length_b 9.316134
_cell_length_c 11.020002
_cell_angle_alpha 90.000000
_cell_angle_beta 90.000000
_cell_angle_gamma 90.000000
_cell_volume 1956.303044
_symmetry_space_group_name_H-M "P N N A"
_symmetry_group_IT_number 52
_symmetry_cell_setting 'orthorhombic'
loop_
_space_group_symop_operation_xyz
x,y,z
1/2-x,-y,z
x,1/2-y,1/2-z
1/2-x,1/2+y,1/2-z
-x,-y,-z
1/2+x,y,-z
-x,1/2+y,1/2+z
1/2+x,1/2-y,1/2+z
loop_
_atom_site_type_symbol
_atom_site_label
_atom_site_fract_x
_atom_site_fract_y
_atom_site_fract_z
Si Si1 0.661780 0.763151 0.393271
Si Si2 0.611819 0.451873 0.998126
Si Si3 0.940150 0.462992 0.406405
Si Si4 0.317626 0.803647 0.892394
Si Si5 0.013443 0.906477 0.316051
O O1 0.652481 0.750000 0.250000
O O2 0.657769 0.926699 0.434045
O O3 0.592674 0.687981 0.444937
O O4 0.734812 0.682042 0.417164
O O5 0.658421 0.310705 0.006136
O O6 0.544102 0.401250 0.076693
O O7 0.582806 0.523363 0.875087
O O8 0.872463 0.567083 0.401853
O O9 0.000000 0.500000 0.500000
O O10 0.978504 0.481990 0.278103
O O11 0.323108 0.750000 0.750000
O O12 0.020845 0.750000 0.250000
#
# Coordination Sequence:
#
# PCOD9413109 Si02
#       5
#     8   8   8   8   8
#     4  11  22  35  60  94 121 153 204 260 315 368
#     4  11  21  37  64  84 121 164 202 255 303 378
#     4  12  23  37  60  88 129 159 199 259 314 366
#     4  11  21  40  60  88 127 160 201 261 315 370
#     4  11  21  38  58  89 125 159 208 248 307 370
#
# _framework density 20.446729000000001
#
# number of rings (size 3 to 8) (size 9 to 14) (size 15 to 20)
#    0.000    0.800    6.000    2.400    2.800    3.200 
#    0.000    0.000    0.000   12.000    0.000    0.000 
#    0.000    0.000    0.000    0.000    0.000    0.000 
#
# Total GULP energy -223095.909545 kJ/mol
# GULP energy per Si atom -5577.397739 kJ/mol
# Density = 2.040019 g / cm^3
# Si number density = 20.446729 Si / 1000 Ang^3
#
#
#
# Elastic Constant Matrix: (Units=GPa)
#
#
# Indices 1 2 3 4 5 6 
#
# 1 105.0667 3.7040 35.5418 0.0000 0.0000 0.0000
# 2 3.7040 36.8530 21.2317 0.0000 0.0000 0.0000
# 3 35.5418 21.2317 45.9834 0.0000 0.0000 0.0000
# 4 0.0000 0.0000 0.0000 26.7728 0.0000 0.0000
# 5 0.0000 0.0000 0.0000 0.0000 0.4949 0.0000
# 6 0.0000 0.0000 0.0000 0.0000 0.0000 28.9194
#
#
#
# Elastic Compliance Matrix: (Units=1/GPa)
#
#
# Indices 1 2 3 4 5 6 
#
# 1 0.013961 0.006558 -0.013819 0.000000 0.000000 0.000000
# 2 0.006558 0.040050 -0.023561 0.000000 0.000000 0.000000
# 3 -0.013819 -0.023561 0.043307 0.000000 0.000000 0.000000
# 4 0.000000 0.000000 0.000000 0.037351 0.000000 0.000000
# 5 0.000000 0.000000 0.000000 0.000000 2.020679 0.000000
# 6 0.000000 0.000000 0.000000 0.000000 0.000000 0.034579
#
#
# Mechanical properties :
#
#
# Convention : Reuss Voigt Hill
#
# Bulk Modulus (GPa) = 28.03160 34.31757 31.17458
# Shear Modulus (GPa) = 2.20901 19.73246 10.97073
#
# Velocity S-wave (km/s) = 1.04054 3.10992 2.31887
# Velocity P-wave (km/s) = 3.89653 5.45122 4.73808
#
# Compressibility (1/GPa) = 0.03567402
#
# Stress axis : x y z
#
# Youngs Moduli (GPa) = 71.62658 24.96908 23.09101
#
# Poissons Ratio (x) = -0.16375 0.31910
# Poissons Ratio (y) = -0.46975 0.54405
# Poissons Ratio (z) = 0.98982 0.58829
#
# Static dielectric constant tensor:
#      x y z
#    x 1.787180 0.000000 0.000000 
#    y 0.000000 1.761690 0.000000 
#    z 0.000000 0.000000 1.759590 
# 
# From -- ./inp_files/21454.got.cif
#   From: 2010.05.17/outbox.cif.g08.bks.cpg/sg52_11_cif.got.tgz:21454.got - 2010.06.03 12:15:38.
