data_PCOD9413243
_publ_section_title
;
Structure prediction by ZEFSAII (Michael W. Deem and Ramdas Pophale) SiO2 
 PCOD9413243
Probable space group: P N N A
;
_chemical_formula_sum "Si O2"
_cell_formula_units_Z 48
_cell_length_a 19.537572
_cell_length_b 20.199199
_cell_length_c 5.476107
_cell_angle_alpha 90.000000
_cell_angle_beta 90.000000
_cell_angle_gamma 90.000000
_cell_volume 2161.108964
_symmetry_space_group_name_H-M "P N N A"
_symmetry_group_IT_number 52
_symmetry_cell_setting 'orthorhombic'
loop_
_space_group_symop_operation_xyz
x,y,z
1/2-x,-y,z
x,1/2-y,1/2-z
1/2-x,1/2+y,1/2-z
-x,-y,-z
1/2+x,y,-z
-x,1/2+y,1/2+z
1/2+x,1/2-y,1/2+z
loop_
_atom_site_type_symbol
_atom_site_label
_atom_site_fract_x
_atom_site_fract_y
_atom_site_fract_z
Si Si1 0.139608 0.447908 0.410672
Si Si2 0.814686 0.182756 0.313497
Si Si3 0.713627 0.428160 0.080417
Si Si4 0.999399 0.064869 0.325080
Si Si5 0.380612 0.409229 0.474570
Si Si6 0.455419 0.317406 0.107283
O O1 0.170961 0.422152 0.664535
O O2 0.157281 0.525987 0.387851
O O3 0.057391 0.443639 0.381340
O O4 0.167241 0.419574 0.157496
O O5 0.777015 0.250000 0.250000
O O6 0.771066 0.127830 0.446452
O O7 0.831176 0.148178 0.057559
O O8 0.886269 0.198456 0.451813
O O9 0.750000 0.500000 0.090150
O O10 0.923838 0.067336 0.209576
O O11 0.006939 0.139082 0.440889
O O12 0.000000 0.000000 0.500000
O O13 0.432611 0.374816 0.293266
O O14 0.476339 0.250000 0.250000
#
# Coordination Sequence:
#
# PCOD9413243 Si02
#       6
#     8   8   8   8   8   8
#     4  12  25  43  67 101 136 178 226 279 344 411
#     4  11  24  43  67 101 134 179 231 290 339 406
#     4  12  26  42  69  97 138 180 230 281 335 402
#     4  11  24  40  67 102 136 172 224 282 351 415
#     4  11  22  41  70  99 133 168 222 289 347 393
#     4  11  23  40  71 101 133 173 225 288 347 400
#
# _framework density 22.210816999999999
#
# number of rings (size 3 to 8) (size 9 to 14) (size 15 to 20)
#    0.000    0.667    5.000    3.000    4.667    0.000 
#    0.000    0.833    3.667    0.000    0.000    0.000 
#    0.000    0.000    0.000    0.000    0.000    0.000 
#
# Total GULP energy -268063.484332 kJ/mol
# GULP energy per Si atom -5584.655924 kJ/mol
# Density = 2.216026 g / cm^3
# Si number density = 22.210817 Si / 1000 Ang^3
#
#
#
# Elastic Constant Matrix: (Units=GPa)
#
#
# Indices 1 2 3 4 5 6 
#
# 1 50.1466 17.3602 18.3129 0.0000 0.0000 0.0000
# 2 17.3602 131.0785 23.3347 0.0000 0.0000 0.0000
# 3 18.3129 23.3347 96.2910 0.0000 0.0000 0.0000
# 4 0.0000 0.0000 0.0000 33.6875 0.0000 0.0000
# 5 0.0000 0.0000 0.0000 0.0000 1.6474 0.0000
# 6 0.0000 0.0000 0.0000 0.0000 0.0000 25.5368
#
#
#
# Elastic Compliance Matrix: (Units=1/GPa)
#
#
# Indices 1 2 3 4 5 6 
#
# 1 0.022059 -0.002273 -0.003645 0.000000 0.000000 0.000000
# 2 -0.002273 0.008207 -0.001557 0.000000 0.000000 0.000000
# 3 -0.003645 -0.001557 0.011456 0.000000 0.000000 0.000000
# 4 0.000000 0.000000 0.000000 0.029685 0.000000 0.000000
# 5 0.000000 0.000000 0.000000 0.000000 0.607014 0.000000
# 6 0.000000 0.000000 0.000000 0.000000 0.000000 0.039159
#
#
# Mechanical properties :
#
#
# Convention : Reuss Voigt Hill
#
# Bulk Modulus (GPa) = 37.34953 43.94796 40.64875
# Shear Modulus (GPa) = 6.74352 26.74156 16.74254
#
# Velocity S-wave (km/s) = 1.74434 3.47362 2.74852
# Velocity P-wave (km/s) = 4.57268 5.99314 5.33044
#
# Compressibility (1/GPa) = 0.02677410
#
# Stress axis : x y z
#
# Youngs Moduli (GPa) = 45.33246 121.84525 87.29398
#
# Poissons Ratio (x) = 0.27692 0.31815
# Poissons Ratio (y) = 0.10303 0.13589
# Poissons Ratio (z) = 0.16522 0.18967
#
# Static dielectric constant tensor:
#      x y z
#    x 1.942650 0.000000 0.000000 
#    y 0.000000 1.772200 0.000000 
#    z 0.000000 0.000000 2.007430 
# 
# From -- ./inp_files/4349.got.cif
#   From: 2010.05.17/outbox.cif.g08.bks.cpg/sg52_3_cif.got.tgz:4349.got - 2010.06.03 12:15:38.
