data_PCOD9413841
_publ_section_title
;
Structure prediction by ZEFSAII (Michael W. Deem and Ramdas Pophale) SiO2 
 PCOD9413841
Probable space group: P N N A
;
_chemical_formula_sum "Si O2"
_cell_formula_units_Z 24
_cell_length_a 19.980017
_cell_length_b 10.175671
_cell_length_c 4.833213
_cell_angle_alpha 90.000000
_cell_angle_beta 90.000000
_cell_angle_gamma 90.000000
_cell_volume 982.640920
_symmetry_space_group_name_H-M "P N N A"
_symmetry_group_IT_number 52
_symmetry_cell_setting 'orthorhombic'
loop_
_space_group_symop_operation_xyz
x,y,z
1/2-x,-y,z
x,1/2-y,1/2-z
1/2-x,1/2+y,1/2-z
-x,-y,-z
1/2+x,y,-z
-x,1/2+y,1/2+z
1/2+x,1/2-y,1/2+z
loop_
_atom_site_type_symbol
_atom_site_label
_atom_site_fract_x
_atom_site_fract_y
_atom_site_fract_z
Si Si1 0.638374 0.938488 0.172948
Si Si2 0.546165 0.897108 0.670009
Si Si3 0.730166 0.130693 0.925353
O O1 0.577614 0.949674 0.954449
O O2 0.608379 0.889004 0.457616
O O3 0.697562 0.846969 0.056923
O O4 0.677228 0.078529 0.151258
O O5 0.519975 0.750000 0.750000
O O6 0.500000 0.000000 0.500000
O O7 0.704926 0.250000 0.750000
O O8 0.750000 0.000000 0.746663
#
# Coordination Sequence:
#
# PCOD9413841 Si02
#       3
#     8   8   8
#     4   9  23  40  68  97 140 181 235 296 367 437
#     4  12  25  44  65  99 137 193 243 306 361 443
#     4   8  19  39  71 105 145 180 237 295 380 441
#
# _framework density 24.423974999999999
#
# number of rings (size 3 to 8) (size 9 to 14) (size 15 to 20)
#    2.000    0.000    0.000    3.000    0.000    8.000 
#    0.000    3.333    0.000    0.000    0.000    0.000 
#    0.000    0.000    0.000    0.000    0.000    0.000 
#
# Total GULP energy -133670.486366 kJ/mol
# GULP energy per Si atom -5569.603599 kJ/mol
# Density = 2.436838 g / cm^3
# Si number density = 24.423975 Si / 1000 Ang^3
#
#
#
# Elastic Constant Matrix: (Units=GPa)
#
#
# Indices 1 2 3 4 5 6 
#
# 1 89.1813 41.1877 18.4979 0.0000 0.0000 0.0000
# 2 41.1877 156.3350 51.6510 0.0000 0.0000 0.0000
# 3 18.4979 51.6510 120.9946 0.0000 0.0000 0.0000
# 4 0.0000 0.0000 0.0000 48.7451 0.0000 0.0000
# 5 0.0000 0.0000 0.0000 0.0000 4.0392 0.0000
# 6 0.0000 0.0000 0.0000 0.0000 0.0000 26.7075
#
#
#
# Elastic Compliance Matrix: (Units=1/GPa)
#
#
# Indices 1 2 3 4 5 6 
#
# 1 0.012804 -0.003174 -0.000602 0.000000 0.000000 0.000000
# 2 -0.003174 0.008234 -0.003030 0.000000 0.000000 0.000000
# 3 -0.000602 -0.003030 0.009650 0.000000 0.000000 0.000000
# 4 0.000000 0.000000 0.000000 0.020515 0.000000 0.000000
# 5 0.000000 0.000000 0.000000 0.000000 0.247573 0.000000
# 6 0.000000 0.000000 0.000000 0.000000 0.000000 0.037443
#
#
# Mechanical properties :
#
#
# Convention : Reuss Voigt Hill
#
# Bulk Modulus (GPa) = 58.56377 65.46490 62.01433
# Shear Modulus (GPa) = 14.06376 32.90997 23.48687
#
# Velocity S-wave (km/s) = 2.40222 3.67474 3.10438
# Velocity P-wave (km/s) = 5.63243 6.69826 6.18833
#
# Compressibility (1/GPa) = 0.01707540
#
# Stress axis : x y z
#
# Youngs Moduli (GPa) = 78.09999 121.45128 103.62452
#
# Poissons Ratio (x) = 0.38552 0.06243
# Poissons Ratio (y) = 0.24791 0.31394
# Poissons Ratio (z) = 0.04705 0.36795
#
# Static dielectric constant tensor:
#      x y z
#    x 1.969850 0.000000 0.000000 
#    y 0.000000 2.128840 0.000000 
#    z 0.000000 0.000000 1.973780 
# 
# From -- ./inp_files/3754.got.cif
#   From: 2010.05.17/outbox.cif.g08.bks.cpg/sg52_2_cif.got.tgz:3754.got - 2010.06.03 12:15:38.
