data_PCOD9413011
_publ_section_title
;
Structure prediction by ZEFSAII (Michael W. Deem and Ramdas Pophale) SiO2 
 PCOD9413011
Probable space group: P N N A
;
_chemical_formula_sum "Si O2"
_cell_formula_units_Z 48
_cell_length_a 8.294231
_cell_length_b 29.982289
_cell_length_c 8.945282
_cell_angle_alpha 90.000000
_cell_angle_beta 90.000000
_cell_angle_gamma 90.000000
_cell_volume 2224.513004
_symmetry_space_group_name_H-M "P N N A"
_symmetry_group_IT_number 52
_symmetry_cell_setting 'orthorhombic'
loop_
_space_group_symop_operation_xyz
x,y,z
1/2-x,-y,z
x,1/2-y,1/2-z
1/2-x,1/2+y,1/2-z
-x,-y,-z
1/2+x,y,-z
-x,1/2+y,1/2+z
1/2+x,1/2-y,1/2+z
loop_
_atom_site_type_symbol
_atom_site_label
_atom_site_fract_x
_atom_site_fract_y
_atom_site_fract_z
Si Si1 0.815503 0.117599 0.780023
Si Si2 0.662767 0.959443 0.272044
Si Si3 0.827129 0.198718 0.285696
Si Si4 0.539030 0.875622 0.086162
Si Si5 0.359789 0.936513 0.434981
Si Si6 0.979164 0.839827 0.458588
O O1 0.645547 0.126750 0.860378
O O2 0.782653 0.073223 0.683365
O O3 0.874655 0.153162 0.657907
O O4 0.946163 0.115929 0.910372
O O5 0.627500 0.916684 0.169931
O O6 0.491259 0.967253 0.354678
O O7 0.785052 0.950151 0.408457
O O8 0.750000 0.000000 0.187497
O O9 0.799899 0.250000 0.250000
O O10 0.875182 0.169544 0.141514
O O11 0.672229 0.176878 0.364806
O O12 0.968715 0.192337 0.407911
O O13 0.443100 0.888213 0.467332
#
# Coordination Sequence:
#
# PCOD9413011 Si02
#       6
#     8   8   8   8   8   8
#     4  11  22  39  71  90 127 179 212 268 334 391
#     4  11  22  38  65  99 132 170 224 272 325 395
#     4  12  25  42  67  95 129 174 217 273 334 394
#     4  11  23  42  62  97 133 172 218 271 339 383
#     4  11  19  40  67  93 124 178 217 267 326 381
#     4  12  20  45  68  92 131 170 223 271 325 395
#
# _framework density 21.577755
#
# number of rings (size 3 to 8) (size 9 to 14) (size 15 to 20)
#    0.000    0.667    8.333    1.500    0.000    2.667 
#    0.000    5.833    0.000    0.000    0.000    0.000 
#    0.000    0.000    0.000    0.000    0.000    0.000 
#
# Total GULP energy -268310.394245 kJ/mol
# GULP energy per Si atom -5589.799880 kJ/mol
# Density = 2.152864 g / cm^3
# Si number density = 21.577755 Si / 1000 Ang^3
#
#
#
# Elastic Constant Matrix: (Units=GPa)
#
#
# Indices 1 2 3 4 5 6 
#
# 1 51.7641 1.0106 -0.2289 0.0000 0.0000 0.0000
# 2 1.0106 56.0535 11.2243 0.0000 0.0000 0.0000
# 3 -0.2289 11.2243 84.9087 0.0000 0.0000 0.0000
# 4 0.0000 0.0000 0.0000 14.2128 0.0000 0.0000
# 5 0.0000 0.0000 0.0000 0.0000 38.6784 0.0000
# 6 0.0000 0.0000 0.0000 0.0000 0.0000 23.2416
#
#
#
# Elastic Compliance Matrix: (Units=1/GPa)
#
#
# Indices 1 2 3 4 5 6 
#
# 1 0.019326 -0.000369 0.000101 0.000000 0.000000 0.000000
# 2 -0.000369 0.018332 -0.002424 0.000000 0.000000 0.000000
# 3 0.000101 -0.002424 0.012098 0.000000 0.000000 0.000000
# 4 0.000000 0.000000 0.000000 0.070359 0.000000 0.000000
# 5 0.000000 0.000000 0.000000 0.000000 0.025854 0.000000
# 6 0.000000 0.000000 0.000000 0.000000 0.000000 0.043026
#
#
# Mechanical properties :
#
#
# Convention : Reuss Voigt Hill
#
# Bulk Modulus (GPa) = 22.53671 24.08202 23.30937
# Shear Modulus (GPa) = 23.90392 27.27461 25.58926
#
# Velocity S-wave (km/s) = 3.33198 3.55916 3.44744
# Velocity P-wave (km/s) = 5.02692 5.29858 5.16453
#
# Compressibility (1/GPa) = 0.04437204
#
# Stress axis : x y z
#
# Youngs Moduli (GPa) = 51.74365 54.54879 82.65755
#
# Poissons Ratio (x) = 0.02011 -0.00834
# Poissons Ratio (y) = 0.01907 0.20039
# Poissons Ratio (z) = -0.00522 0.13225
#
# Static dielectric constant tensor:
#      x y z
#    x 1.835820 0.000000 0.000000 
#    y 0.000000 1.800440 0.000000 
#    z 0.000000 0.000000 1.783660 
# 
# From -- ./inp_files/7691.got.cif
#   From: 2010.05.17/outbox.cif.g08.bks.cpg/sg52_4_cif.got.tgz:7691.got - 2010.06.03 12:15:38.
