data_PCOD9413075
_publ_section_title
;
Structure prediction by ZEFSAII (Michael W. Deem and Ramdas Pophale) SiO2 
 PCOD9413075
Probable space group: P N N A
;
_chemical_formula_sum "Si O2"
_cell_formula_units_Z 48
_cell_length_a 15.190098
_cell_length_b 11.336007
_cell_length_c 14.990524
_cell_angle_alpha 90.000000
_cell_angle_beta 90.000000
_cell_angle_gamma 90.000000
_cell_volume 2581.294139
_symmetry_space_group_name_H-M "P N N A"
_symmetry_group_IT_number 52
_symmetry_cell_setting 'orthorhombic'
loop_
_space_group_symop_operation_xyz
x,y,z
1/2-x,-y,z
x,1/2-y,1/2-z
1/2-x,1/2+y,1/2-z
-x,-y,-z
1/2+x,y,-z
-x,1/2+y,1/2+z
1/2+x,1/2-y,1/2+z
loop_
_atom_site_type_symbol
_atom_site_label
_atom_site_fract_x
_atom_site_fract_y
_atom_site_fract_z
Si Si1 0.696764 0.825042 0.664683
Si Si2 0.113395 0.858115 0.066112
Si Si3 0.476203 0.549784 0.322297
Si Si4 0.153173 0.466971 0.595573
Si Si5 0.886601 0.574446 0.856459
Si Si6 0.935516 0.728151 0.514696
O O1 0.666532 0.750000 0.750000
O O2 0.692407 0.728763 0.586931
O O3 0.795414 0.868871 0.678472
O O4 0.636598 0.935891 0.637810
O O5 0.087640 0.942251 0.148641
O O6 0.027345 0.783328 0.038684
O O7 0.136841 0.944678 0.986706
O O8 0.574526 0.500518 0.337132
O O9 0.457399 0.589136 0.222150
O O10 0.452689 0.649664 0.395606
O O11 0.250000 0.500000 0.629943
O O12 0.133960 0.338851 0.550630
O O13 0.911305 0.643491 0.946963
#
# Coordination Sequence:
#
# PCOD9413075 Si02
#       6
#     8   8   8   8   8   8
#     4  11  21  32  48  74 108 136 169 210 265 314
#     4   9  18  33  49  73 106 136 168 215 262 312
#     4   9  17  32  49  74 108 134 169 213 265 304
#     4   9  17  30  54  79 101 135 174 221 258 300
#     4  11  21  31  50  78 103 139 171 212 260 317
#     4   9  18  31  50  76 102 135 173 209 262 308
#
# _framework density 18.595323
#
# number of rings (size 3 to 8) (size 9 to 14) (size 15 to 20)
#    0.000    2.333    1.667    4.500    0.000    2.000 
#    0.000    0.000    0.000    0.000   43.333    0.000 
#    0.000    0.000    0.000    0.000    0.000    0.000 
#
# Total GULP energy -267350.487631 kJ/mol
# GULP energy per Si atom -5569.801826 kJ/mol
# Density = 1.855300 g / cm^3
# Si number density = 18.595323 Si / 1000 Ang^3
#
#
#
# Elastic Constant Matrix: (Units=GPa)
#
#
# Indices 1 2 3 4 5 6 
#
# 1 46.9539 14.7411 0.6096 0.0000 0.0000 0.0000
# 2 14.7411 86.9835 20.7953 0.0000 0.0000 0.0000
# 3 0.6096 20.7953 31.9624 0.0000 0.0000 0.0000
# 4 0.0000 0.0000 0.0000 84.3007 0.0000 0.0000
# 5 0.0000 0.0000 0.0000 0.0000 7.0867 0.0000
# 6 0.0000 0.0000 0.0000 0.0000 0.0000 25.9197
#
#
#
# Elastic Compliance Matrix: (Units=1/GPa)
#
#
# Indices 1 2 3 4 5 6 
#
# 1 0.022655 -0.004424 0.002446 0.000000 0.000000 0.000000
# 2 -0.004424 0.014478 -0.009335 0.000000 0.000000 0.000000
# 3 0.002446 -0.009335 0.037314 0.000000 0.000000 0.000000
# 4 0.000000 0.000000 0.000000 0.011862 0.000000 0.000000
# 5 0.000000 0.000000 0.000000 0.000000 0.141109 0.000000
# 6 0.000000 0.000000 0.000000 0.000000 0.000000 0.038581
#
#
# Mechanical properties :
#
#
# Convention : Reuss Voigt Hill
#
# Bulk Modulus (GPa) = 19.29745 26.46576 22.88161
# Shear Modulus (GPa) = 16.34532 32.11169 24.22851
#
# Velocity S-wave (km/s) = 2.96801 4.16007 3.61354
# Velocity P-wave (km/s) = 4.70591 6.11051 5.45362
#
# Compressibility (1/GPa) = 0.05182031
#
# Stress axis : x y z
#
# Youngs Moduli (GPa) = 44.14096 69.07047 26.79981
#
# Poissons Ratio (x) = 0.30558 -0.06556
# Poissons Ratio (y) = 0.19529 0.25018
# Poissons Ratio (z) = -0.10798 0.64479
#
# Static dielectric constant tensor:
#      x y z
#    x 1.653980 0.000000 0.000000 
#    y 0.000000 1.680380 0.000000 
#    z 0.000000 0.000000 1.630100 
# 
# From -- ./inp_files/27174.got.cif
#   From: 2010.05.17/outbox.cif.g08.bks.cpg/sg52_14_cif.got.tgz:27174.got - 2010.06.03 12:15:38.
