data_PCOD9413443
_publ_section_title
;
Structure prediction by ZEFSAII (Michael W. Deem and Ramdas Pophale) SiO2 
 PCOD9413443
Probable space group: P N N A
;
_chemical_formula_sum "Si O2"
_cell_formula_units_Z 40
_cell_length_a 17.902192
_cell_length_b 10.956475
_cell_length_c 9.179608
_cell_angle_alpha 90.000000
_cell_angle_beta 90.000000
_cell_angle_gamma 90.000000
_cell_volume 1800.533468
_symmetry_space_group_name_H-M "P N N A"
_symmetry_group_IT_number 52
_symmetry_cell_setting 'orthorhombic'
loop_
_space_group_symop_operation_xyz
x,y,z
1/2-x,-y,z
x,1/2-y,1/2-z
1/2-x,1/2+y,1/2-z
-x,-y,-z
1/2+x,y,-z
-x,1/2+y,1/2+z
1/2+x,1/2-y,1/2+z
loop_
_atom_site_type_symbol
_atom_site_label
_atom_site_fract_x
_atom_site_fract_y
_atom_site_fract_z
Si Si1 0.588081 0.150652 0.489670
Si Si2 0.250048 0.362135 0.857447
Si Si3 0.354843 0.214246 0.392759
Si Si4 0.531617 0.670286 0.401834
Si Si5 0.528114 0.980115 0.708607
O O1 0.668894 0.168425 0.424395
O O2 0.536536 0.269137 0.508259
O O3 0.543766 0.053974 0.388777
O O4 0.581317 0.087454 0.646691
O O5 0.250000 0.500000 0.792963
O O6 0.268810 0.250000 0.750000
O O7 0.307930 0.363283 0.991711
O O8 0.307075 0.250000 0.250000
O O9 0.396187 0.313807 0.495383
O O10 0.419160 0.135160 0.313403
O O11 0.543404 0.750000 0.250000
O O12 0.508201 0.536700 0.350909
#
# Coordination Sequence:
#
# PCOD9413443 Si02
#       5
#     8   8   8   8   8
#     4   9  19  37  64  98 131 175 225 284 344 401
#     4  12  27  48  72  98 140 189 235 286 346 419
#     4  11  24  41  64 101 141 181 224 288 355 409
#     4   9  19  37  70 100 128 177 235 276 345 412
#     4   9  18  38  68  95 132 178 221 288 346 404
#
# _framework density 22.215638999999999
#
# number of rings (size 3 to 8) (size 9 to 14) (size 15 to 20)
#    0.000    2.000    2.000    1.800    2.800    6.400 
#    3.600    0.000    0.000    0.000    0.000    0.000 
#    0.000    0.000    0.000    0.000    0.000    0.000 
#
# Total GULP energy -222935.990371 kJ/mol
# GULP energy per Si atom -5573.399759 kJ/mol
# Density = 2.216507 g / cm^3
# Si number density = 22.215639 Si / 1000 Ang^3
#
#
#
# Elastic Constant Matrix: (Units=GPa)
#
#
# Indices 1 2 3 4 5 6 
#
# 1 70.1077 10.1853 26.1828 0.0000 0.0000 0.0000
# 2 10.1853 102.7298 46.6134 0.0000 0.0000 0.0000
# 3 26.1828 46.6134 124.3978 0.0000 0.0000 0.0000
# 4 0.0000 0.0000 0.0000 33.8511 0.0000 0.0000
# 5 0.0000 0.0000 0.0000 0.0000 27.2338 0.0000
# 6 0.0000 0.0000 0.0000 0.0000 0.0000 8.7406
#
#
#
# Elastic Compliance Matrix: (Units=1/GPa)
#
#
# Indices 1 2 3 4 5 6 
#
# 1 0.015481 -0.000068 -0.003233 0.000000 0.000000 0.000000
# 2 -0.000068 0.011729 -0.004381 0.000000 0.000000 0.000000
# 3 -0.003233 -0.004381 0.010361 0.000000 0.000000 0.000000
# 4 0.000000 0.000000 0.000000 0.029541 0.000000 0.000000
# 5 0.000000 0.000000 0.000000 0.000000 0.036719 0.000000
# 6 0.000000 0.000000 0.000000 0.000000 0.000000 0.114409
#
#
# Mechanical properties :
#
#
# Convention : Reuss Voigt Hill
#
# Bulk Modulus (GPa) = 45.02996 51.46646 48.24821
# Shear Modulus (GPa) = 20.74648 28.24868 24.49758
#
# Velocity S-wave (km/s) = 3.05924 3.56977 3.32432
# Velocity P-wave (km/s) = 5.72644 6.34099 6.04153
#
# Compressibility (1/GPa) = 0.02220744
#
# Stress axis : x y z
#
# Youngs Moduli (GPa) = 64.59524 85.26099 96.51919
#
# Poissons Ratio (x) = 0.00579 0.31204
# Poissons Ratio (y) = 0.00439 0.42281
# Poissons Ratio (z) = 0.20883 0.37349
#
# Static dielectric constant tensor:
#      x y z
#    x 1.816290 0.000000 0.000000 
#    y 0.000000 1.901520 0.000000 
#    z 0.000000 0.000000 1.945170 
# 
# From -- ./inp_files/11601.got.cif
#   From: 2010.05.17/outbox.cif.g08.bks.cpg/sg52_6_cif.got.tgz:11601.got - 2010.06.03 12:15:38.
