data_PCOD9413427
_publ_section_title
;
Structure prediction by ZEFSAII (Michael W. Deem and Ramdas Pophale) SiO2 
 PCOD9413427
Probable space group: P N N A
;
_chemical_formula_sum "Si O2"
_cell_formula_units_Z 36
_cell_length_a 16.180327
_cell_length_b 9.374965
_cell_length_c 9.164197
_cell_angle_alpha 90.000000
_cell_angle_beta 90.000000
_cell_angle_gamma 90.000000
_cell_volume 1390.117037
_symmetry_space_group_name_H-M "P N N A"
_symmetry_group_IT_number 52
_symmetry_cell_setting 'orthorhombic'
loop_
_space_group_symop_operation_xyz
x,y,z
1/2-x,-y,z
x,1/2-y,1/2-z
1/2-x,1/2+y,1/2-z
-x,-y,-z
1/2+x,y,-z
-x,1/2+y,1/2+z
1/2+x,1/2-y,1/2+z
loop_
_atom_site_type_symbol
_atom_site_label
_atom_site_fract_x
_atom_site_fract_y
_atom_site_fract_z
Si Si1 0.361447 0.513850 0.453471
Si Si2 0.707484 0.722059 0.078059
Si Si3 0.877937 0.559212 0.012555
Si Si4 0.132510 0.250000 0.250000
Si Si5 0.024179 0.091922 0.790662
O O1 0.313250 0.374507 0.506160
O O2 0.321522 0.625834 0.339619
O O3 0.397426 0.584921 0.600719
O O4 0.445994 0.475549 0.368520
O O5 0.686777 0.750000 0.250000
O O6 0.798903 0.651087 0.072135
O O7 0.656054 0.600976 0.988832
O O8 0.944050 0.533677 0.137977
O O9 0.909509 0.658284 0.879468
O O10 0.000130 0.250000 0.750000
#
# Coordination Sequence:
#
# PCOD9413427 Si02
#       5
#     8   8   8   4   8
#     4  11  27  45  76 111 157 194 260 323 396 463
#     4  11  25  47  81 113 146 210 264 333 387 473
#     4  11  26  46  77 109 157 204 268 319 396 469
#     4  12  28  46  68 118 158 208 250 332 386 472
#     4  11  23  48  74 111 149 211 257 318 389 477
#
# _framework density 25.897100999999999
#
# number of rings (size 3 to 8) (size 9 to 14) (size 15 to 20)
#    0.000    0.889    4.444    0.667    3.111    8.889 
#    0.000    0.000    0.000    0.000    0.000    0.000 
#    0.000    0.000    0.000    0.000    0.000    0.000 
#
# Total GULP energy -201023.736246 kJ/mol
# GULP energy per Si atom -5583.992674 kJ/mol
# Density = 2.583816 g / cm^3
# Si number density = 25.897101 Si / 1000 Ang^3
#
#
#
# Elastic Constant Matrix: (Units=GPa)
#
#
# Indices 1 2 3 4 5 6 
#
# 1 67.3370 35.0136 47.2954 0.0000 0.0000 0.0000
# 2 35.0136 183.1363 93.9590 0.0000 0.0000 0.0000
# 3 47.2954 93.9590 162.5600 0.0000 0.0000 0.0000
# 4 0.0000 0.0000 0.0000 68.6640 0.0000 0.0000
# 5 0.0000 0.0000 0.0000 0.0000 33.7210 0.0000
# 6 0.0000 0.0000 0.0000 0.0000 0.0000 27.4456
#
#
#
# Elastic Compliance Matrix: (Units=1/GPa)
#
#
# Indices 1 2 3 4 5 6 
#
# 1 0.018826 -0.001122 -0.004829 0.000000 0.000000 0.000000
# 2 -0.001122 0.007829 -0.004199 0.000000 0.000000 0.000000
# 3 -0.004829 -0.004199 0.009983 0.000000 0.000000 0.000000
# 4 0.000000 0.000000 0.000000 0.014564 0.000000 0.000000
# 5 0.000000 0.000000 0.000000 0.000000 0.029655 0.000000
# 6 0.000000 0.000000 0.000000 0.000000 0.000000 0.036436
#
#
# Mechanical properties :
#
#
# Convention : Reuss Voigt Hill
#
# Bulk Modulus (GPa) = 61.20216 85.06323 73.13269
# Shear Modulus (GPa) = 34.95582 41.75046 38.35314
#
# Velocity S-wave (km/s) = 3.67794 4.01954 3.85253
# Velocity P-wave (km/s) = 6.45914 7.37971 6.93472
#
# Compressibility (1/GPa) = 0.01633929
#
# Stress axis : x y z
#
# Youngs Moduli (GPa) = 53.11933 127.72842 100.16695
#
# Poissons Ratio (x) = 0.14329 0.48368
# Poissons Ratio (y) = 0.05959 0.42058
# Poissons Ratio (z) = 0.25650 0.53631
#
# Static dielectric constant tensor:
#      x y z
#    x 2.074250 0.000000 0.000000 
#    y 0.000000 2.090160 0.000000 
#    z 0.000000 0.000000 2.121230 
# 
# From -- ./inp_files/12909.got.cif
#   From: 2010.05.17/outbox.cif.g08.bks.cpg/sg52_7_cif.got.tgz:12909.got - 2010.06.03 12:15:38.
