data_PCOD9413358
_publ_section_title
;
Structure prediction by ZEFSAII (Michael W. Deem and Ramdas Pophale) SiO2 
 PCOD9413358
Probable space group: P N N A
;
_chemical_formula_sum "Si O2"
_cell_formula_units_Z 24
_cell_length_a 13.344195
_cell_length_b 4.891285
_cell_length_c 15.008651
_cell_angle_alpha 90.000000
_cell_angle_beta 90.000000
_cell_angle_gamma 90.000000
_cell_volume 979.618566
_symmetry_space_group_name_H-M "P N N A"
_symmetry_group_IT_number 52
_symmetry_cell_setting 'orthorhombic'
loop_
_space_group_symop_operation_xyz
x,y,z
1/2-x,-y,z
x,1/2-y,1/2-z
1/2-x,1/2+y,1/2-z
-x,-y,-z
1/2+x,y,-z
-x,1/2+y,1/2+z
1/2+x,1/2-y,1/2+z
loop_
_atom_site_type_symbol
_atom_site_label
_atom_site_fract_x
_atom_site_fract_y
_atom_site_fract_z
Si Si1 0.362714 0.559938 0.916016
Si Si2 0.462355 0.088715 0.837455
Si Si3 0.319957 0.755559 0.383985
O O1 0.250000 0.500000 0.882016
O O2 0.419704 0.273586 0.916692
O O3 0.422710 0.784604 0.857115
O O4 0.352919 0.650870 0.017733
O O5 0.422502 0.250000 0.750000
O O6 0.581085 0.136408 0.836947
O O7 0.250000 0.500000 0.396233
O O8 0.250000 0.000000 0.343923
#
# Coordination Sequence:
#
# PCOD9413358 Si02
#       3
#     8   8   8
#     4  11  23  43  65  91 125 168 215 259 308 374
#     4  12  25  41  65  95 131 167 204 260 324 380
#     4  11  23  42  68  94 123 165 215 263 310 372
#
# _framework density 24.499333
#
# number of rings (size 3 to 8) (size 9 to 14) (size 15 to 20)
#    0.000    0.667    0.000   10.000    0.000    4.000 
#    0.000    1.667    0.000    0.000    0.000    0.000 
#    0.000    0.000    0.000    0.000    0.000    0.000 
#
# Total GULP energy -134262.631649 kJ/mol
# GULP energy per Si atom -5594.276319 kJ/mol
# Density = 2.444357 g / cm^3
# Si number density = 24.499333 Si / 1000 Ang^3
#
#
#
# Elastic Constant Matrix: (Units=GPa)
#
#
# Indices 1 2 3 4 5 6 
#
# 1 111.9548 -16.1377 -0.7535 0.0000 0.0000 0.0000
# 2 -16.1377 86.3836 -14.7750 0.0000 0.0000 0.0000
# 3 -0.7535 -14.7750 52.7135 0.0000 0.0000 0.0000
# 4 0.0000 0.0000 0.0000 -27.0341 0.0000 0.0000
# 5 0.0000 0.0000 0.0000 0.0000 11.4977 0.0000
# 6 0.0000 0.0000 0.0000 0.0000 0.0000 42.4515
#
#
#
# Elastic Compliance Matrix: (Units=1/GPa)
#
#
# Indices 1 2 3 4 5 6 
#
# 1 0.009200 0.001829 0.000644 0.000000 0.000000 0.000000
# 2 0.001829 0.012523 0.003536 0.000000 0.000000 0.000000
# 3 0.000644 0.003536 0.019971 0.000000 0.000000 0.000000
# 4 0.000000 0.000000 0.000000 -0.036990 0.000000 0.000000
# 5 0.000000 0.000000 0.000000 0.000000 0.086974 0.000000
# 6 0.000000 0.000000 0.000000 0.000000 0.000000 0.023556
#
#
# Mechanical properties :
#
#
# Convention : Reuss Voigt Hill
#
# Bulk Modulus (GPa) = 18.61782 20.85772 19.73777
# Shear Modulus (GPa) = 41.28169 24.23091 32.75630
#
# Velocity S-wave (km/s) = 4.10934 3.14832 3.66051
# Velocity P-wave (km/s) = 5.48921 4.66347 5.09310
#
# Compressibility (1/GPa) = 0.05371199
#
# Stress axis : x y z
#
# Youngs Moduli (GPa) = 108.69402 79.85469 50.07308
#
# Poissons Ratio (x) = -0.14605 -0.03225
# Poissons Ratio (y) = -0.19879 -0.17706
# Poissons Ratio (z) = -0.07001 -0.28238
#
# Static dielectric constant tensor:
#      x y z
#    x 2.082310 0.000000 0.000000 
#    y 0.000000 1.906360 0.000000 
#    z 0.000000 0.000000 2.012270 
# 
# From -- ./inp_files/31727.got.cif
#   From: 2010.05.17/outbox.cif.g08.bks.cpg/sg52_16_cif.got.tgz:31727.got - 2010.06.03 12:15:38.
