data_PCOD9413476
_publ_section_title
;
Structure prediction by ZEFSAII (Michael W. Deem and Ramdas Pophale) SiO2 
 PCOD9413476
Probable space group: P N N A
;
_chemical_formula_sum "Si O2"
_cell_formula_units_Z 40
_cell_length_a 12.038945
_cell_length_b 8.453136
_cell_length_c 16.670116
_cell_angle_alpha 90.000000
_cell_angle_beta 90.000000
_cell_angle_gamma 90.000000
_cell_volume 1696.465017
_symmetry_space_group_name_H-M "P N N A"
_symmetry_group_IT_number 52
_symmetry_cell_setting 'orthorhombic'
loop_
_space_group_symop_operation_xyz
x,y,z
1/2-x,-y,z
x,1/2-y,1/2-z
1/2-x,1/2+y,1/2-z
-x,-y,-z
1/2+x,y,-z
-x,1/2+y,1/2+z
1/2+x,1/2-y,1/2+z
loop_
_atom_site_type_symbol
_atom_site_label
_atom_site_fract_x
_atom_site_fract_y
_atom_site_fract_z
Si Si1 0.608703 0.611404 0.102687
Si Si2 0.688089 0.835789 0.578693
Si Si3 0.000111 0.581868 0.411837
Si Si4 0.320457 0.733323 0.840814
Si Si5 0.604416 0.216174 0.843261
O O1 0.634831 0.434097 0.127962
O O2 0.687906 0.726154 0.153827
O O3 0.482184 0.657950 0.118181
O O4 0.653937 0.630747 0.012780
O O5 0.576820 0.738006 0.603149
O O6 0.786546 0.715569 0.601502
O O7 0.750000 0.000000 0.608957
O O8 0.875052 0.632315 0.393777
O O9 0.000000 0.500000 0.500000
O O10 0.043880 0.450885 0.350892
O O11 0.356605 0.750000 0.750000
O O12 0.629367 0.250000 0.750000
#
# Coordination Sequence:
#
# PCOD9413476 Si02
#       5
#     8   8   8   8   8
#     4  11  24  46  72 101 145 199 250 298 387 460
#     4  12  26  47  75 103 148 202 253 306 378 468
#     4  12  26  46  76 110 146 195 255 314 376 462
#     4  11  24  43  70 104 144 187 245 308 377 451
#     4  12  27  47  74 111 153 194 248 324 388 448
#
# _framework density 23.578441000000002
#
# number of rings (size 3 to 8) (size 9 to 14) (size 15 to 20)
#    0.000    0.400    4.000    4.800    0.000    6.400 
#    0.000    0.000    0.000    0.000    0.000    0.000 
#    0.000    0.000    0.000    0.000    0.000    0.000 
#
# Total GULP energy -223480.113392 kJ/mol
# GULP energy per Si atom -5587.002835 kJ/mol
# Density = 2.352478 g / cm^3
# Si number density = 23.578441 Si / 1000 Ang^3
#
#
#
# Elastic Constant Matrix: (Units=GPa)
#
#
# Indices 1 2 3 4 5 6 
#
# 1 123.4881 2.2455 12.8859 0.0000 0.0000 0.0000
# 2 2.2455 72.5144 8.3444 0.0000 0.0000 0.0000
# 3 12.8859 8.3444 91.8317 0.0000 0.0000 0.0000
# 4 0.0000 0.0000 0.0000 24.9472 0.0000 0.0000
# 5 0.0000 0.0000 0.0000 0.0000 15.4452 0.0000
# 6 0.0000 0.0000 0.0000 0.0000 0.0000 40.9798
#
#
#
# Elastic Compliance Matrix: (Units=1/GPa)
#
#
# Indices 1 2 3 4 5 6 
#
# 1 0.008219 -0.000123 -0.001142 0.000000 0.000000 0.000000
# 2 -0.000123 0.013938 -0.001249 0.000000 0.000000 0.000000
# 3 -0.001142 -0.001249 0.011163 0.000000 0.000000 0.000000
# 4 0.000000 0.000000 0.000000 0.040085 0.000000 0.000000
# 5 0.000000 0.000000 0.000000 0.000000 0.064745 0.000000
# 6 0.000000 0.000000 0.000000 0.000000 0.000000 0.024402
#
#
# Mechanical properties :
#
#
# Convention : Reuss Voigt Hill
#
# Bulk Modulus (GPa) = 35.34616 37.19843 36.27230
# Shear Modulus (GPa) = 28.24665 33.89831 31.07248
#
# Velocity S-wave (km/s) = 3.46495 3.79579 3.63414
# Velocity P-wave (km/s) = 5.57057 5.91789 5.74685
#
# Compressibility (1/GPa) = 0.02829161
#
# Stress axis : x y z
#
# Youngs Moduli (GPa) = 121.66385 71.74669 89.57948
#
# Poissons Ratio (x) = 0.00883 0.10231
# Poissons Ratio (y) = 0.01498 0.11190
# Poissons Ratio (z) = 0.13896 0.08963
#
# Static dielectric constant tensor:
#      x y z
#    x 1.905510 0.000000 0.000000 
#    y 0.000000 1.776860 0.000000 
#    z 0.000000 0.000000 1.654740 
# 
# From -- ./inp_files/31952.got.cif
#   From: 2010.05.17/outbox.cif.g08.bks.cpg/sg52_16_cif.got.tgz:31952.got - 2010.06.03 12:15:38.
