data_PCOD9413691
_publ_section_title
;
Structure prediction by ZEFSAII (Michael W. Deem and Ramdas Pophale) SiO2 
 PCOD9413691
Probable space group: P N N A
;
_chemical_formula_sum "Si O2"
_cell_formula_units_Z 40
_cell_length_a 15.475538
_cell_length_b 10.928749
_cell_length_c 10.743773
_cell_angle_alpha 90.000000
_cell_angle_beta 90.000000
_cell_angle_gamma 90.000000
_cell_volume 1817.075746
_symmetry_space_group_name_H-M "P N N A"
_symmetry_group_IT_number 52
_symmetry_cell_setting 'orthorhombic'
loop_
_space_group_symop_operation_xyz
x,y,z
1/2-x,-y,z
x,1/2-y,1/2-z
1/2-x,1/2+y,1/2-z
-x,-y,-z
1/2+x,y,-z
-x,1/2+y,1/2+z
1/2+x,1/2-y,1/2+z
loop_
_atom_site_type_symbol
_atom_site_label
_atom_site_fract_x
_atom_site_fract_y
_atom_site_fract_z
Si Si1 0.563077 0.511381 0.814413
Si Si2 0.045019 0.774089 0.484149
Si Si3 0.250000 0.500000 0.557173
Si Si4 0.008119 0.750000 0.750000
Si Si5 0.302878 0.150782 0.166102
Si Si6 0.594327 0.139915 0.165611
O O1 0.557299 0.582784 0.947206
O O2 0.546469 0.367855 0.795380
O O3 0.654586 0.543679 0.749207
O O4 0.483229 0.574139 0.740200
O O5 0.112346 0.717417 0.387804
O O6 0.063960 0.733428 0.624719
O O7 0.953325 0.710548 0.448650
O O8 0.257176 0.390090 0.458324
O O9 0.334314 0.539099 0.633032
O O10 0.255061 0.250000 0.250000
O O11 0.631112 0.250000 0.250000
#
# Coordination Sequence:
#
# PCOD9413691 Si02
#       6
#     8   8   4   4   8   8
#     4   9  19  37  58  80 110 147 187 239 276 324
#     4   9  19  37  58  80 110 147 187 239 276 324
#     4  12  20  34  60  88 116 150 192 232 288 358
#     4  12  18  26  56  98 108 130 190 230 284 340
#     4   9  20  40  58  77 111 149 189 233 284 331
#     4   9  20  40  58  77 111 149 189 233 284 331
#
# _framework density 22.013392
#
# number of rings (size 3 to 8) (size 9 to 14) (size 15 to 20)
#    0.000    2.400    0.000    5.400    0.000    3.200 
#   14.400    0.000    0.000    0.000    0.000    0.000 
#    0.000    0.000    0.000    0.000    0.000    0.000 
#
# Total GULP energy -222710.783877 kJ/mol
# GULP energy per Si atom -5567.769597 kJ/mol
# Density = 2.196329 g / cm^3
# Si number density = 22.013392 Si / 1000 Ang^3
#
#
#
# Elastic Constant Matrix: (Units=GPa)
#
#
# Indices 1 2 3 4 5 6 
#
# 1 44.8859 -1.5944 12.4671 0.0000 0.0000 0.0000
# 2 -1.5944 98.5765 14.5434 0.0000 0.0000 0.0000
# 3 12.4671 14.5434 106.9914 0.0000 0.0000 0.0000
# 4 0.0000 0.0000 0.0000 36.7278 0.0000 0.0000
# 5 0.0000 0.0000 0.0000 0.0000 -3.0962 0.0000
# 6 0.0000 0.0000 0.0000 0.0000 0.0000 -1.6313
#
#
#
# Elastic Compliance Matrix: (Units=1/GPa)
#
#
# Indices 1 2 3 4 5 6 
#
# 1 0.023083 0.000786 -0.002797 0.000000 0.000000 0.000000
# 2 0.000786 0.010379 -0.001502 0.000000 0.000000 0.000000
# 3 -0.002797 -0.001502 0.009877 0.000000 0.000000 0.000000
# 4 0.000000 0.000000 0.000000 0.027227 0.000000 0.000000
# 5 0.000000 0.000000 0.000000 0.000000 -0.322973 0.000000
# 6 0.000000 0.000000 0.000000 0.000000 0.000000 -0.612998
#
#
# Mechanical properties :
#
#
# Convention : Reuss Voigt Hill
#
# Bulk Modulus (GPa) = 27.53857 33.47623 30.50740
# Shear Modulus (GPa) = -5.90825 21.40256 7.74715
#
# Velocity S-wave (km/s) = -1.64005 3.12148 1.87801
# Velocity P-wave (km/s) = 2.99178 5.31335 4.31175
#
# Compressibility (1/GPa) = 0.03631271
#
# Stress axis : x y z
#
# Youngs Moduli (GPa) = 43.32124 96.35054 101.24904
#
# Poissons Ratio (x) = -0.07573 0.28315
# Poissons Ratio (y) = -0.03405 0.15211
# Poissons Ratio (z) = 0.12115 0.14475
#
# Static dielectric constant tensor:
#      x y z
#    x 1.787950 0.000000 0.000000 
#    y 0.000000 1.968880 0.000000 
#    z 0.000000 0.000000 1.886020 
# 
# From -- ./inp_files/19319.got.cif
#   From: 2010.05.17/outbox.cif.g08.bks.cpg/sg52_10_cif.got.tgz:19319.got - 2010.06.03 12:15:38.
