data_PCOD9413371
_publ_section_title
;
Structure prediction by ZEFSAII (Michael W. Deem and Ramdas Pophale) SiO2 
 PCOD9413371
Probable space group: P N N A
;
_chemical_formula_sum "Si O2"
_cell_formula_units_Z 36
_cell_length_a 15.775726
_cell_length_b 15.694056
_cell_length_c 7.383166
_cell_angle_alpha 90.000000
_cell_angle_beta 90.000000
_cell_angle_gamma 90.000000
_cell_volume 1827.962094
_symmetry_space_group_name_H-M "P N N A"
_symmetry_group_IT_number 52
_symmetry_cell_setting 'orthorhombic'
loop_
_space_group_symop_operation_xyz
x,y,z
1/2-x,-y,z
x,1/2-y,1/2-z
1/2-x,1/2+y,1/2-z
-x,-y,-z
1/2+x,y,-z
-x,1/2+y,1/2+z
1/2+x,1/2-y,1/2+z
loop_
_atom_site_type_symbol
_atom_site_label
_atom_site_fract_x
_atom_site_fract_y
_atom_site_fract_z
Si Si1 0.284052 0.595929 0.070319
Si Si2 0.393261 0.658073 0.351492
Si Si3 0.260734 0.900608 0.845822
Si Si4 0.827984 0.250000 0.750000
Si Si5 0.419454 0.320347 0.595626
O O1 0.250000 0.500000 0.082775
O O2 0.369130 0.595935 0.187764
O O3 0.322305 0.645821 0.509128
O O4 0.294704 0.614571 0.857595
O O5 0.389867 0.750000 0.250000
O O6 0.226278 0.670465 0.164544
O O7 0.487425 0.639716 0.422855
O O8 0.163116 0.872032 0.844423
O O9 0.250000 0.000000 0.891309
O O10 0.888362 0.282258 0.592153
O O11 0.429722 0.250000 0.750000
#
# Coordination Sequence:
#
# PCOD9413371 Si02
#       5
#     8   8   8   4   8
#     4  11  23  43  68  96 131 176 216 269 333 390
#     4  11  24  41  67  95 128 172 222 265 325 390
#     4  11  24  44  66  95 133 172 217 271 332 391
#     4  12  22  42  66  90 130 176 212 278 324 384
#     4  11  24  41  65  95 130 168 222 269 325 391
#
# _framework density 19.694064000000001
#
# number of rings (size 3 to 8) (size 9 to 14) (size 15 to 20)
#    0.000    0.889    5.556    0.667    0.000    4.444 
#    0.000    2.222    0.000    0.000    0.000    0.000 
#    0.000    0.000    0.000    0.000    0.000    0.000 
#
# Total GULP energy -200654.365667 kJ/mol
# GULP energy per Si atom -5573.732380 kJ/mol
# Density = 1.964924 g / cm^3
# Si number density = 19.694064 Si / 1000 Ang^3
#
#
#
# Elastic Constant Matrix: (Units=GPa)
#
#
# Indices 1 2 3 4 5 6 
#
# 1 152.1071 38.0438 41.5877 0.0000 0.0000 0.0000
# 2 38.0438 66.6195 38.9966 0.0000 0.0000 0.0000
# 3 41.5877 38.9966 111.8207 0.0000 0.0000 0.0000
# 4 0.0000 0.0000 0.0000 24.2920 0.0000 0.0000
# 5 0.0000 0.0000 0.0000 0.0000 1.6699 0.0000
# 6 0.0000 0.0000 0.0000 0.0000 0.0000 -1.7848
#
#
#
# Elastic Compliance Matrix: (Units=1/GPa)
#
#
# Indices 1 2 3 4 5 6 
#
# 1 0.007925 -0.003519 -0.001720 0.000000 0.000000 0.000000
# 2 -0.003519 0.020423 -0.005814 0.000000 0.000000 0.000000
# 3 -0.001720 -0.005814 0.011610 0.000000 0.000000 0.000000
# 4 0.000000 0.000000 0.000000 0.041166 0.000000 0.000000
# 5 0.000000 0.000000 0.000000 0.000000 0.598838 0.000000
# 6 0.000000 0.000000 0.000000 0.000000 0.000000 -0.560291
#
#
# Mechanical properties :
#
#
# Convention : Reuss Voigt Hill
#
# Bulk Modulus (GPa) = 56.01350 63.08927 59.55139
# Shear Modulus (GPa) = 33.84619 18.96336 26.40477
#
# Velocity S-wave (km/s) = 4.15010 3.10642 3.66559
# Velocity P-wave (km/s) = 7.17412 6.70602 6.94401
#
# Compressibility (1/GPa) = 0.01785284
#
# Stress axis : x y z
#
# Youngs Moduli (GPa) = 126.18818 48.96415 86.13121
#
# Poissons Ratio (x) = 0.17228 0.14817
# Poissons Ratio (y) = 0.44399 0.50075
# Poissons Ratio (z) = 0.21708 0.28467
#
# Static dielectric constant tensor:
#      x y z
#    x 1.769870 0.000000 0.000000 
#    y 0.000000 1.834390 0.000000 
#    z 0.000000 0.000000 1.657280 
# 
# From -- ./inp_files/2126.got.cif
#   From: 2010.05.17/outbox.cif.g08.bks.cpg/sg52_2_cif.got.tgz:2126.got - 2010.06.03 12:15:38.
