data_PCOD9413992
_publ_section_title
;
Structure prediction by ZEFSAII (Michael W. Deem and Ramdas Pophale) SiO2 
 PCOD9413992
Probable space group: P N N A
;
_chemical_formula_sum "Si O2"
_cell_formula_units_Z 64
_cell_length_a 24.000000
_cell_length_b 15.000000
_cell_length_c 9.000000
_cell_angle_alpha 90.000000
_cell_angle_beta 90.000000
_cell_angle_gamma 90.000000
_cell_volume 3240.000000
_symmetry_space_group_name_H-M "P N N A"
_symmetry_group_IT_number 52
_symmetry_cell_setting 'orthorhombic'
loop_
_space_group_symop_operation_xyz
x,y,z
1/2-x,-y,z
x,1/2-y,1/2-z
1/2-x,1/2+y,1/2-z
-x,-y,-z
1/2+x,y,-z
-x,1/2+y,1/2+z
1/2+x,1/2-y,1/2+z
loop_
_atom_site_type_symbol
_atom_site_label
_atom_site_fract_x
_atom_site_fract_y
_atom_site_fract_z
Si Si1 0.450226 0.436894 0.441442
Si Si2 0.194388 0.560734 0.958717
Si Si3 0.763642 0.764529 0.427450
Si Si4 0.548410 0.172451 0.133156
Si Si5 0.789328 0.581582 0.553034
Si Si6 0.122946 0.465550 0.201665
Si Si7 0.373695 0.506940 0.680168
Si Si8 0.119698 0.214831 0.414666
O O1 0.500000 0.500000 0.500000
O O2 0.484317 0.348953 0.402546
O O3 0.421796 0.482099 0.299208
O O4 0.403178 0.436779 0.568580
O O5 0.250000 0.500000 0.945636
O O6 0.217664 0.661060 0.961570
O O7 0.153292 0.539271 0.821710
O O8 0.159645 0.531424 0.102281
O O9 0.765390 0.750000 0.250000
O O10 0.756440 0.671602 0.515944
O O11 0.824551 0.794550 0.486413
O O12 0.553229 0.250000 0.250000
O O13 0.580490 0.085521 0.197481
O O14 0.580232 0.211514 0.989852
O O15 0.750000 0.500000 0.588011
O O16 0.833791 0.581795 0.685157
O O17 0.823654 0.556262 0.405698
O O18 0.096761 0.385505 0.104582
O O19 0.131672 0.250000 0.250000
#
# Coordination Sequence:
#
# PCOD9413992 Si02
#       8
#     8   8   8   8   8   8   8   8
#     4   9  21  44  67  90 124 174 224 270 342 403
#     4  12  24  38  64 100 142 175 216 271 330 398
#     4  12  24  39  60  94 136 177 223 269 323 404
#     4  11  22  40  69  97 121 167 226 289 337 387
#     4  11  22  39  62  88 127 181 220 261 334 395
#     4  11  23  41  63  96 134 168 216 284 338 397
#     4  10  20  40  64  91 128 176 218 266 332 405
#     4  12  21  37  64 100 126 160 223 290 332 383
#
# _framework density 19.753086
#
# number of rings (size 3 to 8) (size 9 to 14) (size 15 to 20)
#    0.000    1.000    3.750    4.875    0.000    0.000 
#    0.000   10.625    0.000    4.500    0.000    0.000 
#    0.000    0.000    0.000    0.000    0.000    0.000 
#
# Total GULP energy -357283.289972 kJ/mol
# GULP energy per Si atom -5582.551406 kJ/mol
# Density = 1.970813 g / cm^3
# Si number density = 19.753086 Si / 1000 Ang^3
#
#
#
# Elastic Constant Matrix: (Units=GPa)
#
#
# Indices 1 2 3 4 5 6 
#
# 1 95.8819 62.7571 44.6487 0.0000 0.0000 0.0000
# 2 62.7571 92.0434 41.8742 0.0000 0.0000 0.0000
# 3 44.6487 41.8742 89.3205 0.0000 0.0000 0.0000
# 4 0.0000 0.0000 0.0000 16.9527 0.0000 0.0000
# 5 0.0000 0.0000 0.0000 0.0000 14.6342 0.0000
# 6 0.0000 0.0000 0.0000 0.0000 0.0000 105.0773
#
#
#
# Elastic Compliance Matrix: (Units=1/GPa)
#
#
# Indices 1 2 3 4 5 6 
#
# 1 0.020241 -0.011691 -0.004637 0.000000 0.000000 0.000000
# 2 -0.011691 0.020563 -0.003796 0.000000 0.000000 0.000000
# 3 -0.004637 -0.003796 0.015293 0.000000 0.000000 0.000000
# 4 0.000000 0.000000 0.000000 0.058988 0.000000 0.000000
# 5 0.000000 0.000000 0.000000 0.000000 0.068333 0.000000
# 6 0.000000 0.000000 0.000000 0.000000 0.000000 0.009517
#
#
# Mechanical properties :
#
#
# Convention : Reuss Voigt Hill
#
# Bulk Modulus (GPa) = 63.09677 63.97842 63.53759
# Shear Modulus (GPa) = 20.96749 35.86391 28.41570
#
# Velocity S-wave (km/s) = 3.26157 4.26562 3.79693
# Velocity P-wave (km/s) = 6.79675 7.53127 7.17342
#
# Compressibility (1/GPa) = 0.01584867
#
# Stress axis : x y z
#
# Youngs Moduli (GPa) = 49.40501 48.63201 65.38935
#
# Poissons Ratio (x) = 0.56856 0.30320
# Poissons Ratio (y) = 0.57760 0.24821
# Poissons Ratio (z) = 0.22909 0.18460
#
# Static dielectric constant tensor:
#      x y z
#    x 1.683350 0.000000 0.000000 
#    y 0.000000 1.474240 0.000000 
#    z 0.000000 0.000000 1.763160 
# 
# From -- ./inp_files/14502.got.cif
#   From: 2010.05.17/outbox.ucp.g08.bks.cvg/sg52_8_cif.got.tgz:14502.got - 2010.06.11 16:30:12.
