data_PCOD9413199
_publ_section_title
;
Structure prediction by ZEFSAII (Michael W. Deem and Ramdas Pophale) SiO2 
 PCOD9413199
Probable space group: P N N A
;
_chemical_formula_sum "Si O2"
_cell_formula_units_Z 32
_cell_length_a 16.873609
_cell_length_b 17.560643
_cell_length_c 4.816247
_cell_angle_alpha 90.000000
_cell_angle_beta 90.000000
_cell_angle_gamma 90.000000
_cell_volume 1427.109006
_symmetry_space_group_name_H-M "P N N A"
_symmetry_group_IT_number 52
_symmetry_cell_setting 'orthorhombic'
loop_
_space_group_symop_operation_xyz
x,y,z
1/2-x,-y,z
x,1/2-y,1/2-z
1/2-x,1/2+y,1/2-z
-x,-y,-z
1/2+x,y,-z
-x,1/2+y,1/2+z
1/2+x,1/2-y,1/2+z
loop_
_atom_site_type_symbol
_atom_site_label
_atom_site_fract_x
_atom_site_fract_y
_atom_site_fract_z
Si Si1 0.941556 0.907799 0.761816
Si Si2 0.359846 0.839975 0.743171
Si Si3 0.291687 0.422527 0.982594
Si Si4 0.099523 0.926478 0.041744
O O1 0.926218 0.879316 0.452953
O O2 0.025292 0.885244 0.898130
O O3 0.873038 0.871313 0.949378
O O4 0.933019 0.998390 0.799703
O O5 0.368501 0.750000 0.750000
O O6 0.275699 0.866115 0.624002
O O7 0.250000 0.500000 0.091963
O O8 0.344151 0.447099 0.717285
O O9 0.346825 0.387797 0.222973
#
# Coordination Sequence:
#
# PCOD9413199 Si02
#       4
#     8   8   8   8
#     4  11  22  41  63  95 127 167 218 273 321 393
#     4  12  25  41  63  92 133 177 212 260 334 402
#     4  12  21  39  64  97 130 166 213 277 324 385
#     4  11  22  38  67  97 124 161 223 278 326 367
#
# _framework density 22.422954000000001
#
# number of rings (size 3 to 8) (size 9 to 14) (size 15 to 20)
#    0.000    0.500    5.000    4.500    0.000    4.000 
#    0.000    5.000    0.000    0.000    0.000    0.000 
#    0.000    0.000    0.000    0.000    0.000    0.000 
#
# Total GULP energy -179109.097577 kJ/mol
# GULP energy per Si atom -5597.159299 kJ/mol
# Density = 2.237192 g / cm^3
# Si number density = 22.422954 Si / 1000 Ang^3
#
#
#
# Elastic Constant Matrix: (Units=GPa)
#
#
# Indices 1 2 3 4 5 6 
#
# 1 100.9710 4.2820 18.9673 0.0000 0.0000 0.0000
# 2 4.2820 54.7919 -4.0139 0.0000 0.0000 0.0000
# 3 18.9673 -4.0139 86.3945 0.0000 0.0000 0.0000
# 4 0.0000 0.0000 0.0000 0.4318 0.0000 0.0000
# 5 0.0000 0.0000 0.0000 0.0000 36.7546 0.0000
# 6 0.0000 0.0000 0.0000 0.0000 0.0000 14.7033
#
#
#
# Elastic Compliance Matrix: (Units=1/GPa)
#
#
# Indices 1 2 3 4 5 6 
#
# 1 0.010382 -0.000982 -0.002325 0.000000 0.000000 0.000000
# 2 -0.000982 0.018406 0.001071 0.000000 0.000000 0.000000
# 3 -0.002325 0.001071 0.012135 0.000000 0.000000 0.000000
# 4 0.000000 0.000000 0.000000 2.315784 0.000000 0.000000
# 5 0.000000 0.000000 0.000000 0.000000 0.027207 0.000000
# 6 0.000000 0.000000 0.000000 0.000000 0.000000 0.068012
#
#
# Mechanical properties :
#
#
# Convention : Reuss Voigt Hill
#
# Bulk Modulus (GPa) = 27.43386 31.18088 29.30737
# Shear Modulus (GPa) = 2.02548 25.23942 13.63245
#
# Velocity S-wave (km/s) = 0.95146 3.35865 2.46838
# Velocity P-wave (km/s) = 3.66992 5.38300 4.60679
#
# Compressibility (1/GPa) = 0.03645130
#
# Stress axis : x y z
#
# Youngs Moduli (GPa) = 96.31864 54.33004 82.40640
#
# Poissons Ratio (x) = 0.05333 0.19159
# Poissons Ratio (y) = 0.09455 -0.08823
# Poissons Ratio (z) = 0.22394 -0.05817
#
# Static dielectric constant tensor:
#      x y z
#    x 1.903740 0.000000 0.000000 
#    y 0.000000 1.790610 0.000000 
#    z 0.000000 0.000000 1.803250 
# 
# From -- ./inp_files/1936.got.cif
#   From: 2010.05.17/outbox.cif.g08.bks.cpg/sg52_1_cif.got.tgz:1936.got - 2010.06.03 12:15:38.
