data_PCOD9413799
_publ_section_title
;
Structure prediction by ZEFSAII (Michael W. Deem and Ramdas Pophale) SiO2 
 PCOD9413799
Probable space group: P N N A
;
_chemical_formula_sum "Si O2"
_cell_formula_units_Z 56
_cell_length_a 15.216632
_cell_length_b 11.922961
_cell_length_c 13.103314
_cell_angle_alpha 90.000000
_cell_angle_beta 90.000000
_cell_angle_gamma 90.000000
_cell_volume 2377.299010
_symmetry_space_group_name_H-M "P N N A"
_symmetry_group_IT_number 52
_symmetry_cell_setting 'orthorhombic'
loop_
_space_group_symop_operation_xyz
x,y,z
1/2-x,-y,z
x,1/2-y,1/2-z
1/2-x,1/2+y,1/2-z
-x,-y,-z
1/2+x,y,-z
-x,1/2+y,1/2+z
1/2+x,1/2-y,1/2+z
loop_
_atom_site_type_symbol
_atom_site_label
_atom_site_fract_x
_atom_site_fract_y
_atom_site_fract_z
Si Si1 0.730712 0.372419 0.917285
Si Si2 0.828795 0.421308 0.351487
Si Si3 0.403694 0.551760 0.489861
Si Si4 0.618045 0.796691 0.447514
Si Si5 0.612668 0.125205 0.758113
Si Si6 0.930616 0.782799 0.450228
Si Si7 0.453463 0.501125 0.820030
O O1 0.750000 0.500000 0.942783
O O2 0.705841 0.365357 0.798554
O O3 0.813226 0.305147 0.960258
O O4 0.643320 0.334549 0.976634
O O5 0.750000 0.500000 0.310056
O O6 0.839746 0.457112 0.469066
O O7 0.839252 0.287055 0.363252
O O8 0.910862 0.466361 0.286960
O O9 0.500000 0.500000 0.500000
O O10 0.384186 0.590759 0.375548
O O11 0.395562 0.657552 0.567097
O O12 0.522582 0.762541 0.490678
O O13 0.596717 0.918341 0.398682
O O14 0.570727 0.250000 0.750000
O O15 0.554166 0.037142 0.694052
O O16 0.944786 0.871715 0.359379
#
# Coordination Sequence:
#
# PCOD9413799 Si02
#       7
#     8   8   8   8   8   8   8
#     4  12  25  44  74 114 146 193 258 320 384 459
#     4  12  28  46  71 110 155 203 252 320 392 475
#     4  12  24  50  74 103 149 203 255 308 394 471
#     4  12  24  47  76 108 154 200 252 321 392 465
#     4  12  24  47  78 107 144 203 255 312 386 472
#     4  12  24  46  78 103 151 195 251 325 383 463
#     4  12  24  44  76 112 145 200 262 315 399 461
#
# _framework density 23.556145000000001
#
# number of rings (size 3 to 8) (size 9 to 14) (size 15 to 20)
#    0.000    0.000    7.143    3.429    2.000    1.143 
#    2.571    0.000    0.000    0.000    0.000    0.000 
#    0.000    0.000    0.000    0.000    0.000    0.000 
#
# Total GULP energy -312893.741965 kJ/mol
# GULP energy per Si atom -5587.388249 kJ/mol
# Density = 2.350253 g / cm^3
# Si number density = 23.556145 Si / 1000 Ang^3
#
#
#
# Elastic Constant Matrix: (Units=GPa)
#
#
# Indices 1 2 3 4 5 6 
#
# 1 91.8459 -7.7370 9.0715 0.0000 0.0000 0.0000
# 2 -7.7370 112.8782 9.4931 0.0000 0.0000 0.0000
# 3 9.0715 9.4931 84.7634 0.0000 0.0000 0.0000
# 4 0.0000 0.0000 0.0000 33.3493 0.0000 0.0000
# 5 0.0000 0.0000 0.0000 0.0000 46.8016 0.0000
# 6 0.0000 0.0000 0.0000 0.0000 0.0000 27.8348
#
#
#
# Elastic Compliance Matrix: (Units=1/GPa)
#
#
# Indices 1 2 3 4 5 6 
#
# 1 0.011088 0.000868 -0.001284 0.000000 0.000000 0.000000
# 2 0.000868 0.009011 -0.001102 0.000000 0.000000 0.000000
# 3 -0.001284 -0.001102 0.012058 0.000000 0.000000 0.000000
# 4 0.000000 0.000000 0.000000 0.029986 0.000000 0.000000
# 5 0.000000 0.000000 0.000000 0.000000 0.021367 0.000000
# 6 0.000000 0.000000 0.000000 0.000000 0.000000 0.035926
#
#
# Mechanical properties :
#
#
# Convention : Reuss Voigt Hill
#
# Bulk Modulus (GPa) = 34.33898 34.57139 34.45518
# Shear Modulus (GPa) = 37.82746 40.17448 39.00097
#
# Velocity S-wave (km/s) = 4.01164 4.13422 4.07339
# Velocity P-wave (km/s) = 6.00557 6.12349 6.06481
#
# Compressibility (1/GPa) = 0.02912143
#
# Stress axis : x y z
#
# Youngs Moduli (GPa) = 90.18984 110.97192 82.92989
#
# Poissons Ratio (x) = -0.09632 0.10647
# Poissons Ratio (y) = -0.07828 0.09140
# Poissons Ratio (z) = 0.11579 0.12230
#
# Static dielectric constant tensor:
#      x y z
#    x 1.950220 0.000000 0.000000 
#    y 0.000000 2.052680 0.000000 
#    z 0.000000 0.000000 1.914950 
# 
# From -- ./inp_files/27275.got.cif
#   From: 2010.05.17/outbox.cif.g08.bks.cpg/sg52_14_cif.got.tgz:27275.got - 2010.06.03 12:15:38.
