data_PCOD9413310
_publ_section_title
;
Structure prediction by ZEFSAII (Michael W. Deem and Ramdas Pophale) SiO2 
 PCOD9413310
Probable space group: P N N A
;
_chemical_formula_sum "Si O2"
_cell_formula_units_Z 56
_cell_length_a 10.859618
_cell_length_b 20.902361
_cell_length_c 11.294685
_cell_angle_alpha 90.000000
_cell_angle_beta 90.000000
_cell_angle_gamma 90.000000
_cell_volume 2563.799249
_symmetry_space_group_name_H-M "P N N A"
_symmetry_group_IT_number 52
_symmetry_cell_setting 'orthorhombic'
loop_
_space_group_symop_operation_xyz
x,y,z
1/2-x,-y,z
x,1/2-y,1/2-z
1/2-x,1/2+y,1/2-z
-x,-y,-z
1/2+x,y,-z
-x,1/2+y,1/2+z
1/2+x,1/2-y,1/2+z
loop_
_atom_site_type_symbol
_atom_site_label
_atom_site_fract_x
_atom_site_fract_y
_atom_site_fract_z
Si Si1 0.538992 0.428261 0.031889
Si Si2 0.563274 0.210373 0.926987
Si Si3 0.953154 0.449342 0.594373
Si Si4 0.895565 0.846865 0.688086
Si Si5 0.809323 0.158519 0.051292
Si Si6 0.697322 0.072541 0.240613
Si Si7 0.182572 0.941249 0.318596
O O1 0.654828 0.420353 0.121762
O O2 0.422964 0.407007 0.108170
O O3 0.500000 0.500000 0.000000
O O4 0.543826 0.391421 0.909728
O O5 0.548212 0.162226 0.816453
O O6 0.607020 0.277883 0.874255
O O7 0.419670 0.210879 0.966778
O O8 0.676360 0.185197 0.007351
O O9 0.864431 0.399094 0.529060
O O10 0.877126 0.476255 0.705413
O O11 0.000000 0.500000 0.500000
O O12 0.074687 0.422624 0.659135
O O13 0.769927 0.883557 0.714639
O O14 0.784566 0.126345 0.181274
O O15 0.750000 0.000000 0.227605
O O16 0.250000 0.000000 0.385110
#
# Coordination Sequence:
#
# PCOD9413310 Si02
#       7
#     8   8   8   8   8   8   8
#     4  11  26  44  68 104 144 186 235 299 365 436
#     4  11  28  48  76 101 141 197 244 302 353 438
#     4  11  23  38  67 105 142 185 226 298 371 430
#     4  11  26  50  70 100 138 196 248 291 358 440
#     4  12  24  46  72 105 145 185 244 299 366 429
#     4  11  25  40  67 108 144 184 232 300 369 439
#     4  11  24  40  70 103 139 186 237 296 368 433
#
# _framework density 21.842583000000001
#
# number of rings (size 3 to 8) (size 9 to 14) (size 15 to 20)
#    0.000    0.857    5.714    0.000   10.000    0.000 
#    2.571    0.000    0.000    0.000    0.000    0.000 
#    0.000    0.000    0.000    0.000    0.000    0.000 
#
# Total GULP energy -312134.409845 kJ/mol
# GULP energy per Si atom -5573.828747 kJ/mol
# Density = 2.179287 g / cm^3
# Si number density = 21.842583 Si / 1000 Ang^3
#
#
#
# Elastic Constant Matrix: (Units=GPa)
#
#
# Indices 1 2 3 4 5 6 
#
# 1 117.9844 31.6278 19.1664 0.0000 0.0000 0.0000
# 2 31.6278 59.3832 15.6526 0.0000 0.0000 0.0000
# 3 19.1664 15.6526 75.6995 0.0000 0.0000 0.0000
# 4 0.0000 0.0000 0.0000 31.7311 0.0000 0.0000
# 5 0.0000 0.0000 0.0000 0.0000 18.4906 0.0000
# 6 0.0000 0.0000 0.0000 0.0000 0.0000 20.6694
#
#
#
# Elastic Compliance Matrix: (Units=1/GPa)
#
#
# Indices 1 2 3 4 5 6 
#
# 1 0.010050 -0.004952 -0.001521 0.000000 0.000000 0.000000
# 2 -0.004952 0.020250 -0.002933 0.000000 0.000000 0.000000
# 3 -0.001521 -0.002933 0.014202 0.000000 0.000000 0.000000
# 4 0.000000 0.000000 0.000000 0.031515 0.000000 0.000000
# 5 0.000000 0.000000 0.000000 0.000000 0.054081 0.000000
# 6 0.000000 0.000000 0.000000 0.000000 0.000000 0.048381
#
#
# Mechanical properties :
#
#
# Convention : Reuss Voigt Hill
#
# Bulk Modulus (GPa) = 38.92540 42.88450 40.90495
# Shear Modulus (GPa) = 24.28896 26.61958 25.45427
#
# Velocity S-wave (km/s) = 3.33828 3.49478 3.41743
# Velocity P-wave (km/s) = 5.72000 5.99672 5.86000
#
# Compressibility (1/GPa) = 0.02569017
#
# Stress axis : x y z
#
# Youngs Moduli (GPa) = 99.50062 49.38164 70.41411
#
# Poissons Ratio (x) = 0.24454 0.10708
# Poissons Ratio (y) = 0.49272 0.20656
# Poissons Ratio (z) = 0.15131 0.14486
#
# Static dielectric constant tensor:
#      x y z
#    x 1.889620 0.000000 0.000000 
#    y 0.000000 1.799390 0.000000 
#    z 0.000000 0.000000 1.812590 
# 
# From -- ./inp_files/18345.got.cif
#   From: 2010.05.17/outbox.cif.g08.bks.cpg/sg52_10_cif.got.tgz:18345.got - 2010.06.03 12:15:38.
