data_PCOD9413386
_publ_section_title
;
Structure prediction by ZEFSAII (Michael W. Deem and Ramdas Pophale) SiO2 
 PCOD9413386
Probable space group: P N N A
;
_chemical_formula_sum "Si O2"
_cell_formula_units_Z 32
_cell_length_a 9.704792
_cell_length_b 26.282427
_cell_length_c 6.745896
_cell_angle_alpha 90.000000
_cell_angle_beta 90.000000
_cell_angle_gamma 90.000000
_cell_volume 1720.645250
_symmetry_space_group_name_H-M "P N N A"
_symmetry_group_IT_number 52
_symmetry_cell_setting 'orthorhombic'
loop_
_space_group_symop_operation_xyz
x,y,z
1/2-x,-y,z
x,1/2-y,1/2-z
1/2-x,1/2+y,1/2-z
-x,-y,-z
1/2+x,y,-z
-x,1/2+y,1/2+z
1/2+x,1/2-y,1/2+z
loop_
_atom_site_type_symbol
_atom_site_label
_atom_site_fract_x
_atom_site_fract_y
_atom_site_fract_z
Si Si1 0.506618 0.391893 0.548046
Si Si2 0.324113 0.860692 0.436600
Si Si3 0.267938 0.559665 0.726158
Si Si4 0.453886 0.189972 0.281000
O O1 0.593346 0.378435 0.743128
O O2 0.364548 0.418073 0.611585
O O3 0.597912 0.427764 0.405993
O O4 0.476722 0.340800 0.423202
O O5 0.282839 0.909241 0.569681
O O6 0.188180 0.830452 0.373500
O O7 0.422896 0.826150 0.572393
O O8 0.250000 0.500000 0.759007
O O9 0.450340 0.250000 0.250000
#
# Coordination Sequence:
#
# PCOD9413386 Si02
#       4
#     8   8   8   8
#     4  11  23  44  63  97 130 162 221 265 313 392
#     4  11  24  45  64  96 134 162 218 270 308 392
#     4  11  24  42  69  95 129 174 212 266 327 378
#     4  11  26  42  67  94 126 173 212 265 325 376
#
# _framework density 18.597673
#
# number of rings (size 3 to 8) (size 9 to 14) (size 15 to 20)
#    0.000    1.000    5.000    0.750    3.500    2.000 
#    0.000    0.000    0.000    0.000    0.000    0.000 
#    0.000    0.000    0.000    0.000    0.000    0.000 
#
# Total GULP energy -178978.195051 kJ/mol
# GULP energy per Si atom -5593.068595 kJ/mol
# Density = 1.855534 g / cm^3
# Si number density = 18.597673 Si / 1000 Ang^3
#
#
#
# Elastic Constant Matrix: (Units=GPa)
#
#
# Indices 1 2 3 4 5 6 
#
# 1 104.8800 35.5972 42.0158 0.0000 0.0000 0.0000
# 2 35.5972 128.8489 56.0049 0.0000 0.0000 0.0000
# 3 42.0158 56.0049 104.6996 0.0000 0.0000 0.0000
# 4 0.0000 0.0000 0.0000 5.8151 0.0000 0.0000
# 5 0.0000 0.0000 0.0000 0.0000 42.5027 0.0000
# 6 0.0000 0.0000 0.0000 0.0000 0.0000 4.5502
#
#
#
# Elastic Compliance Matrix: (Units=1/GPa)
#
#
# Indices 1 2 3 4 5 6 
#
# 1 0.011590 -0.001538 -0.003829 0.000000 0.000000 0.000000
# 2 -0.001538 0.010316 -0.004901 0.000000 0.000000 0.000000
# 3 -0.003829 -0.004901 0.013709 0.000000 0.000000 0.000000
# 4 0.000000 0.000000 0.000000 0.171966 0.000000 0.000000
# 5 0.000000 0.000000 0.000000 0.000000 0.023528 0.000000
# 6 0.000000 0.000000 0.000000 0.000000 0.000000 0.219769
#
#
# Mechanical properties :
#
#
# Convention : Reuss Voigt Hill
#
# Bulk Modulus (GPa) = 66.31025 67.29603 66.80314
# Shear Modulus (GPa) = 10.49447 24.22764 17.36105
#
# Velocity S-wave (km/s) = 2.37805 3.61324 3.05865
# Velocity P-wave (km/s) = 6.57820 7.32606 6.96218
#
# Compressibility (1/GPa) = 0.01508062
#
# Stress axis : x y z
#
# Youngs Moduli (GPa) = 86.27788 96.93490 72.94399
#
# Poissons Ratio (x) = 0.14909 0.27927
# Poissons Ratio (y) = 0.13270 0.35750
# Poissons Ratio (z) = 0.33032 0.47508
#
# Static dielectric constant tensor:
#      x y z
#    x 1.629480 0.000000 0.000000 
#    y 0.000000 1.588430 0.000000 
#    z 0.000000 0.000000 1.624370 
# 
# From -- ./inp_files/387.got.cif
#   From: 2010.05.17/outbox.cif.g08.bks.cpg/sg52_1_cif.got.tgz:387.got - 2010.06.03 12:15:38.
