data_PCOD9413850
_publ_section_title
;
Structure prediction by ZEFSAII (Michael W. Deem and Ramdas Pophale) SiO2 
 PCOD9413850
Probable space group: P N N A
;
_chemical_formula_sum "Si O2"
_cell_formula_units_Z 16
_cell_length_a 7.591834
_cell_length_b 4.880710
_cell_length_c 18.111214
_cell_angle_alpha 90.000000
_cell_angle_beta 90.000000
_cell_angle_gamma 90.000000
_cell_volume 671.084595
_symmetry_space_group_name_H-M "P N N A"
_symmetry_group_IT_number 52
_symmetry_cell_setting 'orthorhombic'
loop_
_space_group_symop_operation_xyz
x,y,z
1/2-x,-y,z
x,1/2-y,1/2-z
1/2-x,1/2+y,1/2-z
-x,-y,-z
1/2+x,y,-z
-x,1/2+y,1/2+z
1/2+x,1/2-y,1/2+z
loop_
_atom_site_type_symbol
_atom_site_label
_atom_site_fract_x
_atom_site_fract_y
_atom_site_fract_z
Si Si1 0.954090 0.423255 0.415357
Si Si2 0.059732 0.892391 0.321069
O O1 0.750000 0.500000 0.405262
O O2 0.000000 0.500000 0.500000
O O3 0.076853 0.635364 0.373418
O O4 0.978698 0.130746 0.373670
O O5 0.964659 0.750000 0.250000
O O6 0.250000 0.000000 0.296127
#
# Coordination Sequence:
#
# PCOD9413850 Si02
#       2
#     8   8
#     4  12  26  46  73 105 143 187 240 297 355 424
#     4  12  25  46  72 103 143 189 236 291 359 428
#
# _framework density 23.841999000000001
#
# number of rings (size 3 to 8) (size 9 to 14) (size 15 to 20)
#    0.000    0.000    0.000   12.000    0.000    4.000 
#    0.000    2.500    0.000    0.000    0.000    0.000 
#    0.000    0.000    0.000    0.000    0.000    0.000 
#
# Total GULP energy -89168.251522 kJ/mol
# GULP energy per Si atom -5573.015720 kJ/mol
# Density = 2.378773 g / cm^3
# Si number density = 23.841999 Si / 1000 Ang^3
#
#
#
# Elastic Constant Matrix: (Units=GPa)
#
#
# Indices 1 2 3 4 5 6 
#
# 1 108.0939 59.3670 15.9250 0.0000 0.0000 0.0000
# 2 59.3670 204.4718 104.4995 0.0000 0.0000 0.0000
# 3 15.9250 104.4995 230.5578 0.0000 0.0000 0.0000
# 4 0.0000 0.0000 0.0000 -7.0781 0.0000 0.0000
# 5 0.0000 0.0000 0.0000 0.0000 -18.4500 0.0000
# 6 0.0000 0.0000 0.0000 0.0000 0.0000 42.3257
#
#
#
# Elastic Compliance Matrix: (Units=1/GPa)
#
#
# Indices 1 2 3 4 5 6 
#
# 1 0.011150 -0.003701 0.000907 0.000000 0.000000 0.000000
# 2 -0.003701 0.007594 -0.003186 0.000000 0.000000 0.000000
# 3 0.000907 -0.003186 0.005719 0.000000 0.000000 0.000000
# 4 0.000000 0.000000 0.000000 -0.141280 0.000000 0.000000
# 5 0.000000 0.000000 0.000000 0.000000 -0.054201 0.000000
# 6 0.000000 0.000000 0.000000 0.000000 0.000000 0.023626
#
#
# Mechanical properties :
#
#
# Convention : Reuss Voigt Hill
#
# Bulk Modulus (GPa) = 79.98215 100.30071 90.14143
# Shear Modulus (GPa) = -38.09108 27.58165 -5.25471
#
# Velocity S-wave (km/s) = -4.00139 3.40494 -1.48619
# Velocity P-wave (km/s) = 3.50305 7.59068 5.91142
#
# Compressibility (1/GPa) = 0.01250279
#
# Stress axis : x y z
#
# Youngs Moduli (GPa) = 89.68405 131.69024 174.86394
#
# Poissons Ratio (x) = 0.48740 -0.15866
# Poissons Ratio (y) = 0.33193 0.55714
# Poissons Ratio (z) = -0.08138 0.41958
#
# Static dielectric constant tensor:
#      x y z
#    x 1.958210 0.000000 0.000000 
#    y 0.000000 2.016440 0.000000 
#    z 0.000000 0.000000 2.277670 
# 
# From -- ./inp_files/23793.got.cif
#   From: 2010.05.17/outbox.cif.g08.bks.cpg/sg52_12_cif.got.tgz:23793.got - 2010.06.03 12:15:38.
