data_PCOD9413729
_publ_section_title
;
Structure prediction by ZEFSAII (Michael W. Deem and Ramdas Pophale) SiO2 
 PCOD9413729
Probable space group: P N N A
;
_chemical_formula_sum "Si O2"
_cell_formula_units_Z 36
_cell_length_a 9.861285
_cell_length_b 23.377774
_cell_length_c 6.958130
_cell_angle_alpha 90.000000
_cell_angle_beta 90.000000
_cell_angle_gamma 90.000000
_cell_volume 1604.091749
_symmetry_space_group_name_H-M "P N N A"
_symmetry_group_IT_number 52
_symmetry_cell_setting 'orthorhombic'
loop_
_space_group_symop_operation_xyz
x,y,z
1/2-x,-y,z
x,1/2-y,1/2-z
1/2-x,1/2+y,1/2-z
-x,-y,-z
1/2+x,y,-z
-x,1/2+y,1/2+z
1/2+x,1/2-y,1/2+z
loop_
_atom_site_type_symbol
_atom_site_label
_atom_site_fract_x
_atom_site_fract_y
_atom_site_fract_z
Si Si1 0.348771 0.615217 0.122792
Si Si2 0.897059 0.816506 0.228673
Si Si3 0.566444 0.542240 0.349275
Si Si4 0.250000 0.500000 0.962409
Si Si5 0.327709 0.144816 0.041471
O O1 0.473343 0.589186 0.243243
O O2 0.258386 0.652931 0.264835
O O3 0.389596 0.648854 0.929904
O O4 0.260085 0.558874 0.074491
O O5 0.929697 0.750000 0.250000
O O6 0.017279 0.842192 0.096544
O O7 0.751085 0.821159 0.123956
O O8 0.500000 0.500000 0.500000
O O9 0.622901 0.503609 0.178701
O O10 0.677705 0.579398 0.463884
#
# Coordination Sequence:
#
# PCOD9413729 Si02
#       5
#     8   8   8   4   8
#     4  12  25  46  73 110 151 196 253 304 386 454
#     4  12  30  49  79 107 146 204 257 322 382 447
#     4  12  23  43  73 110 154 197 243 305 379 457
#     4  12  22  40  70 106 148 198 236 298 374 450
#     4  12  26  52  71 111 151 190 256 316 373 456
#
# _framework density 22.442608
#
# number of rings (size 3 to 8) (size 9 to 14) (size 15 to 20)
#    0.000    0.000    4.444    6.000    3.111    0.000 
#    0.000    0.000    0.000    0.000    0.000    0.000 
#    0.000    0.000    0.000    0.000    0.000    0.000 
#
# Total GULP energy -201355.941787 kJ/mol
# GULP energy per Si atom -5593.220605 kJ/mol
# Density = 2.239153 g / cm^3
# Si number density = 22.442608 Si / 1000 Ang^3
#
#
#
# Elastic Constant Matrix: (Units=GPa)
#
#
# Indices 1 2 3 4 5 6 
#
# 1 46.6483 -9.3929 34.5977 0.0000 0.0000 0.0000
# 2 -9.3929 77.7889 37.4703 0.0000 0.0000 0.0000
# 3 34.5977 37.4703 141.0635 0.0000 0.0000 0.0000
# 4 0.0000 0.0000 0.0000 11.5172 0.0000 0.0000
# 5 0.0000 0.0000 0.0000 0.0000 26.0109 0.0000
# 6 0.0000 0.0000 0.0000 0.0000 0.0000 27.3456
#
#
#
# Elastic Compliance Matrix: (Units=1/GPa)
#
#
# Indices 1 2 3 4 5 6 
#
# 1 0.030237 0.008283 -0.009616 0.000000 0.000000 0.000000
# 2 0.008283 0.017011 -0.006550 0.000000 0.000000 0.000000
# 3 -0.009616 -0.006550 0.011187 0.000000 0.000000 0.000000
# 4 0.000000 0.000000 0.000000 0.086827 0.000000 0.000000
# 5 0.000000 0.000000 0.000000 0.000000 0.038445 0.000000
# 6 0.000000 0.000000 0.000000 0.000000 0.000000 0.036569
#
#
# Mechanical properties :
#
#
# Convention : Reuss Voigt Hill
#
# Bulk Modulus (GPa) = 23.43638 43.42786 33.43212
# Shear Modulus (GPa) = 19.97883 26.49647 23.23765
#
# Velocity S-wave (km/s) = 2.98689 3.43976 3.22129
# Velocity P-wave (km/s) = 4.72872 5.93031 5.36327
#
# Compressibility (1/GPa) = 0.04266870
#
# Stress axis : x y z
#
# Youngs Moduli (GPa) = 33.07211 58.78697 89.38651
#
# Poissons Ratio (x) = -0.48694 0.85956
# Poissons Ratio (y) = -0.27394 0.58548
# Poissons Ratio (z) = 0.31803 0.38506
#
# Static dielectric constant tensor:
#      x y z
#    x 1.931570 0.000000 0.000000 
#    y 0.000000 1.842480 0.000000 
#    z 0.000000 0.000000 1.876490 
# 
# From -- ./inp_files/1216.got.cif
#   From: 2010.05.17/outbox.cif.g08.bks.cpg/sg52_1_cif.got.tgz:1216.got - 2010.06.03 12:15:38.
