data_PCOD9413197
_publ_section_title
;
Structure prediction by ZEFSAII (Michael W. Deem and Ramdas Pophale) SiO2 
 PCOD9413197
Probable space group: P N N A
;
_chemical_formula_sum "Si O2"
_cell_formula_units_Z 40
_cell_length_a 7.780670
_cell_length_b 15.406921
_cell_length_c 14.033346
_cell_angle_alpha 90.000000
_cell_angle_beta 90.000000
_cell_angle_gamma 90.000000
_cell_volume 1682.263743
_symmetry_space_group_name_H-M "P N N A"
_symmetry_group_IT_number 52
_symmetry_cell_setting 'orthorhombic'
loop_
_space_group_symop_operation_xyz
x,y,z
1/2-x,-y,z
x,1/2-y,1/2-z
1/2-x,1/2+y,1/2-z
-x,-y,-z
1/2+x,y,-z
-x,1/2+y,1/2+z
1/2+x,1/2-y,1/2+z
loop_
_atom_site_type_symbol
_atom_site_label
_atom_site_fract_x
_atom_site_fract_y
_atom_site_fract_z
Si Si1 0.628015 0.250000 0.250000
Si Si2 0.320010 0.593752 0.426729
Si Si3 0.791006 0.405941 0.359430
Si Si4 0.649622 0.725496 0.900247
Si Si5 0.971977 0.624555 0.933595
Si Si6 0.250000 0.000000 0.573933
O O1 0.737703 0.324609 0.297665
O O2 0.503014 0.292193 0.171896
O O3 0.250000 0.500000 0.396912
O O4 0.511257 0.602088 0.388456
O O5 0.318096 0.595858 0.541880
O O6 0.201091 0.673999 0.396930
O O7 0.750000 0.500000 0.315969
O O8 0.578883 0.694432 0.003449
O O9 0.823003 0.672737 0.876362
O O10 0.865043 0.562912 0.006385
O O11 0.109018 0.563795 0.879743
#
# Coordination Sequence:
#
# PCOD9413197 Si02
#       6
#     4   8   8   8   8   4
#     4  12  26  42  62  98 146 182 216 274 360 422
#     4  11  22  43  77 105 126 170 240 301 337 393
#     4  11  23  43  71 103 136 178 230 292 347 411
#     4  11  22  38  65  99 132 172 219 279 339 407
#     4   9  18  36  64  93 122 166 229 269 311 382
#     4   8  16  34  64  90 116 158 220 276 300 356
#
# _framework density 23.777484000000001
#
# number of rings (size 3 to 8) (size 9 to 14) (size 15 to 20)
#    0.000    1.600    0.000    7.200    0.000    2.400 
#    1.800    0.000   52.800    0.000    0.000    0.000 
#    0.000    0.000    0.000    0.000    0.000    0.000 
#
# Total GULP energy -224037.024891 kJ/mol
# GULP energy per Si atom -5600.925622 kJ/mol
# Density = 2.372336 g / cm^3
# Si number density = 23.777484 Si / 1000 Ang^3
#
#
#
# Elastic Constant Matrix: (Units=GPa)
#
#
# Indices 1 2 3 4 5 6 
#
# 1 203.2858 109.6935 57.1142 0.0000 0.0000 0.0000
# 2 109.6935 145.7999 41.7393 0.0000 0.0000 0.0000
# 3 57.1142 41.7393 55.5660 0.0000 0.0000 0.0000
# 4 0.0000 0.0000 0.0000 31.4898 0.0000 0.0000
# 5 0.0000 0.0000 0.0000 0.0000 3.0955 0.0000
# 6 0.0000 0.0000 0.0000 0.0000 0.0000 53.6282
#
#
#
# Elastic Compliance Matrix: (Units=1/GPa)
#
#
# Indices 1 2 3 4 5 6 
#
# 1 0.009470 -0.005526 -0.005582 0.000000 0.000000 0.000000
# 2 -0.005526 0.011963 -0.003306 0.000000 0.000000 0.000000
# 3 -0.005582 -0.003306 0.026217 0.000000 0.000000 0.000000
# 4 0.000000 0.000000 0.000000 0.031756 0.000000 0.000000
# 5 0.000000 0.000000 0.000000 0.000000 0.323053 0.000000
# 6 0.000000 0.000000 0.000000 0.000000 0.000000 0.018647
#
#
# Mechanical properties :
#
#
# Convention : Reuss Voigt Hill
#
# Bulk Modulus (GPa) = 53.13126 91.30509 72.21817
# Shear Modulus (GPa) = 10.95989 30.71634 20.83811
#
# Velocity S-wave (km/s) = 2.14927 3.59810 2.96358
# Velocity P-wave (km/s) = 5.34349 7.46625 6.49222
#
# Compressibility (1/GPa) = 0.01882131
#
# Stress axis : x y z
#
# Youngs Moduli (GPa) = 105.60078 83.59134 38.14258
#
# Poissons Ratio (x) = 0.46197 0.21292
# Poissons Ratio (y) = 0.58360 0.12609
# Poissons Ratio (z) = 0.58948 0.27633
#
# Static dielectric constant tensor:
#      x y z
#    x 2.155930 0.000000 0.000000 
#    y 0.000000 1.837320 0.000000 
#    z 0.000000 0.000000 1.937960 
# 
# From -- ./inp_files/24492.got.cif
#   From: 2010.05.17/outbox.cif.g08.bks.cpg/sg52_13_cif.got.tgz:24492.got - 2010.06.03 12:15:38.
