data_PCOD9413582
_publ_section_title
;
Structure prediction by ZEFSAII (Michael W. Deem and Ramdas Pophale) SiO2 
 PCOD9413582
Probable space group: P N N A
;
_chemical_formula_sum "Si O2"
_cell_formula_units_Z 44
_cell_length_a 8.256012
_cell_length_b 32.017681
_cell_length_c 7.792171
_cell_angle_alpha 90.000000
_cell_angle_beta 90.000000
_cell_angle_gamma 90.000000
_cell_volume 2059.769692
_symmetry_space_group_name_H-M "P N N A"
_symmetry_group_IT_number 52
_symmetry_cell_setting 'orthorhombic'
loop_
_space_group_symop_operation_xyz
x,y,z
1/2-x,-y,z
x,1/2-y,1/2-z
1/2-x,1/2+y,1/2-z
-x,-y,-z
1/2+x,y,-z
-x,1/2+y,1/2+z
1/2+x,1/2-y,1/2+z
loop_
_atom_site_type_symbol
_atom_site_label
_atom_site_fract_x
_atom_site_fract_y
_atom_site_fract_z
Si Si1 0.250000 0.000000 0.093624
Si Si2 0.092226 0.355965 0.526946
Si Si3 0.987710 0.702211 0.794432
Si Si4 0.379116 0.703755 0.816300
Si Si5 0.067338 0.517929 0.824080
Si Si6 0.358982 0.416435 0.598124
O O1 0.080988 0.006199 0.196125
O O2 0.283735 0.042582 0.989508
O O3 0.082172 0.329102 0.351713
O O4 0.034512 0.327770 0.684201
O O5 0.266658 0.372709 0.585212
O O6 0.012995 0.401402 0.507189
O O7 0.939937 0.750000 0.750000
O O8 0.183874 0.700927 0.797312
O O9 0.926069 0.694612 0.987819
O O10 0.425226 0.750000 0.750000
O O11 0.250000 0.500000 0.810363
O O12 0.093167 0.567383 0.787464
O O13 0.000000 0.500000 0.000000
#
# Coordination Sequence:
#
# PCOD9413582 Si02
#       6
#     4   8   8   8   8   8
#     4  12  24  50  78 100 144 200 250 308 384 470
#     4  12  25  47  71 111 150 189 253 317 368 451
#     4  11  25  45  72 106 143 200 250 299 382 448
#     4  11  25  45  72 105 149 197 248 308 376 452
#     4  12  25  47  74 108 144 193 249 307 384 458
#     4  12  25  48  74 102 144 192 248 307 385 442
#
# _framework density 21.361611
#
# number of rings (size 3 to 8) (size 9 to 14) (size 15 to 20)
#    0.000    0.364    7.273    1.636    2.545    0.727 
#    9.818    0.000    0.000    0.000    0.000    0.000 
#    0.000    0.000    0.000    0.000    0.000    0.000 
#
# Total GULP energy -244992.460379 kJ/mol
# GULP energy per Si atom -5568.010463 kJ/mol
# Density = 2.131299 g / cm^3
# Si number density = 21.361611 Si / 1000 Ang^3
#
#
#
# Elastic Constant Matrix: (Units=GPa)
#
#
# Indices 1 2 3 4 5 6 
#
# 1 76.4441 44.3615 30.6823 0.0000 0.0000 0.0000
# 2 44.3615 141.3783 94.2621 0.0000 0.0000 0.0000
# 3 30.6823 94.2621 181.4578 0.0000 0.0000 0.0000
# 4 0.0000 0.0000 0.0000 39.5318 0.0000 0.0000
# 5 0.0000 0.0000 0.0000 0.0000 23.0582 0.0000
# 6 0.0000 0.0000 0.0000 0.0000 0.0000 27.2781
#
#
#
# Elastic Compliance Matrix: (Units=1/GPa)
#
#
# Indices 1 2 3 4 5 6 
#
# 1 0.015996 -0.004920 -0.000149 0.000000 0.000000 0.000000
# 2 -0.004920 0.012334 -0.005575 0.000000 0.000000 0.000000
# 3 -0.000149 -0.005575 0.008432 0.000000 0.000000 0.000000
# 4 0.000000 0.000000 0.000000 0.025296 0.000000 0.000000
# 5 0.000000 0.000000 0.000000 0.000000 0.043369 0.000000
# 6 0.000000 0.000000 0.000000 0.000000 0.000000 0.036660
#
#
# Mechanical properties :
#
#
# Convention : Reuss Voigt Hill
#
# Bulk Modulus (GPa) = 64.62326 81.98799 73.30563
# Shear Modulus (GPa) = 29.66756 33.30522 31.48639
#
# Velocity S-wave (km/s) = 3.73074 3.95285 3.84340
# Velocity P-wave (km/s) = 6.99111 7.70050 7.35436
#
# Compressibility (1/GPa) = 0.01547430
#
# Stress axis : x y z
#
# Youngs Moduli (GPa) = 62.51412 81.07442 118.59034
#
# Poissons Ratio (x) = 0.39888 0.01767
# Poissons Ratio (y) = 0.30757 0.66119
# Poissons Ratio (z) = 0.00932 0.45202
#
# Static dielectric constant tensor:
#      x y z
#    x 2.355500 0.000000 0.000000 
#    y 0.000000 1.786140 0.000000 
#    z 0.000000 0.000000 1.835860 
# 
# From -- ./inp_files/7639.got.cif
#   From: 2010.05.17/outbox.cif.g08.bks.cpg/sg52_4_cif.got.tgz:7639.got - 2010.06.03 12:15:38.
