data_PCOD9413037
_publ_section_title
;
Structure prediction by ZEFSAII (Michael W. Deem and Ramdas Pophale) SiO2 
 PCOD9413037
Probable space group: P N N A
;
_chemical_formula_sum "Si O2"
_cell_formula_units_Z 48
_cell_length_a 21.512300
_cell_length_b 11.147620
_cell_length_c 10.252980
_cell_angle_alpha 90.000000
_cell_angle_beta 90.000000
_cell_angle_gamma 90.000000
_cell_volume 2458.776830
_symmetry_space_group_name_H-M "P N N A"
_symmetry_group_IT_number 52
_symmetry_cell_setting 'orthorhombic'
loop_
_space_group_symop_operation_xyz
x,y,z
1/2-x,-y,z
x,1/2-y,1/2-z
1/2-x,1/2+y,1/2-z
-x,-y,-z
1/2+x,y,-z
-x,1/2+y,1/2+z
1/2+x,1/2-y,1/2+z
loop_
_atom_site_type_symbol
_atom_site_label
_atom_site_fract_x
_atom_site_fract_y
_atom_site_fract_z
Si Si1 0.912414 0.609209 0.250680
Si Si2 0.997964 0.075345 0.369227
Si Si3 0.882195 0.257642 0.102037
Si Si4 0.422879 0.496076 0.488164
Si Si5 0.129725 0.117501 0.275074
Si Si6 0.178633 0.995255 0.529392
O O1 0.925226 0.750000 0.250000
O O2 0.972944 0.525223 0.229780
O O3 0.893812 0.578614 0.397665
O O4 0.864512 0.564091 0.137923
O O5 0.948253 0.179041 0.377282
O O6 0.063284 0.134521 0.344422
O O7 0.000000 0.000000 0.500000
O O8 0.855565 0.250000 0.250000
O O9 0.897054 0.135608 0.026899
O O10 0.842659 0.356780 0.026528
O O11 0.500000 0.500000 0.500000
O O12 0.392038 0.543237 0.353358
O O13 0.156269 0.250000 0.250000
O O14 0.169249 0.048921 0.384826
O O15 0.250000 0.000000 0.569803
#
# Coordination Sequence:
#
# PCOD9413037 Si02
#       6
#     8   8   8   8   8   8
#     4  11  23  40  64  99 130 166 223 267 327 399
#     4  11  20  36  65  95 135 176 201 265 342 410
#     4  11  21  42  66  97 135 166 220 274 332 396
#     4  12  23  36  67 107 133 166 204 268 350 413
#     4  12  24  42  64  97 138 168 211 272 341 395
#     4  11  26  49  68  86 128 185 232 276 322 374
#
# _framework density 19.521899999999999
#
# number of rings (size 3 to 8) (size 9 to 14) (size 15 to 20)
#    0.000    0.667    8.333    2.500    2.333    1.333 
#    3.000    0.833    0.000    0.000    0.000    0.000 
#    0.000    0.000    0.000    0.000    0.000    0.000 
#
# Total GULP energy -267507.284840 kJ/mol
# GULP energy per Si atom -5573.068434 kJ/mol
# Density = 1.947747 g / cm^3
# Si number density = 19.521900 Si / 1000 Ang^3
#
#
#
# Elastic Constant Matrix: (Units=GPa)
#
#
# Indices 1 2 3 4 5 6 
#
# 1 43.3005 0.7482 -0.6576 0.0000 0.0000 0.0000
# 2 0.7482 112.1931 22.8108 0.0000 0.0000 0.0000
# 3 -0.6576 22.8108 126.4322 0.0000 0.0000 0.0000
# 4 0.0000 0.0000 0.0000 37.2554 0.0000 0.0000
# 5 0.0000 0.0000 0.0000 0.0000 38.9308 0.0000
# 6 0.0000 0.0000 0.0000 0.0000 0.0000 -4.4967
#
#
#
# Elastic Compliance Matrix: (Units=1/GPa)
#
#
# Indices 1 2 3 4 5 6 
#
# 1 0.023100 -0.000185 0.000154 0.000000 0.000000 0.000000
# 2 -0.000185 0.009254 -0.001671 0.000000 0.000000 0.000000
# 3 0.000154 -0.001671 0.008212 0.000000 0.000000 0.000000
# 4 0.000000 0.000000 0.000000 0.026842 0.000000 0.000000
# 5 0.000000 0.000000 0.000000 0.000000 0.025687 0.000000
# 6 0.000000 0.000000 0.000000 0.000000 0.000000 -0.222385
#
#
# Mechanical properties :
#
#
# Convention : Reuss Voigt Hill
#
# Bulk Modulus (GPa) = 26.90987 36.41429 31.66208
# Shear Modulus (GPa) = -44.05296 31.60618 -6.22339
#
# Velocity S-wave (km/s) = -4.75551 4.02806 -1.78741
# Velocity P-wave (km/s) = 4.04213 6.35037 3.46326
#
# Compressibility (1/GPa) = 0.03716109
#
# Stress axis : x y z
#
# Youngs Moduli (GPa) = 43.29009 108.06024 121.77922
#
# Poissons Ratio (x) = 0.02002 -0.01870
# Poissons Ratio (y) = 0.00802 0.20344
# Poissons Ratio (z) = -0.00665 0.18052
#
# Static dielectric constant tensor:
#      x y z
#    x 1.675260 0.000000 0.000000 
#    y 0.000000 0.842080 0.000000 
#    z 0.000000 0.000000 2.028780 
# 
# From -- ./inp_files/14230.got.cif
#   From: 2010.05.17/outbox.cif.g08.bks.cpg/sg52_8_cif.got.tgz:14230.got - 2010.06.03 12:15:38.
