data_PCOD9413439
_publ_section_title
;
Structure prediction by ZEFSAII (Michael W. Deem and Ramdas Pophale) SiO2 
 PCOD9413439
Probable space group: P N N A
;
_chemical_formula_sum "Si O2"
_cell_formula_units_Z 32
_cell_length_a 6.148786
_cell_length_b 7.261181
_cell_length_c 29.526372
_cell_angle_alpha 90.000000
_cell_angle_beta 90.000000
_cell_angle_gamma 90.000000
_cell_volume 1318.277161
_symmetry_space_group_name_H-M "P N N A"
_symmetry_group_IT_number 52
_symmetry_cell_setting 'orthorhombic'
loop_
_space_group_symop_operation_xyz
x,y,z
1/2-x,-y,z
x,1/2-y,1/2-z
1/2-x,1/2+y,1/2-z
-x,-y,-z
1/2+x,y,-z
-x,1/2+y,1/2+z
1/2+x,1/2-y,1/2+z
loop_
_atom_site_type_symbol
_atom_site_label
_atom_site_fract_x
_atom_site_fract_y
_atom_site_fract_z
Si Si1 0.750000 0.500000 0.186725
Si Si2 0.345522 0.687686 0.203678
Si Si3 0.850473 0.693418 0.385545
Si Si4 0.750000 0.500000 0.633357
Si Si5 0.231738 0.720976 0.515510
O O1 0.580098 0.609464 0.216440
O O2 0.846258 0.655334 0.153133
O O3 0.250000 0.500000 0.183250
O O4 0.230215 0.750000 0.250000
O O5 0.351962 0.849976 0.167717
O O6 0.750000 0.500000 0.369287
O O7 0.730227 0.756899 0.430444
O O8 0.092992 0.624289 0.396808
O O9 0.250000 0.500000 0.508642
O O10 0.483582 0.782550 0.500467
#
# Coordination Sequence:
#
# PCOD9413439 Si02
#       5
#     4   8   8   4   8
#     4  12  26  44  66 108 130 174 230 286 334 424
#     4  12  26  44  69  98 136 173 227 281 346 412
#     4  11  24  40  69  97 137 179 226 285 345 403
#     4  12  24  42  68  98 130 182 226 282 342 418
#     4   9  20  37  62  99 138 185 235 284 347 421
#
# _framework density 24.274104999999999
#
# number of rings (size 3 to 8) (size 9 to 14) (size 15 to 20)
#    0.000    1.000    6.250    0.000    8.750    3.000 
#    0.000    1.250    0.000    0.000    0.000    0.000 
#    0.000    0.000    0.000    0.000    0.000    0.000 
#
# Total GULP energy -178145.729351 kJ/mol
# GULP energy per Si atom -5567.054042 kJ/mol
# Density = 2.421886 g / cm^3
# Si number density = 24.274105 Si / 1000 Ang^3
#
#
#
# Elastic Constant Matrix: (Units=GPa)
#
#
# Indices 1 2 3 4 5 6 
#
# 1 97.8575 21.9735 -0.9939 0.0000 0.0000 0.0000
# 2 21.9735 107.7566 19.9438 0.0000 0.0000 0.0000
# 3 -0.9939 19.9438 35.4654 0.0000 0.0000 0.0000
# 4 0.0000 0.0000 0.0000 85.0592 0.0000 0.0000
# 5 0.0000 0.0000 0.0000 0.0000 25.6183 0.0000
# 6 0.0000 0.0000 0.0000 0.0000 0.0000 22.1170
#
#
#
# Elastic Compliance Matrix: (Units=1/GPa)
#
#
# Indices 1 2 3 4 5 6 
#
# 1 0.010803 -0.002521 0.001721 0.000000 0.000000 0.000000
# 2 -0.002521 0.010947 -0.006226 0.000000 0.000000 0.000000
# 3 0.001721 -0.006226 0.031746 0.000000 0.000000 0.000000
# 4 0.000000 0.000000 0.000000 0.011757 0.000000 0.000000
# 5 0.000000 0.000000 0.000000 0.000000 0.039035 0.000000
# 6 0.000000 0.000000 0.000000 0.000000 0.000000 0.045214
#
#
# Mechanical properties :
#
#
# Convention : Reuss Voigt Hill
#
# Bulk Modulus (GPa) = 25.35432 35.88070 30.61751
# Shear Modulus (GPa) = 28.29623 39.90264 34.09943
#
# Velocity S-wave (km/s) = 3.41793 4.05882 3.75209
# Velocity P-wave (km/s) = 5.10334 6.06457 5.60460
#
# Compressibility (1/GPa) = 0.03944100
#
# Stress axis : x y z
#
# Youngs Moduli (GPa) = 92.57070 91.35163 31.49990
#
# Poissons Ratio (x) = 0.23032 -0.05420
# Poissons Ratio (y) = 0.23340 0.19613
# Poissons Ratio (z) = -0.15927 0.56880
#
# Static dielectric constant tensor:
#      x y z
#    x 2.285210 0.000000 0.000000 
#    y 0.000000 1.830960 0.000000 
#    z 0.000000 0.000000 1.888580 
# 
# From -- ./inp_files/43486.got.cif
#   From: 2010.05.17/outbox.cif.g08.bks.cpg/sg52_22_cif.got.tgz:43486.got - 2010.06.03 12:15:38.
