data_PCOD9413818
_publ_section_title
;
Structure prediction by ZEFSAII (Michael W. Deem and Ramdas Pophale) SiO2 
 PCOD9413818
Probable space group: P N N A
;
_chemical_formula_sum "Si O2"
_cell_formula_units_Z 32
_cell_length_a 14.424348
_cell_length_b 14.513976
_cell_length_c 5.282622
_cell_angle_alpha 90.000000
_cell_angle_beta 90.000000
_cell_angle_gamma 90.000000
_cell_volume 1105.941431
_symmetry_space_group_name_H-M "P N N A"
_symmetry_group_IT_number 52
_symmetry_cell_setting 'orthorhombic'
loop_
_space_group_symop_operation_xyz
x,y,z
1/2-x,-y,z
x,1/2-y,1/2-z
1/2-x,1/2+y,1/2-z
-x,-y,-z
1/2+x,y,-z
-x,1/2+y,1/2+z
1/2+x,1/2-y,1/2+z
loop_
_atom_site_type_symbol
_atom_site_label
_atom_site_fract_x
_atom_site_fract_y
_atom_site_fract_z
Si Si1 0.570223 0.589361 0.091355
Si Si2 0.787584 0.750000 0.750000
Si Si3 0.102764 0.096981 0.105713
Si Si4 0.333759 0.250000 0.750000
Si Si5 0.012089 0.250000 0.750000
Si Si6 0.250000 0.500000 0.774703
O O1 0.479727 0.543730 0.233718
O O2 0.603334 0.661666 0.304269
O O3 0.669918 0.542992 0.043027
O O4 0.541649 0.666336 0.888186
O O5 0.841183 0.845123 0.690475
O O6 0.728119 0.745155 0.497207
O O7 0.174681 0.045090 0.923044
O O8 0.069869 0.186520 0.943343
#
# Coordination Sequence:
#
# PCOD9413818 Si02
#       6
#     8   4   8   4   4   4
#     4  12  26  49  82 120 168 228 287 362 431 530
#     4  12  24  46  86 122 166 224 302 340 418 534
#     4  12  26  50  82 120 167 227 287 360 433 531
#     4  12  24  46  85 123 160 228 292 348 417 529
#     4  12  24  50  85 117 162 240 304 336 429 539
#     4  12  30  50  78 132 182 210 286 374 472 490
#
# _framework density 28.934626000000002
#
# number of rings (size 3 to 8) (size 9 to 14) (size 15 to 20)
#    0.000    0.000    7.500    2.250    0.000    1.000 
#    0.000    8.750    0.000    0.000    0.000    0.000 
#    0.000    0.000    0.000    0.000    0.000    0.000 
#
# Total GULP energy -178420.770718 kJ/mol
# GULP energy per Si atom -5575.649085 kJ/mol
# Density = 2.886877 g / cm^3
# Si number density = 28.934626 Si / 1000 Ang^3
#
#
#
# Elastic Constant Matrix: (Units=GPa)
#
#
# Indices 1 2 3 4 5 6 
#
# 1 183.4972 35.6972 24.2713 0.0000 0.0000 0.0000
# 2 35.6972 56.0075 -16.4882 0.0000 0.0000 0.0000
# 3 24.2713 -16.4882 95.2615 0.0000 0.0000 0.0000
# 4 0.0000 0.0000 0.0000 31.7189 0.0000 0.0000
# 5 0.0000 0.0000 0.0000 0.0000 56.0918 0.0000
# 6 0.0000 0.0000 0.0000 0.0000 0.0000 28.5475
#
#
#
# Elastic Compliance Matrix: (Units=1/GPa)
#
#
# Indices 1 2 3 4 5 6 
#
# 1 0.006786 -0.005094 -0.002611 0.000000 0.000000 0.000000
# 2 -0.005094 0.022637 0.005216 0.000000 0.000000 0.000000
# 3 -0.002611 0.005216 0.012065 0.000000 0.000000 0.000000
# 4 0.000000 0.000000 0.000000 0.031527 0.000000 0.000000
# 5 0.000000 0.000000 0.000000 0.000000 0.017828 0.000000
# 6 0.000000 0.000000 0.000000 0.000000 0.000000 0.035029
#
#
# Mechanical properties :
#
#
# Convention : Reuss Voigt Hill
#
# Bulk Modulus (GPa) = 27.38882 46.85853 37.12367
# Shear Modulus (GPa) = 34.96031 42.69068 38.82550
#
# Velocity S-wave (km/s) = 3.47976 3.84528 3.66708
# Velocity P-wave (km/s) = 5.06274 5.99539 5.54870
#
# Compressibility (1/GPa) = 0.03651124
#
# Stress axis : x y z
#
# Youngs Moduli (GPa) = 147.36499 44.17597 82.88214
#
# Poissons Ratio (x) = 0.22501 0.21637
# Poissons Ratio (y) = 0.75062 -0.43230
# Poissons Ratio (z) = 0.38471 -0.23041
#
# Static dielectric constant tensor:
#      x y z
#    x 2.614370 0.000000 0.000000 
#    y 0.000000 2.101290 0.000000 
#    z 0.000000 0.000000 2.283770 
# 
# From -- ./inp_files/1989.got.cif
#   From: 2010.05.17/outbox.cif.g08.bks.cpg/sg52_1_cif.got.tgz:1989.got - 2010.06.03 12:15:38.
