data_PCOD9413834
_publ_section_title
;
Structure prediction by ZEFSAII (Michael W. Deem and Ramdas Pophale) SiO2 
 PCOD9413834
Probable space group: P N N A
;
_chemical_formula_sum "Si O2"
_cell_formula_units_Z 28
_cell_length_a 14.214339
_cell_length_b 11.289633
_cell_length_c 7.303550
_cell_angle_alpha 90.000000
_cell_angle_beta 90.000000
_cell_angle_gamma 90.000000
_cell_volume 1172.034781
_symmetry_space_group_name_H-M "P N N A"
_symmetry_group_IT_number 52
_symmetry_cell_setting 'orthorhombic'
loop_
_space_group_symop_operation_xyz
x,y,z
1/2-x,-y,z
x,1/2-y,1/2-z
1/2-x,1/2+y,1/2-z
-x,-y,-z
1/2+x,y,-z
-x,1/2+y,1/2+z
1/2+x,1/2-y,1/2+z
loop_
_atom_site_type_symbol
_atom_site_label
_atom_site_fract_x
_atom_site_fract_y
_atom_site_fract_z
Si Si1 0.190737 0.891779 0.797104
Si Si2 0.042897 0.250000 0.750000
Si Si3 0.011804 0.004794 0.280506
Si Si4 0.334848 0.830364 0.089074
O O1 0.187021 0.750000 0.750000
O O2 0.085532 0.940800 0.795888
O O3 0.250000 0.000000 0.693261
O O4 0.247906 0.884265 0.984037
O O5 0.108288 0.256157 0.568069
O O6 0.982277 0.367202 0.732580
O O7 0.094415 0.079832 0.190230
O O8 0.000000 0.000000 0.500000
O O9 0.297641 0.750000 0.250000
#
# Coordination Sequence:
#
# PCOD9413834 Si02
#       4
#     8   4   8   8
#     4  12  27  50  76 117 165 205 270 339 403 487
#     4  12  24  50  78 116 164 196 282 338 392 496
#     4  12  27  49  85 116 161 221 271 330 415 486
#     4  12  25  51  79 117 161 213 269 345 406 482
#
# _framework density 23.890076000000001
#
# number of rings (size 3 to 8) (size 9 to 14) (size 15 to 20)
#    0.000    0.000    7.143    1.714    0.000    0.000 
#    7.714    0.000    0.000    0.000    0.000    0.000 
#    0.000    0.000    0.000    0.000    0.000    0.000 
#
# Total GULP energy -156397.168057 kJ/mol
# GULP energy per Si atom -5585.613145 kJ/mol
# Density = 2.383570 g / cm^3
# Si number density = 23.890076 Si / 1000 Ang^3
#
#
#
# Elastic Constant Matrix: (Units=GPa)
#
#
# Indices 1 2 3 4 5 6 
#
# 1 145.2431 67.3352 50.3324 0.0000 0.0000 0.0000
# 2 67.3352 206.7548 25.7084 0.0000 0.0000 0.0000
# 3 50.3324 25.7084 124.7821 0.0000 0.0000 0.0000
# 4 0.0000 0.0000 0.0000 30.4617 0.0000 0.0000
# 5 0.0000 0.0000 0.0000 0.0000 14.7777 0.0000
# 6 0.0000 0.0000 0.0000 0.0000 0.0000 14.0122
#
#
#
# Elastic Compliance Matrix: (Units=1/GPa)
#
#
# Indices 1 2 3 4 5 6 
#
# 1 0.009188 -0.002598 -0.003171 0.000000 0.000000 0.000000
# 2 -0.002598 0.005698 -0.000126 0.000000 0.000000 0.000000
# 3 -0.003171 -0.000126 0.009319 0.000000 0.000000 0.000000
# 4 0.000000 0.000000 0.000000 0.032828 0.000000 0.000000
# 5 0.000000 0.000000 0.000000 0.000000 0.067670 0.000000
# 6 0.000000 0.000000 0.000000 0.000000 0.000000 0.071367
#
#
# Mechanical properties :
#
#
# Convention : Reuss Voigt Hill
#
# Bulk Modulus (GPa) = 80.54424 84.83689 82.69056
# Shear Modulus (GPa) = 23.58503 34.07726 28.83115
#
# Velocity S-wave (km/s) = 3.14543 3.78089 3.47771
# Velocity P-wave (km/s) = 6.85415 7.39247 7.12839
#
# Compressibility (1/GPa) = 0.01241554
#
# Stress axis : x y z
#
# Youngs Moduli (GPa) = 108.83310 175.48552 107.30786
#
# Poissons Ratio (x) = 0.45594 0.34027
# Poissons Ratio (y) = 0.28277 0.01353
# Poissons Ratio (z) = 0.34510 0.02212
#
# Static dielectric constant tensor:
#      x y z
#    x 1.855700 0.000000 0.000000 
#    y 0.000000 2.037380 0.000000 
#    z 0.000000 0.000000 1.964450 
# 
# From -- ./inp_files/9451.got.cif
#   From: 2010.05.17/outbox.cif.g08.bks.cpg/sg52_5_cif.got.tgz:9451.got - 2010.06.03 12:15:38.
