data_PCOD9413464
_publ_section_title
;
Structure prediction by ZEFSAII (Michael W. Deem and Ramdas Pophale) SiO2 
 PCOD9413464
Probable space group: P N N A
;
_chemical_formula_sum "Si O2"
_cell_formula_units_Z 40
_cell_length_a 12.133068
_cell_length_b 5.702743
_cell_length_c 24.955949
_cell_angle_alpha 90.000000
_cell_angle_beta 90.000000
_cell_angle_gamma 90.000000
_cell_volume 1726.746249
_symmetry_space_group_name_H-M "P N N A"
_symmetry_group_IT_number 52
_symmetry_cell_setting 'orthorhombic'
loop_
_space_group_symop_operation_xyz
x,y,z
1/2-x,-y,z
x,1/2-y,1/2-z
1/2-x,1/2+y,1/2-z
-x,-y,-z
1/2+x,y,-z
-x,1/2+y,1/2+z
1/2+x,1/2-y,1/2+z
loop_
_atom_site_type_symbol
_atom_site_label
_atom_site_fract_x
_atom_site_fract_y
_atom_site_fract_z
Si Si1 0.437135 0.272737 0.948848
Si Si2 0.555204 0.554682 0.854782
Si Si3 0.159163 0.317838 0.809132
Si Si4 0.370980 0.115390 0.057066
Si Si5 0.750000 0.500000 0.392256
Si Si6 0.750000 0.000000 0.717863
O O1 0.481531 0.447595 0.903300
O O2 0.535730 0.082692 0.949257
O O3 0.320882 0.173200 0.927685
O O4 0.403476 0.310490 0.011299
O O5 0.464315 0.595902 0.809320
O O6 0.614207 0.771091 0.884668
O O7 0.651106 0.426684 0.822599
O O8 0.250000 0.500000 0.829020
O O9 0.194788 0.250000 0.750000
O O10 0.162131 0.111703 0.852001
O O11 0.250000 0.000000 0.049912
O O12 0.725256 0.750000 0.750000
#
# Coordination Sequence:
#
# PCOD9413464 Si02
#       6
#     8   8   8   8   4   4
#     4  11  24  42  71 105 144 192 240 311 377 464
#     4  12  26  46  75 103 145 195 250 313 383 460
#     4  12  25  42  68  99 135 181 237 298 370 442
#     4  11  24  43  69 106 147 192 245 304 381 460
#     4  12  22  44  67 100 145 184 240 302 382 452
#     4  12  32  54  81 116 153 204 266 330 388 460
#
# _framework density 23.164956
#
# number of rings (size 3 to 8) (size 9 to 14) (size 15 to 20)
#    0.000    0.400    6.000    2.400    4.200    2.400 
#    0.000    0.000    0.000    0.000    0.000    0.000 
#    0.000    0.000    0.000    0.000    0.000    0.000 
#
# Total GULP energy -222947.493897 kJ/mol
# GULP energy per Si atom -5573.687347 kJ/mol
# Density = 2.311223 g / cm^3
# Si number density = 23.164956 Si / 1000 Ang^3
#
#
#
# Elastic Constant Matrix: (Units=GPa)
#
#
# Indices 1 2 3 4 5 6 
#
# 1 122.1767 4.4142 18.6113 0.0000 0.0000 0.0000
# 2 4.4142 31.6935 14.5585 0.0000 0.0000 0.0000
# 3 18.6113 14.5585 69.4239 0.0000 0.0000 0.0000
# 4 0.0000 0.0000 0.0000 13.0551 0.0000 0.0000
# 5 0.0000 0.0000 0.0000 0.0000 -435.0337 0.0000
# 6 0.0000 0.0000 0.0000 0.0000 0.0000 20.5415
#
#
#
# Elastic Compliance Matrix: (Units=1/GPa)
#
#
# Indices 1 2 3 4 5 6 
#
# 1 0.008534 -0.000152 -0.002256 0.000000 0.000000 0.000000
# 2 -0.000152 0.034918 -0.007282 0.000000 0.000000 0.000000
# 3 -0.002256 -0.007282 0.016536 0.000000 0.000000 0.000000
# 4 0.000000 0.000000 0.000000 0.076598 0.000000 0.000000
# 5 0.000000 0.000000 0.000000 0.000000 -0.002299 0.000000
# 6 0.000000 0.000000 0.000000 0.000000 0.000000 0.048682
#
#
# Mechanical properties :
#
#
# Convention : Reuss Voigt Hill
#
# Bulk Modulus (GPa) = 24.62540 33.16246 28.89393
# Shear Modulus (GPa) = 23.16040 -67.90675 -22.37317
#
# Velocity S-wave (km/s) = 3.16540 -5.42015 -3.11114
# Velocity P-wave (km/s) = 4.90032 4.98236 0.63668
#
# Compressibility (1/GPa) = 0.04060848
#
# Stress axis : x y z
#
# Youngs Moduli (GPa) = 117.17823 28.63831 60.47404
#
# Poissons Ratio (x) = 0.00436 0.13642
# Poissons Ratio (y) = 0.01785 0.44035
# Poissons Ratio (z) = 0.26434 0.20853
#
# Static dielectric constant tensor:
#      x y z
#    x 1.896840 0.000000 0.000000 
#    y 0.000000 2.071080 0.000000 
#    z 0.000000 0.000000 1.872910 
# 
# From -- ./inp_files/42567.got.cif
#   From: 2010.05.17/outbox.cif.g08.bks.cpg/sg52_22_cif.got.tgz:42567.got - 2010.06.03 12:15:38.
