data_PCOD9413161
_publ_section_title
;
Structure prediction by ZEFSAII (Michael W. Deem and Ramdas Pophale) SiO2 
 PCOD9413161
Probable space group: P N N A
;
_chemical_formula_sum "Si O2"
_cell_formula_units_Z 32
_cell_length_a 18.817294
_cell_length_b 11.124978
_cell_length_c 7.127359
_cell_angle_alpha 90.000000
_cell_angle_beta 90.000000
_cell_angle_gamma 90.000000
_cell_volume 1492.055458
_symmetry_space_group_name_H-M "P N N A"
_symmetry_group_IT_number 52
_symmetry_cell_setting 'orthorhombic'
loop_
_space_group_symop_operation_xyz
x,y,z
1/2-x,-y,z
x,1/2-y,1/2-z
1/2-x,1/2+y,1/2-z
-x,-y,-z
1/2+x,y,-z
-x,1/2+y,1/2+z
1/2+x,1/2-y,1/2+z
loop_
_atom_site_type_symbol
_atom_site_label
_atom_site_fract_x
_atom_site_fract_y
_atom_site_fract_z
Si Si1 0.920322 0.463421 0.940923
Si Si2 0.333857 0.988686 0.813545
Si Si3 0.569081 0.801271 0.040565
Si Si4 0.913172 0.859497 0.895455
O O1 0.869201 0.508958 0.107549
O O2 0.914259 0.319387 0.925910
O O3 0.907992 0.527810 0.744903
O O4 0.000000 0.500000 0.000000
O O5 0.369646 0.101561 0.924248
O O6 0.250000 0.000000 0.800678
O O7 0.356838 0.874470 0.938380
O O8 0.557867 0.750000 0.250000
O O9 0.490437 0.853615 0.002874
O O10 0.903160 0.750000 0.750000
#
# Coordination Sequence:
#
# PCOD9413161 Si02
#       4
#     8   8   8   8
#     4  11  21  43  69  96 130 173 219 277 327 383
#     4  11  25  44  63  98 137 172 213 273 335 396
#     4   9  19  40  65  96 128 161 224 269 314 394
#     4  11  22  43  67  98 130 169 230 267 316 402
#
# _framework density 21.446925
#
# number of rings (size 3 to 8) (size 9 to 14) (size 15 to 20)
#    0.000    1.500    7.500    0.750    0.000    3.000 
#   18.000    0.000    0.000    0.000    0.000    0.000 
#    0.000    0.000    0.000    0.000    0.000    0.000 
#
# Total GULP energy -178700.734214 kJ/mol
# GULP energy per Si atom -5584.397944 kJ/mol
# Density = 2.139811 g / cm^3
# Si number density = 21.446925 Si / 1000 Ang^3
#
#
#
# Elastic Constant Matrix: (Units=GPa)
#
#
# Indices 1 2 3 4 5 6 
#
# 1 181.9055 14.9716 58.5893 0.0000 0.0000 0.0000
# 2 14.9716 53.2803 37.4215 0.0000 0.0000 0.0000
# 3 58.5893 37.4215 106.1616 0.0000 0.0000 0.0000
# 4 0.0000 0.0000 0.0000 40.3725 0.0000 0.0000
# 5 0.0000 0.0000 0.0000 0.0000 23.1221 0.0000
# 6 0.0000 0.0000 0.0000 0.0000 0.0000 6.3151
#
#
#
# Elastic Compliance Matrix: (Units=1/GPa)
#
#
# Indices 1 2 3 4 5 6 
#
# 1 0.006722 0.000953 -0.004046 0.000000 0.000000 0.000000
# 2 0.000953 0.025079 -0.009366 0.000000 0.000000 0.000000
# 3 -0.004046 -0.009366 0.014954 0.000000 0.000000 0.000000
# 4 0.000000 0.000000 0.000000 0.024769 0.000000 0.000000
# 5 0.000000 0.000000 0.000000 0.000000 0.043249 0.000000
# 6 0.000000 0.000000 0.000000 0.000000 0.000000 0.158351
#
#
# Mechanical properties :
#
#
# Convention : Reuss Voigt Hill
#
# Bulk Modulus (GPa) = 45.79399 62.59026 54.19212
# Shear Modulus (GPa) = 16.37618 29.31959 22.84788
#
# Velocity S-wave (km/s) = 2.76627 3.70141 3.26747
# Velocity P-wave (km/s) = 5.62153 6.89307 6.28952
#
# Compressibility (1/GPa) = 0.02183693
#
# Stress axis : x y z
#
# Youngs Moduli (GPa) = 148.76575 39.87363 66.87275
#
# Poissons Ratio (x) = -0.03798 0.27054
# Poissons Ratio (y) = -0.14170 0.62633
# Poissons Ratio (z) = 0.60184 0.37346
#
# Static dielectric constant tensor:
#      x y z
#    x 1.718940 0.000000 0.000000 
#    y 0.000000 2.088830 0.000000 
#    z 0.000000 0.000000 1.834690 
# 
# From -- ./inp_files/11505.got.cif
#   From: 2010.05.17/outbox.cif.g08.bks.cpg/sg52_6_cif.got.tgz:11505.got - 2010.06.03 12:15:38.
