data_PCOD9413524
_publ_section_title
;
Structure prediction by ZEFSAII (Michael W. Deem and Ramdas Pophale) SiO2 
 PCOD9413524
Probable space group: P N N A
;
_chemical_formula_sum "Si O2"
_cell_formula_units_Z 40
_cell_length_a 18.035875
_cell_length_b 17.119048
_cell_length_c 5.217446
_cell_angle_alpha 90.000000
_cell_angle_beta 90.000000
_cell_angle_gamma 90.000000
_cell_volume 1610.923026
_symmetry_space_group_name_H-M "P N N A"
_symmetry_group_IT_number 52
_symmetry_cell_setting 'orthorhombic'
loop_
_space_group_symop_operation_xyz
x,y,z
1/2-x,-y,z
x,1/2-y,1/2-z
1/2-x,1/2+y,1/2-z
-x,-y,-z
1/2+x,y,-z
-x,1/2+y,1/2+z
1/2+x,1/2-y,1/2+z
loop_
_atom_site_type_symbol
_atom_site_label
_atom_site_fract_x
_atom_site_fract_y
_atom_site_fract_z
Si Si1 0.083839 0.478263 0.737878
Si Si2 0.987351 0.364330 0.476819
Si Si3 0.737250 0.200519 0.480850
Si Si4 0.173418 0.044421 0.282228
Si Si5 0.124703 0.750000 0.250000
Si Si6 0.602840 0.250000 0.750000
O O1 0.048234 0.560566 0.656661
O O2 0.141088 0.456063 0.506112
O O3 0.028231 0.404475 0.720478
O O4 0.115649 0.492308 0.019291
O O5 0.928735 0.299151 0.564643
O O6 0.048158 0.322230 0.297188
O O7 0.771057 0.250000 0.250000
O O8 0.694835 0.121733 0.553004
O O9 0.813339 0.190059 0.642110
O O10 0.665654 0.257470 0.530403
O O11 0.250000 0.000000 0.263141
#
# Coordination Sequence:
#
# PCOD9413524 Si02
#       6
#     8   8   8   8   4   4
#     4  11  27  49  75 112 152 198 254 317 388 458
#     4  11  26  47  75 110 150 198 254 321 387 460
#     4  11  26  47  71 106 149 200 255 316 388 459
#     4  12  26  47  79 107 151 200 253 312 382 466
#     4  11  28  44  74 107 154 192 262 317 386 454
#     4  11  24  46  74 107 146 198 252 317 390 464
#
# _framework density 24.830486000000001
#
# number of rings (size 3 to 8) (size 9 to 14) (size 15 to 20)
#    0.000    0.800    2.000    3.000   11.200    4.800 
#    0.000    0.000    0.000    0.000    0.000    0.000 
#    0.000    0.000    0.000    0.000    0.000    0.000 
#
# Total GULP energy -222728.985939 kJ/mol
# GULP energy per Si atom -5568.224648 kJ/mol
# Density = 2.477397 g / cm^3
# Si number density = 24.830486 Si / 1000 Ang^3
#
#
#
# Elastic Constant Matrix: (Units=GPa)
#
#
# Indices 1 2 3 4 5 6 
#
# 1 145.3984 37.4260 27.6217 0.0000 0.0000 0.0000
# 2 37.4260 84.2958 -3.7242 0.0000 0.0000 0.0000
# 3 27.6217 -3.7242 82.4871 0.0000 0.0000 0.0000
# 4 0.0000 0.0000 0.0000 15.9893 0.0000 0.0000
# 5 0.0000 0.0000 0.0000 0.0000 69.5443 0.0000
# 6 0.0000 0.0000 0.0000 0.0000 0.0000 46.5805
#
#
#
# Elastic Compliance Matrix: (Units=1/GPa)
#
#
# Indices 1 2 3 4 5 6 
#
# 1 0.008448 -0.003884 -0.003004 0.000000 0.000000 0.000000
# 2 -0.003884 0.013672 0.001918 0.000000 0.000000 0.000000
# 3 -0.003004 0.001918 0.013216 0.000000 0.000000 0.000000
# 4 0.000000 0.000000 0.000000 0.062542 0.000000 0.000000
# 5 0.000000 0.000000 0.000000 0.000000 0.014379 0.000000
# 6 0.000000 0.000000 0.000000 0.000000 0.000000 0.021468
#
#
# Mechanical properties :
#
#
# Convention : Reuss Voigt Hill
#
# Bulk Modulus (GPa) = 39.37697 48.31425 43.84561
# Shear Modulus (GPa) = 32.86658 43.14667 38.00663
#
# Velocity S-wave (km/s) = 3.64213 4.17303 3.91659
# Velocity P-wave (km/s) = 5.79479 6.53596 6.17650
#
# Compressibility (1/GPa) = 0.02539555
#
# Stress axis : x y z
#
# Youngs Moduli (GPa) = 118.37107 73.14251 75.66758
#
# Poissons Ratio (x) = 0.28405 0.22732
# Poissons Ratio (y) = 0.45970 -0.14511
# Poissons Ratio (z) = 0.35562 -0.14027
#
# Static dielectric constant tensor:
#      x y z
#    x 1.915190 0.000000 0.000000 
#    y 0.000000 1.964920 0.000000 
#    z 0.000000 0.000000 2.099890 
# 
# From -- ./inp_files/3269.got.cif
#   From: 2010.05.17/outbox.cif.g08.bks.cpg/sg52_2_cif.got.tgz:3269.got - 2010.06.03 12:15:38.
