data_PCOD9413114
_publ_section_title
;
Structure prediction by ZEFSAII (Michael W. Deem and Ramdas Pophale) SiO2 
 PCOD9413114
Probable space group: P N N A
;
_chemical_formula_sum "Si O2"
_cell_formula_units_Z 48
_cell_length_a 15.967993
_cell_length_b 17.175372
_cell_length_c 9.039960
_cell_angle_alpha 90.000000
_cell_angle_beta 90.000000
_cell_angle_gamma 90.000000
_cell_volume 2479.265257
_symmetry_space_group_name_H-M "P N N A"
_symmetry_group_IT_number 52
_symmetry_cell_setting 'orthorhombic'
loop_
_space_group_symop_operation_xyz
x,y,z
1/2-x,-y,z
x,1/2-y,1/2-z
1/2-x,1/2+y,1/2-z
-x,-y,-z
1/2+x,y,-z
-x,1/2+y,1/2+z
1/2+x,1/2-y,1/2+z
loop_
_atom_site_type_symbol
_atom_site_label
_atom_site_fract_x
_atom_site_fract_y
_atom_site_fract_z
Si Si1 0.987820 0.917572 0.589421
Si Si2 0.553523 0.164567 0.300599
Si Si3 0.631813 0.661900 0.276808
Si Si4 0.793541 0.915231 0.160895
Si Si5 0.394305 0.566776 0.384999
Si Si6 0.562934 0.892493 0.933134
O O1 0.965509 0.850909 0.470967
O O2 0.914086 0.917595 0.713279
O O3 0.072201 0.894386 0.679673
O O4 0.000000 0.000000 0.500000
O O5 0.583881 0.250000 0.250000
O O6 0.619126 0.098339 0.246850
O O7 0.467249 0.150435 0.212355
O O8 0.608061 0.750000 0.250000
O O9 0.728910 0.642144 0.258483
O O10 0.620301 0.650494 0.451717
O O11 0.750000 0.000000 0.171564
O O12 0.818612 0.902018 0.987498
O O13 0.477907 0.593072 0.472704
O O14 0.394154 0.473800 0.397458
#
# Coordination Sequence:
#
# PCOD9413114 Si02
#       6
#     8   8   8   8   8   8
#     4  11  21  38  64  93 120 155 211 268 304 365
#     4  11  22  37  59  90 129 162 197 259 328 373
#     4  11  22  37  60  90 122 161 207 255 313 375
#     4  11  21  38  60  82 116 168 211 251 308 385
#     4   9  18  34  58  83 106 151 206 248 291 360
#     4   9  17  34  57  80 111 152 201 242 296 364
#
# _framework density 19.360575000000001
#
# number of rings (size 3 to 8) (size 9 to 14) (size 15 to 20)
#    0.000    1.667    3.333    2.500    0.000    0.000 
#    0.000    4.167    0.000    4.000    0.000    0.000 
#    0.000    0.000    0.000    0.000    0.000    0.000 
#
# Total GULP energy -267264.367353 kJ/mol
# GULP energy per Si atom -5568.007653 kJ/mol
# Density = 1.931651 g / cm^3
# Si number density = 19.360575 Si / 1000 Ang^3
#
#
#
# Elastic Constant Matrix: (Units=GPa)
#
#
# Indices 1 2 3 4 5 6 
#
# 1 45.1348 -13.3010 11.9165 0.0000 0.0000 0.0000
# 2 -13.3010 40.2592 9.7935 0.0000 0.0000 0.0000
# 3 11.9165 9.7935 114.5487 0.0000 0.0000 0.0000
# 4 0.0000 0.0000 0.0000 -9.6710 0.0000 0.0000
# 5 0.0000 0.0000 0.0000 0.0000 20.0717 0.0000
# 6 0.0000 0.0000 0.0000 0.0000 0.0000 18.9832
#
#
#
# Elastic Compliance Matrix: (Units=1/GPa)
#
#
# Indices 1 2 3 4 5 6 
#
# 1 0.025844 0.009388 -0.003491 0.000000 0.000000 0.000000
# 2 0.009388 0.028777 -0.003437 0.000000 0.000000 0.000000
# 3 -0.003491 -0.003437 0.009387 0.000000 0.000000 0.000000
# 4 0.000000 0.000000 0.000000 -0.103402 0.000000 0.000000
# 5 0.000000 0.000000 0.000000 0.000000 0.049821 0.000000
# 6 0.000000 0.000000 0.000000 0.000000 0.000000 0.052678
#
#
# Mechanical properties :
#
#
# Convention : Reuss Voigt Hill
#
# Bulk Modulus (GPa) = 14.50810 24.08453 19.29632
# Shear Modulus (GPa) = 61.60529 18.64571 40.12550
#
# Velocity S-wave (km/s) = 5.64704 3.10671 4.55745
# Velocity P-wave (km/s) = 7.07309 5.03348 6.13859
#
# Compressibility (1/GPa) = 0.06892702
#
# Stress axis : x y z
#
# Youngs Moduli (GPa) = 38.69353 34.75040 106.53101
#
# Poissons Ratio (x) = -0.32623 0.37192
# Poissons Ratio (y) = -0.36325 0.36614
# Poissons Ratio (z) = 0.13509 0.11943
#
# Static dielectric constant tensor:
#      x y z
#    x 1.702690 0.000000 0.000000 
#    y 0.000000 1.692480 0.000000 
#    z 0.000000 0.000000 1.691910 
# 
# From -- ./inp_files/12050.got.cif
#   From: 2010.05.17/outbox.cif.g08.bks.cpg/sg52_7_cif.got.tgz:12050.got - 2010.06.03 12:15:38.
