data_PCOD9413962
_publ_section_title
;
Structure prediction by ZEFSAII (Michael W. Deem and Ramdas Pophale) SiO2 
 PCOD9413962
Probable space group: P N N A
;
_chemical_formula_sum "Si O2"
_cell_formula_units_Z 40
_cell_length_a 24.000000
_cell_length_b 9.000000
_cell_length_c 9.000000
_cell_angle_alpha 90.000000
_cell_angle_beta 90.000000
_cell_angle_gamma 90.000000
_cell_volume 1944.000000
_symmetry_space_group_name_H-M "P N N A"
_symmetry_group_IT_number 52
_symmetry_cell_setting 'orthorhombic'
loop_
_space_group_symop_operation_xyz
x,y,z
1/2-x,-y,z
x,1/2-y,1/2-z
1/2-x,1/2+y,1/2-z
-x,-y,-z
1/2+x,y,-z
-x,1/2+y,1/2+z
1/2+x,1/2-y,1/2+z
loop_
_atom_site_type_symbol
_atom_site_label
_atom_site_fract_x
_atom_site_fract_y
_atom_site_fract_z
Si Si1 0.795572 0.383104 0.643797
Si Si2 0.524229 0.425166 0.268967
Si Si3 0.718370 0.656452 0.099427
Si Si4 0.081035 0.945602 0.062663
Si Si5 0.911395 0.346381 0.097909
O O1 0.750000 0.500000 0.703115
O O2 0.814493 0.250000 0.750000
O O3 0.765409 0.283878 0.518228
O O4 0.852893 0.460572 0.590239
O O5 0.526498 0.250000 0.250000
O O6 0.461585 0.481797 0.305155
O O7 0.560588 0.467270 0.416181
O O8 0.551079 0.512153 0.130799
O O9 0.750000 0.500000 0.098421
O O10 0.722989 0.750000 0.250000
O O11 0.653296 0.617514 0.073397
O O12 0.070897 0.770429 0.026953
O O13 0.913745 0.250000 0.250000
#
# Coordination Sequence:
#
# PCOD9413962 Si02
#       5
#     8   8   8   8   8
#     4  11  23  41  60  82 115 153 192 234 285 343
#     4  10  19  33  56  83 108 141 190 236 272 330
#     4  10  20  35  58  85 115 151 188 233 286 337
#     4   9  20  38  55  76 113 151 178 225 292 336
#     4   8  17  33  50  74 109 143 177 223 278 327
#
# _framework density 20.576132000000001
#
# number of rings (size 3 to 8) (size 9 to 14) (size 15 to 20)
#    0.000    2.400    0.000    3.000    0.000    3.200 
#    0.000    5.000    0.000    0.000    0.000    0.000 
#    0.000    0.000    0.000    0.000    0.000    0.000 
#
# Total GULP energy -223009.821212 kJ/mol
# GULP energy per Si atom -5575.245530 kJ/mol
# Density = 2.052930 g / cm^3
# Si number density = 20.576132 Si / 1000 Ang^3
#
#
#
# Elastic Constant Matrix: (Units=GPa)
#
#
# Indices 1 2 3 4 5 6 
#
# 1 107.7378 51.6326 10.2421 0.0000 0.0000 0.0000
# 2 51.6326 77.6792 5.4302 0.0000 0.0000 0.0000
# 3 10.2421 5.4302 35.8524 0.0000 0.0000 0.0000
# 4 0.0000 0.0000 0.0000 32.2373 0.0000 0.0000
# 5 0.0000 0.0000 0.0000 0.0000 -7.8792 0.0000
# 6 0.0000 0.0000 0.0000 0.0000 0.0000 29.0128
#
#
#
# Elastic Compliance Matrix: (Units=1/GPa)
#
#
# Indices 1 2 3 4 5 6 
#
# 1 0.013855 -0.009028 -0.002591 0.000000 0.000000 0.000000
# 2 -0.009028 0.018894 -0.000283 0.000000 0.000000 0.000000
# 3 -0.002591 -0.000283 0.028675 0.000000 0.000000 0.000000
# 4 0.000000 0.000000 0.000000 0.031020 0.000000 0.000000
# 5 0.000000 0.000000 0.000000 0.000000 -0.126916 0.000000
# 6 0.000000 0.000000 0.000000 0.000000 0.000000 0.034468
#
#
# Mechanical properties :
#
#
# Convention : Reuss Voigt Hill
#
# Bulk Modulus (GPa) = 26.58064 39.54214 33.06139
# Shear Modulus (GPa) = 137.59672 20.93847 79.26760
#
# Velocity S-wave (km/s) = 8.18640 3.19346 6.21351
# Velocity P-wave (km/s) = 10.11447 5.73208 8.22068
#
# Compressibility (1/GPa) = 0.03762136
#
# Stress axis : x y z
#
# Youngs Moduli (GPa) = 72.17795 52.92684 34.87362
#
# Poissons Ratio (x) = 0.47782 0.09034
# Poissons Ratio (y) = 0.65162 0.00986
# Poissons Ratio (z) = 0.18698 0.01496
#
# Static dielectric constant tensor:
#      x y z
#    x 1.728590 0.000000 0.000000 
#    y 0.000000 1.700240 0.000000 
#    z 0.000000 0.000000 1.952570 
# 
# From -- ./inp_files/13971.got.cif
#   From: 2010.05.17/outbox.ucp.g08.bks.cvg/sg52_7_cif.got.tgz:13971.got - 2010.06.11 16:30:12.
