data_PCOD9413947
_publ_section_title
;
Structure prediction by ZEFSAII (Michael W. Deem and Ramdas Pophale) SiO2 
 PCOD9413947
Probable space group: P N N A
;
_chemical_formula_sum "Si O2"
_cell_formula_units_Z 40
_cell_length_a 28.679716
_cell_length_b 8.047528
_cell_length_c 7.243250
_cell_angle_alpha 90.000000
_cell_angle_beta 90.000000
_cell_angle_gamma 90.000000
_cell_volume 1671.748022
_symmetry_space_group_name_H-M "P N N A"
_symmetry_group_IT_number 52
_symmetry_cell_setting 'orthorhombic'
loop_
_space_group_symop_operation_xyz
x,y,z
1/2-x,-y,z
x,1/2-y,1/2-z
1/2-x,1/2+y,1/2-z
-x,-y,-z
1/2+x,y,-z
-x,1/2+y,1/2+z
1/2+x,1/2-y,1/2+z
loop_
_atom_site_type_symbol
_atom_site_label
_atom_site_fract_x
_atom_site_fract_y
_atom_site_fract_z
Si Si1 0.800144 0.446786 0.280983
Si Si2 0.599930 0.950759 0.779458
Si Si3 0.600142 0.553334 0.280950
Si Si4 0.300119 0.446642 0.280577
Si Si5 0.500186 0.946747 0.783731
O O1 0.750000 0.500000 0.205223
O O2 0.801872 0.250000 0.250000
O O3 0.850019 0.515636 0.210398
O O4 0.799542 0.481726 0.500254
O O5 0.600082 0.750000 0.750000
O O6 0.650060 0.014695 0.708920
O O7 0.549882 0.015799 0.709677
O O8 0.599809 0.978388 0.999641
O O9 0.601676 0.750000 0.250000
O O10 0.549875 0.500475 0.206122
O O11 0.250000 0.500000 0.204822
O O12 0.302055 0.250000 0.250000
O O13 0.502203 0.750000 0.750000
O O14 0.500000 0.000000 0.000000
#
# Coordination Sequence:
#
# PCOD9413947 Si02
#       5
#     8   8   8   8   8
#     4   9  18  31  47  68  95 126 159 196 241 288
#     4   8  15  30  48  63  88 124 153 183 235 291
#     4   9  17  30  48  70  93 120 159 202 241 287
#     4   9  17  30  48  67  89 120 156 192 231 280
#     4   9  17  31  50  70  94 128 163 197 245 304
#
# _framework density 23.927052
#
# number of rings (size 3 to 8) (size 9 to 14) (size 15 to 20)
#    0.000    3.200    0.000    0.000    0.000    1.600 
#    0.000   10.000    0.000    0.000    0.000    0.000 
#    0.000    0.000    0.000    0.000    0.000    0.000 
#
# Total GULP energy -222730.445545 kJ/mol
# GULP energy per Si atom -5568.261139 kJ/mol
# Density = 2.387259 g / cm^3
# Si number density = 23.927052 Si / 1000 Ang^3
#
#
#
# Elastic Constant Matrix: (Units=GPa)
#
#
# Indices 1 2 3 4 5 6 
#
# 1 391.9635 37.2853 21.8871 0.0000 0.0000 0.0000
# 2 37.2853 26.5233 -4.8898 0.0000 0.0000 0.0000
# 3 21.8871 -4.8898 128.0364 0.0000 0.0000 0.0000
# 4 0.0000 0.0000 0.0000 15.2357 0.0000 0.0000
# 5 0.0000 0.0000 0.0000 0.0000 -627.6710 0.0000
# 6 0.0000 0.0000 0.0000 0.0000 0.0000 22.3470
#
#
#
# Elastic Compliance Matrix: (Units=1/GPa)
#
#
# Indices 1 2 3 4 5 6 
#
# 1 0.003003 -0.004346 -0.000679 0.000000 0.000000 0.000000
# 2 -0.004346 0.044261 0.002433 0.000000 0.000000 0.000000
# 3 -0.000679 0.002433 0.008019 0.000000 0.000000 0.000000
# 4 0.000000 0.000000 0.000000 0.065635 0.000000 0.000000
# 5 0.000000 0.000000 0.000000 0.000000 -0.001593 0.000000
# 6 0.000000 0.000000 0.000000 0.000000 0.000000 0.044749
#
#
# Mechanical properties :
#
#
# Convention : Reuss Voigt Hill
#
# Bulk Modulus (GPa) = 19.96057 72.78760 46.37409
# Shear Modulus (GPa) = 26.88787 -85.20161 -29.15687
#
# Velocity S-wave (km/s) = 3.35586 -5.97379 -3.49459
# Velocity P-wave (km/s) = 4.83489 4.13460 1.77217
#
# Compressibility (1/GPa) = 0.05009877
#
# Stress axis : x y z
#
# Youngs Moduli (GPa) = 333.04284 22.59322 124.69875
#
# Poissons Ratio (x) = 0.09819 0.08470
# Poissons Ratio (y) = 1.44747 -0.30343
# Poissons Ratio (z) = 0.22622 -0.05498
#
# Static dielectric constant tensor:
#      x y z
#    x 2.064860 0.000000 0.000000 
#    y 0.000000 1.835590 0.000000 
#    z 0.000000 0.000000 1.874320 
# 
# From -- ./inp_files/14808.got.cif
#   From: 2010.05.17/outbox.cif.g08.bks.cpg/sg52_8_cif.got.tgz:14808.got - 2010.06.03 12:15:38.
