data_PCOD9413634
_publ_section_title
;
Structure prediction by ZEFSAII (Michael W. Deem and Ramdas Pophale) SiO2 
 PCOD9413634
Probable space group: P N N A
;
_chemical_formula_sum "Si O2"
_cell_formula_units_Z 36
_cell_length_a 4.936933
_cell_length_b 16.891202
_cell_length_c 18.826888
_cell_angle_alpha 90.000000
_cell_angle_beta 90.000000
_cell_angle_gamma 90.000000
_cell_volume 1569.987982
_symmetry_space_group_name_H-M "P N N A"
_symmetry_group_IT_number 52
_symmetry_cell_setting 'orthorhombic'
loop_
_space_group_symop_operation_xyz
x,y,z
1/2-x,-y,z
x,1/2-y,1/2-z
1/2-x,1/2+y,1/2-z
-x,-y,-z
1/2+x,y,-z
-x,1/2+y,1/2+z
1/2+x,1/2-y,1/2+z
loop_
_atom_site_type_symbol
_atom_site_label
_atom_site_fract_x
_atom_site_fract_y
_atom_site_fract_z
Si Si1 0.864172 0.911186 0.631114
Si Si2 0.248910 0.191673 0.817613
Si Si3 0.739518 0.094082 0.792061
Si Si4 0.579348 0.770015 0.551107
Si Si5 0.250000 0.500000 0.946819
O O1 0.861928 0.886783 0.712405
O O2 0.684635 0.854940 0.582279
O O3 0.364740 0.751706 0.488161
O O4 0.750000 0.000000 0.633002
O O5 0.278387 0.250000 0.750000
O O6 0.535033 0.149818 0.837420
O O7 0.080851 0.233135 0.881254
O O8 0.046901 0.121831 0.795445
O O9 0.750000 0.000000 0.806550
O O10 0.166858 0.925043 0.601483
O O11 0.500000 0.500000 0.000000
#
# Coordination Sequence:
#
# PCOD9413634 Si02
#       5
#     8   8   8   8   4
#     4  11  26  42  66 105 148 195 240 286 355 449
#     4  12  25  48  74 107 145 194 244 309 368 434
#     4  11  26  45  76 105 143 187 247 310 372 435
#     4  12  28  45  71 105 149 199 244 297 369 442
#     4  12  24  36  56  90 148 198 226 270 328 428
#
# _framework density 22.930112999999999
#
# number of rings (size 3 to 8) (size 9 to 14) (size 15 to 20)
#    0.000    0.444    3.333    4.000   12.444    0.000 
#    0.000    0.000    0.000   13.333    0.000    0.000 
#    0.000    0.000    0.000    0.000    0.000    0.000 
#
# Total GULP energy -200670.716797 kJ/mol
# GULP energy per Si atom -5574.186578 kJ/mol
# Density = 2.287792 g / cm^3
# Si number density = 22.930113 Si / 1000 Ang^3
#
#
#
# Elastic Constant Matrix: (Units=GPa)
#
#
# Indices 1 2 3 4 5 6 
#
# 1 152.4484 17.5966 -2.1080 0.0000 0.0000 0.0000
# 2 17.5966 76.2225 1.9074 0.0000 0.0000 0.0000
# 3 -2.1080 1.9074 68.3231 0.0000 0.0000 0.0000
# 4 0.0000 0.0000 0.0000 18.8456 0.0000 0.0000
# 5 0.0000 0.0000 0.0000 0.0000 28.7433 0.0000
# 6 0.0000 0.0000 0.0000 0.0000 0.0000 52.9343
#
#
#
# Elastic Compliance Matrix: (Units=1/GPa)
#
#
# Indices 1 2 3 4 5 6 
#
# 1 0.006743 -0.001563 0.000252 0.000000 0.000000 0.000000
# 2 -0.001563 0.013491 -0.000425 0.000000 0.000000 0.000000
# 3 0.000252 -0.000425 0.014656 0.000000 0.000000 0.000000
# 4 0.000000 0.000000 0.000000 0.053063 0.000000 0.000000
# 5 0.000000 0.000000 0.000000 0.000000 0.034791 0.000000
# 6 0.000000 0.000000 0.000000 0.000000 0.000000 0.018891
#
#
# Mechanical properties :
#
#
# Convention : Reuss Voigt Hill
#
# Bulk Modulus (GPa) = 31.82897 36.86513 34.34705
# Shear Modulus (GPa) = 32.13773 38.74450 35.44112
#
# Velocity S-wave (km/s) = 3.74779 4.11503 3.93570
# Velocity P-wave (km/s) = 5.71305 6.22013 5.97197
#
# Compressibility (1/GPa) = 0.03141792
#
# Stress axis : x y z
#
# Youngs Moduli (GPa) = 148.29098 74.12366 68.23156
#
# Poissons Ratio (x) = 0.11586 -0.01717
# Poissons Ratio (y) = 0.23179 0.02899
# Poissons Ratio (z) = -0.03732 0.03149
#
# Static dielectric constant tensor:
#      x y z
#    x 1.999950 0.000000 0.000000 
#    y 0.000000 1.974910 0.000000 
#    z 0.000000 0.000000 2.043000 
# 
# From -- ./inp_files/34930.got.cif
#   From: 2010.05.17/outbox.cif.g08.bks.cpg/sg52_18_cif.got.tgz:34930.got - 2010.06.03 12:15:38.
