data_PCOD9413869
_publ_section_title
;
Structure prediction by ZEFSAII (Michael W. Deem and Ramdas Pophale) SiO2 
 PCOD9413869
Probable space group: P N N A
;
_chemical_formula_sum "Si O2"
_cell_formula_units_Z 40
_cell_length_a 8.684072
_cell_length_b 22.334713
_cell_length_c 7.549660
_cell_angle_alpha 90.000000
_cell_angle_beta 90.000000
_cell_angle_gamma 90.000000
_cell_volume 1464.303786
_symmetry_space_group_name_H-M "P N N A"
_symmetry_group_IT_number 52
_symmetry_cell_setting 'orthorhombic'
loop_
_space_group_symop_operation_xyz
x,y,z
1/2-x,-y,z
x,1/2-y,1/2-z
1/2-x,1/2+y,1/2-z
-x,-y,-z
1/2+x,y,-z
-x,1/2+y,1/2+z
1/2+x,1/2-y,1/2+z
loop_
_atom_site_type_symbol
_atom_site_label
_atom_site_fract_x
_atom_site_fract_y
_atom_site_fract_z
Si Si1 0.248662 0.847286 0.549028
Si Si2 0.750000 0.000000 0.260102
Si Si3 0.313974 0.250000 0.250000
Si Si4 0.962983 0.661319 0.374908
Si Si5 0.746002 0.412920 0.572543
Si Si6 0.028066 0.432614 0.126346
O O1 0.252032 0.801635 0.382406
O O2 0.351204 0.825469 0.711506
O O3 0.334469 0.908361 0.494273
O O4 0.082244 0.872220 0.611883
O O5 0.597089 0.985622 0.371751
O O6 0.750156 0.945065 0.117753
O O7 0.424728 0.283596 0.390245
O O8 0.084969 0.605235 0.358190
O O9 0.852997 0.647210 0.537149
O O10 0.630474 0.447931 0.699445
#
# Coordination Sequence:
#
# PCOD9413869 Si02
#       6
#     8   4   4   8   8   8
#     4  12  26  52  74 116 155 204 266 326 387 473
#     4  12  26  46  84 110 158 212 258 322 412 448
#     4  12  28  46  80 106 158 206 258 326 410 440
#     4  12  26  48  78 114 154 202 264 324 382 477
#     4  12  25  49  78 114 156 202 262 325 385 480
#     4  12  25  49  76 112 160 200 267 321 388 477
#
# _framework density 27.316735999999999
#
# number of rings (size 3 to 8) (size 9 to 14) (size 15 to 20)
#    0.000    0.000    8.000    0.600    2.800    0.800 
#    0.000    2.000    0.000    0.000    0.000    0.000 
#    0.000    0.000    0.000    0.000    0.000    0.000 
#
# Total GULP energy -223309.810242 kJ/mol
# GULP energy per Si atom -5582.745256 kJ/mol
# Density = 2.725456 g / cm^3
# Si number density = 27.316736 Si / 1000 Ang^3
#
#
#
# Elastic Constant Matrix: (Units=GPa)
#
#
# Indices 1 2 3 4 5 6 
#
# 1 175.5609 18.9350 47.7557 0.0000 0.0000 0.0000
# 2 18.9350 96.9412 15.9463 0.0000 0.0000 0.0000
# 3 47.7557 15.9463 67.7054 0.0000 0.0000 0.0000
# 4 0.0000 0.0000 0.0000 22.0098 0.0000 0.0000
# 5 0.0000 0.0000 0.0000 0.0000 0.7881 0.0000
# 6 0.0000 0.0000 0.0000 0.0000 0.0000 11.9187
#
#
#
# Elastic Compliance Matrix: (Units=1/GPa)
#
#
# Indices 1 2 3 4 5 6 
#
# 1 0.007080 -0.000584 -0.004856 0.000000 0.000000 0.000000
# 2 -0.000584 0.010779 -0.002127 0.000000 0.000000 0.000000
# 3 -0.004856 -0.002127 0.018696 0.000000 0.000000 0.000000
# 4 0.000000 0.000000 0.000000 0.045434 0.000000 0.000000
# 5 0.000000 0.000000 0.000000 0.000000 1.268866 0.000000
# 6 0.000000 0.000000 0.000000 0.000000 0.000000 0.083901
#
#
# Mechanical properties :
#
#
# Convention : Reuss Voigt Hill
#
# Bulk Modulus (GPa) = 46.68273 56.16462 51.42368
# Shear Modulus (GPa) = 3.43163 24.11469 13.77316
#
# Velocity S-wave (km/s) = 1.12204 2.97439 2.24788
# Velocity P-wave (km/s) = 4.33649 5.69220 5.05995
#
# Compressibility (1/GPa) = 0.02142120
#
# Stress axis : x y z
#
# Youngs Moduli (GPa) = 141.24246 92.76892 53.48683
#
# Poissons Ratio (x) = 0.05418 0.25975
# Poissons Ratio (y) = 0.08249 0.11376
# Poissons Ratio (z) = 0.68592 0.19731
#
# Static dielectric constant tensor:
#      x y z
#    x 2.073810 0.000000 0.000000 
#    y 0.000000 2.350830 0.000000 
#    z 0.000000 0.000000 2.176200 
# 
# From -- ./inp_files/7484.got.cif
#   From: 2010.05.17/outbox.cif.g08.bks.cpg/sg52_4_cif.got.tgz:7484.got - 2010.06.03 12:15:38.
