data_PCOD9413137
_publ_section_title
;
Structure prediction by ZEFSAII (Michael W. Deem and Ramdas Pophale) SiO2 
 PCOD9413137
Probable space group: P N N A
;
_chemical_formula_sum "Si O2"
_cell_formula_units_Z 56
_cell_length_a 21.664617
_cell_length_b 9.524854
_cell_length_c 11.769105
_cell_angle_alpha 90.000000
_cell_angle_beta 90.000000
_cell_angle_gamma 90.000000
_cell_volume 2428.582049
_symmetry_space_group_name_H-M "P N N A"
_symmetry_group_IT_number 52
_symmetry_cell_setting 'orthorhombic'
loop_
_space_group_symop_operation_xyz
x,y,z
1/2-x,-y,z
x,1/2-y,1/2-z
1/2-x,1/2+y,1/2-z
-x,-y,-z
1/2+x,y,-z
-x,1/2+y,1/2+z
1/2+x,1/2-y,1/2+z
loop_
_atom_site_type_symbol
_atom_site_label
_atom_site_fract_x
_atom_site_fract_y
_atom_site_fract_z
Si Si1 0.542906 0.170904 0.560863
Si Si2 0.148564 0.037784 0.575138
Si Si3 0.090832 0.026000 0.816634
Si Si4 0.465571 0.188728 0.131107
Si Si5 0.268484 0.224495 0.613056
Si Si6 0.377436 0.944045 0.057500
Si Si7 0.750000 0.000000 0.966694
Si Si8 0.458171 0.250000 0.750000
O O1 0.596474 0.066304 0.519770
O O2 0.495208 0.201019 0.457537
O O3 0.579484 0.314760 0.591114
O O4 0.499758 0.150647 0.669634
O O5 0.117038 0.069471 0.696258
O O6 0.207303 0.140880 0.571130
O O7 0.175325 0.880614 0.582326
O O8 0.024732 0.093486 0.838954
O O9 0.131554 0.075368 0.921800
O O10 0.082999 0.858577 0.819014
O O11 0.442641 0.250000 0.250000
O O12 0.415157 0.085943 0.078137
O O13 0.266387 0.250000 0.750000
O O14 0.270937 0.369441 0.544923
O O15 0.309182 0.952846 0.106387
#
# Coordination Sequence:
#
# PCOD9413137 Si02
#       8
#     8   8   8   8   8   8   4   4
#     4  11  22  43  67  93 137 177 220 275 346 408
#     4  11  24  39  64  98 143 175 224 285 347 417
#     4  11  22  37  63  97 135 169 214 271 350 413
#     4  11  21  41  67  96 130 172 226 280 337 411
#     4  11  23  40  60 101 138 178 225 284 351 410
#     4  11  22  42  64  93 127 179 228 276 329 419
#     4  12  24  40  68  86 130 182 230 276 332 404
#     4  12  24  40  64  96 134 178 214 272 350 410
#
# _framework density 23.058721999999999
#
# number of rings (size 3 to 8) (size 9 to 14) (size 15 to 20)
#    0.000    0.857    5.714    3.429    5.000    0.571 
#    2.571    0.000    1.571    1.714    0.000    0.000 
#    0.000    0.000    0.000    0.000    0.000    0.000 
#
# Total GULP energy -313439.309351 kJ/mol
# GULP energy per Si atom -5597.130524 kJ/mol
# Density = 2.300624 g / cm^3
# Si number density = 23.058722 Si / 1000 Ang^3
#
#
#
# Elastic Constant Matrix: (Units=GPa)
#
#
# Indices 1 2 3 4 5 6 
#
# 1 83.9462 14.8883 8.0280 0.0000 0.0000 0.0000
# 2 14.8883 91.2001 10.9709 0.0000 0.0000 0.0000
# 3 8.0280 10.9709 42.9246 0.0000 0.0000 0.0000
# 4 0.0000 0.0000 0.0000 28.0351 0.0000 0.0000
# 5 0.0000 0.0000 0.0000 0.0000 16.6890 0.0000
# 6 0.0000 0.0000 0.0000 0.0000 0.0000 39.6839
#
#
#
# Elastic Compliance Matrix: (Units=1/GPa)
#
#
# Indices 1 2 3 4 5 6 
#
# 1 0.012410 -0.001802 -0.001860 0.000000 0.000000 0.000000
# 2 -0.001802 0.011574 -0.002621 0.000000 0.000000 0.000000
# 3 -0.001860 -0.002621 0.024315 0.000000 0.000000 0.000000
# 4 0.000000 0.000000 0.000000 0.035670 0.000000 0.000000
# 5 0.000000 0.000000 0.000000 0.000000 0.059920 0.000000
# 6 0.000000 0.000000 0.000000 0.000000 0.000000 0.025199
#
#
# Mechanical properties :
#
#
# Convention : Reuss Voigt Hill
#
# Bulk Modulus (GPa) = 27.98654 31.76059 29.87356
# Shear Modulus (GPa) = 25.83110 29.16051 27.49581
#
# Velocity S-wave (km/s) = 3.35062 3.56001 3.45690
# Velocity P-wave (km/s) = 5.20886 5.54093 5.37746
#
# Compressibility (1/GPa) = 0.03573146
#
# Stress axis : x y z
#
# Youngs Moduli (GPa) = 80.58071 86.39747 41.12766
#
# Poissons Ratio (x) = 0.15570 0.07651
# Poissons Ratio (y) = 0.14521 0.10780
# Poissons Ratio (z) = 0.14991 0.22647
#
# Static dielectric constant tensor:
#      x y z
#    x 1.883610 0.000000 0.000000 
#    y 0.000000 1.944430 0.000000 
#    z 0.000000 0.000000 1.827680 
# 
# From -- ./inp_files/28813.got.cif
#   From: 2010.05.17/outbox.cif.g08.bks.cpg/sg52_15_cif.got.tgz:28813.got - 2010.06.03 12:15:38.
