data_PCOD9413787
_publ_section_title
;
Structure prediction by ZEFSAII (Michael W. Deem and Ramdas Pophale) SiO2 
 PCOD9413787
Probable space group: P N N A
;
_chemical_formula_sum "Si O2"
_cell_formula_units_Z 40
_cell_length_a 7.885784
_cell_length_b 12.664402
_cell_length_c 16.947292
_cell_angle_alpha 90.000000
_cell_angle_beta 90.000000
_cell_angle_gamma 90.000000
_cell_volume 1692.504676
_symmetry_space_group_name_H-M "P N N A"
_symmetry_group_IT_number 52
_symmetry_cell_setting 'orthorhombic'
loop_
_space_group_symop_operation_xyz
x,y,z
1/2-x,-y,z
x,1/2-y,1/2-z
1/2-x,1/2+y,1/2-z
-x,-y,-z
1/2+x,y,-z
-x,1/2+y,1/2+z
1/2+x,1/2-y,1/2+z
loop_
_atom_site_type_symbol
_atom_site_label
_atom_site_fract_x
_atom_site_fract_y
_atom_site_fract_z
Si Si1 0.676451 0.750000 0.750000
Si Si2 0.731693 0.174855 0.421556
Si Si3 0.108318 0.286540 0.096259
Si Si4 0.940598 0.538527 0.584699
Si Si5 0.131760 0.123025 0.816039
Si Si6 0.250000 0.000000 0.677882
O O1 0.787031 0.706451 0.822887
O O2 0.547063 0.838596 0.779704
O O3 0.705204 0.185835 0.515123
O O4 0.681886 0.283945 0.377005
O O5 0.929628 0.153914 0.402860
O O6 0.640828 0.072337 0.383916
O O7 0.059509 0.163420 0.089174
O O8 0.750000 0.500000 0.600096
O O9 0.000000 0.500000 0.500000
O O10 0.074408 0.482831 0.640620
O O11 0.258992 0.096090 0.744087
#
# Coordination Sequence:
#
# PCOD9413787 Si02
#       6
#     4   8   8   8   8   4
#     4  12  26  48  72 104 152 182 238 308 364 418
#     4  12  27  50  74 104 150 194 246 301 369 437
#     4  12  27  47  74 108 147 190 242 307 362 436
#     4  12  24  40  70 106 135 183 235 293 368 421
#     4  12  25  47  73 106 148 188 244 311 355 435
#     4  12  28  44  78 104 140 200 242 284 376 438
#
# _framework density 23.633614999999999
#
# number of rings (size 3 to 8) (size 9 to 14) (size 15 to 20)
#    0.000    0.000    6.000    3.600    7.000    0.800 
#    0.000    0.000    0.000    0.000    0.000    0.000 
#    0.000    0.000    0.000    0.000    0.000    0.000 
#
# Total GULP energy -223128.876827 kJ/mol
# GULP energy per Si atom -5578.221921 kJ/mol
# Density = 2.357982 g / cm^3
# Si number density = 23.633615 Si / 1000 Ang^3
#
#
#
# Elastic Constant Matrix: (Units=GPa)
#
#
# Indices 1 2 3 4 5 6 
#
# 1 123.8596 16.6457 70.6143 0.0000 0.0000 0.0000
# 2 16.6457 56.5189 22.9464 0.0000 0.0000 0.0000
# 3 70.6143 22.9464 206.2522 0.0000 0.0000 0.0000
# 4 0.0000 0.0000 0.0000 33.7571 0.0000 0.0000
# 5 0.0000 0.0000 0.0000 0.0000 29.2565 0.0000
# 6 0.0000 0.0000 0.0000 0.0000 0.0000 30.7396
#
#
#
# Elastic Compliance Matrix: (Units=1/GPa)
#
#
# Indices 1 2 3 4 5 6 
#
# 1 0.010178 -0.001658 -0.003300 0.000000 0.000000 0.000000
# 2 -0.001658 0.018800 -0.001524 0.000000 0.000000 0.000000
# 3 -0.003300 -0.001524 0.006148 0.000000 0.000000 0.000000
# 4 0.000000 0.000000 0.000000 0.029623 0.000000 0.000000
# 5 0.000000 0.000000 0.000000 0.000000 0.034180 0.000000
# 6 0.000000 0.000000 0.000000 0.000000 0.000000 0.032531
#
#
# Mechanical properties :
#
#
# Convention : Reuss Voigt Hill
#
# Bulk Modulus (GPa) = 45.12209 67.44929 56.28569
# Shear Modulus (GPa) = 32.93541 37.17893 35.05717
#
# Velocity S-wave (km/s) = 3.73712 3.97058 3.85562
# Velocity P-wave (km/s) = 6.14453 7.04430 6.60974
#
# Compressibility (1/GPa) = 0.02216210
#
# Stress axis : x y z
#
# Youngs Moduli (GPa) = 98.25192 53.19099 162.65809
#
# Poissons Ratio (x) = 0.08818 0.53680
# Poissons Ratio (y) = 0.16287 0.24790
# Poissons Ratio (z) = 0.32425 0.08107
#
# Static dielectric constant tensor:
#      x y z
#    x 1.995410 0.000000 0.000000 
#    y 0.000000 1.936800 0.000000 
#    z 0.000000 0.000000 1.957760 
# 
# From -- ./inp_files/24471.got.cif
#   From: 2010.05.17/outbox.cif.g08.bks.cpg/sg52_13_cif.got.tgz:24471.got - 2010.06.03 12:15:38.
