data_PCOD9413702
_publ_section_title
;
Structure prediction by ZEFSAII (Michael W. Deem and Ramdas Pophale) SiO2 
 PCOD9413702
Probable space group: P N N A
;
_chemical_formula_sum "Si O2"
_cell_formula_units_Z 28
_cell_length_a 13.582197
_cell_length_b 4.968661
_cell_length_c 20.847881
_cell_angle_alpha 90.000000
_cell_angle_beta 90.000000
_cell_angle_gamma 90.000000
_cell_volume 1406.926182
_symmetry_space_group_name_H-M "P N N A"
_symmetry_group_IT_number 52
_symmetry_cell_setting 'orthorhombic'
loop_
_space_group_symop_operation_xyz
x,y,z
1/2-x,-y,z
x,1/2-y,1/2-z
1/2-x,1/2+y,1/2-z
-x,-y,-z
1/2+x,y,-z
-x,1/2+y,1/2+z
1/2+x,1/2-y,1/2+z
loop_
_atom_site_type_symbol
_atom_site_label
_atom_site_fract_x
_atom_site_fract_y
_atom_site_fract_z
Si Si1 0.750000 0.500000 0.464216
Si Si2 0.429743 0.471155 0.627747
Si Si3 0.966448 0.484848 0.924732
Si Si4 0.750000 0.500000 0.949826
Si Si5 0.318496 0.250000 0.750000
O O1 0.660036 0.588693 0.420385
O O2 0.717722 0.250929 0.506944
O O3 0.465642 0.772714 0.613663
O O4 0.386418 0.390260 0.696416
O O5 0.516471 0.274338 0.606482
O O6 0.851579 0.410273 0.917119
O O7 0.000000 0.500000 0.000000
O O8 0.250000 0.500000 0.774784
#
# Coordination Sequence:
#
# PCOD9413702 Si02
#       5
#     4   8   8   4   4
#     4  12  20  36  61  94 127 166 200 258 318 402
#     4  12  24  40  62  93 133 166 208 261 326 389
#     4  12  23  40  61  94 129 171 208 263 326 381
#     4  12  24  36  63  92 131 166 214 254 322 394
#     4  12  26  42  66  96 128 174 216 268 332 390
#
# _framework density 19.901541999999999
#
# number of rings (size 3 to 8) (size 9 to 14) (size 15 to 20)
#    0.000    0.000    7.143    4.286    2.000    0.000 
#    0.000    0.000    0.000    3.429    0.000    0.000 
#    0.000    0.000    0.000    0.000    0.000    0.000 
#
# Total GULP energy -156432.348210 kJ/mol
# GULP energy per Si atom -5586.869579 kJ/mol
# Density = 1.985625 g / cm^3
# Si number density = 19.901542 Si / 1000 Ang^3
#
#
#
# Elastic Constant Matrix: (Units=GPa)
#
#
# Indices 1 2 3 4 5 6 
#
# 1 105.5088 -11.2922 21.7546 0.0000 0.0000 0.0000
# 2 -11.2922 82.9300 19.1331 0.0000 0.0000 0.0000
# 3 21.7546 19.1331 62.1369 0.0000 0.0000 0.0000
# 4 0.0000 0.0000 0.0000 25.5044 0.0000 0.0000
# 5 0.0000 0.0000 0.0000 0.0000 22.7630 0.0000
# 6 0.0000 0.0000 0.0000 0.0000 0.0000 38.1248
#
#
#
# Elastic Compliance Matrix: (Units=1/GPa)
#
#
# Indices 1 2 3 4 5 6 
#
# 1 0.010673 0.002493 -0.004504 0.000000 0.000000 0.000000
# 2 0.002493 0.013563 -0.005049 0.000000 0.000000 0.000000
# 3 -0.004504 -0.005049 0.019225 0.000000 0.000000 0.000000
# 4 0.000000 0.000000 0.000000 0.039209 0.000000 0.000000
# 5 0.000000 0.000000 0.000000 0.000000 0.043931 0.000000
# 6 0.000000 0.000000 0.000000 0.000000 0.000000 0.026230
#
#
# Mechanical properties :
#
#
# Convention : Reuss Voigt Hill
#
# Bulk Modulus (GPa) = 34.08330 34.41852 34.25091
# Shear Modulus (GPa) = 28.29144 32.01045 30.15095
#
# Velocity S-wave (km/s) = 3.77446 4.01489 3.89653
# Velocity P-wave (km/s) = 6.01320 6.23092 6.12303
#
# Compressibility (1/GPa) = 0.02933988
#
# Stress axis : x y z
#
# Youngs Moduli (GPa) = 93.69090 73.73213 52.01527
#
# Poissons Ratio (x) = -0.18378 0.23429
# Poissons Ratio (y) = -0.23353 0.26262
# Poissons Ratio (z) = 0.42202 0.37226
#
# Static dielectric constant tensor:
#      x y z
#    x 1.800360 0.000000 0.000000 
#    y 0.000000 1.944380 0.000000 
#    z 0.000000 0.000000 1.699180 
# 
# From -- ./inp_files/32568.got.cif
#   From: 2010.05.17/outbox.cif.g08.bks.cpg/sg52_17_cif.got.tgz:32568.got - 2010.06.03 12:15:38.
