data_PCOD9413164
_publ_section_title
;
Structure prediction by ZEFSAII (Michael W. Deem and Ramdas Pophale) SiO2 
 PCOD9413164
Probable space group: P N N A
;
_chemical_formula_sum "Si O2"
_cell_formula_units_Z 44
_cell_length_a 11.685614
_cell_length_b 7.278215
_cell_length_c 19.971204
_cell_angle_alpha 90.000000
_cell_angle_beta 90.000000
_cell_angle_gamma 90.000000
_cell_volume 1698.559110
_symmetry_space_group_name_H-M "P N N A"
_symmetry_group_IT_number 52
_symmetry_cell_setting 'orthorhombic'
loop_
_space_group_symop_operation_xyz
x,y,z
1/2-x,-y,z
x,1/2-y,1/2-z
1/2-x,1/2+y,1/2-z
-x,-y,-z
1/2+x,y,-z
-x,1/2+y,1/2+z
1/2+x,1/2-y,1/2+z
loop_
_atom_site_type_symbol
_atom_site_label
_atom_site_fract_x
_atom_site_fract_y
_atom_site_fract_z
Si Si1 0.320156 0.279202 0.493015
Si Si2 0.851025 0.081525 0.638865
Si Si3 0.376799 0.071158 0.808385
Si Si4 0.914229 0.068396 0.380065
Si Si5 0.080512 0.337683 0.563685
Si Si6 0.018382 0.750000 0.250000
O O1 0.293463 0.172882 0.424840
O O2 0.353762 0.149912 0.554824
O O3 0.190975 0.354787 0.514372
O O4 0.454235 0.337829 0.470447
O O5 0.908550 0.234445 0.683708
O O6 0.750000 0.000000 0.682705
O O7 0.947743 0.934565 0.619219
O O8 0.411188 0.002499 0.883516
O O9 0.451343 0.940568 0.759698
O O10 0.250000 0.000000 0.797142
O O11 0.378549 0.207650 0.680441
O O12 0.895317 0.847929 0.391531
#
# Coordination Sequence:
#
# PCOD9413164 Si02
#       6
#     8   8   8   8   8   4
#     4  11  21  43  80 107 152 196 242 320 392 448
#     4  11  24  47  76 108 150 205 251 315 385 459
#     4  12  27  49  74 109 148 203 257 319 375 456
#     4  11  23  43  79 107 146 193 248 310 397 436
#     4  11  23  46  71 118 154 194 252 319 385 465
#     4  12  28  50  70 104 158 196 270 310 364 478
#
# _framework density 25.904309999999999
#
# number of rings (size 3 to 8) (size 9 to 14) (size 15 to 20)
#    0.000    0.727    5.455    4.909    0.000    4.364 
#    0.000    0.000    0.000    0.000    0.000    0.000 
#    0.000    0.000    0.000    0.000    0.000    0.000 
#
# Total GULP energy -245145.317943 kJ/mol
# GULP energy per Si atom -5571.484499 kJ/mol
# Density = 2.584535 g / cm^3
# Si number density = 25.904310 Si / 1000 Ang^3
#
#
#
# Elastic Constant Matrix: (Units=GPa)
#
#
# Indices 1 2 3 4 5 6 
#
# 1 180.0612 61.6905 16.3643 0.0000 0.0000 0.0000
# 2 61.6905 108.7345 28.2027 0.0000 0.0000 0.0000
# 3 16.3643 28.2027 61.8014 0.0000 0.0000 0.0000
# 4 0.0000 0.0000 0.0000 -83.2159 0.0000 0.0000
# 5 0.0000 0.0000 0.0000 0.0000 -12.5463 0.0000
# 6 0.0000 0.0000 0.0000 0.0000 0.0000 41.6229
#
#
#
# Elastic Compliance Matrix: (Units=1/GPa)
#
#
# Indices 1 2 3 4 5 6 
#
# 1 0.006894 -0.003899 -0.000046 0.000000 0.000000 0.000000
# 2 -0.003899 0.012637 -0.004734 0.000000 0.000000 0.000000
# 3 -0.000046 -0.004734 0.018354 0.000000 0.000000 0.000000
# 4 0.000000 0.000000 0.000000 -0.012017 0.000000 0.000000
# 5 0.000000 0.000000 0.000000 0.000000 -0.079705 0.000000
# 6 0.000000 0.000000 0.000000 0.000000 0.000000 0.024025
#
#
# Mechanical properties :
#
#
# Convention : Reuss Voigt Hill
#
# Bulk Modulus (GPa) = 48.72083 62.56803 55.64443
# Shear Modulus (GPa) = -891.05937 5.46145 -442.79896
#
# Velocity S-wave (km/s) = -18.56685 1.45358 -13.08845
# Velocity P-wave (km/s) = 20.99496 5.19838 14.38341
#
# Compressibility (1/GPa) = 0.02052510
#
# Stress axis : x y z
#
# Youngs Moduli (GPa) = 145.05871 79.13343 54.48548
#
# Poissons Ratio (x) = 0.30856 0.00251
# Poissons Ratio (y) = 0.56562 0.25795
# Poissons Ratio (z) = 0.00667 0.37464
#
# Static dielectric constant tensor:
#      x y z
#    x 2.057880 0.000000 0.000000 
#    y 0.000000 2.183300 0.000000 
#    z 0.000000 0.000000 2.149340 
# 
# From -- ./inp_files/32160.got.cif
#   From: 2010.05.17/outbox.cif.g08.bks.cpg/sg52_17_cif.got.tgz:32160.got - 2010.06.03 12:15:38.
