data_PCOD9413043
_publ_section_title
;
Structure prediction by ZEFSAII (Michael W. Deem and Ramdas Pophale) SiO2 
 PCOD9413043
Probable space group: P N N A
;
_chemical_formula_sum "Si O2"
_cell_formula_units_Z 36
_cell_length_a 10.410021
_cell_length_b 9.675860
_cell_length_c 20.096307
_cell_angle_alpha 90.000000
_cell_angle_beta 90.000000
_cell_angle_gamma 90.000000
_cell_volume 2024.218726
_symmetry_space_group_name_H-M "P N N A"
_symmetry_group_IT_number 52
_symmetry_cell_setting 'orthorhombic'
loop_
_space_group_symop_operation_xyz
x,y,z
1/2-x,-y,z
x,1/2-y,1/2-z
1/2-x,1/2+y,1/2-z
-x,-y,-z
1/2+x,y,-z
-x,1/2+y,1/2+z
1/2+x,1/2-y,1/2+z
loop_
_atom_site_type_symbol
_atom_site_label
_atom_site_fract_x
_atom_site_fract_y
_atom_site_fract_z
Si Si1 0.900907 0.028898 0.759962
Si Si2 0.267869 0.335140 0.873568
Si Si3 0.438478 0.250000 0.750000
Si Si4 0.374190 0.095895 0.487667
Si Si5 0.524394 0.763685 0.641128
O O1 0.945217 0.118243 0.696069
O O2 0.933982 0.121398 0.824385
O O3 0.750000 0.000000 0.756161
O O4 0.975197 0.884988 0.759858
O O5 0.250000 0.500000 0.862161
O O6 0.349998 0.273124 0.814147
O O7 0.127118 0.268560 0.873982
O O8 0.339658 0.325326 0.944172
O O9 0.402408 0.195453 0.426061
O O10 0.250000 0.000000 0.473331
O O11 0.500000 0.000000 0.500000
#
# Coordination Sequence:
#
# PCOD9413043 Si02
#       5
#     8   8   4   8   8
#     4  11  24  40  63  94 125 166 208 263 328 374
#     4  11  22  38  63  96 120 166 213 257 326 372
#     4  12  22  40  66  88 128 164 210 262 320 392
#     4  11  20  37  63  94 127 165 217 261 311 382
#     4  11  22  41  64  93 128 158 214 272 309 383
#
# _framework density 17.784638999999999
#
# number of rings (size 3 to 8) (size 9 to 14) (size 15 to 20)
#    0.000    0.889    6.667    3.333    0.000    1.778 
#    0.000    1.111    0.000    0.000    0.000    0.000 
#    0.000    0.000    0.000    0.000    0.000    0.000 
#
# Total GULP energy -201194.611252 kJ/mol
# GULP energy per Si atom -5588.739201 kJ/mol
# Density = 1.774416 g / cm^3
# Si number density = 17.784639 Si / 1000 Ang^3
#
#
#
# Elastic Constant Matrix: (Units=GPa)
#
#
# Indices 1 2 3 4 5 6 
#
# 1 151.3470 44.7527 85.6790 0.0000 0.0000 0.0000
# 2 44.7527 98.2510 66.5767 0.0000 0.0000 0.0000
# 3 85.6790 66.5767 181.7361 0.0000 0.0000 0.0000
# 4 0.0000 0.0000 0.0000 15.9945 0.0000 0.0000
# 5 0.0000 0.0000 0.0000 0.0000 26.5540 0.0000
# 6 0.0000 0.0000 0.0000 0.0000 0.0000 -70.3850
#
#
#
# Elastic Compliance Matrix: (Units=1/GPa)
#
#
# Indices 1 2 3 4 5 6 
#
# 1 0.009214 -0.001667 -0.003733 0.000000 0.000000 0.000000
# 2 -0.001667 0.013841 -0.004284 0.000000 0.000000 0.000000
# 3 -0.003733 -0.004284 0.008832 0.000000 0.000000 0.000000
# 4 0.000000 0.000000 0.000000 0.062521 0.000000 0.000000
# 5 0.000000 0.000000 0.000000 0.000000 0.037659 0.000000
# 6 0.000000 0.000000 0.000000 0.000000 0.000000 -0.014208
#
#
# Mechanical properties :
#
#
# Convention : Reuss Voigt Hill
#
# Bulk Modulus (GPa) = 79.89094 91.70565 85.79830
# Shear Modulus (GPa) = 35.36062 10.05441 22.70752
#
# Velocity S-wave (km/s) = 4.46384 2.38027 3.57712
# Velocity P-wave (km/s) = 8.46089 7.69615 8.08756
#
# Compressibility (1/GPa) = 0.01251706
#
# Stress axis : x y z
#
# Youngs Moduli (GPa) = 108.53534 72.25152 113.22617
#
# Poissons Ratio (x) = 0.12046 0.42267
# Poissons Ratio (y) = 0.18095 0.48510
# Poissons Ratio (z) = 0.40516 0.30955
#
# Static dielectric constant tensor:
#      x y z
#    x 1.597880 0.000000 0.000000 
#    y 0.000000 1.581170 0.000000 
#    z 0.000000 0.000000 1.598880 
# 
# From -- ./inp_files/35544.got.cif
#   From: 2010.05.17/outbox.cif.g08.bks.cpg/sg52_18_cif.got.tgz:35544.got - 2010.06.03 12:15:38.
