data_PCOD9413225
_publ_section_title
;
Structure prediction by ZEFSAII (Michael W. Deem and Ramdas Pophale) SiO2 
 PCOD9413225
Probable space group: P N N A
;
_chemical_formula_sum "Si O2"
_cell_formula_units_Z 32
_cell_length_a 13.064483
_cell_length_b 8.650161
_cell_length_c 13.344001
_cell_angle_alpha 90.000000
_cell_angle_beta 90.000000
_cell_angle_gamma 90.000000
_cell_volume 1508.003970
_symmetry_space_group_name_H-M "P N N A"
_symmetry_group_IT_number 52
_symmetry_cell_setting 'orthorhombic'
loop_
_space_group_symop_operation_xyz
x,y,z
1/2-x,-y,z
x,1/2-y,1/2-z
1/2-x,1/2+y,1/2-z
-x,-y,-z
1/2+x,y,-z
-x,1/2+y,1/2+z
1/2+x,1/2-y,1/2+z
loop_
_atom_site_type_symbol
_atom_site_label
_atom_site_fract_x
_atom_site_fract_y
_atom_site_fract_z
Si Si1 0.520559 0.093749 0.281228
Si Si2 0.342344 0.624235 0.161869
Si Si3 0.660081 0.611311 0.325086
Si Si4 0.300471 0.669275 0.941197
O O1 0.463958 0.250000 0.250000
O O2 0.610993 0.152587 0.356443
O O3 0.446458 0.974291 0.333993
O O4 0.564762 0.003806 0.183148
O O5 0.250000 0.500000 0.171874
O O6 0.338737 0.750000 0.250000
O O7 0.339740 0.701964 0.052487
O O8 0.750000 0.500000 0.285676
O O9 0.636228 0.750000 0.250000
O O10 0.714876 0.701402 0.415270
O O11 0.250000 0.500000 0.945015
#
# Coordination Sequence:
#
# PCOD9413225 Si02
#       4
#     8   8   8   8
#     4  12  22  41  71 104 135 173 227 286 345 401
#     4  11  27  48  66  89 142 192 228 271 338 414
#     4  12  18  35  66 106 134 161 214 292 337 386
#     4  11  22  40  69 103 136 177 222 285 344 402
#
# _framework density 21.220102000000001
#
# number of rings (size 3 to 8) (size 9 to 14) (size 15 to 20)
#    0.000    0.500    7.500    2.250    0.000    1.000 
#    0.000    1.250    0.000    0.000    0.000    0.000 
#    0.000    0.000    0.000    0.000    0.000    0.000 
#
# Total GULP energy -178388.183616 kJ/mol
# GULP energy per Si atom -5574.630738 kJ/mol
# Density = 2.117180 g / cm^3
# Si number density = 21.220102 Si / 1000 Ang^3
#
#
#
# Elastic Constant Matrix: (Units=GPa)
#
#
# Indices 1 2 3 4 5 6 
#
# 1 45.6754 22.2232 20.9983 0.0000 0.0000 0.0000
# 2 22.2232 130.2769 49.4984 0.0000 0.0000 0.0000
# 3 20.9983 49.4984 131.1884 0.0000 0.0000 0.0000
# 4 0.0000 0.0000 0.0000 24.5368 0.0000 0.0000
# 5 0.0000 0.0000 0.0000 0.0000 -17.4760 0.0000
# 6 0.0000 0.0000 0.0000 0.0000 0.0000 39.9644
#
#
#
# Elastic Compliance Matrix: (Units=1/GPa)
#
#
# Indices 1 2 3 4 5 6 
#
# 1 0.024702 -0.003165 -0.002760 0.000000 0.000000 0.000000
# 2 -0.003165 0.009366 -0.003027 0.000000 0.000000 0.000000
# 3 -0.002760 -0.003027 0.009207 0.000000 0.000000 0.000000
# 4 0.000000 0.000000 0.000000 0.040755 0.000000 0.000000
# 5 0.000000 0.000000 0.000000 0.000000 -0.057221 0.000000
# 6 0.000000 0.000000 0.000000 0.000000 0.000000 0.025022
#
#
# Mechanical properties :
#
#
# Convention : Reuss Voigt Hill
#
# Bulk Modulus (GPa) = 39.41566 54.73115 47.07341
# Shear Modulus (GPa) = 63.94479 23.69976 43.82227
#
# Velocity S-wave (km/s) = 5.49541 3.34556 4.54930
# Velocity P-wave (km/s) = 7.67339 6.38528 7.05878
#
# Compressibility (1/GPa) = 0.02537062
#
# Stress axis : x y z
#
# Youngs Moduli (GPa) = 40.48195 106.76786 108.61843
#
# Poissons Ratio (x) = 0.33796 0.29974
# Poissons Ratio (y) = 0.12814 0.32882
# Poissons Ratio (z) = 0.11171 0.32321
#
# Static dielectric constant tensor:
#      x y z
#    x 1.800240 0.000000 0.000000 
#    y 0.000000 1.812520 0.000000 
#    z 0.000000 0.000000 1.800410 
# 
# From -- ./inp_files/18849.got.cif
#   From: 2010.05.17/outbox.cif.g08.bks.cpg/sg52_10_cif.got.tgz:18849.got - 2010.06.03 12:15:38.
