data_PCOD9413018
_publ_section_title
;
Structure prediction by ZEFSAII (Michael W. Deem and Ramdas Pophale) SiO2 
 PCOD9413018
Probable space group: P N N A
;
_chemical_formula_sum "Si O2"
_cell_formula_units_Z 32
_cell_length_a 5.040568
_cell_length_b 12.114464
_cell_length_c 28.897689
_cell_angle_alpha 90.000000
_cell_angle_beta 90.000000
_cell_angle_gamma 90.000000
_cell_volume 1764.602111
_symmetry_space_group_name_H-M "P N N A"
_symmetry_group_IT_number 52
_symmetry_cell_setting 'orthorhombic'
loop_
_space_group_symop_operation_xyz
x,y,z
1/2-x,-y,z
x,1/2-y,1/2-z
1/2-x,1/2+y,1/2-z
-x,-y,-z
1/2+x,y,-z
-x,1/2+y,1/2+z
1/2+x,1/2-y,1/2+z
loop_
_atom_site_type_symbol
_atom_site_label
_atom_site_fract_x
_atom_site_fract_y
_atom_site_fract_z
Si Si1 0.107612 0.380896 0.873049
Si Si2 0.574498 0.291807 0.824553
Si Si3 0.666797 0.373503 0.020753
Si Si4 0.498938 0.576682 0.267815
O O1 0.250000 0.500000 0.863631
O O2 0.344669 0.296942 0.862397
O O3 0.050927 0.376697 0.927717
O O4 0.846039 0.347915 0.843627
O O5 0.458435 0.359833 0.780643
O O6 0.591143 0.167839 0.805300
O O7 0.750000 0.500000 0.008619
O O8 0.455351 0.320883 0.986059
O O9 0.250000 0.500000 0.259576
O O10 0.750000 0.500000 0.279769
#
# Coordination Sequence:
#
# PCOD9413018 Si02
#       4
#     8   8   8   8
#     4  11  20  32  51  76 108 138 170 211 250 304
#     4  11  22  34  52  77 101 135 179 212 252 311
#     4   9  17  29  45  68 101 138 166 195 247 308
#     4  11  22  37  53  71 103 138 171 216 262 301
#
# _framework density 18.134401
#
# number of rings (size 3 to 8) (size 9 to 14) (size 15 to 20)
#    0.000    1.500    0.000    7.500    0.000    8.000 
#    0.000    0.000    0.000    0.000    0.000    0.000 
#    0.000   70.000    0.000    0.000    0.000    0.000 
#
# Total GULP energy -178189.196090 kJ/mol
# GULP energy per Si atom -5568.412378 kJ/mol
# Density = 1.809313 g / cm^3
# Si number density = 18.134401 Si / 1000 Ang^3
#
#
#
# Elastic Constant Matrix: (Units=GPa)
#
#
# Indices 1 2 3 4 5 6 
#
# 1 107.5478 10.0336 25.6564 0.0000 0.0000 0.0000
# 2 10.0336 51.5211 18.1266 0.0000 0.0000 0.0000
# 3 25.6564 18.1266 64.6924 0.0000 0.0000 0.0000
# 4 0.0000 0.0000 0.0000 21.7091 0.0000 0.0000
# 5 0.0000 0.0000 0.0000 0.0000 34.9603 0.0000
# 6 0.0000 0.0000 0.0000 0.0000 0.0000 15.5982
#
#
#
# Elastic Compliance Matrix: (Units=1/GPa)
#
#
# Indices 1 2 3 4 5 6 
#
# 1 0.010288 -0.000630 -0.003904 0.000000 0.000000 0.000000
# 2 -0.000630 0.021571 -0.005794 0.000000 0.000000 0.000000
# 3 -0.003904 -0.005794 0.018629 0.000000 0.000000 0.000000
# 4 0.000000 0.000000 0.000000 0.046064 0.000000 0.000000
# 5 0.000000 0.000000 0.000000 0.000000 0.028604 0.000000
# 6 0.000000 0.000000 0.000000 0.000000 0.000000 0.064110
#
#
# Mechanical properties :
#
#
# Convention : Reuss Voigt Hill
#
# Bulk Modulus (GPa) = 33.52049 36.82161 35.17105
# Shear Modulus (GPa) = 22.74110 25.78316 24.26213
#
# Velocity S-wave (km/s) = 3.54507 3.77474 3.66171
# Velocity P-wave (km/s) = 5.93981 6.27273 6.10854
#
# Compressibility (1/GPa) = 0.02983250
#
# Stress axis : x y z
#
# Youngs Moduli (GPa) = 97.19846 46.35900 53.67856
#
# Poissons Ratio (x) = 0.02922 0.20954
# Poissons Ratio (y) = 0.06125 0.31102
# Poissons Ratio (z) = 0.37943 0.26861
#
# Static dielectric constant tensor:
#      x y z
#    x 1.701150 0.000000 0.000000 
#    y 0.000000 1.636140 0.000000 
#    z 0.000000 0.000000 1.641280 
# 
# From -- ./inp_files/38525.got.cif
#   From: 2010.05.17/outbox.cif.g08.bks.cpg/sg52_20_cif.got.tgz:38525.got - 2010.06.03 12:15:38.
