data_PCOD9413564
_publ_section_title
;
Structure prediction by ZEFSAII (Michael W. Deem and Ramdas Pophale) SiO2 
 PCOD9413564
Probable space group: P N N A
;
_chemical_formula_sum "Si O2"
_cell_formula_units_Z 56
_cell_length_a 20.066726
_cell_length_b 8.087280
_cell_length_c 15.850059
_cell_angle_alpha 90.000000
_cell_angle_beta 90.000000
_cell_angle_gamma 90.000000
_cell_volume 2572.230500
_symmetry_space_group_name_H-M "P N N A"
_symmetry_group_IT_number 52
_symmetry_cell_setting 'orthorhombic'
loop_
_space_group_symop_operation_xyz
x,y,z
1/2-x,-y,z
x,1/2-y,1/2-z
1/2-x,1/2+y,1/2-z
-x,-y,-z
1/2+x,y,-z
-x,1/2+y,1/2+z
1/2+x,1/2-y,1/2+z
loop_
_atom_site_type_symbol
_atom_site_label
_atom_site_fract_x
_atom_site_fract_y
_atom_site_fract_z
Si Si1 0.550546 0.943871 0.275156
Si Si2 0.180836 0.589859 0.689701
Si Si3 0.750000 0.500000 0.805878
Si Si4 0.330642 0.774792 0.437392
Si Si5 0.423195 0.500140 0.970615
Si Si6 0.195648 0.756125 0.990452
Si Si7 0.547173 0.750000 0.750000
Si Si8 0.344645 0.429518 0.346274
O O1 0.533023 0.750000 0.250000
O O2 0.612013 0.997470 0.215057
O O3 0.575217 0.960683 0.371191
O O4 0.493934 0.083457 0.269426
O O5 0.250000 0.500000 0.707201
O O6 0.180307 0.750000 0.750000
O O7 0.179381 0.637868 0.591743
O O8 0.703854 0.390245 0.866492
O O9 0.696833 0.572575 0.739901
O O10 0.273967 0.785975 0.511982
O O11 0.352945 0.613955 0.383116
O O12 0.395387 0.832457 0.488274
O O13 0.363791 0.375442 0.000128
O O14 0.500000 0.500000 0.000000
O O15 0.196644 0.851258 0.078399
O O16 0.591874 0.684842 0.672150
#
# Coordination Sequence:
#
# PCOD9413564 Si02
#       8
#     8   8   4   8   8   8   4   8
#     4  11  27  53  74 112 155 201 263 322 380 474
#     4  11  25  43  76 106 146 195 255 330 386 448
#     4  12  24  44  76 114 154 198 250 314 388 460
#     4  12  26  44  78 107 154 201 257 330 389 462
#     4  12  27  46  72 105 149 204 255 313 394 460
#     4  12  23  49  70 109 147 192 254 317 386 457
#     4  12  30  48  82 108 158 212 256 308 408 474
#     4  12  27  45  72 117 149 192 262 317 380 477
#
# _framework density 21.770987999999999
#
# number of rings (size 3 to 8) (size 9 to 14) (size 15 to 20)
#    0.000    0.286    5.714    3.000    7.000    1.143 
#    0.000    2.143    0.000    0.000    0.000    0.000 
#    0.000    0.000    0.000    0.000    0.000    0.000 
#
# Total GULP energy -312075.756534 kJ/mol
# GULP energy per Si atom -5572.781367 kJ/mol
# Density = 2.172144 g / cm^3
# Si number density = 21.770988 Si / 1000 Ang^3
#
#
#
# Elastic Constant Matrix: (Units=GPa)
#
#
# Indices 1 2 3 4 5 6 
#
# 1 149.8488 56.7001 34.4715 0.0000 0.0000 0.0000
# 2 56.7001 96.6342 26.9183 0.0000 0.0000 0.0000
# 3 34.4715 26.9183 126.2875 0.0000 0.0000 0.0000
# 4 0.0000 0.0000 0.0000 26.3427 0.0000 0.0000
# 5 0.0000 0.0000 0.0000 0.0000 31.7703 0.0000
# 6 0.0000 0.0000 0.0000 0.0000 0.0000 42.0887
#
#
#
# Elastic Compliance Matrix: (Units=1/GPa)
#
#
# Indices 1 2 3 4 5 6 
#
# 1 0.008799 -0.004778 -0.001384 0.000000 0.000000 0.000000
# 2 -0.004778 0.013596 -0.001594 0.000000 0.000000 0.000000
# 3 -0.001384 -0.001594 0.008636 0.000000 0.000000 0.000000
# 4 0.000000 0.000000 0.000000 0.037961 0.000000 0.000000
# 5 0.000000 0.000000 0.000000 0.000000 0.031476 0.000000
# 6 0.000000 0.000000 0.000000 0.000000 0.000000 0.023759
#
#
# Mechanical properties :
#
#
# Convention : Reuss Voigt Hill
#
# Bulk Modulus (GPa) = 64.42960 67.66115 66.04537
# Shear Modulus (GPa) = 34.50394 37.01903 35.76149
#
# Velocity S-wave (km/s) = 3.98535 4.12804 4.05732
# Velocity P-wave (km/s) = 7.12992 7.33942 7.23543
#
# Compressibility (1/GPa) = 0.01552082
#
# Stress axis : x y z
#
# Youngs Moduli (GPa) = 113.64343 73.55336 115.79693
#
# Poissons Ratio (x) = 0.35141 0.16021
# Poissons Ratio (y) = 0.54295 0.18456
# Poissons Ratio (z) = 0.15723 0.11723
#
# Static dielectric constant tensor:
#      x y z
#    x 1.871060 0.000000 0.000000 
#    y 0.000000 2.069770 0.000000 
#    z 0.000000 0.000000 -1.230460 
# 
# From -- ./inp_files/28824.got.cif
#   From: 2010.05.17/outbox.cif.g08.bks.cpg/sg52_15_cif.got.tgz:28824.got - 2010.06.03 12:15:38.
