data_PCOD9413384
_publ_section_title
;
Structure prediction by ZEFSAII (Michael W. Deem and Ramdas Pophale) SiO2 
 PCOD9413384
Probable space group: P N N A
;
_chemical_formula_sum "Si O2"
_cell_formula_units_Z 48
_cell_length_a 9.701636
_cell_length_b 14.804319
_cell_length_c 14.418265
_cell_angle_alpha 90.000000
_cell_angle_beta 90.000000
_cell_angle_gamma 90.000000
_cell_volume 2070.839375
_symmetry_space_group_name_H-M "P N N A"
_symmetry_group_IT_number 52
_symmetry_cell_setting 'orthorhombic'
loop_
_space_group_symop_operation_xyz
x,y,z
1/2-x,-y,z
x,1/2-y,1/2-z
1/2-x,1/2+y,1/2-z
-x,-y,-z
1/2+x,y,-z
-x,1/2+y,1/2+z
1/2+x,1/2-y,1/2+z
loop_
_atom_site_type_symbol
_atom_site_label
_atom_site_fract_x
_atom_site_fract_y
_atom_site_fract_z
Si Si1 0.440736 0.765732 0.934447
Si Si2 0.750000 0.000000 0.856517
Si Si3 0.366568 0.562234 0.987142
Si Si4 0.934731 0.250000 0.250000
Si Si5 0.000000 0.500000 0.500000
Si Si6 0.184349 0.130818 0.310304
Si Si7 0.662102 0.844380 0.071993
Si Si8 0.572037 0.750000 0.750000
O O1 0.318767 0.835086 0.964004
O O2 0.480480 0.792462 0.830181
O O3 0.394337 0.660784 0.941343
O O4 0.566050 0.784701 0.003751
O O5 0.801247 0.923970 0.784921
O O6 0.878588 0.024612 0.921648
O O7 0.250000 0.500000 0.939360
O O8 0.317773 0.583288 0.091419
O O9 0.500000 0.500000 0.000000
O O10 0.042227 0.185369 0.303478
O O11 0.845494 0.199557 0.173396
O O12 0.909862 0.440875 0.425273
O O13 0.323213 0.189013 0.308327
#
# Coordination Sequence:
#
# PCOD9413384 Si02
#       8
#     8   4   8   4   4   8   8   4
#     4  12  26  45  73 105 149 201 250 321 394 486
#     4  12  24  44  70 108 154 204 254 326 400 470
#     4  12  25  45  75 112 149 195 257 327 393 465
#     4  11  23  44  70 102 140 202 254 316 378 472
#     4  12  26  42  70 110 150 202 256 332 386 476
#     4  11  23  43  75 104 143 201 256 314 391 476
#     4  12  25  45  71 105 150 198 261 317 400 467
#     4  11  25  46  72 110 140 196 264 308 386 486
#
# _framework density 23.179006000000001
#
# number of rings (size 3 to 8) (size 9 to 14) (size 15 to 20)
#    0.000    0.333    4.167    5.500    2.333    0.000 
#    0.000    0.000    1.833    0.000    0.000    0.000 
#    0.000    0.000    0.000    0.000    0.000    0.000 
#
# Total GULP energy -267497.338773 kJ/mol
# GULP energy per Si atom -5572.861224 kJ/mol
# Density = 2.312625 g / cm^3
# Si number density = 23.179006 Si / 1000 Ang^3
#
#
#
# Elastic Constant Matrix: (Units=GPa)
#
#
# Indices 1 2 3 4 5 6 
#
# 1 96.1529 2.0205 25.1358 0.0000 0.0000 0.0000
# 2 2.0205 52.0877 3.1702 0.0000 0.0000 0.0000
# 3 25.1358 3.1702 100.9349 0.0000 0.0000 0.0000
# 4 0.0000 0.0000 0.0000 44.9563 0.0000 0.0000
# 5 0.0000 0.0000 0.0000 0.0000 46.4231 0.0000
# 6 0.0000 0.0000 0.0000 0.0000 0.0000 44.4921
#
#
#
# Elastic Compliance Matrix: (Units=1/GPa)
#
#
# Indices 1 2 3 4 5 6 
#
# 1 0.011128 -0.000264 -0.002763 0.000000 0.000000 0.000000
# 2 -0.000264 0.019241 -0.000539 0.000000 0.000000 0.000000
# 3 -0.002763 -0.000539 0.010612 0.000000 0.000000 0.000000
# 4 0.000000 0.000000 0.000000 0.022244 0.000000 0.000000
# 5 0.000000 0.000000 0.000000 0.000000 0.021541 0.000000
# 6 0.000000 0.000000 0.000000 0.000000 0.000000 0.022476
#
#
# Mechanical properties :
#
#
# Convention : Reuss Voigt Hill
#
# Bulk Modulus (GPa) = 29.54088 34.42540 31.98314
# Shear Modulus (GPa) = 39.79104 41.76423 40.77763
#
# Velocity S-wave (km/s) = 4.14778 4.24938 4.19889
# Velocity P-wave (km/s) = 5.97588 6.24184 6.11031
#
# Compressibility (1/GPa) = 0.03385139
#
# Stress axis : x y z
#
# Youngs Moduli (GPa) = 89.86417 51.97126 94.22993
#
# Poissons Ratio (x) = 0.01369 0.26035
# Poissons Ratio (y) = 0.02368 0.05076
# Poissons Ratio (z) = 0.24829 0.02800
#
# Static dielectric constant tensor:
#      x y z
#    x 1.855820 0.000000 0.000000 
#    y 0.000000 2.077990 0.000000 
#    z 0.000000 0.000000 1.718120 
# 
# From -- ./inp_files/24803.got.cif
#   From: 2010.05.17/outbox.cif.g08.bks.cpg/sg52_13_cif.got.tgz:24803.got - 2010.06.03 12:15:38.
