data_PCOD9413149
_publ_section_title
;
Structure prediction by ZEFSAII (Michael W. Deem and Ramdas Pophale) SiO2 
 PCOD9413149
Probable space group: P N N A
;
_chemical_formula_sum "Si O2"
_cell_formula_units_Z 48
_cell_length_a 16.505624
_cell_length_b 17.173179
_cell_length_c 8.940931
_cell_angle_alpha 90.000000
_cell_angle_beta 90.000000
_cell_angle_gamma 90.000000
_cell_volume 2534.342973
_symmetry_space_group_name_H-M "P N N A"
_symmetry_group_IT_number 52
_symmetry_cell_setting 'orthorhombic'
loop_
_space_group_symop_operation_xyz
x,y,z
1/2-x,-y,z
x,1/2-y,1/2-z
1/2-x,1/2+y,1/2-z
-x,-y,-z
1/2+x,y,-z
-x,1/2+y,1/2+z
1/2+x,1/2-y,1/2+z
loop_
_atom_site_type_symbol
_atom_site_label
_atom_site_fract_x
_atom_site_fract_y
_atom_site_fract_z
Si Si1 0.167930 0.469241 0.685453
Si Si2 0.771152 0.910358 0.872024
Si Si3 0.424093 0.840370 0.295177
Si Si4 0.459591 0.077426 0.930752
Si Si5 0.597956 0.838565 0.797973
Si Si6 0.525976 0.078689 0.413087
O O1 0.250000 0.500000 0.762391
O O2 0.192912 0.414896 0.543083
O O3 0.128150 0.546720 0.614746
O O4 0.098742 0.436705 0.794553
O O5 0.839969 0.875766 0.764840
O O6 0.689068 0.863313 0.840130
O O7 0.750000 0.000000 0.836044
O O8 0.428571 0.750000 0.250000
O O9 0.491871 0.889758 0.207538
O O10 0.440640 0.858586 0.468150
O O11 0.454071 0.143631 0.054312
O O12 0.500000 0.000000 0.000000
O O13 0.595357 0.750000 0.750000
O O14 0.553845 0.890493 0.672006
O O15 0.500000 0.000000 0.500000
#
# Coordination Sequence:
#
# PCOD9413149 Si02
#       6
#     8   8   8   8   8   8
#     4  11  22  39  70  97 120 169 242 278 321 402
#     4  11  21  42  68  92 125 181 228 269 329 423
#     4  12  25  41  63  97 140 174 213 287 350 389
#     4  12  19  42  70  91 125 184 232 262 326 424
#     4  12  24  40  66 101 134 173 223 284 342 401
#     4  12  24  41  66  99 132 173 229 283 333 403
#
# _framework density 18.939820000000001
#
# number of rings (size 3 to 8) (size 9 to 14) (size 15 to 20)
#    0.000    0.333    8.333    2.500    0.000    2.000 
#    0.000    0.000    0.000    2.000    0.000    0.000 
#    0.000    0.000    0.000    0.000    0.000    0.000 
#
# Total GULP energy -267952.652446 kJ/mol
# GULP energy per Si atom -5582.346926 kJ/mol
# Density = 1.889671 g / cm^3
# Si number density = 18.939820 Si / 1000 Ang^3
#
#
#
# Elastic Constant Matrix: (Units=GPa)
#
#
# Indices 1 2 3 4 5 6 
#
# 1 125.5418 36.5454 53.8398 0.0000 0.0000 0.0000
# 2 36.5454 109.7040 46.0424 0.0000 0.0000 0.0000
# 3 53.8398 46.0424 114.5965 0.0000 0.0000 0.0000
# 4 0.0000 0.0000 0.0000 35.8627 0.0000 0.0000
# 5 0.0000 0.0000 0.0000 0.0000 39.3257 0.0000
# 6 0.0000 0.0000 0.0000 0.0000 0.0000 29.1290
#
#
#
# Elastic Compliance Matrix: (Units=1/GPa)
#
#
# Indices 1 2 3 4 5 6 
#
# 1 0.010224 -0.001672 -0.004132 0.000000 0.000000 0.000000
# 2 -0.001672 0.011238 -0.003730 0.000000 0.000000 0.000000
# 3 -0.004132 -0.003730 0.012166 0.000000 0.000000 0.000000
# 4 0.000000 0.000000 0.000000 0.027884 0.000000 0.000000
# 5 0.000000 0.000000 0.000000 0.000000 0.025429 0.000000
# 6 0.000000 0.000000 0.000000 0.000000 0.000000 0.034330
#
#
# Mechanical properties :
#
#
# Convention : Reuss Voigt Hill
#
# Bulk Modulus (GPa) = 68.67523 69.18860 68.93192
# Shear Modulus (GPa) = 34.43746 35.09113 34.76429
#
# Velocity S-wave (km/s) = 4.26873 4.30905 4.28894
# Velocity P-wave (km/s) = 7.78681 7.83373 7.81031
#
# Compressibility (1/GPa) = 0.01456129
#
# Stress axis : x y z
#
# Youngs Moduli (GPa) = 97.80808 88.98644 82.19668
#
# Poissons Ratio (x) = 0.14877 0.33962
# Poissons Ratio (y) = 0.16352 0.30656
# Poissons Ratio (z) = 0.40412 0.33188
#
# Static dielectric constant tensor:
#      x y z
#    x 1.689070 0.000000 0.000000 
#    y 0.000000 1.628970 0.000000 
#    z 0.000000 0.000000 1.690080 
# 
# From -- ./inp_files/10456.got.cif
#   From: 2010.05.17/outbox.cif.g08.bks.cpg/sg52_6_cif.got.tgz:10456.got - 2010.06.03 12:15:38.
