data_PCOD9413812
_publ_section_title
;
Structure prediction by ZEFSAII (Michael W. Deem and Ramdas Pophale) SiO2 
 PCOD9413812
Probable space group: P N N A
;
_chemical_formula_sum "Si O2"
_cell_formula_units_Z 28
_cell_length_a 8.438440
_cell_length_b 13.122686
_cell_length_c 9.761073
_cell_angle_alpha 90.000000
_cell_angle_beta 90.000000
_cell_angle_gamma 90.000000
_cell_volume 1080.892404
_symmetry_space_group_name_H-M "P N N A"
_symmetry_group_IT_number 52
_symmetry_cell_setting 'orthorhombic'
loop_
_space_group_symop_operation_xyz
x,y,z
1/2-x,-y,z
x,1/2-y,1/2-z
1/2-x,1/2+y,1/2-z
-x,-y,-z
1/2+x,y,-z
-x,1/2+y,1/2+z
1/2+x,1/2-y,1/2+z
loop_
_atom_site_type_symbol
_atom_site_label
_atom_site_fract_x
_atom_site_fract_y
_atom_site_fract_z
Si Si1 0.697860 0.703258 0.566931
Si Si2 0.813423 0.395046 0.094693
Si Si3 0.014982 0.584088 0.625638
Si Si4 0.931949 0.750000 0.250000
O O1 0.653742 0.819709 0.531279
O O2 0.669500 0.643002 0.427577
O O3 0.364964 0.837868 0.120814
O O4 0.553383 0.678007 0.666643
O O5 0.750000 0.500000 0.038085
O O6 0.941631 0.427291 0.212568
O O7 0.676834 0.326476 0.164427
O O8 0.000000 0.500000 0.500000
#
# Coordination Sequence:
#
# PCOD9413812 Si02
#       4
#     8   8   8   4
#     4  12  25  45  72 107 151 191 251 309 377 455
#     4  12  26  49  76 107 151 199 252 323 386 453
#     4  12  24  45  77 108 144 200 252 310 382 458
#     4  12  26  46  72 112 150 200 250 310 384 462
#
# _framework density 25.904522
#
# number of rings (size 3 to 8) (size 9 to 14) (size 15 to 20)
#    0.000    0.000    5.714    4.286    4.000    1.143 
#    0.000    2.857    0.000    0.000    0.000    0.000 
#    0.000    0.000    0.000    0.000    0.000    0.000 
#
# Total GULP energy -156007.904961 kJ/mol
# GULP energy per Si atom -5571.710891 kJ/mol
# Density = 2.584556 g / cm^3
# Si number density = 25.904522 Si / 1000 Ang^3
#
#
#
# Elastic Constant Matrix: (Units=GPa)
#
#
# Indices 1 2 3 4 5 6 
#
# 1 116.5933 20.9299 41.1330 0.0000 0.0000 0.0000
# 2 20.9299 144.3333 32.3882 0.0000 0.0000 0.0000
# 3 41.1330 32.3882 77.6590 0.0000 0.0000 0.0000
# 4 0.0000 0.0000 0.0000 47.8156 0.0000 0.0000
# 5 0.0000 0.0000 0.0000 0.0000 37.4580 0.0000
# 6 0.0000 0.0000 0.0000 0.0000 0.0000 28.4347
#
#
#
# Elastic Compliance Matrix: (Units=1/GPa)
#
#
# Indices 1 2 3 4 5 6 
#
# 1 0.010560 -0.000305 -0.005466 0.000000 0.000000 0.000000
# 2 -0.000305 0.007653 -0.003030 0.000000 0.000000 0.000000
# 3 -0.005466 -0.003030 0.017036 0.000000 0.000000 0.000000
# 4 0.000000 0.000000 0.000000 0.020914 0.000000 0.000000
# 5 0.000000 0.000000 0.000000 0.000000 0.026697 0.000000
# 6 0.000000 0.000000 0.000000 0.000000 0.000000 0.035168
#
#
# Mechanical properties :
#
#
# Convention : Reuss Voigt Hill
#
# Bulk Modulus (GPa) = 56.66919 58.60975 57.63947
# Shear Modulus (GPa) = 35.33301 39.01730 37.17515
#
# Velocity S-wave (km/s) = 3.69720 3.88518 3.79236
# Velocity P-wave (km/s) = 6.33636 6.54222 6.44011
#
# Compressibility (1/GPa) = 0.01764627
#
# Stress axis : x y z
#
# Youngs Moduli (GPa) = 94.69776 130.67524 58.70011
#
# Poissons Ratio (x) = 0.03982 0.32086
# Poissons Ratio (y) = 0.02886 0.17787
# Poissons Ratio (z) = 0.51763 0.39597
#
# Static dielectric constant tensor:
#      x y z
#    x 2.003100 0.000000 0.000000 
#    y 0.000000 2.340140 0.000000 
#    z 0.000000 0.000000 2.203970 
# 
# From -- ./inp_files/8092.got.cif
#   From: 2010.05.17/outbox.cif.g08.bks.cpg/sg52_5_cif.got.tgz:8092.got - 2010.06.03 12:15:38.
