data_PCOD9413756
_publ_section_title
;
Structure prediction by ZEFSAII (Michael W. Deem and Ramdas Pophale) SiO2 
 PCOD9413756
Probable space group: P N N A
;
_chemical_formula_sum "Si O2"
_cell_formula_units_Z 32
_cell_length_a 5.181099
_cell_length_b 19.588548
_cell_length_c 11.459723
_cell_angle_alpha 90.000000
_cell_angle_beta 90.000000
_cell_angle_gamma 90.000000
_cell_volume 1163.049653
_symmetry_space_group_name_H-M "P N N A"
_symmetry_group_IT_number 52
_symmetry_cell_setting 'orthorhombic'
loop_
_space_group_symop_operation_xyz
x,y,z
1/2-x,-y,z
x,1/2-y,1/2-z
1/2-x,1/2+y,1/2-z
-x,-y,-z
1/2+x,y,-z
-x,1/2+y,1/2+z
1/2+x,1/2-y,1/2+z
loop_
_atom_site_type_symbol
_atom_site_label
_atom_site_fract_x
_atom_site_fract_y
_atom_site_fract_z
Si Si1 0.938670 0.133925 0.919632
Si Si2 0.727934 0.250000 0.750000
Si Si3 0.828490 0.302315 0.057074
Si Si4 0.943815 0.047158 0.388248
Si Si5 0.750000 0.500000 0.692843
O O1 0.879176 0.185191 0.810108
O O2 0.910556 0.053403 0.886135
O O3 0.716676 0.146206 0.018955
O O4 0.516299 0.277657 0.842525
O O5 0.825061 0.383762 0.068014
O O6 0.026501 0.284962 0.950511
O O7 0.750000 0.000000 0.315531
O O8 0.000000 0.000000 0.500000
O O9 0.156630 0.055732 0.290841
#
# Coordination Sequence:
#
# PCOD9413756 Si02
#       5
#     8   4   8   8   4
#     4  12  30  53  77 113 152 201 260 311 379 466
#     4  12  28  52  80 108 156 202 250 312 388 456
#     4  12  26  46  73 110 151 192 247 311 375 453
#     4  12  23  41  73 114 151 188 254 313 376 440
#     4  12  26  48  76 110 152 210 244 322 384 444
#
# _framework density 27.513871999999999
#
# number of rings (size 3 to 8) (size 9 to 14) (size 15 to 20)
#    0.000    0.000    6.250    2.250    3.500    4.000 
#    0.000    0.000    0.000    0.000    0.000    0.000 
#    0.000    0.000    0.000    0.000    0.000    0.000 
#
# Total GULP energy -178510.478132 kJ/mol
# GULP energy per Si atom -5578.452442 kJ/mol
# Density = 2.745125 g / cm^3
# Si number density = 27.513872 Si / 1000 Ang^3
#
#
#
# Elastic Constant Matrix: (Units=GPa)
#
#
# Indices 1 2 3 4 5 6 
#
# 1 148.9033 3.8983 25.0513 0.0000 0.0000 0.0000
# 2 3.8983 130.0529 28.2572 0.0000 0.0000 0.0000
# 3 25.0513 28.2572 95.5929 0.0000 0.0000 0.0000
# 4 0.0000 0.0000 0.0000 36.9622 0.0000 0.0000
# 5 0.0000 0.0000 0.0000 0.0000 24.6229 0.0000
# 6 0.0000 0.0000 0.0000 0.0000 0.0000 39.4587
#
#
#
# Elastic Compliance Matrix: (Units=1/GPa)
#
#
# Indices 1 2 3 4 5 6 
#
# 1 0.007031 0.000203 -0.001902 0.000000 0.000000 0.000000
# 2 0.000203 0.008223 -0.002484 0.000000 0.000000 0.000000
# 3 -0.001902 -0.002484 0.011694 0.000000 0.000000 0.000000
# 4 0.000000 0.000000 0.000000 0.027055 0.000000 0.000000
# 5 0.000000 0.000000 0.000000 0.000000 0.040613 0.000000
# 6 0.000000 0.000000 0.000000 0.000000 0.000000 0.025343
#
#
# Mechanical properties :
#
#
# Convention : Reuss Voigt Hill
#
# Bulk Modulus (GPa) = 53.82104 54.32917 54.07511
# Shear Modulus (GPa) = 37.16986 41.36490 39.26738
#
# Velocity S-wave (km/s) = 3.67951 3.88160 3.78191
# Velocity P-wave (km/s) = 6.13642 6.31491 6.22630
#
# Compressibility (1/GPa) = 0.01858009
#
# Stress axis : x y z
#
# Youngs Moduli (GPa) = 142.23722 121.61369 85.51584
#
# Poissons Ratio (x) = -0.02464 0.16268
# Poissons Ratio (y) = -0.02882 0.21240
# Poissons Ratio (z) = 0.27058 0.30206
#
# Static dielectric constant tensor:
#      x y z
#    x -39.812370 0.000000 0.000000 
#    y 0.000000 2.424140 0.000000 
#    z 0.000000 0.000000 2.432140 
# 
# From -- ./inp_files/15973.got.cif
#   From: 2010.05.17/outbox.cif.g08.bks.cpg/sg52_8_cif.got.tgz:15973.got - 2010.06.03 12:15:38.
