data_PCOD9413231
_publ_section_title
;
Structure prediction by ZEFSAII (Michael W. Deem and Ramdas Pophale) SiO2 
 PCOD9413231
Probable space group: P N N A
;
_chemical_formula_sum "Si O2"
_cell_formula_units_Z 48
_cell_length_a 8.715502
_cell_length_b 15.744456
_cell_length_c 15.398452
_cell_angle_alpha 90.000000
_cell_angle_beta 90.000000
_cell_angle_gamma 90.000000
_cell_volume 2112.988484
_symmetry_space_group_name_H-M "P N N A"
_symmetry_group_IT_number 52
_symmetry_cell_setting 'orthorhombic'
loop_
_space_group_symop_operation_xyz
x,y,z
1/2-x,-y,z
x,1/2-y,1/2-z
1/2-x,1/2+y,1/2-z
-x,-y,-z
1/2+x,y,-z
-x,1/2+y,1/2+z
1/2+x,1/2-y,1/2+z
loop_
_atom_site_type_symbol
_atom_site_label
_atom_site_fract_x
_atom_site_fract_y
_atom_site_fract_z
Si Si1 0.684526 0.649447 0.735506
Si Si2 0.660321 0.147690 0.265520
Si Si3 0.349666 0.340133 0.932081
Si Si4 0.680283 0.091502 0.588208
Si Si5 0.846559 0.353907 0.398814
Si Si6 0.171164 0.090530 0.056720
O O1 0.682406 0.750000 0.750000
O O2 0.510938 0.615523 0.747931
O O3 0.787865 0.609529 0.810941
O O4 0.750332 0.631848 0.640871
O O5 0.654061 0.250000 0.250000
O O6 0.723184 0.130720 0.361527
O O7 0.782292 0.118303 0.193935
O O8 0.501001 0.397265 0.929957
O O9 0.396593 0.244938 0.902296
O O10 0.273530 0.343089 0.026818
O O11 0.750000 0.000000 0.566096
O O12 0.710260 0.360487 0.468442
O O13 0.990409 0.409612 0.427404
O O14 0.250000 0.000000 0.048043
#
# Coordination Sequence:
#
# PCOD9413231 Si02
#       6
#     8   8   8   8   8   8
#     4  11  22  41  65  90 121 165 214 259 308 376
#     4   9  21  39  64  92 118 153 208 263 304 354
#     4  11  22  41  65  90 121 165 214 259 308 376
#     4  12  25  41  61  93 130 164 205 264 322 368
#     4  11  22  41  65  90 121 165 214 259 308 376
#     4  12  25  41  61  93 130 164 205 264 322 368
#
# _framework density 22.716640000000002
#
# number of rings (size 3 to 8) (size 9 to 14) (size 15 to 20)
#    0.000    1.000    0.000    7.500    0.000    4.000 
#    0.000    2.500    0.000    0.000    0.000    0.000 
#    0.000    0.000    0.000    0.000    0.000    0.000 
#
# Total GULP energy -268781.324244 kJ/mol
# GULP energy per Si atom -5599.610922 kJ/mol
# Density = 2.266494 g / cm^3
# Si number density = 22.716640 Si / 1000 Ang^3
#
#
#
# Elastic Constant Matrix: (Units=GPa)
#
#
# Indices 1 2 3 4 5 6 
#
# 1 63.1284 -15.3758 -9.3813 0.0000 0.0000 0.0000
# 2 -15.3758 36.9915 -1.5615 0.0000 0.0000 0.0000
# 3 -9.3813 -1.5615 60.6113 0.0000 0.0000 0.0000
# 4 0.0000 0.0000 0.0000 14.0865 0.0000 0.0000
# 5 0.0000 0.0000 0.0000 0.0000 50.4281 0.0000
# 6 0.0000 0.0000 0.0000 0.0000 0.0000 -225.4902
#
#
#
# Elastic Compliance Matrix: (Units=1/GPa)
#
#
# Indices 1 2 3 4 5 6 
#
# 1 0.018157 0.007674 0.003008 0.000000 0.000000 0.000000
# 2 0.007674 0.030306 0.001969 0.000000 0.000000 0.000000
# 3 0.003008 0.001969 0.017015 0.000000 0.000000 0.000000
# 4 0.000000 0.000000 0.000000 0.070990 0.000000 0.000000
# 5 0.000000 0.000000 0.000000 0.000000 0.019830 0.000000
# 6 0.000000 0.000000 0.000000 0.000000 0.000000 -0.004435
#
#
# Mechanical properties :
#
#
# Convention : Reuss Voigt Hill
#
# Bulk Modulus (GPa) = 11.01576 12.01042 11.51309
# Shear Modulus (GPa) = 31.88339 -19.72512 6.07913
#
# Velocity S-wave (km/s) = 3.75043 -2.94991 1.63764
# Velocity P-wave (km/s) = 4.85943 2.51079 2.94193
#
# Compressibility (1/GPa) = 0.09077900
#
# Stress axis : x y z
#
# Youngs Moduli (GPa) = 55.07560 32.99666 58.77212
#
# Poissons Ratio (x) = -0.25322 -0.17679
# Poissons Ratio (y) = -0.42265 -0.11570
# Poissons Ratio (z) = -0.16567 -0.06496
#
# Static dielectric constant tensor:
#      x y z
#    x 1.808560 0.000000 0.000000 
#    y 0.000000 1.876710 0.000000 
#    z 0.000000 0.000000 1.874570 
# 
# From -- ./inp_files/24705.got.cif
#   From: 2010.05.17/outbox.cif.g08.bks.cpg/sg52_13_cif.got.tgz:24705.got - 2010.06.03 12:15:38.
