data_PCOD9413852
_publ_section_title
;
Structure prediction by ZEFSAII (Michael W. Deem and Ramdas Pophale) SiO2 
 PCOD9413852
Probable space group: P N N A
;
_chemical_formula_sum "Si O2"
_cell_formula_units_Z 32
_cell_length_a 8.529877
_cell_length_b 28.157988
_cell_length_c 4.751536
_cell_angle_alpha 90.000000
_cell_angle_beta 90.000000
_cell_angle_gamma 90.000000
_cell_volume 1141.243750
_symmetry_space_group_name_H-M "P N N A"
_symmetry_group_IT_number 52
_symmetry_cell_setting 'orthorhombic'
loop_
_space_group_symop_operation_xyz
x,y,z
1/2-x,-y,z
x,1/2-y,1/2-z
1/2-x,1/2+y,1/2-z
-x,-y,-z
1/2+x,y,-z
-x,1/2+y,1/2+z
1/2+x,1/2-y,1/2+z
loop_
_atom_site_type_symbol
_atom_site_label
_atom_site_fract_x
_atom_site_fract_y
_atom_site_fract_z
Si Si1 0.879256 0.598840 0.726590
Si Si2 0.173650 0.217817 0.479570
Si Si3 0.434124 0.344705 0.304306
Si Si4 0.403019 0.531692 0.781854
O O1 0.696337 0.612874 0.710120
O O2 0.896751 0.580353 0.041047
O O3 0.986665 0.641213 0.602459
O O4 0.927053 0.553593 0.528274
O O5 0.214228 0.250000 0.750000
O O6 0.316672 0.197771 0.291566
O O7 0.083566 0.173840 0.623814
O O8 0.081772 0.250000 0.250000
O O9 0.250000 0.500000 0.747753
O O10 0.500000 0.500000 0.000000
#
# Coordination Sequence:
#
# PCOD9413852 Si02
#       4
#     8   8   8   8
#     4  12  27  47  76 111 152 201 252 315 384 455
#     4  12  28  50  80 114 154 206 262 325 392 465
#     4  12  28  51  78 114 155 202 260 322 388 464
#     4  12  25  46  74 109 151 199 250 310 379 458
#
# _framework density 28.039580999999998
#
# number of rings (size 3 to 8) (size 9 to 14) (size 15 to 20)
#    0.000    0.000    0.000    9.000    0.000   14.000 
#    0.000    0.000    0.000    0.000    0.000    0.000 
#    0.000    0.000    0.000    0.000    0.000    0.000 
#
# Total GULP energy -178491.120970 kJ/mol
# GULP energy per Si atom -5577.847530 kJ/mol
# Density = 2.797576 g / cm^3
# Si number density = 28.039581 Si / 1000 Ang^3
#
#
#
# Elastic Constant Matrix: (Units=GPa)
#
#
# Indices 1 2 3 4 5 6 
#
# 1 100.8683 32.5918 23.2107 0.0000 0.0000 0.0000
# 2 32.5918 161.9361 46.3266 0.0000 0.0000 0.0000
# 3 23.2107 46.3266 199.6521 0.0000 0.0000 0.0000
# 4 0.0000 0.0000 0.0000 39.4992 0.0000 0.0000
# 5 0.0000 0.0000 0.0000 0.0000 34.9491 0.0000
# 6 0.0000 0.0000 0.0000 0.0000 0.0000 26.3894
#
#
#
# Elastic Compliance Matrix: (Units=1/GPa)
#
#
# Indices 1 2 3 4 5 6 
#
# 1 0.010721 -0.001929 -0.000799 0.000000 0.000000 0.000000
# 2 -0.001929 0.006962 -0.001391 0.000000 0.000000 0.000000
# 3 -0.000799 -0.001391 0.005424 0.000000 0.000000 0.000000
# 4 0.000000 0.000000 0.000000 0.025317 0.000000 0.000000
# 5 0.000000 0.000000 0.000000 0.000000 0.028613 0.000000
# 6 0.000000 0.000000 0.000000 0.000000 0.000000 0.037894
#
#
# Mechanical properties :
#
#
# Convention : Reuss Voigt Hill
#
# Bulk Modulus (GPa) = 67.25458 74.07944 70.66701
# Shear Modulus (GPa) = 39.02431 44.18936 41.60684
#
# Velocity S-wave (km/s) = 3.73467 3.97415 3.85627
# Velocity P-wave (km/s) = 6.52953 6.89459 6.71454
#
# Compressibility (1/GPa) = 0.01486888
#
# Stress axis : x y z
#
# Youngs Moduli (GPa) = 93.27414 143.64689 184.35417
#
# Poissons Ratio (x) = 0.27713 0.14725
# Poissons Ratio (y) = 0.17995 0.25644
# Poissons Ratio (z) = 0.07450 0.19982
#
# Static dielectric constant tensor:
#      x y z
#    x 2.243560 0.000000 0.000000 
#    y 0.000000 2.446900 0.000000 
#    z 0.000000 0.000000 2.152530 
# 
# From -- ./inp_files/398.got.cif
#   From: 2010.05.17/outbox.cif.g08.bks.cpg/sg52_1_cif.got.tgz:398.got - 2010.06.03 12:15:38.
