data_PCOD9413219
_publ_section_title
;
Structure prediction by ZEFSAII (Michael W. Deem and Ramdas Pophale) SiO2 
 PCOD9413219
Probable space group: P N N A
;
_chemical_formula_sum "Si O2"
_cell_formula_units_Z 44
_cell_length_a 14.180393
_cell_length_b 18.289188
_cell_length_c 6.632520
_cell_angle_alpha 90.000000
_cell_angle_beta 90.000000
_cell_angle_gamma 90.000000
_cell_volume 1720.129958
_symmetry_space_group_name_H-M "P N N A"
_symmetry_group_IT_number 52
_symmetry_cell_setting 'orthorhombic'
loop_
_space_group_symop_operation_xyz
x,y,z
1/2-x,-y,z
x,1/2-y,1/2-z
1/2-x,1/2+y,1/2-z
-x,-y,-z
1/2+x,y,-z
-x,1/2+y,1/2+z
1/2+x,1/2-y,1/2+z
loop_
_atom_site_type_symbol
_atom_site_label
_atom_site_fract_x
_atom_site_fract_y
_atom_site_fract_z
Si Si1 0.985605 0.863019 0.485714
Si Si2 0.126867 0.250000 0.250000
Si Si3 0.780312 0.171879 0.021965
Si Si4 0.913556 0.250000 0.750000
Si Si5 0.320015 0.564746 0.764259
Si Si6 0.000000 0.500000 0.000000
Si Si7 0.648259 0.982010 0.859378
O O1 0.936823 0.804419 0.622999
O O2 0.909093 0.925748 0.413447
O O3 0.023557 0.819709 0.296716
O O4 0.052657 0.920677 0.589843
O O5 0.192058 0.199311 0.110375
O O6 0.854166 0.235520 0.956166
O O7 0.832349 0.099178 0.943045
O O8 0.733115 0.142954 0.230805
O O9 0.250000 0.500000 0.822476
O O10 0.357513 0.538700 0.545973
O O11 0.061178 0.511144 0.214761
O O12 0.750000 0.000000 0.758849
#
# Coordination Sequence:
#
# PCOD9413219 Si02
#       7
#     8   4   8   4   8   4   8
#     4  12  25  43  66 103 135 185 231 309 356 446
#     4  11  24  42  68  93 140 182 242 287 374 428
#     4   9  19  43  65  91 131 188 219 294 349 438
#     4  11  22  40  66  95 140 176 224 279 370 420
#     4   9  21  43  70  98 132 184 244 297 364 432
#     4  12  24  40  70 104 142 188 238 302 370 434
#     4   9  19  41  69  99 138 186 241 299 365 431
#
# _framework density 25.579461999999999
#
# number of rings (size 3 to 8) (size 9 to 14) (size 15 to 20)
#    0.000    2.182    1.818    3.273    0.000    2.909 
#    6.545    0.000    0.000    0.000    0.000    0.000 
#    0.000    0.000    0.000    0.000    0.000    0.000 
#
# Total GULP energy -245140.795450 kJ/mol
# GULP energy per Si atom -5571.381715 kJ/mol
# Density = 2.552124 g / cm^3
# Si number density = 25.579462 Si / 1000 Ang^3
#
#
#
# Elastic Constant Matrix: (Units=GPa)
#
#
# Indices 1 2 3 4 5 6 
#
# 1 88.1027 28.9778 42.6439 0.0000 0.0000 0.0000
# 2 28.9778 143.7157 36.3587 0.0000 0.0000 0.0000
# 3 42.6439 36.3587 74.3039 0.0000 0.0000 0.0000
# 4 0.0000 0.0000 0.0000 40.9345 0.0000 0.0000
# 5 0.0000 0.0000 0.0000 0.0000 21.2916 0.0000
# 6 0.0000 0.0000 0.0000 0.0000 0.0000 31.9908
#
#
#
# Elastic Compliance Matrix: (Units=1/GPa)
#
#
# Indices 1 2 3 4 5 6 
#
# 1 0.015846 -0.001021 -0.008595 0.000000 0.000000 0.000000
# 2 -0.001021 0.008007 -0.003332 0.000000 0.000000 0.000000
# 3 -0.008595 -0.003332 0.020021 0.000000 0.000000 0.000000
# 4 0.000000 0.000000 0.000000 0.024429 0.000000 0.000000
# 5 0.000000 0.000000 0.000000 0.000000 0.046967 0.000000
# 6 0.000000 0.000000 0.000000 0.000000 0.000000 0.031259
#
#
# Mechanical properties :
#
#
# Convention : Reuss Voigt Hill
#
# Bulk Modulus (GPa) = 55.62014 58.00923 56.81468
# Shear Modulus (GPa) = 28.02398 32.05284 30.03841
#
# Velocity S-wave (km/s) = 3.31352 3.54371 3.43055
# Velocity P-wave (km/s) = 6.03577 6.28261 6.16042
#
# Compressibility (1/GPa) = 0.01797910
#
# Stress axis : x y z
#
# Youngs Moduli (GPa) = 63.10643 124.89057 49.94635
#
# Poissons Ratio (x) = 0.12748 0.42928
# Poissons Ratio (y) = 0.06441 0.16643
# Poissons Ratio (z) = 0.54239 0.41616
#
# Static dielectric constant tensor:
#      x y z
#    x 2.198080 0.000000 0.000000 
#    y 0.000000 2.324720 0.000000 
#    z 0.000000 0.000000 1.996700 
# 
# From -- ./inp_files/10391.got.cif
#   From: 2010.05.17/outbox.cif.g08.bks.cpg/sg52_6_cif.got.tgz:10391.got - 2010.06.03 12:15:38.
