data_PCOD9413816
_publ_section_title
;
Structure prediction by ZEFSAII (Michael W. Deem and Ramdas Pophale) SiO2 
 PCOD9413816
Probable space group: P N N A
;
_chemical_formula_sum "Si O2"
_cell_formula_units_Z 32
_cell_length_a 9.291301
_cell_length_b 7.191159
_cell_length_c 16.229039
_cell_angle_alpha 90.000000
_cell_angle_beta 90.000000
_cell_angle_gamma 90.000000
_cell_volume 1084.346857
_symmetry_space_group_name_H-M "P N N A"
_symmetry_group_IT_number 52
_symmetry_cell_setting 'orthorhombic'
loop_
_space_group_symop_operation_xyz
x,y,z
1/2-x,-y,z
x,1/2-y,1/2-z
1/2-x,1/2+y,1/2-z
-x,-y,-z
1/2+x,y,-z
-x,1/2+y,1/2+z
1/2+x,1/2-y,1/2+z
loop_
_atom_site_type_symbol
_atom_site_label
_atom_site_fract_x
_atom_site_fract_y
_atom_site_fract_z
Si Si1 0.516159 0.336720 0.621828
Si Si2 0.217717 0.250000 0.250000
Si Si3 0.399390 0.223563 0.089053
Si Si4 0.705201 0.287747 0.157114
Si Si5 0.000000 0.000000 0.500000
O O1 0.598479 0.383911 0.708456
O O2 0.411526 0.494310 0.428445
O O3 0.346430 0.338227 0.640885
O O4 0.550724 0.139532 0.580503
O O5 0.317822 0.279119 0.171327
O O6 0.569845 0.281706 0.094990
O O7 0.364138 0.353839 0.013681
O O8 0.750000 0.500000 0.157247
O O9 0.651287 0.250000 0.250000
#
# Coordination Sequence:
#
# PCOD9413816 Si02
#       5
#     8   4   8   8   4
#     4  12  28  50  82 119 169 219 280 347 424 511
#     4  12  30  50  84 132 170 218 290 360 420 500
#     4  12  28  50  82 119 169 219 280 347 424 511
#     4  12  24  46  75 114 148 205 273 333 394 492
#     4  12  30  54  80 124 176 222 270 356 436 516
#
# _framework density 29.510852
#
# number of rings (size 3 to 8) (size 9 to 14) (size 15 to 20)
#    0.000    0.000    5.000    3.750    7.000    4.000 
#    0.000    5.000    0.000    0.000    0.000    0.000 
#    0.000    0.000    0.000    0.000    0.000    0.000 
#
# Total GULP energy -178140.700325 kJ/mol
# GULP energy per Si atom -5566.896885 kJ/mol
# Density = 2.944368 g / cm^3
# Si number density = 29.510852 Si / 1000 Ang^3
#
#
#
# Elastic Constant Matrix: (Units=GPa)
#
#
# Indices 1 2 3 4 5 6 
#
# 1 190.3204 14.9966 29.3279 0.0000 0.0000 0.0000
# 2 14.9966 176.8200 12.7676 0.0000 0.0000 0.0000
# 3 29.3279 12.7676 135.7604 0.0000 0.0000 0.0000
# 4 0.0000 0.0000 0.0000 -11.2760 0.0000 0.0000
# 5 0.0000 0.0000 0.0000 0.0000 -36.8776 0.0000
# 6 0.0000 0.0000 0.0000 0.0000 0.0000 18.3793
#
#
#
# Elastic Compliance Matrix: (Units=1/GPa)
#
#
# Indices 1 2 3 4 5 6 
#
# 1 0.005461 -0.000381 -0.001144 0.000000 0.000000 0.000000
# 2 -0.000381 0.005721 -0.000456 0.000000 0.000000 0.000000
# 3 -0.001144 -0.000456 0.007656 0.000000 0.000000 0.000000
# 4 0.000000 0.000000 0.000000 -0.088684 0.000000 0.000000
# 5 0.000000 0.000000 0.000000 0.000000 -0.027117 0.000000
# 6 0.000000 0.000000 0.000000 0.000000 0.000000 0.054409
#
#
# Mechanical properties :
#
#
# Convention : Reuss Voigt Hill
#
# Bulk Modulus (GPa) = 67.21894 68.56498 67.89196
# Shear Modulus (GPa) = -148.65264 23.76573 -62.44346
#
# Velocity S-wave (km/s) = -7.10504 2.84090 -4.60493
# Velocity P-wave (km/s) = 6.66945 5.83483 2.28434
#
# Compressibility (1/GPa) = 0.01487676
#
# Stress axis : x y z
#
# Youngs Moduli (GPa) = 183.13194 174.80521 130.61849
#
# Poissons Ratio (x) = 0.06652 0.14941
# Poissons Ratio (y) = 0.06969 0.05954
# Poissons Ratio (z) = 0.20947 0.07968
#
# Static dielectric constant tensor:
#      x y z
#    x 2.289840 0.000000 0.000000 
#    y 0.000000 2.081550 0.000000 
#    z 0.000000 0.000000 2.146750 
# 
# From -- ./inp_files/30812.got.cif
#   From: 2010.05.17/outbox.cif.g08.bks.cpg/sg52_16_cif.got.tgz:30812.got - 2010.06.03 12:15:38.
