data_PCOD9413119
_publ_section_title
;
Structure prediction by ZEFSAII (Michael W. Deem and Ramdas Pophale) SiO2 
 PCOD9413119
Probable space group: P N N A
;
_chemical_formula_sum "Si O2"
_cell_formula_units_Z 28
_cell_length_a 14.611035
_cell_length_b 5.143059
_cell_length_c 19.164181
_cell_angle_alpha 90.000000
_cell_angle_beta 90.000000
_cell_angle_gamma 90.000000
_cell_volume 1440.100335
_symmetry_space_group_name_H-M "P N N A"
_symmetry_group_IT_number 52
_symmetry_cell_setting 'orthorhombic'
loop_
_space_group_symop_operation_xyz
x,y,z
1/2-x,-y,z
x,1/2-y,1/2-z
1/2-x,1/2+y,1/2-z
-x,-y,-z
1/2+x,y,-z
-x,1/2+y,1/2+z
1/2+x,1/2-y,1/2+z
loop_
_atom_site_type_symbol
_atom_site_label
_atom_site_fract_x
_atom_site_fract_y
_atom_site_fract_z
Si Si1 0.250000 0.500000 0.122219
Si Si2 0.497350 0.688334 0.065974
Si Si3 0.927832 0.513120 0.795538
Si Si4 0.153249 0.593756 0.484379
O O1 0.171946 0.402540 0.175032
O O2 0.191074 0.692599 0.071964
O O3 0.489151 0.515999 0.134824
O O4 0.411259 0.886355 0.056860
O O5 0.500000 0.500000 0.000000
O O6 0.591614 0.835582 0.051052
O O7 0.963545 0.750000 0.750000
O O8 0.923560 0.250000 0.750000
O O9 0.250000 0.500000 0.512222
#
# Coordination Sequence:
#
# PCOD9413119 Si02
#       4
#     4   8   8   8
#     4  12  22  40  62 104 136 178 214 282 360 424
#     4  11  23  40  66  96 134 185 234 283 338 415
#     4  12  26  41  64 100 144 180 212 280 361 434
#     4  11  21  38  68  97 134 176 242 290 337 402
#
# _framework density 19.443087999999999
#
# number of rings (size 3 to 8) (size 9 to 14) (size 15 to 20)
#    0.000    0.571    5.714    2.571    4.000    0.000 
#    0.000    0.000    0.000    0.000   11.143    0.000 
#    0.000    0.000    0.000    0.000    0.000    0.000 
#
# Total GULP energy -155879.999646 kJ/mol
# GULP energy per Si atom -5567.142845 kJ/mol
# Density = 1.939884 g / cm^3
# Si number density = 19.443088 Si / 1000 Ang^3
#
#
#
# Elastic Constant Matrix: (Units=GPa)
#
#
# Indices 1 2 3 4 5 6 
#
# 1 139.3987 45.4897 48.9074 0.0000 0.0000 0.0000
# 2 45.4897 95.1641 51.1238 0.0000 0.0000 0.0000
# 3 48.9074 51.1238 139.5940 0.0000 0.0000 0.0000
# 4 0.0000 0.0000 0.0000 38.8126 0.0000 0.0000
# 5 0.0000 0.0000 0.0000 0.0000 17.5372 0.0000
# 6 0.0000 0.0000 0.0000 0.0000 0.0000 39.6944
#
#
#
# Elastic Compliance Matrix: (Units=1/GPa)
#
#
# Indices 1 2 3 4 5 6 
#
# 1 0.008904 -0.003212 -0.001943 0.000000 0.000000 0.000000
# 2 -0.003212 0.014241 -0.004090 0.000000 0.000000 0.000000
# 3 -0.001943 -0.004090 0.009342 0.000000 0.000000 0.000000
# 4 0.000000 0.000000 0.000000 0.025765 0.000000 0.000000
# 5 0.000000 0.000000 0.000000 0.000000 0.057022 0.000000
# 6 0.000000 0.000000 0.000000 0.000000 0.000000 0.025192
#
#
# Mechanical properties :
#
#
# Convention : Reuss Voigt Hill
#
# Bulk Modulus (GPa) = 71.44785 73.91094 72.67939
# Shear Modulus (GPa) = 30.55830 34.45123 32.50476
#
# Velocity S-wave (km/s) = 3.96874 4.21396 4.09319
# Velocity P-wave (km/s) = 7.60448 7.85959 7.73309
#
# Compressibility (1/GPa) = 0.01399622
#
# Stress axis : x y z
#
# Youngs Moduli (GPa) = 112.31414 70.22023 107.04020
#
# Poissons Ratio (x) = 0.22556 0.20798
# Poissons Ratio (y) = 0.36078 0.43780
# Poissons Ratio (z) = 0.21823 0.28721
#
# Static dielectric constant tensor:
#      x y z
#    x 1.833030 0.000000 0.000000 
#    y 0.000000 1.980390 0.000000 
#    z 0.000000 0.000000 1.853380 
# 
# From -- ./inp_files/32536.got.cif
#   From: 2010.05.17/outbox.cif.g08.bks.cpg/sg52_17_cif.got.tgz:32536.got - 2010.06.03 12:15:38.
