data_PCOD9413952
_publ_section_title
;
Structure prediction by ZEFSAII (Michael W. Deem and Ramdas Pophale) SiO2 
 PCOD9413952
Probable space group: P N N A
;
_chemical_formula_sum "Si O2"
_cell_formula_units_Z 20
_cell_length_a 6.527080
_cell_length_b 10.300620
_cell_length_c 10.128650
_cell_angle_alpha 90.000000
_cell_angle_beta 90.000000
_cell_angle_gamma 90.000000
_cell_volume 680.979230
_symmetry_space_group_name_H-M "P N N A"
_symmetry_group_IT_number 52
_symmetry_cell_setting 'orthorhombic'
loop_
_space_group_symop_operation_xyz
x,y,z
1/2-x,-y,z
x,1/2-y,1/2-z
1/2-x,1/2+y,1/2-z
-x,-y,-z
1/2+x,y,-z
-x,1/2+y,1/2+z
1/2+x,1/2-y,1/2+z
loop_
_atom_site_type_symbol
_atom_site_label
_atom_site_fract_x
_atom_site_fract_y
_atom_site_fract_z
Si Si1 0.514734 0.610487 0.614807
Si Si2 0.772652 0.629064 0.117457
Si Si3 0.885993 0.750000 0.750000
O O1 0.500000 0.500000 0.500000
O O2 0.398345 0.583514 0.752269
O O3 0.394671 0.742825 0.573932
O O4 0.237195 0.654410 0.331788
O O5 0.750000 0.500000 0.029412
O O6 0.547936 0.674012 0.160140
#
# Coordination Sequence:
#
# PCOD9413952 Si02
#       3
#     8   8   4
#     4   9  19  35  57  94 139 194 265 312 388 484
#     4   9  19  35  57  94 143 197 253 317 403 469
#     4   8  18  36  60  86 146 196 234 322 394 454
#
# _framework density 29.369471000000001
#
# number of rings (size 3 to 8) (size 9 to 14) (size 15 to 20)
#    0.000    4.000    0.000    0.000    0.000   12.800 
#    7.200    0.000    0.000    0.000    0.000   25.200 
#    0.000    4.400    0.000    4.800    0.000    0.000 
#
# Total GULP energy -111925.284451 kJ/mol
# GULP energy per Si atom -5596.264223 kJ/mol
# Density = 2.930262 g / cm^3
# Si number density = 29.369471 Si / 1000 Ang^3
#
#
#
# Elastic Constant Matrix: (Units=GPa)
#
#
# Indices 1 2 3 4 5 6 
#
# 1 285.5417 101.0701 81.7299 0.0000 0.0000 0.0000
# 2 101.0701 281.7905 85.0698 0.0000 0.0000 0.0000
# 3 81.7299 85.0698 163.4063 0.0000 0.0000 0.0000
# 4 0.0000 0.0000 0.0000 81.9788 0.0000 0.0000
# 5 0.0000 0.0000 0.0000 0.0000 27.1555 0.0000
# 6 0.0000 0.0000 0.0000 0.0000 0.0000 54.7216
#
#
#
# Elastic Compliance Matrix: (Units=1/GPa)
#
#
# Indices 1 2 3 4 5 6 
#
# 1 0.004343 -0.001070 -0.001615 0.000000 0.000000 0.000000
# 2 -0.001070 0.004474 -0.001794 0.000000 0.000000 0.000000
# 3 -0.001615 -0.001794 0.007862 0.000000 0.000000 0.000000
# 4 0.000000 0.000000 0.000000 0.012198 0.000000 0.000000
# 5 0.000000 0.000000 0.000000 0.000000 0.036825 0.000000
# 6 0.000000 0.000000 0.000000 0.000000 0.000000 0.018274
#
#
# Mechanical properties :
#
#
# Convention : Reuss Voigt Hill
#
# Bulk Modulus (GPa) = 129.53037 140.71980 135.12508
# Shear Modulus (GPa) = 52.35131 63.62911 57.99021
#
# Velocity S-wave (km/s) = 4.22656 4.65962 4.44836
# Velocity P-wave (km/s) = 8.24729 8.77309 8.51425
#
# Compressibility (1/GPa) = 0.00772020
#
# Stress axis : x y z
#
# Youngs Moduli (GPa) = 230.24367 223.50513 127.20167
#
# Poissons Ratio (x) = 0.23919 0.20545
# Poissons Ratio (y) = 0.24640 0.22820
# Poissons Ratio (z) = 0.37189 0.40097
#
# Static dielectric constant tensor:
#      x y z
#    x 2.302930 0.000000 0.000000 
#    y 0.000000 2.393170 0.000000 
#    z 0.000000 0.000000 2.361230 
# 
# From -- ./inp_files/6875.got.cif
#   From: 2010.05.17/outbox.cif.g08.bks.cpg/sg52_4_cif.got.tgz:6875.got - 2010.06.03 12:15:38.
