data_PCOD9413858
_publ_section_title
;
Structure prediction by ZEFSAII (Michael W. Deem and Ramdas Pophale) SiO2 
 PCOD9413858
Probable space group: P N N A
;
_chemical_formula_sum "Si O2"
_cell_formula_units_Z 20
_cell_length_a 13.897723
_cell_length_b 4.732506
_cell_length_c 12.036454
_cell_angle_alpha 90.000000
_cell_angle_beta 90.000000
_cell_angle_gamma 90.000000
_cell_volume 791.650308
_symmetry_space_group_name_H-M "P N N A"
_symmetry_group_IT_number 52
_symmetry_cell_setting 'orthorhombic'
loop_
_space_group_symop_operation_xyz
x,y,z
1/2-x,-y,z
x,1/2-y,1/2-z
1/2-x,1/2+y,1/2-z
-x,-y,-z
1/2+x,y,-z
-x,1/2+y,1/2+z
1/2+x,1/2-y,1/2+z
loop_
_atom_site_type_symbol
_atom_site_label
_atom_site_fract_x
_atom_site_fract_y
_atom_site_fract_z
Si Si1 0.897378 0.158308 0.503092
Si Si2 0.750000 0.500000 0.669441
Si Si3 0.851955 0.646652 0.364281
O O1 0.833351 0.330936 0.596821
O O2 0.915340 0.403932 0.414781
O O3 0.838418 0.897468 0.450789
O O4 0.000000 0.000000 0.500000
O O5 0.790790 0.750000 0.750000
O O6 0.750000 0.500000 0.338886
O O7 0.895226 0.750000 0.250000
#
# Coordination Sequence:
#
# PCOD9413858 Si02
#       3
#     8   4   8
#     4  12  27  50  82 119 165 218 286 351 418 524
#     4  12  28  52  84 116 174 238 284 348 440 516
#     4  12  25  46  82 119 157 205 271 346 432 500
#
# _framework density 25.263680000000001
#
# number of rings (size 3 to 8) (size 9 to 14) (size 15 to 20)
#    0.000    0.000    2.000    8.400    0.000    1.600 
#    0.000    6.000    8.800    0.000    0.000    0.000 
#    0.000    0.000    0.000    0.000    0.000    0.000 
#
# Total GULP energy -111468.268721 kJ/mol
# GULP energy per Si atom -5573.413436 kJ/mol
# Density = 2.520618 g / cm^3
# Si number density = 25.263680 Si / 1000 Ang^3
#
#
#
# Elastic Constant Matrix: (Units=GPa)
#
#
# Indices 1 2 3 4 5 6 
#
# 1 120.0101 66.9970 44.9446 0.0000 0.0000 0.0000
# 2 66.9970 255.9641 102.3845 0.0000 0.0000 0.0000
# 3 44.9446 102.3845 118.4392 0.0000 0.0000 0.0000
# 4 0.0000 0.0000 0.0000 76.3475 0.0000 0.0000
# 5 0.0000 0.0000 0.0000 0.0000 14.7699 0.0000
# 6 0.0000 0.0000 0.0000 0.0000 0.0000 37.2892
#
#
#
# Elastic Compliance Matrix: (Units=1/GPa)
#
#
# Indices 1 2 3 4 5 6 
#
# 1 0.010181 -0.001711 -0.002384 0.000000 0.000000 0.000000
# 2 -0.001711 0.006259 -0.004761 0.000000 0.000000 0.000000
# 3 -0.002384 -0.004761 0.013464 0.000000 0.000000 0.000000
# 4 0.000000 0.000000 0.000000 0.013098 0.000000 0.000000
# 5 0.000000 0.000000 0.000000 0.000000 0.067705 0.000000
# 6 0.000000 0.000000 0.000000 0.000000 0.000000 0.026817
#
#
# Mechanical properties :
#
#
# Convention : Reuss Voigt Hill
#
# Bulk Modulus (GPa) = 82.03152 102.56285 92.29718
# Shear Modulus (GPa) = 31.38701 44.35381 37.87041
#
# Velocity S-wave (km/s) = 3.52856 4.19458 3.87590
# Velocity P-wave (km/s) = 7.01011 8.00902 7.52615
#
# Compressibility (1/GPa) = 0.01219044
#
# Stress axis : x y z
#
# Youngs Moduli (GPa) = 98.22455 159.76405 74.27258
#
# Poissons Ratio (x) = 0.27337 0.17708
# Poissons Ratio (y) = 0.16807 0.35365
# Poissons Ratio (z) = 0.23419 0.76071
#
# Static dielectric constant tensor:
#      x y z
#    x 2.242840 0.000000 0.000000 
#    y 0.000000 1.911270 0.000000 
#    z 0.000000 0.000000 2.143120 
# 
# From -- ./inp_files/18629.got.cif
#   From: 2010.05.17/outbox.cif.g08.bks.cpg/sg52_10_cif.got.tgz:18629.got - 2010.06.03 12:15:38.
