data_PCOD9413597
_publ_section_title
;
Structure prediction by ZEFSAII (Michael W. Deem and Ramdas Pophale) SiO2 
 PCOD9413597
Probable space group: P N N A
;
_chemical_formula_sum "Si O2"
_cell_formula_units_Z 32
_cell_length_a 10.331076
_cell_length_b 15.824967
_cell_length_c 8.310651
_cell_angle_alpha 90.000000
_cell_angle_beta 90.000000
_cell_angle_gamma 90.000000
_cell_volume 1358.699496
_symmetry_space_group_name_H-M "P N N A"
_symmetry_group_IT_number 52
_symmetry_cell_setting 'orthorhombic'
loop_
_space_group_symop_operation_xyz
x,y,z
1/2-x,-y,z
x,1/2-y,1/2-z
1/2-x,1/2+y,1/2-z
-x,-y,-z
1/2+x,y,-z
-x,1/2+y,1/2+z
1/2+x,1/2-y,1/2+z
loop_
_atom_site_type_symbol
_atom_site_label
_atom_site_fract_x
_atom_site_fract_y
_atom_site_fract_z
Si Si1 0.963677 0.157830 0.179984
Si Si2 0.223293 0.090929 0.648112
Si Si3 0.236287 0.347207 0.192056
Si Si4 0.023530 0.578260 0.371060
O O1 0.946494 0.250000 0.250000
O O2 0.091994 0.121163 0.263518
O O3 0.833860 0.107498 0.220241
O O4 0.988531 0.157852 0.991186
O O5 0.241658 0.154166 0.501021
O O6 0.087135 0.085617 0.737440
O O7 0.250000 0.000000 0.571620
O O8 0.249475 0.250000 0.250000
O O9 0.340631 0.407060 0.280193
O O10 0.000000 0.500000 0.500000
#
# Coordination Sequence:
#
# PCOD9413597 Si02
#       4
#     8   8   8   8
#     4  11  25  46  73 110 151 193 248 306 379 448
#     4  12  26  46  76 112 148 200 249 315 369 448
#     4  11  27  48  74 108 152 199 251 310 376 450
#     4  12  26  47  77 111 152 196 251 315 376 447
#
# _framework density 23.551935
#
# number of rings (size 3 to 8) (size 9 to 14) (size 15 to 20)
#    0.000    0.500    2.500    4.500    3.500    7.000 
#    0.000    0.000    0.000    0.000    0.000    0.000 
#    0.000    0.000    0.000    0.000    0.000    0.000 
#
# Total GULP energy -178945.632842 kJ/mol
# GULP energy per Si atom -5592.051026 kJ/mol
# Density = 2.349833 g / cm^3
# Si number density = 23.551935 Si / 1000 Ang^3
#
#
#
# Elastic Constant Matrix: (Units=GPa)
#
#
# Indices 1 2 3 4 5 6 
#
# 1 125.0233 9.9848 -8.4050 0.0000 0.0000 0.0000
# 2 9.9848 84.4909 18.7417 0.0000 0.0000 0.0000
# 3 -8.4050 18.7417 111.1748 0.0000 0.0000 0.0000
# 4 0.0000 0.0000 0.0000 24.0429 0.0000 0.0000
# 5 0.0000 0.0000 0.0000 0.0000 41.1240 0.0000
# 6 0.0000 0.0000 0.0000 0.0000 0.0000 23.4087
#
#
#
# Elastic Compliance Matrix: (Units=1/GPa)
#
#
# Indices 1 2 3 4 5 6 
#
# 1 0.008144 -0.001142 0.000808 0.000000 0.000000 0.000000
# 2 -0.001142 0.012455 -0.002186 0.000000 0.000000 0.000000
# 3 0.000808 -0.002186 0.009424 0.000000 0.000000 0.000000
# 4 0.000000 0.000000 0.000000 0.041592 0.000000 0.000000
# 5 0.000000 0.000000 0.000000 0.000000 0.024317 0.000000
# 6 0.000000 0.000000 0.000000 0.000000 0.000000 0.042719
#
#
# Mechanical properties :
#
#
# Convention : Reuss Voigt Hill
#
# Bulk Modulus (GPa) = 40.02438 40.14801 40.08620
# Shear Modulus (GPa) = 32.89051 37.73960 35.31505
#
# Velocity S-wave (km/s) = 3.74104 4.00734 3.87648
# Velocity P-wave (km/s) = 5.97424 6.20446 6.09044
#
# Compressibility (1/GPa) = 0.02498477
#
# Stress axis : x y z
#
# Youngs Moduli (GPa) = 122.78945 80.28635 106.10681
#
# Poissons Ratio (x) = 0.09166 -0.08575
# Poissons Ratio (y) = 0.14019 0.23195
# Poissons Ratio (z) = -0.09923 0.17551
#
# Static dielectric constant tensor:
#      x y z
#    x 1.878220 0.000000 0.000000 
#    y 0.000000 1.996940 0.000000 
#    z 0.000000 0.000000 1.867530 
# 
# From -- ./inp_files/8345.got.cif
#   From: 2010.05.17/outbox.cif.g08.bks.cpg/sg52_5_cif.got.tgz:8345.got - 2010.06.03 12:15:38.
