data_PCOD9413942
_publ_section_title
;
Structure prediction by ZEFSAII (Michael W. Deem and Ramdas Pophale) SiO2 
 PCOD9413942
Probable space group: P N N A
;
_chemical_formula_sum "Si O2"
_cell_formula_units_Z 48
_cell_length_a 19.405856
_cell_length_b 16.121583
_cell_length_c 7.285298
_cell_angle_alpha 90.000000
_cell_angle_beta 90.000000
_cell_angle_gamma 90.000000
_cell_volume 2279.228196
_symmetry_space_group_name_H-M "P N N A"
_symmetry_group_IT_number 52
_symmetry_cell_setting 'orthorhombic'
loop_
_space_group_symop_operation_xyz
x,y,z
1/2-x,-y,z
x,1/2-y,1/2-z
1/2-x,1/2+y,1/2-z
-x,-y,-z
1/2+x,y,-z
-x,1/2+y,1/2+z
1/2+x,1/2-y,1/2+z
loop_
_atom_site_type_symbol
_atom_site_label
_atom_site_fract_x
_atom_site_fract_y
_atom_site_fract_z
Si Si1 0.707521 0.413484 0.810280
Si Si2 0.341294 0.342551 0.219904
Si Si3 0.829253 0.844329 0.292528
Si Si4 0.580807 0.501583 0.222310
Si Si5 0.924123 0.497867 0.773303
Si Si6 0.172318 0.655330 0.783364
O O1 0.750000 0.500000 0.856947
O O2 0.764849 0.360873 0.702974
O O3 0.636979 0.440443 0.712664
O O4 0.682531 0.363494 0.990205
O O5 0.363620 0.250000 0.250000
O O6 0.397465 0.407587 0.283492
O O7 0.329923 0.354402 0.003064
O O8 0.851381 0.750000 0.250000
O O9 0.881621 0.915530 0.227040
O O10 0.751102 0.853764 0.218685
O O11 0.502115 0.511778 0.283951
O O12 0.625450 0.580319 0.285621
O O13 0.578176 0.500398 0.997638
O O14 0.149170 0.750000 0.750000
#
# Coordination Sequence:
#
# PCOD9413942 Si02
#       6
#     8   8   8   8   8   8
#     4   8  14  27  43  59  82 113 145 178 216 260
#     4   9  16  27  46  67  85 108 143 186 217 247
#     4   9  15  23  40  64  87 109 140 179 216 252
#     4   9  15  26  43  64  87 113 145 181 214 253
#     4   8  15  26  43  63  83 110 147 182 214 252
#     4   9  17  29  45  64  88 117 145 174 215 263
#
# _framework density 21.059760000000001
#
# number of rings (size 3 to 8) (size 9 to 14) (size 15 to 20)
#    0.000    3.333    0.000    3.500    0.000    0.667 
#    0.000    0.833    0.000   19.000    0.000    0.000 
#    0.000    0.000    0.000    0.000    0.000    0.000 
#
# Total GULP energy -267488.912463 kJ/mol
# GULP energy per Si atom -5572.685676 kJ/mol
# Density = 2.101183 g / cm^3
# Si number density = 21.059760 Si / 1000 Ang^3
#
#
#
# Elastic Constant Matrix: (Units=GPa)
#
#
# Indices 1 2 3 4 5 6 
#
# 1 154.2012 93.9815 -2.2655 0.0000 0.0000 0.0000
# 2 93.9815 158.9031 3.7645 0.0000 0.0000 0.0000
# 3 -2.2655 3.7645 67.9600 0.0000 0.0000 0.0000
# 4 0.0000 0.0000 0.0000 15.8886 0.0000 0.0000
# 5 0.0000 0.0000 0.0000 0.0000 -4.3491 0.0000
# 6 0.0000 0.0000 0.0000 0.0000 0.0000 1.4781
#
#
#
# Elastic Compliance Matrix: (Units=1/GPa)
#
#
# Indices 1 2 3 4 5 6 
#
# 1 0.010171 -0.006031 0.000673 0.000000 0.000000 0.000000
# 2 -0.006031 0.009878 -0.000748 0.000000 0.000000 0.000000
# 3 0.000673 -0.000748 0.014778 0.000000 0.000000 0.000000
# 4 0.000000 0.000000 0.000000 0.062938 0.000000 0.000000
# 5 0.000000 0.000000 0.000000 0.000000 -0.229934 0.000000
# 6 0.000000 0.000000 0.000000 0.000000 0.000000 0.676565
#
#
# Mechanical properties :
#
#
# Convention : Reuss Voigt Hill
#
# Bulk Modulus (GPa) = 44.21960 63.55838 53.88899
# Shear Modulus (GPa) = 8.86292 21.64243 15.25267
#
# Velocity S-wave (km/s) = 2.05368 3.20920 2.69412
# Velocity P-wave (km/s) = 5.16394 6.63155 5.94322
#
# Compressibility (1/GPa) = 0.02261441
#
# Stress axis : x y z
#
# Youngs Moduli (GPa) = 98.31949 101.23411 67.66622
#
# Poissons Ratio (x) = 0.61059 -0.04555
# Poissons Ratio (y) = 0.59301 0.05063
# Poissons Ratio (z) = -0.06618 0.07575
#
# Static dielectric constant tensor:
#      x y z
#    x 1.759870 0.000000 0.000000 
#    y 0.000000 1.754940 0.000000 
#    z 0.000000 0.000000 1.847120 
# 
# From -- ./inp_files/21633.got.cif
#   From: 2010.05.17/outbox.cif.g08.bks.cpg/sg52_11_cif.got.tgz:21633.got - 2010.06.03 12:15:38.
