data_PCOD9413166
_publ_section_title
;
Structure prediction by ZEFSAII (Michael W. Deem and Ramdas Pophale) SiO2 
 PCOD9413166
Probable space group: P N N A
;
_chemical_formula_sum "Si O2"
_cell_formula_units_Z 40
_cell_length_a 15.306998
_cell_length_b 15.351077
_cell_length_c 7.232194
_cell_angle_alpha 90.000000
_cell_angle_beta 90.000000
_cell_angle_gamma 90.000000
_cell_volume 1699.413026
_symmetry_space_group_name_H-M "P N N A"
_symmetry_group_IT_number 52
_symmetry_cell_setting 'orthorhombic'
loop_
_space_group_symop_operation_xyz
x,y,z
1/2-x,-y,z
x,1/2-y,1/2-z
1/2-x,1/2+y,1/2-z
-x,-y,-z
1/2+x,y,-z
-x,1/2+y,1/2+z
1/2+x,1/2-y,1/2+z
loop_
_atom_site_type_symbol
_atom_site_label
_atom_site_fract_x
_atom_site_fract_y
_atom_site_fract_z
Si Si1 0.095012 0.303798 0.570378
Si Si2 0.916364 0.374321 0.514784
Si Si3 0.274499 0.268511 0.971651
Si Si4 0.852953 0.983011 0.260711
Si Si5 0.838252 0.452655 0.860968
O O1 0.066610 0.250000 0.750000
O O2 0.174676 0.253463 0.474669
O O3 0.130412 0.394302 0.653303
O O4 0.006397 0.326779 0.468429
O O5 0.840979 0.303288 0.545804
O O6 0.896757 0.438883 0.348791
O O7 0.908677 0.430540 0.703747
O O8 0.275991 0.250000 0.750000
O O9 0.305757 0.363408 0.037118
O O10 0.876440 0.986236 0.477020
O O11 0.750000 0.000000 0.255889
O O12 0.750000 0.500000 0.784010
#
# Coordination Sequence:
#
# PCOD9413166 Si02
#       5
#     8   8   8   8   8
#     4  11  23  41  69  98 135 176 223 273 334 397
#     4  12  24  43  70  99 130 175 226 277 326 397
#     4  11  21  44  69  90 136 178 212 272 340 390
#     4  11  21  44  69  93 138 182 211 272 340 388
#     4  11  23  40  70  99 131 175 224 269 330 396
#
# _framework density 23.537538999999999
#
# number of rings (size 3 to 8) (size 9 to 14) (size 15 to 20)
#    0.000    0.800    4.000    6.600    0.000    0.800 
#    0.000    4.000    4.400    0.000    0.000    0.000 
#    0.000    0.000    0.000    0.000    0.000    0.000 
#
# Total GULP energy -223885.965831 kJ/mol
# GULP energy per Si atom -5597.149146 kJ/mol
# Density = 2.348397 g / cm^3
# Si number density = 23.537539 Si / 1000 Ang^3
#
#
#
# Elastic Constant Matrix: (Units=GPa)
#
#
# Indices 1 2 3 4 5 6 
#
# 1 46.2640 -12.3843 17.4971 0.0000 0.0000 0.0000
# 2 -12.3843 61.1101 -17.4360 0.0000 0.0000 0.0000
# 3 17.4971 -17.4360 52.7028 0.0000 0.0000 0.0000
# 4 0.0000 0.0000 0.0000 28.0291 0.0000 0.0000
# 5 0.0000 0.0000 0.0000 0.0000 1.6141 0.0000
# 6 0.0000 0.0000 0.0000 0.0000 0.0000 32.6907
#
#
#
# Elastic Compliance Matrix: (Units=1/GPa)
#
#
# Indices 1 2 3 4 5 6 
#
# 1 0.025209 0.003004 -0.007375 0.000000 0.000000 0.000000
# 2 0.003004 0.018428 0.005099 0.000000 0.000000 0.000000
# 3 -0.007375 0.005099 0.023110 0.000000 0.000000 0.000000
# 4 0.000000 0.000000 0.000000 0.035677 0.000000 0.000000
# 5 0.000000 0.000000 0.000000 0.000000 0.619543 0.000000
# 6 0.000000 0.000000 0.000000 0.000000 0.000000 0.030590
#
#
# Mechanical properties :
#
#
# Convention : Reuss Voigt Hill
#
# Bulk Modulus (GPa) = 14.66221 15.04785 14.85503
# Shear Modulus (GPa) = 6.46134 23.96010 15.21072
#
# Velocity S-wave (km/s) = 1.65864 3.19400 2.54487
# Velocity P-wave (km/s) = 3.14816 4.47316 3.86782
#
# Compressibility (1/GPa) = 0.06820253
#
# Stress axis : x y z
#
# Youngs Moduli (GPa) = 39.66894 54.26637 43.27164
#
# Poissons Ratio (x) = -0.16303 0.31914
# Poissons Ratio (y) = -0.11918 -0.22065
# Poissons Ratio (z) = 0.29257 -0.27671
#
# Static dielectric constant tensor:
#      x y z
#    x 1.887980 0.000000 0.000000 
#    y 0.000000 1.922220 0.000000 
#    z 0.000000 0.000000 1.945320 
# 
# From -- ./inp_files/10214.got.cif
#   From: 2010.05.17/outbox.cif.g08.bks.cpg/sg52_6_cif.got.tgz:10214.got - 2010.06.03 12:15:38.
