data_PCOD9413789
_publ_section_title
;
Structure prediction by ZEFSAII (Michael W. Deem and Ramdas Pophale) SiO2 
 PCOD9413789
Probable space group: P N N A
;
_chemical_formula_sum "Si O2"
_cell_formula_units_Z 36
_cell_length_a 24.009164
_cell_length_b 6.813362
_cell_length_c 10.796125
_cell_angle_alpha 90.000000
_cell_angle_beta 90.000000
_cell_angle_gamma 90.000000
_cell_volume 1766.063872
_symmetry_space_group_name_H-M "P N N A"
_symmetry_group_IT_number 52
_symmetry_cell_setting 'orthorhombic'
loop_
_space_group_symop_operation_xyz
x,y,z
1/2-x,-y,z
x,1/2-y,1/2-z
1/2-x,1/2+y,1/2-z
-x,-y,-z
1/2+x,y,-z
-x,1/2+y,1/2+z
1/2+x,1/2-y,1/2+z
loop_
_atom_site_type_symbol
_atom_site_label
_atom_site_fract_x
_atom_site_fract_y
_atom_site_fract_z
Si Si1 0.250000 0.500000 0.540982
Si Si2 0.513361 0.750000 0.250000
Si Si3 0.397966 0.983226 0.599427
Si Si4 0.557437 0.100457 0.965844
Si Si5 0.650677 0.715789 0.599687
Si Si6 0.811937 0.750000 0.250000
O O1 0.291704 0.373402 0.454253
O O2 0.221292 0.343988 0.634986
O O3 0.554941 0.608392 0.171861
O O4 0.466703 0.824026 0.158902
O O5 0.423910 0.777117 0.554073
O O6 0.350027 0.924916 0.696067
O O7 0.370662 0.097019 0.481880
O O8 0.606312 0.949368 0.940496
O O9 0.500000 0.000000 0.000000
O O10 0.651670 0.750000 0.750000
#
# Coordination Sequence:
#
# PCOD9413789 Si02
#       6
#     4   4   8   8   8   4
#     4  12  26  50  72 110 134 196 244 308 368 422
#     4  12  24  41  76 106 150 189 236 298 368 430
#     4  12  25  48  72 113 143 191 246 303 366 443
#     4  12  25  45  69 108 150 189 237 292 367 444
#     4  12  28  49  74 105 152 193 247 296 367 442
#     4  12  24  47  80 100 144 177 250 308 358 422
#
# _framework density 20.384314
#
# number of rings (size 3 to 8) (size 9 to 14) (size 15 to 20)
#    0.000    0.000    4.444    6.000    3.111    1.778 
#    2.000    0.000    0.000    0.000    0.000    0.000 
#    0.000    0.000    0.000    0.000    0.000    0.000 
#
# Total GULP energy -200596.778554 kJ/mol
# GULP energy per Si atom -5572.132738 kJ/mol
# Density = 2.033792 g / cm^3
# Si number density = 20.384314 Si / 1000 Ang^3
#
#
#
# Elastic Constant Matrix: (Units=GPa)
#
#
# Indices 1 2 3 4 5 6 
#
# 1 112.3728 44.2921 32.7150 0.0000 0.0000 0.0000
# 2 44.2921 94.8921 42.1175 0.0000 0.0000 0.0000
# 3 32.7150 42.1175 109.6989 0.0000 0.0000 0.0000
# 4 0.0000 0.0000 0.0000 66.8601 0.0000 0.0000
# 5 0.0000 0.0000 0.0000 0.0000 58.6926 0.0000
# 6 0.0000 0.0000 0.0000 0.0000 0.0000 -24.9511
#
#
#
# Elastic Compliance Matrix: (Units=1/GPa)
#
#
# Indices 1 2 3 4 5 6 
#
# 1 0.011133 -0.004487 -0.001597 0.000000 0.000000 0.000000
# 2 -0.004487 0.014512 -0.004233 0.000000 0.000000 0.000000
# 3 -0.001597 -0.004233 0.011218 0.000000 0.000000 0.000000
# 4 0.000000 0.000000 0.000000 0.014957 0.000000 0.000000
# 5 0.000000 0.000000 0.000000 0.000000 0.017038 0.000000
# 6 0.000000 0.000000 0.000000 0.000000 0.000000 -0.040078
#
#
# Mechanical properties :
#
#
# Convention : Reuss Voigt Hill
#
# Bulk Modulus (GPa) = 61.62904 61.69033 61.65969
# Shear Modulus (GPa) = 91.20307 33.30959 62.25633
#
# Velocity S-wave (km/s) = 6.69619 4.04676 5.53241
# Velocity P-wave (km/s) = 9.49128 7.22249 8.43353
#
# Compressibility (1/GPa) = 0.01622612
#
# Stress axis : x y z
#
# Youngs Moduli (GPa) = 89.82578 68.90940 89.14625
#
# Poissons Ratio (x) = 0.30923 0.14238
# Poissons Ratio (y) = 0.40309 0.37739
# Poissons Ratio (z) = 0.14347 0.29172
#
# Static dielectric constant tensor:
#      x y z
#    x 1.708770 0.000000 0.000000 
#    y 0.000000 1.763260 0.000000 
#    z 0.000000 0.000000 1.667380 
# 
# From -- ./inp_files/22096.got.cif
#   From: 2010.05.17/outbox.cif.g08.bks.cpg/sg52_12_cif.got.tgz:22096.got - 2010.06.03 12:15:38.
