data_PCOD9413181
_publ_section_title
;
Structure prediction by ZEFSAII (Michael W. Deem and Ramdas Pophale) SiO2 
 PCOD9413181
Probable space group: P N N A
;
_chemical_formula_sum "Si O2"
_cell_formula_units_Z 32
_cell_length_a 10.080337
_cell_length_b 5.175602
_cell_length_c 29.900348
_cell_angle_alpha 90.000000
_cell_angle_beta 90.000000
_cell_angle_gamma 90.000000
_cell_volume 1559.955345
_symmetry_space_group_name_H-M "P N N A"
_symmetry_group_IT_number 52
_symmetry_cell_setting 'orthorhombic'
loop_
_space_group_symop_operation_xyz
x,y,z
1/2-x,-y,z
x,1/2-y,1/2-z
1/2-x,1/2+y,1/2-z
-x,-y,-z
1/2+x,y,-z
-x,1/2+y,1/2+z
1/2+x,1/2-y,1/2+z
loop_
_atom_site_type_symbol
_atom_site_label
_atom_site_fract_x
_atom_site_fract_y
_atom_site_fract_z
Si Si1 0.131973 0.795245 0.144501
Si Si2 0.750000 0.500000 0.937819
Si Si3 0.378369 0.817032 0.989350
Si Si4 0.660199 0.246415 0.388389
Si Si5 0.250000 0.500000 0.219963
O O1 0.184247 0.698916 0.096432
O O2 0.137924 0.587399 0.184711
O O3 0.975315 0.831255 0.136909
O O4 0.250000 0.000000 0.156766
O O5 0.640786 0.384538 0.970816
O O6 0.379595 0.693865 0.940200
O O7 0.250000 0.000000 0.991146
O O8 0.500000 0.000000 0.000000
O O9 0.750000 0.500000 0.387988
O O10 0.750000 0.000000 0.373049
O O11 0.217645 0.250000 0.250000
#
# Coordination Sequence:
#
# PCOD9413181 Si02
#       5
#     8   4   8   8   4
#     4  11  25  43  71 104 136 174 231 287 342 411
#     4  11  22  36  64  92 132 180 242 286 334 373
#     4  11  23  37  55  84 133 188 240 283 328 383
#     4  11  26  42  63  97 142 189 228 277 343 403
#     4  11  24  46  80 112 130 162 218 284 346 415
#
# _framework density 20.513408999999999
#
# number of rings (size 3 to 8) (size 9 to 14) (size 15 to 20)
#    0.000    1.000    2.500    3.750   14.000    2.000 
#    0.000    0.000    0.000    3.000    0.000    0.000 
#    0.000    0.000    0.000    0.000    0.000    0.000 
#
# Total GULP energy -178471.419474 kJ/mol
# GULP energy per Si atom -5577.231859 kJ/mol
# Density = 2.046672 g / cm^3
# Si number density = 20.513409 Si / 1000 Ang^3
#
#
#
# Elastic Constant Matrix: (Units=GPa)
#
#
# Indices 1 2 3 4 5 6 
#
# 1 166.1631 52.6200 40.5764 0.0000 0.0000 0.0000
# 2 52.6200 104.9012 39.3730 0.0000 0.0000 0.0000
# 3 40.5764 39.3730 116.6723 0.0000 0.0000 0.0000
# 4 0.0000 0.0000 0.0000 35.5998 0.0000 0.0000
# 5 0.0000 0.0000 0.0000 0.0000 -15.9213 0.0000
# 6 0.0000 0.0000 0.0000 0.0000 0.0000 42.3166
#
#
#
# Elastic Compliance Matrix: (Units=1/GPa)
#
#
# Indices 1 2 3 4 5 6 
#
# 1 0.007379 -0.003136 -0.001508 0.000000 0.000000 0.000000
# 2 -0.003136 0.012248 -0.003043 0.000000 0.000000 0.000000
# 3 -0.001508 -0.003043 0.010122 0.000000 0.000000 0.000000
# 4 0.000000 0.000000 0.000000 0.028090 0.000000 0.000000
# 5 0.000000 0.000000 0.000000 0.000000 -0.062809 0.000000
# 6 0.000000 0.000000 0.000000 0.000000 0.000000 0.023631
#
#
# Mechanical properties :
#
#
# Convention : Reuss Voigt Hill
#
# Bulk Modulus (GPa) = 69.55830 72.54173 71.05002
# Shear Modulus (GPa) = 128.77648 29.41018 79.09333
#
# Velocity S-wave (km/s) = 7.93177 3.79054 6.21616
# Velocity P-wave (km/s) = 10.85663 7.38901 9.28611
#
# Compressibility (1/GPa) = 0.01437643
#
# Stress axis : x y z
#
# Youngs Moduli (GPa) = 135.51132 81.64844 98.79106
#
# Poissons Ratio (x) = 0.25601 0.14901
# Poissons Ratio (y) = 0.42490 0.30059
# Poissons Ratio (z) = 0.20439 0.24843
#
# Static dielectric constant tensor:
#      x y z
#    x 1.755680 0.000000 0.000000 
#    y 0.000000 1.817590 0.000000 
#    z 0.000000 0.000000 1.717570 
# 
# From -- ./inp_files/44059.got.cif
#   From: 2010.05.17/outbox.cif.g08.bks.cpg/sg52_23_cif.got.tgz:44059.got - 2010.06.03 12:15:38.
