data_PCOD9413845
_publ_section_title
;
Structure prediction by ZEFSAII (Michael W. Deem and Ramdas Pophale) SiO2 
 PCOD9413845
Probable space group: P N N A
;
_chemical_formula_sum "Si O2"
_cell_formula_units_Z 16
_cell_length_a 17.977925
_cell_length_b 7.865522
_cell_length_c 4.942796
_cell_angle_alpha 90.000000
_cell_angle_beta 90.000000
_cell_angle_gamma 90.000000
_cell_volume 698.939848
_symmetry_space_group_name_H-M "P N N A"
_symmetry_group_IT_number 52
_symmetry_cell_setting 'orthorhombic'
loop_
_space_group_symop_operation_xyz
x,y,z
1/2-x,-y,z
x,1/2-y,1/2-z
1/2-x,1/2+y,1/2-z
-x,-y,-z
1/2+x,y,-z
-x,1/2+y,1/2+z
1/2+x,1/2-y,1/2+z
loop_
_atom_site_type_symbol
_atom_site_label
_atom_site_fract_x
_atom_site_fract_y
_atom_site_fract_z
Si Si1 0.193111 0.141981 0.985819
Si Si2 0.448449 0.049510 0.753379
O O1 0.233092 0.250000 0.750000
O O2 0.250000 0.000000 0.089186
O O3 0.125996 0.056346 0.816608
O O4 0.168946 0.250000 0.250000
O O5 0.432204 0.250000 0.750000
O O6 0.500000 0.000000 0.500000
O O7 0.500000 0.000000 0.000000
#
# Coordination Sequence:
#
# PCOD9413845 Si02
#       2
#     8   8
#     4  12  26  46  71 104 142 187 236 291 354 423
#     4  12  25  44  70 102 140 185 233 287 348 417
#
# _framework density 22.891812999999999
#
# number of rings (size 3 to 8) (size 9 to 14) (size 15 to 20)
#    0.000    0.000    0.000   12.000    0.000    4.000 
#    0.000    0.000    0.000    0.000    0.000    0.000 
#    0.000    0.000    0.000    0.000    0.000    0.000 
#
# Total GULP energy -89500.368052 kJ/mol
# GULP energy per Si atom -5593.773003 kJ/mol
# Density = 2.283971 g / cm^3
# Si number density = 22.891813 Si / 1000 Ang^3
#
#
#
# Elastic Constant Matrix: (Units=GPa)
#
#
# Indices 1 2 3 4 5 6 
#
# 1 108.9825 47.2162 43.6468 0.0000 0.0000 0.0000
# 2 47.2162 161.9015 66.5531 0.0000 0.0000 0.0000
# 3 43.6468 66.5531 205.7627 0.0000 0.0000 0.0000
# 4 0.0000 0.0000 0.0000 45.7229 0.0000 0.0000
# 5 0.0000 0.0000 0.0000 0.0000 32.5981 0.0000
# 6 0.0000 0.0000 0.0000 0.0000 0.0000 34.6790
#
#
#
# Elastic Compliance Matrix: (Units=1/GPa)
#
#
# Indices 1 2 3 4 5 6 
#
# 1 0.010879 -0.002565 -0.001478 0.000000 0.000000 0.000000
# 2 -0.002565 0.007729 -0.001956 0.000000 0.000000 0.000000
# 3 -0.001478 -0.001956 0.005806 0.000000 0.000000 0.000000
# 4 0.000000 0.000000 0.000000 0.021871 0.000000 0.000000
# 5 0.000000 0.000000 0.000000 0.000000 0.030677 0.000000
# 6 0.000000 0.000000 0.000000 0.000000 0.000000 0.028836
#
#
# Mechanical properties :
#
#
# Convention : Reuss Voigt Hill
#
# Bulk Modulus (GPa) = 80.54080 87.94211 84.24146
# Shear Modulus (GPa) = 41.00600 43.88205 42.44403
#
# Velocity S-wave (km/s) = 4.23696 4.38303 4.31061
# Velocity P-wave (km/s) = 7.69386 8.00715 7.85206
#
# Compressibility (1/GPa) = 0.01241607
#
# Stress axis : x y z
#
# Youngs Moduli (GPa) = 91.91971 129.38957 172.23463
#
# Poissons Ratio (x) = 0.33190 0.25456
# Poissons Ratio (y) = 0.23579 0.33683
# Poissons Ratio (z) = 0.13586 0.25304
#
# Static dielectric constant tensor:
#      x y z
#    x 1.854000 0.000000 0.000000 
#    y 0.000000 1.916150 0.000000 
#    z 0.000000 0.000000 1.792630 
# 
# From -- ./inp_files/1546.got.cif
#   From: 2010.05.17/outbox.cif.g08.bks.cpg/sg52_1_cif.got.tgz:1546.got - 2010.06.03 12:15:38.
