data_PCOD9413347
_publ_section_title
;
Structure prediction by ZEFSAII (Michael W. Deem and Ramdas Pophale) SiO2 
 PCOD9413347
Probable space group: P N N A
;
_chemical_formula_sum "Si O2"
_cell_formula_units_Z 56
_cell_length_a 9.845881
_cell_length_b 11.347795
_cell_length_c 19.655512
_cell_angle_alpha 90.000000
_cell_angle_beta 90.000000
_cell_angle_gamma 90.000000
_cell_volume 2196.091470
_symmetry_space_group_name_H-M "P N N A"
_symmetry_group_IT_number 52
_symmetry_cell_setting 'orthorhombic'
loop_
_space_group_symop_operation_xyz
x,y,z
1/2-x,-y,z
x,1/2-y,1/2-z
1/2-x,1/2+y,1/2-z
-x,-y,-z
1/2+x,y,-z
-x,1/2+y,1/2+z
1/2+x,1/2-y,1/2+z
loop_
_atom_site_type_symbol
_atom_site_label
_atom_site_fract_x
_atom_site_fract_y
_atom_site_fract_z
Si Si1 0.923813 0.095713 0.173714
Si Si2 0.986432 0.477506 0.120874
Si Si3 0.723959 0.160692 0.407430
Si Si4 0.869070 0.659671 0.305053
Si Si5 0.176424 0.668557 0.048579
Si Si6 0.156889 0.290924 0.183557
Si Si7 0.375773 0.418249 0.514337
O O1 0.788029 0.129848 0.215398
O O2 0.043191 0.188316 0.182332
O O3 0.952690 0.959613 0.189510
O O4 0.878894 0.097973 0.095226
O O5 0.885735 0.368443 0.099703
O O6 0.867402 0.569660 0.135261
O O7 0.081028 0.556600 0.069333
O O8 0.080607 0.417998 0.177893
O O9 0.655599 0.278382 0.378240
O O10 0.713655 0.142091 0.488582
O O11 0.924115 0.750000 0.250000
O O12 0.252456 0.704687 0.117033
O O13 0.113188 0.790745 0.020868
O O14 0.238016 0.250000 0.250000
O O15 0.250000 0.500000 0.492647
O O16 0.500000 0.500000 0.500000
#
# Coordination Sequence:
#
# PCOD9413347 Si02
#       7
#     8   8   8   8   8   8   8
#     4  11  23  43  72 108 156 209 263 324 399 477
#     4  11  27  44  77 117 157 203 259 331 399 471
#     4  11  25  43  78 122 154 194 264 336 404 458
#     4  11  23  41  73 110 157 200 255 322 404 473
#     4  12  27  48  79 112 156 211 264 324 397 482
#     4  12  28  51  75 109 164 217 267 320 398 485
#     4  12  25  46  76 115 160 207 263 335 407 480
#
# _framework density 25.499849000000001
#
# number of rings (size 3 to 8) (size 9 to 14) (size 15 to 20)
#    0.000    0.571    4.286    2.143   14.000    1.143 
#    0.000    5.000    0.000    0.857    0.000    0.000 
#    0.000    0.000    0.000    0.000    0.000    0.000 
#
# Total GULP energy -312629.075703 kJ/mol
# GULP energy per Si atom -5582.662066 kJ/mol
# Density = 2.544181 g / cm^3
# Si number density = 25.499849 Si / 1000 Ang^3
#
#
#
# Elastic Constant Matrix: (Units=GPa)
#
#
# Indices 1 2 3 4 5 6 
#
# 1 91.8102 51.3957 34.3598 0.0000 0.0000 0.0000
# 2 51.3957 189.0977 62.5330 0.0000 0.0000 0.0000
# 3 34.3598 62.5330 145.1401 0.0000 0.0000 0.0000
# 4 0.0000 0.0000 0.0000 58.8399 0.0000 0.0000
# 5 0.0000 0.0000 0.0000 0.0000 17.8368 0.0000
# 6 0.0000 0.0000 0.0000 0.0000 0.0000 38.7083
#
#
#
# Elastic Compliance Matrix: (Units=1/GPa)
#
#
# Indices 1 2 3 4 5 6 
#
# 1 0.013259 -0.002992 -0.001850 0.000000 0.000000 0.000000
# 2 -0.002992 0.006842 -0.002240 0.000000 0.000000 0.000000
# 3 -0.001850 -0.002240 0.008293 0.000000 0.000000 0.000000
# 4 0.000000 0.000000 0.000000 0.016995 0.000000 0.000000
# 5 0.000000 0.000000 0.000000 0.000000 0.056064 0.000000
# 6 0.000000 0.000000 0.000000 0.000000 0.000000 0.025834
#
#
# Mechanical properties :
#
#
# Convention : Reuss Voigt Hill
#
# Bulk Modulus (GPa) = 70.26813 80.29164 75.27989
# Shear Modulus (GPa) = 34.20107 41.59430 37.89769
#
# Velocity S-wave (km/s) = 3.66625 4.04314 3.85930
# Velocity P-wave (km/s) = 6.74818 7.30421 7.03169
#
# Compressibility (1/GPa) = 0.01423120
#
# Stress axis : x y z
#
# Youngs Moduli (GPa) = 75.41878 146.15385 120.58777
#
# Poissons Ratio (x) = 0.43730 0.22307
# Poissons Ratio (y) = 0.22566 0.27006
# Poissons Ratio (z) = 0.13951 0.32732
#
# Static dielectric constant tensor:
#      x y z
#    x 2.070230 0.000000 0.000000 
#    y 0.000000 1.420070 0.000000 
#    z 0.000000 0.000000 2.087730 
# 
# From -- ./inp_files/36815.got.cif
#   From: 2010.05.17/outbox.cif.g08.bks.cpg/sg52_19_cif.got.tgz:36815.got - 2010.06.03 12:15:38.
