data_PCOD9413367
_publ_section_title
;
Structure prediction by ZEFSAII (Michael W. Deem and Ramdas Pophale) SiO2 
 PCOD9413367
Probable space group: P N N A
;
_chemical_formula_sum "Si O2"
_cell_formula_units_Z 36
_cell_length_a 12.643768
_cell_length_b 6.867830
_cell_length_c 21.307775
_cell_angle_alpha 90.000000
_cell_angle_beta 90.000000
_cell_angle_gamma 90.000000
_cell_volume 1850.265952
_symmetry_space_group_name_H-M "P N N A"
_symmetry_group_IT_number 52
_symmetry_cell_setting 'orthorhombic'
loop_
_space_group_symop_operation_xyz
x,y,z
1/2-x,-y,z
x,1/2-y,1/2-z
1/2-x,1/2+y,1/2-z
-x,-y,-z
1/2+x,y,-z
-x,1/2+y,1/2+z
1/2+x,1/2-y,1/2+z
loop_
_atom_site_type_symbol
_atom_site_label
_atom_site_fract_x
_atom_site_fract_y
_atom_site_fract_z
Si Si1 0.497999 0.234112 0.919448
Si Si2 0.140140 0.581546 0.135871
Si Si3 0.353318 0.112055 0.029743
Si Si4 0.140948 0.907200 0.803691
Si Si5 0.996664 0.250000 0.750000
O O1 0.569166 0.419830 0.900583
O O2 0.427265 0.185718 0.859051
O O3 0.572550 0.053756 0.939467
O O4 0.416580 0.237687 0.977954
O O5 0.250000 0.500000 0.162500
O O6 0.174993 0.742415 0.085459
O O7 0.072845 0.675218 0.191757
O O8 0.250000 0.000000 0.004120
O O9 0.165974 0.750000 0.750000
O O10 0.250000 0.000000 0.827513
O O11 0.069925 0.074890 0.773201
#
# Coordination Sequence:
#
# PCOD9413367 Si02
#       5
#     8   8   8   8   4
#     4  11  24  42  68  96 133 174 216 276 332 392
#     4  12  25  43  68  98 135 175 223 274 326 396
#     4  11  23  43  67  97 133 173 220 271 334 394
#     4  12  24  43  68  96 132 172 218 273 334 397
#     4  12  26  42  66 100 132 176 224 270 332 394
#
# _framework density 19.456664
#
# number of rings (size 3 to 8) (size 9 to 14) (size 15 to 20)
#    0.000    0.444    7.778    1.333    0.000    2.667 
#    0.000    1.111    0.000    0.000    0.000    0.000 
#    0.000    0.000    0.000    0.000    0.000    0.000 
#
# Total GULP energy -201128.924323 kJ/mol
# GULP energy per Si atom -5586.914565 kJ/mol
# Density = 1.941238 g / cm^3
# Si number density = 19.456664 Si / 1000 Ang^3
#
#
#
# Elastic Constant Matrix: (Units=GPa)
#
#
# Indices 1 2 3 4 5 6 
#
# 1 108.3956 28.5721 15.4172 0.0000 0.0000 0.0000
# 2 28.5721 72.8543 20.4881 0.0000 0.0000 0.0000
# 3 15.4172 20.4881 61.8398 0.0000 0.0000 0.0000
# 4 0.0000 0.0000 0.0000 22.9696 0.0000 0.0000
# 5 0.0000 0.0000 0.0000 0.0000 6.2675 0.0000
# 6 0.0000 0.0000 0.0000 0.0000 0.0000 36.4334
#
#
#
# Elastic Compliance Matrix: (Units=1/GPa)
#
#
# Indices 1 2 3 4 5 6 
#
# 1 0.010393 -0.003691 -0.001368 0.000000 0.000000 0.000000
# 2 -0.003691 0.016447 -0.004529 0.000000 0.000000 0.000000
# 3 -0.001368 -0.004529 0.018012 0.000000 0.000000 0.000000
# 4 0.000000 0.000000 0.000000 0.043536 0.000000 0.000000
# 5 0.000000 0.000000 0.000000 0.000000 0.159554 0.000000
# 6 0.000000 0.000000 0.000000 0.000000 0.000000 0.027447
#
#
# Mechanical properties :
#
#
# Convention : Reuss Voigt Hill
#
# Bulk Modulus (GPa) = 38.94657 41.33828 40.14242
# Shear Modulus (GPa) = 16.49487 25.04158 20.76822
#
# Velocity S-wave (km/s) = 2.91482 3.59143 3.27067
# Velocity P-wave (km/s) = 5.60257 6.20405 5.91097
#
# Compressibility (1/GPa) = 0.02567620
#
# Stress axis : x y z
#
# Youngs Moduli (GPa) = 96.21836 60.80042 55.51739
#
# Poissons Ratio (x) = 0.22443 0.07596
# Poissons Ratio (y) = 0.35516 0.25143
# Poissons Ratio (z) = 0.13164 0.27536
#
# Static dielectric constant tensor:
#      x y z
#    x 1.666590 0.000000 0.000000 
#    y 0.000000 1.686620 0.000000 
#    z 0.000000 0.000000 1.648590 
# 
# From -- ./inp_files/39909.got.cif
#   From: 2010.05.17/outbox.cif.g08.bks.cpg/sg52_20_cif.got.tgz:39909.got - 2010.06.03 12:15:38.
