data_PCOD9413178
_publ_section_title
;
Structure prediction by ZEFSAII (Michael W. Deem and Ramdas Pophale) SiO2 
 PCOD9413178
Probable space group: P N N A
;
_chemical_formula_sum "Si O2"
_cell_formula_units_Z 48
_cell_length_a 23.320247
_cell_length_b 6.956678
_cell_length_c 13.791785
_cell_angle_alpha 90.000000
_cell_angle_beta 90.000000
_cell_angle_gamma 90.000000
_cell_volume 2237.461268
_symmetry_space_group_name_H-M "P N N A"
_symmetry_group_IT_number 52
_symmetry_cell_setting 'orthorhombic'
loop_
_space_group_symop_operation_xyz
x,y,z
1/2-x,-y,z
x,1/2-y,1/2-z
1/2-x,1/2+y,1/2-z
-x,-y,-z
1/2+x,y,-z
-x,1/2+y,1/2+z
1/2+x,1/2-y,1/2+z
loop_
_atom_site_type_symbol
_atom_site_label
_atom_site_fract_x
_atom_site_fract_y
_atom_site_fract_z
Si Si1 0.593274 0.702506 0.461105
Si Si2 0.538808 0.403612 0.327471
Si Si3 0.815304 0.487842 0.000727
Si Si4 0.922080 0.576190 0.645820
Si Si5 0.932168 0.630203 0.007438
Si Si6 0.684162 0.970058 0.731964
O O1 0.575686 0.585058 0.365416
O O2 0.657549 0.785773 0.465474
O O3 0.585940 0.562547 0.552534
O O4 0.558144 0.903556 0.475667
O O5 0.561650 0.250000 0.250000
O O6 0.476741 0.487720 0.298816
O O7 0.533998 0.269366 0.422049
O O8 0.750000 0.500000 0.031952
O O9 0.863320 0.642146 0.033584
O O10 0.817360 0.502903 0.883355
O O11 0.936968 0.783647 0.600169
O O12 0.863527 0.576287 0.705045
O O13 0.669349 0.750000 0.750000
O O14 0.750000 0.000000 0.765098
#
# Coordination Sequence:
#
# PCOD9413178 Si02
#       6
#     8   8   8   8   8   8
#     4   9  20  40  60  86 124 163 213 266 318 387
#     4  11  24  39  60  87 123 165 218 277 325 383
#     4   9  20  38  62  89 127 165 211 261 320 396
#     4  11  22  37  58  89 125 175 212 250 320 387
#     4   9  21  39  61  83 124 164 210 263 321 384
#     4  11  22  35  57  90 132 169 208 256 308 392
#
# _framework density 21.452884000000001
#
# number of rings (size 3 to 8) (size 9 to 14) (size 15 to 20)
#    1.000    1.000    1.667    2.500    4.667    3.333 
#    0.000    4.167    0.000    2.000    0.000    0.000 
#    0.000    0.000    0.000    0.000    0.000    0.000 
#
# Total GULP energy -267605.013552 kJ/mol
# GULP energy per Si atom -5575.104449 kJ/mol
# Density = 2.140406 g / cm^3
# Si number density = 21.452884 Si / 1000 Ang^3
#
#
#
# Elastic Constant Matrix: (Units=GPa)
#
#
# Indices 1 2 3 4 5 6 
#
# 1 131.9432 40.4340 48.7877 0.0000 0.0000 0.0000
# 2 40.4340 135.6310 43.7693 0.0000 0.0000 0.0000
# 3 48.7877 43.7693 62.8661 0.0000 0.0000 0.0000
# 4 0.0000 0.0000 0.0000 28.6350 0.0000 0.0000
# 5 0.0000 0.0000 0.0000 0.0000 35.2279 0.0000
# 6 0.0000 0.0000 0.0000 0.0000 0.0000 28.3793
#
#
#
# Elastic Compliance Matrix: (Units=1/GPa)
#
#
# Indices 1 2 3 4 5 6 
#
# 1 0.010674 -0.000656 -0.007827 0.000000 0.000000 0.000000
# 2 -0.000656 0.009550 -0.006140 0.000000 0.000000 0.000000
# 3 -0.007827 -0.006140 0.026255 0.000000 0.000000 0.000000
# 4 0.000000 0.000000 0.000000 0.034922 0.000000 0.000000
# 5 0.000000 0.000000 0.000000 0.000000 0.028387 0.000000
# 6 0.000000 0.000000 0.000000 0.000000 0.000000 0.035237
#
#
# Mechanical properties :
#
#
# Convention : Reuss Voigt Hill
#
# Bulk Modulus (GPa) = 58.02462 66.26915 62.14689
# Shear Modulus (GPa) = 27.77537 31.61172 29.69355
#
# Velocity S-wave (km/s) = 3.60212 3.84284 3.72442
# Velocity P-wave (km/s) = 6.66382 7.11671 6.89398
#
# Compressibility (1/GPa) = 0.01723406
#
# Stress axis : x y z
#
# Youngs Moduli (GPa) = 93.68349 104.71309 38.08739
#
# Poissons Ratio (x) = 0.06873 0.29810
# Poissons Ratio (y) = 0.06149 0.23384
# Poissons Ratio (z) = 0.73324 0.64289
#
# Static dielectric constant tensor:
#      x y z
#    x 1.846660 0.000000 0.000000 
#    y 0.000000 1.817180 0.000000 
#    z 0.000000 0.000000 1.809910 
# 
# From -- ./inp_files/28604.got.cif
#   From: 2010.05.17/outbox.cif.g08.bks.cpg/sg52_15_cif.got.tgz:28604.got - 2010.06.03 12:15:38.
