data_PCOD9413403
_publ_section_title
;
Structure prediction by ZEFSAII (Michael W. Deem and Ramdas Pophale) SiO2 
 PCOD9413403
Probable space group: P N N A
;
_chemical_formula_sum "Si O2"
_cell_formula_units_Z 40
_cell_length_a 18.622406
_cell_length_b 7.938466
_cell_length_c 11.674186
_cell_angle_alpha 90.000000
_cell_angle_beta 90.000000
_cell_angle_gamma 90.000000
_cell_volume 1725.833872
_symmetry_space_group_name_H-M "P N N A"
_symmetry_group_IT_number 52
_symmetry_cell_setting 'orthorhombic'
loop_
_space_group_symop_operation_xyz
x,y,z
1/2-x,-y,z
x,1/2-y,1/2-z
1/2-x,1/2+y,1/2-z
-x,-y,-z
1/2+x,y,-z
-x,1/2+y,1/2+z
1/2+x,1/2-y,1/2+z
loop_
_atom_site_type_symbol
_atom_site_label
_atom_site_fract_x
_atom_site_fract_y
_atom_site_fract_z
Si Si1 0.321425 0.586094 0.023106
Si Si2 0.884591 0.069457 0.299660
Si Si3 0.542658 0.517967 0.837229
Si Si4 0.443953 0.108569 0.075061
Si Si5 0.170567 0.453394 0.577168
O O1 0.250000 0.500000 0.073734
O O2 0.390487 0.567633 0.102732
O O3 0.336787 0.488106 0.904624
O O4 0.318687 0.780914 0.990358
O O5 0.863006 0.250000 0.250000
O O6 0.966673 0.075416 0.341305
O O7 0.877415 0.942934 0.191906
O O8 0.533929 0.698688 0.900810
O O9 0.560911 0.537400 0.703305
O O10 0.500000 0.000000 0.000000
O O11 0.369237 0.086391 0.006344
O O12 0.250000 0.500000 0.616678
#
# Coordination Sequence:
#
# PCOD9413403 Si02
#       5
#     8   8   8   8   8
#     4  12  27  46  70 107 148 189 243 297 366 441
#     4  12  25  44  73 106 144 188 246 301 363 426
#     4  11  26  44  73 107 145 189 240 298 357 433
#     4  11  23  45  74 104 145 188 242 295 358 428
#     4  12  26  46  74 102 144 193 240 304 368 428
#
# _framework density 23.177199999999999
#
# number of rings (size 3 to 8) (size 9 to 14) (size 15 to 20)
#    0.000    0.400    2.000    6.600    5.600    0.800 
#    0.000    0.000    0.000    0.000    0.000    0.000 
#    0.000    0.000    0.000    0.000    0.000    0.000 
#
# Total GULP energy -224154.406697 kJ/mol
# GULP energy per Si atom -5603.860167 kJ/mol
# Density = 2.312445 g / cm^3
# Si number density = 23.177200 Si / 1000 Ang^3
#
#
#
# Elastic Constant Matrix: (Units=GPa)
#
#
# Indices 1 2 3 4 5 6 
#
# 1 109.5735 -6.6156 30.4807 0.0000 0.0000 0.0000
# 2 -6.6156 57.9120 12.5931 0.0000 0.0000 0.0000
# 3 30.4807 12.5931 119.9876 0.0000 0.0000 0.0000
# 4 0.0000 0.0000 0.0000 25.4199 0.0000 0.0000
# 5 0.0000 0.0000 0.0000 0.0000 38.1982 0.0000
# 6 0.0000 0.0000 0.0000 0.0000 0.0000 29.2299
#
#
#
# Elastic Compliance Matrix: (Units=1/GPa)
#
#
# Indices 1 2 3 4 5 6 
#
# 1 0.009987 0.001732 -0.002719 0.000000 0.000000 0.000000
# 2 0.001732 0.017971 -0.002326 0.000000 0.000000 0.000000
# 3 -0.002719 -0.002326 0.009269 0.000000 0.000000 0.000000
# 4 0.000000 0.000000 0.000000 0.039339 0.000000 0.000000
# 5 0.000000 0.000000 0.000000 0.000000 0.026179 0.000000
# 6 0.000000 0.000000 0.000000 0.000000 0.000000 0.034212
#
#
# Mechanical properties :
#
#
# Convention : Reuss Voigt Hill
#
# Bulk Modulus (GPa) = 32.67797 40.04329 36.36063
# Shear Modulus (GPa) = 32.51316 35.30392 33.90854
#
# Velocity S-wave (km/s) = 3.74947 3.90708 3.82908
# Velocity P-wave (km/s) = 5.73363 6.13744 5.93897
#
# Compressibility (1/GPa) = 0.03060166
#
# Stress axis : x y z
#
# Youngs Moduli (GPa) = 100.12822 55.64437 107.88639
#
# Poissons Ratio (x) = -0.09638 0.29333
# Poissons Ratio (y) = -0.17343 0.25096
# Poissons Ratio (z) = 0.27223 0.12944
#
# Static dielectric constant tensor:
#      x y z
#    x 1.872390 0.000000 0.000000 
#    y 0.000000 1.756500 0.000000 
#    z 0.000000 0.000000 1.847050 
# 
# From -- ./inp_files/20314.got.cif
#   From: 2010.05.17/outbox.cif.g08.bks.cpg/sg52_11_cif.got.tgz:20314.got - 2010.06.03 12:15:38.
