data_PCOD9413246
_publ_section_title
;
Structure prediction by ZEFSAII (Michael W. Deem and Ramdas Pophale) SiO2 
 PCOD9413246
Probable space group: P N N A
;
_chemical_formula_sum "Si O2"
_cell_formula_units_Z 48
_cell_length_a 10.412144
_cell_length_b 17.561989
_cell_length_c 11.137399
_cell_angle_alpha 90.000000
_cell_angle_beta 90.000000
_cell_angle_gamma 90.000000
_cell_volume 2036.562043
_symmetry_space_group_name_H-M "P N N A"
_symmetry_group_IT_number 52
_symmetry_cell_setting 'orthorhombic'
loop_
_space_group_symop_operation_xyz
x,y,z
1/2-x,-y,z
x,1/2-y,1/2-z
1/2-x,1/2+y,1/2-z
-x,-y,-z
1/2+x,y,-z
-x,1/2+y,1/2+z
1/2+x,1/2-y,1/2+z
loop_
_atom_site_type_symbol
_atom_site_label
_atom_site_fract_x
_atom_site_fract_y
_atom_site_fract_z
Si Si1 0.857867 0.938467 0.889029
Si Si2 0.048636 0.342841 0.615318
Si Si3 0.372145 0.690890 0.986500
Si Si4 0.488008 0.971177 0.702802
Si Si5 0.219960 0.800932 0.152448
Si Si6 0.124476 0.912797 0.518147
O O1 0.796644 0.873932 0.803717
O O2 0.750000 0.000000 0.915252
O O3 0.970114 0.979358 0.817297
O O4 0.891350 0.894320 0.010199
O O5 0.107887 0.258492 0.610364
O O6 0.056979 0.391308 0.738335
O O7 0.898738 0.332589 0.576763
O O8 0.257031 0.631554 0.964320
O O9 0.319411 0.742705 0.095405
O O10 0.503712 0.646674 0.017236
O O11 0.606049 0.952016 0.612487
O O12 0.397732 0.023041 0.619343
O O13 0.149300 0.750000 0.250000
#
# Coordination Sequence:
#
# PCOD9413246 Si02
#       6
#     8   8   8   8   8   8
#     4  11  24  41  69 103 138 190 247 295 360 448
#     4  11  24  43  69 104 144 186 242 306 368 428
#     4  11  24  45  70 105 144 193 240 302 354 447
#     4  11  25  44  72 107 145 194 240 313 368 448
#     4  11  22  41  73  98 136 192 250 294 351 438
#     4  11  26  46  75 107 148 190 252 294 375 440
#
# _framework density 23.569133000000001
#
# number of rings (size 3 to 8) (size 9 to 14) (size 15 to 20)
#    0.000    1.000    3.333    2.500    2.333    2.000 
#    3.000    1.667    3.667    0.000    0.000    0.000 
#    0.000    0.000    0.000    0.000    0.000    0.000 
#
# Total GULP energy -268265.671933 kJ/mol
# GULP energy per Si atom -5588.868165 kJ/mol
# Density = 2.351549 g / cm^3
# Si number density = 23.569133 Si / 1000 Ang^3
#
#
#
# Elastic Constant Matrix: (Units=GPa)
#
#
# Indices 1 2 3 4 5 6 
#
# 1 98.1380 68.9854 22.0069 0.0000 0.0000 0.0000
# 2 68.9854 196.9746 54.6806 0.0000 0.0000 0.0000
# 3 22.0069 54.6806 81.0095 0.0000 0.0000 0.0000
# 4 0.0000 0.0000 0.0000 54.3797 0.0000 0.0000
# 5 0.0000 0.0000 0.0000 0.0000 17.8815 0.0000
# 6 0.0000 0.0000 0.0000 0.0000 0.0000 55.6985
#
#
#
# Elastic Compliance Matrix: (Units=1/GPa)
#
#
# Indices 1 2 3 4 5 6 
#
# 1 0.013540 -0.004579 -0.000588 0.000000 0.000000 0.000000
# 2 -0.004579 0.007796 -0.004018 0.000000 0.000000 0.000000
# 3 -0.000588 -0.004018 0.015216 0.000000 0.000000 0.000000
# 4 0.000000 0.000000 0.000000 0.018389 0.000000 0.000000
# 5 0.000000 0.000000 0.000000 0.000000 0.055924 0.000000
# 6 0.000000 0.000000 0.000000 0.000000 0.000000 0.017954
#
#
# Mechanical properties :
#
#
# Convention : Reuss Voigt Hill
#
# Bulk Modulus (GPa) = 54.99726 74.16310 64.58018
# Shear Modulus (GPa) = 32.62651 40.95523 36.79087
#
# Velocity S-wave (km/s) = 3.72464 4.17305 3.95521
# Velocity P-wave (km/s) = 6.47166 7.39957 6.95112
#
# Compressibility (1/GPa) = 0.01818272
#
# Stress axis : x y z
#
# Youngs Moduli (GPa) = 73.85370 128.27135 65.71974
#
# Poissons Ratio (x) = 0.58736 0.03861
# Poissons Ratio (y) = 0.33818 0.26408
# Poissons Ratio (z) = 0.04339 0.51543
#
# Static dielectric constant tensor:
#      x y z
#    x 1.880620 0.000000 0.000000 
#    y 0.000000 1.926260 0.000000 
#    z 0.000000 0.000000 1.930240 
# 
# From -- ./inp_files/18187.got.cif
#   From: 2010.05.17/outbox.cif.g08.bks.cpg/sg52_10_cif.got.tgz:18187.got - 2010.06.03 12:15:38.
