data_PCOD9413468
_publ_section_title
;
Structure prediction by ZEFSAII (Michael W. Deem and Ramdas Pophale) SiO2 
 PCOD9413468
Probable space group: P N N A
;
_chemical_formula_sum "Si O2"
_cell_formula_units_Z 32
_cell_length_a 10.697522
_cell_length_b 8.666589
_cell_length_c 15.368275
_cell_angle_alpha 90.000000
_cell_angle_beta 90.000000
_cell_angle_gamma 90.000000
_cell_volume 1424.808551
_symmetry_space_group_name_H-M "P N N A"
_symmetry_group_IT_number 52
_symmetry_cell_setting 'orthorhombic'
loop_
_space_group_symop_operation_xyz
x,y,z
1/2-x,-y,z
x,1/2-y,1/2-z
1/2-x,1/2+y,1/2-z
-x,-y,-z
1/2+x,y,-z
-x,1/2+y,1/2+z
1/2+x,1/2-y,1/2+z
loop_
_atom_site_type_symbol
_atom_site_label
_atom_site_fract_x
_atom_site_fract_y
_atom_site_fract_z
Si Si1 0.131242 0.392493 0.816174
Si Si2 0.783311 0.825653 0.509037
Si Si3 0.383617 0.087933 0.955476
Si Si4 0.024380 0.300646 0.159583
O O1 0.250000 0.500000 0.789717
O O2 0.107392 0.250000 0.750000
O O3 0.026227 0.524792 0.831944
O O4 0.163480 0.320388 0.910792
O O5 0.657029 0.728941 0.516972
O O6 0.883207 0.780607 0.579805
O O7 0.750000 0.000000 0.524880
O O8 0.419411 0.171994 0.864910
O O9 0.250000 0.000000 0.948544
O O10 0.500000 0.000000 0.000000
O O11 0.083124 0.250000 0.250000
#
# Coordination Sequence:
#
# PCOD9413468 Si02
#       4
#     8   8   8   8
#     4  11  24  42  74 109 150 193 263 330 397 457
#     4  11  25  50  75 103 159 208 257 317 408 476
#     4  12  26  47  82 112 151 202 265 323 396 465
#     4  12  27  47  72 113 158 205 264 328 393 479
#
# _framework density 22.459157000000001
#
# number of rings (size 3 to 8) (size 9 to 14) (size 15 to 20)
#    0.000    0.500    7.500    1.500    3.500    0.000 
#    4.500    0.000    0.000    0.000    0.000    0.000 
#    0.000    0.000    0.000    0.000    0.000    0.000 
#
# Total GULP energy -178733.717047 kJ/mol
# GULP energy per Si atom -5585.428658 kJ/mol
# Density = 2.240804 g / cm^3
# Si number density = 22.459157 Si / 1000 Ang^3
#
#
#
# Elastic Constant Matrix: (Units=GPa)
#
#
# Indices 1 2 3 4 5 6 
#
# 1 83.0752 50.1311 52.5548 0.0000 0.0000 0.0000
# 2 50.1311 145.9242 52.7804 0.0000 0.0000 0.0000
# 3 52.5548 52.7804 116.9983 0.0000 0.0000 0.0000
# 4 0.0000 0.0000 0.0000 34.4912 0.0000 0.0000
# 5 0.0000 0.0000 0.0000 0.0000 20.4411 0.0000
# 6 0.0000 0.0000 0.0000 0.0000 0.0000 28.3815
#
#
#
# Elastic Compliance Matrix: (Units=1/GPa)
#
#
# Indices 1 2 3 4 5 6 
#
# 1 0.018604 -0.004026 -0.006541 0.000000 0.000000 0.000000
# 2 -0.004026 0.009060 -0.002279 0.000000 0.000000 0.000000
# 3 -0.006541 -0.002279 0.012513 0.000000 0.000000 0.000000
# 4 0.000000 0.000000 0.000000 0.028993 0.000000 0.000000
# 5 0.000000 0.000000 0.000000 0.000000 0.048921 0.000000
# 6 0.000000 0.000000 0.000000 0.000000 0.000000 0.035234
#
#
# Mechanical properties :
#
#
# Convention : Reuss Voigt Hill
#
# Bulk Modulus (GPa) = 69.02765 72.99228 71.00997
# Shear Modulus (GPa) = 27.19668 29.36486 28.28077
#
# Velocity S-wave (km/s) = 3.48363 3.61983 3.55238
# Velocity P-wave (km/s) = 6.85437 7.07400 6.96505
#
# Compressibility (1/GPa) = 0.01448695
#
# Stress axis : x y z
#
# Youngs Moduli (GPa) = 53.75077 110.37396 79.91456
#
# Poissons Ratio (x) = 0.44432 0.52272
# Poissons Ratio (y) = 0.21638 0.18212
# Poissons Ratio (z) = 0.35158 0.25154
#
# Static dielectric constant tensor:
#      x y z
#    x 1.917290 0.000000 0.000000 
#    y 0.000000 1.921830 0.000000 
#    z 0.000000 0.000000 1.802950 
# 
# From -- ./inp_files/25614.got.cif
#   From: 2010.05.17/outbox.cif.g08.bks.cpg/sg52_13_cif.got.tgz:25614.got - 2010.06.03 12:15:38.
