data_PCOD9413708
_publ_section_title
;
Structure prediction by ZEFSAII (Michael W. Deem and Ramdas Pophale) SiO2 
 PCOD9413708
Probable space group: P N N A
;
_chemical_formula_sum "Si O2"
_cell_formula_units_Z 28
_cell_length_a 9.973802
_cell_length_b 13.048388
_cell_length_c 8.673076
_cell_angle_alpha 90.000000
_cell_angle_beta 90.000000
_cell_angle_gamma 90.000000
_cell_volume 1128.731789
_symmetry_space_group_name_H-M "P N N A"
_symmetry_group_IT_number 52
_symmetry_cell_setting 'orthorhombic'
loop_
_space_group_symop_operation_xyz
x,y,z
1/2-x,-y,z
x,1/2-y,1/2-z
1/2-x,1/2+y,1/2-z
-x,-y,-z
1/2+x,y,-z
-x,1/2+y,1/2+z
1/2+x,1/2-y,1/2+z
loop_
_atom_site_type_symbol
_atom_site_label
_atom_site_fract_x
_atom_site_fract_y
_atom_site_fract_z
Si Si1 0.573484 0.830277 0.853951
Si Si2 0.236873 0.356842 0.115981
Si Si3 0.250000 0.000000 0.665386
Si Si4 0.035496 0.640606 0.694554
O O1 0.488693 0.750000 0.750000
O O2 0.698997 0.756272 0.906828
O O3 0.645875 0.903649 0.729062
O O4 0.508628 0.863702 0.011467
O O5 0.098644 0.360359 0.205323
O O6 0.214555 0.410525 0.954639
O O7 0.369487 0.045643 0.765164
O O8 0.097792 0.750000 0.750000
#
# Coordination Sequence:
#
# PCOD9413708 Si02
#       4
#     8   8   4   8
#     4   8  19  41  65  89 129 175 217 276 326 397
#     4   9  21  41  65  91 138 173 214 283 333 384
#     4  12  24  38  68 104 138 172 228 280 324 406
#     4  12  20  41  70  95 133 177 224 271 341 394
#
# _framework density 24.806602000000002
#
# number of rings (size 3 to 8) (size 9 to 14) (size 15 to 20)
#    1.714    0.000    5.714    0.857    0.000    1.143 
#    0.000   12.857    0.000    0.000    0.000    0.000 
#    0.000    0.000    0.000    0.000    0.000    0.000 
#
# Total GULP energy -156098.631118 kJ/mol
# GULP energy per Si atom -5574.951111 kJ/mol
# Density = 2.475014 g / cm^3
# Si number density = 24.806602 Si / 1000 Ang^3
#
#
#
# Elastic Constant Matrix: (Units=GPa)
#
#
# Indices 1 2 3 4 5 6 
#
# 1 54.5415 1.0526 12.0557 0.0000 0.0000 0.0000
# 2 1.0526 63.9871 -0.8668 0.0000 0.0000 0.0000
# 3 12.0557 -0.8668 155.3687 0.0000 0.0000 0.0000
# 4 0.0000 0.0000 0.0000 45.8611 0.0000 0.0000
# 5 0.0000 0.0000 0.0000 0.0000 40.0139 0.0000
# 6 0.0000 0.0000 0.0000 0.0000 0.0000 30.0069
#
#
#
# Elastic Compliance Matrix: (Units=1/GPa)
#
#
# Indices 1 2 3 4 5 6 
#
# 1 0.018661 -0.000327 -0.001450 0.000000 0.000000 0.000000
# 2 -0.000327 0.015635 0.000113 0.000000 0.000000 0.000000
# 3 -0.001450 0.000113 0.006549 0.000000 0.000000 0.000000
# 4 0.000000 0.000000 0.000000 0.021805 0.000000 0.000000
# 5 0.000000 0.000000 0.000000 0.000000 0.024991 0.000000
# 6 0.000000 0.000000 0.000000 0.000000 0.000000 0.033326
#
#
# Mechanical properties :
#
#
# Convention : Reuss Voigt Hill
#
# Bulk Modulus (GPa) = 26.65377 33.15336 29.90356
# Shear Modulus (GPa) = 36.54926 40.62010 38.58468
#
# Velocity S-wave (km/s) = 3.84261 4.05096 3.94816
# Velocity P-wave (km/s) = 5.51865 5.93920 5.73278
#
# Compressibility (1/GPa) = 0.03751814
#
# Stress axis : x y z
#
# Youngs Moduli (GPa) = 53.58645 63.95886 152.68506
#
# Poissons Ratio (x) = 0.02089 0.22137
# Poissons Ratio (y) = 0.01750 -0.01719
# Poissons Ratio (z) = 0.07769 -0.00720
#
# Static dielectric constant tensor:
#      x y z
#    x 1.938610 0.000000 0.000000 
#    y 0.000000 2.138310 0.000000 
#    z 0.000000 0.000000 1.985930 
# 
# From -- ./inp_files/8138.got.cif
#   From: 2010.05.17/outbox.cif.g08.bks.cpg/sg52_5_cif.got.tgz:8138.got - 2010.06.03 12:15:38.
