data_PCOD9413574
_publ_section_title
;
Structure prediction by ZEFSAII (Michael W. Deem and Ramdas Pophale) SiO2 
 PCOD9413574
Probable space group: P N N A
;
_chemical_formula_sum "Si O2"
_cell_formula_units_Z 24
_cell_length_a 14.280249
_cell_length_b 5.221704
_cell_length_c 12.453005
_cell_angle_alpha 90.000000
_cell_angle_beta 90.000000
_cell_angle_gamma 90.000000
_cell_volume 928.586129
_symmetry_space_group_name_H-M "P N N A"
_symmetry_group_IT_number 52
_symmetry_cell_setting 'orthorhombic'
loop_
_space_group_symop_operation_xyz
x,y,z
1/2-x,-y,z
x,1/2-y,1/2-z
1/2-x,1/2+y,1/2-z
-x,-y,-z
1/2+x,y,-z
-x,1/2+y,1/2+z
1/2+x,1/2-y,1/2+z
loop_
_atom_site_type_symbol
_atom_site_label
_atom_site_fract_x
_atom_site_fract_y
_atom_site_fract_z
Si Si1 0.600062 0.553366 0.335024
Si Si2 0.901902 0.992016 0.710188
Si Si3 0.861011 0.969413 0.468547
O O1 0.655162 0.750000 0.250000
O O2 0.501010 0.510458 0.276103
O O3 0.627459 0.274795 0.385910
O O4 0.600927 0.754469 0.430818
O O5 0.857666 0.250000 0.750000
O O6 0.846332 0.750000 0.750000
O O7 0.909521 0.946099 0.584077
O O8 0.750000 0.000000 0.485017
#
# Coordination Sequence:
#
# PCOD9413574 Si02
#       3
#     8   8   8
#     4  11  25  45  72 104 142 188 241 292 353 434
#     4  11  25  44  73 106 141 187 243 294 351 431
#     4  12  27  47  72 106 147 187 234 300 368 423
#
# _framework density 25.845745000000001
#
# number of rings (size 3 to 8) (size 9 to 14) (size 15 to 20)
#    0.000    0.667    0.000    8.000    0.000   22.667 
#    0.000    1.667    0.000    0.000    0.000    0.000 
#    0.000    0.000    0.000    0.000    0.000    0.000 
#
# Total GULP energy -133734.594315 kJ/mol
# GULP energy per Si atom -5572.274763 kJ/mol
# Density = 2.578692 g / cm^3
# Si number density = 25.845745 Si / 1000 Ang^3
#
#
#
# Elastic Constant Matrix: (Units=GPa)
#
#
# Indices 1 2 3 4 5 6 
#
# 1 145.8040 29.3773 28.5815 0.0000 0.0000 0.0000
# 2 29.3773 249.4076 22.0432 0.0000 0.0000 0.0000
# 3 28.5815 22.0432 98.6012 0.0000 0.0000 0.0000
# 4 0.0000 0.0000 0.0000 62.7997 0.0000 0.0000
# 5 0.0000 0.0000 0.0000 0.0000 392.2833 0.0000
# 6 0.0000 0.0000 0.0000 0.0000 0.0000 -29.2100
#
#
#
# Elastic Compliance Matrix: (Units=1/GPa)
#
#
# Indices 1 2 3 4 5 6 
#
# 1 0.007388 -0.000695 -0.001986 0.000000 0.000000 0.000000
# 2 -0.000695 0.004156 -0.000728 0.000000 0.000000 0.000000
# 3 -0.001986 -0.000728 0.010880 0.000000 0.000000 0.000000
# 4 0.000000 0.000000 0.000000 0.015924 0.000000 0.000000
# 5 0.000000 0.000000 0.000000 0.000000 0.002549 0.000000
# 6 0.000000 0.000000 0.000000 0.000000 0.000000 -0.034235
#
#
# Mechanical properties :
#
#
# Convention : Reuss Voigt Hill
#
# Bulk Modulus (GPa) = 64.07512 72.64630 68.36071
# Shear Modulus (GPa) = 267.65217 112.76201 190.20709
#
# Velocity S-wave (km/s) = 10.18736 6.61238 8.58795
# Velocity P-wave (km/s) = 12.77582 9.29875 11.17337
#
# Compressibility (1/GPa) = 0.01560668
#
# Stress axis : x y z
#
# Youngs Moduli (GPa) = 135.35760 240.63708 91.90938
#
# Poissons Ratio (x) = 0.16716 0.18255
# Poissons Ratio (y) = 0.09403 0.06688
# Poissons Ratio (z) = 0.26885 0.17510
#
# Static dielectric constant tensor:
#      x y z
#    x 2.062480 0.000000 0.000000 
#    y 0.000000 2.160540 0.000000 
#    z 0.000000 0.000000 2.251690 
# 
# From -- ./inp_files/20015.got.cif
#   From: 2010.05.17/outbox.cif.g08.bks.cpg/sg52_11_cif.got.tgz:20015.got - 2010.06.03 12:15:38.
