data_PCOD9413195
_publ_section_title
;
Structure prediction by ZEFSAII (Michael W. Deem and Ramdas Pophale) SiO2 
 PCOD9413195
Probable space group: P N N A
;
_chemical_formula_sum "Si O2"
_cell_formula_units_Z 64
_cell_length_a 13.832388
_cell_length_b 14.036110
_cell_length_c 17.142575
_cell_angle_alpha 90.000000
_cell_angle_beta 90.000000
_cell_angle_gamma 90.000000
_cell_volume 3328.280985
_symmetry_space_group_name_H-M "P N N A"
_symmetry_group_IT_number 52
_symmetry_cell_setting 'orthorhombic'
loop_
_space_group_symop_operation_xyz
x,y,z
1/2-x,-y,z
x,1/2-y,1/2-z
1/2-x,1/2+y,1/2-z
-x,-y,-z
1/2+x,y,-z
-x,1/2+y,1/2+z
1/2+x,1/2-y,1/2+z
loop_
_atom_site_type_symbol
_atom_site_label
_atom_site_fract_x
_atom_site_fract_y
_atom_site_fract_z
Si Si1 0.982216 0.061723 0.853128
Si Si2 0.824990 0.221540 0.835617
Si Si3 0.336758 0.424265 0.905420
Si Si4 0.173320 0.085335 0.125683
Si Si5 0.334258 0.419344 0.085994
Si Si6 0.465641 0.929054 0.676152
Si Si7 0.804671 0.727611 0.158439
Si Si8 0.171247 0.084501 0.944097
O O1 0.905133 0.147457 0.869458
O O2 0.029062 0.081005 0.769065
O O3 0.064668 0.052809 0.917547
O O4 0.925271 0.962230 0.847725
O O5 0.861679 0.250000 0.750000
O O6 0.723156 0.167860 0.825669
O O7 0.804021 0.313070 0.888479
O O8 0.250000 0.500000 0.906954
O O9 0.415336 0.473372 0.850819
O O10 0.289122 0.330269 0.870217
O O11 0.366864 0.415682 0.995626
O O12 0.250000 0.000000 0.131367
O O13 0.169601 0.112565 0.034845
O O14 0.250000 0.500000 0.095495
O O15 0.427418 0.434348 0.140511
O O16 0.399679 0.840238 0.645912
O O17 0.799205 0.750000 0.250000
O O18 0.808538 0.824015 0.109145
O O19 0.250000 0.000000 0.933496
#
# Coordination Sequence:
#
# PCOD9413195 Si02
#       8
#     8   8   8   8   8   8   8   8
#     4  11  22  38  65  91 121 159 208 248 299 359
#     4  11  22  38  65  91 121 159 208 248 299 359
#     4   9  22  41  61  89 124 159 199 258 304 351
#     4   9  22  41  61  89 124 159 199 258 304 351
#     4  11  23  39  63  91 122 161 203 246 304 361
#     4  11  22  38  65  91 121 159 208 248 299 359
#     4  11  22  38  65  91 121 159 208 248 299 359
#     4  11  23  39  63  91 122 161 203 246 304 361
#
# _framework density 19.229146
#
# number of rings (size 3 to 8) (size 9 to 14) (size 15 to 20)
#    0.000    1.500    2.500    2.250    3.500    0.000 
#    0.000    3.750    0.000    0.000    0.000    0.000 
#    0.000    0.000    0.000    0.000    0.000    0.000 
#
# Total GULP energy -357042.469230 kJ/mol
# GULP energy per Si atom -5578.788582 kJ/mol
# Density = 1.918538 g / cm^3
# Si number density = 19.229146 Si / 1000 Ang^3
#
#
#
# Elastic Constant Matrix: (Units=GPa)
#
#
# Indices 1 2 3 4 5 6 
#
# 1 53.7628 22.8480 0.4827 0.0000 0.0000 0.0000
# 2 22.8480 70.0783 26.2838 0.0000 0.0000 0.0000
# 3 0.4827 26.2838 29.8065 0.0000 0.0000 0.0000
# 4 0.0000 0.0000 0.0000 27.7121 0.0000 0.0000
# 5 0.0000 0.0000 0.0000 0.0000 25.1497 0.0000
# 6 0.0000 0.0000 0.0000 0.0000 0.0000 32.8618
#
#
#
# Elastic Compliance Matrix: (Units=1/GPa)
#
#
# Indices 1 2 3 4 5 6 
#
# 1 0.023237 -0.011109 0.009420 0.000000 0.000000 0.000000
# 2 -0.011109 0.026633 -0.023305 0.000000 0.000000 0.000000
# 3 0.009420 -0.023305 0.053948 0.000000 0.000000 0.000000
# 4 0.000000 0.000000 0.000000 0.036085 0.000000 0.000000
# 5 0.000000 0.000000 0.000000 0.000000 0.039762 0.000000
# 6 0.000000 0.000000 0.000000 0.000000 0.000000 0.030430
#
#
# Mechanical properties :
#
#
# Convention : Reuss Voigt Hill
#
# Bulk Modulus (GPa) = 18.57743 28.09740 23.33742
# Shear Modulus (GPa) = 17.98387 24.08025 21.03206
#
# Velocity S-wave (km/s) = 3.06149 3.54259 3.31079
# Velocity P-wave (km/s) = 4.70946 5.60151 5.17474
#
# Compressibility (1/GPa) = 0.05382875
#
# Stress axis : x y z
#
# Youngs Moduli (GPa) = 43.03527 37.54794 18.53633
#
# Poissons Ratio (x) = 0.41712 -0.17461
# Poissons Ratio (y) = 0.47808 0.43199
# Poissons Ratio (z) = -0.40539 0.87506
#
# Static dielectric constant tensor:
#      x y z
#    x 1.692510 0.000000 0.000000 
#    y 0.000000 1.697150 0.000000 
#    z 0.000000 0.000000 1.665630 
# 
# From -- ./inp_files/33283.got.cif
#   From: 2010.05.17/outbox.cif.g08.bks.cpg/sg52_17_cif.got.tgz:33283.got - 2010.06.03 12:15:38.
