data_PCOD9413971
_publ_section_title
;
Structure prediction by ZEFSAII (Michael W. Deem and Ramdas Pophale) SiO2 
 PCOD9413971
Probable space group: P N N A
;
_chemical_formula_sum "Si O2"
_cell_formula_units_Z 56
_cell_length_a 21.000000
_cell_length_b 15.000000
_cell_length_c 9.000000
_cell_angle_alpha 90.000000
_cell_angle_beta 90.000000
_cell_angle_gamma 90.000000
_cell_volume 2835.000000
_symmetry_space_group_name_H-M "P N N A"
_symmetry_group_IT_number 52
_symmetry_cell_setting 'orthorhombic'
loop_
_space_group_symop_operation_xyz
x,y,z
1/2-x,-y,z
x,1/2-y,1/2-z
1/2-x,1/2+y,1/2-z
-x,-y,-z
1/2+x,y,-z
-x,1/2+y,1/2+z
1/2+x,1/2-y,1/2+z
loop_
_atom_site_type_symbol
_atom_site_label
_atom_site_fract_x
_atom_site_fract_y
_atom_site_fract_z
Si Si1 0.982001 0.832247 0.690168
Si Si2 0.359010 0.612455 0.307860
Si Si3 0.422697 0.012051 0.731909
Si Si4 0.493972 0.840601 0.658358
Si Si5 0.716490 0.848991 0.759461
Si Si6 0.621960 0.551314 0.908814
Si Si7 0.818501 0.475390 0.462628
O O1 0.023977 0.750000 0.750000
O O2 0.921332 0.829444 0.799859
O O3 0.016767 0.924325 0.722994
O O4 0.971238 0.828137 0.513067
O O5 0.292382 0.653049 0.258339
O O6 0.376263 0.534733 0.193280
O O7 0.344537 0.565412 0.461987
O O8 0.388870 0.021694 0.574427
O O9 0.373783 0.049179 0.851722
O O10 0.448539 0.911590 0.741509
O O11 0.496629 0.750000 0.750000
O O12 0.563925 0.885140 0.641691
O O13 0.690490 0.750000 0.750000
O O14 0.688531 0.900747 0.619700
O O15 0.694461 0.904210 0.905525
O O16 0.750000 0.500000 0.394221
#
# Coordination Sequence:
#
# PCOD9413971 Si02
#       7
#     8   8   8   8   8   8   8
#     4  11  23  38  61  92 122 160 205 248 303 369
#     4  10  19  39  60  85 119 158 203 247 293 361
#     4  11  22  41  61  87 128 156 198 255 312 365
#     4  11  23  40  60  91 125 159 200 257 308 362
#     4  10  21  38  60  88 119 160 210 253 291 356
#     4  10  19  39  63  83 118 162 204 239 302 369
#     4   9  22  38  60  87 117 156 202 250 305 357
#
# _framework density 19.753086
#
# number of rings (size 3 to 8) (size 9 to 14) (size 15 to 20)
#    0.000    1.714    2.857    3.000    2.000    6.286 
#    0.000    0.000    0.000    0.857    0.000    0.000 
#    0.000    0.000    0.000    0.000    0.000    0.000 
#
# Total GULP energy -311860.403125 kJ/mol
# GULP energy per Si atom -5568.935770 kJ/mol
# Density = 1.970813 g / cm^3
# Si number density = 19.753086 Si / 1000 Ang^3
#
#
#
# Elastic Constant Matrix: (Units=GPa)
#
#
# Indices 1 2 3 4 5 6 
#
# 1 13.7329 -9.1154 57.5626 0.0000 0.0000 0.0000
# 2 -9.1154 83.9263 20.4494 0.0000 0.0000 0.0000
# 3 57.5626 20.4494 25.2640 0.0000 0.0000 0.0000
# 4 0.0000 0.0000 0.0000 -9.9205 0.0000 0.0000
# 5 0.0000 0.0000 0.0000 0.0000 -29.0736 0.0000
# 6 0.0000 0.0000 0.0000 0.0000 0.0000 19.8393
#
#
#
# Elastic Compliance Matrix: (Units=1/GPa)
#
#
# Indices 1 2 3 4 5 6 
#
# 1 -0.006117 -0.005058 0.018031 0.000000 0.000000 0.000000
# 2 -0.005058 0.010661 0.002895 0.000000 0.000000 0.000000
# 3 0.018031 0.002895 -0.003843 0.000000 0.000000 0.000000
# 4 0.000000 0.000000 0.000000 -0.100801 0.000000 0.000000
# 5 0.000000 0.000000 0.000000 0.000000 -0.034395 0.000000
# 6 0.000000 0.000000 0.000000 0.000000 0.000000 0.050405
#
#
# Mechanical properties :
#
#
# Convention : Reuss Voigt Hill
#
# Bulk Modulus (GPa) = 30.82979 28.96848 29.89914
# Shear Modulus (GPa) = -47.61236 -0.22920 -23.92078
#
# Velocity S-wave (km/s) = -4.91488 -0.34101 -3.48370
# Velocity P-wave (km/s) = 4.07022 3.81341 1.00612
#
# Compressibility (1/GPa) = 0.03243616
#
# Stress axis : x y z
#
# Youngs Moduli (GPa) = -163.48322 93.80392 -260.19696
#
# Poissons Ratio (x) = 0.47443 4.69155
# Poissons Ratio (y) = -0.82685 0.75322
# Poissons Ratio (z) = 2.94773 -0.27154
#
# Static dielectric constant tensor:
#      x y z
#    x 1.732610 0.000000 0.000000 
#    y 0.000000 1.701440 0.000000 
#    z 0.000000 0.000000 1.642640 
# 
# From -- ./inp_files/13424.got.cif
#   From: 2010.05.17/outbox.ucp.g08.bks.cvg/sg52_7_cif.got.tgz:13424.got - 2010.06.11 16:30:12.
