data_PCOD9413843
_publ_section_title
;
Structure prediction by ZEFSAII (Michael W. Deem and Ramdas Pophale) SiO2 
 PCOD9413843
Probable space group: P N N A
;
_chemical_formula_sum "Si O2"
_cell_formula_units_Z 32
_cell_length_a 8.188997
_cell_length_b 32.088024
_cell_length_c 4.886225
_cell_angle_alpha 90.000000
_cell_angle_beta 90.000000
_cell_angle_gamma 90.000000
_cell_volume 1283.947149
_symmetry_space_group_name_H-M "P N N A"
_symmetry_group_IT_number 52
_symmetry_cell_setting 'orthorhombic'
loop_
_space_group_symop_operation_xyz
x,y,z
1/2-x,-y,z
x,1/2-y,1/2-z
1/2-x,1/2+y,1/2-z
-x,-y,-z
1/2+x,y,-z
-x,1/2+y,1/2+z
1/2+x,1/2-y,1/2+z
loop_
_atom_site_type_symbol
_atom_site_label
_atom_site_fract_x
_atom_site_fract_y
_atom_site_fract_z
Si Si1 0.712108 0.828475 0.641190
Si Si2 0.882686 0.795990 0.157325
Si Si3 0.031295 0.546616 0.397967
Si Si4 0.149172 0.421260 0.129532
O O1 0.727740 0.807748 0.345180
O O2 0.530022 0.826300 0.757448
O O3 0.778750 0.875089 0.619477
O O4 0.826930 0.802584 0.848624
O O5 0.935033 0.750000 0.250000
O O6 0.092855 0.439290 0.840348
O O7 0.209096 0.551412 0.268064
O O8 0.000000 0.500000 0.500000
O O9 0.002733 0.576110 0.660512
#
# Coordination Sequence:
#
# PCOD9413843 Si02
#       4
#     8   8   8   8
#     4  12  25  44  70 100 137 183 230 283 340 407
#     4  12  25  44  68 102 141 184 231 284 342 406
#     4  12  27  47  72 102 138 179 227 286 348 415
#     4  12  25  47  71 102 137 180 230 283 344 414
#
# _framework density 24.923147
#
# number of rings (size 3 to 8) (size 9 to 14) (size 15 to 20)
#    0.000    0.000    0.000   11.250    0.000    2.000 
#    0.000    0.000    0.000    0.000    0.000    0.000 
#    0.000    0.000    0.000    0.000    0.000    0.000 
#
# Total GULP energy -179663.129359 kJ/mol
# GULP energy per Si atom -5614.472792 kJ/mol
# Density = 2.486642 g / cm^3
# Si number density = 24.923147 Si / 1000 Ang^3
#
#
#
# Elastic Constant Matrix: (Units=GPa)
#
#
# Indices 1 2 3 4 5 6 
#
# 1 86.8745 2.9266 13.0448 0.0000 0.0000 0.0000
# 2 2.9266 121.4305 41.6201 0.0000 0.0000 0.0000
# 3 13.0448 41.6201 135.5215 0.0000 0.0000 0.0000
# 4 0.0000 0.0000 0.0000 37.4284 0.0000 0.0000
# 5 0.0000 0.0000 0.0000 0.0000 33.8176 0.0000
# 6 0.0000 0.0000 0.0000 0.0000 0.0000 35.6798
#
#
#
# Elastic Compliance Matrix: (Units=1/GPa)
#
#
# Indices 1 2 3 4 5 6 
#
# 1 0.011681 0.000116 -0.001160 0.000000 0.000000 0.000000
# 2 0.000116 0.009205 -0.002838 0.000000 0.000000 0.000000
# 3 -0.001160 -0.002838 0.008362 0.000000 0.000000 0.000000
# 4 0.000000 0.000000 0.000000 0.026718 0.000000 0.000000
# 5 0.000000 0.000000 0.000000 0.000000 0.029570 0.000000
# 6 0.000000 0.000000 0.000000 0.000000 0.000000 0.028027
#
#
# Mechanical properties :
#
#
# Convention : Reuss Voigt Hill
#
# Bulk Modulus (GPa) = 46.54581 51.00107 48.77344
# Shear Modulus (GPa) = 38.91376 40.46750 39.69063
#
# Velocity S-wave (km/s) = 3.95568 4.03388 3.99497
# Velocity P-wave (km/s) = 6.29122 6.49646 6.39466
#
# Compressibility (1/GPa) = 0.02148421
#
# Stress axis : x y z
#
# Youngs Moduli (GPa) = 85.60813 108.63489 119.58577
#
# Poissons Ratio (x) = -0.01261 0.13872
# Poissons Ratio (y) = -0.00994 0.33941
# Poissons Ratio (z) = 0.09931 0.30832
#
# Static dielectric constant tensor:
#      x y z
#    x 2.002640 0.000000 0.000000 
#    y 0.000000 1.964490 0.000000 
#    z 0.000000 0.000000 1.904490 
# 
# From -- ./inp_files/394.got.cif
#   From: 2010.05.17/outbox.cif.g08.bks.cpg/sg52_1_cif.got.tgz:394.got - 2010.06.03 12:15:38.
