data_PCOD9413204
_publ_section_title
;
Structure prediction by ZEFSAII (Michael W. Deem and Ramdas Pophale) SiO2 
 PCOD9413204
Probable space group: P N N A
;
_chemical_formula_sum "Si O2"
_cell_formula_units_Z 32
_cell_length_a 10.059402
_cell_length_b 17.670829
_cell_length_c 7.900774
_cell_angle_alpha 90.000000
_cell_angle_beta 90.000000
_cell_angle_gamma 90.000000
_cell_volume 1404.425568
_symmetry_space_group_name_H-M "P N N A"
_symmetry_group_IT_number 52
_symmetry_cell_setting 'orthorhombic'
loop_
_space_group_symop_operation_xyz
x,y,z
1/2-x,-y,z
x,1/2-y,1/2-z
1/2-x,1/2+y,1/2-z
-x,-y,-z
1/2+x,y,-z
-x,1/2+y,1/2+z
1/2+x,1/2-y,1/2+z
loop_
_atom_site_type_symbol
_atom_site_label
_atom_site_fract_x
_atom_site_fract_y
_atom_site_fract_z
Si Si1 0.413910 0.655457 0.424864
Si Si2 0.625686 0.548463 0.942671
Si Si3 0.455996 0.298317 0.896075
Si Si4 0.160546 0.931285 0.042337
O O1 0.426337 0.666662 0.221933
O O2 0.474986 0.732187 0.504367
O O3 0.264782 0.637710 0.473447
O O4 0.519886 0.589130 0.461510
O O5 0.750000 0.500000 0.005419
O O6 0.617074 0.633508 0.015364
O O7 0.500000 0.500000 0.000000
O O8 0.634174 0.553687 0.739874
O O9 0.378394 0.250000 0.750000
O O10 0.250000 0.000000 0.971971
#
# Coordination Sequence:
#
# PCOD9413204 Si02
#       4
#     8   8   8   8
#     4   9  22  39  61  90 127 169 213 268 323 391
#     4  11  24  41  68  98 132 177 222 277 335 396
#     4   8  21  42  59  93 136 167 216 275 330 393
#     4  11  22  39  64  95 128 173 215 269 330 388
#
# _framework density 22.785115000000001
#
# number of rings (size 3 to 8) (size 9 to 14) (size 15 to 20)
#    1.500    0.500    0.000    3.750    0.000   10.000 
#    0.000    0.000    0.000    0.000    0.000    0.000 
#    0.000    0.000    0.000    0.000    0.000    0.000 
#
# Total GULP energy -178382.506460 kJ/mol
# GULP energy per Si atom -5574.453327 kJ/mol
# Density = 2.273325 g / cm^3
# Si number density = 22.785115 Si / 1000 Ang^3
#
#
#
# Elastic Constant Matrix: (Units=GPa)
#
#
# Indices 1 2 3 4 5 6 
#
# 1 131.6738 39.5009 16.0500 0.0000 0.0000 0.0000
# 2 39.5009 131.6365 30.1638 0.0000 0.0000 0.0000
# 3 16.0500 30.1638 27.8494 0.0000 0.0000 0.0000
# 4 0.0000 0.0000 0.0000 35.3473 0.0000 0.0000
# 5 0.0000 0.0000 0.0000 0.0000 19.3870 0.0000
# 6 0.0000 0.0000 0.0000 0.0000 0.0000 28.8761
#
#
#
# Elastic Compliance Matrix: (Units=1/GPa)
#
#
# Indices 1 2 3 4 5 6 
#
# 1 0.008512 -0.001902 -0.002845 0.000000 0.000000 0.000000
# 2 -0.001902 0.010530 -0.010308 0.000000 0.000000 0.000000
# 3 -0.002845 -0.010308 0.048712 0.000000 0.000000 0.000000
# 4 0.000000 0.000000 0.000000 0.028291 0.000000 0.000000
# 5 0.000000 0.000000 0.000000 0.000000 0.051581 0.000000
# 6 0.000000 0.000000 0.000000 0.000000 0.000000 0.034631
#
#
# Mechanical properties :
#
#
# Convention : Reuss Voigt Hill
#
# Bulk Modulus (GPa) = 26.56603 51.39879 38.98241
# Shear Modulus (GPa) = 22.23059 30.41840 26.32450
#
# Velocity S-wave (km/s) = 3.12695 3.65775 3.40271
# Velocity P-wave (km/s) = 4.97210 6.35970 5.70822
#
# Compressibility (1/GPa) = 0.03764205
#
# Stress axis : x y z
#
# Youngs Moduli (GPa) = 117.48116 94.97027 20.52876
#
# Poissons Ratio (x) = 0.18066 0.05841
# Poissons Ratio (y) = 0.22348 0.21162
# Poissons Ratio (z) = 0.33426 0.97899
#
# Static dielectric constant tensor:
#      x y z
#    x 1.787850 0.000000 0.000000 
#    y 0.000000 1.957970 0.000000 
#    z 0.000000 0.000000 1.860490 
# 
# From -- ./inp_files/8450.got.cif
#   From: 2010.05.17/outbox.cif.g08.bks.cpg/sg52_5_cif.got.tgz:8450.got - 2010.06.03 12:15:38.
