data_PCOD9413675
_publ_section_title
;
Structure prediction by ZEFSAII (Michael W. Deem and Ramdas Pophale) SiO2 
 PCOD9413675
Probable space group: P N N A
;
_chemical_formula_sum "Si O2"
_cell_formula_units_Z 24
_cell_length_a 10.129374
_cell_length_b 5.263745
_cell_length_c 18.253460
_cell_angle_alpha 90.000000
_cell_angle_beta 90.000000
_cell_angle_gamma 90.000000
_cell_volume 973.246044
_symmetry_space_group_name_H-M "P N N A"
_symmetry_group_IT_number 52
_symmetry_cell_setting 'orthorhombic'
loop_
_space_group_symop_operation_xyz
x,y,z
1/2-x,-y,z
x,1/2-y,1/2-z
1/2-x,1/2+y,1/2-z
-x,-y,-z
1/2+x,y,-z
-x,1/2+y,1/2+z
1/2+x,1/2-y,1/2+z
loop_
_atom_site_type_symbol
_atom_site_label
_atom_site_fract_x
_atom_site_fract_y
_atom_site_fract_z
Si Si1 0.840363 0.750000 0.750000
Si Si2 0.875952 0.179384 0.509845
Si Si3 0.750000 0.500000 0.289586
Si Si4 0.488987 0.472469 0.623260
O O1 0.750000 0.500000 0.757987
O O2 0.929006 0.709285 0.677151
O O3 0.891421 0.345418 0.436680
O O4 0.905865 0.358216 0.579052
O O5 0.750000 0.000000 0.515516
O O6 0.000000 0.000000 0.500000
O O7 0.695776 0.750000 0.250000
O O8 0.620883 0.382513 0.329699
#
# Coordination Sequence:
#
# PCOD9413675 Si02
#       4
#     4   8   4   8
#     4  12  32  50  80 114 168 218 274 334 416 494
#     4  11  27  48  82 115 162 213 272 340 416 489
#     4  12  28  50  82 114 156 206 270 336 410 484
#     4  11  28  50  77 120 157 213 274 342 411 499
#
# _framework density 24.659745999999998
#
# number of rings (size 3 to 8) (size 9 to 14) (size 15 to 20)
#    0.000    0.667    1.667    2.000   18.667    2.667 
#    0.000    0.000    0.000    0.000    0.000    0.000 
#    0.000    0.000    0.000    0.000    0.000    0.000 
#
# Total GULP energy -134265.178417 kJ/mol
# GULP energy per Si atom -5594.382434 kJ/mol
# Density = 2.460362 g / cm^3
# Si number density = 24.659746 Si / 1000 Ang^3
#
#
#
# Elastic Constant Matrix: (Units=GPa)
#
#
# Indices 1 2 3 4 5 6 
#
# 1 205.5818 77.0430 74.6951 0.0000 0.0000 0.0000
# 2 77.0430 127.0192 67.5240 0.0000 0.0000 0.0000
# 3 74.6951 67.5240 140.6733 0.0000 0.0000 0.0000
# 4 0.0000 0.0000 0.0000 -21.3935 0.0000 0.0000
# 5 0.0000 0.0000 0.0000 0.0000 -0.5606 0.0000
# 6 0.0000 0.0000 0.0000 0.0000 0.0000 67.1019
#
#
#
# Elastic Compliance Matrix: (Units=1/GPa)
#
#
# Indices 1 2 3 4 5 6 
#
# 1 0.006757 -0.002942 -0.002176 0.000000 0.000000 0.000000
# 2 -0.002942 0.011851 -0.004126 0.000000 0.000000 0.000000
# 3 -0.002176 -0.004126 0.010245 0.000000 0.000000 0.000000
# 4 0.000000 0.000000 0.000000 -0.046743 0.000000 0.000000
# 5 0.000000 0.000000 0.000000 0.000000 -1.783721 0.000000
# 6 0.000000 0.000000 0.000000 0.000000 0.000000 0.014903
#
#
# Mechanical properties :
#
#
# Convention : Reuss Voigt Hill
#
# Bulk Modulus (GPa) = 96.48289 101.31095 98.89692
# Shear Modulus (GPa) = -2.83324 25.96369 11.56523
#
# Velocity S-wave (km/s) = -1.07305 3.24833 2.16797
# Velocity P-wave (km/s) = 6.13803 7.43247 6.81604
#
# Compressibility (1/GPa) = 0.01036453
#
# Stress axis : x y z
#
# Youngs Moduli (GPa) = 147.98759 84.38230 97.61150
#
# Poissons Ratio (x) = 0.24825 0.21239
# Poissons Ratio (y) = 0.43537 0.40278
# Poissons Ratio (z) = 0.32200 0.34819
#
# Static dielectric constant tensor:
#      x y z
#    x 1.678710 0.000000 0.000000 
#    y 0.000000 4.336010 0.000000 
#    z 0.000000 0.000000 2.182790 
# 
# From -- ./inp_files/25350.got.cif
#   From: 2010.05.17/outbox.cif.g08.bks.cpg/sg52_13_cif.got.tgz:25350.got - 2010.06.03 12:15:38.
