data_PCOD9413786
_publ_section_title
;
Structure prediction by ZEFSAII (Michael W. Deem and Ramdas Pophale) SiO2 
 PCOD9413786
Probable space group: P N N A
;
_chemical_formula_sum "Si O2"
_cell_formula_units_Z 48
_cell_length_a 15.417522
_cell_length_b 11.690782
_cell_length_c 12.922746
_cell_angle_alpha 90.000000
_cell_angle_beta 90.000000
_cell_angle_gamma 90.000000
_cell_volume 2329.233069
_symmetry_space_group_name_H-M "P N N A"
_symmetry_group_IT_number 52
_symmetry_cell_setting 'orthorhombic'
loop_
_space_group_symop_operation_xyz
x,y,z
1/2-x,-y,z
x,1/2-y,1/2-z
1/2-x,1/2+y,1/2-z
-x,-y,-z
1/2+x,y,-z
-x,1/2+y,1/2+z
1/2+x,1/2-y,1/2+z
loop_
_atom_site_type_symbol
_atom_site_label
_atom_site_fract_x
_atom_site_fract_y
_atom_site_fract_z
Si Si1 0.974992 0.936836 0.798012
Si Si2 0.733232 0.750000 0.750000
Si Si3 0.427915 0.708249 0.494687
Si Si4 0.250000 0.000000 0.335797
Si Si5 0.155061 0.997200 0.892465
Si Si6 0.578401 0.448752 0.933077
Si Si7 0.390550 0.349951 0.412000
O O1 0.938914 0.844539 0.879777
O O2 0.961176 0.914977 0.678446
O O3 0.076653 0.954233 0.821639
O O4 0.926951 0.053807 0.832860
O O5 0.770555 0.880528 0.728006
O O6 0.675093 0.727340 0.649609
O O7 0.373329 0.620190 0.562866
O O8 0.390012 0.833379 0.488488
O O9 0.524437 0.711741 0.543136
O O10 0.164157 0.980240 0.404786
O O11 0.250000 0.000000 0.844846
O O12 0.154739 0.915055 0.993078
O O13 0.500000 0.500000 0.000000
#
# Coordination Sequence:
#
# PCOD9413786 Si02
#       7
#     8   4   8   4   8   8   8
#     4   9  19  40  61  91 121 172 213 259 329 378
#     4  12  24  40  62 100 134 160 222 270 322 386
#     4   9  20  37  65  89 123 168 213 260 328 391
#     4  12  30  40  68  98 126 178 216 266 334 386
#     4   9  19  35  62  96 120 163 216 270 310 381
#     4  12  25  44  62  91 131 170 211 272 328 389
#     4   9  19  36  62  88 129 162 209 264 321 381
#
# _framework density 20.607641999999998
#
# number of rings (size 3 to 8) (size 9 to 14) (size 15 to 20)
#    0.000    2.000    1.667    3.500    5.833    0.000 
#    1.500    0.000    0.000    0.000    0.000    0.000 
#    0.000    0.000    0.000    0.000    0.000    0.000 
#
# Total GULP energy -267813.136177 kJ/mol
# GULP energy per Si atom -5579.440337 kJ/mol
# Density = 2.056074 g / cm^3
# Si number density = 20.607642 Si / 1000 Ang^3
#
#
#
# Elastic Constant Matrix: (Units=GPa)
#
#
# Indices 1 2 3 4 5 6 
#
# 1 97.1299 24.7183 13.6325 0.0000 0.0000 0.0000
# 2 24.7183 96.2453 12.7143 0.0000 0.0000 0.0000
# 3 13.6325 12.7143 52.8969 0.0000 0.0000 0.0000
# 4 0.0000 0.0000 0.0000 9.0435 0.0000 0.0000
# 5 0.0000 0.0000 0.0000 0.0000 3.3705 0.0000
# 6 0.0000 0.0000 0.0000 0.0000 0.0000 20.9690
#
#
#
# Elastic Compliance Matrix: (Units=1/GPa)
#
#
# Indices 1 2 3 4 5 6 
#
# 1 0.011276 -0.002594 -0.002282 0.000000 0.000000 0.000000
# 2 -0.002594 0.011328 -0.002054 0.000000 0.000000 0.000000
# 3 -0.002282 -0.002054 0.019987 0.000000 0.000000 0.000000
# 4 0.000000 0.000000 0.000000 0.110577 0.000000 0.000000
# 5 0.000000 0.000000 0.000000 0.000000 0.296690 0.000000
# 6 0.000000 0.000000 0.000000 0.000000 0.000000 0.047689
#
#
# Mechanical properties :
#
#
# Convention : Reuss Voigt Hill
#
# Bulk Modulus (GPa) = 34.80865 38.71136 36.76001
# Shear Modulus (GPa) = 9.59721 19.69041 14.64381
#
# Velocity S-wave (km/s) = 2.16038 3.09445 2.66860
# Velocity P-wave (km/s) = 4.81152 5.62079 5.23183
#
# Compressibility (1/GPa) = 0.02872849
#
# Stress axis : x y z
#
# Youngs Moduli (GPa) = 88.68318 88.27834 50.03343
#
# Poissons Ratio (x) = 0.22904 0.11420
# Poissons Ratio (y) = 0.23009 0.10277
# Poissons Ratio (z) = 0.20241 0.18133
#
# Static dielectric constant tensor:
#      x y z
#    x 1.755860 0.000000 0.000000 
#    y 0.000000 1.787990 0.000000 
#    z 0.000000 0.000000 1.739280 
# 
# From -- ./inp_files/20682.got.cif
#   From: 2010.05.17/outbox.cif.g08.bks.cpg/sg52_11_cif.got.tgz:20682.got - 2010.06.03 12:15:38.
