data_PCOD9413134
_publ_section_title
;
Structure prediction by ZEFSAII (Michael W. Deem and Ramdas Pophale) SiO2 
 PCOD9413134
Probable space group: P N N A
;
_chemical_formula_sum "Si O2"
_cell_formula_units_Z 56
_cell_length_a 17.792232
_cell_length_b 12.379170
_cell_length_c 12.361425
_cell_angle_alpha 90.000000
_cell_angle_beta 90.000000
_cell_angle_gamma 90.000000
_cell_volume 2722.641739
_symmetry_space_group_name_H-M "P N N A"
_symmetry_group_IT_number 52
_symmetry_cell_setting 'orthorhombic'
loop_
_space_group_symop_operation_xyz
x,y,z
1/2-x,-y,z
x,1/2-y,1/2-z
1/2-x,1/2+y,1/2-z
-x,-y,-z
1/2+x,y,-z
-x,1/2+y,1/2+z
1/2+x,1/2-y,1/2+z
loop_
_atom_site_type_symbol
_atom_site_label
_atom_site_fract_x
_atom_site_fract_y
_atom_site_fract_z
Si Si1 0.562801 0.106191 0.989075
Si Si2 0.041735 0.635115 0.298668
Si Si3 0.449497 0.263385 0.634900
Si Si4 0.182743 0.416569 0.808097
Si Si5 0.348599 0.378908 0.469337
Si Si6 0.197504 0.305767 0.576661
Si Si7 0.478944 0.482244 0.876499
O O1 0.510546 0.108182 0.096621
O O2 0.623946 0.198587 0.002899
O O3 0.510614 0.141448 0.887786
O O4 0.612817 0.996819 0.988867
O O5 0.017469 0.750000 0.250000
O O6 0.126015 0.643200 0.346540
O O7 0.031862 0.546793 0.206302
O O8 0.408531 0.250000 0.750000
O O9 0.390830 0.288955 0.541669
O O10 0.485878 0.146402 0.631564
O O11 0.250000 0.500000 0.810851
O O12 0.176841 0.374352 0.684408
O O13 0.208615 0.314763 0.880066
O O14 0.104652 0.471813 0.846498
O O15 0.264054 0.363719 0.510089
O O16 0.500000 0.500000 0.000000
#
# Coordination Sequence:
#
# PCOD9413134 Si02
#       7
#     8   8   8   8   8   8   8
#     4  11  21  41  61  89 125 170 212 271 326 399
#     4  11  22  40  62  88 126 170 218 263 330 403
#     4  11  23  36  59  91 125 159 215 270 329 387
#     4  11  23  38  60  93 133 163 211 279 336 393
#     4  11  23  39  62  91 126 171 216 272 330 402
#     4  11  23  38  63  90 125 167 220 266 334 396
#     4  12  23  39  64  94 130 174 214 271 338 398
#
# _framework density 20.568258
#
# number of rings (size 3 to 8) (size 9 to 14) (size 15 to 20)
#    0.000    0.857    1.429    9.000    4.000    0.000 
#    0.000    0.714    0.000    5.143    0.000    0.000 
#    0.000    0.000    0.000    0.000    0.000    0.000 
#
# Total GULP energy -312225.043564 kJ/mol
# GULP energy per Si atom -5575.447207 kJ/mol
# Density = 2.052144 g / cm^3
# Si number density = 20.568258 Si / 1000 Ang^3
#
#
#
# Elastic Constant Matrix: (Units=GPa)
#
#
# Indices 1 2 3 4 5 6 
#
# 1 85.7545 7.3238 21.2211 0.0000 0.0000 0.0000
# 2 7.3238 103.7278 20.9752 0.0000 0.0000 0.0000
# 3 21.2211 20.9752 91.5260 0.0000 0.0000 0.0000
# 4 0.0000 0.0000 0.0000 27.8101 0.0000 0.0000
# 5 0.0000 0.0000 0.0000 0.0000 28.6651 0.0000
# 6 0.0000 0.0000 0.0000 0.0000 0.0000 18.5318
#
#
#
# Elastic Compliance Matrix: (Units=1/GPa)
#
#
# Indices 1 2 3 4 5 6 
#
# 1 0.012380 -0.000308 -0.002800 0.000000 0.000000 0.000000
# 2 -0.000308 0.010117 -0.002247 0.000000 0.000000 0.000000
# 3 -0.002800 -0.002247 0.012090 0.000000 0.000000 0.000000
# 4 0.000000 0.000000 0.000000 0.035958 0.000000 0.000000
# 5 0.000000 0.000000 0.000000 0.000000 0.034886 0.000000
# 6 0.000000 0.000000 0.000000 0.000000 0.000000 0.053961
#
#
# Mechanical properties :
#
#
# Convention : Reuss Voigt Hill
#
# Bulk Modulus (GPa) = 41.88090 42.22763 42.05426
# Shear Modulus (GPa) = 28.08020 30.43393 29.25707
#
# Velocity S-wave (km/s) = 3.69890 3.85080 3.77561
# Velocity P-wave (km/s) = 6.21680 6.35190 6.28471
#
# Compressibility (1/GPa) = 0.02387723
#
# Stress axis : x y z
#
# Youngs Moduli (GPa) = 80.77300 98.84593 82.71294
#
# Poissons Ratio (x) = 0.03044 0.23159
# Poissons Ratio (y) = 0.02487 0.18586
# Poissons Ratio (z) = 0.22616 0.22211
#
# Static dielectric constant tensor:
#      x y z
#    x 1.780730 0.000000 0.000000 
#    y 0.000000 1.823840 0.000000 
#    z 0.000000 0.000000 1.919250 
# 
# From -- ./inp_files/21702.got.cif
#   From: 2010.05.17/outbox.cif.g08.bks.cpg/sg52_11_cif.got.tgz:21702.got - 2010.06.03 12:15:38.
