data_PCOD9413964
_publ_section_title
;
Structure prediction by ZEFSAII (Michael W. Deem and Ramdas Pophale) SiO2 
 PCOD9413964
Probable space group: P N N A
;
_chemical_formula_sum "Si O2"
_cell_formula_units_Z 64
_cell_length_a 15.000000
_cell_length_b 18.000000
_cell_length_c 12.000000
_cell_angle_alpha 90.000000
_cell_angle_beta 90.000000
_cell_angle_gamma 90.000000
_cell_volume 3240.000000
_symmetry_space_group_name_H-M "P N N A"
_symmetry_group_IT_number 52
_symmetry_cell_setting 'orthorhombic'
loop_
_space_group_symop_operation_xyz
x,y,z
1/2-x,-y,z
x,1/2-y,1/2-z
1/2-x,1/2+y,1/2-z
-x,-y,-z
1/2+x,y,-z
-x,1/2+y,1/2+z
1/2+x,1/2-y,1/2+z
loop_
_atom_site_type_symbol
_atom_site_label
_atom_site_fract_x
_atom_site_fract_y
_atom_site_fract_z
Si Si1 0.467673 0.251770 0.012753
Si Si2 0.577513 0.910085 0.931615
Si Si3 0.701961 0.755477 0.378871
Si Si4 0.387822 0.817371 0.661415
Si Si5 0.731166 0.108591 0.012093
Si Si6 0.104971 0.311654 0.334461
Si Si7 0.996980 0.550656 0.672535
Si Si8 0.157343 0.469166 0.723440
O O1 0.444175 0.177182 0.085138
O O2 0.527619 0.307428 0.082941
O O3 0.376057 0.280058 0.960570
O O4 0.528371 0.226983 0.908208
O O5 0.682193 0.923469 0.951636
O O6 0.547354 0.969799 0.840881
O O7 0.524007 0.926497 0.046204
O O8 0.674250 0.750000 0.250000
O O9 0.791969 0.802113 0.395213
O O10 0.727332 0.670907 0.407800
O O11 0.393064 0.750000 0.750000
O O12 0.380057 0.896458 0.718582
O O13 0.672745 0.151876 0.922033
O O14 0.674600 0.055857 0.094009
O O15 0.141409 0.250000 0.250000
O O16 0.060945 0.383741 0.276729
O O17 0.089200 0.536351 0.732586
O O18 0.250000 0.500000 0.767136
#
# Coordination Sequence:
#
# PCOD9413964 Si02
#       8
#     8   8   8   8   8   8   8   8
#     4  10  20  35  59  88 123 162 199 252 308 368
#     4   9  18  32  56  88 118 148 186 244 318 375
#     4  10  19  35  61  92 115 157 208 252 300 365
#     4  11  20  37  61  90 127 160 203 257 311 367
#     4  11  19  35  58  89 121 151 195 257 313 357
#     4  11  23  36  54  82 119 162 207 248 304 368
#     4  10  20  34  53  84 121 150 186 244 316 375
#     4  12  22  34  60  95 124 148 199 265 324 365
#
# _framework density 19.753086
#
# number of rings (size 3 to 8) (size 9 to 14) (size 15 to 20)
#    0.000    1.500    5.000    3.375    0.000    1.000 
#    0.000    5.000    0.000    3.000    0.000    0.000 
#    0.000    0.000    0.000    0.000    0.000    0.000 
#
# Total GULP energy -357020.124288 kJ/mol
# GULP energy per Si atom -5578.439442 kJ/mol
# Density = 1.970813 g / cm^3
# Si number density = 19.753086 Si / 1000 Ang^3
#
#
#
# Elastic Constant Matrix: (Units=GPa)
#
#
# Indices 1 2 3 4 5 6 
#
# 1 113.3461 39.3916 46.5296 0.0000 0.0000 0.0000
# 2 39.3916 73.5790 33.9743 0.0000 0.0000 0.0000
# 3 46.5296 33.9743 34.1003 0.0000 0.0000 0.0000
# 4 0.0000 0.0000 0.0000 19.4580 0.0000 0.0000
# 5 0.0000 0.0000 0.0000 0.0000 24.6840 0.0000
# 6 0.0000 0.0000 0.0000 0.0000 0.0000 2.7279
#
#
#
# Elastic Compliance Matrix: (Units=1/GPa)
#
#
# Indices 1 2 3 4 5 6 
#
# 1 0.020561 0.003605 -0.031647 0.000000 0.000000 0.000000
# 2 0.003605 0.025802 -0.030626 0.000000 0.000000 0.000000
# 3 -0.031647 -0.030626 0.103020 0.000000 0.000000 0.000000
# 4 0.000000 0.000000 0.000000 0.051393 0.000000 0.000000
# 5 0.000000 0.000000 0.000000 0.000000 0.040512 0.000000
# 6 0.000000 0.000000 0.000000 0.000000 0.000000 0.366588
#
#
# Mechanical properties :
#
#
# Convention : Reuss Voigt Hill
#
# Bulk Modulus (GPa) = 31.20367 51.20184 41.20275
# Shear Modulus (GPa) = 6.79446 16.11596 11.45521
#
# Velocity S-wave (km/s) = 1.85665 2.85944 2.41077
# Velocity P-wave (km/s) = 4.51966 6.07282 5.35287
#
# Compressibility (1/GPa) = 0.03204751
#
# Stress axis : x y z
#
# Youngs Moduli (GPa) = 48.63547 38.75695 9.70686
#
# Poissons Ratio (x) = -0.13972 0.30720
# Poissons Ratio (y) = -0.17533 0.29728
# Poissons Ratio (z) = 1.53918 1.18695
#
# Static dielectric constant tensor:
#      x y z
#    x 1.788100 0.000000 0.000000 
#    y 0.000000 1.713410 0.000000 
#    z 0.000000 0.000000 1.706540 
# 
# From -- ./inp_files/19874.got.cif
#   From: 2010.05.17/outbox.ucp.g08.bks.cvg/sg52_10_cif.got.tgz:19874.got - 2010.06.11 16:30:12.
