data_PCOD9413457
_publ_section_title
;
Structure prediction by ZEFSAII (Michael W. Deem and Ramdas Pophale) SiO2 
 PCOD9413457
Probable space group: P N N A
;
_chemical_formula_sum "Si O2"
_cell_formula_units_Z 40
_cell_length_a 9.189443
_cell_length_b 26.710039
_cell_length_c 7.737359
_cell_angle_alpha 90.000000
_cell_angle_beta 90.000000
_cell_angle_gamma 90.000000
_cell_volume 1899.137714
_symmetry_space_group_name_H-M "P N N A"
_symmetry_group_IT_number 52
_symmetry_cell_setting 'orthorhombic'
loop_
_space_group_symop_operation_xyz
x,y,z
1/2-x,-y,z
x,1/2-y,1/2-z
1/2-x,1/2+y,1/2-z
-x,-y,-z
1/2+x,y,-z
-x,1/2+y,1/2+z
1/2+x,1/2-y,1/2+z
loop_
_atom_site_type_symbol
_atom_site_label
_atom_site_fract_x
_atom_site_fract_y
_atom_site_fract_z
Si Si1 0.987888 0.805973 0.169165
Si Si2 0.183492 0.400049 0.805704
Si Si3 0.872158 0.962428 0.956657
Si Si4 0.826728 0.807263 0.804297
Si Si5 0.024912 0.103424 0.362359
O O1 0.977021 0.750000 0.250000
O O2 0.891074 0.846522 0.269057
O O3 0.157737 0.822422 0.168054
O O4 0.922728 0.808323 0.977136
O O5 0.173871 0.432722 0.630434
O O6 0.350940 0.394667 0.861173
O O7 0.090080 0.421490 0.965453
O O8 0.750000 0.000000 0.890511
O O9 0.921472 0.924841 0.808818
O O10 0.000000 0.000000 0.000000
O O11 0.821930 0.750000 0.750000
O O12 0.903985 0.841805 0.662465
#
# Coordination Sequence:
#
# PCOD9413457 Si02
#       5
#     8   8   8   8   8
#     4  11  24  42  68 102 144 188 236 291 355 426
#     4  12  27  46  74 107 143 189 239 296 360 425
#     4  12  28  50  74 105 143 188 240 300 363 420
#     4  11  24  42  68 102 144 189 235 292 355 424
#     4  12  27  46  74 106 145 187 239 298 355 432
#
# _framework density 21.062189
#
# number of rings (size 3 to 8) (size 9 to 14) (size 15 to 20)
#    0.000    0.400    4.000    3.600    5.600    8.000 
#    0.000    0.000    0.000    0.000    0.000    0.000 
#    0.000    0.000    0.000    0.000    0.000    0.000 
#
# Total GULP energy -223765.465642 kJ/mol
# GULP energy per Si atom -5594.136641 kJ/mol
# Density = 2.101425 g / cm^3
# Si number density = 21.062189 Si / 1000 Ang^3
#
#
#
# Elastic Constant Matrix: (Units=GPa)
#
#
# Indices 1 2 3 4 5 6 
#
# 1 153.7917 19.7700 16.2285 0.0000 0.0000 0.0000
# 2 19.7700 63.3677 -2.0770 0.0000 0.0000 0.0000
# 3 16.2285 -2.0770 101.3151 0.0000 0.0000 0.0000
# 4 0.0000 0.0000 0.0000 8.1366 0.0000 0.0000
# 5 0.0000 0.0000 0.0000 0.0000 34.5266 0.0000
# 6 0.0000 0.0000 0.0000 0.0000 0.0000 11.0120
#
#
#
# Elastic Compliance Matrix: (Units=1/GPa)
#
#
# Indices 1 2 3 4 5 6 
#
# 1 0.006906 -0.002192 -0.001151 0.000000 0.000000 0.000000
# 2 -0.002192 0.016487 0.000689 0.000000 0.000000 0.000000
# 3 -0.001151 0.000689 0.010069 0.000000 0.000000 0.000000
# 4 0.000000 0.000000 0.000000 0.122901 0.000000 0.000000
# 5 0.000000 0.000000 0.000000 0.000000 0.028963 0.000000
# 6 0.000000 0.000000 0.000000 0.000000 0.000000 0.090810
#
#
# Mechanical properties :
#
#
# Convention : Reuss Voigt Hill
#
# Bulk Modulus (GPa) = 35.51960 42.92418 39.22189
# Shear Modulus (GPa) = 17.19225 29.70524 23.44874
#
# Velocity S-wave (km/s) = 2.86013 3.75955 3.34025
# Velocity P-wave (km/s) = 5.27332 6.26654 5.79126
#
# Compressibility (1/GPa) = 0.02815347
#
# Stress axis : x y z
#
# Youngs Moduli (GPa) = 144.81056 60.65227 99.31769
#
# Poissons Ratio (x) = 0.13296 0.11432
# Poissons Ratio (y) = 0.31745 -0.06844
# Poissons Ratio (z) = 0.16669 -0.04180
#
# Static dielectric constant tensor:
#      x y z
#    x 1.723520 0.000000 0.000000 
#    y 0.000000 1.668510 0.000000 
#    z 0.000000 0.000000 1.780900 
# 
# From -- ./inp_files/7530.got.cif
#   From: 2010.05.17/outbox.cif.g08.bks.cpg/sg52_4_cif.got.tgz:7530.got - 2010.06.03 12:15:38.
