data_PCOD9413082
_publ_section_title
;
Structure prediction by ZEFSAII (Michael W. Deem and Ramdas Pophale) SiO2 
 PCOD9413082
Probable space group: P N N A
;
_chemical_formula_sum "Si O2"
_cell_formula_units_Z 32
_cell_length_a 12.770704
_cell_length_b 13.085556
_cell_length_c 7.615300
_cell_angle_alpha 90.000000
_cell_angle_beta 90.000000
_cell_angle_gamma 90.000000
_cell_volume 1272.606204
_symmetry_space_group_name_H-M "P N N A"
_symmetry_group_IT_number 52
_symmetry_cell_setting 'orthorhombic'
loop_
_space_group_symop_operation_xyz
x,y,z
1/2-x,-y,z
x,1/2-y,1/2-z
1/2-x,1/2+y,1/2-z
-x,-y,-z
1/2+x,y,-z
-x,1/2+y,1/2+z
1/2+x,1/2-y,1/2+z
loop_
_atom_site_type_symbol
_atom_site_label
_atom_site_fract_x
_atom_site_fract_y
_atom_site_fract_z
Si Si1 0.026524 0.497564 0.278171
Si Si2 0.323723 0.334989 0.139905
Si Si3 0.992303 0.712164 0.550982
Si Si4 0.868534 0.886203 0.442751
O O1 0.118536 0.583590 0.266489
O O2 0.985493 0.589497 0.571672
O O3 0.066676 0.432153 0.107795
O O4 0.918274 0.552871 0.219477
O O5 0.259520 0.250000 0.250000
O O6 0.252482 0.389417 0.995507
O O7 0.410110 0.265968 0.044576
O O8 0.997966 0.750000 0.750000
O O9 0.897458 0.765852 0.447459
#
# Coordination Sequence:
#
# PCOD9413082 Si02
#       4
#     8   8   8   8
#     4   9  18  34  57  82 117 156 191 242 304 358
#     4  11  21  33  57  88 118 155 198 244 296 358
#     4   9  19  37  57  82 116 151 193 244 295 357
#     4   9  18  34  58  86 113 149 198 244 291 358
#
# _framework density 25.145250000000001
#
# number of rings (size 3 to 8) (size 9 to 14) (size 15 to 20)
#    0.000    2.500    0.000    4.500    0.000    1.000 
#    0.000    5.000    0.000    9.000    0.000    0.000 
#    0.000    0.000    0.000    0.000    0.000    0.000 
#
# Total GULP energy -178530.651162 kJ/mol
# GULP energy per Si atom -5579.082849 kJ/mol
# Density = 2.508802 g / cm^3
# Si number density = 25.145250 Si / 1000 Ang^3
#
#
#
# Elastic Constant Matrix: (Units=GPa)
#
#
# Indices 1 2 3 4 5 6 
#
# 1 112.7001 45.3321 29.1380 0.0000 0.0000 0.0000
# 2 45.3321 226.6622 36.2092 0.0000 0.0000 0.0000
# 3 29.1380 36.2092 74.8589 0.0000 0.0000 0.0000
# 4 0.0000 0.0000 0.0000 45.8514 0.0000 0.0000
# 5 0.0000 0.0000 0.0000 0.0000 25.2949 0.0000
# 6 0.0000 0.0000 0.0000 0.0000 0.0000 12.6051
#
#
#
# Elastic Compliance Matrix: (Units=1/GPa)
#
#
# Indices 1 2 3 4 5 6 
#
# 1 0.010342 -0.001545 -0.003278 0.000000 0.000000 0.000000
# 2 -0.001545 0.005012 -0.001823 0.000000 0.000000 0.000000
# 3 -0.003278 -0.001823 0.015516 0.000000 0.000000 0.000000
# 4 0.000000 0.000000 0.000000 0.021810 0.000000 0.000000
# 5 0.000000 0.000000 0.000000 0.000000 0.039534 0.000000
# 6 0.000000 0.000000 0.000000 0.000000 0.000000 0.079333
#
#
# Mechanical properties :
#
#
# Convention : Reuss Voigt Hill
#
# Bulk Modulus (GPa) = 56.88866 70.61998 63.75432
# Shear Modulus (GPa) = 26.21946 36.98640 31.60293
#
# Velocity S-wave (km/s) = 3.23262 3.83941 3.54901
# Velocity P-wave (km/s) = 6.05031 6.91379 6.49641
#
# Compressibility (1/GPa) = 0.01757820
#
# Stress axis : x y z
#
# Youngs Moduli (GPa) = 96.69270 199.52043 64.44813
#
# Poissons Ratio (x) = 0.30819 0.21129
# Poissons Ratio (y) = 0.14936 0.11749
# Poissons Ratio (z) = 0.31699 0.36374
#
# Static dielectric constant tensor:
#      x y z
#    x 1.964730 0.000000 0.000000 
#    y 0.000000 2.140590 0.000000 
#    z 0.000000 0.000000 2.146820 
# 
# From -- ./inp_files/9551.got.cif
#   From: 2010.05.17/outbox.cif.g08.bks.cpg/sg52_5_cif.got.tgz:9551.got - 2010.06.03 12:15:38.
