data_PCOD9413078
_publ_section_title
;
Structure prediction by ZEFSAII (Michael W. Deem and Ramdas Pophale) SiO2 
 PCOD9413078
Probable space group: P N N A
;
_chemical_formula_sum "Si O2"
_cell_formula_units_Z 32
_cell_length_a 8.105354
_cell_length_b 15.417376
_cell_length_c 11.144131
_cell_angle_alpha 90.000000
_cell_angle_beta 90.000000
_cell_angle_gamma 90.000000
_cell_volume 1392.607277
_symmetry_space_group_name_H-M "P N N A"
_symmetry_group_IT_number 52
_symmetry_cell_setting 'orthorhombic'
loop_
_space_group_symop_operation_xyz
x,y,z
1/2-x,-y,z
x,1/2-y,1/2-z
1/2-x,1/2+y,1/2-z
-x,-y,-z
1/2+x,y,-z
-x,1/2+y,1/2+z
1/2+x,1/2-y,1/2+z
loop_
_atom_site_type_symbol
_atom_site_label
_atom_site_fract_x
_atom_site_fract_y
_atom_site_fract_z
Si Si1 0.090801 0.954864 0.318082
Si Si2 0.889878 0.636088 0.866229
Si Si3 0.993853 0.318199 0.398149
Si Si4 0.340057 0.592563 0.616805
O O1 0.197005 0.884479 0.391113
O O2 0.957128 0.914498 0.232296
O O3 0.250000 0.000000 0.249581
O O4 0.024548 0.041909 0.382691
O O5 0.913793 0.659362 0.725645
O O6 0.960107 0.719813 0.931494
O O7 0.051429 0.382242 0.502482
O O8 0.802334 0.335476 0.372850
O O9 0.250000 0.500000 0.603737
#
# Coordination Sequence:
#
# PCOD9413078 Si02
#       4
#     8   8   8   8
#     4   8  18  38  63  76 114 160 203 231 305 356
#     4   8  19  38  53  79 115 162 193 246 288 363
#     4  11  21  32  54  83 130 147 194 247 298 352
#     4  12  21  32  58  92 122 153 195 250 309 352
#
# _framework density 22.978480999999999
#
# number of rings (size 3 to 8) (size 9 to 14) (size 15 to 20)
#    1.500    0.500    2.500    2.250    3.500    0.000 
#    0.000   10.000    0.000    6.000    0.000    0.000 
#    0.000    6.000    0.000    0.000    0.000    0.000 
#
# Total GULP energy -178271.631636 kJ/mol
# GULP energy per Si atom -5570.988489 kJ/mol
# Density = 2.292618 g / cm^3
# Si number density = 22.978481 Si / 1000 Ang^3
#
#
#
# Elastic Constant Matrix: (Units=GPa)
#
#
# Indices 1 2 3 4 5 6 
#
# 1 103.2525 72.6574 11.9255 0.0000 0.0000 0.0000
# 2 72.6574 120.9419 32.2307 0.0000 0.0000 0.0000
# 3 11.9255 32.2307 29.3112 0.0000 0.0000 0.0000
# 4 0.0000 0.0000 0.0000 20.4645 0.0000 0.0000
# 5 0.0000 0.0000 0.0000 0.0000 10.7553 0.0000
# 6 0.0000 0.0000 0.0000 0.0000 0.0000 33.0912
#
#
#
# Elastic Compliance Matrix: (Units=1/GPa)
#
#
# Indices 1 2 3 4 5 6 
#
# 1 0.017564 -0.012232 0.006304 0.000000 0.000000 0.000000
# 2 -0.012232 0.020214 -0.017251 0.000000 0.000000 0.000000
# 3 0.006304 -0.017251 0.050521 0.000000 0.000000 0.000000
# 4 0.000000 0.000000 0.000000 0.048865 0.000000 0.000000
# 5 0.000000 0.000000 0.000000 0.000000 0.092978 0.000000
# 6 0.000000 0.000000 0.000000 0.000000 0.000000 0.030220
#
#
# Mechanical properties :
#
#
# Convention : Reuss Voigt Hill
#
# Bulk Modulus (GPa) = 23.84244 54.12584 38.98414
# Shear Modulus (GPa) = 15.59085 21.97500 18.78292
#
# Velocity S-wave (km/s) = 2.60762 3.09581 2.86215
# Velocity P-wave (km/s) = 4.41189 6.03199 5.28440
#
# Compressibility (1/GPa) = 0.04194201
#
# Stress axis : x y z
#
# Youngs Moduli (GPa) = 56.93323 49.46968 19.79371
#
# Poissons Ratio (x) = 0.60512 -0.12478
# Poissons Ratio (y) = 0.69641 0.34146
# Poissons Ratio (z) = -0.35892 0.85341
#
# Static dielectric constant tensor:
#      x y z
#    x 1.892250 0.000000 0.000000 
#    y 0.000000 1.981340 0.000000 
#    z 0.000000 0.000000 1.866610 
# 
# From -- ./inp_files/16599.got.cif
#   From: 2010.05.17/outbox.cif.g08.bks.cpg/sg52_9_cif.got.tgz:16599.got - 2010.06.03 12:15:38.
