data_PCOD9413140
_publ_section_title
;
Structure prediction by ZEFSAII (Michael W. Deem and Ramdas Pophale) SiO2 
 PCOD9413140
Probable space group: P N N A
;
_chemical_formula_sum "Si O2"
_cell_formula_units_Z 48
_cell_length_a 15.286713
_cell_length_b 8.792846
_cell_length_c 18.498537
_cell_angle_alpha 90.000000
_cell_angle_beta 90.000000
_cell_angle_gamma 90.000000
_cell_volume 2486.457048
_symmetry_space_group_name_H-M "P N N A"
_symmetry_group_IT_number 52
_symmetry_cell_setting 'orthorhombic'
loop_
_space_group_symop_operation_xyz
x,y,z
1/2-x,-y,z
x,1/2-y,1/2-z
1/2-x,1/2+y,1/2-z
-x,-y,-z
1/2+x,y,-z
-x,1/2+y,1/2+z
1/2+x,1/2-y,1/2+z
loop_
_atom_site_type_symbol
_atom_site_label
_atom_site_fract_x
_atom_site_fract_y
_atom_site_fract_z
Si Si1 0.727831 0.679461 0.171054
Si Si2 0.654780 0.574478 0.772649
Si Si3 0.494434 0.618342 0.309179
Si Si4 0.943222 0.319692 0.073722
Si Si5 0.404757 0.829180 0.827821
Si Si6 0.456513 0.135989 0.410125
O O1 0.750000 0.500000 0.178248
O O2 0.711347 0.750000 0.250000
O O3 0.645808 0.692737 0.118583
O O4 0.812003 0.773463 0.142079
O O5 0.750000 0.500000 0.769134
O O6 0.658819 0.750000 0.750000
O O7 0.586959 0.481241 0.721276
O O8 0.617529 0.582253 0.854249
O O9 0.506568 0.750000 0.250000
O O10 0.490337 0.701533 0.387078
O O11 0.577028 0.505322 0.314441
O O12 0.981939 0.488388 0.082522
O O13 0.927639 0.304688 0.988403
O O14 0.411674 0.750000 0.750000
O O15 0.484090 0.765959 0.874830
#
# Coordination Sequence:
#
# PCOD9413140 Si02
#       6
#     8   8   8   8   8   8
#     4  11  25  39  64 100 136 175 227 281 327 401
#     4  12  25  45  73  98 130 175 235 292 338 396
#     4  12  22  41  72  99 132 172 234 280 331 412
#     4  11  25  39  68 101 137 182 224 270 348 411
#     4  11  21  41  69  96 132 180 223 284 328 401
#     4  11  22  46  66  97 136 182 222 276 345 415
#
# _framework density 19.304576000000001
#
# number of rings (size 3 to 8) (size 9 to 14) (size 15 to 20)
#    0.000    0.667    6.667    1.000    7.000    1.333 
#    0.000    0.000    0.000    0.000    0.000    0.000 
#    0.000    0.000    0.000    0.000    0.000    0.000 
#
# Total GULP energy -268111.676117 kJ/mol
# GULP energy per Si atom -5585.659919 kJ/mol
# Density = 1.926064 g / cm^3
# Si number density = 19.304576 Si / 1000 Ang^3
#
#
#
# Elastic Constant Matrix: (Units=GPa)
#
#
# Indices 1 2 3 4 5 6 
#
# 1 131.1786 59.4598 63.8749 0.0000 0.0000 0.0000
# 2 59.4598 132.3925 40.9066 0.0000 0.0000 0.0000
# 3 63.8749 40.9066 130.2925 0.0000 0.0000 0.0000
# 4 0.0000 0.0000 0.0000 31.2467 0.0000 0.0000
# 5 0.0000 0.0000 0.0000 0.0000 20.8935 0.0000
# 6 0.0000 0.0000 0.0000 0.0000 0.0000 35.0729
#
#
#
# Elastic Compliance Matrix: (Units=1/GPa)
#
#
# Indices 1 2 3 4 5 6 
#
# 1 0.011511 -0.003794 -0.004452 0.000000 0.000000 0.000000
# 2 -0.003794 0.009615 -0.001159 0.000000 0.000000 0.000000
# 3 -0.004452 -0.001159 0.010221 0.000000 0.000000 0.000000
# 4 0.000000 0.000000 0.000000 0.032003 0.000000 0.000000
# 5 0.000000 0.000000 0.000000 0.000000 0.047862 0.000000
# 6 0.000000 0.000000 0.000000 0.000000 0.000000 0.028512
#
#
# Mechanical properties :
#
#
# Convention : Reuss Voigt Hill
#
# Bulk Modulus (GPa) = 79.75830 80.26069 80.00949
# Shear Modulus (GPa) = 30.72888 32.75078 31.73983
#
# Velocity S-wave (km/s) = 3.99406 4.12336 4.05922
# Velocity P-wave (km/s) = 7.91678 8.02096 7.96904
#
# Compressibility (1/GPa) = 0.01253788
#
# Stress axis : x y z
#
# Youngs Moduli (GPa) = 86.87561 104.00032 97.83471
#
# Poissons Ratio (x) = 0.39459 0.43554
# Poissons Ratio (y) = 0.32962 0.11337
# Poissons Ratio (z) = 0.38676 0.12051
#
# Static dielectric constant tensor:
#      x y z
#    x 1.704820 0.000000 0.000000 
#    y 0.000000 1.706050 0.000000 
#    z 0.000000 0.000000 1.686950 
# 
# From -- ./inp_files/33040.got.cif
#   From: 2010.05.17/outbox.cif.g08.bks.cpg/sg52_17_cif.got.tgz:33040.got - 2010.06.03 12:15:38.
