data_PCOD9413389
_publ_section_title
;
Structure prediction by ZEFSAII (Michael W. Deem and Ramdas Pophale) SiO2 
 PCOD9413389
Probable space group: P N N A
;
_chemical_formula_sum "Si O2"
_cell_formula_units_Z 36
_cell_length_a 10.467097
_cell_length_b 11.623194
_cell_length_c 12.189355
_cell_angle_alpha 90.000000
_cell_angle_beta 90.000000
_cell_angle_gamma 90.000000
_cell_volume 1482.970326
_symmetry_space_group_name_H-M "P N N A"
_symmetry_group_IT_number 52
_symmetry_cell_setting 'orthorhombic'
loop_
_space_group_symop_operation_xyz
x,y,z
1/2-x,-y,z
x,1/2-y,1/2-z
1/2-x,1/2+y,1/2-z
-x,-y,-z
1/2+x,y,-z
-x,1/2+y,1/2+z
1/2+x,1/2-y,1/2+z
loop_
_atom_site_type_symbol
_atom_site_label
_atom_site_fract_x
_atom_site_fract_y
_atom_site_fract_z
Si Si1 0.091158 0.624970 0.721753
Si Si2 0.145400 0.319111 0.385749
Si Si3 0.750000 0.500000 0.457377
Si Si4 0.044981 0.129217 0.542085
Si Si5 0.250000 0.500000 0.887215
Si Si6 0.605999 0.750000 0.750000
O O1 0.143901 0.750000 0.750000
O O2 0.159262 0.580334 0.613998
O O3 0.134045 0.534714 0.811300
O O4 0.940149 0.631492 0.712330
O O5 0.160858 0.417988 0.473663
O O6 0.051743 0.223824 0.444291
O O7 0.287599 0.300539 0.336343
O O8 0.981488 0.178196 0.657623
O O9 0.199012 0.109602 0.550694
O O10 0.000000 0.000000 0.500000
#
# Coordination Sequence:
#
# PCOD9413389 Si02
#       6
#     8   8   4   8   4   4
#     4  11  23  44  69 102 146 200 252 330 410 491
#     4  12  26  49  73 117 160 208 282 347 427 521
#     4  11  26  40  77 106 154 200 269 350 415 504
#     4  12  28  52  79 119 163 222 288 356 433 538
#     4  11  26  42  77 100 148 196 263 326 417 488
#     4  12  30  48  88 114 170 224 280 352 450 506
#
# _framework density 24.275601999999999
#
# number of rings (size 3 to 8) (size 9 to 14) (size 15 to 20)
#    0.000    0.444    1.111    6.000   10.889    0.000 
#    0.000    0.000    0.000    0.000    0.000    0.000 
#    0.000    0.000    0.000    0.000    0.000    0.000 
#
# Total GULP energy -200425.375060 kJ/mol
# GULP energy per Si atom -5567.371529 kJ/mol
# Density = 2.422035 g / cm^3
# Si number density = 24.275602 Si / 1000 Ang^3
#
#
#
# Elastic Constant Matrix: (Units=GPa)
#
#
# Indices 1 2 3 4 5 6 
#
# 1 118.0663 43.5537 39.6227 0.0000 0.0000 0.0000
# 2 43.5537 118.5636 63.1027 0.0000 0.0000 0.0000
# 3 39.6227 63.1027 133.6372 0.0000 0.0000 0.0000
# 4 0.0000 0.0000 0.0000 44.2091 0.0000 0.0000
# 5 0.0000 0.0000 0.0000 0.0000 42.4695 0.0000
# 6 0.0000 0.0000 0.0000 0.0000 0.0000 57.1989
#
#
#
# Elastic Compliance Matrix: (Units=1/GPa)
#
#
# Indices 1 2 3 4 5 6 
#
# 1 0.010064 -0.002817 -0.001654 0.000000 0.000000 0.000000
# 2 -0.002817 0.012054 -0.004857 0.000000 0.000000 0.000000
# 3 -0.001654 -0.004857 0.010267 0.000000 0.000000 0.000000
# 4 0.000000 0.000000 0.000000 0.022620 0.000000 0.000000
# 5 0.000000 0.000000 0.000000 0.000000 0.023546 0.000000
# 6 0.000000 0.000000 0.000000 0.000000 0.000000 0.017483
#
#
# Mechanical properties :
#
#
# Convention : Reuss Voigt Hill
#
# Bulk Modulus (GPa) = 72.83345 73.64725 73.24035
# Shear Modulus (GPa) = 41.92375 43.70804 42.81589
#
# Velocity S-wave (km/s) = 4.16022 4.24782 4.20425
# Velocity P-wave (km/s) = 7.29002 7.37987 7.33508
#
# Compressibility (1/GPa) = 0.01372996
#
# Stress axis : x y z
#
# Youngs Moduli (GPa) = 99.36497 82.96144 97.40355
#
# Poissons Ratio (x) = 0.23368 0.16109
# Poissons Ratio (y) = 0.27988 0.47305
# Poissons Ratio (z) = 0.16434 0.40291
#
# Static dielectric constant tensor:
#      x y z
#    x 2.012120 0.000000 0.000000 
#    y 0.000000 4.908430 0.000000 
#    z 0.000000 0.000000 2.037690 
# 
# From -- ./inp_files/17808.got.cif
#   From: 2010.05.17/outbox.cif.g08.bks.cpg/sg52_9_cif.got.tgz:17808.got - 2010.06.03 12:15:38.
