data_PCOD9413716
_publ_section_title
;
Structure prediction by ZEFSAII (Michael W. Deem and Ramdas Pophale) SiO2 
 PCOD9413716
Probable space group: P N N A
;
_chemical_formula_sum "Si O2"
_cell_formula_units_Z 28
_cell_length_a 14.773376
_cell_length_b 11.222264
_cell_length_c 6.597155
_cell_angle_alpha 90.000000
_cell_angle_beta 90.000000
_cell_angle_gamma 90.000000
_cell_volume 1093.747115
_symmetry_space_group_name_H-M "P N N A"
_symmetry_group_IT_number 52
_symmetry_cell_setting 'orthorhombic'
loop_
_space_group_symop_operation_xyz
x,y,z
1/2-x,-y,z
x,1/2-y,1/2-z
1/2-x,1/2+y,1/2-z
-x,-y,-z
1/2+x,y,-z
-x,1/2+y,1/2+z
1/2+x,1/2-y,1/2+z
loop_
_atom_site_type_symbol
_atom_site_label
_atom_site_fract_x
_atom_site_fract_y
_atom_site_fract_z
Si Si1 0.552306 0.664828 0.054762
Si Si2 0.208134 0.873887 0.230901
Si Si3 0.400781 0.750000 0.750000
Si Si4 0.596858 0.001551 0.114377
O O1 0.562271 0.750000 0.250000
O O2 0.565276 0.540354 0.165909
O O3 0.631081 0.661917 0.890624
O O4 0.464408 0.704818 0.933313
O O5 0.266329 0.750000 0.250000
O O6 0.250000 0.000000 0.302187
O O7 0.161375 0.916140 0.018909
O O8 0.357258 0.869012 0.846996
O O9 0.500000 0.000000 0.000000
#
# Coordination Sequence:
#
# PCOD9413716 Si02
#       4
#     8   8   4   8
#     4  12  21  44  72 100 147 183 231 294 371 415
#     4  12  27  49  71 102 147 197 245 300 366 448
#     4  12  24  40  74 114 136 180 238 304 362 438
#     4  12  24  43  74 105 145 186 241 300 372 426
#
# _framework density 25.600069000000001
#
# number of rings (size 3 to 8) (size 9 to 14) (size 15 to 20)
#    0.000    0.000   10.000    0.857    0.000    3.429 
#    0.000    0.000    0.000    0.000    0.000    0.000 
#    0.000    0.000    0.000    0.000    0.000    0.000 
#
# Total GULP energy -156184.446863 kJ/mol
# GULP energy per Si atom -5578.015959 kJ/mol
# Density = 2.554180 g / cm^3
# Si number density = 25.600069 Si / 1000 Ang^3
#
#
#
# Elastic Constant Matrix: (Units=GPa)
#
#
# Indices 1 2 3 4 5 6 
#
# 1 57.1932 25.5179 34.9338 0.0000 0.0000 0.0000
# 2 25.5179 244.7942 70.5749 0.0000 0.0000 0.0000
# 3 34.9338 70.5749 170.0296 0.0000 0.0000 0.0000
# 4 0.0000 0.0000 0.0000 76.9012 0.0000 0.0000
# 5 0.0000 0.0000 0.0000 0.0000 -54.0408 0.0000
# 6 0.0000 0.0000 0.0000 0.0000 0.0000 28.6286
#
#
#
# Elastic Compliance Matrix: (Units=1/GPa)
#
#
# Indices 1 2 3 4 5 6 
#
# 1 0.020221 -0.001034 -0.003726 0.000000 0.000000 0.000000
# 2 -0.001034 0.004693 -0.001736 0.000000 0.000000 0.000000
# 3 -0.003726 -0.001736 0.007367 0.000000 0.000000 0.000000
# 4 0.000000 0.000000 0.000000 0.013004 0.000000 0.000000
# 5 0.000000 0.000000 0.000000 0.000000 -0.018505 0.000000
# 6 0.000000 0.000000 0.000000 0.000000 0.000000 0.034930
#
#
# Mechanical properties :
#
#
# Convention : Reuss Voigt Hill
#
# Bulk Modulus (GPa) = 51.83536 81.56335 66.69936
# Shear Modulus (GPa) = 61.62821 33.03049 47.32935
#
# Velocity S-wave (km/s) = 4.91179 3.59590 4.30443
# Velocity P-wave (km/s) = 7.24291 7.01216 7.12847
#
# Compressibility (1/GPa) = 0.01929185
#
# Stress axis : x y z
#
# Youngs Moduli (GPa) = 49.45252 213.07324 135.73729
#
# Poissons Ratio (x) = 0.22029 0.50569
# Poissons Ratio (y) = 0.05113 0.23559
# Poissons Ratio (z) = 0.18424 0.36981
#
# Static dielectric constant tensor:
#      x y z
#    x 2.076660 0.000000 0.000000 
#    y 0.000000 2.522610 0.000000 
#    z 0.000000 0.000000 1.983690 
# 
# From -- ./inp_files/3791.got.cif
#   From: 2010.05.17/outbox.cif.g08.bks.cpg/sg52_2_cif.got.tgz:3791.got - 2010.06.03 12:15:38.
