data_PCOD9413793
_publ_section_title
;
Structure prediction by ZEFSAII (Michael W. Deem and Ramdas Pophale) SiO2 
 PCOD9413793
Probable space group: P N N A
;
_chemical_formula_sum "Si O2"
_cell_formula_units_Z 36
_cell_length_a 9.195232
_cell_length_b 16.436986
_cell_length_c 10.040501
_cell_angle_alpha 90.000000
_cell_angle_beta 90.000000
_cell_angle_gamma 90.000000
_cell_volume 1517.540395
_symmetry_space_group_name_H-M "P N N A"
_symmetry_group_IT_number 52
_symmetry_cell_setting 'orthorhombic'
loop_
_space_group_symop_operation_xyz
x,y,z
1/2-x,-y,z
x,1/2-y,1/2-z
1/2-x,1/2+y,1/2-z
-x,-y,-z
1/2+x,y,-z
-x,1/2+y,1/2+z
1/2+x,1/2-y,1/2+z
loop_
_atom_site_type_symbol
_atom_site_label
_atom_site_fract_x
_atom_site_fract_y
_atom_site_fract_z
Si Si1 0.928344 0.565948 0.598679
Si Si2 0.405691 0.750000 0.750000
Si Si3 0.102110 0.674415 0.032664
Si Si4 0.852708 0.567741 0.893314
Si Si5 0.712302 0.835233 0.085257
O O1 0.895448 0.535062 0.747411
O O2 0.791604 0.611412 0.528908
O O3 0.000000 0.500000 0.500000
O O4 0.056088 0.630524 0.617850
O O5 0.502969 0.730432 0.876000
O O6 0.319745 0.831859 0.789821
O O7 0.231528 0.637530 0.120910
O O8 0.184797 0.739549 0.940453
O O9 0.993433 0.607607 0.965547
O O10 0.750000 0.500000 0.965266
#
# Coordination Sequence:
#
# PCOD9413793 Si02
#       5
#     8   4   8   8   8
#     4  12  27  48  72 109 148 195 246 305 378 444
#     4  12  24  42  76 104 144 184 254 298 368 438
#     4  12  25  48  75 108 144 198 246 310 372 445
#     4  12  27  48  73 106 152 191 247 304 381 443
#     4  12  24  47  74 106 141 194 245 307 366 443
#
# _framework density 23.722598999999999
#
# number of rings (size 3 to 8) (size 9 to 14) (size 15 to 20)
#    0.000    0.000    4.444    5.333    3.111    1.778 
#    0.000    0.000    0.000    0.000    0.000    0.000 
#    0.000    0.000    0.000    0.000    0.000    0.000 
#
# Total GULP energy -200995.294600 kJ/mol
# GULP energy per Si atom -5583.202628 kJ/mol
# Density = 2.366861 g / cm^3
# Si number density = 23.722599 Si / 1000 Ang^3
#
#
#
# Elastic Constant Matrix: (Units=GPa)
#
#
# Indices 1 2 3 4 5 6 
#
# 1 126.9681 9.5252 17.1217 0.0000 0.0000 0.0000
# 2 9.5252 58.3078 3.0310 0.0000 0.0000 0.0000
# 3 17.1217 3.0310 75.9667 0.0000 0.0000 0.0000
# 4 0.0000 0.0000 0.0000 28.5860 0.0000 0.0000
# 5 0.0000 0.0000 0.0000 0.0000 33.4660 0.0000
# 6 0.0000 0.0000 0.0000 0.0000 0.0000 62.0822
#
#
#
# Elastic Compliance Matrix: (Units=1/GPa)
#
#
# Indices 1 2 3 4 5 6 
#
# 1 0.008213 -0.001248 -0.001801 0.000000 0.000000 0.000000
# 2 -0.001248 0.017376 -0.000412 0.000000 0.000000 0.000000
# 3 -0.001801 -0.000412 0.013586 0.000000 0.000000 0.000000
# 4 0.000000 0.000000 0.000000 0.034982 0.000000 0.000000
# 5 0.000000 0.000000 0.000000 0.000000 0.029881 0.000000
# 6 0.000000 0.000000 0.000000 0.000000 0.000000 0.016108
#
#
# Mechanical properties :
#
#
# Convention : Reuss Voigt Hill
#
# Bulk Modulus (GPa) = 31.00591 35.62205 33.31398
# Shear Modulus (GPa) = 36.27971 40.26448 38.27209
#
# Velocity S-wave (km/s) = 3.91491 4.12431 4.02097
# Velocity P-wave (km/s) = 5.79085 6.14236 5.96919
#
# Compressibility (1/GPa) = 0.03225192
#
# Stress axis : x y z
#
# Youngs Moduli (GPa) = 121.76547 57.55182 73.60481
#
# Poissons Ratio (x) = 0.07182 0.13258
# Poissons Ratio (y) = 0.15196 0.03032
# Poissons Ratio (z) = 0.21932 0.02371
#
# Static dielectric constant tensor:
#      x y z
#    x 1.916290 0.000000 0.000000 
#    y 0.000000 1.862000 0.000000 
#    z 0.000000 0.000000 1.905820 
# 
# From -- ./inp_files/7294.got.cif
#   From: 2010.05.17/outbox.cif.g08.bks.cpg/sg52_4_cif.got.tgz:7294.got - 2010.06.03 12:15:38.
