data_PCOD9413703
_publ_section_title
;
Structure prediction by ZEFSAII (Michael W. Deem and Ramdas Pophale) SiO2 
 PCOD9413703
Probable space group: P N N A
;
_chemical_formula_sum "Si O2"
_cell_formula_units_Z 36
_cell_length_a 15.173504
_cell_length_b 12.517048
_cell_length_c 7.208612
_cell_angle_alpha 90.000000
_cell_angle_beta 90.000000
_cell_angle_gamma 90.000000
_cell_volume 1369.113496
_symmetry_space_group_name_H-M "P N N A"
_symmetry_group_IT_number 52
_symmetry_cell_setting 'orthorhombic'
loop_
_space_group_symop_operation_xyz
x,y,z
1/2-x,-y,z
x,1/2-y,1/2-z
1/2-x,1/2+y,1/2-z
-x,-y,-z
1/2+x,y,-z
-x,1/2+y,1/2+z
1/2+x,1/2-y,1/2+z
loop_
_atom_site_type_symbol
_atom_site_label
_atom_site_fract_x
_atom_site_fract_y
_atom_site_fract_z
Si Si1 0.993711 0.250000 0.250000
Si Si2 0.150651 0.910152 0.860817
Si Si3 0.633439 0.097440 0.703912
Si Si4 0.169189 0.629138 0.220361
Si Si5 0.651706 0.358235 0.347302
O O1 0.927396 0.173381 0.142924
O O2 0.054409 0.169994 0.366422
O O3 0.244291 0.867954 0.788448
O O4 0.118863 0.024187 0.785862
O O5 0.176613 0.919518 0.074881
O O6 0.731462 0.132722 0.640585
O O7 0.620317 0.974355 0.639236
O O8 0.634587 0.131779 0.927709
O O9 0.136436 0.750000 0.250000
O O10 0.618758 0.250000 0.250000
#
# Coordination Sequence:
#
# PCOD9413703 Si02
#       5
#     4   8   8   8   8
#     4  12  20  38  54  88 124 138 176 260 286 322
#     4   9  20  33  59  83 110 148 191 230 296 324
#     4   9  20  33  59  83 110 148 191 230 296 324
#     4   9  17  38  59  79 105 157 197 224 267 368
#     4   9  17  38  59  79 105 157 197 224 267 368
#
# _framework density 26.294388999999999
#
# number of rings (size 3 to 8) (size 9 to 14) (size 15 to 20)
#    0.000    2.667    2.222    2.667    0.000    3.556 
#    0.000    8.889    0.000    0.000    0.000    0.000 
#    0.000    0.000    0.000    0.000    0.000    0.000 
#
# Total GULP energy -200408.857519 kJ/mol
# GULP energy per Si atom -5566.912709 kJ/mol
# Density = 2.623454 g / cm^3
# Si number density = 26.294389 Si / 1000 Ang^3
#
#
#
# Elastic Constant Matrix: (Units=GPa)
#
#
# Indices 1 2 3 4 5 6 
#
# 1 88.6287 44.4500 0.8516 0.0000 0.0000 0.0000
# 2 44.4500 251.4281 20.4306 0.0000 0.0000 0.0000
# 3 0.8516 20.4306 101.7679 0.0000 0.0000 0.0000
# 4 0.0000 0.0000 0.0000 23.6843 0.0000 0.0000
# 5 0.0000 0.0000 0.0000 0.0000 -3.4651 0.0000
# 6 0.0000 0.0000 0.0000 0.0000 0.0000 65.4836
#
#
#
# Elastic Compliance Matrix: (Units=1/GPa)
#
#
# Indices 1 2 3 4 5 6 
#
# 1 0.012392 -0.002219 0.000342 0.000000 0.000000 0.000000
# 2 -0.002219 0.004440 -0.000873 0.000000 0.000000 0.000000
# 3 0.000342 -0.000873 0.009999 0.000000 0.000000 0.000000
# 4 0.000000 0.000000 0.000000 0.042222 0.000000 0.000000
# 5 0.000000 0.000000 0.000000 0.000000 -0.288590 0.000000
# 6 0.000000 0.000000 0.000000 0.000000 0.000000 0.015271
#
#
# Mechanical properties :
#
#
# Convention : Reuss Voigt Hill
#
# Bulk Modulus (GPa) = 46.87805 63.69876 55.28841
# Shear Modulus (GPa) = -26.08853 42.21339 8.06243
#
# Velocity S-wave (km/s) = -3.15329 4.01111 1.75296
# Velocity P-wave (km/s) = 2.14690 6.76238 5.01692
#
# Compressibility (1/GPa) = 0.02133195
#
# Stress axis : x y z
#
# Youngs Moduli (GPa) = 80.69428 225.20285 100.01339
#
# Poissons Ratio (x) = 0.49964 -0.03418
# Poissons Ratio (y) = 0.17903 0.08730
# Poissons Ratio (z) = -0.02757 0.19658
#
# Static dielectric constant tensor:
#      x y z
#    x 2.103660 0.000000 0.000000 
#    y 0.000000 2.142580 0.000000 
#    z 0.000000 0.000000 2.201290 
# 
# From -- ./inp_files/19182.got.cif
#   From: 2010.05.17/outbox.cif.g08.bks.cpg/sg52_10_cif.got.tgz:19182.got - 2010.06.03 12:15:38.
