data_PCOD9413728
_publ_section_title
;
Structure prediction by ZEFSAII (Michael W. Deem and Ramdas Pophale) SiO2 
 PCOD9413728
Probable space group: P N N A
;
_chemical_formula_sum "Si O2"
_cell_formula_units_Z 36
_cell_length_a 8.587726
_cell_length_b 10.425502
_cell_length_c 20.024622
_cell_angle_alpha 90.000000
_cell_angle_beta 90.000000
_cell_angle_gamma 90.000000
_cell_volume 1792.831533
_symmetry_space_group_name_H-M "P N N A"
_symmetry_group_IT_number 52
_symmetry_cell_setting 'orthorhombic'
loop_
_space_group_symop_operation_xyz
x,y,z
1/2-x,-y,z
x,1/2-y,1/2-z
1/2-x,1/2+y,1/2-z
-x,-y,-z
1/2+x,y,-z
-x,1/2+y,1/2+z
1/2+x,1/2-y,1/2+z
loop_
_atom_site_type_symbol
_atom_site_label
_atom_site_fract_x
_atom_site_fract_y
_atom_site_fract_z
Si Si1 0.250000 0.000000 0.905315
Si Si2 0.582334 0.924899 0.869869
Si Si3 0.250000 0.500000 0.173292
Si Si4 0.171661 0.724262 0.503364
Si Si5 0.150499 0.750000 0.250000
Si Si6 0.069190 0.404585 0.054366
O O1 0.080070 0.995142 0.869532
O O2 0.235452 0.122646 0.953167
O O3 0.601869 0.852471 0.940626
O O4 0.564737 0.819810 0.811288
O O5 0.750000 0.000000 0.861267
O O6 0.238530 0.629686 0.216011
O O7 0.104903 0.475662 0.123313
O O8 0.274565 0.838179 0.472843
O O9 0.049319 0.786629 0.554187
O O10 0.000000 0.500000 0.000000
#
# Coordination Sequence:
#
# PCOD9413728 Si02
#       6
#     4   8   4   8   4   8
#     4  12  26  41  70 115 140 180 232 302 362 430
#     4  12  24  45  70 101 146 192 238 291 356 431
#     4  12  26  43  74 101 142 194 238 298 354 434
#     4  12  22  40  70 103 143 174 224 301 371 422
#     4  12  26  48  68 100 140 198 252 282 344 442
#     4  12  22  40  66 106 136 176 231 297 369 415
#
# _framework density 20.079967
#
# number of rings (size 3 to 8) (size 9 to 14) (size 15 to 20)
#    0.000    0.000    8.889    2.000    0.000    0.000 
#    0.000    3.333    0.000    0.000    0.000    0.000 
#    0.000    0.000    0.000    0.000    0.000    0.000 
#
# Total GULP energy -200643.003197 kJ/mol
# GULP energy per Si atom -5573.416755 kJ/mol
# Density = 2.003426 g / cm^3
# Si number density = 20.079967 Si / 1000 Ang^3
#
#
#
# Elastic Constant Matrix: (Units=GPa)
#
#
# Indices 1 2 3 4 5 6 
#
# 1 121.1430 44.2870 27.4862 0.0000 0.0000 0.0000
# 2 44.2870 107.3701 43.8845 0.0000 0.0000 0.0000
# 3 27.4862 43.8845 80.8362 0.0000 0.0000 0.0000
# 4 0.0000 0.0000 0.0000 57.4334 0.0000 0.0000
# 5 0.0000 0.0000 0.0000 0.0000 -13.2259 0.0000
# 6 0.0000 0.0000 0.0000 0.0000 0.0000 42.3522
#
#
#
# Elastic Compliance Matrix: (Units=1/GPa)
#
#
# Indices 1 2 3 4 5 6 
#
# 1 0.009855 -0.003464 -0.001470 0.000000 0.000000 0.000000
# 2 -0.003464 0.013187 -0.005981 0.000000 0.000000 0.000000
# 3 -0.001470 -0.005981 0.016118 0.000000 0.000000 0.000000
# 4 0.000000 0.000000 0.000000 0.017411 0.000000 0.000000
# 5 0.000000 0.000000 0.000000 0.000000 -0.075609 0.000000
# 6 0.000000 0.000000 0.000000 0.000000 0.000000 0.023612
#
#
# Mechanical properties :
#
#
# Convention : Reuss Voigt Hill
#
# Bulk Modulus (GPa) = 57.70804 60.07386 58.89095
# Shear Modulus (GPa) = 155.37651 30.22471 92.80061
#
# Velocity S-wave (km/s) = 8.80607 3.88392 6.80557
# Velocity P-wave (km/s) = 11.49771 7.07781 9.54706
#
# Compressibility (1/GPa) = 0.01732861
#
# Stress axis : x y z
#
# Youngs Moduli (GPa) = 101.47558 75.83274 62.04351
#
# Poissons Ratio (x) = 0.26267 0.09123
# Poissons Ratio (y) = 0.35149 0.37109
# Poissons Ratio (z) = 0.14921 0.45357
#
# Static dielectric constant tensor:
#      x y z
#    x 1.777400 0.000000 0.000000 
#    y 0.000000 1.845850 0.000000 
#    z 0.000000 0.000000 1.696510 
# 
# From -- ./inp_files/35618.got.cif
#   From: 2010.05.17/outbox.cif.g08.bks.cpg/sg52_18_cif.got.tgz:35618.got - 2010.06.03 12:15:38.
