data_PCOD9413595
_publ_section_title
;
Structure prediction by ZEFSAII (Michael W. Deem and Ramdas Pophale) SiO2 
 PCOD9413595
Probable space group: P N N A
;
_chemical_formula_sum "Si O2"
_cell_formula_units_Z 48
_cell_length_a 5.026984
_cell_length_b 14.507941
_cell_length_c 28.869970
_cell_angle_alpha 90.000000
_cell_angle_beta 90.000000
_cell_angle_gamma 90.000000
_cell_volume 2105.521189
_symmetry_space_group_name_H-M "P N N A"
_symmetry_group_IT_number 52
_symmetry_cell_setting 'orthorhombic'
loop_
_space_group_symop_operation_xyz
x,y,z
1/2-x,-y,z
x,1/2-y,1/2-z
1/2-x,1/2+y,1/2-z
-x,-y,-z
1/2+x,y,-z
-x,1/2+y,1/2+z
1/2+x,1/2-y,1/2+z
loop_
_atom_site_type_symbol
_atom_site_label
_atom_site_fract_x
_atom_site_fract_y
_atom_site_fract_z
Si Si1 0.026288 0.142740 0.969033
Si Si2 0.825968 0.185377 0.591350
Si Si3 0.988259 0.936928 0.723976
Si Si4 0.750000 0.000000 0.904840
Si Si5 0.066620 0.910128 0.826213
Si Si6 0.750000 0.500000 0.966441
Si Si7 0.182818 0.712020 0.848047
O O1 0.950209 0.235757 0.941597
O O2 0.954200 0.055793 0.936938
O O3 0.827057 0.140335 0.013066
O O4 0.545609 0.215127 0.612958
O O5 0.046578 0.171512 0.631250
O O6 0.772198 0.091151 0.564416
O O7 0.920136 0.907280 0.776674
O O8 0.061889 0.850276 0.692591
O O9 0.750000 0.000000 0.705324
O O10 0.250000 0.000000 0.725938
O O11 0.878499 0.925662 0.870151
O O12 0.229363 0.816333 0.831661
O O13 0.250000 0.000000 0.826356
O O14 0.500000 0.500000 0.000000
#
# Coordination Sequence:
#
# PCOD9413595 Si02
#       7
#     8   8   8   4   8   4   8
#     4  12  26  45  69 102 141 181 238 303 364 434
#     4  12  26  46  74 104 142 188 237 300 367 434
#     4  11  25  46  72 108 146 192 239 302 357 428
#     4  12  24  44  69 102 140 192 243 290 370 436
#     4  11  25  46  73 103 150 194 245 296 362 444
#     4  12  26  48  73 102 140 190 243 300 364 440
#     4  12  26  45  73 109 144 189 241 298 363 434
#
# _framework density 22.797205000000002
#
# number of rings (size 3 to 8) (size 9 to 14) (size 15 to 20)
#    0.000    0.333    2.500    6.000    5.833    0.000 
#    0.000    3.333    0.000    0.000    0.000    0.000 
#    0.000    0.000    0.000    0.000    0.000    0.000 
#
# Total GULP energy -269063.380766 kJ/mol
# GULP energy per Si atom -5605.487099 kJ/mol
# Density = 2.274532 g / cm^3
# Si number density = 22.797205 Si / 1000 Ang^3
#
#
#
# Elastic Constant Matrix: (Units=GPa)
#
#
# Indices 1 2 3 4 5 6 
#
# 1 91.7111 23.2381 7.5790 0.0000 0.0000 0.0000
# 2 23.2381 153.6866 62.9937 0.0000 0.0000 0.0000
# 3 7.5790 62.9937 85.5050 0.0000 0.0000 0.0000
# 4 0.0000 0.0000 0.0000 -57.1114 0.0000 0.0000
# 5 0.0000 0.0000 0.0000 0.0000 25.8282 0.0000
# 6 0.0000 0.0000 0.0000 0.0000 0.0000 34.5012
#
#
#
# Elastic Compliance Matrix: (Units=1/GPa)
#
#
# Indices 1 2 3 4 5 6 
#
# 1 0.011346 -0.001867 0.000370 0.000000 0.000000 0.000000
# 2 -0.001867 0.009629 -0.006928 0.000000 0.000000 0.000000
# 3 0.000370 -0.006928 0.016767 0.000000 0.000000 0.000000
# 4 0.000000 0.000000 0.000000 -0.017510 0.000000 0.000000
# 5 0.000000 0.000000 0.000000 0.000000 0.038717 0.000000
# 6 0.000000 0.000000 0.000000 0.000000 0.000000 0.028985
#
#
# Mechanical properties :
#
#
# Convention : Reuss Voigt Hill
#
# Bulk Modulus (GPa) = 47.86831 57.61382 52.74106
# Shear Modulus (GPa) = 44.74305 16.44970 30.59638
#
# Velocity S-wave (km/s) = 4.43499 2.68911 3.66746
# Velocity P-wave (km/s) = 6.87521 5.91346 6.41239
#
# Compressibility (1/GPa) = 0.02089065
#
# Stress axis : x y z
#
# Youngs Moduli (GPa) = 88.13394 103.85402 59.64199
#
# Poissons Ratio (x) = 0.19392 -0.02206
# Poissons Ratio (y) = 0.16457 0.41322
# Poissons Ratio (z) = -0.03260 0.71954
#
# Static dielectric constant tensor:
#      x y z
#    x 1.748480 0.000000 0.000000 
#    y 0.000000 1.827030 0.000000 
#    z 0.000000 0.000000 1.890240 
# 
# From -- ./inp_files/41718.got.cif
#   From: 2010.05.17/outbox.cif.g08.bks.cpg/sg52_21_cif.got.tgz:41718.got - 2010.06.03 12:15:38.
