data_PCOD9413362
_publ_section_title
;
Structure prediction by ZEFSAII (Michael W. Deem and Ramdas Pophale) SiO2 
 PCOD9413362
Probable space group: P N N A
;
_chemical_formula_sum "Si O2"
_cell_formula_units_Z 64
_cell_length_a 10.864166
_cell_length_b 28.090952
_cell_length_c 8.621532
_cell_angle_alpha 90.000000
_cell_angle_beta 90.000000
_cell_angle_gamma 90.000000
_cell_volume 2631.160223
_symmetry_space_group_name_H-M "P N N A"
_symmetry_group_IT_number 52
_symmetry_cell_setting 'orthorhombic'
loop_
_space_group_symop_operation_xyz
x,y,z
1/2-x,-y,z
x,1/2-y,1/2-z
1/2-x,1/2+y,1/2-z
-x,-y,-z
1/2+x,y,-z
-x,1/2+y,1/2+z
1/2+x,1/2-y,1/2+z
loop_
_atom_site_type_symbol
_atom_site_label
_atom_site_fract_x
_atom_site_fract_y
_atom_site_fract_z
Si Si1 0.429334 0.759161 0.436861
Si Si2 0.650441 0.157242 0.055016
Si Si3 0.831059 0.208715 0.619213
Si Si4 0.555155 0.987702 0.171671
Si Si5 0.834835 0.957407 0.616579
Si Si6 0.600403 0.415527 0.180237
Si Si7 0.083409 0.887336 0.937738
Si Si8 0.146234 0.897293 0.269814
O O1 0.444737 0.750000 0.250000
O O2 0.392509 0.711414 0.533040
O O3 0.553847 0.781803 0.505442
O O4 0.304518 0.789419 0.455325
O O5 0.624766 0.131660 0.219871
O O6 0.798901 0.148448 0.047953
O O7 0.555101 0.134086 0.925767
O O8 0.835009 0.250000 0.750000
O O9 0.837449 0.157818 0.700423
O O10 0.453967 0.979428 0.306053
O O11 0.611182 0.934157 0.161826
O O12 0.625159 0.035282 0.226487
O O13 0.500000 0.000000 0.000000
O O14 0.829061 0.918907 0.480351
O O15 0.764395 0.929243 0.749967
O O16 0.750000 0.000000 0.561094
O O17 0.459029 0.415421 0.115479
O O18 0.076330 0.906625 0.110961
#
# Coordination Sequence:
#
# PCOD9413362 Si02
#       8
#     8   8   8   8   8   8   8   8
#     4  11  25  49  77 113 150 197 255 324 400 467
#     4  11  23  45  71 105 145 186 252 310 375 456
#     4  11  25  48  78 106 155 197 250 323 402 470
#     4  12  23  44  68 104 141 195 249 308 364 445
#     4  12  26  45  70 101 154 198 248 312 375 451
#     4  11  26  44  67 104 145 198 246 301 377 445
#     4  11  23  42  73 106 140 191 246 308 362 443
#     4  11  24  45  69 103 144 193 245 305 385 445
#
# _framework density 24.323869999999999
#
# number of rings (size 3 to 8) (size 9 to 14) (size 15 to 20)
#    0.000    0.750    3.750    4.875    3.500    0.500 
#    4.500    0.000    0.000    0.000    0.000    0.000 
#    0.000    0.000    0.000    0.000    0.000    0.000 
#
# Total GULP energy -356633.954717 kJ/mol
# GULP energy per Si atom -5572.405542 kJ/mol
# Density = 2.426851 g / cm^3
# Si number density = 24.323870 Si / 1000 Ang^3
#
#
#
# Elastic Constant Matrix: (Units=GPa)
#
#
# Indices 1 2 3 4 5 6 
#
# 1 84.1628 -13.7157 3.6386 0.0000 0.0000 0.0000
# 2 -13.7157 91.9816 -2.5763 0.0000 0.0000 0.0000
# 3 3.6386 -2.5763 46.5025 0.0000 0.0000 0.0000
# 4 0.0000 0.0000 0.0000 33.8481 0.0000 0.0000
# 5 0.0000 0.0000 0.0000 0.0000 27.0122 0.0000
# 6 0.0000 0.0000 0.0000 0.0000 0.0000 22.9744
#
#
#
# Elastic Compliance Matrix: (Units=1/GPa)
#
#
# Indices 1 2 3 4 5 6 
#
# 1 0.012212 0.001797 -0.000856 0.000000 0.000000 0.000000
# 2 0.001797 0.011153 0.000477 0.000000 0.000000 0.000000
# 3 -0.000856 0.000477 0.021598 0.000000 0.000000 0.000000
# 4 0.000000 0.000000 0.000000 0.029544 0.000000 0.000000
# 5 0.000000 0.000000 0.000000 0.000000 0.037020 0.000000
# 6 0.000000 0.000000 0.000000 0.000000 0.000000 0.043527
#
#
# Mechanical properties :
#
#
# Convention : Reuss Voigt Hill
#
# Bulk Modulus (GPa) = 20.92102 21.92669 21.42385
# Shear Modulus (GPa) = 29.73546 32.45363 31.09455
#
# Velocity S-wave (km/s) = 3.50019 3.65667 3.57929
# Velocity P-wave (km/s) = 4.99548 5.18289 5.09005
#
# Compressibility (1/GPa) = 0.04779882
#
# Stress axis : x y z
#
# Youngs Moduli (GPa) = 81.88950 89.66157 46.30135
#
# Poissons Ratio (x) = -0.16112 0.03963
# Poissons Ratio (y) = -0.14715 -0.02210
# Poissons Ratio (z) = 0.07009 -0.04280
#
# Static dielectric constant tensor:
#      x y z
#    x 2.764520 0.000000 0.000000 
#    y 0.000000 1.899530 0.000000 
#    z 0.000000 0.000000 2.021790 
# 
# From -- ./inp_files/9129.got.cif
#   From: 2010.05.17/outbox.cif.g08.bks.cpg/sg52_5_cif.got.tgz:9129.got - 2010.06.03 12:15:38.
