data_PCOD9413916
_publ_section_title
;
Structure prediction by ZEFSAII (Michael W. Deem and Ramdas Pophale) SiO2 
 PCOD9413916
Probable space group: P N N A
;
_chemical_formula_sum "Si O2"
_cell_formula_units_Z 20
_cell_length_a 14.931609
_cell_length_b 11.383750
_cell_length_c 4.885901
_cell_angle_alpha 90.000000
_cell_angle_beta 90.000000
_cell_angle_gamma 90.000000
_cell_volume 830.494234
_symmetry_space_group_name_H-M "P N N A"
_symmetry_group_IT_number 52
_symmetry_cell_setting 'orthorhombic'
loop_
_space_group_symop_operation_xyz
x,y,z
1/2-x,-y,z
x,1/2-y,1/2-z
1/2-x,1/2+y,1/2-z
-x,-y,-z
1/2+x,y,-z
-x,1/2+y,1/2+z
1/2+x,1/2-y,1/2+z
loop_
_atom_site_type_symbol
_atom_site_label
_atom_site_fract_x
_atom_site_fract_y
_atom_site_fract_z
Si Si1 0.154529 0.862985 0.124728
Si Si2 0.899601 0.510796 0.106985
Si Si3 0.807228 0.750000 0.250000
O O1 0.103373 0.750000 0.250000
O O2 0.162873 0.946460 0.384813
O O3 0.242408 0.808568 0.979319
O O4 0.108255 0.938584 0.888798
O O5 0.867379 0.643630 0.141902
O O6 0.000000 0.500000 0.000000
#
# Coordination Sequence:
#
# PCOD9413916 Si02
#       3
#     8   8   4
#     4  12  27  51  79 116 161 213 274 322 403 487
#     4  12  30  52  81 121 164 208 272 339 407 471
#     4  12  30  46  92 112 168 216 272 328 404 484
#
# _framework density 24.082048
#
# number of rings (size 3 to 8) (size 9 to 14) (size 15 to 20)
#    0.000    0.000    4.000    2.400   14.000    0.000 
#    7.200    0.000    8.800    0.000    0.000    0.000 
#    0.000    0.000    0.000    0.000    0.000    0.000 
#
# Total GULP energy -112094.882487 kJ/mol
# GULP energy per Si atom -5604.744124 kJ/mol
# Density = 2.402724 g / cm^3
# Si number density = 24.082048 Si / 1000 Ang^3
#
#
#
# Elastic Constant Matrix: (Units=GPa)
#
#
# Indices 1 2 3 4 5 6 
#
# 1 85.3594 75.7458 6.8130 0.0000 0.0000 0.0000
# 2 75.7458 249.3876 82.3811 0.0000 0.0000 0.0000
# 3 6.8130 82.3811 145.1599 0.0000 0.0000 0.0000
# 4 0.0000 0.0000 0.0000 65.6508 0.0000 0.0000
# 5 0.0000 0.0000 0.0000 0.0000 -24.6954 0.0000
# 6 0.0000 0.0000 0.0000 0.0000 0.0000 18.0923
#
#
#
# Elastic Compliance Matrix: (Units=1/GPa)
#
#
# Indices 1 2 3 4 5 6 
#
# 1 0.016795 -0.005957 0.002593 0.000000 0.000000 0.000000
# 2 -0.005957 0.007048 -0.003720 0.000000 0.000000 0.000000
# 3 0.002593 -0.003720 0.008879 0.000000 0.000000 0.000000
# 4 0.000000 0.000000 0.000000 0.015232 0.000000 0.000000
# 5 0.000000 0.000000 0.000000 0.000000 -0.040493 0.000000
# 6 0.000000 0.000000 0.000000 0.000000 0.000000 0.055272
#
#
# Mechanical properties :
#
#
# Convention : Reuss Voigt Hill
#
# Bulk Modulus (GPa) = 53.90441 89.97630 71.94035
# Shear Modulus (GPa) = 60.17810 32.80734 46.49272
#
# Velocity S-wave (km/s) = 5.00430 3.69496 4.39862
# Velocity P-wave (km/s) = 7.47148 7.45970 7.46559
#
# Compressibility (1/GPa) = 0.01855136
#
# Stress axis : x y z
#
# Youngs Moduli (GPa) = 59.54235 141.87919 112.62955
#
# Poissons Ratio (x) = 0.84524 -0.29202
# Poissons Ratio (y) = 0.35472 0.41903
# Poissons Ratio (z) = -0.15438 0.52785
#
# Static dielectric constant tensor:
#      x y z
#    x 1.986830 0.000000 0.000000 
#    y 0.000000 1.876850 0.000000 
#    z 0.000000 0.000000 1.979250 
# 
# From -- ./inp_files/1600.got.cif
#   From: 2010.05.17/outbox.cif.g08.bks.cpg/sg52_1_cif.got.tgz:1600.got - 2010.06.03 12:15:38.
