data_PCOD9413775
_publ_section_title
;
Structure prediction by ZEFSAII (Michael W. Deem and Ramdas Pophale) SiO2 
 PCOD9413775
Probable space group: P N N A
;
_chemical_formula_sum "Si O2"
_cell_formula_units_Z 48
_cell_length_a 5.520210
_cell_length_b 14.011240
_cell_length_c 25.789564
_cell_angle_alpha 90.000000
_cell_angle_beta 90.000000
_cell_angle_gamma 90.000000
_cell_volume 1994.693496
_symmetry_space_group_name_H-M "P N N A"
_symmetry_group_IT_number 52
_symmetry_cell_setting 'orthorhombic'
loop_
_space_group_symop_operation_xyz
x,y,z
1/2-x,-y,z
x,1/2-y,1/2-z
1/2-x,1/2+y,1/2-z
-x,-y,-z
1/2+x,y,-z
-x,1/2+y,1/2+z
1/2+x,1/2-y,1/2+z
loop_
_atom_site_type_symbol
_atom_site_label
_atom_site_fract_x
_atom_site_fract_y
_atom_site_fract_z
Si Si1 0.317359 0.399648 0.417518
Si Si2 0.359099 0.340686 0.222078
Si Si3 0.468826 0.265308 0.651124
Si Si4 0.631838 0.398242 0.120800
Si Si5 0.582036 0.793831 0.529970
Si Si6 0.082876 0.416601 0.687276
O O1 0.250000 0.500000 0.444235
O O2 0.116064 0.336543 0.386434
O O3 0.430260 0.318121 0.453660
O O4 0.488410 0.434345 0.370535
O O5 0.480393 0.250000 0.250000
O O6 0.133672 0.293038 0.192300
O O7 0.515265 0.392512 0.178166
O O8 0.356165 0.403993 0.273779
O O9 0.333402 0.184251 0.618635
O O10 0.266374 0.328587 0.678795
O O11 0.750000 0.500000 0.110648
O O12 0.433240 0.362491 0.080042
O O13 0.336919 0.812329 0.497877
O O14 0.250000 0.500000 0.708310
#
# Coordination Sequence:
#
# PCOD9413775 Si02
#       6
#     8   8   8   8   8   8
#     4  12  25  46  79 115 153 205 251 320 411 482
#     4  12  24  43  69 106 151 205 254 311 384 454
#     4  12  23  46  73  99 162 204 252 322 378 466
#     4  12  28  50  75 108 151 207 261 325 396 463
#     4  12  28  53  84 115 155 202 268 344 413 484
#     4  12  25  43  73 112 152 208 258 309 394 482
#
# _framework density 24.063848
#
# number of rings (size 3 to 8) (size 9 to 14) (size 15 to 20)
#    0.000    0.000    8.333    1.500    2.333    2.000 
#    6.000    0.000    0.000    0.000    0.000    0.000 
#    0.000    0.000    0.000    0.000    0.000    0.000 
#
# Total GULP energy -268217.584289 kJ/mol
# GULP energy per Si atom -5587.866339 kJ/mol
# Density = 2.400908 g / cm^3
# Si number density = 24.063848 Si / 1000 Ang^3
#
#
#
# Elastic Constant Matrix: (Units=GPa)
#
#
# Indices 1 2 3 4 5 6 
#
# 1 84.7471 31.7781 23.3092 0.0000 0.0000 0.0000
# 2 31.7781 114.0116 -6.0717 0.0000 0.0000 0.0000
# 3 23.3092 -6.0717 61.0464 0.0000 0.0000 0.0000
# 4 0.0000 0.0000 0.0000 5.5141 0.0000 0.0000
# 5 0.0000 0.0000 0.0000 0.0000 42.1413 0.0000
# 6 0.0000 0.0000 0.0000 0.0000 0.0000 41.6681
#
#
#
# Elastic Compliance Matrix: (Units=1/GPa)
#
#
# Indices 1 2 3 4 5 6 
#
# 1 0.015245 -0.004583 -0.006277 0.000000 0.000000 0.000000
# 2 -0.004583 0.010196 0.002764 0.000000 0.000000 0.000000
# 3 -0.006277 0.002764 0.019053 0.000000 0.000000 0.000000
# 4 0.000000 0.000000 0.000000 0.181354 0.000000 0.000000
# 5 0.000000 0.000000 0.000000 0.000000 0.023730 0.000000
# 6 0.000000 0.000000 0.000000 0.000000 0.000000 0.023999
#
#
# Mechanical properties :
#
#
# Convention : Reuss Voigt Hill
#
# Bulk Modulus (GPa) = 35.33431 39.75958 37.54694
# Shear Modulus (GPa) = 16.71111 31.91732 24.31422
#
# Velocity S-wave (km/s) = 2.63810 3.64587 3.18213
# Velocity P-wave (km/s) = 4.89845 5.85505 5.39798
#
# Compressibility (1/GPa) = 0.02830111
#
# Stress axis : x y z
#
# Youngs Moduli (GPa) = 65.59575 98.07984 52.48636
#
# Poissons Ratio (x) = 0.44954 0.32945
# Poissons Ratio (y) = 0.30065 -0.14508
# Poissons Ratio (z) = 0.41173 -0.27111
#
# Static dielectric constant tensor:
#      x y z
#    x 1.959070 0.000000 0.000000 
#    y 0.000000 2.021700 0.000000 
#    z 0.000000 0.000000 1.954200 
# 
# From -- ./inp_files/41702.got.cif
#   From: 2010.05.17/outbox.cif.g08.bks.cpg/sg52_21_cif.got.tgz:41702.got - 2010.06.03 12:15:38.
