data_PCOD9413727
_publ_section_title
;
Structure prediction by ZEFSAII (Michael W. Deem and Ramdas Pophale) SiO2 
 PCOD9413727
Probable space group: P N N A
;
_chemical_formula_sum "Si O2"
_cell_formula_units_Z 48
_cell_length_a 27.679571
_cell_length_b 15.881355
_cell_length_c 4.881307
_cell_angle_alpha 90.000000
_cell_angle_beta 90.000000
_cell_angle_gamma 90.000000
_cell_volume 2145.769318
_symmetry_space_group_name_H-M "P N N A"
_symmetry_group_IT_number 52
_symmetry_cell_setting 'orthorhombic'
loop_
_space_group_symop_operation_xyz
x,y,z
1/2-x,-y,z
x,1/2-y,1/2-z
1/2-x,1/2+y,1/2-z
-x,-y,-z
1/2+x,y,-z
-x,1/2+y,1/2+z
1/2+x,1/2-y,1/2+z
loop_
_atom_site_type_symbol
_atom_site_label
_atom_site_fract_x
_atom_site_fract_y
_atom_site_fract_z
Si Si1 0.043654 0.399402 0.347064
Si Si2 0.513176 0.654676 0.829002
Si Si3 0.318422 0.750000 0.750000
Si Si4 0.616681 0.250000 0.750000
Si Si5 0.831302 0.449222 0.116643
Si Si6 0.103151 0.567271 0.369398
Si Si7 0.765762 0.586117 0.339624
O O1 0.082890 0.325650 0.347983
O O2 0.072272 0.484579 0.291735
O O3 0.019565 0.405772 0.642572
O O4 0.001605 0.370776 0.135678
O O5 0.499292 0.750000 0.750000
O O6 0.567813 0.641334 0.727913
O O7 0.352236 0.782533 0.505408
O O8 0.288309 0.676118 0.597050
O O9 0.876453 0.435524 0.322356
O O10 0.807740 0.541517 0.158775
O O11 0.784643 0.393570 0.190408
O O12 0.849414 0.433488 0.815177
O O13 0.750000 0.500000 0.512868
#
# Coordination Sequence:
#
# PCOD9413727 Si02
#       7
#     8   8   4   4   8   8   8
#     4  12  23  41  62  88 123 155 200 252 306 343
#     4  12  24  42  56  89 125 162 195 253 294 347
#     4  12  22  42  62  95 116 161 194 248 308 362
#     4  12  24  36  70  89 122 147 206 252 300 362
#     4   9  22  40  61  90 121 152 203 248 293 352
#     4  12  22  40  64  89 114 166 206 237 291 371
#     4   8  22  43  62  91 127 155 193 257 304 356
#
# _framework density 22.369599000000001
#
# number of rings (size 3 to 8) (size 9 to 14) (size 15 to 20)
#    1.000    0.000    1.667    6.000    0.000    4.000 
#    3.000    0.000    0.000    0.000    0.000    0.000 
#    0.000    0.000    0.000    0.000    0.000    0.000 
#
# Total GULP energy -267546.896844 kJ/mol
# GULP energy per Si atom -5573.893684 kJ/mol
# Density = 2.231868 g / cm^3
# Si number density = 22.369599 Si / 1000 Ang^3
#
#
#
# Elastic Constant Matrix: (Units=GPa)
#
#
# Indices 1 2 3 4 5 6 
#
# 1 91.3161 21.7652 2.0626 0.0000 0.0000 0.0000
# 2 21.7652 48.9554 1.8305 0.0000 0.0000 0.0000
# 3 2.0626 1.8305 53.9376 0.0000 0.0000 0.0000
# 4 0.0000 0.0000 0.0000 11.7344 0.0000 0.0000
# 5 0.0000 0.0000 0.0000 0.0000 15.4716 0.0000
# 6 0.0000 0.0000 0.0000 0.0000 0.0000 10.5036
#
#
#
# Elastic Compliance Matrix: (Units=1/GPa)
#
#
# Indices 1 2 3 4 5 6 
#
# 1 0.012253 -0.005437 -0.000284 0.000000 0.000000 0.000000
# 2 -0.005437 0.022865 -0.000568 0.000000 0.000000 0.000000
# 3 -0.000284 -0.000568 0.018570 0.000000 0.000000 0.000000
# 4 0.000000 0.000000 0.000000 0.085219 0.000000 0.000000
# 5 0.000000 0.000000 0.000000 0.000000 0.064635 0.000000
# 6 0.000000 0.000000 0.000000 0.000000 0.000000 0.095206
#
#
# Mechanical properties :
#
#
# Convention : Reuss Voigt Hill
#
# Bulk Modulus (GPa) = 24.32486 27.28065 25.80275
# Shear Modulus (GPa) = 15.38318 18.77863 17.08090
#
# Velocity S-wave (km/s) = 2.62521 2.90051 2.76629
# Velocity P-wave (km/s) = 4.48182 4.84140 4.66507
#
# Compressibility (1/GPa) = 0.04111021
#
# Stress axis : x y z
#
# Youngs Moduli (GPa) = 81.61048 43.73435 53.85009
#
# Poissons Ratio (x) = 0.23779 0.01530
# Poissons Ratio (y) = 0.44373 0.03059
# Poissons Ratio (z) = 0.02318 0.02484
#
# Static dielectric constant tensor:
#      x y z
#    x 1.823200 0.000000 0.000000 
#    y 0.000000 1.266750 0.000000 
#    z 0.000000 0.000000 1.836530 
# 
# From -- ./inp_files/5165.got.cif
#   From: 2010.05.17/outbox.cif.g08.bks.cpg/sg52_3_cif.got.tgz:5165.got - 2010.06.03 12:15:38.
