data_PCOD9413726
_publ_section_title
;
Structure prediction by ZEFSAII (Michael W. Deem and Ramdas Pophale) SiO2 
 PCOD9413726
Probable space group: P N N A
;
_chemical_formula_sum "Si O2"
_cell_formula_units_Z 24
_cell_length_a 13.144482
_cell_length_b 13.187297
_cell_length_c 6.161609
_cell_angle_alpha 90.000000
_cell_angle_beta 90.000000
_cell_angle_gamma 90.000000
_cell_volume 1068.054463
_symmetry_space_group_name_H-M "P N N A"
_symmetry_group_IT_number 52
_symmetry_cell_setting 'orthorhombic'
loop_
_space_group_symop_operation_xyz
x,y,z
1/2-x,-y,z
x,1/2-y,1/2-z
1/2-x,1/2+y,1/2-z
-x,-y,-z
1/2+x,y,-z
-x,1/2+y,1/2+z
1/2+x,1/2-y,1/2+z
loop_
_atom_site_type_symbol
_atom_site_label
_atom_site_fract_x
_atom_site_fract_y
_atom_site_fract_z
Si Si1 0.894200 0.348201 0.871382
Si Si2 0.470664 0.750000 0.250000
Si Si3 0.250000 0.500000 0.884278
Si Si4 0.904969 0.859510 0.135371
O O1 0.848677 0.250000 0.750000
O O2 0.981010 0.391631 0.709901
O O3 0.814129 0.426009 0.962209
O O4 0.958167 0.305631 0.075943
O O5 0.406283 0.666988 0.381857
O O6 0.175018 0.437046 0.729368
O O7 0.886011 0.750000 0.250000
#
# Coordination Sequence:
#
# PCOD9413726 Si02
#       4
#     8   4   4   8
#     4   9  21  43  67  95 142 176 221 287 334 407
#     4   8  18  44  62  88 142 184 212 278 356 372
#     4  12  22  38  76 108 128 178 242 268 348 404
#     4   9  21  43  67  94 142 176 221 289 331 409
#
# _framework density 22.470763000000002
#
# number of rings (size 3 to 8) (size 9 to 14) (size 15 to 20)
#    0.000    3.333    0.000    1.000    2.333    1.333 
#   12.000   16.667    0.000    0.000    0.000    0.000 
#    0.000    0.000    0.000    0.000    0.000    0.000 
#
# Total GULP energy -134215.914931 kJ/mol
# GULP energy per Si atom -5592.329789 kJ/mol
# Density = 2.241962 g / cm^3
# Si number density = 22.470763 Si / 1000 Ang^3
#
#
#
# Elastic Constant Matrix: (Units=GPa)
#
#
# Indices 1 2 3 4 5 6 
#
# 1 130.1189 103.7135 65.2971 0.0000 0.0000 0.0000
# 2 103.7135 137.1437 74.4161 0.0000 0.0000 0.0000
# 3 65.2971 74.4161 144.6194 0.0000 0.0000 0.0000
# 4 0.0000 0.0000 0.0000 26.7150 0.0000 0.0000
# 5 0.0000 0.0000 0.0000 0.0000 -7.2505 0.0000
# 6 0.0000 0.0000 0.0000 0.0000 0.0000 34.6409
#
#
#
# Elastic Compliance Matrix: (Units=1/GPa)
#
#
# Indices 1 2 3 4 5 6 
#
# 1 0.019644 -0.013933 -0.001700 0.000000 0.000000 0.000000
# 2 -0.013933 0.019999 -0.004000 0.000000 0.000000 0.000000
# 3 -0.001700 -0.004000 0.009740 0.000000 0.000000 0.000000
# 4 0.000000 0.000000 0.000000 0.037432 0.000000 0.000000
# 5 0.000000 0.000000 0.000000 0.000000 -0.137922 0.000000
# 6 0.000000 0.000000 0.000000 0.000000 0.000000 0.028868
#
#
# Mechanical properties :
#
#
# Convention : Reuss Voigt Hill
#
# Bulk Modulus (GPa) = 98.83875 99.85948 99.34912
# Shear Modulus (GPa) = 245.11425 22.05143 133.58284
#
# Velocity S-wave (km/s) = 10.45554 3.13603 7.71858
# Velocity P-wave (km/s) = 13.77819 7.59270 11.12402
#
# Compressibility (1/GPa) = 0.01011749
#
# Stress axis : x y z
#
# Youngs Moduli (GPa) = 50.90613 50.00324 102.66584
#
# Poissons Ratio (x) = 0.69670 0.17453
# Poissons Ratio (y) = 0.70928 0.41063
# Poissons Ratio (z) = 0.08654 0.20000
#
# Static dielectric constant tensor:
#      x y z
#    x 1.831810 0.000000 0.000000 
#    y 0.000000 1.836800 0.000000 
#    z 0.000000 0.000000 1.859420 
# 
# From -- ./inp_files/836.got.cif
#   From: 2010.05.17/outbox.cif.g08.bks.cpg/sg52_1_cif.got.tgz:836.got - 2010.06.03 12:15:38.
