data_PCOD9413778
_publ_section_title
;
Structure prediction by ZEFSAII (Michael W. Deem and Ramdas Pophale) SiO2 
 PCOD9413778
Probable space group: P N N A
;
_chemical_formula_sum "Si O2"
_cell_formula_units_Z 48
_cell_length_a 12.157267
_cell_length_b 21.471320
_cell_length_c 7.783443
_cell_angle_alpha 90.000000
_cell_angle_beta 90.000000
_cell_angle_gamma 90.000000
_cell_volume 2031.732130
_symmetry_space_group_name_H-M "P N N A"
_symmetry_group_IT_number 52
_symmetry_cell_setting 'orthorhombic'
loop_
_space_group_symop_operation_xyz
x,y,z
1/2-x,-y,z
x,1/2-y,1/2-z
1/2-x,1/2+y,1/2-z
-x,-y,-z
1/2+x,y,-z
-x,1/2+y,1/2+z
1/2+x,1/2-y,1/2+z
loop_
_atom_site_type_symbol
_atom_site_label
_atom_site_fract_x
_atom_site_fract_y
_atom_site_fract_z
Si Si1 0.856404 0.111036 0.297990
Si Si2 0.860907 0.817396 0.212115
Si Si3 0.229091 0.430152 0.307861
Si Si4 0.097272 0.019139 0.872461
Si Si5 0.447631 0.387002 0.179485
Si Si6 0.072631 0.178575 0.186443
O O1 0.734921 0.137425 0.275654
O O2 0.861537 0.042293 0.220092
O O3 0.892720 0.106821 0.495688
O O4 0.947405 0.155659 0.209056
O O5 0.815157 0.750000 0.250000
O O6 0.977865 0.825763 0.308412
O O7 0.890193 0.822689 0.011663
O O8 0.250000 0.500000 0.226601
O O9 0.178821 0.447732 0.493076
O O10 0.347000 0.396280 0.311910
O O11 0.145692 0.378287 0.229255
O O12 0.038298 0.061977 0.731497
O O13 0.000000 0.000000 0.000000
O O14 0.088071 0.250000 0.250000
#
# Coordination Sequence:
#
# PCOD9413778 Si02
#       6
#     8   8   8   8   8   8
#     4  12  28  51  78 116 162 202 267 340 402 486
#     4  12  29  50  79 113 154 214 269 328 411 478
#     4  12  25  47  81 115 159 207 266 323 410 477
#     4  12  23  46  78 112 155 208 257 322 403 484
#     4  12  28  47  78 117 158 204 266 329 403 482
#     4  12  27  49  80 111 161 207 273 333 400 482
#
# _framework density 23.625162
#
# number of rings (size 3 to 8) (size 9 to 14) (size 15 to 20)
#    0.000    0.000    5.000    3.000    7.000    0.667 
#    0.000    0.000    0.000    0.000    0.000    0.000 
#    0.000    0.000    0.000    0.000    0.000    0.000 
#
# Total GULP energy -268431.869448 kJ/mol
# GULP energy per Si atom -5592.330614 kJ/mol
# Density = 2.357139 g / cm^3
# Si number density = 23.625162 Si / 1000 Ang^3
#
#
#
# Elastic Constant Matrix: (Units=GPa)
#
#
# Indices 1 2 3 4 5 6 
#
# 1 183.7710 53.4546 59.8779 0.0000 0.0000 0.0000
# 2 53.4546 117.1474 41.2354 0.0000 0.0000 0.0000
# 3 59.8779 41.2354 128.6595 0.0000 0.0000 0.0000
# 4 0.0000 0.0000 0.0000 37.0813 0.0000 0.0000
# 5 0.0000 0.0000 0.0000 0.0000 37.5478 0.0000
# 6 0.0000 0.0000 0.0000 0.0000 0.0000 45.5840
#
#
#
# Elastic Compliance Matrix: (Units=1/GPa)
#
#
# Indices 1 2 3 4 5 6 
#
# 1 0.006915 -0.002280 -0.002488 0.000000 0.000000 0.000000
# 2 -0.002280 0.010373 -0.002264 0.000000 0.000000 0.000000
# 3 -0.002488 -0.002264 0.009656 0.000000 0.000000 0.000000
# 4 0.000000 0.000000 0.000000 0.026968 0.000000 0.000000
# 5 0.000000 0.000000 0.000000 0.000000 0.026633 0.000000
# 6 0.000000 0.000000 0.000000 0.000000 0.000000 0.021938
#
#
# Mechanical properties :
#
#
# Convention : Reuss Voigt Hill
#
# Bulk Modulus (GPa) = 77.62726 82.07928 79.85327
# Shear Modulus (GPa) = 41.37753 42.37661 41.87707
#
# Velocity S-wave (km/s) = 4.18953 4.23981 4.21475
# Velocity P-wave (km/s) = 7.50547 7.66719 7.58676
#
# Compressibility (1/GPa) = 0.01288207
#
# Stress axis : x y z
#
# Youngs Moduli (GPa) = 144.60801 96.40119 103.56572
#
# Poissons Ratio (x) = 0.21977 0.25764
# Poissons Ratio (y) = 0.32968 0.23444
# Poissons Ratio (z) = 0.35974 0.21822
#
# Static dielectric constant tensor:
#      x y z
#    x 1.893790 0.000000 0.000000 
#    y 0.000000 2.003440 0.000000 
#    z 0.000000 0.000000 1.908460 
# 
# From -- ./inp_files/10646.got.cif
#   From: 2010.05.17/outbox.cif.g08.bks.cpg/sg52_6_cif.got.tgz:10646.got - 2010.06.03 12:15:38.
