data_PCOD9413579
_publ_section_title
;
Structure prediction by ZEFSAII (Michael W. Deem and Ramdas Pophale) SiO2 
 PCOD9413579
Probable space group: P N N A
;
_chemical_formula_sum "Si O2"
_cell_formula_units_Z 56
_cell_length_a 9.313916
_cell_length_b 19.882164
_cell_length_c 14.600166
_cell_angle_alpha 90.000000
_cell_angle_beta 90.000000
_cell_angle_gamma 90.000000
_cell_volume 2703.670499
_symmetry_space_group_name_H-M "P N N A"
_symmetry_group_IT_number 52
_symmetry_cell_setting 'orthorhombic'
loop_
_space_group_symop_operation_xyz
x,y,z
1/2-x,-y,z
x,1/2-y,1/2-z
1/2-x,1/2+y,1/2-z
-x,-y,-z
1/2+x,y,-z
-x,1/2+y,1/2+z
1/2+x,1/2-y,1/2+z
loop_
_atom_site_type_symbol
_atom_site_label
_atom_site_fract_x
_atom_site_fract_y
_atom_site_fract_z
Si Si1 0.419086 0.258731 0.934717
Si Si2 0.167947 0.070602 0.651113
Si Si3 0.565129 0.361412 0.465456
Si Si4 0.259658 0.816004 0.791395
Si Si5 0.211386 0.577709 0.396263
Si Si6 0.814751 0.652463 0.968324
Si Si7 0.166630 0.571175 0.191501
O O1 0.377543 0.218011 0.842514
O O2 0.538999 0.316663 0.927287
O O3 0.483426 0.205772 0.005726
O O4 0.276344 0.290152 0.979302
O O5 0.249113 0.127742 0.712329
O O6 0.156879 0.097421 0.547150
O O7 0.004903 0.062144 0.686101
O O8 0.250000 0.000000 0.655813
O O9 0.654221 0.349630 0.373713
O O10 0.441479 0.414648 0.444997
O O11 0.670655 0.382872 0.546024
O O12 0.337500 0.750000 0.750000
O O13 0.250000 0.500000 0.394002
O O14 0.201679 0.601156 0.291378
O O15 0.720202 0.619790 0.888659
O O16 0.250000 0.500000 0.181910
#
# Coordination Sequence:
#
# PCOD9413579 Si02
#       7
#     8   8   8   8   8   8   8
#     4  12  24  44  73 103 142 188 245 302 368 438
#     4  12  27  47  76 107 151 201 241 307 376 448
#     4  12  23  45  68  98 137 184 237 301 363 431
#     4  12  25  44  72 103 145 186 244 291 366 442
#     4  11  25  45  69  99 138 186 238 301 365 442
#     4  12  25  47  74 105 147 191 243 306 371 436
#     4  11  27  47  70 108 146 187 246 302 371 442
#
# _framework density 20.712584
#
# number of rings (size 3 to 8) (size 9 to 14) (size 15 to 20)
#    0.000    0.286    7.143    0.857    2.000    5.143 
#    0.000    1.429    0.000    0.000    0.000    0.000 
#    0.000    0.000    0.000    0.000    0.000    0.000 
#
# Total GULP energy -313114.437340 kJ/mol
# GULP energy per Si atom -5591.329238 kJ/mol
# Density = 2.066544 g / cm^3
# Si number density = 20.712584 Si / 1000 Ang^3
#
#
#
# Elastic Constant Matrix: (Units=GPa)
#
#
# Indices 1 2 3 4 5 6 
#
# 1 108.9860 48.3086 57.8489 0.0000 0.0000 0.0000
# 2 48.3086 96.2556 41.8042 0.0000 0.0000 0.0000
# 3 57.8489 41.8042 128.3357 0.0000 0.0000 0.0000
# 4 0.0000 0.0000 0.0000 60.2065 0.0000 0.0000
# 5 0.0000 0.0000 0.0000 0.0000 19.1728 0.0000
# 6 0.0000 0.0000 0.0000 0.0000 0.0000 42.6639
#
#
#
# Elastic Compliance Matrix: (Units=1/GPa)
#
#
# Indices 1 2 3 4 5 6 
#
# 1 0.013811 -0.004924 -0.004622 0.000000 0.000000 0.000000
# 2 -0.004924 0.013857 -0.002294 0.000000 0.000000 0.000000
# 3 -0.004622 -0.002294 0.010623 0.000000 0.000000 0.000000
# 4 0.000000 0.000000 0.000000 0.016610 0.000000 0.000000
# 5 0.000000 0.000000 0.000000 0.000000 0.052157 0.000000
# 6 0.000000 0.000000 0.000000 0.000000 0.000000 0.023439
#
#
# Mechanical properties :
#
#
# Convention : Reuss Voigt Hill
#
# Bulk Modulus (GPa) = 68.44288 69.94451 69.19370
# Shear Modulus (GPa) = 31.43731 36.78299 34.11015
#
# Velocity S-wave (km/s) = 3.90011 4.21869 4.06252
# Velocity P-wave (km/s) = 7.30732 7.58763 7.44880
#
# Compressibility (1/GPa) = 0.01461072
#
# Stress axis : x y z
#
# Youngs Moduli (GPa) = 72.40410 72.16692 94.13961
#
# Poissons Ratio (x) = 0.35538 0.43507
# Poissons Ratio (y) = 0.35655 0.21595
# Poissons Ratio (z) = 0.33462 0.16555
#
# Static dielectric constant tensor:
#      x y z
#    x 1.731440 0.000000 0.000000 
#    y 0.000000 1.747510 0.000000 
#    z 0.000000 0.000000 1.737110 
# 
# From -- ./inp_files/24979.got.cif
#   From: 2010.05.17/outbox.cif.g08.bks.cpg/sg52_13_cif.got.tgz:24979.got - 2010.06.03 12:15:38.
