data_PCOD9413053
_publ_section_title
;
Structure prediction by ZEFSAII (Michael W. Deem and Ramdas Pophale) SiO2 
 PCOD9413053
Probable space group: P N N A
;
_chemical_formula_sum "Si O2"
_cell_formula_units_Z 24
_cell_length_a 8.678698
_cell_length_b 8.513629
_cell_length_c 13.152854
_cell_angle_alpha 90.000000
_cell_angle_beta 90.000000
_cell_angle_gamma 90.000000
_cell_volume 971.827751
_symmetry_space_group_name_H-M "P N N A"
_symmetry_group_IT_number 52
_symmetry_cell_setting 'orthorhombic'
loop_
_space_group_symop_operation_xyz
x,y,z
1/2-x,-y,z
x,1/2-y,1/2-z
1/2-x,1/2+y,1/2-z
-x,-y,-z
1/2+x,y,-z
-x,1/2+y,1/2+z
1/2+x,1/2-y,1/2+z
loop_
_atom_site_type_symbol
_atom_site_label
_atom_site_fract_x
_atom_site_fract_y
_atom_site_fract_z
Si Si1 0.919594 0.925865 0.289244
Si Si2 0.968402 0.376661 0.408539
Si Si3 0.817622 0.663834 0.012521
O O1 0.920954 0.750000 0.250000
O O2 0.951720 0.888091 0.407318
O O3 0.750000 0.000000 0.299786
O O4 0.983160 0.036958 0.199856
O O5 0.806463 0.283861 0.432308
O O6 0.000000 0.500000 0.500000
O O7 0.103641 0.251712 0.419902
O O8 0.750000 0.500000 0.978821
#
# Coordination Sequence:
#
# PCOD9413053 Si02
#       3
#     8   8   8
#     4  11  20  39  65  99 138 189 246 290 348 440
#     4  12  22  41  70 105 143 192 242 303 362 432
#     4  11  25  42  69 107 146 193 248 298 360 438
#
# _framework density 24.695733000000001
#
# number of rings (size 3 to 8) (size 9 to 14) (size 15 to 20)
#    0.000    0.667    6.667    2.000    0.000    0.000 
#    0.000    0.000    0.000   44.000    0.000    0.000 
#    0.000    0.000    0.000    0.000    0.000    0.000 
#
# Total GULP energy -133853.442254 kJ/mol
# GULP energy per Si atom -5577.226761 kJ/mol
# Density = 2.463952 g / cm^3
# Si number density = 24.695733 Si / 1000 Ang^3
#
#
#
# Elastic Constant Matrix: (Units=GPa)
#
#
# Indices 1 2 3 4 5 6 
#
# 1 56.0945 58.8318 30.8424 0.0000 0.0000 0.0000
# 2 58.8318 183.7779 89.3808 0.0000 0.0000 0.0000
# 3 30.8424 89.3808 108.5669 0.0000 0.0000 0.0000
# 4 0.0000 0.0000 0.0000 3.3688 0.0000 0.0000
# 5 0.0000 0.0000 0.0000 0.0000 29.1259 0.0000
# 6 0.0000 0.0000 0.0000 0.0000 0.0000 34.9090
#
#
#
# Elastic Compliance Matrix: (Units=1/GPa)
#
#
# Indices 1 2 3 4 5 6 
#
# 1 0.026893 -0.008161 -0.000921 0.000000 0.000000 0.000000
# 2 -0.008161 0.011552 -0.007192 0.000000 0.000000 0.000000
# 3 -0.000921 -0.007192 0.015393 0.000000 0.000000 0.000000
# 4 0.000000 0.000000 0.000000 0.296839 0.000000 0.000000
# 5 0.000000 0.000000 0.000000 0.000000 0.034334 0.000000
# 6 0.000000 0.000000 0.000000 0.000000 0.000000 0.028646
#
#
# Mechanical properties :
#
#
# Convention : Reuss Voigt Hill
#
# Bulk Modulus (GPa) = 46.97027 78.50547 62.73787
# Shear Modulus (GPa) = 11.03021 24.77303 17.90162
#
# Velocity S-wave (km/s) = 2.11569 3.17066 2.69529
# Velocity P-wave (km/s) = 5.00291 6.72772 5.92838
#
# Compressibility (1/GPa) = 0.02129006
#
# Stress axis : x y z
#
# Youngs Moduli (GPa) = 37.18469 86.56770 64.96290
#
# Poissons Ratio (x) = 0.70649 0.05983
# Poissons Ratio (y) = 0.30347 0.46720
# Poissons Ratio (z) = 0.03425 0.62258
#
# Static dielectric constant tensor:
#      x y z
#    x 2.013640 0.000000 0.000000 
#    y 0.000000 4.036980 0.000000 
#    z 0.000000 0.000000 2.051370 
# 
# From -- ./inp_files/23917.got.cif
#   From: 2010.05.17/outbox.cif.g08.bks.cpg/sg52_12_cif.got.tgz:23917.got - 2010.06.03 12:15:38.
