data_PCOD9413395
_publ_section_title
;
Structure prediction by ZEFSAII (Michael W. Deem and Ramdas Pophale) SiO2 
 PCOD9413395
Probable space group: P N N A
;
_chemical_formula_sum "Si O2"
_cell_formula_units_Z 40
_cell_length_a 10.221616
_cell_length_b 21.403197
_cell_length_c 8.429410
_cell_angle_alpha 90.000000
_cell_angle_beta 90.000000
_cell_angle_gamma 90.000000
_cell_volume 1844.146372
_symmetry_space_group_name_H-M "P N N A"
_symmetry_group_IT_number 52
_symmetry_cell_setting 'orthorhombic'
loop_
_space_group_symop_operation_xyz
x,y,z
1/2-x,-y,z
x,1/2-y,1/2-z
1/2-x,1/2+y,1/2-z
-x,-y,-z
1/2+x,y,-z
-x,1/2+y,1/2+z
1/2+x,1/2-y,1/2+z
loop_
_atom_site_type_symbol
_atom_site_label
_atom_site_fract_x
_atom_site_fract_y
_atom_site_fract_z
Si Si1 0.883828 0.683944 0.985950
Si Si2 0.867030 0.245775 0.931747
Si Si3 0.480924 0.145273 0.822338
Si Si4 0.262129 0.928289 0.661848
Si Si5 0.126925 0.457345 0.501512
O O1 0.759911 0.727699 0.021154
O O2 0.942955 0.684531 0.809459
O O3 0.833316 0.615684 0.035805
O O4 0.009274 0.707814 0.079761
O O5 0.820925 0.250000 0.750000
O O6 0.916139 0.185670 0.033976
O O7 0.371765 0.104117 0.727224
O O8 0.592060 0.100813 0.893842
O O9 0.347414 0.933826 0.821182
O O10 0.250000 0.000000 0.604407
O O11 0.250000 0.500000 0.453702
O O12 0.000000 0.500000 0.500000
#
# Coordination Sequence:
#
# PCOD9413395 Si02
#       5
#     8   8   8   8   8
#     4  12  28  47  72 108 143 199 244 308 381 449
#     4  12  28  46  74 106 146 193 251 305 383 447
#     4  12  26  49  73 108 157 189 255 317 373 458
#     4  11  25  48  73 107 152 193 249 312 376 441
#     4  11  23  44  75 108 144 199 254 304 378 445
#
# _framework density 21.690253999999999
#
# number of rings (size 3 to 8) (size 9 to 14) (size 15 to 20)
#    0.000    0.400    6.000    3.000    8.400    3.200 
#    0.000    0.000    0.000    0.000    0.000    0.000 
#    0.000    0.000    0.000    0.000    0.000    0.000 
#
# Total GULP energy -223285.315076 kJ/mol
# GULP energy per Si atom -5582.132877 kJ/mol
# Density = 2.164089 g / cm^3
# Si number density = 21.690254 Si / 1000 Ang^3
#
#
#
# Elastic Constant Matrix: (Units=GPa)
#
#
# Indices 1 2 3 4 5 6 
#
# 1 144.8335 40.2192 21.8222 0.0000 0.0000 0.0000
# 2 40.2192 98.9311 33.4610 0.0000 0.0000 0.0000
# 3 21.8222 33.4610 44.4110 0.0000 0.0000 0.0000
# 4 0.0000 0.0000 0.0000 39.9793 0.0000 0.0000
# 5 0.0000 0.0000 0.0000 0.0000 28.0540 0.0000
# 6 0.0000 0.0000 0.0000 0.0000 0.0000 48.3955
#
#
#
# Elastic Compliance Matrix: (Units=1/GPa)
#
#
# Indices 1 2 3 4 5 6 
#
# 1 0.007909 -0.002551 -0.001964 0.000000 0.000000 0.000000
# 2 -0.002551 0.014388 -0.009587 0.000000 0.000000 0.000000
# 3 -0.001964 -0.009587 0.030705 0.000000 0.000000 0.000000
# 4 0.000000 0.000000 0.000000 0.025013 0.000000 0.000000
# 5 0.000000 0.000000 0.000000 0.000000 0.035646 0.000000
# 6 0.000000 0.000000 0.000000 0.000000 0.000000 0.020663
#
#
# Mechanical properties :
#
#
# Convention : Reuss Voigt Hill
#
# Bulk Modulus (GPa) = 40.32609 53.24226 46.78418
# Shear Modulus (GPa) = 29.27529 36.13063 32.70296
#
# Velocity S-wave (km/s) = 3.67781 4.08579 3.88716
# Velocity P-wave (km/s) = 6.05535 6.84530 6.46241
#
# Compressibility (1/GPa) = 0.02479784
#
# Stress axis : x y z
#
# Youngs Moduli (GPa) = 126.44163 69.50464 32.56791
#
# Poissons Ratio (x) = 0.17730 0.06397
# Poissons Ratio (y) = 0.32254 0.31222
# Poissons Ratio (z) = 0.24836 0.66632
#
# Static dielectric constant tensor:
#      x y z
#    x 1.797760 0.000000 0.000000 
#    y 0.000000 1.870760 0.000000 
#    z 0.000000 0.000000 2.180350 
# 
# From -- ./inp_files/7444.got.cif
#   From: 2010.05.17/outbox.cif.g08.bks.cpg/sg52_4_cif.got.tgz:7444.got - 2010.06.03 12:15:38.
