data_PCOD9413118
_publ_section_title
;
Structure prediction by ZEFSAII (Michael W. Deem and Ramdas Pophale) SiO2 
 PCOD9413118
Probable space group: P N N A
;
_chemical_formula_sum "Si O2"
_cell_formula_units_Z 48
_cell_length_a 5.843268
_cell_length_b 17.568771
_cell_length_c 22.764807
_cell_angle_alpha 90.000000
_cell_angle_beta 90.000000
_cell_angle_gamma 90.000000
_cell_volume 2337.013173
_symmetry_space_group_name_H-M "P N N A"
_symmetry_group_IT_number 52
_symmetry_cell_setting 'orthorhombic'
loop_
_space_group_symop_operation_xyz
x,y,z
1/2-x,-y,z
x,1/2-y,1/2-z
1/2-x,1/2+y,1/2-z
-x,-y,-z
1/2+x,y,-z
-x,1/2+y,1/2+z
1/2+x,1/2-y,1/2+z
loop_
_atom_site_type_symbol
_atom_site_label
_atom_site_fract_x
_atom_site_fract_y
_atom_site_fract_z
Si Si1 0.078022 0.899600 0.162828
Si Si2 0.900827 0.217524 0.526609
Si Si3 0.929542 0.880489 0.745480
Si Si4 0.778814 0.250000 0.250000
Si Si5 0.911460 0.285813 0.836653
Si Si6 0.750000 0.000000 0.239675
Si Si7 0.107527 0.597354 0.473496
O O1 0.291724 0.920289 0.202762
O O2 0.089050 0.806955 0.166312
O O3 0.089038 0.921882 0.095295
O O4 0.870483 0.939192 0.196648
O O5 0.647383 0.193354 0.502103
O O6 0.914522 0.195400 0.595172
O O7 0.895042 0.309973 0.521775
O O8 0.779759 0.834649 0.697755
O O9 0.065051 0.813314 0.778698
O O10 0.081909 0.948895 0.721244
O O11 0.637100 0.297522 0.202533
O O12 0.362922 0.573765 0.496645
#
# Coordination Sequence:
#
# PCOD9413118 Si02
#       7
#     8   8   8   4   8   4   8
#     4  11  22  39  62  89 128 171 216 277 331 390
#     4   9  20  35  57  92 130 165 212 279 329 382
#     4  12  23  40  62  93 129 169 218 274 334 399
#     4  12  20  36  64  96 124 170 216 276 322 398
#     4  11  21  38  63  97 125 172 223 266 333 397
#     4  12  26  40  62  92 136 168 214 276 348 382
#     4   9  20  36  58  86 120 170 228 274 319 378
#
# _framework density 20.539038999999999
#
# number of rings (size 3 to 8) (size 9 to 14) (size 15 to 20)
#    0.000    1.333    5.000    0.500    4.667    1.333 
#    0.000    0.833    0.000    0.000    0.000    1.167 
#    0.000    0.000    0.000    0.000    0.000    0.167 
#
# Total GULP energy -267233.524434 kJ/mol
# GULP energy per Si atom -5567.365092 kJ/mol
# Density = 2.049229 g / cm^3
# Si number density = 20.539039 Si / 1000 Ang^3
#
#
#
# Elastic Constant Matrix: (Units=GPa)
#
#
# Indices 1 2 3 4 5 6 
#
# 1 145.1594 45.6468 73.7020 0.0000 0.0000 0.0000
# 2 45.6468 77.8647 32.9938 0.0000 0.0000 0.0000
# 3 73.7020 32.9938 121.2811 0.0000 0.0000 0.0000
# 4 0.0000 0.0000 0.0000 -1.1082 0.0000 0.0000
# 5 0.0000 0.0000 0.0000 0.0000 120.9536 0.0000
# 6 0.0000 0.0000 0.0000 0.0000 0.0000 45.7800
#
#
#
# Elastic Compliance Matrix: (Units=1/GPa)
#
#
# Indices 1 2 3 4 5 6 
#
# 1 0.011006 -0.004089 -0.005576 0.000000 0.000000 0.000000
# 2 -0.004089 0.016036 -0.001877 0.000000 0.000000 0.000000
# 3 -0.005576 -0.001877 0.012144 0.000000 0.000000 0.000000
# 4 0.000000 0.000000 0.000000 -0.902334 0.000000 0.000000
# 5 0.000000 0.000000 0.000000 0.000000 0.008268 0.000000
# 6 0.000000 0.000000 0.000000 0.000000 0.000000 0.021844
#
#
# Mechanical properties :
#
#
# Convention : Reuss Voigt Hill
#
# Bulk Modulus (GPa) = 62.10787 72.11005 67.10896
# Shear Modulus (GPa) = -6.21438 45.92257 19.85409
#
# Velocity S-wave (km/s) = -1.74133 4.73363 3.11247
# Velocity P-wave (km/s) = 5.12461 8.06606 6.75733
#
# Compressibility (1/GPa) = 0.01610102
#
# Stress axis : x y z
#
# Youngs Moduli (GPa) = 90.86028 62.36130 82.34266
#
# Poissons Ratio (x) = 0.25502 0.45912
# Poissons Ratio (y) = 0.37156 0.15458
# Poissons Ratio (z) = 0.50661 0.11707
#
# Static dielectric constant tensor:
#      x y z
#    x 1.906310 0.000000 0.000000 
#    y 0.000000 1.764250 0.000000 
#    z 0.000000 0.000000 1.678200 
# 
# From -- ./inp_files/35152.got.cif
#   From: 2010.05.17/outbox.cif.g08.bks.cpg/sg52_18_cif.got.tgz:35152.got - 2010.06.03 12:15:38.
