data_PCOD9413791
_publ_section_title
;
Structure prediction by ZEFSAII (Michael W. Deem and Ramdas Pophale) SiO2 
 PCOD9413791
Probable space group: P N N A
;
_chemical_formula_sum "Si O2"
_cell_formula_units_Z 48
_cell_length_a 15.189789
_cell_length_b 15.796732
_cell_length_c 9.484743
_cell_angle_alpha 90.000000
_cell_angle_beta 90.000000
_cell_angle_gamma 90.000000
_cell_volume 2275.854844
_symmetry_space_group_name_H-M "P N N A"
_symmetry_group_IT_number 52
_symmetry_cell_setting 'orthorhombic'
loop_
_space_group_symop_operation_xyz
x,y,z
1/2-x,-y,z
x,1/2-y,1/2-z
1/2-x,1/2+y,1/2-z
-x,-y,-z
1/2+x,y,-z
-x,1/2+y,1/2+z
1/2+x,1/2-y,1/2+z
loop_
_atom_site_type_symbol
_atom_site_label
_atom_site_fract_x
_atom_site_fract_y
_atom_site_fract_z
Si Si1 0.042015 0.663823 0.997893
Si Si2 0.073136 0.534478 0.744626
Si Si3 0.352554 0.898851 0.533606
Si Si4 0.790699 0.257338 0.082058
Si Si5 0.386082 0.031155 0.283773
Si Si6 0.302259 0.081522 0.999381
O O1 0.060294 0.607318 0.860369
O O2 0.109574 0.740195 0.978801
O O3 0.080251 0.609793 0.125878
O O4 0.936944 0.664349 0.017808
O O5 0.126241 0.459887 0.830940
O O6 0.116707 0.575064 0.608441
O O7 0.974878 0.503755 0.712087
O O8 0.265576 0.841442 0.545826
O O9 0.351798 0.960917 0.396553
O O10 0.792115 0.250000 0.250000
O O11 0.752367 0.169966 0.021381
O O12 0.324116 0.064421 0.161553
O O13 0.250000 0.000000 0.949802
#
# Coordination Sequence:
#
# PCOD9413791 Si02
#       6
#     8   8   8   8   8   8
#     4   9  20  42  69  95 123 168 216 268 325 387
#     4   9  18  41  69  92 123 170 219 264 313 397
#     4   9  21  43  71  95 124 171 223 261 327 388
#     4  12  24  42  67  97 134 173 219 275 324 388
#     4   9  21  41  67  93 127 172 211 263 331 385
#     4  12  25  39  59  97 132 168 218 261 329 385
#
# _framework density 21.090973999999999
#
# number of rings (size 3 to 8) (size 9 to 14) (size 15 to 20)
#    0.000    2.000    1.667    3.500    2.333    2.000 
#   12.000    0.000    0.000    0.000    0.000    0.000 
#    0.000    0.000    0.000    0.000    0.000    0.000 
#
# Total GULP energy -267692.786669 kJ/mol
# GULP energy per Si atom -5576.933056 kJ/mol
# Density = 2.104297 g / cm^3
# Si number density = 21.090974 Si / 1000 Ang^3
#
#
#
# Elastic Constant Matrix: (Units=GPa)
#
#
# Indices 1 2 3 4 5 6 
#
# 1 55.8376 10.8962 15.8165 0.0000 0.0000 0.0000
# 2 10.8962 69.2747 -1.9020 0.0000 0.0000 0.0000
# 3 15.8165 -1.9020 71.9969 0.0000 0.0000 0.0000
# 4 0.0000 0.0000 0.0000 1.0065 0.0000 0.0000
# 5 0.0000 0.0000 0.0000 0.0000 11.3215 0.0000
# 6 0.0000 0.0000 0.0000 0.0000 0.0000 23.8017
#
#
#
# Elastic Compliance Matrix: (Units=1/GPa)
#
#
# Indices 1 2 3 4 5 6 
#
# 1 0.019797 -0.003236 -0.004434 0.000000 0.000000 0.000000
# 2 -0.003236 0.014975 0.001106 0.000000 0.000000 0.000000
# 3 -0.004434 0.001106 0.014893 0.000000 0.000000 0.000000
# 4 0.000000 0.000000 0.000000 0.993569 0.000000 0.000000
# 5 0.000000 0.000000 0.000000 0.000000 0.088327 0.000000
# 6 0.000000 0.000000 0.000000 0.000000 0.000000 0.042014
#
#
# Mechanical properties :
#
#
# Convention : Reuss Voigt Hill
#
# Bulk Modulus (GPa) = 27.36964 27.41450 27.39207
# Shear Modulus (GPa) = 4.17056 18.71250 11.44153
#
# Velocity S-wave (km/s) = 1.40773 2.98187 2.33166
# Velocity P-wave (km/s) = 3.95568 4.98817 4.50162
#
# Compressibility (1/GPa) = 0.03653683
#
# Stress axis : x y z
#
# Youngs Moduli (GPa) = 50.51386 66.77980 67.14613
#
# Poissons Ratio (x) = 0.21607 0.29776
# Poissons Ratio (y) = 0.16344 -0.07429
# Poissons Ratio (z) = 0.22400 -0.07388
#
# Static dielectric constant tensor:
#      x y z
#    x 1.912580 0.000000 0.000000 
#    y 0.000000 1.265120 0.000000 
#    z 0.000000 0.000000 1.725690 
# 
# From -- ./inp_files/12095.got.cif
#   From: 2010.05.17/outbox.cif.g08.bks.cpg/sg52_7_cif.got.tgz:12095.got - 2010.06.03 12:15:38.
