data_PCOD9413826
_publ_section_title
;
Structure prediction by ZEFSAII (Michael W. Deem and Ramdas Pophale) SiO2 
 PCOD9413826
Probable space group: P N N A
;
_chemical_formula_sum "Si O2"
_cell_formula_units_Z 28
_cell_length_a 23.020323
_cell_length_b 10.754919
_cell_length_c 4.910824
_cell_angle_alpha 90.000000
_cell_angle_beta 90.000000
_cell_angle_gamma 90.000000
_cell_volume 1215.830200
_symmetry_space_group_name_H-M "P N N A"
_symmetry_group_IT_number 52
_symmetry_cell_setting 'orthorhombic'
loop_
_space_group_symop_operation_xyz
x,y,z
1/2-x,-y,z
x,1/2-y,1/2-z
1/2-x,1/2+y,1/2-z
-x,-y,-z
1/2+x,y,-z
-x,1/2+y,1/2+z
1/2+x,1/2-y,1/2+z
loop_
_atom_site_type_symbol
_atom_site_label
_atom_site_fract_x
_atom_site_fract_y
_atom_site_fract_z
Si Si1 0.115869 0.250000 0.250000
Si Si2 0.698307 0.250000 0.250000
Si Si3 0.130707 0.615307 0.901657
Si Si4 0.934362 0.492521 0.604782
Si Si5 0.250000 0.000000 0.646279
O O1 0.157848 0.223529 0.498445
O O2 0.078011 0.370894 0.286905
O O3 0.732611 0.123334 0.187854
O O4 0.136707 0.750000 0.750000
O O5 0.106033 0.532154 0.656135
O O6 0.192330 0.555926 0.000793
O O7 0.085622 0.602673 0.154577
O O8 0.000000 0.500000 0.500000
#
# Coordination Sequence:
#
# PCOD9413826 Si02
#       5
#     4   4   8   8   4
#     4  12  24  48  73 108 145 204 256 302 380 458
#     4  12  26  44  75 108 161 198 254 308 382 470
#     4  12  27  48  74 114 153 199 252 317 384 451
#     4  12  27  49  76 105 151 202 258 316 377 454
#     4  12  24  48  74 114 154 204 244 318 378 464
#
# _framework density 23.029529
#
# number of rings (size 3 to 8) (size 9 to 14) (size 15 to 20)
#    0.000    0.000    7.143    1.714    2.000    4.571 
#    5.143    0.000    0.000    0.000    0.000    0.000 
#    0.000    0.000    0.000    0.000    0.000    0.000 
#
# Total GULP energy -156405.696791 kJ/mol
# GULP energy per Si atom -5585.917743 kJ/mol
# Density = 2.297711 g / cm^3
# Si number density = 23.029529 Si / 1000 Ang^3
#
#
#
# Elastic Constant Matrix: (Units=GPa)
#
#
# Indices 1 2 3 4 5 6 
#
# 1 146.2207 74.2301 48.6243 0.0000 0.0000 0.0000
# 2 74.2301 187.2639 29.4019 0.0000 0.0000 0.0000
# 3 48.6243 29.4019 129.0531 0.0000 0.0000 0.0000
# 4 0.0000 0.0000 0.0000 34.2812 0.0000 0.0000
# 5 0.0000 0.0000 0.0000 0.0000 54.6628 0.0000
# 6 0.0000 0.0000 0.0000 0.0000 0.0000 40.7896
#
#
#
# Elastic Compliance Matrix: (Units=1/GPa)
#
#
# Indices 1 2 3 4 5 6 
#
# 1 0.009451 -0.003305 -0.002808 0.000000 0.000000 0.000000
# 2 -0.003305 0.006694 -0.000280 0.000000 0.000000 0.000000
# 3 -0.002808 -0.000280 0.008870 0.000000 0.000000 0.000000
# 4 0.000000 0.000000 0.000000 0.029171 0.000000 0.000000
# 5 0.000000 0.000000 0.000000 0.000000 0.018294 0.000000
# 6 0.000000 0.000000 0.000000 0.000000 0.000000 0.024516
#
#
# Mechanical properties :
#
#
# Convention : Reuss Voigt Hill
#
# Bulk Modulus (GPa) = 81.76908 85.22782 83.49845
# Shear Modulus (GPa) = 43.91438 46.63214 45.27326
#
# Velocity S-wave (km/s) = 4.37151 4.50475 4.43863
# Velocity P-wave (km/s) = 7.81431 8.00909 7.91230
#
# Compressibility (1/GPa) = 0.01222956
#
# Stress axis : x y z
#
# Youngs Moduli (GPa) = 105.81296 149.38326 112.73479
#
# Poissons Ratio (x) = 0.49376 0.31653
# Poissons Ratio (y) = 0.34975 0.03154
# Poissons Ratio (z) = 0.29710 0.04179
#
# Static dielectric constant tensor:
#      x y z
#    x 1.911190 0.000000 0.000000 
#    y 0.000000 1.906160 0.000000 
#    z 0.000000 0.000000 1.843870 
# 
# From -- ./inp_files/3842.got.cif
#   From: 2010.05.17/outbox.cif.g08.bks.cpg/sg52_2_cif.got.tgz:3842.got - 2010.06.03 12:15:38.
