data_PCOD9413299
_publ_section_title
;
Structure prediction by ZEFSAII (Michael W. Deem and Ramdas Pophale) SiO2 
 PCOD9413299
Probable space group: P N N A
;
_chemical_formula_sum "Si O2"
_cell_formula_units_Z 24
_cell_length_a 14.808643
_cell_length_b 11.384334
_cell_length_c 5.870533
_cell_angle_alpha 90.000000
_cell_angle_beta 90.000000
_cell_angle_gamma 90.000000
_cell_volume 989.692835
_symmetry_space_group_name_H-M "P N N A"
_symmetry_group_IT_number 52
_symmetry_cell_setting 'orthorhombic'
loop_
_space_group_symop_operation_xyz
x,y,z
1/2-x,-y,z
x,1/2-y,1/2-z
1/2-x,1/2+y,1/2-z
-x,-y,-z
1/2+x,y,-z
-x,1/2+y,1/2+z
1/2+x,1/2-y,1/2+z
loop_
_atom_site_type_symbol
_atom_site_label
_atom_site_fract_x
_atom_site_fract_y
_atom_site_fract_z
Si Si1 0.075522 0.468069 0.313472
Si Si2 0.179769 0.750000 0.750000
Si Si3 0.750000 0.500000 0.384219
Si Si4 0.977630 0.186149 0.537025
O O1 0.167649 0.463366 0.451014
O O2 0.071868 0.571002 0.130069
O O3 0.000000 0.500000 0.500000
O O4 0.043733 0.357964 0.161193
O O5 0.229047 0.622561 0.752960
O O6 0.107444 0.737223 0.544737
O O7 0.024788 0.250000 0.750000
#
# Coordination Sequence:
#
# PCOD9413299 Si02
#       4
#     8   4   4   8
#     4  11  24  48  79 114 160 224 270 333 429 498
#     4  12  26  52  80 118 170 210 282 344 416 504
#     4  12  26  52  82 120 164 224 278 344 412 522
#     4  11  22  48  79 110 163 217 270 353 412 503
#
# _framework density 24.249946999999999
#
# number of rings (size 3 to 8) (size 9 to 14) (size 15 to 20)
#    0.000    0.667    6.667    0.000    0.000    1.333 
#    9.000    6.667    0.000    0.000    0.000    0.000 
#    0.000    0.000    0.000    0.000    0.000    0.000 
#
# Total GULP energy -134001.308945 kJ/mol
# GULP energy per Si atom -5583.387873 kJ/mol
# Density = 2.419475 g / cm^3
# Si number density = 24.249947 Si / 1000 Ang^3
#
#
#
# Elastic Constant Matrix: (Units=GPa)
#
#
# Indices 1 2 3 4 5 6 
#
# 1 140.0413 37.7293 59.7836 0.0000 0.0000 0.0000
# 2 37.7293 184.7641 49.1323 0.0000 0.0000 0.0000
# 3 59.7836 49.1323 109.9369 0.0000 0.0000 0.0000
# 4 0.0000 0.0000 0.0000 73.3580 0.0000 0.0000
# 5 0.0000 0.0000 0.0000 0.0000 41.3994 0.0000
# 6 0.0000 0.0000 0.0000 0.0000 0.0000 37.9824
#
#
#
# Elastic Compliance Matrix: (Units=1/GPa)
#
#
# Indices 1 2 3 4 5 6 
#
# 1 0.009364 -0.000633 -0.004809 0.000000 0.000000 0.000000
# 2 -0.000633 0.006185 -0.002420 0.000000 0.000000 0.000000
# 3 -0.004809 -0.002420 0.012793 0.000000 0.000000 0.000000
# 4 0.000000 0.000000 0.000000 0.013632 0.000000 0.000000
# 5 0.000000 0.000000 0.000000 0.000000 0.024155 0.000000
# 6 0.000000 0.000000 0.000000 0.000000 0.000000 0.026328
#
#
# Mechanical properties :
#
#
# Convention : Reuss Voigt Hill
#
# Bulk Modulus (GPa) = 79.25503 80.89252 80.07378
# Shear Modulus (GPa) = 44.48872 49.75443 47.12158
#
# Velocity S-wave (km/s) = 4.28786 4.53452 4.41291
# Velocity P-wave (km/s) = 7.56755 7.80039 7.68485
#
# Compressibility (1/GPa) = 0.01261750
#
# Stress axis : x y z
#
# Youngs Moduli (GPa) = 106.78632 161.67868 78.16844
#
# Poissons Ratio (x) = 0.10240 0.37594
# Poissons Ratio (y) = 0.06763 0.18915
# Poissons Ratio (z) = 0.51357 0.39123
#
# Static dielectric constant tensor:
#      x y z
#    x 1.872190 0.000000 0.000000 
#    y 0.000000 2.269410 0.000000 
#    z 0.000000 0.000000 2.020880 
# 
# From -- ./inp_files/2854.got.cif
#   From: 2010.05.17/outbox.cif.g08.bks.cpg/sg52_2_cif.got.tgz:2854.got - 2010.06.03 12:15:38.
