data_PCOD9413704
_publ_section_title
;
Structure prediction by ZEFSAII (Michael W. Deem and Ramdas Pophale) SiO2 
 PCOD9413704
Probable space group: P N N A
;
_chemical_formula_sum "Si O2"
_cell_formula_units_Z 48
_cell_length_a 9.202938
_cell_length_b 11.740823
_cell_length_c 19.986236
_cell_angle_alpha 90.000000
_cell_angle_beta 90.000000
_cell_angle_gamma 90.000000
_cell_volume 2159.514122
_symmetry_space_group_name_H-M "P N N A"
_symmetry_group_IT_number 52
_symmetry_cell_setting 'orthorhombic'
loop_
_space_group_symop_operation_xyz
x,y,z
1/2-x,-y,z
x,1/2-y,1/2-z
1/2-x,1/2+y,1/2-z
-x,-y,-z
1/2+x,y,-z
-x,1/2+y,1/2+z
1/2+x,1/2-y,1/2+z
loop_
_atom_site_type_symbol
_atom_site_label
_atom_site_fract_x
_atom_site_fract_y
_atom_site_fract_z
Si Si1 0.549287 0.328729 0.118649
Si Si2 0.039506 0.249973 0.397091
Si Si3 0.750000 0.500000 0.035822
Si Si4 0.700362 0.250000 0.250000
Si Si5 0.411266 0.521022 0.195719
Si Si6 0.388912 0.061528 0.811892
Si Si7 0.662252 0.782083 0.519412
O O1 0.663754 0.409414 0.080501
O O2 0.614937 0.265620 0.181619
O O3 0.433452 0.417959 0.145382
O O4 0.465569 0.244999 0.069267
O O5 0.057236 0.139946 0.346026
O O6 0.182962 0.248510 0.445834
O O7 0.003096 0.362921 0.354178
O O8 0.896796 0.250207 0.445660
O O9 0.655134 0.580532 0.989017
O O10 0.804544 0.144479 0.238633
O O11 0.250000 0.500000 0.221377
O O12 0.516341 0.493362 0.258219
O O13 0.250000 0.000000 0.847213
#
# Coordination Sequence:
#
# PCOD9413704 Si02
#       7
#     8   8   4   4   8   8   8
#     4  12  23  37  67 104 141 180 231 291 374 430
#     4  12  25  44  68 104 143 190 236 295 362 433
#     4  12  20  38  64 106 144 178 224 300 370 436
#     4  12  24  42  72  98 138 184 236 290 350 436
#     4  12  23  41  68 110 144 175 227 304 373 428
#     4  12  26  48  70  99 142 192 239 292 351 435
#     4  12  24  39  67 101 144 182 233 294 362 429
#
# _framework density 22.227222000000001
#
# number of rings (size 3 to 8) (size 9 to 14) (size 15 to 20)
#    0.000    0.000    8.333    3.500    0.000    1.333 
#    0.000    0.833    0.000    0.000    0.000    0.000 
#    0.000    0.000    0.000    0.000    0.000    0.000 
#
# Total GULP energy -267324.681032 kJ/mol
# GULP energy per Si atom -5569.264188 kJ/mol
# Density = 2.217663 g / cm^3
# Si number density = 22.227222 Si / 1000 Ang^3
#
#
#
# Elastic Constant Matrix: (Units=GPa)
#
#
# Indices 1 2 3 4 5 6 
#
# 1 94.8057 10.2743 23.9437 0.0000 0.0000 0.0000
# 2 10.2743 20.0698 7.5770 0.0000 0.0000 0.0000
# 3 23.9437 7.5770 86.0790 0.0000 0.0000 0.0000
# 4 0.0000 0.0000 0.0000 35.5303 0.0000 0.0000
# 5 0.0000 0.0000 0.0000 0.0000 70.2629 0.0000
# 6 0.0000 0.0000 0.0000 0.0000 0.0000 21.9408
#
#
#
# Elastic Compliance Matrix: (Units=1/GPa)
#
#
# Indices 1 2 3 4 5 6 
#
# 1 0.011805 -0.004969 -0.002846 0.000000 0.000000 0.000000
# 2 -0.004969 0.053630 -0.003339 0.000000 0.000000 0.000000
# 3 -0.002846 -0.003339 0.012703 0.000000 0.000000 0.000000
# 4 0.000000 0.000000 0.000000 0.028145 0.000000 0.000000
# 5 0.000000 0.000000 0.000000 0.000000 0.014232 0.000000
# 6 0.000000 0.000000 0.000000 0.000000 0.000000 0.045577
#
#
# Mechanical properties :
#
#
# Convention : Reuss Voigt Hill
#
# Bulk Modulus (GPa) = 17.91129 31.61606 24.76367
# Shear Modulus (GPa) = 24.15335 36.15743 30.15539
#
# Velocity S-wave (km/s) = 3.30002 4.03764 3.68732
# Velocity P-wave (km/s) = 4.75352 5.99930 5.41237
#
# Compressibility (1/GPa) = 0.05583070
#
# Stress axis : x y z
#
# Youngs Moduli (GPa) = 84.70815 18.64621 78.72239
#
# Poissons Ratio (x) = 0.09265 0.22407
# Poissons Ratio (y) = 0.42090 0.26282
# Poissons Ratio (z) = 0.24111 0.06225
#
# Static dielectric constant tensor:
#      x y z
#    x 2.037430 0.000000 0.000000 
#    y 0.000000 1.946540 0.000000 
#    z 0.000000 0.000000 1.891190 
# 
# From -- ./inp_files/31285.got.cif
#   From: 2010.05.17/outbox.cif.g08.bks.cpg/sg52_16_cif.got.tgz:31285.got - 2010.06.03 12:15:38.
