data_PCOD9413123
_publ_section_title
;
Structure prediction by ZEFSAII (Michael W. Deem and Ramdas Pophale) SiO2 
 PCOD9413123
Probable space group: P N N A
;
_chemical_formula_sum "Si O2"
_cell_formula_units_Z 44
_cell_length_a 13.690106
_cell_length_b 12.655738
_cell_length_c 13.483831
_cell_angle_alpha 90.000000
_cell_angle_beta 90.000000
_cell_angle_gamma 90.000000
_cell_volume 2336.186914
_symmetry_space_group_name_H-M "P N N A"
_symmetry_group_IT_number 52
_symmetry_cell_setting 'orthorhombic'
loop_
_space_group_symop_operation_xyz
x,y,z
1/2-x,-y,z
x,1/2-y,1/2-z
1/2-x,1/2+y,1/2-z
-x,-y,-z
1/2+x,y,-z
-x,1/2+y,1/2+z
1/2+x,1/2-y,1/2+z
loop_
_atom_site_type_symbol
_atom_site_label
_atom_site_fract_x
_atom_site_fract_y
_atom_site_fract_z
Si Si1 0.670161 0.700878 0.057237
Si Si2 0.487835 0.681041 0.342947
Si Si3 0.482526 0.399835 0.073916
Si Si4 0.250000 0.500000 0.824485
Si Si5 0.879286 0.793003 0.040732
Si Si6 0.055460 0.052154 0.785988
O O1 0.583267 0.756171 0.117972
O O2 0.705621 0.594887 0.111637
O O3 0.762940 0.778370 0.049972
O O4 0.616558 0.660169 0.957729
O O5 0.450942 0.750000 0.250000
O O6 0.409909 0.672539 0.430987
O O7 0.522017 0.563783 0.317595
O O8 0.572950 0.322153 0.053388
O O9 0.487734 0.420639 0.191225
O O10 0.500000 0.500000 0.000000
O O11 0.164063 0.454374 0.757966
O O12 0.932469 0.866924 0.122579
#
# Coordination Sequence:
#
# PCOD9413123 Si02
#       6
#     8   8   8   4   8   8
#     4  11  22  39  62  94 125 161 215 268 313 385
#     4  11  23  42  63  89 130 172 211 266 325 388
#     4  11  21  39  61  90 126 163 209 265 323 382
#     4  12  20  34  68  96 120 160 216 272 318 368
#     4  11  24  39  62  93 127 166 212 265 327 385
#     4  12  22  37  64  96 128 162 218 268 329 381
#
# _framework density 18.834108000000001
#
# number of rings (size 3 to 8) (size 9 to 14) (size 15 to 20)
#    0.000    0.727    5.455    3.273    0.000    0.000 
#    0.000    3.636    0.000    4.364    0.000    0.000 
#    0.000    0.000    0.000    0.000    0.000    0.000 
#
# Total GULP energy -245610.642005 kJ/mol
# GULP energy per Si atom -5582.060046 kJ/mol
# Density = 1.879124 g / cm^3
# Si number density = 18.834108 Si / 1000 Ang^3
#
#
#
# Elastic Constant Matrix: (Units=GPa)
#
#
# Indices 1 2 3 4 5 6 
#
# 1 26.6578 6.9890 33.3057 0.0000 0.0000 0.0000
# 2 6.9890 75.3260 50.7490 0.0000 0.0000 0.0000
# 3 33.3057 50.7490 147.0364 0.0000 0.0000 0.0000
# 4 0.0000 0.0000 0.0000 -58.8194 0.0000 0.0000
# 5 0.0000 0.0000 0.0000 0.0000 22.9680 0.0000
# 6 0.0000 0.0000 0.0000 0.0000 0.0000 18.7270
#
#
#
# Elastic Compliance Matrix: (Units=1/GPa)
#
#
# Indices 1 2 3 4 5 6 
#
# 1 0.053298 0.004155 -0.013507 0.000000 0.000000 0.000000
# 2 0.004155 0.017622 -0.007023 0.000000 0.000000 0.000000
# 3 -0.013507 -0.007023 0.012285 0.000000 0.000000 0.000000
# 4 0.000000 0.000000 0.000000 -0.017001 0.000000 0.000000
# 5 0.000000 0.000000 0.000000 0.000000 0.043539 0.000000
# 6 0.000000 0.000000 0.000000 0.000000 0.000000 0.053399
#
#
# Mechanical properties :
#
#
# Convention : Reuss Voigt Hill
#
# Bulk Modulus (GPa) = 19.81998 47.90083 33.86040
# Shear Modulus (GPa) = 23.50621 7.10688 15.30654
#
# Velocity S-wave (km/s) = 3.53663 1.94463 2.85389
# Velocity P-wave (km/s) = 5.21759 5.52543 5.37372
#
# Compressibility (1/GPa) = 0.05045415
#
# Stress axis : x y z
#
# Youngs Moduli (GPa) = 18.76231 56.74778 81.40332
#
# Poissons Ratio (x) = -0.23577 1.09949
# Poissons Ratio (y) = -0.07795 0.57171
# Poissons Ratio (z) = 0.25342 0.39855
#
# Static dielectric constant tensor:
#      x y z
#    x 1.644040 0.000000 0.000000 
#    y 0.000000 1.881820 0.000000 
#    z 0.000000 0.000000 1.705730 
# 
# From -- ./inp_files/19472.got.cif
#   From: 2010.05.17/outbox.cif.g08.bks.cpg/sg52_10_cif.got.tgz:19472.got - 2010.06.03 12:15:38.
