data_PCOD9413412
_publ_section_title
;
Structure prediction by ZEFSAII (Michael W. Deem and Ramdas Pophale) SiO2 
 PCOD9413412
Probable space group: P N N A
;
_chemical_formula_sum "Si O2"
_cell_formula_units_Z 48
_cell_length_a 24.947464
_cell_length_b 9.457572
_cell_length_c 9.761196
_cell_angle_alpha 90.000000
_cell_angle_beta 90.000000
_cell_angle_gamma 90.000000
_cell_volume 2303.080372
_symmetry_space_group_name_H-M "P N N A"
_symmetry_group_IT_number 52
_symmetry_cell_setting 'orthorhombic'
loop_
_space_group_symop_operation_xyz
x,y,z
1/2-x,-y,z
x,1/2-y,1/2-z
1/2-x,1/2+y,1/2-z
-x,-y,-z
1/2+x,y,-z
-x,1/2+y,1/2+z
1/2+x,1/2-y,1/2+z
loop_
_atom_site_type_symbol
_atom_site_label
_atom_site_fract_x
_atom_site_fract_y
_atom_site_fract_z
Si Si1 0.092172 0.750000 0.750000
Si Si2 0.368944 0.260519 0.044200
Si Si3 0.962272 0.534552 0.130373
Si Si4 0.189376 0.047345 0.382841
Si Si5 0.312497 0.983991 0.075326
Si Si6 0.536375 0.750000 0.750000
Si Si7 0.362156 0.751402 0.590907
O O1 0.127352 0.724959 0.615579
O O2 0.060132 0.609009 0.799985
O O3 0.348631 0.417041 0.074642
O O4 0.330251 0.143967 0.106114
O O5 0.426041 0.244436 0.117453
O O6 0.916859 0.652397 0.088210
O O7 0.999206 0.613711 0.240148
O O8 0.000000 0.500000 0.000000
O O9 0.181676 0.088193 0.224372
O O10 0.250000 0.000000 0.394256
O O11 0.178492 0.166998 0.492897
O O12 0.250000 0.000000 0.031276
O O13 0.353917 0.906500 0.971264
O O14 0.347131 0.750000 0.750000
#
# Coordination Sequence:
#
# PCOD9413412 Si02
#       7
#     4   8   8   8   8   4   8
#     4  12  26  46  70  95 145 184 230 294 364 412
#     4  12  24  45  69 104 138 181 233 289 352 425
#     4  12  26  47  68 103 139 186 242 295 355 424
#     4  11  23  46  73  99 140 186 235 291 344 426
#     4  11  25  45  73 106 138 187 238 287 356 427
#     4  12  24  46  72  97 137 178 232 292 344 418
#     4  12  25  45  67 106 147 180 235 300 356 427
#
# _framework density 20.841653000000001
#
# number of rings (size 3 to 8) (size 9 to 14) (size 15 to 20)
#    0.000    0.333    5.833    2.500    0.000    5.333 
#    3.000    0.000    0.000    0.000    0.000    0.000 
#    0.000    0.000    0.000    0.000    0.000    0.000 
#
# Total GULP energy -267815.197955 kJ/mol
# GULP energy per Si atom -5579.483291 kJ/mol
# Density = 2.079422 g / cm^3
# Si number density = 20.841653 Si / 1000 Ang^3
#
#
#
# Elastic Constant Matrix: (Units=GPa)
#
#
# Indices 1 2 3 4 5 6 
#
# 1 65.7715 20.2654 22.0510 0.0000 0.0000 0.0000
# 2 20.2654 99.8220 10.9105 0.0000 0.0000 0.0000
# 3 22.0510 10.9105 131.1000 0.0000 0.0000 0.0000
# 4 0.0000 0.0000 0.0000 44.9201 0.0000 0.0000
# 5 0.0000 0.0000 0.0000 0.0000 20.6177 0.0000
# 6 0.0000 0.0000 0.0000 0.0000 0.0000 -6.2293
#
#
#
# Elastic Compliance Matrix: (Units=1/GPa)
#
#
# Indices 1 2 3 4 5 6 
#
# 1 0.017057 -0.003178 -0.002604 0.000000 0.000000 0.000000
# 2 -0.003178 0.010702 -0.000356 0.000000 0.000000 0.000000
# 3 -0.002604 -0.000356 0.008095 0.000000 0.000000 0.000000
# 4 0.000000 0.000000 0.000000 0.022262 0.000000 0.000000
# 5 0.000000 0.000000 0.000000 0.000000 0.048502 0.000000
# 6 0.000000 0.000000 0.000000 0.000000 0.000000 -0.160533
#
#
# Mechanical properties :
#
#
# Convention : Reuss Voigt Hill
#
# Bulk Modulus (GPa) = 42.41458 44.79411 43.60435
# Shear Modulus (GPa) = -148.02046 28.09282 -59.96382
#
# Velocity S-wave (km/s) = -8.43657 3.67538 -5.36969
# Velocity P-wave (km/s) = 8.63167 6.28892 4.18063
#
# Compressibility (1/GPa) = 0.02357680
#
# Stress axis : x y z
#
# Youngs Moduli (GPa) = 58.62848 93.44089 123.52596
#
# Poissons Ratio (x) = 0.29696 0.32171
# Poissons Ratio (y) = 0.18633 0.04399
# Poissons Ratio (z) = 0.15269 0.03327
#
# Static dielectric constant tensor:
#      x y z
#    x 1.855710 0.000000 0.000000 
#    y 0.000000 1.675650 0.000000 
#    z 0.000000 0.000000 2.086910 
# 
# From -- ./inp_files/14339.got.cif
#   From: 2010.05.17/outbox.cif.g08.bks.cpg/sg52_8_cif.got.tgz:14339.got - 2010.06.03 12:15:38.
