data_PCOD9413069
_publ_section_title
;
Structure prediction by ZEFSAII (Michael W. Deem and Ramdas Pophale) SiO2 
 PCOD9413069
Probable space group: P N N A
;
_chemical_formula_sum "Si O2"
_cell_formula_units_Z 48
_cell_length_a 8.568704
_cell_length_b 30.883232
_cell_length_c 8.783793
_cell_angle_alpha 90.000000
_cell_angle_beta 90.000000
_cell_angle_gamma 90.000000
_cell_volume 2324.448761
_symmetry_space_group_name_H-M "P N N A"
_symmetry_group_IT_number 52
_symmetry_cell_setting 'orthorhombic'
loop_
_space_group_symop_operation_xyz
x,y,z
1/2-x,-y,z
x,1/2-y,1/2-z
1/2-x,1/2+y,1/2-z
-x,-y,-z
1/2+x,y,-z
-x,1/2+y,1/2+z
1/2+x,1/2-y,1/2+z
loop_
_atom_site_type_symbol
_atom_site_label
_atom_site_fract_x
_atom_site_fract_y
_atom_site_fract_z
Si Si1 0.008937 0.160364 0.985576
Si Si2 0.674427 0.621318 0.916294
Si Si3 0.306490 0.956622 0.227264
Si Si4 0.835164 0.887231 0.278154
Si Si5 0.124244 0.565541 0.574655
Si Si6 0.256742 0.799945 0.209831
O O1 0.131918 0.148821 0.850902
O O2 0.880598 0.190844 0.910852
O O3 0.089338 0.182236 0.128346
O O4 0.938339 0.113800 0.032526
O O5 0.781210 0.585506 0.831498
O O6 0.498928 0.609195 0.866457
O O7 0.716510 0.668310 0.849342
O O8 0.705563 0.621995 0.095164
O O9 0.481240 0.957379 0.159672
O O10 0.250000 0.000000 0.310983
O O11 0.189518 0.953014 0.082497
O O12 0.772598 0.928513 0.185517
O O13 0.267404 0.750000 0.250000
#
# Coordination Sequence:
#
# PCOD9413069 Si02
#       6
#     8   8   8   8   8   8
#     4  11  20  43  68  91 131 170 220 267 324 392
#     4  11  23  42  61  97 132 169 219 272 338 386
#     4  12  23  39  66 100 134 173 227 275 327 396
#     4  11  22  39  72  89 128 180 214 268 337 389
#     4  12  19  42  67  94 127 180 220 268 329 390
#     4  11  24  41  66  94 128 171 217 269 330 395
#
# _framework density 20.650055999999999
#
# number of rings (size 3 to 8) (size 9 to 14) (size 15 to 20)
#    0.000    0.667    8.333    1.500    0.000    2.667 
#    0.000    5.000    0.000    0.000    0.000    0.000 
#    0.000    0.000    0.000    0.000    0.000    0.000 
#
# Total GULP energy -268226.529431 kJ/mol
# GULP energy per Si atom -5588.052696 kJ/mol
# Density = 2.060306 g / cm^3
# Si number density = 20.650056 Si / 1000 Ang^3
#
#
#
# Elastic Constant Matrix: (Units=GPa)
#
#
# Indices 1 2 3 4 5 6 
#
# 1 41.8975 14.0046 6.0891 0.0000 0.0000 0.0000
# 2 14.0046 62.0441 1.4692 0.0000 0.0000 0.0000
# 3 6.0891 1.4692 51.4364 0.0000 0.0000 0.0000
# 4 0.0000 0.0000 0.0000 9.5833 0.0000 0.0000
# 5 0.0000 0.0000 0.0000 0.0000 40.2757 0.0000
# 6 0.0000 0.0000 0.0000 0.0000 0.0000 24.5324
#
#
#
# Elastic Compliance Matrix: (Units=1/GPa)
#
#
# Indices 1 2 3 4 5 6 
#
# 1 0.026253 -0.005856 -0.002941 0.000000 0.000000 0.000000
# 2 -0.005856 0.017435 0.000195 0.000000 0.000000 0.000000
# 3 -0.002941 0.000195 0.019784 0.000000 0.000000 0.000000
# 4 0.000000 0.000000 0.000000 0.104349 0.000000 0.000000
# 5 0.000000 0.000000 0.000000 0.000000 0.024829 0.000000
# 6 0.000000 0.000000 0.000000 0.000000 0.000000 0.040762
#
#
# Mechanical properties :
#
#
# Convention : Reuss Voigt Hill
#
# Bulk Modulus (GPa) = 21.61292 22.05597 21.83445
# Shear Modulus (GPa) = 18.79438 23.79929 21.29684
#
# Velocity S-wave (km/s) = 3.02012 3.39854 3.21490
# Velocity P-wave (km/s) = 4.75925 5.10922 4.93734
#
# Compressibility (1/GPa) = 0.04626861
#
# Stress axis : x y z
#
# Youngs Moduli (GPa) = 38.09152 57.35662 50.54583
#
# Poissons Ratio (x) = 0.33589 0.14863
# Poissons Ratio (y) = 0.22307 -0.00987
# Poissons Ratio (z) = 0.11201 -0.01120
#
# Static dielectric constant tensor:
#      x y z
#    x 1.788660 0.000000 0.000000 
#    y 0.000000 1.714060 0.000000 
#    z 0.000000 0.000000 1.728940 
# 
# From -- ./inp_files/7674.got.cif
#   From: 2010.05.17/outbox.cif.g08.bks.cpg/sg52_4_cif.got.tgz:7674.got - 2010.06.03 12:15:38.
