data_PCOD9413712
_publ_section_title
;
Structure prediction by ZEFSAII (Michael W. Deem and Ramdas Pophale) SiO2 
 PCOD9413712
Probable space group: P N N A
;
_chemical_formula_sum "Si O2"
_cell_formula_units_Z 60
_cell_length_a 26.730332
_cell_length_b 8.211983
_cell_length_c 11.508186
_cell_angle_alpha 90.000000
_cell_angle_beta 90.000000
_cell_angle_gamma 90.000000
_cell_volume 2526.150769
_symmetry_space_group_name_H-M "P N N A"
_symmetry_group_IT_number 52
_symmetry_cell_setting 'orthorhombic'
loop_
_space_group_symop_operation_xyz
x,y,z
1/2-x,-y,z
x,1/2-y,1/2-z
1/2-x,1/2+y,1/2-z
-x,-y,-z
1/2+x,y,-z
-x,1/2+y,1/2+z
1/2+x,1/2-y,1/2+z
loop_
_atom_site_type_symbol
_atom_site_label
_atom_site_fract_x
_atom_site_fract_y
_atom_site_fract_z
Si Si1 0.045200 0.556928 0.198605
Si Si2 0.572303 0.257931 0.956500
Si Si3 0.065409 0.470218 0.810033
Si Si4 0.616463 0.947797 0.912635
Si Si5 0.461972 0.270864 0.536256
Si Si6 0.175721 0.055269 0.765605
Si Si7 0.783475 0.356127 0.494973
Si Si8 0.750000 0.000000 0.433581
O O1 0.063454 0.387762 0.144739
O O2 0.086208 0.589729 0.295822
O O3 0.040030 0.663526 0.081899
O O4 0.988473 0.564374 0.248264
O O5 0.618852 0.142469 0.928790
O O6 0.574806 0.349417 0.079890
O O7 0.518302 0.169375 0.950307
O O8 0.116084 0.461229 0.738571
O O9 0.054966 0.647205 0.864187
O O10 0.580152 0.901314 0.018350
O O11 0.666400 0.846840 0.929069
O O12 0.187643 0.250000 0.750000
O O13 0.201261 0.989330 0.648859
O O14 0.198179 0.945570 0.872014
O O15 0.750000 0.500000 0.547649
O O16 0.754924 0.181504 0.490752
#
# Coordination Sequence:
#
# PCOD9413712 Si02
#       8
#     8   8   8   8   8   8   8   4
#     4   9  20  39  61  92 142 185 221 268 332 411
#     4   9  19  36  60  93 137 177 221 272 329 399
#     4   9  20  37  61  96 134 181 222 265 338 412
#     4  12  22  36  63  97 128 172 232 274 342 407
#     4   9  19  37  58  91 134 177 223 269 321 403
#     4  12  21  39  67  98 136 177 223 282 356 414
#     4  12  27  46  66 100 129 172 229 294 351 424
#     4  12  24  46  70  90 138 176 226 300 366 408
#
# _framework density 23.751553999999999
#
# number of rings (size 3 to 8) (size 9 to 14) (size 15 to 20)
#    0.000    1.600    2.000    4.800    0.000    4.267 
#    0.000    2.667    0.000    3.200    3.467    0.000 
#    0.000    0.000    0.000    0.000    0.000    0.000 
#
# Total GULP energy -334855.489340 kJ/mol
# GULP energy per Si atom -5580.924822 kJ/mol
# Density = 2.369749 g / cm^3
# Si number density = 23.751554 Si / 1000 Ang^3
#
#
#
# Elastic Constant Matrix: (Units=GPa)
#
#
# Indices 1 2 3 4 5 6 
#
# 1 97.9441 22.1910 32.6159 0.0000 0.0000 0.0000
# 2 22.1910 112.0157 29.6172 0.0000 0.0000 0.0000
# 3 32.6159 29.6172 68.2386 0.0000 0.0000 0.0000
# 4 0.0000 0.0000 0.0000 34.3479 0.0000 0.0000
# 5 0.0000 0.0000 0.0000 0.0000 26.4425 0.0000
# 6 0.0000 0.0000 0.0000 0.0000 0.0000 31.0836
#
#
#
# Elastic Compliance Matrix: (Units=1/GPa)
#
#
# Indices 1 2 3 4 5 6 
#
# 1 0.012239 -0.000992 -0.005420 0.000000 0.000000 0.000000
# 2 -0.000992 0.010165 -0.003938 0.000000 0.000000 0.000000
# 3 -0.005420 -0.003938 0.018954 0.000000 0.000000 0.000000
# 4 0.000000 0.000000 0.000000 0.029114 0.000000 0.000000
# 5 0.000000 0.000000 0.000000 0.000000 0.037818 0.000000
# 6 0.000000 0.000000 0.000000 0.000000 0.000000 0.032171
#
#
# Mechanical properties :
#
#
# Convention : Reuss Voigt Hill
#
# Bulk Modulus (GPa) = 48.40275 49.67185 49.03730
# Shear Modulus (GPa) = 29.75371 31.29309 30.52340
#
# Velocity S-wave (km/s) = 3.54320 3.63370 3.58873
# Velocity P-wave (km/s) = 6.09607 6.20995 6.15327
#
# Compressibility (1/GPa) = 0.02065998
#
# Stress axis : x y z
#
# Youngs Moduli (GPa) = 81.70371 98.37712 52.75941
#
# Poissons Ratio (x) = 0.09756 0.28593
# Poissons Ratio (y) = 0.08103 0.20776
# Poissons Ratio (z) = 0.44280 0.38739
#
# Static dielectric constant tensor:
#      x y z
#    x 1.909310 0.000000 0.000000 
#    y 0.000000 2.061070 0.000000 
#    z 0.000000 0.000000 1.924220 
# 
# From -- ./inp_files/22918.got.cif
#   From: 2010.05.17/outbox.cif.g08.bks.cpg/sg52_12_cif.got.tgz:22918.got - 2010.06.03 12:15:38.
