data_PCOD9413385
_publ_section_title
;
Structure prediction by ZEFSAII (Michael W. Deem and Ramdas Pophale) SiO2 
 PCOD9413385
Probable space group: P N N A
;
_chemical_formula_sum "Si O2"
_cell_formula_units_Z 24
_cell_length_a 10.712211
_cell_length_b 10.659446
_cell_length_c 8.265826
_cell_angle_alpha 90.000000
_cell_angle_beta 90.000000
_cell_angle_gamma 90.000000
_cell_volume 943.843548
_symmetry_space_group_name_H-M "P N N A"
_symmetry_group_IT_number 52
_symmetry_cell_setting 'orthorhombic'
loop_
_space_group_symop_operation_xyz
x,y,z
1/2-x,-y,z
x,1/2-y,1/2-z
1/2-x,1/2+y,1/2-z
-x,-y,-z
1/2+x,y,-z
-x,1/2+y,1/2+z
1/2+x,1/2-y,1/2+z
loop_
_atom_site_type_symbol
_atom_site_label
_atom_site_fract_x
_atom_site_fract_y
_atom_site_fract_z
Si Si1 0.186386 0.308452 0.572130
Si Si2 0.081949 0.878583 0.137104
Si Si3 0.875703 0.945571 0.577442
O O1 0.209170 0.250000 0.750000
O O2 0.315845 0.357830 0.501342
O O3 0.136917 0.200841 0.449506
O O4 0.063189 0.392929 0.591939
O O5 0.087127 0.750000 0.250000
O O6 0.119721 0.997465 0.244573
O O7 0.750000 0.000000 0.496826
O O8 0.000000 0.000000 0.500000
#
# Coordination Sequence:
#
# PCOD9413385 Si02
#       3
#     8   8   8
#     4  11  23  45  75 105 147 194 247 310 371 441
#     4  11  23  43  75 106 143 198 243 305 373 434
#     4  12  22  44  76 105 143 194 247 302 372 443
#
# _framework density 25.427944
#
# number of rings (size 3 to 8) (size 9 to 14) (size 15 to 20)
#    0.000    0.667   10.000    0.000    0.000    1.333 
#    6.000    3.333    0.000    0.000    0.000    0.000 
#    0.000    0.000    0.000    0.000    0.000    0.000 
#
# Total GULP energy -134517.772844 kJ/mol
# GULP energy per Si atom -5604.907202 kJ/mol
# Density = 2.537007 g / cm^3
# Si number density = 25.427944 Si / 1000 Ang^3
#
#
#
# Elastic Constant Matrix: (Units=GPa)
#
#
# Indices 1 2 3 4 5 6 
#
# 1 248.2423 18.7633 94.4229 0.0000 0.0000 0.0000
# 2 18.7633 102.3305 46.5968 0.0000 0.0000 0.0000
# 3 94.4229 46.5968 162.4297 0.0000 0.0000 0.0000
# 4 0.0000 0.0000 0.0000 49.1835 0.0000 0.0000
# 5 0.0000 0.0000 0.0000 0.0000 44.5560 0.0000
# 6 0.0000 0.0000 0.0000 0.0000 0.0000 45.5177
#
#
#
# Elastic Compliance Matrix: (Units=1/GPa)
#
#
# Indices 1 2 3 4 5 6 
#
# 1 0.005193 0.000486 -0.003158 0.000000 0.000000 0.000000
# 2 0.000486 0.011286 -0.003520 0.000000 0.000000 0.000000
# 3 -0.003158 -0.003520 0.009002 0.000000 0.000000 0.000000
# 4 0.000000 0.000000 0.000000 0.020332 0.000000 0.000000
# 5 0.000000 0.000000 0.000000 0.000000 0.022444 0.000000
# 6 0.000000 0.000000 0.000000 0.000000 0.000000 0.021969
#
#
# Mechanical properties :
#
#
# Convention : Reuss Voigt Hill
#
# Bulk Modulus (GPa) = 76.35651 92.50763 84.43207
# Shear Modulus (GPa) = 46.73932 51.39940 49.06936
#
# Velocity S-wave (km/s) = 4.29197 4.50085 4.39765
# Velocity P-wave (km/s) = 7.39291 7.96677 7.68520
#
# Compressibility (1/GPa) = 0.01309646
#
# Stress axis : x y z
#
# Youngs Moduli (GPa) = 192.57392 88.60474 111.08440
#
# Poissons Ratio (x) = -0.04305 0.35081
# Poissons Ratio (y) = -0.09357 0.39103
# Poissons Ratio (z) = 0.60816 0.31190
#
# Static dielectric constant tensor:
#      x y z
#    x 1.795520 0.000000 0.000000 
#    y 0.000000 2.065240 0.000000 
#    z 0.000000 0.000000 2.001660 
# 
# From -- ./inp_files/7999.got.cif
#   From: 2010.05.17/outbox.cif.g08.bks.cpg/sg52_4_cif.got.tgz:7999.got - 2010.06.03 12:15:38.
