data_PCOD9413354
_publ_section_title
;
Structure prediction by ZEFSAII (Michael W. Deem and Ramdas Pophale) SiO2 
 PCOD9413354
Probable space group: P N N A
;
_chemical_formula_sum "Si O2"
_cell_formula_units_Z 40
_cell_length_a 26.660599
_cell_length_b 12.185201
_cell_length_c 5.526112
_cell_angle_alpha 90.000000
_cell_angle_beta 90.000000
_cell_angle_gamma 90.000000
_cell_volume 1795.239035
_symmetry_space_group_name_H-M "P N N A"
_symmetry_group_IT_number 52
_symmetry_cell_setting 'orthorhombic'
loop_
_space_group_symop_operation_xyz
x,y,z
1/2-x,-y,z
x,1/2-y,1/2-z
1/2-x,1/2+y,1/2-z
-x,-y,-z
1/2+x,y,-z
-x,1/2+y,1/2+z
1/2+x,1/2-y,1/2+z
loop_
_atom_site_type_symbol
_atom_site_label
_atom_site_fract_x
_atom_site_fract_y
_atom_site_fract_z
Si Si1 0.074632 0.250000 0.250000
Si Si2 0.381991 0.572673 0.924532
Si Si3 0.255346 0.250000 0.250000
Si Si4 0.840397 0.327974 0.039253
Si Si5 0.517368 0.393805 0.360732
Si Si6 0.571261 0.750000 0.750000
Si Si7 0.693348 0.250000 0.250000
O O1 0.108423 0.146868 0.335466
O O2 0.039502 0.298881 0.462509
O O3 0.360725 0.450281 0.926956
O O4 0.437106 0.573343 0.809755
O O5 0.342770 0.645263 0.774994
O O6 0.296780 0.159867 0.335619
O O7 0.222698 0.264454 0.493456
O O8 0.818274 0.250000 0.250000
O O9 0.889386 0.256812 0.966352
O O10 0.500000 0.500000 0.500000
O O11 0.466453 0.350962 0.240191
#
# Coordination Sequence:
#
# PCOD9413354 Si02
#       7
#     4   8   4   8   8   4   4
#     4  12  23  46  66 108 162 192 266 309 382 472
#     4  12  26  47  76 113 150 204 258 320 398 471
#     4  11  27  56  77 114 149 198 268 324 414 464
#     4  11  26  50  74 111 150 202 259 327 394 480
#     4  12  25  41  69 110 150 207 251 310 378 467
#     4  11  23  42  67 106 150 195 257 301 382 452
#     4  12  25  54  80 112 153 197 259 338 394 476
#
# _framework density 22.281154000000001
#
# number of rings (size 3 to 8) (size 9 to 14) (size 15 to 20)
#    0.000    0.400    5.000    3.000    4.200    4.000 
#    3.600    0.000    0.000    0.000    0.000    0.000 
#    0.000    0.000    0.000    0.000    0.000    0.000 
#
# Total GULP energy -223082.372401 kJ/mol
# GULP energy per Si atom -5577.059310 kJ/mol
# Density = 2.223044 g / cm^3
# Si number density = 22.281154 Si / 1000 Ang^3
#
#
#
# Elastic Constant Matrix: (Units=GPa)
#
#
# Indices 1 2 3 4 5 6 
#
# 1 146.5567 25.0819 54.3238 0.0000 0.0000 0.0000
# 2 25.0819 89.7896 18.9460 0.0000 0.0000 0.0000
# 3 54.3238 18.9460 93.5921 0.0000 0.0000 0.0000
# 4 0.0000 0.0000 0.0000 33.8882 0.0000 0.0000
# 5 0.0000 0.0000 0.0000 0.0000 55.2648 0.0000
# 6 0.0000 0.0000 0.0000 0.0000 0.0000 -17.7254
#
#
#
# Elastic Compliance Matrix: (Units=1/GPa)
#
#
# Indices 1 2 3 4 5 6 
#
# 1 0.008872 -0.001454 -0.004855 0.000000 0.000000 0.000000
# 2 -0.001454 0.011872 -0.001560 0.000000 0.000000 0.000000
# 3 -0.004855 -0.001560 0.013818 0.000000 0.000000 0.000000
# 4 0.000000 0.000000 0.000000 0.029509 0.000000 0.000000
# 5 0.000000 0.000000 0.000000 0.000000 0.018095 0.000000
# 6 0.000000 0.000000 0.000000 0.000000 0.000000 -0.056416
#
#
# Mechanical properties :
#
#
# Convention : Reuss Voigt Hill
#
# Bulk Modulus (GPa) = 53.11914 58.51578 55.81746
# Shear Modulus (GPa) = 104.68554 29.72460 67.20507
#
# Velocity S-wave (km/s) = 6.86192 3.65645 5.49798
# Velocity P-wave (km/s) = 9.30985 6.64422 8.08761
#
# Compressibility (1/GPa) = 0.01882560
#
# Stress axis : x y z
#
# Youngs Moduli (GPa) = 112.71728 84.22954 72.36703
#
# Poissons Ratio (x) = 0.12245 0.35135
# Poissons Ratio (y) = 0.16387 0.11286
# Poissons Ratio (z) = 0.54726 0.13136
#
# Static dielectric constant tensor:
#      x y z
#    x 1.806750 0.000000 0.000000 
#    y 0.000000 2.147780 0.000000 
#    z 0.000000 0.000000 1.932540 
# 
# From -- ./inp_files/5666.got.cif
#   From: 2010.05.17/outbox.cif.g08.bks.cpg/sg52_3_cif.got.tgz:5666.got - 2010.06.03 12:15:38.
