data_PCOD9413672
_publ_section_title
;
Structure prediction by ZEFSAII (Michael W. Deem and Ramdas Pophale) SiO2 
 PCOD9413672
Probable space group: P N N A
;
_chemical_formula_sum "Si O2"
_cell_formula_units_Z 40
_cell_length_a 23.877396
_cell_length_b 8.309238
_cell_length_c 8.620018
_cell_angle_alpha 90.000000
_cell_angle_beta 90.000000
_cell_angle_gamma 90.000000
_cell_volume 1710.237140
_symmetry_space_group_name_H-M "P N N A"
_symmetry_group_IT_number 52
_symmetry_cell_setting 'orthorhombic'
loop_
_space_group_symop_operation_xyz
x,y,z
1/2-x,-y,z
x,1/2-y,1/2-z
1/2-x,1/2+y,1/2-z
-x,-y,-z
1/2+x,y,-z
-x,1/2+y,1/2+z
1/2+x,1/2-y,1/2+z
loop_
_atom_site_type_symbol
_atom_site_label
_atom_site_fract_x
_atom_site_fract_y
_atom_site_fract_z
Si Si1 0.942685 0.436539 0.927916
Si Si2 0.656699 0.127301 0.122138
Si Si3 0.252634 0.306317 0.073072
Si Si4 0.650977 0.878530 0.359581
Si Si5 0.559494 0.952446 0.928256
O O1 0.938944 0.241988 0.930339
O O2 0.936745 0.497554 0.753083
O O3 0.890746 0.482111 0.036258
O O4 0.000000 0.500000 0.000000
O O5 0.632176 0.250000 0.250000
O O6 0.682731 0.993759 0.239038
O O7 0.701979 0.215212 0.013357
O O8 0.608650 0.041582 0.021745
O O9 0.250000 0.500000 0.074172
O O10 0.257346 0.250000 0.250000
O O11 0.191537 0.718997 0.972752
O O12 0.619410 0.750000 0.250000
O O13 0.500000 0.000000 0.000000
#
# Coordination Sequence:
#
# PCOD9413672 Si02
#       5
#     8   8   8   8   8
#     4  11  27  49  77 113 157 205 265 323 393 472
#     4  12  27  52  79 113 158 207 266 329 397 475
#     4  12  31  50  77 114 158 212 265 327 400 476
#     4  12  27  49  80 112 156 207 264 326 397 474
#     4  11  27  48  79 113 155 209 261 326 394 468
#
# _framework density 23.388570999999999
#
# number of rings (size 3 to 8) (size 9 to 14) (size 15 to 20)
#    0.000    0.400    4.000    1.800   14.000    0.000 
#    0.000    0.000    0.000    0.000    0.000    0.000 
#    0.000    0.000    0.000    0.000    0.000    0.000 
#
# Total GULP energy -223842.572357 kJ/mol
# GULP energy per Si atom -5596.064309 kJ/mol
# Density = 2.333534 g / cm^3
# Si number density = 23.388571 Si / 1000 Ang^3
#
#
#
# Elastic Constant Matrix: (Units=GPa)
#
#
# Indices 1 2 3 4 5 6 
#
# 1 179.2707 51.5572 114.8142 0.0000 0.0000 0.0000
# 2 51.5572 73.1102 79.8547 0.0000 0.0000 0.0000
# 3 114.8142 79.8547 254.9121 0.0000 0.0000 0.0000
# 4 0.0000 0.0000 0.0000 53.4703 0.0000 0.0000
# 5 0.0000 0.0000 0.0000 0.0000 46.3729 0.0000
# 6 0.0000 0.0000 0.0000 0.0000 0.0000 48.4575
#
#
#
# Elastic Compliance Matrix: (Units=1/GPa)
#
#
# Indices 1 2 3 4 5 6 
#
# 1 0.008163 -0.002646 -0.002848 0.000000 0.000000 0.000000
# 2 -0.002646 0.021650 -0.005590 0.000000 0.000000 0.000000
# 3 -0.002848 -0.005590 0.006957 0.000000 0.000000 0.000000
# 4 0.000000 0.000000 0.000000 0.018702 0.000000 0.000000
# 5 0.000000 0.000000 0.000000 0.000000 0.021564 0.000000
# 6 0.000000 0.000000 0.000000 0.000000 0.000000 0.020637
#
#
# Mechanical properties :
#
#
# Convention : Reuss Voigt Hill
#
# Bulk Modulus (GPa) = 68.48610 111.08281 89.78445
# Shear Modulus (GPa) = 40.09354 47.06459 43.57906
#
# Velocity S-wave (km/s) = 4.14483 4.49072 4.32124
# Velocity P-wave (km/s) = 7.22852 8.63055 7.96046
#
# Compressibility (1/GPa) = 0.01460150
#
# Stress axis : x y z
#
# Youngs Moduli (GPa) = 122.50398 46.18927 143.74370
#
# Poissons Ratio (x) = 0.12222 0.40935
# Poissons Ratio (y) = 0.32415 0.80358
# Poissons Ratio (z) = 0.34886 0.25821
#
# Static dielectric constant tensor:
#      x y z
#    x 1.850790 0.000000 0.000000 
#    y 0.000000 2.014290 0.000000 
#    z 0.000000 0.000000 1.867620 
# 
# From -- ./inp_files/14817.got.cif
#   From: 2010.05.17/outbox.cif.g08.bks.cpg/sg52_8_cif.got.tgz:14817.got - 2010.06.03 12:15:38.
