data_PCOD9413085
_publ_section_title
;
Structure prediction by ZEFSAII (Michael W. Deem and Ramdas Pophale) SiO2 
 PCOD9413085
Probable space group: P N N A
;
_chemical_formula_sum "Si O2"
_cell_formula_units_Z 52
_cell_length_a 5.461009
_cell_length_b 30.119598
_cell_length_c 14.128768
_cell_angle_alpha 90.000000
_cell_angle_beta 90.000000
_cell_angle_gamma 90.000000
_cell_volume 2323.947738
_symmetry_space_group_name_H-M "P N N A"
_symmetry_group_IT_number 52
_symmetry_cell_setting 'orthorhombic'
loop_
_space_group_symop_operation_xyz
x,y,z
1/2-x,-y,z
x,1/2-y,1/2-z
1/2-x,1/2+y,1/2-z
-x,-y,-z
1/2+x,y,-z
-x,1/2+y,1/2+z
1/2+x,1/2-y,1/2+z
loop_
_atom_site_type_symbol
_atom_site_label
_atom_site_fract_x
_atom_site_fract_y
_atom_site_fract_z
Si Si1 0.363707 0.816301 0.782923
Si Si2 0.750000 0.500000 0.206192
Si Si3 0.342935 0.196434 0.399709
Si Si4 0.877096 0.291673 0.542587
Si Si5 0.763035 0.598694 0.903785
Si Si6 0.238726 0.094495 0.719250
Si Si7 0.520971 0.250000 0.750000
Si Si8 0.250000 0.000000 0.416931
O O1 0.428513 0.811077 0.671773
O O2 0.594708 0.803812 0.846787
O O3 0.274477 0.866048 0.793304
O O4 0.158032 0.781521 0.809921
O O5 0.745279 0.545590 0.262115
O O6 0.503104 0.499864 0.142292
O O7 0.390547 0.237985 0.467027
O O8 0.264228 0.149083 0.444425
O O9 0.150629 0.217271 0.324450
O O10 0.125122 0.309508 0.496968
O O11 0.519557 0.595865 0.838171
O O12 0.758501 0.550907 0.959591
O O13 0.019503 0.600040 0.846383
#
# Coordination Sequence:
#
# PCOD9413085 Si02
#       8
#     8   4   8   8   8   8   4   4
#     4  11  21  34  55  77 100 142 181 215 254 316
#     4   8  14  26  40  68 104 124 148 206 270 306
#     4  11  21  34  55  77 100 142 181 215 254 316
#     4  12  26  38  51  75 112 144 174 220 270 308
#     4   9  17  27  47  73  99 128 164 209 261 307
#     4   9  17  27  47  73  99 128 164 209 261 307
#     4  12  16  32  56  76 104 130 186 218 250 292
#     4   8  14  26  40  68 104 124 148 206 270 306
#
# _framework density 22.375717999999999
#
# number of rings (size 3 to 8) (size 9 to 14) (size 15 to 20)
#    0.000    1.846    4.615    0.923    0.000    0.000 
#    0.000    0.000    0.000    0.000    0.000    2.154 
#    0.000    0.000    0.000    0.615    0.000    0.000 
#
# Total GULP energy -289955.479782 kJ/mol
# GULP energy per Si atom -5576.066919 kJ/mol
# Density = 2.232479 g / cm^3
# Si number density = 22.375718 Si / 1000 Ang^3
#
#
#
# Elastic Constant Matrix: (Units=GPa)
#
#
# Indices 1 2 3 4 5 6 
#
# 1 134.5982 23.0841 26.9448 0.0000 0.0000 0.0000
# 2 23.0841 192.0169 12.8204 0.0000 0.0000 0.0000
# 3 26.9448 12.8204 41.1346 0.0000 0.0000 0.0000
# 4 0.0000 0.0000 0.0000 1.6882 0.0000 0.0000
# 5 0.0000 0.0000 0.0000 0.0000 33.6535 0.0000
# 6 0.0000 0.0000 0.0000 0.0000 0.0000 28.3117
#
#
#
# Elastic Compliance Matrix: (Units=1/GPa)
#
#
# Indices 1 2 3 4 5 6 
#
# 1 0.008635 -0.000675 -0.005446 0.000000 0.000000 0.000000
# 2 -0.000675 0.005371 -0.001232 0.000000 0.000000 0.000000
# 3 -0.005446 -0.001232 0.028262 0.000000 0.000000 0.000000
# 4 0.000000 0.000000 0.000000 0.592334 0.000000 0.000000
# 5 0.000000 0.000000 0.000000 0.000000 0.029715 0.000000
# 6 0.000000 0.000000 0.000000 0.000000 0.000000 0.035321
#
#
# Mechanical properties :
#
#
# Convention : Reuss Voigt Hill
#
# Bulk Modulus (GPa) = 36.28104 54.82757 45.55431
# Shear Modulus (GPa) = 6.91054 33.05737 19.98396
#
# Velocity S-wave (km/s) = 1.75929 3.84784 2.99174
# Velocity P-wave (km/s) = 4.51403 6.65564 5.68656
#
# Compressibility (1/GPa) = 0.02756260
#
# Stress axis : x y z
#
# Youngs Moduli (GPa) = 115.80109 186.17688 35.38311
#
# Poissons Ratio (x) = 0.12558 0.19271
# Poissons Ratio (y) = 0.07811 0.04360
# Poissons Ratio (z) = 0.63070 0.22941
#
# Static dielectric constant tensor:
#      x y z
#    x 1.895630 0.000000 0.000000 
#    y 0.000000 1.877980 0.000000 
#    z 0.000000 0.000000 1.835650 
# 
# From -- ./inp_files/30373.got.cif
#   From: 2010.05.17/outbox.cif.g08.bks.cpg/sg52_16_cif.got.tgz:30373.got - 2010.06.03 12:15:38.
