data_PCOD9413876
_publ_section_title
;
Structure prediction by ZEFSAII (Michael W. Deem and Ramdas Pophale) SiO2 
 PCOD9413876
Probable space group: P N N A
;
_chemical_formula_sum "Si O2"
_cell_formula_units_Z 32
_cell_length_a 29.642082
_cell_length_b 7.495559
_cell_length_c 6.055138
_cell_angle_alpha 90.000000
_cell_angle_beta 90.000000
_cell_angle_gamma 90.000000
_cell_volume 1345.354627
_symmetry_space_group_name_H-M "P N N A"
_symmetry_group_IT_number 52
_symmetry_cell_setting 'orthorhombic'
loop_
_space_group_symop_operation_xyz
x,y,z
1/2-x,-y,z
x,1/2-y,1/2-z
1/2-x,1/2+y,1/2-z
-x,-y,-z
1/2+x,y,-z
-x,1/2+y,1/2+z
1/2+x,1/2-y,1/2+z
loop_
_atom_site_type_symbol
_atom_site_label
_atom_site_fract_x
_atom_site_fract_y
_atom_site_fract_z
Si Si1 0.171556 0.024966 0.512585
Si Si2 0.386691 0.250000 0.250000
Si Si3 0.234962 0.250000 0.250000
Si Si4 0.750000 0.000000 0.129165
Si Si5 0.453243 0.422204 0.590598
Si Si6 0.896374 0.750000 0.250000
O O1 0.143705 0.855874 0.427394
O O2 0.204158 0.083414 0.317185
O O3 0.204471 0.009797 0.724124
O O4 0.137051 0.187335 0.556189
O O5 0.420044 0.374411 0.389468
O O6 0.255916 0.322790 0.476760
O O7 0.459374 0.250000 0.750000
O O8 0.500000 0.500000 0.500000
O O9 0.427590 0.580145 0.714725
#
# Coordination Sequence:
#
# PCOD9413876 Si02
#       6
#     8   4   4   4   8   4
#     4  12  27  51  78 114 163 212 276 335 403 484
#     4  12  29  51  84 120 156 216 266 338 415 485
#     4  12  26  49  72 107 152 222 261 334 406 467
#     4  12  28  50  72 112 156 218 274 334 396 486
#     4  12  29  52  82 123 162 213 271 338 418 502
#     4  12  25  56  78 111 172 202 271 340 399 492
#
# _framework density 23.785550000000001
#
# number of rings (size 3 to 8) (size 9 to 14) (size 15 to 20)
#    0.000    0.000    5.000    3.000    3.500    8.000 
#    4.500    0.000    0.000    0.000    0.000    0.000 
#    0.000    0.000    0.000    0.000    0.000    0.000 
#
# Total GULP energy -179203.253303 kJ/mol
# GULP energy per Si atom -5600.101666 kJ/mol
# Density = 2.373141 g / cm^3
# Si number density = 23.785550 Si / 1000 Ang^3
#
#
#
# Elastic Constant Matrix: (Units=GPa)
#
#
# Indices 1 2 3 4 5 6 
#
# 1 161.7991 73.2095 67.0952 0.0000 0.0000 0.0000
# 2 73.2095 134.7784 52.7512 0.0000 0.0000 0.0000
# 3 67.0952 52.7512 107.0588 0.0000 0.0000 0.0000
# 4 0.0000 0.0000 0.0000 60.5102 0.0000 0.0000
# 5 0.0000 0.0000 0.0000 0.0000 43.4214 0.0000
# 6 0.0000 0.0000 0.0000 0.0000 0.0000 59.2567
#
#
#
# Elastic Compliance Matrix: (Units=1/GPa)
#
#
# Indices 1 2 3 4 5 6 
#
# 1 0.009530 -0.003517 -0.004240 0.000000 0.000000 0.000000
# 2 -0.003517 0.010490 -0.002965 0.000000 0.000000 0.000000
# 3 -0.004240 -0.002965 0.013458 0.000000 0.000000 0.000000
# 4 0.000000 0.000000 0.000000 0.016526 0.000000 0.000000
# 5 0.000000 0.000000 0.000000 0.000000 0.023030 0.000000
# 6 0.000000 0.000000 0.000000 0.000000 0.000000 0.016876
#
#
# Mechanical properties :
#
#
# Convention : Reuss Voigt Hill
#
# Bulk Modulus (GPa) = 83.08409 87.74979 85.41694
# Shear Modulus (GPa) = 43.34042 46.67635 45.00839
#
# Velocity S-wave (km/s) = 4.27328 4.43468 4.35473
# Velocity P-wave (km/s) = 7.70417 7.94947 7.82778
#
# Compressibility (1/GPa) = 0.01203600
#
# Stress axis : x y z
#
# Youngs Moduli (GPa) = 104.93163 95.32488 74.30292
#
# Poissons Ratio (x) = 0.33528 0.31501
# Poissons Ratio (y) = 0.36907 0.22028
# Poissons Ratio (z) = 0.44486 0.28261
#
# Static dielectric constant tensor:
#      x y z
#    x 1.903920 0.000000 0.000000 
#    y 0.000000 1.986600 0.000000 
#    z 0.000000 0.000000 1.951580 
# 
# From -- ./inp_files/6188.got.cif
#   From: 2010.05.17/outbox.cif.g08.bks.cpg/sg52_4_cif.got.tgz:6188.got - 2010.06.03 12:15:38.
