data_PCOD9413765
_publ_section_title
;
Structure prediction by ZEFSAII (Michael W. Deem and Ramdas Pophale) SiO2 
 PCOD9413765
Probable space group: P N N A
;
_chemical_formula_sum "Si O2"
_cell_formula_units_Z 28
_cell_length_a 4.918249
_cell_length_b 8.970981
_cell_length_c 23.069561
_cell_angle_alpha 90.000000
_cell_angle_beta 90.000000
_cell_angle_gamma 90.000000
_cell_volume 1017.864059
_symmetry_space_group_name_H-M "P N N A"
_symmetry_group_IT_number 52
_symmetry_cell_setting 'orthorhombic'
loop_
_space_group_symop_operation_xyz
x,y,z
1/2-x,-y,z
x,1/2-y,1/2-z
1/2-x,1/2+y,1/2-z
-x,-y,-z
1/2+x,y,-z
-x,1/2+y,1/2+z
1/2+x,1/2-y,1/2+z
loop_
_atom_site_type_symbol
_atom_site_label
_atom_site_fract_x
_atom_site_fract_y
_atom_site_fract_z
Si Si1 0.750000 0.000000 0.050745
Si Si2 0.029553 0.795657 0.465658
Si Si3 0.430098 0.736234 0.367539
Si Si4 0.250000 0.500000 0.273464
Si Si5 0.750000 0.000000 0.309254
O O1 0.584935 0.885706 0.093352
O O2 0.984444 0.883397 0.028090
O O3 0.232994 0.848796 0.516166
O O4 0.189085 0.810860 0.405766
O O5 0.319308 0.641014 0.313823
O O6 0.635340 0.863148 0.346511
O O7 0.501766 0.458391 0.232767
#
# Coordination Sequence:
#
# PCOD9413765 Si02
#       5
#     4   8   8   4   4
#     4  12  23  43  78 114 160 196 271 323 398 464
#     4  12  25  43  77 119 157 206 265 329 397 476
#     4  12  28  49  80 115 159 201 268 335 397 489
#     4  12  28  51  80 114 152 214 273 336 404 488
#     4  12  33  52  80 112 164 210 268 337 422 470
#
# _framework density 27.508585
#
# number of rings (size 3 to 8) (size 9 to 14) (size 15 to 20)
#    0.000    0.000    5.714    2.571    4.000    4.571 
#    0.000    1.429    0.000    0.000    0.000    0.000 
#    0.000    0.000    0.000    0.000    0.000    0.000 
#
# Total GULP energy -157054.295507 kJ/mol
# GULP energy per Si atom -5609.081982 kJ/mol
# Density = 2.744597 g / cm^3
# Si number density = 27.508585 Si / 1000 Ang^3
#
#
#
# Elastic Constant Matrix: (Units=GPa)
#
#
# Indices 1 2 3 4 5 6 
#
# 1 212.6768 49.7543 75.1317 0.0000 0.0000 0.0000
# 2 49.7543 202.1915 72.5572 0.0000 0.0000 0.0000
# 3 75.1317 72.5572 161.6982 0.0000 0.0000 0.0000
# 4 0.0000 0.0000 0.0000 -38.9999 0.0000 0.0000
# 5 0.0000 0.0000 0.0000 0.0000 -19.8718 0.0000
# 6 0.0000 0.0000 0.0000 0.0000 0.0000 26.9284
#
#
#
# Elastic Compliance Matrix: (Units=1/GPa)
#
#
# Indices 1 2 3 4 5 6 
#
# 1 0.005674 -0.000537 -0.002395 0.000000 0.000000 0.000000
# 2 -0.000537 0.005946 -0.002419 0.000000 0.000000 0.000000
# 3 -0.002395 -0.002419 0.008383 0.000000 0.000000 0.000000
# 4 0.000000 0.000000 0.000000 -0.025641 0.000000 0.000000
# 5 0.000000 0.000000 0.000000 0.000000 -0.050323 0.000000
# 6 0.000000 0.000000 0.000000 0.000000 0.000000 0.037136
#
#
# Mechanical properties :
#
#
# Convention : Reuss Voigt Hill
#
# Bulk Modulus (GPa) = 107.51771 107.93921 107.72846
# Shear Modulus (GPa) = -995.20100 18.88623 -488.15739
#
# Velocity S-wave (km/s) = -19.04111 2.62307 -13.33573
# Velocity P-wave (km/s) = 21.07720 6.96402 14.06682
#
# Compressibility (1/GPa) = 0.00930079
#
# Stress axis : x y z
#
# Youngs Moduli (GPa) = 176.25064 168.18620 119.29296
#
# Poissons Ratio (x) = 0.09024 0.28577
# Poissons Ratio (y) = 0.09456 0.28853
# Poissons Ratio (z) = 0.42221 0.40679
#
# Static dielectric constant tensor:
#      x y z
#    x 2.108100 0.000000 0.000000 
#    y 0.000000 2.152910 0.000000 
#    z 0.000000 0.000000 2.204810 
# 
# From -- ./inp_files/41409.got.cif
#   From: 2010.05.17/outbox.cif.g08.bks.cpg/sg52_21_cif.got.tgz:41409.got - 2010.06.03 12:15:38.
