data_PCOD9413798
_publ_section_title
;
Structure prediction by ZEFSAII (Michael W. Deem and Ramdas Pophale) SiO2 
 PCOD9413798
Probable space group: P N N A
;
_chemical_formula_sum "Si O2"
_cell_formula_units_Z 32
_cell_length_a 4.880780
_cell_length_b 14.373155
_cell_length_c 18.563413
_cell_angle_alpha 90.000000
_cell_angle_beta 90.000000
_cell_angle_gamma 90.000000
_cell_volume 1302.264400
_symmetry_space_group_name_H-M "P N N A"
_symmetry_group_IT_number 52
_symmetry_cell_setting 'orthorhombic'
loop_
_space_group_symop_operation_xyz
x,y,z
1/2-x,-y,z
x,1/2-y,1/2-z
1/2-x,1/2+y,1/2-z
-x,-y,-z
1/2+x,y,-z
-x,1/2+y,1/2+z
1/2+x,1/2-y,1/2+z
loop_
_atom_site_type_symbol
_atom_site_label
_atom_site_fract_x
_atom_site_fract_y
_atom_site_fract_z
Si Si1 0.484301 0.438348 0.595063
Si Si2 0.392982 0.765130 0.456303
Si Si3 0.664402 0.900892 0.662569
Si Si4 0.158021 0.639738 0.745492
O O1 0.750000 0.500000 0.613093
O O2 0.596009 0.344952 0.557567
O O3 0.317538 0.399708 0.665312
O O4 0.250000 0.500000 0.555558
O O5 0.703737 0.790255 0.475381
O O6 0.259304 0.818713 0.389895
O O7 0.359791 0.899917 0.693564
O O8 0.850659 0.885573 0.732806
O O9 0.750000 0.000000 0.629706
O O10 0.198624 0.750000 0.750000
#
# Coordination Sequence:
#
# PCOD9413798 Si02
#       4
#     8   8   8   8
#     4  12  26  45  73 107 143 183 233 294 359 425
#     4  12  28  48  71 101 143 193 245 287 341 415
#     4  12  26  46  72 106 140 182 233 293 357 421
#     4  12  24  44  74 106 143 179 223 294 368 425
#
# _framework density 24.572582000000001
#
# number of rings (size 3 to 8) (size 9 to 14) (size 15 to 20)
#    0.000    0.000    2.500    8.250    3.500    4.000 
#    0.000    0.000    0.000    0.000    0.000    0.000 
#    0.000    0.000    0.000    0.000    0.000    0.000 
#
# Total GULP energy -179243.511123 kJ/mol
# GULP energy per Si atom -5601.359723 kJ/mol
# Density = 2.451665 g / cm^3
# Si number density = 24.572582 Si / 1000 Ang^3
#
#
#
# Elastic Constant Matrix: (Units=GPa)
#
#
# Indices 1 2 3 4 5 6 
#
# 1 112.5670 45.2207 16.5214 0.0000 0.0000 0.0000
# 2 45.2207 127.5145 13.7535 0.0000 0.0000 0.0000
# 3 16.5214 13.7535 69.0360 0.0000 0.0000 0.0000
# 4 0.0000 0.0000 0.0000 31.5725 0.0000 0.0000
# 5 0.0000 0.0000 0.0000 0.0000 31.7102 0.0000
# 6 0.0000 0.0000 0.0000 0.0000 0.0000 35.7159
#
#
#
# Elastic Compliance Matrix: (Units=1/GPa)
#
#
# Indices 1 2 3 4 5 6 
#
# 1 0.010579 -0.003555 -0.001824 0.000000 0.000000 0.000000
# 2 -0.003555 0.009209 -0.000984 0.000000 0.000000 0.000000
# 3 -0.001824 -0.000984 0.015118 0.000000 0.000000 0.000000
# 4 0.000000 0.000000 0.000000 0.031673 0.000000 0.000000
# 5 0.000000 0.000000 0.000000 0.000000 0.031536 0.000000
# 6 0.000000 0.000000 0.000000 0.000000 0.000000 0.027999
#
#
# Mechanical properties :
#
#
# Convention : Reuss Voigt Hill
#
# Bulk Modulus (GPa) = 45.08349 51.12317 48.10333
# Shear Modulus (GPa) = 34.19216 35.37451 34.78334
#
# Velocity S-wave (km/s) = 3.73430 3.79831 3.76644
# Velocity P-wave (km/s) = 6.08113 6.33138 6.20752
#
# Compressibility (1/GPa) = 0.02218107
#
# Stress axis : x y z
#
# Youngs Moduli (GPa) = 94.52320 108.58795 66.14804
#
# Poissons Ratio (x) = 0.38604 0.12062
# Poissons Ratio (y) = 0.33604 0.06508
# Poissons Ratio (z) = 0.17237 0.10684
#
# Static dielectric constant tensor:
#      x y z
#    x 1.878900 0.000000 0.000000 
#    y 0.000000 1.951430 0.000000 
#    z 0.000000 0.000000 1.949170 
# 
# From -- ./inp_files/30023.got.cif
#   From: 2010.05.17/outbox.cif.g08.bks.cpg/sg52_16_cif.got.tgz:30023.got - 2010.06.03 12:15:38.
