data_PCOD9413950
_publ_section_title
;
Structure prediction by ZEFSAII (Michael W. Deem and Ramdas Pophale) SiO2 
 PCOD9413950
Probable space group: P N N A
;
_chemical_formula_sum "Si O2"
_cell_formula_units_Z 24
_cell_length_a 11.447143
_cell_length_b 11.333452
_cell_length_c 7.270303
_cell_angle_alpha 90.000000
_cell_angle_beta 90.000000
_cell_angle_gamma 90.000000
_cell_volume 943.217454
_symmetry_space_group_name_H-M "P N N A"
_symmetry_group_IT_number 52
_symmetry_cell_setting 'orthorhombic'
loop_
_space_group_symop_operation_xyz
x,y,z
1/2-x,-y,z
x,1/2-y,1/2-z
1/2-x,1/2+y,1/2-z
-x,-y,-z
1/2+x,y,-z
-x,1/2+y,1/2+z
1/2+x,1/2-y,1/2+z
loop_
_atom_site_type_symbol
_atom_site_label
_atom_site_fract_x
_atom_site_fract_y
_atom_site_fract_z
Si Si1 0.556081 0.373641 0.203060
Si Si2 0.293150 0.374599 0.220477
Si Si3 0.410718 0.373727 0.851076
O O1 0.617276 0.250000 0.250000
O O2 0.426458 0.363799 0.294925
O O3 0.598679 0.503397 0.257900
O O4 0.526355 0.378907 0.983595
O O5 0.250000 0.500000 0.288622
O O6 0.230564 0.250000 0.250000
O O7 0.308223 0.379358 0.000792
O O8 0.410145 0.250000 0.750000
#
# Coordination Sequence:
#
# PCOD9413950 Si02
#       3
#     8   8   8
#     4   8  17  33  50  72  96 123 157 193 235 283
#     4   9  18  35  49  68  97 127 159 192 232 283
#     4   9  17  32  51  70  99 121 153 204 233 270
#
# _framework density 25.444821999999998
#
# number of rings (size 3 to 8) (size 9 to 14) (size 15 to 20)
#    2.000    1.333    0.000    0.000    0.000    2.667 
#    0.000    3.333    0.000    0.000    0.000    0.000 
#    0.000    0.000    0.000    0.000    0.000    0.000 
#
# Total GULP energy -133679.219000 kJ/mol
# GULP energy per Si atom -5569.967458 kJ/mol
# Density = 2.538691 g / cm^3
# Si number density = 25.444822 Si / 1000 Ang^3
#
#
#
# Elastic Constant Matrix: (Units=GPa)
#
#
# Indices 1 2 3 4 5 6 
#
# 1 49.3068 35.2648 4.5083 0.0000 0.0000 0.0000
# 2 35.2648 354.0122 43.6611 0.0000 0.0000 0.0000
# 3 4.5083 43.6611 33.2267 0.0000 0.0000 0.0000
# 4 0.0000 0.0000 0.0000 48.4966 0.0000 0.0000
# 5 0.0000 0.0000 0.0000 0.0000 20.2606 0.0000
# 6 0.0000 0.0000 0.0000 0.0000 0.0000 9.5131
#
#
#
# Elastic Compliance Matrix: (Units=1/GPa)
#
#
# Indices 1 2 3 4 5 6 
#
# 1 0.021837 -0.002160 -0.000125 0.000000 0.000000 0.000000
# 2 -0.002160 0.003585 -0.004417 0.000000 0.000000 0.000000
# 3 -0.000125 -0.004417 0.035918 0.000000 0.000000 0.000000
# 4 0.000000 0.000000 0.000000 0.020620 0.000000 0.000000
# 5 0.000000 0.000000 0.000000 0.000000 0.049357 0.000000
# 6 0.000000 0.000000 0.000000 0.000000 0.000000 0.105118
#
#
# Mechanical properties :
#
#
# Convention : Reuss Voigt Hill
#
# Bulk Modulus (GPa) = 20.86123 67.04603 43.95363
# Shear Modulus (GPa) = 18.80987 39.19482 29.00234
#
# Velocity S-wave (km/s) = 2.72185 3.92903 3.37977
# Velocity P-wave (km/s) = 4.25375 6.85491 5.70457
#
# Compressibility (1/GPa) = 0.04793582
#
# Stress axis : x y z
#
# Youngs Moduli (GPa) = 45.79303 278.96082 27.84132
#
# Poissons Ratio (x) = 0.60254 0.00347
# Poissons Ratio (y) = 0.09891 0.12299
# Poissons Ratio (z) = 0.00571 1.23228
#
# Static dielectric constant tensor:
#      x y z
#    x 2.160140 0.000000 0.000000 
#    y 0.000000 0.193240 0.000000 
#    z 0.000000 0.000000 2.015680 
# 
# From -- ./inp_files/4704.got.cif
#   From: 2010.05.17/outbox.cif.g08.bks.cpg/sg52_3_cif.got.tgz:4704.got - 2010.06.03 12:15:38.
