data_PCOD9413266
_publ_section_title
;
Structure prediction by ZEFSAII (Michael W. Deem and Ramdas Pophale) SiO2 
 PCOD9413266
Probable space group: P N N A
;
_chemical_formula_sum "Si O2"
_cell_formula_units_Z 32
_cell_length_a 15.196941
_cell_length_b 6.743200
_cell_length_c 14.121957
_cell_angle_alpha 90.000000
_cell_angle_beta 90.000000
_cell_angle_gamma 90.000000
_cell_volume 1447.161843
_symmetry_space_group_name_H-M "P N N A"
_symmetry_group_IT_number 52
_symmetry_cell_setting 'orthorhombic'
loop_
_space_group_symop_operation_xyz
x,y,z
1/2-x,-y,z
x,1/2-y,1/2-z
1/2-x,1/2+y,1/2-z
-x,-y,-z
1/2+x,y,-z
-x,1/2+y,1/2+z
1/2+x,1/2-y,1/2+z
loop_
_atom_site_type_symbol
_atom_site_label
_atom_site_fract_x
_atom_site_fract_y
_atom_site_fract_z
Si Si1 0.750000 0.000000 0.133110
Si Si2 0.602811 0.750000 0.750000
Si Si3 0.250000 0.000000 0.177407
Si Si4 0.201091 0.298180 0.028023
Si Si5 0.108797 0.750000 0.750000
Si Si6 0.526201 0.032332 0.608153
O O1 0.702298 0.159739 0.064093
O O2 0.825537 0.100110 0.196183
O O3 0.663362 0.552242 0.736195
O O4 0.545912 0.822579 0.660582
O O5 0.244043 0.815040 0.107468
O O6 0.250000 0.500000 0.002346
O O7 0.112051 0.335489 0.085889
O O8 0.045891 0.643538 0.827342
O O9 0.500000 0.000000 0.500000
#
# Coordination Sequence:
#
# PCOD9413266 Si02
#       6
#     4   4   4   8   4   8
#     4  11  30  48  85 106 162 210 273 320 411 500
#     4  12  24  44  74 116 158 202 256 332 394 474
#     4  11  22  42  75 106 142 200 249 316 385 474
#     4  11  23  49  76 112 152 205 260 327 401 474
#     4  12  30  52  76 120 154 222 264 336 406 484
#     4  12  28  46  76 113 160 201 267 332 394 469
#
# _framework density 22.112245000000001
#
# number of rings (size 3 to 8) (size 9 to 14) (size 15 to 20)
#    0.000    0.500    2.500    4.500   12.250    1.000 
#    0.000    0.000    0.000    0.000    0.000    0.000 
#    0.000    0.000    0.000    0.000    0.000    0.000 
#
# Total GULP energy -178547.260680 kJ/mol
# GULP energy per Si atom -5579.601896 kJ/mol
# Density = 2.206192 g / cm^3
# Si number density = 22.112245 Si / 1000 Ang^3
#
#
#
# Elastic Constant Matrix: (Units=GPa)
#
#
# Indices 1 2 3 4 5 6 
#
# 1 117.3360 57.8517 83.4615 0.0000 0.0000 0.0000
# 2 57.8517 124.8639 83.3248 0.0000 0.0000 0.0000
# 3 83.4615 83.3248 198.7736 0.0000 0.0000 0.0000
# 4 0.0000 0.0000 0.0000 138.9601 0.0000 0.0000
# 5 0.0000 0.0000 0.0000 0.0000 52.2126 0.0000
# 6 0.0000 0.0000 0.0000 0.0000 0.0000 43.5441
#
#
#
# Elastic Compliance Matrix: (Units=1/GPa)
#
#
# Indices 1 2 3 4 5 6 
#
# 1 0.013076 -0.003324 -0.004097 0.000000 0.000000 0.000000
# 2 -0.003324 0.011964 -0.003620 0.000000 0.000000 0.000000
# 3 -0.004097 -0.003620 0.008268 0.000000 0.000000 0.000000
# 4 0.000000 0.000000 0.000000 0.007196 0.000000 0.000000
# 5 0.000000 0.000000 0.000000 0.000000 0.019152 0.000000
# 6 0.000000 0.000000 0.000000 0.000000 0.000000 0.022965
#
#
# Mechanical properties :
#
#
# Convention : Reuss Voigt Hill
#
# Bulk Modulus (GPa) = 89.07043 98.91660 93.99351
# Shear Modulus (GPa) = 46.10608 61.36573 53.73591
#
# Velocity S-wave (km/s) = 4.57124 5.27372 4.93500
# Velocity P-wave (km/s) = 8.26015 9.05063 8.66441
#
# Compressibility (1/GPa) = 0.01122707
#
# Stress axis : x y z
#
# Youngs Moduli (GPa) = 76.47872 83.58152 120.94448
#
# Poissons Ratio (x) = 0.27785 0.49547
# Poissons Ratio (y) = 0.25424 0.43777
# Poissons Ratio (z) = 0.31331 0.30253
#
# Static dielectric constant tensor:
#      x y z
#    x 1.738260 0.000000 0.000000 
#    y 0.000000 1.997020 0.000000 
#    z 0.000000 0.000000 1.801330 
# 
# From -- ./inp_files/27757.got.cif
#   From: 2010.05.17/outbox.cif.g08.bks.cpg/sg52_14_cif.got.tgz:27757.got - 2010.06.03 12:15:38.
