data_PCOD9413232
_publ_section_title
;
Structure prediction by ZEFSAII (Michael W. Deem and Ramdas Pophale) SiO2 
 PCOD9413232
Probable space group: P N N A
;
_chemical_formula_sum "Si O2"
_cell_formula_units_Z 32
_cell_length_a 8.188955
_cell_length_b 15.678233
_cell_length_c 9.886991
_cell_angle_alpha 90.000000
_cell_angle_beta 90.000000
_cell_angle_gamma 90.000000
_cell_volume 1269.374407
_symmetry_space_group_name_H-M "P N N A"
_symmetry_group_IT_number 52
_symmetry_cell_setting 'orthorhombic'
loop_
_space_group_symop_operation_xyz
x,y,z
1/2-x,-y,z
x,1/2-y,1/2-z
1/2-x,1/2+y,1/2-z
-x,-y,-z
1/2+x,y,-z
-x,1/2+y,1/2+z
1/2+x,1/2-y,1/2+z
loop_
_atom_site_type_symbol
_atom_site_label
_atom_site_fract_x
_atom_site_fract_y
_atom_site_fract_z
Si Si1 0.992241 0.932419 0.376624
Si Si2 0.656443 0.579363 0.602811
Si Si3 0.071409 0.199913 0.074178
Si Si4 0.196470 0.677060 0.932337
O O1 0.056442 0.957668 0.230029
O O2 0.121358 0.861936 0.430630
O O3 0.809117 0.894574 0.364529
O O4 0.000000 0.000000 0.500000
O O5 0.750000 0.500000 0.536717
O O6 0.544195 0.631040 0.499002
O O7 0.793009 0.646993 0.654504
O O8 0.178632 0.246559 0.958665
O O9 0.963580 0.279005 0.128827
#
# Coordination Sequence:
#
# PCOD9413232 Si02
#       4
#     8   8   8   8
#     4  11  22  41  66  97 131 169 213 267 330 392
#     4  11  22  41  65  91 128 168 215 273 326 390
#     4   9  21  40  63  92 124 167 214 267 327 383
#     4   9  20  40  63  93 129 160 214 264 319 391
#
# _framework density 25.209267000000001
#
# number of rings (size 3 to 8) (size 9 to 14) (size 15 to 20)
#    0.000    2.000    0.000    3.000    0.000    9.000 
#    0.000   32.500    0.000    0.000    0.000    0.000 
#    0.000    0.000    0.000    0.000    0.000    0.000 
#
# Total GULP energy -178574.324625 kJ/mol
# GULP energy per Si atom -5580.447645 kJ/mol
# Density = 2.515189 g / cm^3
# Si number density = 25.209267 Si / 1000 Ang^3
#
#
#
# Elastic Constant Matrix: (Units=GPa)
#
#
# Indices 1 2 3 4 5 6 
#
# 1 137.2063 29.7694 15.4227 0.0000 0.0000 0.0000
# 2 29.7694 83.7029 3.5612 0.0000 0.0000 0.0000
# 3 15.4227 3.5612 57.5262 0.0000 0.0000 0.0000
# 4 0.0000 0.0000 0.0000 4.0537 0.0000 0.0000
# 5 0.0000 0.0000 0.0000 0.0000 30.8175 0.0000
# 6 0.0000 0.0000 0.0000 0.0000 0.0000 60.7887
#
#
#
# Elastic Compliance Matrix: (Units=1/GPa)
#
#
# Indices 1 2 3 4 5 6 
#
# 1 0.008122 -0.002803 -0.002004 0.000000 0.000000 0.000000
# 2 -0.002803 0.012946 -0.000050 0.000000 0.000000 0.000000
# 3 -0.002004 -0.000050 0.017924 0.000000 0.000000 0.000000
# 4 0.000000 0.000000 0.000000 0.246687 0.000000 0.000000
# 5 0.000000 0.000000 0.000000 0.000000 0.032449 0.000000
# 6 0.000000 0.000000 0.000000 0.000000 0.000000 0.016450
#
#
# Mechanical properties :
#
#
# Convention : Reuss Voigt Hill
#
# Bulk Modulus (GPa) = 34.15591 41.77132 37.96361
# Shear Modulus (GPa) = 14.12226 34.44414 24.28320
#
# Velocity S-wave (km/s) = 2.36942 3.70040 3.10702
# Velocity P-wave (km/s) = 4.58955 5.90450 5.28805
#
# Compressibility (1/GPa) = 0.02927751
#
# Stress axis : x y z
#
# Youngs Moduli (GPa) = 123.12584 77.24307 55.79196
#
# Poissons Ratio (x) = 0.21654 0.11180
# Poissons Ratio (y) = 0.34516 0.00278
# Poissons Ratio (z) = 0.24673 0.00385
#
# Static dielectric constant tensor:
#      x y z
#    x 2.006910 0.000000 0.000000 
#    y 0.000000 2.049340 0.000000 
#    z 0.000000 0.000000 2.026910 
# 
# From -- ./inp_files/16397.got.cif
#   From: 2010.05.17/outbox.cif.g08.bks.cpg/sg52_9_cif.got.tgz:16397.got - 2010.06.03 12:15:38.
