data_PCOD9413754
_publ_section_title
;
Structure prediction by ZEFSAII (Michael W. Deem and Ramdas Pophale) SiO2 
 PCOD9413754
Probable space group: P N N A
;
_chemical_formula_sum "Si O2"
_cell_formula_units_Z 36
_cell_length_a 23.742471
_cell_length_b 10.103574
_cell_length_c 7.020046
_cell_angle_alpha 90.000000
_cell_angle_beta 90.000000
_cell_angle_gamma 90.000000
_cell_volume 1683.995400
_symmetry_space_group_name_H-M "P N N A"
_symmetry_group_IT_number 52
_symmetry_cell_setting 'orthorhombic'
loop_
_space_group_symop_operation_xyz
x,y,z
1/2-x,-y,z
x,1/2-y,1/2-z
1/2-x,1/2+y,1/2-z
-x,-y,-z
1/2+x,y,-z
-x,1/2+y,1/2+z
1/2+x,1/2-y,1/2+z
loop_
_atom_site_type_symbol
_atom_site_label
_atom_site_fract_x
_atom_site_fract_y
_atom_site_fract_z
Si Si1 0.042343 0.750000 0.250000
Si Si2 0.630720 0.311053 0.563454
Si Si3 0.609668 0.830171 0.414329
Si Si4 0.813675 0.546625 0.888355
Si Si5 0.039742 0.463918 0.677245
O O1 0.081459 0.732324 0.433101
O O2 0.001263 0.629403 0.201195
O O3 0.597101 0.250000 0.750000
O O4 0.670008 0.418711 0.669501
O O5 0.668849 0.184678 0.506622
O O6 0.591036 0.377063 0.409417
O O7 0.641625 0.750000 0.250000
O O8 0.647050 0.932238 0.530801
O O9 0.563490 0.915892 0.299447
O O10 0.750000 0.500000 0.906986
O O11 0.000000 0.500000 0.500000
#
# Coordination Sequence:
#
# PCOD9413754 Si02
#       5
#     4   8   8   8   8
#     4  12  26  40  70  90 144 174 220 276 340 402
#     4   8  22  41  68  96 129 173 231 269 330 413
#     4  12  26  42  63 105 132 172 230 277 332 420
#     4   9  21  45  67  95 131 177 221 284 344 385
#     4  12  23  41  64  97 136 181 218 270 339 406
#
# _framework density 21.377731000000001
#
# number of rings (size 3 to 8) (size 9 to 14) (size 15 to 20)
#    1.333    0.000    2.222    3.333    3.111    1.778 
#    4.000    0.000    0.000    0.000    0.000    0.000 
#    0.000    0.000    0.000    0.000    0.000    0.000 
#
# Total GULP energy -200727.031265 kJ/mol
# GULP energy per Si atom -5575.750868 kJ/mol
# Density = 2.132907 g / cm^3
# Si number density = 21.377731 Si / 1000 Ang^3
#
#
#
# Elastic Constant Matrix: (Units=GPa)
#
#
# Indices 1 2 3 4 5 6 
#
# 1 96.9718 38.9218 34.6462 0.0000 0.0000 0.0000
# 2 38.9218 82.7648 27.7504 0.0000 0.0000 0.0000
# 3 34.6462 27.7504 62.7048 0.0000 0.0000 0.0000
# 4 0.0000 0.0000 0.0000 43.0854 0.0000 0.0000
# 5 0.0000 0.0000 0.0000 0.0000 11.2799 0.0000
# 6 0.0000 0.0000 0.0000 0.0000 0.0000 22.2261
#
#
#
# Elastic Compliance Matrix: (Units=1/GPa)
#
#
# Indices 1 2 3 4 5 6 
#
# 1 0.014299 -0.004786 -0.005783 0.000000 0.000000 0.000000
# 2 -0.004786 0.015789 -0.004344 0.000000 0.000000 0.000000
# 3 -0.005783 -0.004344 0.021065 0.000000 0.000000 0.000000
# 4 0.000000 0.000000 0.000000 0.023210 0.000000 0.000000
# 5 0.000000 0.000000 0.000000 0.000000 0.088653 0.000000
# 6 0.000000 0.000000 0.000000 0.000000 0.000000 0.044992
#
#
# Mechanical properties :
#
#
# Convention : Reuss Voigt Hill
#
# Bulk Modulus (GPa) = 46.88259 49.45313 48.16786
# Shear Modulus (GPa) = 20.41298 24.72649 22.56973
#
# Velocity S-wave (km/s) = 3.09345 3.40464 3.25277
# Velocity P-wave (km/s) = 5.89385 6.21600 6.05707
#
# Compressibility (1/GPa) = 0.02132988
#
# Stress axis : x y z
#
# Youngs Moduli (GPa) = 69.93428 63.33419 47.47170
#
# Poissons Ratio (x) = 0.30309 0.27452
# Poissons Ratio (y) = 0.33467 0.20619
# Poissons Ratio (z) = 0.40442 0.27509
#
# Static dielectric constant tensor:
#      x y z
#    x 1.732250 0.000000 0.000000 
#    y 0.000000 1.868060 0.000000 
#    z 0.000000 0.000000 1.789560 
# 
# From -- ./inp_files/4909.got.cif
#   From: 2010.05.17/outbox.cif.g08.bks.cpg/sg52_3_cif.got.tgz:4909.got - 2010.06.03 12:15:38.
