data_PCOD9413375
_publ_section_title
;
Structure prediction by ZEFSAII (Michael W. Deem and Ramdas Pophale) SiO2 
 PCOD9413375
Probable space group: P N N A
;
_chemical_formula_sum "Si O2"
_cell_formula_units_Z 40
_cell_length_a 11.811704
_cell_length_b 13.498946
_cell_length_c 12.317494
_cell_angle_alpha 90.000000
_cell_angle_beta 90.000000
_cell_angle_gamma 90.000000
_cell_volume 1963.969660
_symmetry_space_group_name_H-M "P N N A"
_symmetry_group_IT_number 52
_symmetry_cell_setting 'orthorhombic'
loop_
_space_group_symop_operation_xyz
x,y,z
1/2-x,-y,z
x,1/2-y,1/2-z
1/2-x,1/2+y,1/2-z
-x,-y,-z
1/2+x,y,-z
-x,1/2+y,1/2+z
1/2+x,1/2-y,1/2+z
loop_
_atom_site_type_symbol
_atom_site_label
_atom_site_fract_x
_atom_site_fract_y
_atom_site_fract_z
Si Si1 0.058078 0.259657 0.624808
Si Si2 0.250000 0.000000 0.297927
Si Si3 0.419635 0.250000 0.750000
Si Si4 0.385492 0.670276 0.094513
Si Si5 0.740823 0.893563 0.111578
Si Si6 0.690458 0.837240 0.877962
O O1 0.092101 0.250000 0.750000
O O2 0.090631 0.178590 0.534449
O O3 0.132489 0.354098 0.591766
O O4 0.925150 0.276520 0.623794
O O5 0.163771 0.064309 0.370088
O O6 0.303389 0.083691 0.219033
O O7 0.502629 0.304799 0.835559
O O8 0.338257 0.177482 0.817635
O O9 0.293771 0.757950 0.121542
O O10 0.750000 0.000000 0.164360
O O11 0.689531 0.896279 0.991127
#
# Coordination Sequence:
#
# PCOD9413375 Si02
#       6
#     8   4   4   8   8   8
#     4  11  24  45  65  95 141 184 224 289 341 409
#     4  12  22  42  70 110 132 180 236 282 352 424
#     4  12  22  48  66 104 144 176 228 300 350 408
#     4  11  25  43  70 101 142 184 223 292 352 409
#     4  11  25  42  69 102 134 186 233 282 353 422
#     4  11  23  43  70 100 138 177 235 286 341 413
#
# _framework density 20.366913
#
# number of rings (size 3 to 8) (size 9 to 14) (size 15 to 20)
#    0.000    0.800    6.000    1.200    2.800    0.800 
#    1.800    4.000    0.000    0.000    0.000    0.000 
#    0.000    0.000    0.000    0.000    0.000    0.000 
#
# Total GULP energy -223264.039291 kJ/mol
# GULP energy per Si atom -5581.600982 kJ/mol
# Density = 2.032056 g / cm^3
# Si number density = 20.366913 Si / 1000 Ang^3
#
#
#
# Elastic Constant Matrix: (Units=GPa)
#
#
# Indices 1 2 3 4 5 6 
#
# 1 107.2395 36.6849 30.3017 0.0000 0.0000 0.0000
# 2 36.6849 96.8255 46.3655 0.0000 0.0000 0.0000
# 3 30.3017 46.3655 151.2327 0.0000 0.0000 0.0000
# 4 0.0000 0.0000 0.0000 11.3949 0.0000 0.0000
# 5 0.0000 0.0000 0.0000 0.0000 12.6636 0.0000
# 6 0.0000 0.0000 0.0000 0.0000 0.0000 21.2740
#
#
#
# Elastic Compliance Matrix: (Units=1/GPa)
#
#
# Indices 1 2 3 4 5 6 
#
# 1 0.010860 -0.003601 -0.001072 0.000000 0.000000 0.000000
# 2 -0.003601 0.013299 -0.003356 0.000000 0.000000 0.000000
# 3 -0.001072 -0.003356 0.007856 0.000000 0.000000 0.000000
# 4 0.000000 0.000000 0.000000 0.087759 0.000000 0.000000
# 5 0.000000 0.000000 0.000000 0.000000 0.078967 0.000000
# 6 0.000000 0.000000 0.000000 0.000000 0.000000 0.047006
#
#
# Mechanical properties :
#
#
# Convention : Reuss Voigt Hill
#
# Bulk Modulus (GPa) = 62.66775 64.66690 63.66732
# Shear Modulus (GPa) = 18.71801 25.19621 21.95711
#
# Velocity S-wave (km/s) = 3.03486 3.52108 3.28697
# Velocity P-wave (km/s) = 6.56633 6.95346 6.76266
#
# Compressibility (1/GPa) = 0.01595717
#
# Stress axis : x y z
#
# Youngs Moduli (GPa) = 92.08350 75.19247 127.29280
#
# Poissons Ratio (x) = 0.27079 0.13644
# Poissons Ratio (y) = 0.33161 0.42716
# Poissons Ratio (z) = 0.09870 0.25233
#
# Static dielectric constant tensor:
#      x y z
#    x 1.703590 0.000000 0.000000 
#    y 0.000000 1.718230 0.000000 
#    z 0.000000 0.000000 1.824760 
# 
# From -- ./inp_files/18056.got.cif
#   From: 2010.05.17/outbox.cif.g08.bks.cpg/sg52_10_cif.got.tgz:18056.got - 2010.06.03 12:15:38.
