data_PCOD9413946
_publ_section_title
;
Structure prediction by ZEFSAII (Michael W. Deem and Ramdas Pophale) SiO2 
 PCOD9413946
Probable space group: P N N A
;
_chemical_formula_sum "Si O2"
_cell_formula_units_Z 24
_cell_length_a 13.332890
_cell_length_b 9.462270
_cell_length_c 8.065038
_cell_angle_alpha 90.000000
_cell_angle_beta 90.000000
_cell_angle_gamma 90.000000
_cell_volume 1017.480396
_symmetry_space_group_name_H-M "P N N A"
_symmetry_group_IT_number 52
_symmetry_cell_setting 'orthorhombic'
loop_
_space_group_symop_operation_xyz
x,y,z
1/2-x,-y,z
x,1/2-y,1/2-z
1/2-x,1/2+y,1/2-z
-x,-y,-z
1/2+x,y,-z
-x,1/2+y,1/2+z
1/2+x,1/2-y,1/2+z
loop_
_atom_site_type_symbol
_atom_site_label
_atom_site_fract_x
_atom_site_fract_y
_atom_site_fract_z
Si Si1 0.346921 0.095405 0.432178
Si Si2 0.685647 0.859120 0.094512
Si Si3 0.008210 0.406835 0.237956
O O1 0.309024 0.255738 0.438108
O O2 0.430325 0.088536 0.580995
O O3 0.250000 0.000000 0.467041
O O4 0.408846 0.025425 0.283112
O O5 0.711419 0.750000 0.250000
O O6 0.571559 0.911503 0.115211
O O7 0.750000 0.000000 0.093748
O O8 0.055002 0.250000 0.250000
#
# Coordination Sequence:
#
# PCOD9413946 Si02
#       3
#     8   8   8
#     4   9  16  28  51  75 100 136 176 218 265 311
#     4   9  16  28  50  75 101 137 182 222 260 310
#     4   8  15  28  49  74 101 137 176 217 262 313
#
# _framework density 23.587678
#
# number of rings (size 3 to 8) (size 9 to 14) (size 15 to 20)
#    0.000    4.000    0.000    4.000    0.000    0.000 
#    0.000    0.000    0.000   70.000    0.000    0.000 
#    0.000    0.000    0.000    0.000    0.000    0.000 
#
# Total GULP energy -133716.041090 kJ/mol
# GULP energy per Si atom -5571.501712 kJ/mol
# Density = 2.353399 g / cm^3
# Si number density = 23.587678 Si / 1000 Ang^3
#
#
#
# Elastic Constant Matrix: (Units=GPa)
#
#
# Indices 1 2 3 4 5 6 
#
# 1 83.9949 120.4525 31.3545 0.0000 0.0000 0.0000
# 2 120.4525 253.1355 64.6900 0.0000 0.0000 0.0000
# 3 31.3545 64.6900 76.5306 0.0000 0.0000 0.0000
# 4 0.0000 0.0000 0.0000 31.5981 0.0000 0.0000
# 5 0.0000 0.0000 0.0000 0.0000 2.6449 0.0000
# 6 0.0000 0.0000 0.0000 0.0000 0.0000 46.0499
#
#
#
# Elastic Compliance Matrix: (Units=1/GPa)
#
#
# Indices 1 2 3 4 5 6 
#
# 1 0.037491 -0.017748 -0.000358 0.000000 0.000000 0.000000
# 2 -0.017748 0.013441 -0.004090 0.000000 0.000000 0.000000
# 3 -0.000358 -0.004090 0.016670 0.000000 0.000000 0.000000
# 4 0.000000 0.000000 0.000000 0.031647 0.000000 0.000000
# 5 0.000000 0.000000 0.000000 0.000000 0.378090 0.000000
# 6 0.000000 0.000000 0.000000 0.000000 0.000000 0.021716
#
#
# Mechanical properties :
#
#
# Convention : Reuss Voigt Hill
#
# Bulk Modulus (GPa) = 43.08404 94.07278 68.57841
# Shear Modulus (GPa) = 9.07138 29.20284 19.13711
#
# Velocity S-wave (km/s) = 1.96320 3.52242 2.85145
# Velocity P-wave (km/s) = 4.84190 7.51745 6.32282
#
# Compressibility (1/GPa) = 0.02321045
#
# Stress axis : x y z
#
# Youngs Moduli (GPa) = 26.67310 74.39857 59.98645
#
# Poissons Ratio (x) = 1.32046 0.02145
# Poissons Ratio (y) = 0.47340 0.24535
# Poissons Ratio (z) = 0.00954 0.30429
#
# Static dielectric constant tensor:
#      x y z
#    x 1.836600 0.000000 0.000000 
#    y 0.000000 1.924130 0.000000 
#    z 0.000000 0.000000 2.070120 
# 
# From -- ./inp_files/20110.got.cif
#   From: 2010.05.17/outbox.cif.g08.bks.cpg/sg52_11_cif.got.tgz:20110.got - 2010.06.03 12:15:38.
