data_PCOD9413008
_publ_section_title
;
Structure prediction by ZEFSAII (Michael W. Deem and Ramdas Pophale) SiO2 
 PCOD9413008
Probable space group: P N N A
;
_chemical_formula_sum "Si O2"
_cell_formula_units_Z 32
_cell_length_a 7.516119
_cell_length_b 12.253441
_cell_length_c 17.464193
_cell_angle_alpha 90.000000
_cell_angle_beta 90.000000
_cell_angle_gamma 90.000000
_cell_volume 1608.422848
_symmetry_space_group_name_H-M "P N N A"
_symmetry_group_IT_number 52
_symmetry_cell_setting 'orthorhombic'
loop_
_space_group_symop_operation_xyz
x,y,z
1/2-x,-y,z
x,1/2-y,1/2-z
1/2-x,1/2+y,1/2-z
-x,-y,-z
1/2+x,y,-z
-x,1/2+y,1/2+z
1/2+x,1/2-y,1/2+z
loop_
_atom_site_type_symbol
_atom_site_label
_atom_site_fract_x
_atom_site_fract_y
_atom_site_fract_z
Si Si1 0.883297 0.295351 0.454230
Si Si2 0.240617 0.878417 0.102719
Si Si3 0.907753 0.077744 0.560386
Si Si4 0.423241 0.741749 0.836938
O O1 0.850163 0.386027 0.518658
O O2 0.869668 0.185120 0.507074
O O3 0.725953 0.290131 0.393151
O O4 0.070715 0.318668 0.412969
O O5 0.107780 0.807547 0.154061
O O6 0.250000 0.000000 0.134571
O O7 0.029221 0.122597 0.628992
O O8 0.750000 0.000000 0.590353
O O9 0.000000 0.000000 0.500000
O O10 0.363231 0.750000 0.750000
#
# Coordination Sequence:
#
# PCOD9413008 Si02
#       4
#     8   8   8   8
#     4  11  21  39  64  94 121 167 217 269 315 395
#     4  11  22  39  67  91 122 168 217 260 321 400
#     4  11  19  38  67  90 118 168 226 260 311 395
#     4  11  25  41  59  96 136 161 214 281 327 376
#
# _framework density 19.895265999999999
#
# number of rings (size 3 to 8) (size 9 to 14) (size 15 to 20)
#    0.000    1.000    7.500    2.250    0.000    2.000 
#    0.000    5.000    0.000    0.000    0.000    0.000 
#    0.000    0.000    0.000    0.000    0.000    0.000 
#
# Total GULP energy -178391.439201 kJ/mol
# GULP energy per Si atom -5574.732475 kJ/mol
# Density = 1.984998 g / cm^3
# Si number density = 19.895266 Si / 1000 Ang^3
#
#
#
# Elastic Constant Matrix: (Units=GPa)
#
#
# Indices 1 2 3 4 5 6 
#
# 1 78.6952 -0.2550 -12.5471 0.0000 0.0000 0.0000
# 2 -0.2550 75.0869 -3.9064 0.0000 0.0000 0.0000
# 3 -12.5471 -3.9064 73.5461 0.0000 0.0000 0.0000
# 4 0.0000 0.0000 0.0000 13.7444 0.0000 0.0000
# 5 0.0000 0.0000 0.0000 0.0000 24.5004 0.0000
# 6 0.0000 0.0000 0.0000 0.0000 0.0000 30.2187
#
#
#
# Elastic Compliance Matrix: (Units=1/GPa)
#
#
# Indices 1 2 3 4 5 6 
#
# 1 0.013065 0.000161 0.002237 0.000000 0.000000 0.000000
# 2 0.000161 0.013357 0.000737 0.000000 0.000000 0.000000
# 3 0.002237 0.000737 0.014018 0.000000 0.000000 0.000000
# 4 0.000000 0.000000 0.000000 0.072757 0.000000 0.000000
# 5 0.000000 0.000000 0.000000 0.000000 0.040816 0.000000
# 6 0.000000 0.000000 0.000000 0.000000 0.000000 0.033092
#
#
# Mechanical properties :
#
#
# Convention : Reuss Voigt Hill
#
# Bulk Modulus (GPa) = 21.40912 21.54568 21.47740
# Shear Modulus (GPa) = 25.45783 29.96182 27.70982
#
# Velocity S-wave (km/s) = 3.58102 3.88490 3.73605
# Velocity P-wave (km/s) = 5.28039 5.56564 5.42489
#
# Compressibility (1/GPa) = 0.04670907
#
# Stress axis : x y z
#
# Youngs Moduli (GPa) = 76.54328 74.86829 71.33808
#
# Poissons Ratio (x) = -0.01204 -0.15961
# Poissons Ratio (y) = -0.01231 -0.05257
# Poissons Ratio (z) = -0.17126 -0.05517
#
# Static dielectric constant tensor:
#      x y z
#    x 2.312320 0.000000 0.000000 
#    y 0.000000 1.944460 0.000000 
#    z 0.000000 0.000000 1.687060 
# 
# From -- ./inp_files/24083.got.cif
#   From: 2010.05.17/outbox.cif.g08.bks.cpg/sg52_13_cif.got.tgz:24083.got - 2010.06.03 12:15:38.
