data_PCOD9413859
_publ_section_title
;
Structure prediction by ZEFSAII (Michael W. Deem and Ramdas Pophale) SiO2 
 PCOD9413859
Probable space group: P N N A
;
_chemical_formula_sum "Si O2"
_cell_formula_units_Z 32
_cell_length_a 9.891473
_cell_length_b 12.708666
_cell_length_c 10.825442
_cell_angle_alpha 90.000000
_cell_angle_beta 90.000000
_cell_angle_gamma 90.000000
_cell_volume 1360.838456
_symmetry_space_group_name_H-M "P N N A"
_symmetry_group_IT_number 52
_symmetry_cell_setting 'orthorhombic'
loop_
_space_group_symop_operation_xyz
x,y,z
1/2-x,-y,z
x,1/2-y,1/2-z
1/2-x,1/2+y,1/2-z
-x,-y,-z
1/2+x,y,-z
-x,1/2+y,1/2+z
1/2+x,1/2-y,1/2+z
loop_
_atom_site_type_symbol
_atom_site_label
_atom_site_fract_x
_atom_site_fract_y
_atom_site_fract_z
Si Si1 0.318336 0.302230 0.055747
Si Si2 0.056969 0.611411 0.552445
Si Si3 0.906757 0.842808 0.353015
Si Si4 0.250000 0.500000 0.715016
Si Si5 0.382392 0.750000 0.250000
O O1 0.458418 0.363107 0.067897
O O2 0.218363 0.321386 0.169173
O O3 0.384278 0.184891 0.055340
O O4 0.225302 0.317983 0.936150
O O5 0.189996 0.589198 0.630615
O O6 0.000000 0.500000 0.500000
O O7 0.962966 0.680663 0.646393
O O8 0.922474 0.750000 0.250000
O O9 0.872177 0.952201 0.289210
#
# Coordination Sequence:
#
# PCOD9413859 Si02
#       5
#     8   8   8   4   4
#     4  12  25  47  74 107 151 200 243 321 386 448
#     4  12  25  48  76 113 146 205 261 314 385 472
#     4  12  25  48  72 105 151 194 250 314 386 454
#     4  12  26  44  74 104 146 196 250 308 376 470
#     4  12  26  46  76 110 156 192 256 326 390 458
#
# _framework density 23.514913
#
# number of rings (size 3 to 8) (size 9 to 14) (size 15 to 20)
#    0.000    0.000    6.250    4.500    0.000    1.000 
#    0.000    0.000    0.000    0.000    0.000    0.000 
#    0.000    0.000    0.000    0.000    0.000    0.000 
#
# Total GULP energy -178548.354705 kJ/mol
# GULP energy per Si atom -5579.636085 kJ/mol
# Density = 2.346139 g / cm^3
# Si number density = 23.514913 Si / 1000 Ang^3
#
#
#
# Elastic Constant Matrix: (Units=GPa)
#
#
# Indices 1 2 3 4 5 6 
#
# 1 145.6240 14.7242 46.6375 0.0000 0.0000 0.0000
# 2 14.7242 33.8875 13.7284 0.0000 0.0000 0.0000
# 3 46.6375 13.7284 92.0668 0.0000 0.0000 0.0000
# 4 0.0000 0.0000 0.0000 15.5873 0.0000 0.0000
# 5 0.0000 0.0000 0.0000 0.0000 30.2012 0.0000
# 6 0.0000 0.0000 0.0000 0.0000 0.0000 17.9024
#
#
#
# Elastic Compliance Matrix: (Units=1/GPa)
#
#
# Indices 1 2 3 4 5 6 
#
# 1 0.008326 -0.002032 -0.003915 0.000000 0.000000 0.000000
# 2 -0.002032 0.031902 -0.003728 0.000000 0.000000 0.000000
# 3 -0.003915 -0.003728 0.013401 0.000000 0.000000 0.000000
# 4 0.000000 0.000000 0.000000 0.064155 0.000000 0.000000
# 5 0.000000 0.000000 0.000000 0.000000 0.033111 0.000000
# 6 0.000000 0.000000 0.000000 0.000000 0.000000 0.055859
#
#
# Mechanical properties :
#
#
# Convention : Reuss Voigt Hill
#
# Bulk Modulus (GPa) = 29.17115 46.86205 38.01660
# Shear Modulus (GPa) = 21.05001 25.83739 23.44370
#
# Velocity S-wave (km/s) = 2.99520 3.31836 3.16091
# Velocity P-wave (km/s) = 4.93902 5.88676 5.43359
#
# Compressibility (1/GPa) = 0.03428045
#
# Stress axis : x y z
#
# Youngs Moduli (GPa) = 120.10318 31.34554 74.62352
#
# Poissons Ratio (x) = 0.06369 0.29213
# Poissons Ratio (y) = 0.24403 0.27818
# Poissons Ratio (z) = 0.47017 0.11685
#
# Static dielectric constant tensor:
#      x y z
#    x 1.907240 0.000000 0.000000 
#    y 0.000000 1.861290 0.000000 
#    z 0.000000 0.000000 2.050060 
# 
# From -- ./inp_files/16469.got.cif
#   From: 2010.05.17/outbox.cif.g08.bks.cpg/sg52_9_cif.got.tgz:16469.got - 2010.06.03 12:15:38.
