data_PCOD9413530
_publ_section_title
;
Structure prediction by ZEFSAII (Michael W. Deem and Ramdas Pophale) SiO2 
 PCOD9413530
Probable space group: P N N A
;
_chemical_formula_sum "Si O2"
_cell_formula_units_Z 40
_cell_length_a 8.437645
_cell_length_b 18.838486
_cell_length_c 8.786524
_cell_angle_alpha 90.000000
_cell_angle_beta 90.000000
_cell_angle_gamma 90.000000
_cell_volume 1396.639580
_symmetry_space_group_name_H-M "P N N A"
_symmetry_group_IT_number 52
_symmetry_cell_setting 'orthorhombic'
loop_
_space_group_symop_operation_xyz
x,y,z
1/2-x,-y,z
x,1/2-y,1/2-z
1/2-x,1/2+y,1/2-z
-x,-y,-z
1/2+x,y,-z
-x,1/2+y,1/2+z
1/2+x,1/2-y,1/2+z
loop_
_atom_site_type_symbol
_atom_site_label
_atom_site_fract_x
_atom_site_fract_y
_atom_site_fract_z
Si Si1 0.505396 0.231838 0.588002
Si Si2 0.178562 0.589459 0.860858
Si Si3 0.435426 0.827730 0.819002
Si Si4 0.070135 0.029215 0.160307
Si Si5 0.753963 0.868934 0.664059
O O1 0.438580 0.250000 0.750000
O O2 0.426347 0.154415 0.564695
O O3 0.500102 0.298877 0.479221
O O4 0.689104 0.208433 0.605672
O O5 0.287624 0.622465 0.725730
O O6 0.072223 0.527359 0.786018
O O7 0.271242 0.577675 0.020058
O O8 0.403872 0.750000 0.750000
O O9 0.583855 0.866175 0.741615
O O10 0.123693 0.110106 0.199976
O O11 0.250000 0.000000 0.177616
O O12 0.000000 0.000000 0.000000
#
# Coordination Sequence:
#
# PCOD9413530 Si02
#       5
#     8   8   8   8   8
#     4  11  25  39  66 114 171 218 248 294 383 487
#     4  11  24  46  77 117 160 208 268 327 402 494
#     4  12  22  43  77 117 169 209 244 299 394 497
#     4  11  29  56  80 107 150 208 282 357 417 457
#     4  11  24  46  77 116 158 208 268 321 398 497
#
# _framework density 28.640174999999999
#
# number of rings (size 3 to 8) (size 9 to 14) (size 15 to 20)
#    0.000    0.800    4.000    2.400    0.000    8.800 
#    0.000    1.000    0.000    0.000    0.000    0.000 
#    0.000    0.000    0.000    0.000    0.000    0.000 
#
# Total GULP energy -222961.454407 kJ/mol
# GULP energy per Si atom -5574.036360 kJ/mol
# Density = 2.857499 g / cm^3
# Si number density = 28.640175 Si / 1000 Ang^3
#
#
#
# Elastic Constant Matrix: (Units=GPa)
#
#
# Indices 1 2 3 4 5 6 
#
# 1 145.2735 38.0278 45.4757 0.0000 0.0000 0.0000
# 2 38.0278 99.5209 69.4439 0.0000 0.0000 0.0000
# 3 45.4757 69.4439 217.7244 0.0000 0.0000 0.0000
# 4 0.0000 0.0000 0.0000 51.8622 0.0000 0.0000
# 5 0.0000 0.0000 0.0000 0.0000 -34.2750 0.0000
# 6 0.0000 0.0000 0.0000 0.0000 0.0000 27.8873
#
#
#
# Elastic Compliance Matrix: (Units=1/GPa)
#
#
# Indices 1 2 3 4 5 6 
#
# 1 0.007775 -0.002364 -0.000870 0.000000 0.000000 0.000000
# 2 -0.002364 0.013643 -0.003858 0.000000 0.000000 0.000000
# 3 -0.000870 -0.003858 0.006005 0.000000 0.000000 0.000000
# 4 0.000000 0.000000 0.000000 0.019282 0.000000 0.000000
# 5 0.000000 0.000000 0.000000 0.000000 -0.029176 0.000000
# 6 0.000000 0.000000 0.000000 0.000000 0.000000 0.035859
#
#
# Mechanical properties :
#
#
# Convention : Reuss Voigt Hill
#
# Bulk Modulus (GPa) = 75.52874 85.37928 80.45401
# Shear Modulus (GPa) = 69.45968 29.73299 49.59634
#
# Velocity S-wave (km/s) = 4.93003 3.22554 4.16589
# Velocity P-wave (km/s) = 7.67045 6.61422 7.16183
#
# Compressibility (1/GPa) = 0.01323999
#
# Stress axis : x y z
#
# Youngs Moduli (GPa) = 128.62338 73.29608 166.52370
#
# Poissons Ratio (x) = 0.17325 0.14487
# Poissons Ratio (y) = 0.30403 0.64243
# Poissons Ratio (z) = 0.11190 0.28277
#
# Static dielectric constant tensor:
#      x y z
#    x 2.587120 0.000000 0.000000 
#    y 0.000000 2.578590 0.000000 
#    z 0.000000 0.000000 2.530560 
# 
# From -- ./inp_files/7427.got.cif
#   From: 2010.05.17/outbox.cif.g08.bks.cpg/sg52_4_cif.got.tgz:7427.got - 2010.06.03 12:15:38.
