data_PCOD9413886
_publ_section_title
;
Structure prediction by ZEFSAII (Michael W. Deem and Ramdas Pophale) SiO2 
 PCOD9413886
Probable space group: P N N A
;
_chemical_formula_sum "Si O2"
_cell_formula_units_Z 24
_cell_length_a 12.940353
_cell_length_b 16.096187
_cell_length_c 4.603170
_cell_angle_alpha 90.000000
_cell_angle_beta 90.000000
_cell_angle_gamma 90.000000
_cell_volume 958.795852
_symmetry_space_group_name_H-M "P N N A"
_symmetry_group_IT_number 52
_symmetry_cell_setting 'orthorhombic'
loop_
_space_group_symop_operation_xyz
x,y,z
1/2-x,-y,z
x,1/2-y,1/2-z
1/2-x,1/2+y,1/2-z
-x,-y,-z
1/2+x,y,-z
-x,1/2+y,1/2+z
1/2+x,1/2-y,1/2+z
loop_
_atom_site_type_symbol
_atom_site_label
_atom_site_fract_x
_atom_site_fract_y
_atom_site_fract_z
Si Si1 0.951857 0.579374 0.337138
Si Si2 0.125849 0.810852 0.483890
Si Si3 0.693151 0.078169 0.670287
O O1 0.876298 0.620913 0.579197
O O2 0.000000 0.500000 0.500000
O O3 0.033138 0.641919 0.184996
O O4 0.885864 0.546199 0.069967
O O5 0.174194 0.750000 0.250000
O O6 0.220499 0.873850 0.518043
O O7 0.096399 0.750000 0.750000
O O8 0.750000 0.000000 0.816044
#
# Coordination Sequence:
#
# PCOD9413886 Si02
#       3
#     8   8   8
#     4  12  26  47  80 116 153 211 275 328 401 488
#     4  12  28  49  75 115 164 210 263 340 409 478
#     4  12  26  46  81 113 155 210 272 329 400 486
#
# _framework density 25.031396999999998
#
# number of rings (size 3 to 8) (size 9 to 14) (size 15 to 20)
#    0.000    0.000    3.333    6.000    4.667    5.333 
#    0.000    0.000    0.000    0.000    0.000    0.000 
#    0.000    0.000    0.000    0.000    0.000    0.000 
#
# Total GULP energy -134037.796048 kJ/mol
# GULP energy per Si atom -5584.908169 kJ/mol
# Density = 2.497442 g / cm^3
# Si number density = 25.031397 Si / 1000 Ang^3
#
#
#
# Elastic Constant Matrix: (Units=GPa)
#
#
# Indices 1 2 3 4 5 6 
#
# 1 154.8342 66.6552 78.7866 0.0000 0.0000 0.0000
# 2 66.6552 101.3819 45.3624 0.0000 0.0000 0.0000
# 3 78.7866 45.3624 167.6860 0.0000 0.0000 0.0000
# 4 0.0000 0.0000 0.0000 61.0347 0.0000 0.0000
# 5 0.0000 0.0000 0.0000 0.0000 44.0380 0.0000
# 6 0.0000 0.0000 0.0000 0.0000 0.0000 13.5630
#
#
#
# Elastic Compliance Matrix: (Units=1/GPa)
#
#
# Indices 1 2 3 4 5 6 
#
# 1 0.010555 -0.005370 -0.003506 0.000000 0.000000 0.000000
# 2 -0.005370 0.013955 -0.001252 0.000000 0.000000 0.000000
# 3 -0.003506 -0.001252 0.007950 0.000000 0.000000 0.000000
# 4 0.000000 0.000000 0.000000 0.016384 0.000000 0.000000
# 5 0.000000 0.000000 0.000000 0.000000 0.022708 0.000000
# 6 0.000000 0.000000 0.000000 0.000000 0.000000 0.073730
#
#
# Mechanical properties :
#
#
# Convention : Reuss Voigt Hill
#
# Bulk Modulus (GPa) = 81.95395 89.50117 85.72756
# Shear Modulus (GPa) = 29.48035 39.26700 34.37367
#
# Velocity S-wave (km/s) = 3.43554 3.96499 3.70972
# Velocity P-wave (km/s) = 6.96769 7.53623 7.25753
#
# Compressibility (1/GPa) = 0.01220197
#
# Stress axis : x y z
#
# Youngs Moduli (GPa) = 94.74548 71.66057 125.79371
#
# Poissons Ratio (x) = 0.38485 0.44106
# Poissons Ratio (y) = 0.50883 0.15746
# Poissons Ratio (z) = 0.33220 0.08970
#
# Static dielectric constant tensor:
#      x y z
#    x 2.021760 0.000000 0.000000 
#    y 0.000000 1.136560 0.000000 
#    z 0.000000 0.000000 1.970810 
# 
# From -- ./inp_files/783.got.cif
#   From: 2010.05.17/outbox.cif.g08.bks.cpg/sg52_1_cif.got.tgz:783.got - 2010.06.03 12:15:38.
