data_PCOD9413203
_publ_section_title
;
Structure prediction by ZEFSAII (Michael W. Deem and Ramdas Pophale) SiO2 
 PCOD9413203
Probable space group: P N N A
;
_chemical_formula_sum "Si O2"
_cell_formula_units_Z 64
_cell_length_a 10.593084
_cell_length_b 29.246744
_cell_length_c 8.960149
_cell_angle_alpha 90.000000
_cell_angle_beta 90.000000
_cell_angle_gamma 90.000000
_cell_volume 2775.972577
_symmetry_space_group_name_H-M "P N N A"
_symmetry_group_IT_number 52
_symmetry_cell_setting 'orthorhombic'
loop_
_space_group_symop_operation_xyz
x,y,z
1/2-x,-y,z
x,1/2-y,1/2-z
1/2-x,1/2+y,1/2-z
-x,-y,-z
1/2+x,y,-z
-x,1/2+y,1/2+z
1/2+x,1/2-y,1/2+z
loop_
_atom_site_type_symbol
_atom_site_label
_atom_site_fract_x
_atom_site_fract_y
_atom_site_fract_z
Si Si1 0.637482 0.626783 0.714291
Si Si2 0.841610 0.930344 0.915509
Si Si3 0.937193 0.370864 0.378259
Si Si4 0.392152 0.987480 0.330723
Si Si5 0.951108 0.924537 0.423568
Si Si6 0.226435 0.290775 0.126889
Si Si7 0.249814 0.553984 0.726090
Si Si8 0.431857 0.207637 0.637349
O O1 0.709921 0.580266 0.667581
O O2 0.597406 0.644204 0.547957
O O3 0.532334 0.613974 0.839972
O O4 0.727112 0.663451 0.791303
O O5 0.889599 0.976476 0.842402
O O6 0.917969 0.884250 0.887885
O O7 0.844827 0.937514 0.090346
O O8 0.869102 0.418689 0.336138
O O9 0.908955 0.335876 0.245726
O O10 0.438484 0.939060 0.404071
O O11 0.250000 0.000000 0.383805
O O12 0.487143 0.027908 0.366164
O O13 0.807427 0.921103 0.368689
O O14 0.235735 0.250000 0.250000
O O15 0.078236 0.294626 0.079978
O O16 0.325532 0.285869 0.989772
O O17 0.250000 0.500000 0.752281
O O18 0.426284 0.250000 0.750000
#
# Coordination Sequence:
#
# PCOD9413203 Si02
#       8
#     8   8   8   8   8   8   8   8
#     4  11  23  42  67  98 135 179 233 287 360 422
#     4  11  22  39  62  92 129 182 228 291 347 416
#     4  11  24  43  69 100 140 185 235 298 359 428
#     4  11  23  38  60  87 133 181 233 296 363 418
#     4  11  24  40  59  92 128 177 235 296 350 424
#     4  11  26  49  78 112 148 188 231 291 361 440
#     4  11  24  40  64  96 135 185 247 299 350 419
#     4  11  26  50  79 114 149 186 234 293 365 436
#
# _framework density 23.054983
#
# number of rings (size 3 to 8) (size 9 to 14) (size 15 to 20)
#    0.000    1.000    3.750    2.250    3.500    4.500 
#    0.000    0.000    0.000    0.000    0.000    0.000 
#    0.000    0.000    0.000    0.000    0.000    0.000 
#
# Total GULP energy -357093.112020 kJ/mol
# GULP energy per Si atom -5579.579875 kJ/mol
# Density = 2.300251 g / cm^3
# Si number density = 23.054983 Si / 1000 Ang^3
#
#
#
# Elastic Constant Matrix: (Units=GPa)
#
#
# Indices 1 2 3 4 5 6 
#
# 1 90.4129 26.9478 46.0627 0.0000 0.0000 0.0000
# 2 26.9478 73.2844 20.4695 0.0000 0.0000 0.0000
# 3 46.0627 20.4695 108.1611 0.0000 0.0000 0.0000
# 4 0.0000 0.0000 0.0000 34.0542 0.0000 0.0000
# 5 0.0000 0.0000 0.0000 0.0000 32.0015 0.0000
# 6 0.0000 0.0000 0.0000 0.0000 0.0000 30.4400
#
#
#
# Elastic Compliance Matrix: (Units=1/GPa)
#
#
# Indices 1 2 3 4 5 6 
#
# 1 0.015150 -0.003979 -0.005699 0.000000 0.000000 0.000000
# 2 -0.003979 0.015452 -0.001230 0.000000 0.000000 0.000000
# 3 -0.005699 -0.001230 0.011905 0.000000 0.000000 0.000000
# 4 0.000000 0.000000 0.000000 0.029365 0.000000 0.000000
# 5 0.000000 0.000000 0.000000 0.000000 0.031249 0.000000
# 6 0.000000 0.000000 0.000000 0.000000 0.000000 0.032851
#
#
# Mechanical properties :
#
#
# Convention : Reuss Voigt Hill
#
# Bulk Modulus (GPa) = 48.32830 50.97983 49.65407
# Shear Modulus (GPa) = 30.36112 31.19104 30.77608
#
# Velocity S-wave (km/s) = 3.63285 3.68217 3.65759
# Velocity P-wave (km/s) = 6.21325 6.34335 6.27864
#
# Compressibility (1/GPa) = 0.02069181
#
# Stress axis : x y z
#
# Youngs Moduli (GPa) = 66.00799 64.71613 83.99720
#
# Poissons Ratio (x) = 0.25751 0.47868
# Poissons Ratio (y) = 0.26265 0.10330
# Poissons Ratio (z) = 0.37617 0.07959
#
# Static dielectric constant tensor:
#      x y z
#    x 1.977160 0.000000 0.000000 
#    y 0.000000 1.861430 0.000000 
#    z 0.000000 0.000000 1.894200 
# 
# From -- ./inp_files/9133.got.cif
#   From: 2010.05.17/outbox.cif.g08.bks.cpg/sg52_5_cif.got.tgz:9133.got - 2010.06.03 12:15:38.
