data_PCOD9413696
_publ_section_title
;
Structure prediction by ZEFSAII (Michael W. Deem and Ramdas Pophale) SiO2 
 PCOD9413696
Probable space group: P N N A
;
_chemical_formula_sum "Si O2"
_cell_formula_units_Z 44
_cell_length_a 12.556935
_cell_length_b 17.349657
_cell_length_c 7.693337
_cell_angle_alpha 90.000000
_cell_angle_beta 90.000000
_cell_angle_gamma 90.000000
_cell_volume 1676.058976
_symmetry_space_group_name_H-M "P N N A"
_symmetry_group_IT_number 52
_symmetry_cell_setting 'orthorhombic'
loop_
_space_group_symop_operation_xyz
x,y,z
1/2-x,-y,z
x,1/2-y,1/2-z
1/2-x,1/2+y,1/2-z
-x,-y,-z
1/2+x,y,-z
-x,1/2+y,1/2+z
1/2+x,1/2-y,1/2+z
loop_
_atom_site_type_symbol
_atom_site_label
_atom_site_fract_x
_atom_site_fract_y
_atom_site_fract_z
Si Si1 0.425707 0.597940 0.557104
Si Si2 0.535730 0.625809 0.223332
Si Si3 0.286236 0.250000 0.750000
Si Si4 0.750000 0.500000 0.614334
Si Si5 0.825331 0.250000 0.750000
Si Si6 0.419304 0.410150 0.149709
Si Si7 0.633723 0.235303 0.522853
O O1 0.499619 0.577620 0.389837
O O2 0.315253 0.558431 0.507686
O O3 0.473148 0.578803 0.742897
O O4 0.431553 0.691342 0.539421
O O5 0.628041 0.682823 0.289604
O O6 0.572068 0.577539 0.055454
O O7 0.435884 0.677473 0.141077
O O8 0.200182 0.200693 0.635855
O O9 0.670568 0.544564 0.744748
O O10 0.890323 0.319355 0.829938
O O11 0.738068 0.276019 0.609630
#
# Coordination Sequence:
#
# PCOD9413696 Si02
#       7
#     8   8   4   4   4   8   8
#     4  12  25  47  69 102 147 195 244 296 363 439
#     4  12  24  44  74 109 146 186 243 308 364 439
#     4  12  23  39  74 114 144 190 235 305 380 432
#     4  12  28  50  72 100 152 194 248 308 360 440
#     4  12  19  41  72 100 142 176 229 299 362 414
#     4  12  26  47  73 105 144 194 241 303 370 430
#     4  12  21  40  70 110 144 181 235 301 369 434
#
# _framework density 26.252058000000002
#
# number of rings (size 3 to 8) (size 9 to 14) (size 15 to 20)
#    0.000    0.000    7.273    3.818    0.000    0.727 
#    0.000    1.818    0.000    0.000    0.000    0.000 
#    0.000    0.000    0.000    0.000    0.000    0.000 
#
# Total GULP energy -245810.649735 kJ/mol
# GULP energy per Si atom -5586.605676 kJ/mol
# Density = 2.619231 g / cm^3
# Si number density = 26.252058 Si / 1000 Ang^3
#
#
#
# Elastic Constant Matrix: (Units=GPa)
#
#
# Indices 1 2 3 4 5 6 
#
# 1 108.0108 27.7197 53.5743 0.0000 0.0000 0.0000
# 2 27.7197 80.4247 -0.2687 0.0000 0.0000 0.0000
# 3 53.5743 -0.2687 95.4118 0.0000 0.0000 0.0000
# 4 0.0000 0.0000 0.0000 25.1851 0.0000 0.0000
# 5 0.0000 0.0000 0.0000 0.0000 34.1241 0.0000
# 6 0.0000 0.0000 0.0000 0.0000 0.0000 33.1068
#
#
#
# Elastic Compliance Matrix: (Units=1/GPa)
#
#
# Indices 1 2 3 4 5 6 
#
# 1 0.014648 -0.005076 -0.008239 0.000000 0.000000 0.000000
# 2 -0.005076 0.014193 0.002890 0.000000 0.000000 0.000000
# 3 -0.008239 0.002890 0.015115 0.000000 0.000000 0.000000
# 4 0.000000 0.000000 0.000000 0.039706 0.000000 0.000000
# 5 0.000000 0.000000 0.000000 0.000000 0.029305 0.000000
# 6 0.000000 0.000000 0.000000 0.000000 0.000000 0.030205
#
#
# Mechanical properties :
#
#
# Convention : Reuss Voigt Hill
#
# Bulk Modulus (GPa) = 43.27813 49.54421 46.41117
# Shear Modulus (GPa) = 29.11643 32.00467 30.56055
#
# Velocity S-wave (km/s) = 3.33394 3.49539 3.41562
# Velocity P-wave (km/s) = 5.59836 5.93328 5.76825
#
# Compressibility (1/GPa) = 0.02310636
#
# Stress axis : x y z
#
# Youngs Moduli (GPa) = 68.27006 70.45621 66.15803
#
# Poissons Ratio (x) = 0.35764 0.54508
# Poissons Ratio (y) = 0.34655 -0.19121
# Poissons Ratio (z) = 0.56248 -0.20364
#
# Static dielectric constant tensor:
#      x y z
#    x 2.052960 0.000000 0.000000 
#    y 0.000000 2.137560 0.000000 
#    z 0.000000 0.000000 2.856170 
# 
# From -- ./inp_files/10389.got.cif
#   From: 2010.05.17/outbox.cif.g08.bks.cpg/sg52_6_cif.got.tgz:10389.got - 2010.06.03 12:15:38.
