data_PCOD9413685
_publ_section_title
;
Structure prediction by ZEFSAII (Michael W. Deem and Ramdas Pophale) SiO2 
 PCOD9413685
Probable space group: P N N A
;
_chemical_formula_sum "Si O2"
_cell_formula_units_Z 28
_cell_length_a 13.959315
_cell_length_b 14.649039
_cell_length_c 5.690282
_cell_angle_alpha 90.000000
_cell_angle_beta 90.000000
_cell_angle_gamma 90.000000
_cell_volume 1163.608895
_symmetry_space_group_name_H-M "P N N A"
_symmetry_group_IT_number 52
_symmetry_cell_setting 'orthorhombic'
loop_
_space_group_symop_operation_xyz
x,y,z
1/2-x,-y,z
x,1/2-y,1/2-z
1/2-x,1/2+y,1/2-z
-x,-y,-z
1/2+x,y,-z
-x,1/2+y,1/2+z
1/2+x,1/2-y,1/2+z
loop_
_atom_site_type_symbol
_atom_site_label
_atom_site_fract_x
_atom_site_fract_y
_atom_site_fract_z
Si Si1 0.750000 0.000000 0.897265
Si Si2 0.588982 0.566478 0.955406
Si Si3 0.746589 0.143171 0.269830
Si Si4 0.073649 0.200326 0.502229
O O1 0.657761 0.961050 0.757002
O O2 0.788822 0.910714 0.040894
O O3 0.530099 0.660247 0.943000
O O4 0.500000 0.500000 0.000000
O O5 0.661328 0.582456 0.167865
O O6 0.776696 0.250000 0.250000
O O7 0.667785 0.135118 0.479466
O O8 0.095524 0.250000 0.750000
O O9 0.073987 0.250000 0.250000
#
# Coordination Sequence:
#
# PCOD9413685 Si02
#       4
#     4   8   8   8
#     4  12  28  50  80 120 166 226 272 358 412 504
#     4  12  28  47  78 116 161 212 277 337 418 487
#     4  11  28  49  79 115 167 220 274 345 422 495
#     4  11  28  49  81 117 158 209 275 332 403 493
#
# _framework density 24.063068999999999
#
# number of rings (size 3 to 8) (size 9 to 14) (size 15 to 20)
#    0.000    0.571    0.000    5.143   24.000    2.286 
#    0.000    0.000    0.000    0.000    0.000    0.000 
#    0.000    0.000    0.000    0.000    0.000    0.000 
#
# Total GULP energy -156046.749612 kJ/mol
# GULP energy per Si atom -5573.098200 kJ/mol
# Density = 2.400830 g / cm^3
# Si number density = 24.063069 Si / 1000 Ang^3
#
#
#
# Elastic Constant Matrix: (Units=GPa)
#
#
# Indices 1 2 3 4 5 6 
#
# 1 164.0257 40.5440 59.2680 0.0000 0.0000 0.0000
# 2 40.5440 106.6363 80.6694 0.0000 0.0000 0.0000
# 3 59.2680 80.6694 149.8393 0.0000 0.0000 0.0000
# 4 0.0000 0.0000 0.0000 51.1167 0.0000 0.0000
# 5 0.0000 0.0000 0.0000 0.0000 8.2820 0.0000
# 6 0.0000 0.0000 0.0000 0.0000 0.0000 45.9257
#
#
#
# Elastic Compliance Matrix: (Units=1/GPa)
#
#
# Indices 1 2 3 4 5 6 
#
# 1 0.007173 -0.000980 -0.002310 0.000000 0.000000 0.000000
# 2 -0.000980 0.015955 -0.008202 0.000000 0.000000 0.000000
# 3 -0.002310 -0.008202 0.012003 0.000000 0.000000 0.000000
# 4 0.000000 0.000000 0.000000 0.019563 0.000000 0.000000
# 5 0.000000 0.000000 0.000000 0.000000 0.120744 0.000000
# 6 0.000000 0.000000 0.000000 0.000000 0.000000 0.021774
#
#
# Mechanical properties :
#
#
# Convention : Reuss Voigt Hill
#
# Bulk Modulus (GPa) = 82.31912 86.82936 84.57424
# Shear Modulus (GPa) = 22.29687 37.06618 29.68152
#
# Velocity S-wave (km/s) = 3.04731 3.92902 3.51592
# Velocity P-wave (km/s) = 6.83122 7.53295 7.19065
#
# Compressibility (1/GPa) = 0.01214785
#
# Stress axis : x y z
#
# Youngs Moduli (GPa) = 139.40274 62.67557 83.31071
#
# Poissons Ratio (x) = 0.06143 0.19243
# Poissons Ratio (y) = 0.13663 0.68333
# Poissons Ratio (z) = 0.32199 0.51408
#
# Static dielectric constant tensor:
#      x y z
#    x 2.028330 0.000000 0.000000 
#    y 0.000000 2.697270 0.000000 
#    z 0.000000 0.000000 2.239960 
# 
# From -- ./inp_files/965.got.cif
#   From: 2010.05.17/outbox.cif.g08.bks.cpg/sg52_1_cif.got.tgz:965.got - 2010.06.03 12:15:38.
