data_PCOD9413705
_publ_section_title
;
Structure prediction by ZEFSAII (Michael W. Deem and Ramdas Pophale) SiO2 
 PCOD9413705
Probable space group: P N N A
;
_chemical_formula_sum "Si O2"
_cell_formula_units_Z 56
_cell_length_a 14.384885
_cell_length_b 11.910246
_cell_length_c 14.358065
_cell_angle_alpha 90.000000
_cell_angle_beta 90.000000
_cell_angle_gamma 90.000000
_cell_volume 2459.931655
_symmetry_space_group_name_H-M "P N N A"
_symmetry_group_IT_number 52
_symmetry_cell_setting 'orthorhombic'
loop_
_space_group_symop_operation_xyz
x,y,z
1/2-x,-y,z
x,1/2-y,1/2-z
1/2-x,1/2+y,1/2-z
-x,-y,-z
1/2+x,y,-z
-x,1/2+y,1/2+z
1/2+x,1/2-y,1/2+z
loop_
_atom_site_type_symbol
_atom_site_label
_atom_site_fract_x
_atom_site_fract_y
_atom_site_fract_z
Si Si1 0.188375 0.899238 0.906737
Si Si2 0.250000 0.000000 0.554579
Si Si3 0.489272 0.984002 0.868209
Si Si4 0.519244 0.736851 0.951611
Si Si5 0.604624 0.075587 0.325615
Si Si6 0.579043 0.211481 0.852975
Si Si7 0.739497 0.773926 0.553414
Si Si8 0.742074 0.750000 0.250000
O O1 0.179412 0.807549 0.827170
O O2 0.250000 0.000000 0.869065
O O3 0.090590 0.954778 0.929520
O O4 0.243669 0.836158 0.987487
O O5 0.341240 0.019444 0.617245
O O6 0.269656 0.889267 0.495508
O O7 0.503161 0.859408 0.905977
O O8 0.447480 0.969223 0.764613
O O9 0.570310 0.075974 0.861532
O O10 0.462717 0.645292 0.892672
O O11 0.628577 0.713826 0.935812
O O12 0.480390 0.740103 0.058264
O O13 0.687062 0.159870 0.294105
O O14 0.547422 0.250000 0.750000
O O15 0.685788 0.250722 0.866781
#
# Coordination Sequence:
#
# PCOD9413705 Si02
#       8
#     8   4   8   8   8   8   8   4
#     4  12  23  39  73 109 154 192 250 320 396 451
#     4  12  26  48  78 112 154 198 256 334 406 474
#     4  12  26  44  79 116 155 200 264 331 391 469
#     4  12  26  51  78 110 156 212 264 318 404 480
#     4  12  23  44  75 114 155 197 259 325 398 478
#     4  12  29  51  74 115 159 202 270 322 387 478
#     4  12  29  48  78 106 153 210 261 320 398 471
#     4  12  20  38  66 116 148 186 238 320 390 462
#
# _framework density 22.764861
#
# number of rings (size 3 to 8) (size 9 to 14) (size 15 to 20)
#    0.000    0.000    7.143    2.143    5.000    2.857 
#    0.000    0.000    0.000    0.000    0.000    0.000 
#    0.000    0.000    0.000    0.000    0.000    0.000 
#
# Total GULP energy -313233.297104 kJ/mol
# GULP energy per Si atom -5593.451734 kJ/mol
# Density = 2.271305 g / cm^3
# Si number density = 22.764861 Si / 1000 Ang^3
#
#
#
# Elastic Constant Matrix: (Units=GPa)
#
#
# Indices 1 2 3 4 5 6 
#
# 1 116.7865 25.5958 37.9104 0.0000 0.0000 0.0000
# 2 25.5958 67.8965 36.1963 0.0000 0.0000 0.0000
# 3 37.9104 36.1963 110.9842 0.0000 0.0000 0.0000
# 4 0.0000 0.0000 0.0000 34.8182 0.0000 0.0000
# 5 0.0000 0.0000 0.0000 0.0000 25.4495 0.0000
# 6 0.0000 0.0000 0.0000 0.0000 0.0000 34.1275
#
#
#
# Elastic Compliance Matrix: (Units=1/GPa)
#
#
# Indices 1 2 3 4 5 6 
#
# 1 0.009929 -0.002342 -0.002628 0.000000 0.000000 0.000000
# 2 -0.002342 0.018381 -0.005195 0.000000 0.000000 0.000000
# 3 -0.002628 -0.005195 0.011602 0.000000 0.000000 0.000000
# 4 0.000000 0.000000 0.000000 0.028721 0.000000 0.000000
# 5 0.000000 0.000000 0.000000 0.000000 0.039293 0.000000
# 6 0.000000 0.000000 0.000000 0.000000 0.000000 0.029302
#
#
# Mechanical properties :
#
#
# Convention : Reuss Voigt Hill
#
# Bulk Modulus (GPa) = 51.06567 55.00800 53.03683
# Shear Modulus (GPa) = 30.47223 31.94337 31.20780
#
# Velocity S-wave (km/s) = 3.66261 3.74998 3.70655
# Velocity P-wave (km/s) = 6.35348 6.55483 6.45494
#
# Compressibility (1/GPa) = 0.01958263
#
# Stress axis : x y z
#
# Youngs Moduli (GPa) = 100.71562 54.40541 86.19198
#
# Poissons Ratio (x) = 0.12743 0.22649
# Poissons Ratio (y) = 0.23590 0.44773
# Poissons Ratio (z) = 0.26465 0.28261
#
# Static dielectric constant tensor:
#      x y z
#    x 1.870080 0.000000 0.000000 
#    y 0.000000 1.816390 0.000000 
#    z 0.000000 0.000000 1.870990 
# 
# From -- ./inp_files/27315.got.cif
#   From: 2010.05.17/outbox.cif.g08.bks.cpg/sg52_14_cif.got.tgz:27315.got - 2010.06.03 12:15:38.
