data_PCOD9413917
_publ_section_title
;
Structure prediction by ZEFSAII (Michael W. Deem and Ramdas Pophale) SiO2 
 PCOD9413917
Probable space group: P N N A
;
_chemical_formula_sum "Si O2"
_cell_formula_units_Z 44
_cell_length_a 8.487071
_cell_length_b 16.682035
_cell_length_c 11.835733
_cell_angle_alpha 90.000000
_cell_angle_beta 90.000000
_cell_angle_gamma 90.000000
_cell_volume 1675.722198
_symmetry_space_group_name_H-M "P N N A"
_symmetry_group_IT_number 52
_symmetry_cell_setting 'orthorhombic'
loop_
_space_group_symop_operation_xyz
x,y,z
1/2-x,-y,z
x,1/2-y,1/2-z
1/2-x,1/2+y,1/2-z
-x,-y,-z
1/2+x,y,-z
-x,1/2+y,1/2+z
1/2+x,1/2-y,1/2+z
loop_
_atom_site_type_symbol
_atom_site_label
_atom_site_fract_x
_atom_site_fract_y
_atom_site_fract_z
Si Si1 0.480304 0.667669 0.259593
Si Si2 0.750000 0.000000 0.149509
Si Si3 0.910855 0.445122 0.720753
Si Si4 0.875290 0.353223 0.488439
Si Si5 0.173753 0.679562 0.110562
Si Si6 0.879655 0.443825 0.069372
O O1 0.578386 0.750000 0.250000
O O2 0.547292 0.610223 0.164637
O O3 0.483538 0.651985 0.394187
O O4 0.312040 0.816788 0.298294
O O5 0.571310 0.006920 0.197874
O O6 0.740757 0.911804 0.085390
O O7 0.750000 0.500000 0.747958
O O8 0.884230 0.405003 0.600710
O O9 0.857023 0.262730 0.543032
O O10 0.211049 0.615534 0.014398
O O11 0.053253 0.625896 0.187522
O O12 0.750000 0.500000 0.121345
O O13 0.000000 0.500000 0.000000
#
# Coordination Sequence:
#
# PCOD9413917 Si02
#       6
#     8   4   8   8   8   8
#     4  12  27  52  87 123 180 236 303 382 457 559
#     4  12  30  50  90 134 176 232 312 386 470 562
#     4  12  28  55  90 130 182 241 308 389 472 570
#     4  12  28  52  85 135 178 237 310 383 473 564
#     4  12  28  54  88 123 184 244 300 385 471 556
#     4  12  27  51  83 125 173 230 299 366 453 551
#
# _framework density 26.257334
#
# number of rings (size 3 to 8) (size 9 to 14) (size 15 to 20)
#    0.000    0.000    4.545    3.818    8.909    0.000 
#    0.000    1.818    0.000    4.364    0.000    0.000 
#    0.000    0.000    0.000    0.000    0.000    0.000 
#
# Total GULP energy -244935.892324 kJ/mol
# GULP energy per Si atom -5566.724826 kJ/mol
# Density = 2.619757 g / cm^3
# Si number density = 26.257334 Si / 1000 Ang^3
#
#
#
# Elastic Constant Matrix: (Units=GPa)
#
#
# Indices 1 2 3 4 5 6 
#
# 1 103.8982 64.2609 59.7398 0.0000 0.0000 0.0000
# 2 64.2609 161.6265 59.1894 0.0000 0.0000 0.0000
# 3 59.7398 59.1894 133.3659 0.0000 0.0000 0.0000
# 4 0.0000 0.0000 0.0000 90.1073 0.0000 0.0000
# 5 0.0000 0.0000 0.0000 0.0000 15.1341 0.0000
# 6 0.0000 0.0000 0.0000 0.0000 0.0000 22.5285
#
#
#
# Elastic Compliance Matrix: (Units=1/GPa)
#
#
# Indices 1 2 3 4 5 6 
#
# 1 0.015012 -0.004187 -0.004867 0.000000 0.000000 0.000000
# 2 -0.004187 0.008555 -0.001922 0.000000 0.000000 0.000000
# 3 -0.004867 -0.001922 0.010531 0.000000 0.000000 0.000000
# 4 0.000000 0.000000 0.000000 0.011098 0.000000 0.000000
# 5 0.000000 0.000000 0.000000 0.000000 0.066076 0.000000
# 6 0.000000 0.000000 0.000000 0.000000 0.000000 0.044388
#
#
# Mechanical properties :
#
#
# Convention : Reuss Voigt Hill
#
# Bulk Modulus (GPa) = 82.31057 85.03011 83.67034
# Shear Modulus (GPa) = 27.52394 39.93402 33.72898
#
# Velocity S-wave (km/s) = 3.24116 3.90407 3.58796
# Velocity P-wave (km/s) = 6.73963 7.26471 7.00709
#
# Compressibility (1/GPa) = 0.01214911
#
# Stress axis : x y z
#
# Youngs Moduli (GPa) = 66.61162 116.88575 94.95812
#
# Poissons Ratio (x) = 0.48935 0.46212
# Poissons Ratio (y) = 0.27887 0.18248
# Poissons Ratio (z) = 0.32417 0.22461
#
# Static dielectric constant tensor:
#      x y z
#    x 2.291250 0.000000 0.000000 
#    y 0.000000 2.390610 0.000000 
#    z 0.000000 0.000000 2.112890 
# 
# From -- ./inp_files/31175.got.cif
#   From: 2010.05.17/outbox.cif.g08.bks.cpg/sg52_16_cif.got.tgz:31175.got - 2010.06.03 12:15:38.
