data_PCOD9413541
_publ_section_title
;
Structure prediction by ZEFSAII (Michael W. Deem and Ramdas Pophale) SiO2 
 PCOD9413541
Probable space group: P N N A
;
_chemical_formula_sum "Si O2"
_cell_formula_units_Z 28
_cell_length_a 10.870482
_cell_length_b 16.406669
_cell_length_c 6.638129
_cell_angle_alpha 90.000000
_cell_angle_beta 90.000000
_cell_angle_gamma 90.000000
_cell_volume 1183.899686
_symmetry_space_group_name_H-M "P N N A"
_symmetry_group_IT_number 52
_symmetry_cell_setting 'orthorhombic'
loop_
_space_group_symop_operation_xyz
x,y,z
1/2-x,-y,z
x,1/2-y,1/2-z
1/2-x,1/2+y,1/2-z
-x,-y,-z
1/2+x,y,-z
-x,1/2+y,1/2+z
1/2+x,1/2-y,1/2+z
loop_
_atom_site_type_symbol
_atom_site_label
_atom_site_fract_x
_atom_site_fract_y
_atom_site_fract_z
Si Si1 0.730122 0.323143 0.153587
Si Si2 0.455477 0.129467 0.928425
Si Si3 0.336804 0.750000 0.250000
Si Si4 0.039244 0.458686 0.792937
O O1 0.649734 0.250000 0.250000
O O2 0.842241 0.329067 0.311559
O O3 0.662614 0.408877 0.163437
O O4 0.741882 0.295865 0.921656
O O5 0.574386 0.181195 0.853275
O O6 0.449115 0.038549 0.840764
O O7 0.458317 0.108147 0.167383
O O8 0.000000 0.500000 0.000000
#
# Coordination Sequence:
#
# PCOD9413541 Si02
#       4
#     8   8   4   8
#     4  12  25  45  74 111 151 202 260 316 398 465
#     4  11  25  46  74 108 151 197 251 329 386 465
#     4  12  24  46  74 112 150 200 260 316 388 474
#     4  11  24  47  75 107 151 199 259 324 388 462
#
# _framework density 23.650649999999999
#
# number of rings (size 3 to 8) (size 9 to 14) (size 15 to 20)
#    0.000    0.571    7.143    0.857    0.000    2.286 
#    2.571    2.857    0.000    0.000    0.000    0.000 
#    0.000    0.000    0.000    0.000    0.000    0.000 
#
# Total GULP energy -155916.149448 kJ/mol
# GULP energy per Si atom -5568.433909 kJ/mol
# Density = 2.359682 g / cm^3
# Si number density = 23.650650 Si / 1000 Ang^3
#
#
#
# Elastic Constant Matrix: (Units=GPa)
#
#
# Indices 1 2 3 4 5 6 
#
# 1 73.5375 37.2584 73.1432 0.0000 0.0000 0.0000
# 2 37.2584 152.6844 56.4174 0.0000 0.0000 0.0000
# 3 73.1432 56.4174 189.5828 0.0000 0.0000 0.0000
# 4 0.0000 0.0000 0.0000 68.4549 0.0000 0.0000
# 5 0.0000 0.0000 0.0000 0.0000 20.7945 0.0000
# 6 0.0000 0.0000 0.0000 0.0000 0.0000 30.0855
#
#
#
# Elastic Compliance Matrix: (Units=1/GPa)
#
#
# Indices 1 2 3 4 5 6 
#
# 1 0.022961 -0.002618 -0.008080 0.000000 0.000000 0.000000
# 2 -0.002618 0.007657 -0.001269 0.000000 0.000000 0.000000
# 3 -0.008080 -0.001269 0.008770 0.000000 0.000000 0.000000
# 4 0.000000 0.000000 0.000000 0.014608 0.000000 0.000000
# 5 0.000000 0.000000 0.000000 0.000000 0.048090 0.000000
# 6 0.000000 0.000000 0.000000 0.000000 0.000000 0.033239
#
#
# Mechanical properties :
#
#
# Convention : Reuss Voigt Hill
#
# Bulk Modulus (GPa) = 64.70125 83.27141 73.98633
# Shear Modulus (GPa) = 30.41218 40.46603 35.43910
#
# Velocity S-wave (km/s) = 3.58982 4.14090 3.87517
# Velocity P-wave (km/s) = 6.67824 7.62549 7.16753
#
# Compressibility (1/GPa) = 0.01545565
#
# Stress axis : x y z
#
# Youngs Moduli (GPa) = 43.55194 130.59935 114.03106
#
# Poissons Ratio (x) = 0.34185 0.92134
# Poissons Ratio (y) = 0.11400 0.14468
# Poissons Ratio (z) = 0.35189 0.16570
#
# Static dielectric constant tensor:
#      x y z
#    x 1.978250 0.000000 0.000000 
#    y 0.000000 1.924900 0.000000 
#    z 0.000000 0.000000 2.120740 
# 
# From -- ./inp_files/928.got.cif
#   From: 2010.05.17/outbox.cif.g08.bks.cpg/sg52_1_cif.got.tgz:928.got - 2010.06.03 12:15:38.
