data_PCOD9413905
_publ_section_title
;
Structure prediction by ZEFSAII (Michael W. Deem and Ramdas Pophale) SiO2 
 PCOD9413905
Probable space group: P N N A
;
_chemical_formula_sum "Si O2"
_cell_formula_units_Z 28
_cell_length_a 11.299946
_cell_length_b 18.660979
_cell_length_c 4.755355
_cell_angle_alpha 90.000000
_cell_angle_beta 90.000000
_cell_angle_gamma 90.000000
_cell_volume 1002.752460
_symmetry_space_group_name_H-M "P N N A"
_symmetry_group_IT_number 52
_symmetry_cell_setting 'orthorhombic'
loop_
_space_group_symop_operation_xyz
x,y,z
1/2-x,-y,z
x,1/2-y,1/2-z
1/2-x,1/2+y,1/2-z
-x,-y,-z
1/2+x,y,-z
-x,1/2+y,1/2+z
1/2+x,1/2-y,1/2+z
loop_
_atom_site_type_symbol
_atom_site_label
_atom_site_fract_x
_atom_site_fract_y
_atom_site_fract_z
Si Si1 0.906973 0.177381 0.100592
Si Si2 0.257196 0.363607 0.135317
Si Si3 0.750000 0.500000 0.532703
Si Si4 0.047412 0.071902 0.669385
O O1 0.954549 0.250000 0.250000
O O2 0.843262 0.141713 0.367710
O O3 0.989729 0.128627 0.899239
O O4 0.378333 0.875348 0.457979
O O5 0.294799 0.438834 0.267330
O O6 0.293998 0.310983 0.389547
O O7 0.853418 0.533044 0.354739
O O8 0.000000 0.000000 0.500000
#
# Coordination Sequence:
#
# PCOD9413905 Si02
#       4
#     8   8   4   8
#     4  12  30  58  86 126 186 249 307 372 481 591
#     4  12  28  52  86 130 176 232 301 394 460 556
#     4  12  26  52  84 132 176 220 308 402 466 526
#     4  12  29  53  96 136 178 238 318 400 475 554
#
# _framework density 27.923144000000001
#
# number of rings (size 3 to 8) (size 9 to 14) (size 15 to 20)
#    0.000    0.000    2.857    5.143    4.000    3.429 
#    5.143    0.000    6.286    0.000    0.000    0.000 
#    0.000    0.000    0.000    0.000    0.000    0.000 
#
# Total GULP energy -156314.698841 kJ/mol
# GULP energy per Si atom -5582.667816 kJ/mol
# Density = 2.785959 g / cm^3
# Si number density = 27.923144 Si / 1000 Ang^3
#
#
#
# Elastic Constant Matrix: (Units=GPa)
#
#
# Indices 1 2 3 4 5 6 
#
# 1 113.2017 75.5759 90.9734 0.0000 0.0000 0.0000
# 2 75.5759 168.2252 100.2462 0.0000 0.0000 0.0000
# 3 90.9734 100.2462 261.7450 0.0000 0.0000 0.0000
# 4 0.0000 0.0000 0.0000 66.8157 0.0000 0.0000
# 5 0.0000 0.0000 0.0000 0.0000 49.1399 0.0000
# 6 0.0000 0.0000 0.0000 0.0000 0.0000 31.1577
#
#
#
# Elastic Compliance Matrix: (Units=1/GPa)
#
#
# Indices 1 2 3 4 5 6 
#
# 1 0.014534 -0.004560 -0.003305 0.000000 0.000000 0.000000
# 2 -0.004560 0.009133 -0.001913 0.000000 0.000000 0.000000
# 3 -0.003305 -0.001913 0.005702 0.000000 0.000000 0.000000
# 4 0.000000 0.000000 0.000000 0.014967 0.000000 0.000000
# 5 0.000000 0.000000 0.000000 0.000000 0.020350 0.000000
# 6 0.000000 0.000000 0.000000 0.000000 0.000000 0.032095
#
#
# Mechanical properties :
#
#
# Convention : Reuss Voigt Hill
#
# Bulk Modulus (GPa) = 101.90659 119.64034 110.77347
# Shear Modulus (GPa) = 41.80324 47.84775 44.82550
#
# Velocity S-wave (km/s) = 3.87341 4.14400 4.01099
# Velocity P-wave (km/s) = 7.52190 8.11396 7.82353
#
# Compressibility (1/GPa) = 0.00981291
#
# Stress axis : x y z
#
# Youngs Moduli (GPa) = 68.80251 109.49343 175.37979
#
# Poissons Ratio (x) = 0.49930 0.57966
# Poissons Ratio (y) = 0.31374 0.33549
# Poissons Ratio (z) = 0.22740 0.20945
#
# Static dielectric constant tensor:
#      x y z
#    x 2.687030 0.000000 0.000000 
#    y 0.000000 2.305810 0.000000 
#    z 0.000000 0.000000 2.192510 
# 
# From -- ./inp_files/9768.got.cif
#   From: 2010.05.17/outbox.cif.g08.bks.cpg/sg52_5_cif.got.tgz:9768.got - 2010.06.03 12:15:38.
