data_PCOD9413184
_publ_section_title
;
Structure prediction by ZEFSAII (Michael W. Deem and Ramdas Pophale) SiO2 
 PCOD9413184
Probable space group: P N N A
;
_chemical_formula_sum "Si O2"
_cell_formula_units_Z 60
_cell_length_a 25.552669
_cell_length_b 5.244465
_cell_length_c 20.855166
_cell_angle_alpha 90.000000
_cell_angle_beta 90.000000
_cell_angle_gamma 90.000000
_cell_volume 2794.802427
_symmetry_space_group_name_H-M "P N N A"
_symmetry_group_IT_number 52
_symmetry_cell_setting 'orthorhombic'
loop_
_space_group_symop_operation_xyz
x,y,z
1/2-x,-y,z
x,1/2-y,1/2-z
1/2-x,1/2+y,1/2-z
-x,-y,-z
1/2+x,y,-z
-x,1/2+y,1/2+z
1/2+x,1/2-y,1/2+z
loop_
_atom_site_type_symbol
_atom_site_label
_atom_site_fract_x
_atom_site_fract_y
_atom_site_fract_z
Si Si1 0.560770 0.038210 0.987986
Si Si2 0.302557 0.846703 0.833237
Si Si3 0.114652 0.622148 0.609509
Si Si4 0.627108 0.250000 0.250000
Si Si5 0.310787 0.964645 0.541109
Si Si6 0.391578 0.482640 0.069005
Si Si7 0.962189 0.429072 0.187522
Si Si8 0.080762 0.504869 0.207021
O O1 0.585887 0.791132 0.953181
O O2 0.568051 0.292837 0.947556
O O3 0.592686 0.066111 0.054939
O O4 0.500000 0.000000 0.000000
O O5 0.320800 0.610075 0.790520
O O6 0.307155 0.763877 0.907065
O O7 0.250000 0.000000 0.823250
O O8 0.357967 0.004869 0.825521
O O9 0.062480 0.771380 0.629507
O O10 0.158546 0.807343 0.578615
O O11 0.581975 0.367137 0.202441
O O12 0.342080 0.945229 0.475079
O O13 0.250000 0.000000 0.526373
O O14 0.382884 0.492951 0.144659
O O15 0.964293 0.250000 0.250000
O O16 0.020851 0.529693 0.180398
O O17 0.090954 0.750000 0.250000
O O18 0.084593 0.250000 0.250000
#
# Coordination Sequence:
#
# PCOD9413184 Si02
#       8
#     8   8   8   4   8   8   8   8
#     4  11  23  39  62  96 132 168 209 269 329 393
#     4  12  24  38  59  83 122 168 223 277 326 369
#     4  11  22  37  59  84 121 165 211 268 317 382
#     4  12  24  36  58  82 122 166 228 266 318 374
#     4  11  23  41  64  88 122 167 216 272 334 387
#     4  11  24  42  66  98 128 168 221 266 333 403
#     4  11  22  37  57  85 119 172 213 259 317 385
#     4  11  24  43  68  97 132 170 211 264 329 406
#
# _framework density 21.468423000000001
#
# number of rings (size 3 to 8) (size 9 to 14) (size 15 to 20)
#    0.000    0.800    6.000    2.000    0.000    4.800 
#    0.000    0.000    0.000    0.800    0.000    0.000 
#    0.000    0.000    0.000    0.000    0.000    0.000 
#
# Total GULP energy -334328.715225 kJ/mol
# GULP energy per Si atom -5572.145254 kJ/mol
# Density = 2.141956 g / cm^3
# Si number density = 21.468423 Si / 1000 Ang^3
#
#
#
# Elastic Constant Matrix: (Units=GPa)
#
#
# Indices 1 2 3 4 5 6 
#
# 1 71.8865 -3.8873 32.7642 0.0000 0.0000 0.0000
# 2 -3.8873 47.5708 22.6230 0.0000 0.0000 0.0000
# 3 32.7642 22.6230 112.9464 0.0000 0.0000 0.0000
# 4 0.0000 0.0000 0.0000 20.9411 0.0000 0.0000
# 5 0.0000 0.0000 0.0000 0.0000 38.5349 0.0000
# 6 0.0000 0.0000 0.0000 0.0000 0.0000 -19.6737
#
#
#
# Elastic Compliance Matrix: (Units=1/GPa)
#
#
# Indices 1 2 3 4 5 6 
#
# 1 0.016710 0.004057 -0.005660 0.000000 0.000000 0.000000
# 2 0.004057 0.024220 -0.006028 0.000000 0.000000 0.000000
# 3 -0.005660 -0.006028 0.011703 0.000000 0.000000 0.000000
# 4 0.000000 0.000000 0.000000 0.047753 0.000000 0.000000
# 5 0.000000 0.000000 0.000000 0.000000 0.025950 0.000000
# 6 0.000000 0.000000 0.000000 0.000000 0.000000 -0.050829
#
#
# Mechanical properties :
#
#
# Convention : Reuss Voigt Hill
#
# Bulk Modulus (GPa) = 26.75890 37.26705 32.01298
# Shear Modulus (GPa) = 48.43771 20.02071 34.22921
#
# Velocity S-wave (km/s) = 4.75513 3.05711 3.99732
# Velocity P-wave (km/s) = 6.52991 5.46424 6.02070
#
# Compressibility (1/GPa) = 0.03737074
#
# Stress axis : x y z
#
# Youngs Moduli (GPa) = 59.84485 41.28893 85.44790
#
# Poissons Ratio (x) = -0.16751 0.48363
# Poissons Ratio (y) = -0.24280 0.51509
# Poissons Ratio (z) = 0.33872 0.24889
#
# Static dielectric constant tensor:
#      x y z
#    x 1.779670 0.000000 0.000000 
#    y 0.000000 1.665770 0.000000 
#    z 0.000000 0.000000 1.802880 
# 
# From -- ./inp_files/38194.got.cif
#   From: 2010.05.17/outbox.cif.g08.bks.cpg/sg52_20_cif.got.tgz:38194.got - 2010.06.03 12:15:38.
