data_PCOD9413940
_publ_section_title
;
Structure prediction by ZEFSAII (Michael W. Deem and Ramdas Pophale) SiO2 
 PCOD9413940
Probable space group: P N N A
;
_chemical_formula_sum "Si O2"
_cell_formula_units_Z 48
_cell_length_a 11.143418
_cell_length_b 7.193268
_cell_length_c 26.848900
_cell_angle_alpha 90.000000
_cell_angle_beta 90.000000
_cell_angle_gamma 90.000000
_cell_volume 2152.143175
_symmetry_space_group_name_H-M "P N N A"
_symmetry_group_IT_number 52
_symmetry_cell_setting 'orthorhombic'
loop_
_space_group_symop_operation_xyz
x,y,z
1/2-x,-y,z
x,1/2-y,1/2-z
1/2-x,1/2+y,1/2-z
-x,-y,-z
1/2+x,y,-z
-x,1/2+y,1/2+z
1/2+x,1/2-y,1/2+z
loop_
_atom_site_type_symbol
_atom_site_label
_atom_site_fract_x
_atom_site_fract_y
_atom_site_fract_z
Si Si1 0.002992 0.283860 0.691321
Si Si2 0.260977 0.773323 0.864018
Si Si3 0.754483 0.726871 0.478667
Si Si4 0.241585 0.278980 0.309315
Si Si5 0.998096 0.302833 0.352940
Si Si6 0.006873 0.302863 0.471853
O O1 0.008256 0.250000 0.750000
O O2 0.123690 0.211852 0.666322
O O3 0.872765 0.208403 0.674342
O O4 0.003759 0.502860 0.677214
O O5 0.281030 0.723404 0.921518
O O6 0.131094 0.708285 0.844655
O O7 0.250000 0.000000 0.862634
O O8 0.750000 0.500000 0.481462
O O9 0.618233 0.793218 0.488074
O O10 0.865641 0.783701 0.512974
O O11 0.250000 0.500000 0.318805
O O12 0.229585 0.250000 0.250000
O O13 0.121545 0.208959 0.335750
O O14 0.002354 0.335222 0.412490
O O15 0.000000 0.500000 0.500000
#
# Coordination Sequence:
#
# PCOD9413940 Si02
#       6
#     8   8   8   8   8   8
#     4   9  16  25  37  53  73 101 135 171 204 237
#     4   8  14  25  36  50  74 104 135 167 201 241
#     4   8  14  21  31  48  71  98 129 157 190 242
#     4   9  18  30  43  60  82 111 143 178 213 248
#     4   9  17  27  39  56  80 109 139 169 204 250
#     4   9  15  22  34  53  76 105 132 158 198 250
#
# _framework density 22.303349000000001
#
# number of rings (size 3 to 8) (size 9 to 14) (size 15 to 20)
#    0.000    3.333    0.000    3.000    0.000    8.000 
#    0.000    0.000    0.000    0.000    0.000    0.000 
#    0.000    0.000    0.000  139.500    0.000  139.833 
#
# Total GULP energy -267541.709189 kJ/mol
# GULP energy per Si atom -5573.785608 kJ/mol
# Density = 2.225259 g / cm^3
# Si number density = 22.303349 Si / 1000 Ang^3
#
#
#
# Elastic Constant Matrix: (Units=GPa)
#
#
# Indices 1 2 3 4 5 6 
#
# 1 280.0484 7.6414 95.8868 0.0000 0.0000 0.0000
# 2 7.6414 94.0694 20.6191 0.0000 0.0000 0.0000
# 3 95.8868 20.6191 67.0902 0.0000 0.0000 0.0000
# 4 0.0000 0.0000 0.0000 -0.5242 0.0000 0.0000
# 5 0.0000 0.0000 0.0000 0.0000 51.1325 0.0000
# 6 0.0000 0.0000 0.0000 0.0000 0.0000 -19.5405
#
#
#
# Elastic Compliance Matrix: (Units=1/GPa)
#
#
# Indices 1 2 3 4 5 6 
#
# 1 0.007269 0.001808 -0.010945 0.000000 0.000000 0.000000
# 2 0.001808 0.011848 -0.006226 0.000000 0.000000 0.000000
# 3 -0.010945 -0.006226 0.032461 0.000000 0.000000 0.000000
# 4 0.000000 0.000000 0.000000 -1.907843 0.000000 0.000000
# 5 0.000000 0.000000 0.000000 0.000000 0.019557 0.000000
# 6 0.000000 0.000000 0.000000 0.000000 0.000000 -0.051176
#
#
# Mechanical properties :
#
#
# Convention : Reuss Voigt Hill
#
# Bulk Modulus (GPa) = 47.95312 76.61140 62.28226
# Shear Modulus (GPa) = -2.70240 27.35095 12.32428
#
# Velocity S-wave (km/s) = -1.10195 3.50568 2.35324
# Velocity P-wave (km/s) = 4.46408 7.12816 5.94721
#
# Compressibility (1/GPa) = 0.02085370
#
# Stress axis : x y z
#
# Youngs Moduli (GPa) = 137.57416 84.40070 30.80623
#
# Poissons Ratio (x) = -0.15264 0.33716
# Poissons Ratio (y) = -0.24880 0.19180
# Poissons Ratio (z) = 1.50569 0.52549
#
# Static dielectric constant tensor:
#      x y z
#    x 1.912650 0.000000 0.000000 
#    y 0.000000 1.820290 0.000000 
#    z 0.000000 0.000000 1.737770 
# 
# From -- ./inp_files/36773.got.cif
#   From: 2010.05.17/outbox.cif.g08.bks.cpg/sg52_19_cif.got.tgz:36773.got - 2010.06.03 12:15:38.
