data_PCOD9413079
_publ_section_title
;
Structure prediction by ZEFSAII (Michael W. Deem and Ramdas Pophale) SiO2 
 PCOD9413079
Probable space group: P N N A
;
_chemical_formula_sum "Si O2"
_cell_formula_units_Z 48
_cell_length_a 5.585605
_cell_length_b 17.699955
_cell_length_c 24.134800
_cell_angle_alpha 90.000000
_cell_angle_beta 90.000000
_cell_angle_gamma 90.000000
_cell_volume 2386.085968
_symmetry_space_group_name_H-M "P N N A"
_symmetry_group_IT_number 52
_symmetry_cell_setting 'orthorhombic'
loop_
_space_group_symop_operation_xyz
x,y,z
1/2-x,-y,z
x,1/2-y,1/2-z
1/2-x,1/2+y,1/2-z
-x,-y,-z
1/2+x,y,-z
-x,1/2+y,1/2+z
1/2+x,1/2-y,1/2+z
loop_
_atom_site_type_symbol
_atom_site_label
_atom_site_fract_x
_atom_site_fract_y
_atom_site_fract_z
Si Si1 0.494694 0.458275 0.574218
Si Si2 0.537186 0.213076 0.968164
Si Si3 0.064380 0.885208 0.810975
Si Si4 0.304232 0.582529 0.807942
Si Si5 0.314581 0.326680 0.239206
Si Si6 0.573445 0.773395 0.350265
O O1 0.750000 0.500000 0.568551
O O2 0.523482 0.376216 0.546353
O O3 0.448683 0.443364 0.639557
O O4 0.250000 0.500000 0.554300
O O5 0.536829 0.258395 0.910221
O O6 0.285596 0.229184 0.999703
O O7 0.795562 0.859891 0.795099
O O8 0.185660 0.807871 0.833453
O O9 0.176314 0.910749 0.752779
O O10 0.250000 0.500000 0.830233
O O11 0.573138 0.602669 0.791964
O O12 0.234826 0.652129 0.847544
O O13 0.467681 0.250000 0.250000
O O14 0.114087 0.293527 0.198200
#
# Coordination Sequence:
#
# PCOD9413079 Si02
#       6
#     8   8   8   8   8   8
#     4  11  24  39  60  92 133 169 201 250 305 362
#     4  11  25  44  68  91 115 159 216 268 317 370
#     4   9  20  34  53  85 124 166 203 233 288 369
#     4  11  21  32  56  88 122 159 197 249 301 372
#     4   9  18  34  57  81 117 161 200 244 293 365
#     4   9  21  39  56  84 116 155 206 255 306 364
#
# _framework density 20.116626
#
# number of rings (size 3 to 8) (size 9 to 14) (size 15 to 20)
#    0.000    2.000    0.000    4.000    7.000    4.000 
#    0.000    0.000    0.000    1.000    0.000    0.000 
#    0.000    0.000    0.000    0.000    0.000    0.000 
#
# Total GULP energy -267432.630303 kJ/mol
# GULP energy per Si atom -5571.513131 kJ/mol
# Density = 2.007084 g / cm^3
# Si number density = 20.116626 Si / 1000 Ang^3
#
#
#
# Elastic Constant Matrix: (Units=GPa)
#
#
# Indices 1 2 3 4 5 6 
#
# 1 70.6887 23.6569 27.7354 0.0000 0.0000 0.0000
# 2 23.6569 96.7109 24.8464 0.0000 0.0000 0.0000
# 3 27.7354 24.8464 103.4734 0.0000 0.0000 0.0000
# 4 0.0000 0.0000 0.0000 46.1705 0.0000 0.0000
# 5 0.0000 0.0000 0.0000 0.0000 11.7300 0.0000
# 6 0.0000 0.0000 0.0000 0.0000 0.0000 -151.1576
#
#
#
# Elastic Compliance Matrix: (Units=1/GPa)
#
#
# Indices 1 2 3 4 5 6 
#
# 1 0.016647 -0.003118 -0.003713 0.000000 0.000000 0.000000
# 2 -0.003118 0.011604 -0.001951 0.000000 0.000000 0.000000
# 3 -0.003713 -0.001951 0.011128 0.000000 0.000000 0.000000
# 4 0.000000 0.000000 0.000000 0.021659 0.000000 0.000000
# 5 0.000000 0.000000 0.000000 0.000000 0.085251 0.000000
# 6 0.000000 0.000000 0.000000 0.000000 0.000000 -0.006616
#
#
# Mechanical properties :
#
#
# Convention : Reuss Voigt Hill
#
# Bulk Modulus (GPa) = 45.84029 47.03894 46.43961
# Shear Modulus (GPa) = 30.39337 -5.67579 12.35879
#
# Velocity S-wave (km/s) = 3.89119 -1.68154 2.48131
# Velocity P-wave (km/s) = 6.55936 4.43439 5.59862
#
# Compressibility (1/GPa) = 0.02181487
#
# Stress axis : x y z
#
# Youngs Moduli (GPa) = 60.07077 86.17754 89.86287
#
# Poissons Ratio (x) = 0.26871 0.33370
# Poissons Ratio (y) = 0.18731 0.17529
# Poissons Ratio (z) = 0.22307 0.16810
#
# Static dielectric constant tensor:
#      x y z
#    x 1.830600 0.000000 0.000000 
#    y 0.000000 0.351820 0.000000 
#    z 0.000000 0.000000 1.707610 
# 
# From -- ./inp_files/38786.got.cif
#   From: 2010.05.17/outbox.cif.g08.bks.cpg/sg52_20_cif.got.tgz:38786.got - 2010.06.03 12:15:38.
