data_PCOD9413461
_publ_section_title
;
Structure prediction by ZEFSAII (Michael W. Deem and Ramdas Pophale) SiO2 
 PCOD9413461
Probable space group: P N N A
;
_chemical_formula_sum "Si O2"
_cell_formula_units_Z 64
_cell_length_a 13.792711
_cell_length_b 17.947634
_cell_length_c 12.691166
_cell_angle_alpha 90.000000
_cell_angle_beta 90.000000
_cell_angle_gamma 90.000000
_cell_volume 3141.654091
_symmetry_space_group_name_H-M "P N N A"
_symmetry_group_IT_number 52
_symmetry_cell_setting 'orthorhombic'
loop_
_space_group_symop_operation_xyz
x,y,z
1/2-x,-y,z
x,1/2-y,1/2-z
1/2-x,1/2+y,1/2-z
-x,-y,-z
1/2+x,y,-z
-x,1/2+y,1/2+z
1/2+x,1/2-y,1/2+z
loop_
_atom_site_type_symbol
_atom_site_label
_atom_site_fract_x
_atom_site_fract_y
_atom_site_fract_z
Si Si1 0.195293 0.578184 0.849079
Si Si2 0.647598 0.171542 0.815104
Si Si3 0.941218 0.066880 0.555216
Si Si4 0.816251 0.204562 0.965566
Si Si5 0.677387 0.174543 0.469554
Si Si6 0.841202 0.550529 0.859670
Si Si7 0.504085 0.268247 0.129871
Si Si8 0.582801 0.827246 0.184346
O O1 0.250000 0.500000 0.832622
O O2 0.282670 0.637290 0.863721
O O3 0.121921 0.606966 0.759879
O O4 0.136949 0.579740 0.960554
O O5 0.661226 0.250000 0.750000
O O6 0.728579 0.164274 0.905574
O O7 0.669597 0.103490 0.737891
O O8 0.532437 0.167525 0.841248
O O9 0.976161 0.145895 0.599658
O O10 0.913987 0.017484 0.657725
O O11 0.000000 0.000000 0.500000
O O12 0.913890 0.216172 0.899236
O O13 0.768233 0.285930 0.977656
O O14 0.851837 0.176810 0.079487
O O15 0.638457 0.109264 0.545622
O O16 0.598545 0.237395 0.444081
O O17 0.750000 0.500000 0.889713
O O18 0.528718 0.250000 0.250000
O O19 0.594114 0.750000 0.250000
#
# Coordination Sequence:
#
# PCOD9413461 Si02
#       8
#     8   8   8   8   8   8   8   8
#     4  12  22  40  67 101 137 175 222 287 356 417
#     4  11  25  42  70 101 135 182 229 291 351 428
#     4  12  21  40  66 102 140 173 222 295 355 421
#     4  12  24  43  66  93 138 178 232 282 344 418
#     4  12  22  40  65 101 139 172 218 287 353 418
#     4  12  22  39  68 101 136 173 223 281 358 420
#     4  12  27  40  65 104 140 183 229 291 355 425
#     4  11  24  42  69  97 132 182 234 280 349 422
#
# _framework density 20.371433
#
# number of rings (size 3 to 8) (size 9 to 14) (size 15 to 20)
#    0.000    0.250    7.500    1.875    5.250    0.000 
#    0.000    0.625    0.000    1.500    0.000    0.000 
#    0.000    0.000    0.000    0.000    0.000    0.000 
#
# Total GULP energy -356335.911229 kJ/mol
# GULP energy per Si atom -5567.748613 kJ/mol
# Density = 2.032507 g / cm^3
# Si number density = 20.371433 Si / 1000 Ang^3
#
#
#
# Elastic Constant Matrix: (Units=GPa)
#
#
# Indices 1 2 3 4 5 6 
#
# 1 97.7035 18.7725 57.0700 0.0000 0.0000 0.0000
# 2 18.7725 56.1493 40.1867 0.0000 0.0000 0.0000
# 3 57.0700 40.1867 105.4382 0.0000 0.0000 0.0000
# 4 0.0000 0.0000 0.0000 34.3580 0.0000 0.0000
# 5 0.0000 0.0000 0.0000 0.0000 32.2497 0.0000
# 6 0.0000 0.0000 0.0000 0.0000 0.0000 31.9009
#
#
#
# Elastic Compliance Matrix: (Units=1/GPa)
#
#
# Indices 1 2 3 4 5 6 
#
# 1 0.015016 0.001096 -0.008545 0.000000 0.000000 0.000000
# 2 0.001096 0.024570 -0.009958 0.000000 0.000000 0.000000
# 3 -0.008545 -0.009958 0.017905 0.000000 0.000000 0.000000
# 4 0.000000 0.000000 0.000000 0.029105 0.000000 0.000000
# 5 0.000000 0.000000 0.000000 0.000000 0.031008 0.000000
# 6 0.000000 0.000000 0.000000 0.000000 0.000000 0.031347
#
#
# Mechanical properties :
#
#
# Convention : Reuss Voigt Hill
#
# Bulk Modulus (GPa) = 44.09891 54.59435 49.34663
# Shear Modulus (GPa) = 26.13361 29.25250 27.69305
#
# Velocity S-wave (km/s) = 3.58558 3.79351 3.69101
# Velocity P-wave (km/s) = 6.23188 6.78567 6.51466
#
# Compressibility (1/GPa) = 0.02267630
#
# Stress axis : x y z
#
# Youngs Moduli (GPa) = 66.59614 40.69965 55.85130
#
# Poissons Ratio (x) = -0.04459 0.47726
# Poissons Ratio (y) = -0.07296 0.55615
# Poissons Ratio (z) = 0.56907 0.40527
#
# Static dielectric constant tensor:
#      x y z
#    x 1.932760 0.000000 0.000000 
#    y 0.000000 1.655500 0.000000 
#    z 0.000000 0.000000 1.788480 
# 
# From -- ./inp_files/19851.got.cif
#   From: 2010.05.17/outbox.cif.g08.bks.cpg/sg52_10_cif.got.tgz:19851.got - 2010.06.03 12:15:38.
