data_PCOD9413329
_publ_section_title
;
Structure prediction by ZEFSAII (Michael W. Deem and Ramdas Pophale) SiO2 
 PCOD9413329
Probable space group: P N N A
;
_chemical_formula_sum "Si O2"
_cell_formula_units_Z 56
_cell_length_a 14.066874
_cell_length_b 14.864984
_cell_length_c 11.412855
_cell_angle_alpha 90.000000
_cell_angle_beta 90.000000
_cell_angle_gamma 90.000000
_cell_volume 2386.471999
_symmetry_space_group_name_H-M "P N N A"
_symmetry_group_IT_number 52
_symmetry_cell_setting 'orthorhombic'
loop_
_space_group_symop_operation_xyz
x,y,z
1/2-x,-y,z
x,1/2-y,1/2-z
1/2-x,1/2+y,1/2-z
-x,-y,-z
1/2+x,y,-z
-x,1/2+y,1/2+z
1/2+x,1/2-y,1/2+z
loop_
_atom_site_type_symbol
_atom_site_label
_atom_site_fract_x
_atom_site_fract_y
_atom_site_fract_z
Si Si1 0.039155 0.155222 0.288621
Si Si2 0.249433 0.357552 0.257260
Si Si3 0.515230 0.198346 0.458034
Si Si4 0.175087 0.398953 0.862565
Si Si5 0.080274 0.992144 0.824839
Si Si6 0.163919 0.578307 0.014230
Si Si7 0.912340 0.109921 0.937687
O O1 0.994718 0.250000 0.250000
O O2 0.136785 0.130999 0.222007
O O3 0.068074 0.181773 0.419384
O O4 0.966880 0.074745 0.270399
O O5 0.265201 0.250000 0.250000
O O6 0.280175 0.404867 0.136079
O O7 0.318121 0.390430 0.359505
O O8 0.597180 0.178949 0.365588
O O9 0.437126 0.120215 0.456177
O O10 0.458471 0.290946 0.450684
O O11 0.159700 0.448422 0.739309
O O12 0.153866 0.478010 0.960586
O O13 0.278278 0.370205 0.909783
O O14 0.109621 0.932576 0.935924
O O15 0.994606 0.053690 0.872782
#
# Coordination Sequence:
#
# PCOD9413329 Si02
#       7
#     8   8   8   8   8   8   8
#     4  11  23  42  74 101 142 188 238 301 360 431
#     4  11  23  41  70 109 140 181 247 298 355 438
#     4  12  22  43  73 101 142 190 240 303 362 431
#     4  11  25  41  72 105 142 182 244 303 357 434
#     4  11  25  46  68 104 146 193 232 295 377 433
#     4  11  23  40  69 109 137 178 247 305 358 424
#     4  11  26  44  72 103 147 192 236 294 375 443
#
# _framework density 23.465600999999999
#
# number of rings (size 3 to 8) (size 9 to 14) (size 15 to 20)
#    0.000    0.857    5.714    1.286    2.000    0.571 
#    0.000    5.714    9.429    0.000    0.000    0.000 
#    0.000    0.000    0.000    0.000    0.000    0.000 
#
# Total GULP energy -312977.849834 kJ/mol
# GULP energy per Si atom -5588.890176 kJ/mol
# Density = 2.341219 g / cm^3
# Si number density = 23.465601 Si / 1000 Ang^3
#
#
#
# Elastic Constant Matrix: (Units=GPa)
#
#
# Indices 1 2 3 4 5 6 
#
# 1 75.4459 -16.3903 24.9335 0.0000 0.0000 0.0000
# 2 -16.3903 29.6431 24.5909 0.0000 0.0000 0.0000
# 3 24.9335 24.5909 101.0876 0.0000 0.0000 0.0000
# 4 0.0000 0.0000 0.0000 25.5283 0.0000 0.0000
# 5 0.0000 0.0000 0.0000 0.0000 38.0602 0.0000
# 6 0.0000 0.0000 0.0000 0.0000 0.0000 10.3172
#
#
#
# Elastic Compliance Matrix: (Units=1/GPa)
#
#
# Indices 1 2 3 4 5 6 
#
# 1 0.020840 0.019779 -0.009952 0.000000 0.000000 0.000000
# 2 0.019779 0.061035 -0.019726 0.000000 0.000000 0.000000
# 3 -0.009952 -0.019726 0.017146 0.000000 0.000000 0.000000
# 4 0.000000 0.000000 0.000000 0.039172 0.000000 0.000000
# 5 0.000000 0.000000 0.000000 0.000000 0.026274 0.000000
# 6 0.000000 0.000000 0.000000 0.000000 0.000000 0.096926
#
#
# Mechanical properties :
#
#
# Convention : Reuss Voigt Hill
#
# Bulk Modulus (GPa) = 12.62269 30.27162 21.44716
# Shear Modulus (GPa) = 16.25499 26.31730 21.28614
#
# Velocity S-wave (km/s) = 2.63480 3.35255 3.01511
# Velocity P-wave (km/s) = 3.82716 5.28343 4.61312
#
# Compressibility (1/GPa) = 0.07922241
#
# Stress axis : x y z
#
# Youngs Moduli (GPa) = 47.98426 16.38413 58.32403
#
# Poissons Ratio (x) = -0.32405 0.58042
# Poissons Ratio (y) = -0.94906 1.15049
# Poissons Ratio (z) = 0.47752 0.32319
#
# Static dielectric constant tensor:
#      x y z
#    x 1.908320 0.000000 0.000000 
#    y 0.000000 1.900530 0.000000 
#    z 0.000000 0.000000 1.937260 
# 
# From -- ./inp_files/19616.got.cif
#   From: 2010.05.17/outbox.cif.g08.bks.cpg/sg52_10_cif.got.tgz:19616.got - 2010.06.03 12:15:38.
