data_PCOD9413823
_publ_section_title
;
Structure prediction by ZEFSAII (Michael W. Deem and Ramdas Pophale) SiO2 
 PCOD9413823
Probable space group: P N N A
;
_chemical_formula_sum "Si O2"
_cell_formula_units_Z 40
_cell_length_a 11.645549
_cell_length_b 18.409641
_cell_length_c 8.617569
_cell_angle_alpha 90.000000
_cell_angle_beta 90.000000
_cell_angle_gamma 90.000000
_cell_volume 1847.523861
_symmetry_space_group_name_H-M "P N N A"
_symmetry_group_IT_number 52
_symmetry_cell_setting 'orthorhombic'
loop_
_space_group_symop_operation_xyz
x,y,z
1/2-x,-y,z
x,1/2-y,1/2-z
1/2-x,1/2+y,1/2-z
-x,-y,-z
1/2+x,y,-z
-x,1/2+y,1/2+z
1/2+x,1/2-y,1/2+z
loop_
_atom_site_type_symbol
_atom_site_label
_atom_site_fract_x
_atom_site_fract_y
_atom_site_fract_z
Si Si1 0.106503 0.126749 0.807200
Si Si2 0.855135 0.172743 0.699581
Si Si3 0.843308 0.324815 0.169800
Si Si4 0.529309 0.523148 0.177628
Si Si5 0.314777 0.568288 0.378520
O O1 0.211391 0.166233 0.722501
O O2 0.983197 0.161185 0.767319
O O3 0.098896 0.044476 0.744807
O O4 0.133391 0.120249 0.989634
O O5 0.807785 0.250000 0.750000
O O6 0.856483 0.176284 0.514817
O O7 0.773250 0.111512 0.769766
O O8 0.887078 0.250000 0.250000
O O9 0.906574 0.400655 0.207518
O O10 0.412349 0.533453 0.272059
O O11 0.500000 0.500000 0.000000
O O12 0.250000 0.500000 0.455148
#
# Coordination Sequence:
#
# PCOD9413823 Si02
#       5
#     8   8   8   8   8
#     4  12  26  47  76 107 145 197 253 306 373 451
#     4  12  28  47  72 106 151 191 247 309 374 452
#     4  12  27  48  74 109 151 194 248 311 386 448
#     4  12  24  47  79 107 147 197 255 313 373 450
#     4  12  25  45  75 107 147 191 248 309 373 440
#
# _framework density 21.650601999999999
#
# number of rings (size 3 to 8) (size 9 to 14) (size 15 to 20)
#    0.000    0.000    4.000    5.400    5.600    0.800 
#    0.000    0.000    0.000    0.000    0.000    0.000 
#    0.000    0.000    0.000    0.000    0.000    0.000 
#
# Total GULP energy -223797.318571 kJ/mol
# GULP energy per Si atom -5594.932964 kJ/mol
# Density = 2.160132 g / cm^3
# Si number density = 21.650602 Si / 1000 Ang^3
#
#
#
# Elastic Constant Matrix: (Units=GPa)
#
#
# Indices 1 2 3 4 5 6 
#
# 1 71.9852 22.3539 47.7869 0.0000 0.0000 0.0000
# 2 22.3539 128.5654 -4.7606 0.0000 0.0000 0.0000
# 3 47.7869 -4.7606 98.4698 0.0000 0.0000 0.0000
# 4 0.0000 0.0000 0.0000 29.6242 0.0000 0.0000
# 5 0.0000 0.0000 0.0000 0.0000 37.3503 0.0000
# 6 0.0000 0.0000 0.0000 0.0000 0.0000 26.7868
#
#
#
# Elastic Compliance Matrix: (Units=1/GPa)
#
#
# Indices 1 2 3 4 5 6 
#
# 1 0.022699 -0.004362 -0.011227 0.000000 0.000000 0.000000
# 2 -0.004362 0.008630 0.002534 0.000000 0.000000 0.000000
# 3 -0.011227 0.002534 0.015726 0.000000 0.000000 0.000000
# 4 0.000000 0.000000 0.000000 0.033756 0.000000 0.000000
# 5 0.000000 0.000000 0.000000 0.000000 0.026774 0.000000
# 6 0.000000 0.000000 0.000000 0.000000 0.000000 0.037332
#
#
# Mechanical properties :
#
#
# Convention : Reuss Voigt Hill
#
# Bulk Modulus (GPa) = 47.74138 47.75343 47.74741
# Shear Modulus (GPa) = 28.08841 34.32826 31.20833
#
# Velocity S-wave (km/s) = 3.60578 3.98622 3.80077
# Velocity P-wave (km/s) = 6.27967 6.57958 6.43138
#
# Compressibility (1/GPa) = 0.02094619
#
# Stress axis : x y z
#
# Youngs Moduli (GPa) = 44.05431 115.86819 63.58810
#
# Poissons Ratio (x) = 0.50547 0.71389
# Poissons Ratio (y) = 0.19219 -0.16115
# Poissons Ratio (z) = 0.49459 -0.29365
#
# Static dielectric constant tensor:
#      x y z
#    x 1.766920 0.000000 0.000000 
#    y 0.000000 1.590700 0.000000 
#    z 0.000000 0.000000 1.933360 
# 
# From -- ./inp_files/8491.got.cif
#   From: 2010.05.17/outbox.cif.g08.bks.cpg/sg52_5_cif.got.tgz:8491.got - 2010.06.03 12:15:38.
