data_PCOD9413575
_publ_section_title
;
Structure prediction by ZEFSAII (Michael W. Deem and Ramdas Pophale) SiO2 
 PCOD9413575
Probable space group: P N N A
;
_chemical_formula_sum "Si O2"
_cell_formula_units_Z 40
_cell_length_a 9.623359
_cell_length_b 11.019056
_cell_length_c 16.604856
_cell_angle_alpha 90.000000
_cell_angle_beta 90.000000
_cell_angle_gamma 90.000000
_cell_volume 1760.784439
_symmetry_space_group_name_H-M "P N N A"
_symmetry_group_IT_number 52
_symmetry_cell_setting 'orthorhombic'
loop_
_space_group_symop_operation_xyz
x,y,z
1/2-x,-y,z
x,1/2-y,1/2-z
1/2-x,1/2+y,1/2-z
-x,-y,-z
1/2+x,y,-z
-x,1/2+y,1/2+z
1/2+x,1/2-y,1/2+z
loop_
_atom_site_type_symbol
_atom_site_label
_atom_site_fract_x
_atom_site_fract_y
_atom_site_fract_z
Si Si1 0.883041 0.171752 0.172031
Si Si2 0.434862 0.738237 0.481130
Si Si3 0.832205 0.118469 0.561359
Si Si4 0.078668 0.389351 0.641730
Si Si5 0.681470 0.624259 0.750266
O O1 0.917482 0.250000 0.250000
O O2 0.718007 0.187191 0.157508
O O3 0.978438 0.211920 0.098511
O O4 0.901808 0.026340 0.173261
O O5 0.520944 0.847842 0.522742
O O6 0.277869 0.773759 0.457800
O O7 0.441650 0.629201 0.546138
O O8 0.854915 0.099436 0.656709
O O9 0.750000 0.000000 0.530914
O O10 0.946037 0.346445 0.691431
O O11 0.750000 0.500000 0.719480
O O12 0.767965 0.750000 0.750000
#
# Coordination Sequence:
#
# PCOD9413575 Si02
#       5
#     8   8   8   8   8
#     4  11  27  46  73 109 143 194 252 306 374 449
#     4  12  24  49  74 104 152 189 251 302 378 442
#     4  11  26  44  74 107 146 192 248 302 373 444
#     4  11  25  48  74 104 148 197 243 309 374 447
#     4  11  25  44  74 105 145 192 247 304 375 442
#
# _framework density 22.717148999999999
#
# number of rings (size 3 to 8) (size 9 to 14) (size 15 to 20)
#    0.000    0.800    4.000    1.800    8.400    0.000 
#    7.200    0.000    0.000    0.000    0.000    0.000 
#    0.000    0.000    0.000    0.000    0.000    0.000 
#
# Total GULP energy -223499.310504 kJ/mol
# GULP energy per Si atom -5587.482763 kJ/mol
# Density = 2.266544 g / cm^3
# Si number density = 22.717149 Si / 1000 Ang^3
#
#
#
# Elastic Constant Matrix: (Units=GPa)
#
#
# Indices 1 2 3 4 5 6 
#
# 1 117.7881 7.1210 48.4431 0.0000 0.0000 0.0000
# 2 7.1210 92.8423 25.0592 0.0000 0.0000 0.0000
# 3 48.4431 25.0592 147.0890 0.0000 0.0000 0.0000
# 4 0.0000 0.0000 0.0000 33.1864 0.0000 0.0000
# 5 0.0000 0.0000 0.0000 0.0000 27.3481 0.0000
# 6 0.0000 0.0000 0.0000 0.0000 0.0000 23.8401
#
#
#
# Elastic Compliance Matrix: (Units=1/GPa)
#
#
# Indices 1 2 3 4 5 6 
#
# 1 0.009821 0.000126 -0.003256 0.000000 0.000000 0.000000
# 2 0.000126 0.011292 -0.001965 0.000000 0.000000 0.000000
# 3 -0.003256 -0.001965 0.008206 0.000000 0.000000 0.000000
# 4 0.000000 0.000000 0.000000 0.030133 0.000000 0.000000
# 5 0.000000 0.000000 0.000000 0.000000 0.036566 0.000000
# 6 0.000000 0.000000 0.000000 0.000000 0.000000 0.041946
#
#
# Mechanical properties :
#
#
# Convention : Reuss Voigt Hill
#
# Bulk Modulus (GPa) = 52.28020 57.66288 54.97154
# Shear Modulus (GPa) = 32.35608 35.34798 33.85203
#
# Velocity S-wave (km/s) = 3.77809 3.94890 3.86444
# Velocity P-wave (km/s) = 6.48810 6.79925 6.64550
#
# Compressibility (1/GPa) = 0.01912770
#
# Stress axis : x y z
#
# Youngs Moduli (GPa) = 101.81906 88.56044 121.86583
#
# Poissons Ratio (x) = -0.01112 0.39680
# Poissons Ratio (y) = -0.01278 0.23948
# Poissons Ratio (z) = 0.33152 0.17403
#
# Static dielectric constant tensor:
#      x y z
#    x 1.880340 0.000000 0.000000 
#    y 0.000000 2.000510 0.000000 
#    z 0.000000 0.000000 1.810320 
# 
# From -- ./inp_files/30900.got.cif
#   From: 2010.05.17/outbox.cif.g08.bks.cpg/sg52_16_cif.got.tgz:30900.got - 2010.06.03 12:15:38.
