data_PCOD9413507
_publ_section_title
;
Structure prediction by ZEFSAII (Michael W. Deem and Ramdas Pophale) SiO2 
 PCOD9413507
Probable space group: P N N A
;
_chemical_formula_sum "Si O2"
_cell_formula_units_Z 48
_cell_length_a 18.214856
_cell_length_b 14.083844
_cell_length_c 8.691251
_cell_angle_alpha 90.000000
_cell_angle_beta 90.000000
_cell_angle_gamma 90.000000
_cell_volume 2229.611730
_symmetry_space_group_name_H-M "P N N A"
_symmetry_group_IT_number 52
_symmetry_cell_setting 'orthorhombic'
loop_
_space_group_symop_operation_xyz
x,y,z
1/2-x,-y,z
x,1/2-y,1/2-z
1/2-x,1/2+y,1/2-z
-x,-y,-z
1/2+x,y,-z
-x,1/2+y,1/2+z
1/2+x,1/2-y,1/2+z
loop_
_atom_site_type_symbol
_atom_site_label
_atom_site_fract_x
_atom_site_fract_y
_atom_site_fract_z
Si Si1 0.484867 0.907885 0.400914
Si Si2 0.304317 0.587410 0.477225
Si Si3 0.924540 0.249053 0.931529
Si Si4 0.224414 0.729289 0.918980
Si Si5 0.932783 0.045824 0.085486
Si Si6 0.308147 0.588603 0.123559
O O1 0.513250 0.810867 0.481799
O O2 0.536015 0.922057 0.250353
O O3 0.396891 0.917134 0.384107
O O4 0.500000 0.000000 0.500000
O O5 0.250000 0.500000 0.470560
O O6 0.270180 0.674199 0.566221
O O7 0.372420 0.537261 0.564285
O O8 0.305381 0.625222 0.300788
O O9 0.938878 0.250000 0.750000
O O10 0.844415 0.291378 0.969378
O O11 0.914665 0.142013 0.993449
O O12 0.191257 0.750000 0.750000
O O13 0.281692 0.650041 0.976886
O O14 0.000000 0.000000 0.000000
O O15 0.250000 0.500000 0.120957
#
# Coordination Sequence:
#
# PCOD9413507 Si02
#       6
#     8   8   8   8   8   8
#     4  12  27  46  74 109 148 191 244 308 373 440
#     4  11  24  45  73 103 144 195 243 298 375 444
#     4  12  27  48  73 105 150 198 250 309 373 443
#     4  12  27  45  72 107 147 192 251 312 373 445
#     4  12  25  45  73 105 149 191 245 305 372 443
#     4  11  26  47  75 106 144 193 244 299 373 451
#
# _framework density 21.528413
#
# number of rings (size 3 to 8) (size 9 to 14) (size 15 to 20)
#    0.000    0.333    3.333    5.000    7.000    2.667 
#    0.000    0.000    0.000    0.000    0.000    0.000 
#    0.000    0.000    0.000    0.000    0.000    0.000 
#
# Total GULP energy -267261.789602 kJ/mol
# GULP energy per Si atom -5567.953950 kJ/mol
# Density = 2.147941 g / cm^3
# Si number density = 21.528413 Si / 1000 Ang^3
#
#
#
# Elastic Constant Matrix: (Units=GPa)
#
#
# Indices 1 2 3 4 5 6 
#
# 1 98.4318 -3.0688 10.1675 0.0000 0.0000 0.0000
# 2 -3.0688 59.8554 7.3007 0.0000 0.0000 0.0000
# 3 10.1675 7.3007 112.5322 0.0000 0.0000 0.0000
# 4 0.0000 0.0000 0.0000 24.8399 0.0000 0.0000
# 5 0.0000 0.0000 0.0000 0.0000 31.6023 0.0000
# 6 0.0000 0.0000 0.0000 0.0000 0.0000 35.3055
#
#
#
# Elastic Compliance Matrix: (Units=1/GPa)
#
#
# Indices 1 2 3 4 5 6 
#
# 1 0.010280 0.000645 -0.000971 0.000000 0.000000 0.000000
# 2 0.000645 0.016881 -0.001153 0.000000 0.000000 0.000000
# 3 -0.000971 -0.001153 0.009049 0.000000 0.000000 0.000000
# 4 0.000000 0.000000 0.000000 0.040258 0.000000 0.000000
# 5 0.000000 0.000000 0.000000 0.000000 0.031643 0.000000
# 6 0.000000 0.000000 0.000000 0.000000 0.000000 0.028324
#
#
# Mechanical properties :
#
#
# Convention : Reuss Voigt Hill
#
# Bulk Modulus (GPa) = 30.07349 33.29092 31.68220
# Shear Modulus (GPa) = 33.22791 35.44421 34.33606
#
# Velocity S-wave (km/s) = 3.93293 4.06198 3.99798
# Velocity P-wave (km/s) = 5.88417 6.12347 6.00501
#
# Compressibility (1/GPa) = 0.03325188
#
# Stress axis : x y z
#
# Youngs Moduli (GPa) = 97.27906 59.23922 110.51094
#
# Poissons Ratio (x) = -0.03824 0.10727
# Poissons Ratio (y) = -0.06279 0.12747
# Poissons Ratio (z) = 0.09443 0.06833
#
# Static dielectric constant tensor:
#      x y z
#    x 1.663600 0.000000 0.000000 
#    y 0.000000 1.741820 0.000000 
#    z 0.000000 0.000000 1.836130 
# 
# From -- ./inp_files/12054.got.cif
#   From: 2010.05.17/outbox.cif.g08.bks.cpg/sg52_7_cif.got.tgz:12054.got - 2010.06.03 12:15:38.
