data_PCOD9413945
_publ_section_title
;
Structure prediction by ZEFSAII (Michael W. Deem and Ramdas Pophale) SiO2 
 PCOD9413945
Probable space group: P N N A
;
_chemical_formula_sum "Si O2"
_cell_formula_units_Z 40
_cell_length_a 8.552065
_cell_length_b 6.806163
_cell_length_c 26.683355
_cell_angle_alpha 90.000000
_cell_angle_beta 90.000000
_cell_angle_gamma 90.000000
_cell_volume 1553.151330
_symmetry_space_group_name_H-M "P N N A"
_symmetry_group_IT_number 52
_symmetry_cell_setting 'orthorhombic'
loop_
_space_group_symop_operation_xyz
x,y,z
1/2-x,-y,z
x,1/2-y,1/2-z
1/2-x,1/2+y,1/2-z
-x,-y,-z
1/2+x,y,-z
-x,1/2+y,1/2+z
1/2+x,1/2-y,1/2+z
loop_
_atom_site_type_symbol
_atom_site_label
_atom_site_fract_x
_atom_site_fract_y
_atom_site_fract_z
Si Si1 0.064384 0.450407 0.318039
Si Si2 0.928581 0.918880 0.389963
Si Si3 0.982099 0.670040 0.574307
Si Si4 0.561609 0.996469 0.708901
Si Si5 0.289429 0.731852 0.983552
O O1 0.250000 0.500000 0.319762
O O2 0.024014 0.221862 0.305200
O O3 0.008415 0.546410 0.265593
O O4 0.012222 0.462424 0.376040
O O5 0.919212 0.783301 0.439141
O O6 0.750000 0.000000 0.382516
O O7 0.030476 0.105648 0.405808
O O8 0.994919 0.860969 0.335786
O O9 0.141178 0.670292 0.542697
O O10 0.847945 0.664578 0.533172
O O11 0.750000 0.000000 0.708652
O O12 0.250000 0.500000 0.993710
#
# Coordination Sequence:
#
# PCOD9413945 Si02
#       5
#     8   8   8   8   8
#     4   9  18  32  48  69 101 136 167 201 250 307
#     4   8  15  27  46  74 100 121 154 209 266 302
#     4   9  17  28  45  67  97 132 163 202 250 300
#     4   9  17  30  53  76  93 123 170 214 250 293
#     4   9  16  27  45  73  98 122 162 209 254 296
#
# _framework density 25.754090000000001
#
# number of rings (size 3 to 8) (size 9 to 14) (size 15 to 20)
#    0.000    3.600    0.000    2.400    0.000    6.400 
#    0.000    1.000    0.000   33.600    0.000    0.000 
#    0.000    0.000    0.000    0.000    0.000    0.000 
#
# Total GULP energy -223294.068076 kJ/mol
# GULP energy per Si atom -5582.351702 kJ/mol
# Density = 2.569547 g / cm^3
# Si number density = 25.754090 Si / 1000 Ang^3
#
#
#
# Elastic Constant Matrix: (Units=GPa)
#
#
# Indices 1 2 3 4 5 6 
#
# 1 38.5292 13.2019 76.4657 0.0000 0.0000 0.0000
# 2 13.2019 95.4394 78.0093 0.0000 0.0000 0.0000
# 3 76.4657 78.0093 310.0918 0.0000 0.0000 0.0000
# 4 0.0000 0.0000 0.0000 47.0983 0.0000 0.0000
# 5 0.0000 0.0000 0.0000 0.0000 -176.6374 0.0000
# 6 0.0000 0.0000 0.0000 0.0000 0.0000 27.8835
#
#
#
# Elastic Compliance Matrix: (Units=1/GPa)
#
#
# Indices 1 2 3 4 5 6 
#
# 1 0.052102 0.004147 -0.013891 0.000000 0.000000 0.000000
# 2 0.004147 0.013520 -0.004424 0.000000 0.000000 0.000000
# 3 -0.013891 -0.004424 0.007763 0.000000 0.000000 0.000000
# 4 0.000000 0.000000 0.000000 0.021232 0.000000 0.000000
# 5 0.000000 0.000000 0.000000 0.000000 -0.005661 0.000000
# 6 0.000000 0.000000 0.000000 0.000000 0.000000 0.035863
#
#
# Mechanical properties :
#
#
# Convention : Reuss Voigt Hill
#
# Bulk Modulus (GPa) = 22.19794 86.60159 54.39976
# Shear Modulus (GPa) = 29.73154 -1.90556 13.91299
#
# Velocity S-wave (km/s) = 3.40139 -0.86111 2.32679
# Velocity P-wave (km/s) = 4.90549 5.71932 5.32797
#
# Compressibility (1/GPa) = 0.04504924
#
# Stress axis : x y z
#
# Youngs Moduli (GPa) = 19.19321 73.96380 128.81364
#
# Poissons Ratio (x) = -0.30673 1.78936
# Poissons Ratio (y) = -0.07959 0.56985
# Poissons Ratio (z) = 0.26661 0.32720
#
# Static dielectric constant tensor:
#      x y z
#    x 2.010240 0.000000 0.000000 
#    y 0.000000 2.196860 0.000000 
#    z 0.000000 0.000000 2.050610 
# 
# From -- ./inp_files/42109.got.cif
#   From: 2010.05.17/outbox.cif.g08.bks.cpg/sg52_22_cif.got.tgz:42109.got - 2010.06.03 12:15:38.
