data_PCOD9413652
_publ_section_title
;
Structure prediction by ZEFSAII (Michael W. Deem and Ramdas Pophale) SiO2 
 PCOD9413652
Probable space group: P N N A
;
_chemical_formula_sum "Si O2"
_cell_formula_units_Z 40
_cell_length_a 10.891494
_cell_length_b 17.036794
_cell_length_c 8.595925
_cell_angle_alpha 90.000000
_cell_angle_beta 90.000000
_cell_angle_gamma 90.000000
_cell_volume 1595.026660
_symmetry_space_group_name_H-M "P N N A"
_symmetry_group_IT_number 52
_symmetry_cell_setting 'orthorhombic'
loop_
_space_group_symop_operation_xyz
x,y,z
1/2-x,-y,z
x,1/2-y,1/2-z
1/2-x,1/2+y,1/2-z
-x,-y,-z
1/2+x,y,-z
-x,1/2+y,1/2+z
1/2+x,1/2-y,1/2+z
loop_
_atom_site_type_symbol
_atom_site_label
_atom_site_fract_x
_atom_site_fract_y
_atom_site_fract_z
Si Si1 0.565619 0.750000 0.250000
Si Si2 0.506997 0.426831 0.255598
Si Si3 0.750000 0.500000 0.349866
Si Si4 0.250000 0.000000 0.350524
Si Si5 0.902125 0.648801 0.950758
Si Si6 0.749390 0.250000 0.750000
Si Si7 0.863861 0.143981 0.980671
O O1 0.503061 0.668199 0.183298
O O2 0.630892 0.714608 0.398930
O O3 0.625665 0.483273 0.254919
O O4 0.378675 0.473140 0.230175
O O5 0.495512 0.390909 0.429157
O O6 0.534053 0.365354 0.115839
O O7 0.779567 0.424088 0.453019
O O8 0.305487 0.922575 0.434175
O O9 0.827273 0.726613 0.903314
O O10 0.823177 0.177529 0.813972
#
# Coordination Sequence:
#
# PCOD9413652 Si02
#       7
#     4   8   4   4   8   4   8
#     4  11  28  48  79 118 168 215 279 346 426 511
#     4  12  27  50  84 115 166 214 283 339 426 491
#     4  12  30  50  84 130 158 228 282 354 422 514
#     4  12  24  50  82 118 162 220 276 352 414 518
#     4  11  26  47  78 117 158 210 278 342 412 500
#     4  11  26  48  77 116 166 219 267 354 428 493
#     4  12  27  51  79 116 169 224 276 345 425 513
#
# _framework density 25.077949
#
# number of rings (size 3 to 8) (size 9 to 14) (size 15 to 20)
#    0.000    0.400    2.000    4.800    8.400    0.000 
#    0.000    0.000    0.000    0.000    0.000    0.000 
#    0.000    0.000    0.000    0.000    0.000    0.000 
#
# Total GULP energy -222785.877867 kJ/mol
# GULP energy per Si atom -5569.646947 kJ/mol
# Density = 2.502087 g / cm^3
# Si number density = 25.077949 Si / 1000 Ang^3
#
#
#
# Elastic Constant Matrix: (Units=GPa)
#
#
# Indices 1 2 3 4 5 6 
#
# 1 139.4770 49.3051 75.8403 0.0000 0.0000 0.0000
# 2 49.3051 92.1942 33.3213 0.0000 0.0000 0.0000
# 3 75.8403 33.3213 108.1909 0.0000 0.0000 0.0000
# 4 0.0000 0.0000 0.0000 28.9019 0.0000 0.0000
# 5 0.0000 0.0000 0.0000 0.0000 -173.2968 0.0000
# 6 0.0000 0.0000 0.0000 0.0000 0.0000 8.8740
#
#
#
# Elastic Compliance Matrix: (Units=1/GPa)
#
#
# Indices 1 2 3 4 5 6 
#
# 1 0.012805 -0.004055 -0.007727 0.000000 0.000000 0.000000
# 2 -0.004055 0.013490 -0.001312 0.000000 0.000000 0.000000
# 3 -0.007727 -0.001312 0.015063 0.000000 0.000000 0.000000
# 4 0.000000 0.000000 0.000000 0.034600 0.000000 0.000000
# 5 0.000000 0.000000 0.000000 0.000000 -0.005770 0.000000
# 6 0.000000 0.000000 0.000000 0.000000 0.000000 0.112689
#
#
# Mechanical properties :
#
#
# Convention : Reuss Voigt Hill
#
# Bulk Modulus (GPa) = 65.92178 72.97726 69.44952
# Shear Modulus (GPa) = 23.35134 -15.01115 4.17010
#
# Velocity S-wave (km/s) = 3.05479 -2.44924 1.29092
# Velocity P-wave (km/s) = 6.22785 4.60054 5.47499
#
# Compressibility (1/GPa) = 0.01516949
#
# Stress axis : x y z
#
# Youngs Moduli (GPa) = 78.09652 74.13150 66.38568
#
# Poissons Ratio (x) = 0.30062 0.51296
# Poissons Ratio (y) = 0.31669 0.08710
# Poissons Ratio (z) = 0.60345 0.09726
#
# Static dielectric constant tensor:
#      x y z
#    x 2.235940 0.000000 0.000000 
#    y 0.000000 2.372170 0.000000 
#    z 0.000000 0.000000 2.039200 
# 
# From -- ./inp_files/8597.got.cif
#   From: 2010.05.17/outbox.cif.g08.bks.cpg/sg52_5_cif.got.tgz:8597.got - 2010.06.03 12:15:38.
