data_PCOD9413374
_publ_section_title
;
Structure prediction by ZEFSAII (Michael W. Deem and Ramdas Pophale) SiO2 
 PCOD9413374
Probable space group: P N N A
;
_chemical_formula_sum "Si O2"
_cell_formula_units_Z 48
_cell_length_a 8.512188
_cell_length_b 9.402255
_cell_length_c 26.640926
_cell_angle_alpha 90.000000
_cell_angle_beta 90.000000
_cell_angle_gamma 90.000000
_cell_volume 2132.173536
_symmetry_space_group_name_H-M "P N N A"
_symmetry_group_IT_number 52
_symmetry_cell_setting 'orthorhombic'
loop_
_space_group_symop_operation_xyz
x,y,z
1/2-x,-y,z
x,1/2-y,1/2-z
1/2-x,1/2+y,1/2-z
-x,-y,-z
1/2+x,y,-z
-x,1/2+y,1/2+z
1/2+x,1/2-y,1/2+z
loop_
_atom_site_type_symbol
_atom_site_label
_atom_site_fract_x
_atom_site_fract_y
_atom_site_fract_z
Si Si1 0.573518 0.993820 0.349298
Si Si2 0.238836 0.833300 0.021980
Si Si3 0.407999 0.741247 0.929664
Si Si4 0.592613 0.060458 0.163108
Si Si5 0.910050 0.790644 0.875929
Si Si6 0.862655 0.290004 0.801667
O O1 0.530912 0.835954 0.365881
O O2 0.750000 0.000000 0.328551
O O3 0.570375 0.096883 0.398176
O O4 0.442623 0.057470 0.311396
O O5 0.366173 0.811039 0.066166
O O6 0.070725 0.792004 0.044904
O O7 0.250000 0.000000 0.007875
O O8 0.281536 0.739464 0.973846
O O9 0.361572 0.858115 0.888164
O O10 0.504369 0.176759 0.195927
O O11 0.750000 0.000000 0.186981
O O12 0.474905 0.935036 0.147876
O O13 0.751121 0.744680 0.847619
O O14 0.777774 0.250000 0.750000
#
# Coordination Sequence:
#
# PCOD9413374 Si02
#       6
#     8   8   8   8   8   8
#     4  11  26  46  65  98 139 176 217 275 342 396
#     4  12  23  40  65 101 132 178 234 274 323 389
#     4  11  25  41  64  96 136 182 226 272 324 392
#     4  11  23  43  69  99 135 174 219 274 335 397
#     4  12  23  43  69  97 137 175 221 280 331 396
#     4  11  25  47  72  99 130 172 224 276 337 403
#
# _framework density 22.512238
#
# number of rings (size 3 to 8) (size 9 to 14) (size 15 to 20)
#    0.000    0.667    5.000    4.000    4.667    4.000 
#    0.000    1.667    0.000    0.000    0.000    0.000 
#    0.000    0.000    0.000    0.000    0.000    0.000 
#
# Total GULP energy -268754.554088 kJ/mol
# GULP energy per Si atom -5599.053210 kJ/mol
# Density = 2.246100 g / cm^3
# Si number density = 22.512238 Si / 1000 Ang^3
#
#
#
# Elastic Constant Matrix: (Units=GPa)
#
#
# Indices 1 2 3 4 5 6 
#
# 1 59.1303 -6.2406 -20.7026 0.0000 0.0000 0.0000
# 2 -6.2406 75.0155 -0.5537 0.0000 0.0000 0.0000
# 3 -20.7026 -0.5537 69.3766 0.0000 0.0000 0.0000
# 4 0.0000 0.0000 0.0000 10.9104 0.0000 0.0000
# 5 0.0000 0.0000 0.0000 0.0000 12.1001 0.0000
# 6 0.0000 0.0000 0.0000 0.0000 0.0000 39.8903
#
#
#
# Elastic Compliance Matrix: (Units=1/GPa)
#
#
# Indices 1 2 3 4 5 6 
#
# 1 0.019082 0.001630 0.005707 0.000000 0.000000 0.000000
# 2 0.001630 0.013471 0.000594 0.000000 0.000000 0.000000
# 3 0.005707 0.000594 0.016122 0.000000 0.000000 0.000000
# 4 0.000000 0.000000 0.000000 0.091655 0.000000 0.000000
# 5 0.000000 0.000000 0.000000 0.000000 0.082644 0.000000
# 6 0.000000 0.000000 0.000000 0.000000 0.000000 0.025069
#
#
# Mechanical properties :
#
#
# Convention : Reuss Voigt Hill
#
# Bulk Modulus (GPa) = 15.49531 16.50317 15.99924
# Shear Modulus (GPa) = 19.70883 27.98145 23.84514
#
# Velocity S-wave (km/s) = 2.96205 3.52937 3.25808
# Velocity P-wave (km/s) = 4.31234 4.89441 4.61257
#
# Compressibility (1/GPa) = 0.06453566
#
# Stress axis : x y z
#
# Youngs Moduli (GPa) = 52.40542 74.23614 62.02737
#
# Poissons Ratio (x) = -0.12097 -0.35401
# Poissons Ratio (y) = -0.08540 -0.03683
# Poissons Ratio (z) = -0.29909 -0.04408
#
# Static dielectric constant tensor:
#      x y z
#    x 1.859760 0.000000 0.000000 
#    y 0.000000 1.850990 0.000000 
#    z 0.000000 0.000000 1.824170 
# 
# From -- ./inp_files/44406.got.cif
#   From: 2010.05.17/outbox.cif.g08.bks.cpg/sg52_23_cif.got.tgz:44406.got - 2010.06.03 12:15:38.
