data_PCOD9413531
_publ_section_title
;
Structure prediction by ZEFSAII (Michael W. Deem and Ramdas Pophale) SiO2 
 PCOD9413531
Probable space group: P N N A
;
_chemical_formula_sum "Si O2"
_cell_formula_units_Z 32
_cell_length_a 11.601092
_cell_length_b 4.968426
_cell_length_c 18.411128
_cell_angle_alpha 90.000000
_cell_angle_beta 90.000000
_cell_angle_gamma 90.000000
_cell_volume 1061.202084
_symmetry_space_group_name_H-M "P N N A"
_symmetry_group_IT_number 52
_symmetry_cell_setting 'orthorhombic'
loop_
_space_group_symop_operation_xyz
x,y,z
1/2-x,-y,z
x,1/2-y,1/2-z
1/2-x,1/2+y,1/2-z
-x,-y,-z
1/2+x,y,-z
-x,1/2+y,1/2+z
1/2+x,1/2-y,1/2+z
loop_
_atom_site_type_symbol
_atom_site_label
_atom_site_fract_x
_atom_site_fract_y
_atom_site_fract_z
Si Si1 0.165270 0.751670 0.023614
Si Si2 0.117641 0.574580 0.180688
Si Si3 0.174670 0.319678 0.818366
Si Si4 0.930070 0.338720 0.376962
O O1 0.250000 0.500000 0.015194
O O2 0.067564 0.759415 0.962267
O O3 0.250000 0.000000 0.012613
O O4 0.124096 0.746814 0.106704
O O5 0.250000 0.500000 0.195793
O O6 0.079440 0.750000 0.250000
O O7 0.035538 0.317370 0.162535
O O8 0.150109 0.450236 0.737800
O O9 0.185955 0.662657 0.850655
O O10 0.102643 0.155953 0.878033
#
# Coordination Sequence:
#
# PCOD9413531 Si02
#       4
#     8   8   8   8
#     4  11  24  46  78 114 155 204 263 339 420 492
#     4  11  27  50  77 111 158 218 282 343 400 478
#     4  12  25  43  72 112 157 204 257 327 413 500
#     4  12  25  45  75 113 154 206 267 335 411 488
#
# _framework density 30.154484
#
# number of rings (size 3 to 8) (size 9 to 14) (size 15 to 20)
#    0.000    0.500    0.000    9.000    0.000    8.000 
#    0.000    8.750    0.000    0.000    0.000    0.000 
#    0.000    0.000    0.000    0.000    0.000    1.000 
#
# Total GULP energy -178173.744888 kJ/mol
# GULP energy per Si atom -5567.929528 kJ/mol
# Density = 3.008585 g / cm^3
# Si number density = 30.154484 Si / 1000 Ang^3
#
#
#
# Elastic Constant Matrix: (Units=GPa)
#
#
# Indices 1 2 3 4 5 6 
#
# 1 258.9672 82.0875 46.7130 0.0000 0.0000 0.0000
# 2 82.0875 253.5289 79.1394 0.0000 0.0000 0.0000
# 3 46.7130 79.1394 212.9783 0.0000 0.0000 0.0000
# 4 0.0000 0.0000 0.0000 55.2969 0.0000 0.0000
# 5 0.0000 0.0000 0.0000 0.0000 14.6081 0.0000
# 6 0.0000 0.0000 0.0000 0.0000 0.0000 41.7338
#
#
#
# Elastic Compliance Matrix: (Units=1/GPa)
#
#
# Indices 1 2 3 4 5 6 
#
# 1 0.004347 -0.001256 -0.000487 0.000000 0.000000 0.000000
# 2 -0.001256 0.004824 -0.001517 0.000000 0.000000 0.000000
# 3 -0.000487 -0.001517 0.005366 0.000000 0.000000 0.000000
# 4 0.000000 0.000000 0.000000 0.018084 0.000000 0.000000
# 5 0.000000 0.000000 0.000000 0.000000 0.068455 0.000000
# 6 0.000000 0.000000 0.000000 0.000000 0.000000 0.023961
#
#
# Mechanical properties :
#
#
# Convention : Reuss Voigt Hill
#
# Bulk Modulus (GPa) = 124.71860 126.81713 125.76786
# Shear Modulus (GPa) = 37.24924 56.83006 47.03965
#
# Velocity S-wave (km/s) = 3.51847 4.34594 3.95391
# Velocity P-wave (km/s) = 7.61287 8.20549 7.91473
#
# Compressibility (1/GPa) = 0.00801805
#
# Stress axis : x y z
#
# Youngs Moduli (GPa) = 230.02661 207.27599 186.36092
#
# Poissons Ratio (x) = 0.26025 0.09075
# Poissons Ratio (y) = 0.28881 0.28277
# Poissons Ratio (z) = 0.11201 0.31450
#
# Static dielectric constant tensor:
#      x y z
#    x 2.630160 0.000000 0.000000 
#    y 0.000000 3.099840 0.000000 
#    z 0.000000 0.000000 2.548590 
# 
# From -- ./inp_files/27697.got.cif
#   From: 2010.05.17/outbox.cif.g08.bks.cpg/sg52_14_cif.got.tgz:27697.got - 2010.06.03 12:15:38.
