data_PCOD9413332
_publ_section_title
;
Structure prediction by ZEFSAII (Michael W. Deem and Ramdas Pophale) SiO2 
 PCOD9413332
Probable space group: P N N A
;
_chemical_formula_sum "Si O2"
_cell_formula_units_Z 40
_cell_length_a 8.963222
_cell_length_b 23.433244
_cell_length_c 8.829827
_cell_angle_alpha 90.000000
_cell_angle_beta 90.000000
_cell_angle_gamma 90.000000
_cell_volume 1854.593624
_symmetry_space_group_name_H-M "P N N A"
_symmetry_group_IT_number 52
_symmetry_cell_setting 'orthorhombic'
loop_
_space_group_symop_operation_xyz
x,y,z
1/2-x,-y,z
x,1/2-y,1/2-z
1/2-x,1/2+y,1/2-z
-x,-y,-z
1/2+x,y,-z
-x,1/2+y,1/2+z
1/2+x,1/2-y,1/2+z
loop_
_atom_site_type_symbol
_atom_site_label
_atom_site_fract_x
_atom_site_fract_y
_atom_site_fract_z
Si Si1 0.391231 0.632386 0.220013
Si Si2 0.089275 0.710014 0.577727
Si Si3 0.626063 0.453917 0.499502
Si Si4 0.403927 0.842367 0.818715
Si Si5 0.592518 0.838845 0.529647
O O1 0.453721 0.687251 0.315249
O O2 0.365578 0.583492 0.345812
O O3 0.240979 0.643881 0.122808
O O4 0.528240 0.620513 0.103390
O O5 0.247014 0.686667 0.638186
O O6 0.108515 0.776676 0.546181
O O7 0.039633 0.682650 0.418759
O O8 0.750000 0.500000 0.475126
O O9 0.500000 0.500000 0.500000
O O10 0.611962 0.407865 0.366740
O O11 0.456176 0.834231 0.648498
#
# Coordination Sequence:
#
# PCOD9413332 Si02
#       5
#     8   8   8   8   8
#     4  11  25  43  66 100 134 176 224 266 328 400
#     4  11  23  41  63  95 138 181 214 256 326 405
#     4  11  23  45  70  92 125 172 224 279 330 389
#     4  11  23  41  67  97 129 176 226 267 323 396
#     4  12  24  42  66 100 141 173 213 276 327 390
#
# _framework density 21.568068
#
# number of rings (size 3 to 8) (size 9 to 14) (size 15 to 20)
#    0.000    0.800    0.000    9.600    0.000    4.800 
#    0.000    7.000    0.000    0.000    0.000    0.000 
#    0.000    0.000    0.000    0.000    0.000    0.000 
#
# Total GULP energy -223327.825817 kJ/mol
# GULP energy per Si atom -5583.195645 kJ/mol
# Density = 2.151898 g / cm^3
# Si number density = 21.568068 Si / 1000 Ang^3
#
#
#
# Elastic Constant Matrix: (Units=GPa)
#
#
# Indices 1 2 3 4 5 6 
#
# 1 820.1648 634.8154 745.7562 0.0000 0.0000 0.0000
# 2 634.8154 633.5045 635.4805 0.0000 0.0000 0.0000
# 3 745.7562 635.4805 842.2690 0.0000 0.0000 0.0000
# 4 0.0000 0.0000 0.0000 -10.6792 0.0000 0.0000
# 5 0.0000 0.0000 0.0000 0.0000 105.1856 0.0000
# 6 0.0000 0.0000 0.0000 0.0000 0.0000 36.0334
#
#
#
# Elastic Compliance Matrix: (Units=1/GPa)
#
#
# Indices 1 2 3 4 5 6 
#
# 1 0.007932 -0.003715 -0.004220 0.000000 0.000000 0.000000
# 2 -0.003715 0.008232 -0.002921 0.000000 0.000000 0.000000
# 3 -0.004220 -0.002921 0.007128 0.000000 0.000000 0.000000
# 4 0.000000 0.000000 0.000000 -0.093640 0.000000 0.000000
# 5 0.000000 0.000000 0.000000 0.000000 0.009507 0.000000
# 6 0.000000 0.000000 0.000000 0.000000 0.000000 0.027752
#
#
# Mechanical properties :
#
#
# Convention : Reuss Voigt Hill
#
# Bulk Modulus (GPa) = 633.48495 703.11582 668.30038
# Shear Modulus (GPa) = -460.88538 44.76704 -208.05917
#
# Velocity S-wave (km/s) = -14.63396 4.56084 -9.83238
# Velocity P-wave (km/s) = 2.96901 18.82661 13.47695
#
# Compressibility (1/GPa) = 0.00157857
#
# Stress axis : x y z
#
# Youngs Moduli (GPa) = 126.06667 121.47774 140.29480
#
# Poissons Ratio (x) = 0.45134 0.59206
# Poissons Ratio (y) = 0.46839 0.40983
# Poissons Ratio (z) = 0.53202 0.35486
#
# Static dielectric constant tensor:
#      x y z
#    x 1.771390 0.000000 0.000000 
#    y 0.000000 1.706810 0.000000 
#    z 0.000000 0.000000 1.847900 
# 
# From -- ./inp_files/7391.got.cif
#   From: 2010.05.17/outbox.cif.g08.bks.cpg/sg52_4_cif.got.tgz:7391.got - 2010.06.03 12:15:38.
