data_PCOD9413618
_publ_section_title
;
Structure prediction by ZEFSAII (Michael W. Deem and Ramdas Pophale) SiO2 
 PCOD9413618
Probable space group: P N N A
;
_chemical_formula_sum "Si O2"
_cell_formula_units_Z 32
_cell_length_a 33.782110
_cell_length_b 5.300076
_cell_length_c 7.952376
_cell_angle_alpha 90.000000
_cell_angle_beta 90.000000
_cell_angle_gamma 90.000000
_cell_volume 1423.855033
_symmetry_space_group_name_H-M "P N N A"
_symmetry_group_IT_number 52
_symmetry_cell_setting 'orthorhombic'
loop_
_space_group_symop_operation_xyz
x,y,z
1/2-x,-y,z
x,1/2-y,1/2-z
1/2-x,1/2+y,1/2-z
-x,-y,-z
1/2+x,y,-z
-x,1/2+y,1/2+z
1/2+x,1/2-y,1/2+z
loop_
_atom_site_type_symbol
_atom_site_label
_atom_site_fract_x
_atom_site_fract_y
_atom_site_fract_z
Si Si1 0.750000 0.500000 0.551824
Si Si2 0.162784 0.250000 0.750000
Si Si3 0.816378 0.250000 0.750000
Si Si4 0.783973 0.250000 0.250000
Si Si5 0.876895 0.912924 0.578938
Si Si6 0.534170 0.502249 0.862562
O O1 0.787744 0.465128 0.672496
O O2 0.757312 0.274559 0.418494
O O3 0.188903 0.502925 0.748404
O O4 0.136553 0.242232 0.582418
O O5 0.845181 0.365357 0.890027
O O6 0.875683 0.750000 0.750000
O O7 0.921626 0.008691 0.559982
O O8 0.529686 0.750000 0.750000
O O9 0.531485 0.250000 0.750000
O O10 0.500000 0.500000 0.000000
#
# Coordination Sequence:
#
# PCOD9413618 Si02
#       6
#     4   4   4   4   8   8
#     4  12  28  44  74  98 148 198 262 324 392 456
#     4  12  27  48  75 108 144 202 262 315 394 462
#     4  12  26  50  73 110 146 212 262 329 398 464
#     4  12  27  50  68 106 146 190 260 332 382 464
#     4  11  26  50  79 109 158 203 263 328 395 470
#     4  11  25  48  79 120 163 205 255 321 395 481
#
# _framework density 22.474198000000001
#
# number of rings (size 3 to 8) (size 9 to 14) (size 15 to 20)
#    0.000    0.500    3.750    3.000    7.000    1.000 
#    2.250    0.000    0.000    0.000    0.000    0.000 
#    0.000    0.000    0.000    0.000    0.000    0.000 
#
# Total GULP energy -179145.003937 kJ/mol
# GULP energy per Si atom -5598.281373 kJ/mol
# Density = 2.242305 g / cm^3
# Si number density = 22.474198 Si / 1000 Ang^3
#
#
#
# Elastic Constant Matrix: (Units=GPa)
#
#
# Indices 1 2 3 4 5 6 
#
# 1 221.4292 83.6933 95.0922 0.0000 0.0000 0.0000
# 2 83.6933 159.3550 60.9496 0.0000 0.0000 0.0000
# 3 95.0922 60.9496 147.4022 0.0000 0.0000 0.0000
# 4 0.0000 0.0000 0.0000 47.0385 0.0000 0.0000
# 5 0.0000 0.0000 0.0000 0.0000 40.4000 0.0000
# 6 0.0000 0.0000 0.0000 0.0000 0.0000 35.4196
#
#
#
# Elastic Compliance Matrix: (Units=1/GPa)
#
#
# Indices 1 2 3 4 5 6 
#
# 1 0.006877 -0.002275 -0.003496 0.000000 0.000000 0.000000
# 2 -0.002275 0.008207 -0.001926 0.000000 0.000000 0.000000
# 3 -0.003496 -0.001926 0.009836 0.000000 0.000000 0.000000
# 4 0.000000 0.000000 0.000000 0.021259 0.000000 0.000000
# 5 0.000000 0.000000 0.000000 0.000000 0.024752 0.000000
# 6 0.000000 0.000000 0.000000 0.000000 0.000000 0.028233
#
#
# Mechanical properties :
#
#
# Convention : Reuss Voigt Hill
#
# Bulk Modulus (GPa) = 104.97209 111.96184 108.46696
# Shear Modulus (GPa) = 42.46888 43.80171 43.13530
#
# Velocity S-wave (km/s) = 4.35175 4.41951 4.38576
# Velocity P-wave (km/s) = 8.48879 8.71601 8.60315
#
# Compressibility (1/GPa) = 0.00952634
#
# Stress axis : x y z
#
# Youngs Moduli (GPa) = 145.40599 121.85289 101.66862
#
# Poissons Ratio (x) = 0.27719 0.35544
# Poissons Ratio (y) = 0.33077 0.19580
# Poissons Ratio (z) = 0.50835 0.23467
#
# Static dielectric constant tensor:
#      x y z
#    x 1.831530 0.000000 0.000000 
#    y 0.000000 1.865730 0.000000 
#    z 0.000000 0.000000 1.857660 
# 
# From -- ./inp_files/15318.got.cif
#   From: 2010.05.17/outbox.cif.g08.bks.cpg/sg52_8_cif.got.tgz:15318.got - 2010.06.03 12:15:38.
