data_PCOD9413402
_publ_section_title
;
Structure prediction by ZEFSAII (Michael W. Deem and Ramdas Pophale) SiO2 
 PCOD9413402
Probable space group: P N N A
;
_chemical_formula_sum "Si O2"
_cell_formula_units_Z 36
_cell_length_a 10.503182
_cell_length_b 11.831005
_cell_length_c 13.494385
_cell_angle_alpha 90.000000
_cell_angle_beta 90.000000
_cell_angle_gamma 90.000000
_cell_volume 1676.855445
_symmetry_space_group_name_H-M "P N N A"
_symmetry_group_IT_number 52
_symmetry_cell_setting 'orthorhombic'
loop_
_space_group_symop_operation_xyz
x,y,z
1/2-x,-y,z
x,1/2-y,1/2-z
1/2-x,1/2+y,1/2-z
-x,-y,-z
1/2+x,y,-z
-x,1/2+y,1/2+z
1/2+x,1/2-y,1/2+z
loop_
_atom_site_type_symbol
_atom_site_label
_atom_site_fract_x
_atom_site_fract_y
_atom_site_fract_z
Si Si1 0.618889 0.934214 0.958333
Si Si2 0.619138 0.464387 0.751210
Si Si3 0.759511 0.250000 0.750000
Si Si4 0.580671 0.819831 0.557518
Si Si5 0.886641 0.994067 0.392158
O O1 0.602280 0.803651 0.989908
O O2 0.750000 0.000000 0.984373
O O3 0.603150 0.949286 0.839214
O O4 0.500000 0.000000 0.000000
O O5 0.750000 0.500000 0.805605
O O6 0.838993 0.656410 0.708059
O O7 0.499701 0.460844 0.822253
O O8 0.846608 0.201570 0.661515
O O9 0.627433 0.920764 0.485608
O O10 0.437752 0.868362 0.578971
O O11 0.750000 0.000000 0.340954
#
# Coordination Sequence:
#
# PCOD9413402 Si02
#       5
#     8   8   4   8   8
#     4  11  25  44  69 101 136 190 240 293 358 438
#     4  11  23  45  71  98 134 194 243 292 363 439
#     4  12  22  44  74  96 134 188 246 292 342 458
#     4  11  24  42  70 101 137 183 236 290 363 438
#     4  11  27  41  68 108 145 180 233 314 370 426
#
# _framework density 21.468757
#
# number of rings (size 3 to 8) (size 9 to 14) (size 15 to 20)
#    0.000    0.889    6.667    0.000   12.444    0.889 
#    0.000    3.333    0.000    0.000    0.000    0.000 
#    0.000    0.000    0.000    0.000    0.000    0.000 
#
# Total GULP energy -200453.334629 kJ/mol
# GULP energy per Si atom -5568.148184 kJ/mol
# Density = 2.141989 g / cm^3
# Si number density = 21.468757 Si / 1000 Ang^3
#
#
#
# Elastic Constant Matrix: (Units=GPa)
#
#
# Indices 1 2 3 4 5 6 
#
# 1 182.7468 57.1645 52.5686 0.0000 0.0000 0.0000
# 2 57.1645 167.5134 23.9498 0.0000 0.0000 0.0000
# 3 52.5686 23.9498 68.1029 0.0000 0.0000 0.0000
# 4 0.0000 0.0000 0.0000 35.4130 0.0000 0.0000
# 5 0.0000 0.0000 0.0000 0.0000 30.1412 0.0000
# 6 0.0000 0.0000 0.0000 0.0000 0.0000 35.6704
#
#
#
# Elastic Compliance Matrix: (Units=1/GPa)
#
#
# Indices 1 2 3 4 5 6 
#
# 1 0.007532 -0.001831 -0.005170 0.000000 0.000000 0.000000
# 2 -0.001831 0.006731 -0.000954 0.000000 0.000000 0.000000
# 3 -0.005170 -0.000954 0.019010 0.000000 0.000000 0.000000
# 4 0.000000 0.000000 0.000000 0.028238 0.000000 0.000000
# 5 0.000000 0.000000 0.000000 0.000000 0.033177 0.000000
# 6 0.000000 0.000000 0.000000 0.000000 0.000000 0.028034
#
#
# Mechanical properties :
#
#
# Convention : Reuss Voigt Hill
#
# Bulk Modulus (GPa) = 57.59321 76.19209 66.89265
# Shear Modulus (GPa) = 34.62129 39.22360 36.92244
#
# Velocity S-wave (km/s) = 4.02012 4.27899 4.15157
# Velocity P-wave (km/s) = 6.95940 7.74466 7.36251
#
# Compressibility (1/GPa) = 0.01736316
#
# Stress axis : x y z
#
# Youngs Moduli (GPa) = 132.76598 148.56852 52.60458
#
# Poissons Ratio (x) = 0.27205 0.27197
# Poissons Ratio (y) = 0.24312 0.05016
# Poissons Ratio (z) = 0.68640 0.14167
#
# Static dielectric constant tensor:
#      x y z
#    x 1.795020 0.000000 0.000000 
#    y 0.000000 1.885090 0.000000 
#    z 0.000000 0.000000 1.841970 
# 
# From -- ./inp_files/25756.got.cif
#   From: 2010.05.17/outbox.cif.g08.bks.cpg/sg52_13_cif.got.tgz:25756.got - 2010.06.03 12:15:38.
