data_PCOD9413626
_publ_section_title
;
Structure prediction by ZEFSAII (Michael W. Deem and Ramdas Pophale) SiO2 
 PCOD9413626
Probable space group: P N N A
;
_chemical_formula_sum "Si O2"
_cell_formula_units_Z 40
_cell_length_a 18.494174
_cell_length_b 8.941140
_cell_length_c 10.718339
_cell_angle_alpha 90.000000
_cell_angle_beta 90.000000
_cell_angle_gamma 90.000000
_cell_volume 1772.373807
_symmetry_space_group_name_H-M "P N N A"
_symmetry_group_IT_number 52
_symmetry_cell_setting 'orthorhombic'
loop_
_space_group_symop_operation_xyz
x,y,z
1/2-x,-y,z
x,1/2-y,1/2-z
1/2-x,1/2+y,1/2-z
-x,-y,-z
1/2+x,y,-z
-x,1/2+y,1/2+z
1/2+x,1/2-y,1/2+z
loop_
_atom_site_type_symbol
_atom_site_label
_atom_site_fract_x
_atom_site_fract_y
_atom_site_fract_z
Si Si1 0.069830 0.463820 0.917860
Si Si2 0.299426 0.361842 0.919428
Si Si3 0.418812 0.109573 0.857938
Si Si4 0.071879 0.334872 0.460884
Si Si5 0.225236 0.328751 0.372285
O O1 0.138228 0.540957 0.984772
O O2 0.075026 0.525365 0.775796
O O3 0.076283 0.286916 0.929178
O O4 0.000000 0.500000 0.000000
O O5 0.250000 0.500000 0.856616
O O6 0.350337 0.222431 0.867116
O O7 0.248082 0.270666 0.009957
O O8 0.496273 0.184549 0.888524
O O9 0.416249 0.991889 0.970130
O O10 0.138948 0.322618 0.369754
O O11 0.250000 0.500000 0.383069
O O12 0.256797 0.250000 0.250000
#
# Coordination Sequence:
#
# PCOD9413626 Si02
#       5
#     8   8   8   8   8
#     4  12  26  46  76 110 148 199 258 311 387 464
#     4  12  25  47  69 110 149 196 257 308 390 462
#     4  11  26  49  72 113 150 201 257 321 381 466
#     4  11  25  49  77 107 147 200 256 315 389 462
#     4  12  27  47  73 108 150 194 249 314 384 460
#
# _framework density 22.568603
#
# number of rings (size 3 to 8) (size 9 to 14) (size 15 to 20)
#    0.000    0.400    6.000    1.800    2.800    0.000 
#    7.200    0.000    0.000    0.000    0.000    0.000 
#    0.000    0.000    0.000    0.000    0.000    0.000 
#
# Total GULP energy -222754.024554 kJ/mol
# GULP energy per Si atom -5568.850614 kJ/mol
# Density = 2.251724 g / cm^3
# Si number density = 22.568603 Si / 1000 Ang^3
#
#
#
# Elastic Constant Matrix: (Units=GPa)
#
#
# Indices 1 2 3 4 5 6 
#
# 1 147.2645 57.7921 38.4892 0.0000 0.0000 0.0000
# 2 57.7921 137.9355 54.0470 0.0000 0.0000 0.0000
# 3 38.4892 54.0470 86.9189 0.0000 0.0000 0.0000
# 4 0.0000 0.0000 0.0000 20.3211 0.0000 0.0000
# 5 0.0000 0.0000 0.0000 0.0000 6.4865 0.0000
# 6 0.0000 0.0000 0.0000 0.0000 0.0000 39.1006
#
#
#
# Elastic Compliance Matrix: (Units=1/GPa)
#
#
# Indices 1 2 3 4 5 6 
#
# 1 0.008387 -0.002722 -0.002021 0.000000 0.000000 0.000000
# 2 -0.002722 0.010468 -0.005304 0.000000 0.000000 0.000000
# 3 -0.002021 -0.005304 0.015698 0.000000 0.000000 0.000000
# 4 0.000000 0.000000 0.000000 0.049210 0.000000 0.000000
# 5 0.000000 0.000000 0.000000 0.000000 0.154167 0.000000
# 6 0.000000 0.000000 0.000000 0.000000 0.000000 0.025575
#
#
# Mechanical properties :
#
#
# Convention : Reuss Voigt Hill
#
# Bulk Modulus (GPa) = 69.16161 74.75284 71.95722
# Shear Modulus (GPa) = 17.33582 27.96766 22.65174
#
# Velocity S-wave (km/s) = 2.77454 3.52409 3.17153
# Velocity P-wave (km/s) = 6.40122 7.05360 6.73532
#
# Compressibility (1/GPa) = 0.01445889
#
# Stress axis : x y z
#
# Youngs Moduli (GPa) = 119.23205 95.52477 63.70157
#
# Poissons Ratio (x) = 0.26001 0.12877
# Poissons Ratio (y) = 0.32454 0.33788
# Poissons Ratio (z) = 0.24101 0.50667
#
# Static dielectric constant tensor:
#      x y z
#    x 1.869410 0.000000 0.000000 
#    y 0.000000 2.052260 0.000000 
#    z 0.000000 0.000000 0.117830 
# 
# From -- ./inp_files/20307.got.cif
#   From: 2010.05.17/outbox.cif.g08.bks.cpg/sg52_11_cif.got.tgz:20307.got - 2010.06.03 12:15:38.
