data_PCOD9413391
_publ_section_title
;
Structure prediction by ZEFSAII (Michael W. Deem and Ramdas Pophale) SiO2 
 PCOD9413391
Probable space group: P N N A
;
_chemical_formula_sum "Si O2"
_cell_formula_units_Z 40
_cell_length_a 14.451434
_cell_length_b 11.252881
_cell_length_c 9.593655
_cell_angle_alpha 90.000000
_cell_angle_beta 90.000000
_cell_angle_gamma 90.000000
_cell_volume 1560.122738
_symmetry_space_group_name_H-M "P N N A"
_symmetry_group_IT_number 52
_symmetry_cell_setting 'orthorhombic'
loop_
_space_group_symop_operation_xyz
x,y,z
1/2-x,-y,z
x,1/2-y,1/2-z
1/2-x,1/2+y,1/2-z
-x,-y,-z
1/2+x,y,-z
-x,1/2+y,1/2+z
1/2+x,1/2-y,1/2+z
loop_
_atom_site_type_symbol
_atom_site_label
_atom_site_fract_x
_atom_site_fract_y
_atom_site_fract_z
Si Si1 0.825115 0.586990 0.866262
Si Si2 0.506283 0.448009 0.185818
Si Si3 0.295446 0.645784 0.457035
Si Si4 0.368139 0.365922 0.670421
Si Si5 0.512530 0.187449 0.055216
O O1 0.750000 0.500000 0.929015
O O2 0.804959 0.600723 0.700841
O O3 0.804007 0.712550 0.934703
O O4 0.926490 0.529375 0.880351
O O5 0.594426 0.531049 0.225237
O O6 0.523017 0.322783 0.107061
O O7 0.462914 0.393383 0.329106
O O8 0.206939 0.610712 0.548503
O O9 0.389495 0.622971 0.540033
O O10 0.330343 0.250000 0.750000
O O11 0.460001 0.320934 0.589733
#
# Coordination Sequence:
#
# PCOD9413391 Si02
#       5
#     8   8   8   8   8
#     4  11  23  44  72 102 137 193 247 298 361 442
#     4  11  25  45  76 101 142 194 241 303 373 437
#     4  11  26  43  69 106 145 181 245 306 363 440
#     4  12  26  45  71 106 142 192 236 297 375 433
#     4  11  25  47  69 107 145 188 248 303 363 450
#
# _framework density 25.639009999999999
#
# number of rings (size 3 to 8) (size 9 to 14) (size 15 to 20)
#    0.000    0.800    2.000    4.200    5.600    8.000 
#    0.000    0.000    0.000    0.000    0.000    0.000 
#    0.000    0.000    0.000    0.000    0.000    0.000 
#
# Total GULP energy -223867.831067 kJ/mol
# GULP energy per Si atom -5596.695777 kJ/mol
# Density = 2.558065 g / cm^3
# Si number density = 25.639010 Si / 1000 Ang^3
#
#
#
# Elastic Constant Matrix: (Units=GPa)
#
#
# Indices 1 2 3 4 5 6 
#
# 1 138.8815 44.4816 28.7257 0.0000 0.0000 0.0000
# 2 44.4816 151.9433 30.4509 0.0000 0.0000 0.0000
# 3 28.7257 30.4509 56.9113 0.0000 0.0000 0.0000
# 4 0.0000 0.0000 0.0000 36.4188 0.0000 0.0000
# 5 0.0000 0.0000 0.0000 0.0000 35.1333 0.0000
# 6 0.0000 0.0000 0.0000 0.0000 0.0000 38.9535
#
#
#
# Elastic Compliance Matrix: (Units=1/GPa)
#
#
# Indices 1 2 3 4 5 6 
#
# 1 0.008465 -0.001817 -0.003301 0.000000 0.000000 0.000000
# 2 -0.001817 0.007762 -0.003236 0.000000 0.000000 0.000000
# 3 -0.003301 -0.003236 0.020969 0.000000 0.000000 0.000000
# 4 0.000000 0.000000 0.000000 0.027458 0.000000 0.000000
# 5 0.000000 0.000000 0.000000 0.000000 0.028463 0.000000
# 6 0.000000 0.000000 0.000000 0.000000 0.000000 0.025672
#
#
# Mechanical properties :
#
#
# Convention : Reuss Voigt Hill
#
# Bulk Modulus (GPa) = 48.80738 61.67250 55.23994
# Shear Modulus (GPa) = 35.13097 38.37297 36.75197
#
# Velocity S-wave (km/s) = 3.70566 3.87287 3.79019
# Velocity P-wave (km/s) = 6.11448 6.64118 6.38326
#
# Compressibility (1/GPa) = 0.02048870
#
# Stress axis : x y z
#
# Youngs Moduli (GPa) = 118.13473 128.83664 47.69021
#
# Poissons Ratio (x) = 0.23405 0.15741
# Poissons Ratio (y) = 0.21461 0.15433
# Poissons Ratio (z) = 0.38992 0.41692
#
# Static dielectric constant tensor:
#      x y z
#    x 1.986340 0.000000 0.000000 
#    y 0.000000 2.060020 0.000000 
#    z 0.000000 0.000000 2.031010 
# 
# From -- ./inp_files/19268.got.cif
#   From: 2010.05.17/outbox.cif.g08.bks.cpg/sg52_10_cif.got.tgz:19268.got - 2010.06.03 12:15:38.
