data_PCOD9413003
_publ_section_title
;
Structure prediction by ZEFSAII (Michael W. Deem and Ramdas Pophale) SiO2 
 PCOD9413003
Probable space group: P N N A
;
_chemical_formula_sum "Si O2"
_cell_formula_units_Z 48
_cell_length_a 22.213878
_cell_length_b 11.451706
_cell_length_c 9.581890
_cell_angle_alpha 90.000000
_cell_angle_beta 90.000000
_cell_angle_gamma 90.000000
_cell_volume 2437.506335
_symmetry_space_group_name_H-M "P N N A"
_symmetry_group_IT_number 52
_symmetry_cell_setting 'orthorhombic'
loop_
_space_group_symop_operation_xyz
x,y,z
1/2-x,-y,z
x,1/2-y,1/2-z
1/2-x,1/2+y,1/2-z
-x,-y,-z
1/2+x,y,-z
-x,1/2+y,1/2+z
1/2+x,1/2-y,1/2+z
loop_
_atom_site_type_symbol
_atom_site_label
_atom_site_fract_x
_atom_site_fract_y
_atom_site_fract_z
Si Si1 0.234288 0.365409 0.027297
Si Si2 0.822709 0.997272 0.017604
Si Si3 0.857168 0.868964 0.299460
Si Si4 0.371404 0.875130 0.250210
Si Si5 0.638006 0.750814 0.916279
Si Si6 0.430218 0.474975 0.020841
O O1 0.250000 0.500000 0.003123
O O2 0.188351 0.359151 0.155666
O O3 0.295568 0.302170 0.062191
O O4 0.200134 0.323600 0.889098
O O5 0.854624 0.121227 0.983560
O O6 0.750000 0.000000 0.999486
O O7 0.850504 0.911207 0.902211
O O8 0.837680 0.948361 0.170019
O O9 0.889459 0.750000 0.250000
O O10 0.894722 0.948317 0.406096
O O11 0.403658 0.750000 0.250000
O O12 0.409117 0.973959 0.329277
O O13 0.625961 0.750000 0.750000
O O14 0.591077 0.659676 0.984768
O O15 0.500000 0.500000 0.000000
#
# Coordination Sequence:
#
# PCOD9413003 Si02
#       6
#     8   8   8   8   8   8
#     4  11  19  37  64  94 136 173 207 264 350 423
#     4  12  23  37  67 110 139 168 210 279 363 430
#     4  11  24  43  64  97 138 175 218 276 354 425
#     4  11  21  40  66  95 130 172 228 272 337 419
#     4  12  22  41  70 100 137 177 232 285 339 419
#     4  11  26  48  67  89 133 188 237 289 338 385
#
# _framework density 19.692257000000001
#
# number of rings (size 3 to 8) (size 9 to 14) (size 15 to 20)
#    0.000    0.667    5.000    6.500    0.000    1.333 
#    3.000    0.833    0.000    0.000    0.000    0.000 
#    0.000    0.000    0.000    0.000    0.000    0.000 
#
# Total GULP energy -268254.557052 kJ/mol
# GULP energy per Si atom -5588.636605 kJ/mol
# Density = 1.964744 g / cm^3
# Si number density = 19.692257 Si / 1000 Ang^3
#
#
#
# Elastic Constant Matrix: (Units=GPa)
#
#
# Indices 1 2 3 4 5 6 
#
# 1 79.6034 22.8920 23.7674 0.0000 0.0000 0.0000
# 2 22.8920 115.2703 11.8154 0.0000 0.0000 0.0000
# 3 23.7674 11.8154 94.8774 0.0000 0.0000 0.0000
# 4 0.0000 0.0000 0.0000 39.2388 0.0000 0.0000
# 5 0.0000 0.0000 0.0000 0.0000 3.1811 0.0000
# 6 0.0000 0.0000 0.0000 0.0000 0.0000 11.8812
#
#
#
# Elastic Compliance Matrix: (Units=1/GPa)
#
#
# Indices 1 2 3 4 5 6 
#
# 1 0.014253 -0.002497 -0.003260 0.000000 0.000000 0.000000
# 2 -0.002497 0.009225 -0.000523 0.000000 0.000000 0.000000
# 3 -0.003260 -0.000523 0.011422 0.000000 0.000000 0.000000
# 4 0.000000 0.000000 0.000000 0.025485 0.000000 0.000000
# 5 0.000000 0.000000 0.000000 0.000000 0.314356 0.000000
# 6 0.000000 0.000000 0.000000 0.000000 0.000000 0.084167
#
#
# Mechanical properties :
#
#
# Convention : Reuss Voigt Hill
#
# Bulk Modulus (GPa) = 44.76144 45.18894 44.97519
# Shear Modulus (GPa) = 10.44028 26.27862 18.35945
#
# Velocity S-wave (km/s) = 2.30504 3.65700 3.05670
# Velocity P-wave (km/s) = 5.46481 6.38975 5.94529
#
# Compressibility (1/GPa) = 0.02234066
#
# Stress axis : x y z
#
# Youngs Moduli (GPa) = 70.15832 108.40451 87.55289
#
# Poissons Ratio (x) = 0.27064 0.28539
# Poissons Ratio (y) = 0.17515 0.04582
# Poissons Ratio (z) = 0.22869 0.05674
#
# Static dielectric constant tensor:
#      x y z
#    x 1.681120 0.000000 0.000000 
#    y 0.000000 1.774580 0.000000 
#    z 0.000000 0.000000 1.703360 
# 
# From -- ./inp_files/14269.got.cif
#   From: 2010.05.17/outbox.cif.g08.bks.cpg/sg52_8_cif.got.tgz:14269.got - 2010.06.03 12:15:38.
