data_PCOD9413896
_publ_section_title
;
Structure prediction by ZEFSAII (Michael W. Deem and Ramdas Pophale) SiO2 
 PCOD9413896
Probable space group: P N N A
;
_chemical_formula_sum "Si O2"
_cell_formula_units_Z 20
_cell_length_a 6.668729
_cell_length_b 9.213002
_cell_length_c 11.477052
_cell_angle_alpha 90.000000
_cell_angle_beta 90.000000
_cell_angle_gamma 90.000000
_cell_volume 705.138754
_symmetry_space_group_name_H-M "P N N A"
_symmetry_group_IT_number 52
_symmetry_cell_setting 'orthorhombic'
loop_
_space_group_symop_operation_xyz
x,y,z
1/2-x,-y,z
x,1/2-y,1/2-z
1/2-x,1/2+y,1/2-z
-x,-y,-z
1/2+x,y,-z
-x,1/2+y,1/2+z
1/2+x,1/2-y,1/2+z
loop_
_atom_site_type_symbol
_atom_site_label
_atom_site_fract_x
_atom_site_fract_y
_atom_site_fract_z
Si Si1 0.877340 0.615901 0.983069
Si Si2 0.737150 0.250000 0.750000
Si Si3 0.431525 0.909877 0.885575
O O1 0.890579 0.681466 0.852873
O O2 0.623328 0.573328 0.986189
O O3 0.859579 0.753110 0.070961
O O4 0.883827 0.127426 0.803008
O O5 0.250000 0.000000 0.829481
O O6 0.500000 0.000000 0.000000
#
# Coordination Sequence:
#
# PCOD9413896 Si02
#       3
#     8   4   8
#     4  12  26  50  79 115 161 214 271 338 407 490
#     4  12  28  48  86 116 172 216 270 344 424 470
#     4  12  26  49  79 117 160 212 276 335 408 493
#
# _framework density 28.363213999999999
#
# number of rings (size 3 to 8) (size 9 to 14) (size 15 to 20)
#    0.000    0.000    8.000    0.000    5.600    1.600 
#    7.200    0.000    0.000    0.000    0.000    0.000 
#    0.000    0.000    0.000    0.000    0.000    0.000 
#
# Total GULP energy -112357.009454 kJ/mol
# GULP energy per Si atom -5617.850473 kJ/mol
# Density = 2.829866 g / cm^3
# Si number density = 28.363214 Si / 1000 Ang^3
#
#
#
# Elastic Constant Matrix: (Units=GPa)
#
#
# Indices 1 2 3 4 5 6 
#
# 1 192.2388 119.4614 77.4225 0.0000 0.0000 0.0000
# 2 119.4614 213.5372 50.9460 0.0000 0.0000 0.0000
# 3 77.4225 50.9460 156.9104 0.0000 0.0000 0.0000
# 4 0.0000 0.0000 0.0000 54.1532 0.0000 0.0000
# 5 0.0000 0.0000 0.0000 0.0000 49.3563 0.0000
# 6 0.0000 0.0000 0.0000 0.0000 0.0000 104.8221
#
#
#
# Elastic Compliance Matrix: (Units=1/GPa)
#
#
# Indices 1 2 3 4 5 6 
#
# 1 0.009185 -0.004398 -0.003104 0.000000 0.000000 0.000000
# 2 -0.004398 0.007182 -0.000162 0.000000 0.000000 0.000000
# 3 -0.003104 -0.000162 0.007957 0.000000 0.000000 0.000000
# 4 0.000000 0.000000 0.000000 0.018466 0.000000 0.000000
# 5 0.000000 0.000000 0.000000 0.000000 0.020261 0.000000
# 6 0.000000 0.000000 0.000000 0.000000 0.000000 0.009540
#
#
# Mechanical properties :
#
#
# Convention : Reuss Voigt Hill
#
# Bulk Modulus (GPa) = 111.15456 117.59403 114.37429
# Shear Modulus (GPa) = 54.99485 62.65675 58.82580
#
# Velocity S-wave (km/s) = 4.40813 4.70519 4.55908
# Velocity P-wave (km/s) = 8.07363 8.43021 8.25385
#
# Compressibility (1/GPa) = 0.00899648
#
# Stress axis : x y z
#
# Youngs Moduli (GPa) = 108.87401 139.23740 125.67156
#
# Poissons Ratio (x) = 0.61234 0.39010
# Poissons Ratio (y) = 0.47881 0.02034
# Poissons Ratio (z) = 0.33796 0.02254
#
# Static dielectric constant tensor:
#      x y z
#    x 2.254400 0.000000 0.000000 
#    y 0.000000 2.127960 0.000000 
#    z 0.000000 0.000000 2.036440 
# 
# From -- ./inp_files/23297.got.cif
#   From: 2010.05.17/outbox.cif.g08.bks.cpg/sg52_12_cif.got.tgz:23297.got - 2010.06.03 12:15:38.
