data_PCOD9413381
_publ_section_title
;
Structure prediction by ZEFSAII (Michael W. Deem and Ramdas Pophale) SiO2 
 PCOD9413381
Probable space group: P N N A
;
_chemical_formula_sum "Si O2"
_cell_formula_units_Z 40
_cell_length_a 9.395962
_cell_length_b 14.099975
_cell_length_c 14.886890
_cell_angle_alpha 90.000000
_cell_angle_beta 90.000000
_cell_angle_gamma 90.000000
_cell_volume 1972.257307
_symmetry_space_group_name_H-M "P N N A"
_symmetry_group_IT_number 52
_symmetry_cell_setting 'orthorhombic'
loop_
_space_group_symop_operation_xyz
x,y,z
1/2-x,-y,z
x,1/2-y,1/2-z
1/2-x,1/2+y,1/2-z
-x,-y,-z
1/2+x,y,-z
-x,1/2+y,1/2+z
1/2+x,1/2-y,1/2+z
loop_
_atom_site_type_symbol
_atom_site_label
_atom_site_fract_x
_atom_site_fract_y
_atom_site_fract_z
Si Si1 0.373328 0.939056 0.955688
Si Si2 0.909453 0.523622 0.139503
Si Si3 0.480904 0.154670 0.209730
Si Si4 0.990719 0.655661 0.976291
Si Si5 0.764808 0.218572 0.924446
O O1 0.439742 0.873601 0.880545
O O2 0.250000 0.000000 0.910368
O O3 0.287458 0.876663 0.027101
O O4 0.500000 0.000000 0.000000
O O5 0.750000 0.500000 0.171322
O O6 0.959913 0.427505 0.090678
O O7 0.004843 0.569443 0.218936
O O8 0.915788 0.602929 0.060744
O O9 0.548186 0.250000 0.250000
O O10 0.328542 0.187332 0.170969
O O11 0.874659 0.716942 0.923942
O O12 0.116044 0.721976 0.018265
#
# Coordination Sequence:
#
# PCOD9413381 Si02
#       5
#     8   8   8   8   8
#     4  12  24  46  73  96 137 192 232 279 354 430
#     4  11  23  43  72 109 145 183 239 297 352 430
#     4  12  25  45  70 102 141 179 237 298 347 413
#     4  11  23  43  74 105 141 193 230 286 371 425
#     4  12  22  46  73  99 143 187 239 291 356 430
#
# _framework density 20.281327000000001
#
# number of rings (size 3 to 8) (size 9 to 14) (size 15 to 20)
#    0.000    0.400    8.000    0.600    0.000    0.000 
#    7.200    0.000    0.000    0.000    0.000    0.000 
#    0.000    0.000    0.000    0.000    0.000    0.000 
#
# Total GULP energy -223226.528626 kJ/mol
# GULP energy per Si atom -5580.663216 kJ/mol
# Density = 2.023517 g / cm^3
# Si number density = 20.281327 Si / 1000 Ang^3
#
#
#
# Elastic Constant Matrix: (Units=GPa)
#
#
# Indices 1 2 3 4 5 6 
#
# 1 79.9383 44.1367 31.5988 0.0000 0.0000 0.0000
# 2 44.1367 98.0198 37.8071 0.0000 0.0000 0.0000
# 3 31.5988 37.8071 105.5521 0.0000 0.0000 0.0000
# 4 0.0000 0.0000 0.0000 46.7863 0.0000 0.0000
# 5 0.0000 0.0000 0.0000 0.0000 16.3326 0.0000
# 6 0.0000 0.0000 0.0000 0.0000 0.0000 38.3712
#
#
#
# Elastic Compliance Matrix: (Units=1/GPa)
#
#
# Indices 1 2 3 4 5 6 
#
# 1 0.017322 -0.006729 -0.002775 0.000000 0.000000 0.000000
# 2 -0.006729 0.014452 -0.003162 0.000000 0.000000 0.000000
# 3 -0.002775 -0.003162 0.011437 0.000000 0.000000 0.000000
# 4 0.000000 0.000000 0.000000 0.021374 0.000000 0.000000
# 5 0.000000 0.000000 0.000000 0.000000 0.061227 0.000000
# 6 0.000000 0.000000 0.000000 0.000000 0.000000 0.026061
#
#
# Mechanical properties :
#
#
# Convention : Reuss Voigt Hill
#
# Bulk Modulus (GPa) = 55.93418 56.73281 56.33350
# Shear Modulus (GPa) = 27.29765 31.62920 29.46342
#
# Velocity S-wave (km/s) = 3.67270 3.95336 3.81561
# Velocity P-wave (km/s) = 6.75455 6.99088 6.87373
#
# Compressibility (1/GPa) = 0.01787816
#
# Stress axis : x y z
#
# Youngs Moduli (GPa) = 57.72911 69.19588 87.43295
#
# Poissons Ratio (x) = 0.46565 0.24265
# Poissons Ratio (y) = 0.38849 0.27645
# Poissons Ratio (z) = 0.16022 0.21878
#
# Static dielectric constant tensor:
#      x y z
#    x 1.735580 0.000000 0.000000 
#    y 0.000000 1.775870 0.000000 
#    z 0.000000 0.000000 1.692090 
# 
# From -- ./inp_files/24400.got.cif
#   From: 2010.05.17/outbox.cif.g08.bks.cpg/sg52_13_cif.got.tgz:24400.got - 2010.06.03 12:15:38.
