data_PCOD9413300
_publ_section_title
;
Structure prediction by ZEFSAII (Michael W. Deem and Ramdas Pophale) SiO2 
 PCOD9413300
Probable space group: P N N A
;
_chemical_formula_sum "Si O2"
_cell_formula_units_Z 44
_cell_length_a 23.692705
_cell_length_b 9.692877
_cell_length_c 7.981612
_cell_angle_alpha 90.000000
_cell_angle_beta 90.000000
_cell_angle_gamma 90.000000
_cell_volume 1832.980990
_symmetry_space_group_name_H-M "P N N A"
_symmetry_group_IT_number 52
_symmetry_cell_setting 'orthorhombic'
loop_
_space_group_symop_operation_xyz
x,y,z
1/2-x,-y,z
x,1/2-y,1/2-z
1/2-x,1/2+y,1/2-z
-x,-y,-z
1/2+x,y,-z
-x,1/2+y,1/2+z
1/2+x,1/2-y,1/2+z
loop_
_atom_site_type_symbol
_atom_site_label
_atom_site_fract_x
_atom_site_fract_y
_atom_site_fract_z
Si Si1 0.235805 0.250000 0.750000
Si Si2 0.958387 0.122499 0.955245
Si Si3 0.642408 0.457640 0.122682
Si Si4 0.268692 0.850208 0.101476
Si Si5 0.112100 0.098996 0.238604
Si Si6 0.884248 0.250000 0.250000
Si Si7 0.049163 0.250000 0.750000
O O1 0.196623 0.374784 0.816255
O O2 0.258809 0.308185 0.574488
O O3 0.003722 0.235952 0.897479
O O4 0.918719 0.039788 0.823503
O O5 0.921656 0.186354 0.101521
O O6 0.000000 0.000000 0.000000
O O7 0.647152 0.616752 0.174428
O O8 0.589379 0.380712 0.213988
O O9 0.634811 0.436846 0.923888
O O10 0.252040 0.750000 0.250000
O O11 0.337247 0.862812 0.107887
O O12 0.250000 0.000000 0.149504
O O13 0.080890 0.250000 0.250000
#
# Coordination Sequence:
#
# PCOD9413300 Si02
#       7
#     4   8   8   8   8   4   4
#     4  11  22  50  77 110 140 186 234 285 365 426
#     4  12  25  39  62  99 142 183 241 295 345 409
#     4  11  23  43  72  99 143 189 238 292 351 418
#     4  11  25  50  78 109 143 183 235 292 359 432
#     4  11  23  46  74  98 139 194 233 294 357 418
#     4  12  26  40  59 102 141 187 244 295 346 418
#     4  11  24  40  64  96 139 195 242 288 347 418
#
# _framework density 24.004614
#
# number of rings (size 3 to 8) (size 9 to 14) (size 15 to 20)
#    0.000    0.727    5.455    3.273    3.818    2.182 
#    8.182    0.909    0.000    0.000    0.000    0.000 
#    0.000    0.000    0.000    0.000    0.000    0.000 
#
# Total GULP energy -245894.443766 kJ/mol
# GULP energy per Si atom -5588.510086 kJ/mol
# Density = 2.394998 g / cm^3
# Si number density = 24.004614 Si / 1000 Ang^3
#
#
#
# Elastic Constant Matrix: (Units=GPa)
#
#
# Indices 1 2 3 4 5 6 
#
# 1 35.1588 19.1004 15.0282 0.0000 0.0000 0.0000
# 2 19.1004 160.9402 29.6603 0.0000 0.0000 0.0000
# 3 15.0282 29.6603 121.2040 0.0000 0.0000 0.0000
# 4 0.0000 0.0000 0.0000 50.6725 0.0000 0.0000
# 5 0.0000 0.0000 0.0000 0.0000 20.5349 0.0000
# 6 0.0000 0.0000 0.0000 0.0000 0.0000 14.8705
#
#
#
# Elastic Compliance Matrix: (Units=1/GPa)
#
#
# Indices 1 2 3 4 5 6 
#
# 1 0.031498 -0.003161 -0.003132 0.000000 0.000000 0.000000
# 2 -0.003161 0.006824 -0.001278 0.000000 0.000000 0.000000
# 3 -0.003132 -0.001278 0.008952 0.000000 0.000000 0.000000
# 4 0.000000 0.000000 0.000000 0.019735 0.000000 0.000000
# 5 0.000000 0.000000 0.000000 0.000000 0.048698 0.000000
# 6 0.000000 0.000000 0.000000 0.000000 0.000000 0.067247
#
#
# Mechanical properties :
#
#
# Convention : Reuss Voigt Hill
#
# Bulk Modulus (GPa) = 31.12150 49.43120 40.27635
# Shear Modulus (GPa) = 23.94566 34.11654 29.03110
#
# Velocity S-wave (km/s) = 3.16182 3.77404 3.48141
# Velocity P-wave (km/s) = 5.13054 6.29509 5.74241
#
# Compressibility (1/GPa) = 0.03213213
#
# Stress axis : x y z
#
# Youngs Moduli (GPa) = 31.74767 146.53793 111.71137
#
# Poissons Ratio (x) = 0.46321 0.34988
# Poissons Ratio (y) = 0.10035 0.14277
# Poissons Ratio (z) = 0.09943 0.18728
#
# Static dielectric constant tensor:
#      x y z
#    x 2.110290 0.000000 0.000000 
#    y 0.000000 7.630790 0.000000 
#    z 0.000000 0.000000 2.219470 
# 
# From -- ./inp_files/15431.got.cif
#   From: 2010.05.17/outbox.cif.g08.bks.cpg/sg52_8_cif.got.tgz:15431.got - 2010.06.03 12:15:38.
