data_PCOD9413738
_publ_section_title
;
Structure prediction by ZEFSAII (Michael W. Deem and Ramdas Pophale) SiO2 
 PCOD9413738
Probable space group: P N N A
;
_chemical_formula_sum "Si O2"
_cell_formula_units_Z 24
_cell_length_a 15.058882
_cell_length_b 4.958850
_cell_length_c 12.711402
_cell_angle_alpha 90.000000
_cell_angle_beta 90.000000
_cell_angle_gamma 90.000000
_cell_volume 949.220601
_symmetry_space_group_name_H-M "P N N A"
_symmetry_group_IT_number 52
_symmetry_cell_setting 'orthorhombic'
loop_
_space_group_symop_operation_xyz
x,y,z
1/2-x,-y,z
x,1/2-y,1/2-z
1/2-x,1/2+y,1/2-z
-x,-y,-z
1/2+x,y,-z
-x,1/2+y,1/2+z
1/2+x,1/2-y,1/2+z
loop_
_atom_site_type_symbol
_atom_site_label
_atom_site_fract_x
_atom_site_fract_y
_atom_site_fract_z
Si Si1 0.549342 0.750000 0.750000
Si Si2 0.410772 0.555557 0.581480
Si Si3 0.857649 0.028714 0.550823
Si Si4 0.250000 0.000000 0.796998
O O1 0.485787 0.581288 0.670172
O O2 0.611133 0.912195 0.669418
O O3 0.385874 0.274532 0.526534
O O4 0.321871 0.662603 0.638278
O O5 0.415030 0.772989 0.488291
O O6 0.750000 0.000000 0.548210
O O7 0.304127 0.250000 0.750000
#
# Coordination Sequence:
#
# PCOD9413738 Si02
#       4
#     4   8   8   4
#     4  12  30  48  82 118 156 200 268 324 380 462
#     4  12  26  48  77 112 153 202 258 317 383 459
#     4  12  27  51  76 111 157 208 252 316 394 463
#     4  12  22  42  78 108 150 204 256 314 386 454
#
# _framework density 25.283904
#
# number of rings (size 3 to 8) (size 9 to 14) (size 15 to 20)
#    0.000    0.000    5.000    4.000    0.000    6.667 
#    0.000    0.000    0.000    0.000    0.000    0.000 
#    0.000    0.000    0.000    0.000    0.000    0.000 
#
# Total GULP energy -134092.976876 kJ/mol
# GULP energy per Si atom -5587.207370 kJ/mol
# Density = 2.522636 g / cm^3
# Si number density = 25.283904 Si / 1000 Ang^3
#
#
#
# Elastic Constant Matrix: (Units=GPa)
#
#
# Indices 1 2 3 4 5 6 
#
# 1 176.7418 46.5438 77.9245 0.0000 0.0000 0.0000
# 2 46.5438 132.3814 64.8866 0.0000 0.0000 0.0000
# 3 77.9245 64.8866 185.8353 0.0000 0.0000 0.0000
# 4 0.0000 0.0000 0.0000 32.8481 0.0000 0.0000
# 5 0.0000 0.0000 0.0000 0.0000-1576.5744 0.0000
# 6 0.0000 0.0000 0.0000 0.0000 0.0000 16.1301
#
#
#
# Elastic Compliance Matrix: (Units=1/GPa)
#
#
# Indices 1 2 3 4 5 6 
#
# 1 0.007109 -0.001253 -0.002544 0.000000 0.000000 0.000000
# 2 -0.001253 0.009334 -0.002734 0.000000 0.000000 0.000000
# 3 -0.002544 -0.002734 0.007402 0.000000 0.000000 0.000000
# 4 0.000000 0.000000 0.000000 0.030443 0.000000 0.000000
# 5 0.000000 0.000000 0.000000 0.000000 -0.000634 0.000000
# 6 0.000000 0.000000 0.000000 0.000000 0.000000 0.061996
#
#
# Mechanical properties :
#
#
# Convention : Reuss Voigt Hill
#
# Bulk Modulus (GPa) = 92.71841 97.07428 94.89635
# Shear Modulus (GPa) = 37.79095 -285.14568 -123.67737
#
# Velocity S-wave (km/s) = 3.87028 -10.63120 -7.00155
# Velocity P-wave (km/s) = 7.53144 10.59337 5.26767
#
# Compressibility (1/GPa) = 0.01078534
#
# Stress axis : x y z
#
# Youngs Moduli (GPa) = 140.65921 107.13040 135.09317
#
# Poissons Ratio (x) = 0.13421 0.34363
# Poissons Ratio (y) = 0.17622 0.36933
# Poissons Ratio (z) = 0.35779 0.29288
#
# Static dielectric constant tensor:
#      x y z
#    x 2.001800 0.000000 0.000000 
#    y 0.000000 1.755840 0.000000 
#    z 0.000000 0.000000 2.187700 
# 
# From -- ./inp_files/20067.got.cif
#   From: 2010.05.17/outbox.cif.g08.bks.cpg/sg52_11_cif.got.tgz:20067.got - 2010.06.03 12:15:38.
