data_PCOD9413596
_publ_section_title
;
Structure prediction by ZEFSAII (Michael W. Deem and Ramdas Pophale) SiO2 
 PCOD9413596
Probable space group: P N N A
;
_chemical_formula_sum "Si O2"
_cell_formula_units_Z 48
_cell_length_a 13.900124
_cell_length_b 16.958530
_cell_length_c 8.703181
_cell_angle_alpha 90.000000
_cell_angle_beta 90.000000
_cell_angle_gamma 90.000000
_cell_volume 2051.563171
_symmetry_space_group_name_H-M "P N N A"
_symmetry_group_IT_number 52
_symmetry_cell_setting 'orthorhombic'
loop_
_space_group_symop_operation_xyz
x,y,z
1/2-x,-y,z
x,1/2-y,1/2-z
1/2-x,1/2+y,1/2-z
-x,-y,-z
1/2+x,y,-z
-x,1/2+y,1/2+z
1/2+x,1/2-y,1/2+z
loop_
_atom_site_type_symbol
_atom_site_label
_atom_site_fract_x
_atom_site_fract_y
_atom_site_fract_z
Si Si1 0.183595 0.922865 0.349538
Si Si2 0.995767 0.733929 0.422182
Si Si3 0.822109 0.195536 0.112274
Si Si4 0.822365 0.775070 0.589483
Si Si5 0.499313 0.439208 0.359671
Si Si6 0.146487 0.958189 0.686879
O O1 0.253290 0.848089 0.373121
O O2 0.105702 0.921405 0.212844
O O3 0.129704 0.928423 0.513945
O O4 0.250000 0.000000 0.328642
O O5 0.030627 0.750000 0.250000
O O6 0.081842 0.734029 0.542601
O O7 0.959277 0.643802 0.417182
O O8 0.908595 0.790079 0.471043
O O9 0.784467 0.250000 0.250000
O O10 0.846284 0.111726 0.187350
O O11 0.743415 0.204860 0.979145
O O12 0.868789 0.750000 0.750000
O O13 0.500000 0.500000 0.500000
O O14 0.565817 0.479760 0.233258
O O15 0.250000 0.000000 0.686226
#
# Coordination Sequence:
#
# PCOD9413596 Si02
#       6
#     8   8   8   8   8   8
#     4  11  27  47  76 106 150 200 247 310 385 459
#     4  12  28  46  73 107 147 195 253 307 383 449
#     4  12  23  45  72 105 146 191 246 311 374 451
#     4  12  27  47  72 106 146 192 249 313 378 457
#     4  12  26  47  74 110 150 199 250 315 376 453
#     4  11  25  46  73 106 147 196 248 305 378 453
#
# _framework density 23.396792000000001
#
# number of rings (size 3 to 8) (size 9 to 14) (size 15 to 20)
#    0.000    0.333    3.333    5.000    7.000    2.000 
#    0.000    0.000    0.000    0.000    0.000    0.000 
#    0.000    0.000    0.000    0.000    0.000    0.000 
#
# Total GULP energy -268770.773926 kJ/mol
# GULP energy per Si atom -5599.391123 kJ/mol
# Density = 2.334354 g / cm^3
# Si number density = 23.396792 Si / 1000 Ang^3
#
#
#
# Elastic Constant Matrix: (Units=GPa)
#
#
# Indices 1 2 3 4 5 6 
#
# 1 104.1332 19.4881 38.4592 0.0000 0.0000 0.0000
# 2 19.4881 85.7155 15.9554 0.0000 0.0000 0.0000
# 3 38.4592 15.9554 114.6994 0.0000 0.0000 0.0000
# 4 0.0000 0.0000 0.0000 32.8092 0.0000 0.0000
# 5 0.0000 0.0000 0.0000 0.0000 30.3858 0.0000
# 6 0.0000 0.0000 0.0000 0.0000 0.0000 32.4441
#
#
#
# Elastic Compliance Matrix: (Units=1/GPa)
#
#
# Indices 1 2 3 4 5 6 
#
# 1 0.011256 -0.001906 -0.003509 0.000000 0.000000 0.000000
# 2 -0.001906 0.012299 -0.001072 0.000000 0.000000 0.000000
# 3 -0.003509 -0.001072 0.010044 0.000000 0.000000 0.000000
# 4 0.000000 0.000000 0.000000 0.030479 0.000000 0.000000
# 5 0.000000 0.000000 0.000000 0.000000 0.032910 0.000000
# 6 0.000000 0.000000 0.000000 0.000000 0.000000 0.030822
#
#
# Mechanical properties :
#
#
# Convention : Reuss Voigt Hill
#
# Bulk Modulus (GPa) = 48.48316 50.26151 49.37233
# Shear Modulus (GPa) = 33.86169 34.50418 34.18293
#
# Velocity S-wave (km/s) = 3.80844 3.84440 3.82646
# Velocity P-wave (km/s) = 6.33294 6.42143 6.37734
#
# Compressibility (1/GPa) = 0.02062572
#
# Stress axis : x y z
#
# Youngs Moduli (GPa) = 88.84368 81.30512 99.56078
#
# Poissons Ratio (x) = 0.15496 0.34936
# Poissons Ratio (y) = 0.16933 0.10671
# Poissons Ratio (z) = 0.31175 0.08715
#
# Static dielectric constant tensor:
#      x y z
#    x 1.847950 0.000000 0.000000 
#    y 0.000000 1.882370 0.000000 
#    z 0.000000 0.000000 1.857960 
# 
# From -- ./inp_files/10510.got.cif
#   From: 2010.05.17/outbox.cif.g08.bks.cpg/sg52_6_cif.got.tgz:10510.got - 2010.06.03 12:15:38.
