data_PCOD9413279
_publ_section_title
;
Structure prediction by ZEFSAII (Michael W. Deem and Ramdas Pophale) SiO2 
 PCOD9413279
Probable space group: P N N A
;
_chemical_formula_sum "Si O2"
_cell_formula_units_Z 32
_cell_length_a 10.348921
_cell_length_b 13.573815
_cell_length_c 8.902742
_cell_angle_alpha 90.000000
_cell_angle_beta 90.000000
_cell_angle_gamma 90.000000
_cell_volume 1250.606799
_symmetry_space_group_name_H-M "P N N A"
_symmetry_group_IT_number 52
_symmetry_cell_setting 'orthorhombic'
loop_
_space_group_symop_operation_xyz
x,y,z
1/2-x,-y,z
x,1/2-y,1/2-z
1/2-x,1/2+y,1/2-z
-x,-y,-z
1/2+x,y,-z
-x,1/2+y,1/2+z
1/2+x,1/2-y,1/2+z
loop_
_atom_site_type_symbol
_atom_site_label
_atom_site_fract_x
_atom_site_fract_y
_atom_site_fract_z
Si Si1 0.407448 0.345598 0.863579
Si Si2 0.035509 0.502273 0.325137
Si Si3 0.639838 0.276148 0.078468
Si Si4 0.756600 0.150641 0.838751
O O1 0.412566 0.250000 0.750000
O O2 0.430444 0.449773 0.779229
O O3 0.263100 0.348671 0.928731
O O4 0.516888 0.317511 0.987155
O O5 0.101203 0.608813 0.312510
O O6 0.153181 0.428780 0.289521
O O7 0.000000 0.500000 0.500000
O O8 0.611921 0.250000 0.250000
O O9 0.706293 0.178397 0.004960
O O10 0.739311 0.250000 0.750000
#
# Coordination Sequence:
#
# PCOD9413279 Si02
#       4
#     8   8   8   8
#     4  11  22  45  72 109 150 194 257 312 375 466
#     4  11  22  43  77 100 138 196 263 311 373 468
#     4  11  23  41  73 108 150 194 244 311 386 456
#     4  11  23  43  73 101 142 197 248 308 390 455
#
# _framework density 25.587579999999999
#
# number of rings (size 3 to 8) (size 9 to 14) (size 15 to 20)
#    0.000    1.000    5.000    3.000    0.000    2.000 
#    0.000    1.250   22.000    0.000    0.000    0.000 
#    0.000    0.000    0.000    0.000    0.000    0.000 
#
# Total GULP energy -178947.410163 kJ/mol
# GULP energy per Si atom -5592.106568 kJ/mol
# Density = 2.552934 g / cm^3
# Si number density = 25.587580 Si / 1000 Ang^3
#
#
#
# Elastic Constant Matrix: (Units=GPa)
#
#
# Indices 1 2 3 4 5 6 
#
# 1 154.2128 40.9175 60.2163 0.0000 0.0000 0.0000
# 2 40.9175 85.3918 34.4753 0.0000 0.0000 0.0000
# 3 60.2163 34.4753 137.5632 0.0000 0.0000 0.0000
# 4 0.0000 0.0000 0.0000 46.4155 0.0000 0.0000
# 5 0.0000 0.0000 0.0000 0.0000 48.9045 0.0000
# 6 0.0000 0.0000 0.0000 0.0000 0.0000 32.5929
#
#
#
# Elastic Compliance Matrix: (Units=1/GPa)
#
#
# Indices 1 2 3 4 5 6 
#
# 1 0.008392 -0.002824 -0.002966 0.000000 0.000000 0.000000
# 2 -0.002824 0.013979 -0.002267 0.000000 0.000000 0.000000
# 3 -0.002966 -0.002267 0.009136 0.000000 0.000000 0.000000
# 4 0.000000 0.000000 0.000000 0.021545 0.000000 0.000000
# 5 0.000000 0.000000 0.000000 0.000000 0.020448 0.000000
# 6 0.000000 0.000000 0.000000 0.000000 0.000000 0.030682
#
#
# Mechanical properties :
#
#
# Convention : Reuss Voigt Hill
#
# Bulk Modulus (GPa) = 64.96383 72.04292 68.50337
# Shear Modulus (GPa) = 39.86425 41.68648 40.77536
#
# Velocity S-wave (km/s) = 3.95137 4.04067 3.99627
# Velocity P-wave (km/s) = 6.80160 7.07007 6.93714
#
# Compressibility (1/GPa) = 0.01539318
#
# Stress axis : x y z
#
# Youngs Moduli (GPa) = 119.16359 71.53482 109.45939
#
# Poissons Ratio (x) = 0.20200 0.32463
# Poissons Ratio (y) = 0.33649 0.24818
# Poissons Ratio (z) = 0.35341 0.16219
#
# Static dielectric constant tensor:
#      x y z
#    x 2.066810 0.000000 0.000000 
#    y 0.000000 2.247810 0.000000 
#    z 0.000000 0.000000 2.124330 
# 
# From -- ./inp_files/8343.got.cif
#   From: 2010.05.17/outbox.cif.g08.bks.cpg/sg52_5_cif.got.tgz:8343.got - 2010.06.03 12:15:38.
