data_PCOD9413884
_publ_section_title
;
Structure prediction by ZEFSAII (Michael W. Deem and Ramdas Pophale) SiO2 
 PCOD9413884
Probable space group: P N N A
;
_chemical_formula_sum "Si O2"
_cell_formula_units_Z 20
_cell_length_a 28.919560
_cell_length_b 4.920839
_cell_length_c 6.225034
_cell_angle_alpha 90.000000
_cell_angle_beta 90.000000
_cell_angle_gamma 90.000000
_cell_volume 885.875243
_symmetry_space_group_name_H-M "P N N A"
_symmetry_group_IT_number 52
_symmetry_cell_setting 'orthorhombic'
loop_
_space_group_symop_operation_xyz
x,y,z
1/2-x,-y,z
x,1/2-y,1/2-z
1/2-x,1/2+y,1/2-z
-x,-y,-z
1/2+x,y,-z
-x,1/2+y,1/2+z
1/2+x,1/2-y,1/2+z
loop_
_atom_site_type_symbol
_atom_site_label
_atom_site_fract_x
_atom_site_fract_y
_atom_site_fract_z
Si Si1 0.551805 0.498290 0.906457
Si Si2 0.750000 0.500000 0.900911
Si Si3 0.120378 0.250000 0.750000
Si Si4 0.319393 0.250000 0.750000
O O1 0.553913 0.250000 0.750000
O O2 0.561256 0.750000 0.750000
O O3 0.500000 0.500000 0.000000
O O4 0.587944 0.425420 0.091848
O O5 0.734164 0.250000 0.750000
O O6 0.711088 0.621311 0.059328
O O7 0.151965 0.492779 0.656146
#
# Coordination Sequence:
#
# PCOD9413884 Si02
#       4
#     8   4   4   4
#     4  12  26  45  74 103 143 202 252 299 365 429
#     4  12  26  50  84 108 148 198 244 304 384 466
#     4  12  27  46  74 110 156 188 250 316 355 444
#     4  12  27  50  76 114 150 192 246 312 379 440
#
# _framework density 22.576540999999999
#
# number of rings (size 3 to 8) (size 9 to 14) (size 15 to 20)
#    0.000    0.000    2.000    8.400    2.800    6.400 
#    0.000    4.000    0.000    0.000    0.000    0.000 
#    0.000    0.000    0.000    0.000    0.000    0.000 
#
# Total GULP energy -111871.921767 kJ/mol
# GULP energy per Si atom -5593.596088 kJ/mol
# Density = 2.252516 g / cm^3
# Si number density = 22.576541 Si / 1000 Ang^3
#
#
#
# Elastic Constant Matrix: (Units=GPa)
#
#
# Indices 1 2 3 4 5 6 
#
# 1 128.4425 83.0617 70.8209 0.0000 0.0000 0.0000
# 2 83.0617 243.0757 88.8712 0.0000 0.0000 0.0000
# 3 70.8209 88.8712 137.8305 0.0000 0.0000 0.0000
# 4 0.0000 0.0000 0.0000 67.9462 0.0000 0.0000
# 5 0.0000 0.0000 0.0000 0.0000 5.5179 0.0000
# 6 0.0000 0.0000 0.0000 0.0000 0.0000 54.4288
#
#
#
# Elastic Compliance Matrix: (Units=1/GPa)
#
#
# Indices 1 2 3 4 5 6 
#
# 1 0.011831 -0.002382 -0.004543 0.000000 0.000000 0.000000
# 2 -0.002382 0.005862 -0.002556 0.000000 0.000000 0.000000
# 3 -0.004543 -0.002556 0.011238 0.000000 0.000000 0.000000
# 4 0.000000 0.000000 0.000000 0.014718 0.000000 0.000000
# 5 0.000000 0.000000 0.000000 0.000000 0.181228 0.000000
# 6 0.000000 0.000000 0.000000 0.000000 0.000000 0.018373
#
#
# Mechanical properties :
#
#
# Convention : Reuss Voigt Hill
#
# Bulk Modulus (GPa) = 100.31304 110.53958 105.42631
# Shear Modulus (GPa) = 18.82995 43.35159 31.09077
#
# Velocity S-wave (km/s) = 2.89112 4.38677 3.71499
# Velocity P-wave (km/s) = 7.46148 8.64446 8.07467
#
# Compressibility (1/GPa) = 0.00996879
#
# Stress axis : x y z
#
# Youngs Moduli (GPa) = 84.52452 170.57977 88.98376
#
# Poissons Ratio (x) = 0.40626 0.40429
# Poissons Ratio (y) = 0.20131 0.22746
# Poissons Ratio (z) = 0.38403 0.43604
#
# Static dielectric constant tensor:
#      x y z
#    x 1.805920 0.000000 0.000000 
#    y 0.000000 1.792590 0.000000 
#    z 0.000000 0.000000 1.779670 
# 
# From -- ./inp_files/5420.got.cif
#   From: 2010.05.17/outbox.cif.g08.bks.cpg/sg52_3_cif.got.tgz:5420.got - 2010.06.03 12:15:38.
