data_PCOD9413263
_publ_section_title
;
Structure prediction by ZEFSAII (Michael W. Deem and Ramdas Pophale) SiO2 
 PCOD9413263
Probable space group: P N N A
;
_chemical_formula_sum "Si O2"
_cell_formula_units_Z 40
_cell_length_a 11.976916
_cell_length_b 18.380498
_cell_length_c 8.341026
_cell_angle_alpha 90.000000
_cell_angle_beta 90.000000
_cell_angle_gamma 90.000000
_cell_volume 1836.207481
_symmetry_space_group_name_H-M "P N N A"
_symmetry_group_IT_number 52
_symmetry_cell_setting 'orthorhombic'
loop_
_space_group_symop_operation_xyz
x,y,z
1/2-x,-y,z
x,1/2-y,1/2-z
1/2-x,1/2+y,1/2-z
-x,-y,-z
1/2+x,y,-z
-x,1/2+y,1/2+z
1/2+x,1/2-y,1/2+z
loop_
_atom_site_type_symbol
_atom_site_label
_atom_site_fract_x
_atom_site_fract_y
_atom_site_fract_z
Si Si1 0.150475 0.329546 0.794307
Si Si2 0.534905 0.474121 0.325216
Si Si3 0.178927 0.566092 0.130447
Si Si4 0.362215 0.829472 0.317202
Si Si5 0.609539 0.620929 0.196803
O O1 0.106689 0.250000 0.750000
O O2 0.089968 0.395436 0.702558
O O3 0.281544 0.335995 0.747224
O O4 0.139499 0.336122 0.987868
O O5 0.500000 0.500000 0.500000
O O6 0.420438 0.470299 0.226223
O O7 0.612087 0.538075 0.256997
O O8 0.250000 0.500000 0.056051
O O9 0.265542 0.613977 0.233290
O O10 0.123158 0.615697 0.995033
O O11 0.334932 0.750000 0.250000
O O12 0.487674 0.848573 0.261344
#
# Coordination Sequence:
#
# PCOD9413263 Si02
#       5
#     8   8   8   8   8
#     4  11  26  45  66 103 145 178 228 293 361 420
#     4  12  26  43  72 102 138 184 236 296 346 424
#     4  11  22  42  71  98 131 178 229 288 344 423
#     4  11  24  42  72 101 136 183 230 285 357 430
#     4  11  22  46  70  97 132 182 236 283 354 414
#
# _framework density 21.784030999999999
#
# number of rings (size 3 to 8) (size 9 to 14) (size 15 to 20)
#    0.000    0.800    4.000    4.200    2.800    4.000 
#    0.000    0.000    0.000    0.000    0.000    0.000 
#    0.000    0.000    0.000    0.000    0.000    0.000 
#
# Total GULP energy -223504.932379 kJ/mol
# GULP energy per Si atom -5587.623309 kJ/mol
# Density = 2.173445 g / cm^3
# Si number density = 21.784031 Si / 1000 Ang^3
#
#
#
# Elastic Constant Matrix: (Units=GPa)
#
#
# Indices 1 2 3 4 5 6 
#
# 1 58.3885 15.9942 -0.9914 0.0000 0.0000 0.0000
# 2 15.9942 138.0675 3.7025 0.0000 0.0000 0.0000
# 3 -0.9914 3.7025 45.7348 0.0000 0.0000 0.0000
# 4 0.0000 0.0000 0.0000 31.2384 0.0000 0.0000
# 5 0.0000 0.0000 0.0000 0.0000 6.3552 0.0000
# 6 0.0000 0.0000 0.0000 0.0000 0.0000 39.4441
#
#
#
# Elastic Compliance Matrix: (Units=1/GPa)
#
#
# Indices 1 2 3 4 5 6 
#
# 1 0.017702 -0.002065 0.000551 0.000000 0.000000 0.000000
# 2 -0.002065 0.007500 -0.000652 0.000000 0.000000 0.000000
# 3 0.000551 -0.000652 0.021930 0.000000 0.000000 0.000000
# 4 0.000000 0.000000 0.000000 0.032012 0.000000 0.000000
# 5 0.000000 0.000000 0.000000 0.000000 0.157352 0.000000
# 6 0.000000 0.000000 0.000000 0.000000 0.000000 0.025352
#
#
# Mechanical properties :
#
#
# Convention : Reuss Voigt Hill
#
# Bulk Modulus (GPa) = 23.36531 31.06683 27.21607
# Shear Modulus (GPa) = 17.82873 30.30657 24.06765
#
# Velocity S-wave (km/s) = 2.86393 3.73396 3.32750
# Velocity P-wave (km/s) = 4.65675 5.73430 5.22339
#
# Compressibility (1/GPa) = 0.04279849
#
# Stress axis : x y z
#
# Youngs Moduli (GPa) = 56.49151 133.34078 45.59984
#
# Poissons Ratio (x) = 0.27540 -0.02512
# Poissons Ratio (y) = 0.11668 0.02973
# Poissons Ratio (z) = -0.03112 0.08693
#
# Static dielectric constant tensor:
#      x y z
#    x 1.841870 0.000000 0.000000 
#    y 0.000000 1.813030 0.000000 
#    z 0.000000 0.000000 1.829010 
# 
# From -- ./inp_files/8497.got.cif
#   From: 2010.05.17/outbox.cif.g08.bks.cpg/sg52_5_cif.got.tgz:8497.got - 2010.06.03 12:15:38.
