data_PCOD9413485
_publ_section_title
;
Structure prediction by ZEFSAII (Michael W. Deem and Ramdas Pophale) SiO2 
 PCOD9413485
Probable space group: P N N A
;
_chemical_formula_sum "Si O2"
_cell_formula_units_Z 36
_cell_length_a 13.962979
_cell_length_b 19.428210
_cell_length_c 6.601705
_cell_angle_alpha 90.000000
_cell_angle_beta 90.000000
_cell_angle_gamma 90.000000
_cell_volume 1790.882067
_symmetry_space_group_name_H-M "P N N A"
_symmetry_group_IT_number 52
_symmetry_cell_setting 'orthorhombic'
loop_
_space_group_symop_operation_xyz
x,y,z
1/2-x,-y,z
x,1/2-y,1/2-z
1/2-x,1/2+y,1/2-z
-x,-y,-z
1/2+x,y,-z
-x,1/2+y,1/2+z
1/2+x,1/2-y,1/2+z
loop_
_atom_site_type_symbol
_atom_site_label
_atom_site_fract_x
_atom_site_fract_y
_atom_site_fract_z
Si Si1 0.646419 0.534620 0.467486
Si Si2 0.704492 0.683086 0.366384
Si Si3 0.597900 0.185251 0.376208
Si Si4 0.698590 0.250000 0.750000
Si Si5 0.503580 0.953484 0.695064
O O1 0.750000 0.500000 0.465732
O O2 0.647735 0.611821 0.374987
O O3 0.604614 0.542258 0.692502
O O4 0.575743 0.484457 0.346768
O O5 0.661034 0.750000 0.250000
O O6 0.803052 0.668597 0.243259
O O7 0.736846 0.706344 0.592350
O O8 0.557857 0.250000 0.250000
O O9 0.631112 0.205157 0.601837
O O10 0.525576 0.123137 0.363545
O O11 0.500000 0.000000 0.500000
#
# Coordination Sequence:
#
# PCOD9413485 Si02
#       5
#     8   8   8   4   8
#     4  11  24  44  66  91 135 168 212 274 322 387
#     4   9  19  39  66  92 120 162 212 257 314 380
#     4   9  19  39  62  92 125 163 209 256 315 382
#     4   8  18  32  70  88 120 164 206 250 318 368
#     4  11  26  41  64  98 127 171 220 263 329 392
#
# _framework density 20.101825000000002
#
# number of rings (size 3 to 8) (size 9 to 14) (size 15 to 20)
#    0.000    2.667    2.222    0.000    3.111    6.222 
#    6.000    0.000    0.000    0.000    0.000    0.000 
#    0.000    0.000    0.000    0.000    0.000    0.000 
#
# Total GULP energy -200936.270666 kJ/mol
# GULP energy per Si atom -5581.563074 kJ/mol
# Density = 2.005607 g / cm^3
# Si number density = 20.101825 Si / 1000 Ang^3
#
#
#
# Elastic Constant Matrix: (Units=GPa)
#
#
# Indices 1 2 3 4 5 6 
#
# 1 37.3752 11.1284 5.1241 0.0000 0.0000 0.0000
# 2 11.1284 127.3858 25.4651 0.0000 0.0000 0.0000
# 3 5.1241 25.4651 108.9029 0.0000 0.0000 0.0000
# 4 0.0000 0.0000 0.0000 16.4388 0.0000 0.0000
# 5 0.0000 0.0000 0.0000 0.0000 13.8366 0.0000
# 6 0.0000 0.0000 0.0000 0.0000 0.0000 21.1908
#
#
#
# Elastic Compliance Matrix: (Units=1/GPa)
#
#
# Indices 1 2 3 4 5 6 
#
# 1 0.027532 -0.002251 -0.000769 0.000000 0.000000 0.000000
# 2 -0.002251 0.008419 -0.001863 0.000000 0.000000 0.000000
# 3 -0.000769 -0.001863 0.009654 0.000000 0.000000 0.000000
# 4 0.000000 0.000000 0.000000 0.060832 0.000000 0.000000
# 5 0.000000 0.000000 0.000000 0.000000 0.072272 0.000000
# 6 0.000000 0.000000 0.000000 0.000000 0.000000 0.047190
#
#
# Mechanical properties :
#
#
# Convention : Reuss Voigt Hill
#
# Bulk Modulus (GPa) = 27.90280 39.67767 33.79023
# Shear Modulus (GPa) = 20.19290 25.75631 22.97461
#
# Velocity S-wave (km/s) = 3.17287 3.58340 3.38437
# Velocity P-wave (km/s) = 5.22816 6.07472 5.66727
#
# Compressibility (1/GPa) = 0.03583870
#
# Stress axis : x y z
#
# Youngs Moduli (GPa) = 36.32201 118.77569 103.58134
#
# Poissons Ratio (x) = 0.26742 0.07965
# Poissons Ratio (y) = 0.08178 0.19295
# Poissons Ratio (z) = 0.02793 0.22125
#
# Static dielectric constant tensor:
#      x y z
#    x 1.693190 0.000000 0.000000 
#    y 0.000000 1.712000 0.000000 
#    z 0.000000 0.000000 1.703240 
# 
# From -- ./inp_files/2174.got.cif
#   From: 2010.05.17/outbox.cif.g08.bks.cpg/sg52_2_cif.got.tgz:2174.got - 2010.06.03 12:15:38.
