data_PCOD9413994
_publ_section_title
;
Structure prediction by ZEFSAII (Michael W. Deem and Ramdas Pophale) SiO2 
 PCOD9413994
Probable space group: P N N A
;
_chemical_formula_sum "Si O2"
_cell_formula_units_Z 56
_cell_length_a 21.000000
_cell_length_b 15.000000
_cell_length_c 9.000000
_cell_angle_alpha 90.000000
_cell_angle_beta 90.000000
_cell_angle_gamma 90.000000
_cell_volume 2835.000000
_symmetry_space_group_name_H-M "P N N A"
_symmetry_group_IT_number 52
_symmetry_cell_setting 'orthorhombic'
loop_
_space_group_symop_operation_xyz
x,y,z
1/2-x,-y,z
x,1/2-y,1/2-z
1/2-x,1/2+y,1/2-z
-x,-y,-z
1/2+x,y,-z
-x,1/2+y,1/2+z
1/2+x,1/2-y,1/2+z
loop_
_atom_site_type_symbol
_atom_site_label
_atom_site_fract_x
_atom_site_fract_y
_atom_site_fract_z
Si Si1 0.080081 0.419904 0.928494
Si Si2 0.620234 0.616991 0.133599
Si Si3 0.981199 0.853232 0.748110
Si Si4 0.079187 0.398790 0.572586
Si Si5 0.820927 0.764464 0.416756
Si Si6 0.311024 0.239234 0.074569
Si Si7 0.683456 0.552868 0.416842
O O1 0.099051 0.523415 0.940296
O O2 0.053851 0.404786 0.751252
O O3 0.142504 0.357856 0.927446
O O4 0.043914 0.394380 0.086344
O O5 0.557657 0.645188 0.227356
O O6 0.675529 0.592477 0.250899
O O7 0.644770 0.692446 0.020305
O O8 0.959287 0.750000 0.750000
O O9 0.961969 0.893090 0.914769
O O10 0.124646 0.311525 0.565968
O O11 0.125501 0.483939 0.560888
O O12 0.794750 0.750000 0.250000
O O13 0.762675 0.757889 0.530063
O O14 0.321253 0.250000 0.250000
O O15 0.322186 0.137167 0.025230
O O16 0.750000 0.500000 0.433596
#
# Coordination Sequence:
#
# PCOD9413994 Si02
#       7
#     8   8   8   8   8   8   8
#     4  10  24  42  71 103 138 185 239 287 352 419
#     4  11  27  48  67 102 139 188 233 287 362 423
#     4  12  24  44  73 100 146 186 238 298 343 427
#     4  10  23  42  72 105 132 187 237 291 351 415
#     4  10  20  41  68  99 138 177 231 286 347 425
#     4  12  27  43  67 103 145 181 228 297 358 426
#     4  11  23  45  71  99 135 183 232 287 357 431
#
# _framework density 19.753086
#
# number of rings (size 3 to 8) (size 9 to 14) (size 15 to 20)
#    0.000    1.143    2.857    2.571    8.000    2.286 
#    5.143    0.000    0.000    0.000    0.000    0.000 
#    0.000    0.000    0.000    0.000    0.000    0.000 
#
# Total GULP energy -312313.699606 kJ/mol
# GULP energy per Si atom -5577.030350 kJ/mol
# Density = 1.970813 g / cm^3
# Si number density = 19.753086 Si / 1000 Ang^3
#
#
#
# Elastic Constant Matrix: (Units=GPa)
#
#
# Indices 1 2 3 4 5 6 
#
# 1 65.4283 31.8959 44.5260 0.0000 0.0000 0.0000
# 2 31.8959 139.5981 58.8020 0.0000 0.0000 0.0000
# 3 44.5260 58.8020 174.5981 0.0000 0.0000 0.0000
# 4 0.0000 0.0000 0.0000 42.2022 0.0000 0.0000
# 5 0.0000 0.0000 0.0000 0.0000 37.8105 0.0000
# 6 0.0000 0.0000 0.0000 0.0000 0.0000 25.8890
#
#
#
# Elastic Compliance Matrix: (Units=1/GPa)
#
#
# Indices 1 2 3 4 5 6 
#
# 1 0.019346 -0.002729 -0.004015 0.000000 0.000000 0.000000
# 2 -0.002729 0.008733 -0.002245 0.000000 0.000000 0.000000
# 3 -0.004015 -0.002245 0.007507 0.000000 0.000000 0.000000
# 4 0.000000 0.000000 0.000000 0.023695 0.000000 0.000000
# 5 0.000000 0.000000 0.000000 0.000000 0.026448 0.000000
# 6 0.000000 0.000000 0.000000 0.000000 0.000000 0.038626
#
#
# Mechanical properties :
#
#
# Convention : Reuss Voigt Hill
#
# Bulk Modulus (GPa) = 56.79008 72.23025 64.51016
# Shear Modulus (GPa) = 33.73742 37.47370 35.60556
#
# Velocity S-wave (km/s) = 4.13723 4.36030 4.25023
# Velocity P-wave (km/s) = 7.18572 7.87373 7.53758
#
# Compressibility (1/GPa) = 0.01760871
#
# Stress axis : x y z
#
# Youngs Moduli (GPa) = 51.68905 114.51244 133.20356
#
# Poissons Ratio (x) = 0.31254 0.53475
# Poissons Ratio (y) = 0.14108 0.29904
# Poissons Ratio (z) = 0.20751 0.25708
#
# Static dielectric constant tensor:
#      x y z
#    x 1.706730 0.000000 0.000000 
#    y 0.000000 1.725570 0.000000 
#    z 0.000000 0.000000 1.728590 
# 
# From -- ./inp_files/13465.got.cif
#   From: 2010.05.17/outbox.ucp.g08.bks.cvg/sg52_7_cif.got.tgz:13465.got - 2010.06.11 16:30:12.
