data_PCOD9413002
_publ_section_title
;
Structure prediction by ZEFSAII (Michael W. Deem and Ramdas Pophale) SiO2 
 PCOD9413002
Probable space group: P N N A
;
_chemical_formula_sum "Si O2"
_cell_formula_units_Z 48
_cell_length_a 22.080308
_cell_length_b 11.324458
_cell_length_c 9.482536
_cell_angle_alpha 90.000000
_cell_angle_beta 90.000000
_cell_angle_gamma 90.000000
_cell_volume 2371.084616
_symmetry_space_group_name_H-M "P N N A"
_symmetry_group_IT_number 52
_symmetry_cell_setting 'orthorhombic'
loop_
_space_group_symop_operation_xyz
x,y,z
1/2-x,-y,z
x,1/2-y,1/2-z
1/2-x,1/2+y,1/2-z
-x,-y,-z
1/2+x,y,-z
-x,1/2+y,1/2+z
1/2+x,1/2-y,1/2+z
loop_
_atom_site_type_symbol
_atom_site_label
_atom_site_fract_x
_atom_site_fract_y
_atom_site_fract_z
Si Si1 0.896960 0.862698 0.321941
Si Si2 0.012355 0.132019 0.448394
Si Si3 0.882448 0.252053 0.088009
Si Si4 0.428901 0.506063 0.540455
Si Si5 0.120151 0.120720 0.231005
Si Si6 0.179494 0.974610 0.464363
O O1 0.865678 0.750000 0.250000
O O2 0.951274 0.812642 0.419900
O O3 0.922270 0.945427 0.198490
O O4 0.855840 0.941483 0.423969
O O5 0.056590 0.128959 0.315479
O O6 0.949541 0.191664 0.413658
O O7 0.000000 0.000000 0.500000
O O8 0.860423 0.250000 0.250000
O O9 0.894866 0.120108 0.034027
O O10 0.840611 0.340566 0.997708
O O11 0.500000 0.500000 0.500000
O O12 0.394962 0.589253 0.428376
O O13 0.149429 0.250000 0.250000
O O14 0.157261 0.019770 0.311712
O O15 0.250000 0.000000 0.479240
#
# Coordination Sequence:
#
# PCOD9413002 Si02
#       6
#     8   8   8   8   8   8
#     4  11  22  40  65  97 130 173 226 270 339 416
#     4  11  19  37  64  93 137 173 202 264 347 419
#     4  12  22  41  68  99 138 170 224 282 338 405
#     4  12  23  37  67 109 138 165 210 274 357 421
#     4  11  23  43  65  95 135 171 217 273 343 412
#     4  11  26  48  67  88 132 186 234 282 332 384
#
# _framework density 20.243901000000001
#
# number of rings (size 3 to 8) (size 9 to 14) (size 15 to 20)
#    0.000    0.667    5.000    6.500    0.000    1.333 
#    3.000    0.833    0.000    0.000    0.000    0.000 
#    0.000    0.000    0.000    0.000    0.000    0.000 
#
# Total GULP energy -268397.831634 kJ/mol
# GULP energy per Si atom -5591.621492 kJ/mol
# Density = 2.019783 g / cm^3
# Si number density = 20.243901 Si / 1000 Ang^3
#
#
#
# Elastic Constant Matrix: (Units=GPa)
#
#
# Indices 1 2 3 4 5 6 
#
# 1 82.9270 8.0625 19.0247 0.0000 0.0000 0.0000
# 2 8.0625 112.3661 15.8693 0.0000 0.0000 0.0000
# 3 19.0247 15.8693 92.2030 0.0000 0.0000 0.0000
# 4 0.0000 0.0000 0.0000 39.1528 0.0000 0.0000
# 5 0.0000 0.0000 0.0000 0.0000 7.3052 0.0000
# 6 0.0000 0.0000 0.0000 0.0000 0.0000 13.2246
#
#
#
# Elastic Compliance Matrix: (Units=1/GPa)
#
#
# Indices 1 2 3 4 5 6 
#
# 1 0.012692 -0.000554 -0.002523 0.000000 0.000000 0.000000
# 2 -0.000554 0.009145 -0.001460 0.000000 0.000000 0.000000
# 3 -0.002523 -0.001460 0.011618 0.000000 0.000000 0.000000
# 4 0.000000 0.000000 0.000000 0.025541 0.000000 0.000000
# 5 0.000000 0.000000 0.000000 0.000000 0.136889 0.000000
# 6 0.000000 0.000000 0.000000 0.000000 0.000000 0.075617
#
#
# Mechanical properties :
#
#
# Convention : Reuss Voigt Hill
#
# Bulk Modulus (GPa) = 41.01730 41.48988 41.25359
# Shear Modulus (GPa) = 17.31887 28.23916 22.77902
#
# Velocity S-wave (km/s) = 2.92808 3.73895 3.35808
# Velocity P-wave (km/s) = 5.63357 6.25933 5.95467
#
# Compressibility (1/GPa) = 0.02437996
#
# Stress axis : x y z
#
# Youngs Moduli (GPa) = 78.79242 109.34463 86.07696
#
# Poissons Ratio (x) = 0.06061 0.21720
# Poissons Ratio (y) = 0.04367 0.12564
# Poissons Ratio (z) = 0.19882 0.15961
#
# Static dielectric constant tensor:
#      x y z
#    x 1.698490 0.000000 0.000000 
#    y 0.000000 1.758270 0.000000 
#    z 0.000000 0.000000 1.718920 
# 
# From -- ./inp_files/14231.got.cif
#   From: 2010.05.17/outbox.cif.g08.bks.cpg/sg52_8_cif.got.tgz:14231.got - 2010.06.03 12:15:38.
