data_PCOD9413912
_publ_section_title
;
Structure prediction by ZEFSAII (Michael W. Deem and Ramdas Pophale) SiO2 
 PCOD9413912
Probable space group: P N N A
;
_chemical_formula_sum "Si O2"
_cell_formula_units_Z 20
_cell_length_a 31.261855
_cell_length_b 5.259038
_cell_length_c 4.928768
_cell_angle_alpha 90.000000
_cell_angle_beta 90.000000
_cell_angle_gamma 90.000000
_cell_volume 810.325357
_symmetry_space_group_name_H-M "P N N A"
_symmetry_group_IT_number 52
_symmetry_cell_setting 'orthorhombic'
loop_
_space_group_symop_operation_xyz
x,y,z
1/2-x,-y,z
x,1/2-y,1/2-z
1/2-x,1/2+y,1/2-z
-x,-y,-z
1/2+x,y,-z
-x,1/2+y,1/2+z
1/2+x,1/2-y,1/2+z
loop_
_atom_site_type_symbol
_atom_site_label
_atom_site_fract_x
_atom_site_fract_y
_atom_site_fract_z
Si Si1 0.822914 0.250000 0.750000
Si Si2 0.250000 0.000000 0.558798
Si Si3 0.949970 0.503863 0.572839
Si Si4 0.386438 0.250000 0.750000
O O1 0.854186 0.290874 0.498644
O O2 0.790754 0.035025 0.637305
O O3 0.247311 0.250000 0.750000
O O4 0.941876 0.250000 0.750000
O O5 0.920450 0.474961 0.308049
O O6 0.000000 0.500000 0.500000
O O7 0.940230 0.750000 0.750000
#
# Coordination Sequence:
#
# PCOD9413912 Si02
#       4
#     4   4   8   4
#     4  12  28  54  82 127 160 213 276 340 424 494
#     4  12  28  56  88 118 164 218 266 346 434 510
#     4  12  27  49  80 116 164 221 274 336 410 479
#     4  12  28  50  82 123 164 211 282 344 394 508
#
# _framework density 24.681441
#
# number of rings (size 3 to 8) (size 9 to 14) (size 15 to 20)
#    0.000    0.000    6.000    2.400    0.000    3.200 
#    0.000    0.000    0.000    0.000    0.000    0.000 
#    0.000    0.000    0.000    0.000    0.000    0.000 
#
# Total GULP energy -111854.064797 kJ/mol
# GULP energy per Si atom -5592.703240 kJ/mol
# Density = 2.462527 g / cm^3
# Si number density = 24.681441 Si / 1000 Ang^3
#
#
#
# Elastic Constant Matrix: (Units=GPa)
#
#
# Indices 1 2 3 4 5 6 
#
# 1 216.2738 40.9682 75.1500 0.0000 0.0000 0.0000
# 2 40.9682 208.8835 82.1660 0.0000 0.0000 0.0000
# 3 75.1500 82.1660 186.4170 0.0000 0.0000 0.0000
# 4 0.0000 0.0000 0.0000 56.5502 0.0000 0.0000
# 5 0.0000 0.0000 0.0000 0.0000 57.1382 0.0000
# 6 0.0000 0.0000 0.0000 0.0000 0.0000 20.7101
#
#
#
# Elastic Compliance Matrix: (Units=1/GPa)
#
#
# Indices 1 2 3 4 5 6 
#
# 1 0.005387 -0.000245 -0.002064 0.000000 0.000000 0.000000
# 2 -0.000245 0.005803 -0.002459 0.000000 0.000000 0.000000
# 3 -0.002064 -0.002459 0.007280 0.000000 0.000000 0.000000
# 4 0.000000 0.000000 0.000000 0.017683 0.000000 0.000000
# 5 0.000000 0.000000 0.000000 0.000000 0.017501 0.000000
# 6 0.000000 0.000000 0.000000 0.000000 0.000000 0.048286
#
#
# Mechanical properties :
#
#
# Convention : Reuss Voigt Hill
#
# Bulk Modulus (GPa) = 111.92067 112.01585 111.96826
# Shear Modulus (GPa) = 43.68575 54.43238 49.05907
#
# Velocity S-wave (km/s) = 4.21168 4.70126 4.46319
# Velocity P-wave (km/s) = 8.31237 8.65750 8.48669
#
# Compressibility (1/GPa) = 0.00893490
#
# Stress axis : x y z
#
# Youngs Moduli (GPa) = 185.62225 172.33674 137.36017
#
# Poissons Ratio (x) = 0.04218 0.28350
# Poissons Ratio (y) = 0.04543 0.33776
# Poissons Ratio (z) = 0.38310 0.42376
#
# Static dielectric constant tensor:
#      x y z
#    x 1.941300 0.000000 0.000000 
#    y 0.000000 1.969330 0.000000 
#    z 0.000000 0.000000 2.051270 
# 
# From -- ./inp_files/6061.got.cif
#   From: 2010.05.17/outbox.cif.g08.bks.cpg/sg52_4_cif.got.tgz:6061.got - 2010.06.03 12:15:38.
