data_PCOD9413795
_publ_section_title
;
Structure prediction by ZEFSAII (Michael W. Deem and Ramdas Pophale) SiO2 
 PCOD9413795
Probable space group: P N N A
;
_chemical_formula_sum "Si O2"
_cell_formula_units_Z 48
_cell_length_a 23.014883
_cell_length_b 6.524419
_cell_length_c 15.229159
_cell_angle_alpha 90.000000
_cell_angle_beta 90.000000
_cell_angle_gamma 90.000000
_cell_volume 2286.791326
_symmetry_space_group_name_H-M "P N N A"
_symmetry_group_IT_number 52
_symmetry_cell_setting 'orthorhombic'
loop_
_space_group_symop_operation_xyz
x,y,z
1/2-x,-y,z
x,1/2-y,1/2-z
1/2-x,1/2+y,1/2-z
-x,-y,-z
1/2+x,y,-z
-x,1/2+y,1/2+z
1/2+x,1/2-y,1/2+z
loop_
_atom_site_type_symbol
_atom_site_label
_atom_site_fract_x
_atom_site_fract_y
_atom_site_fract_z
Si Si1 0.975120 0.898679 0.165178
Si Si2 0.194325 0.858031 0.006906
Si Si3 0.096652 0.406771 0.391365
Si Si4 0.435425 0.574119 0.973906
Si Si5 0.674613 0.250000 0.750000
Si Si6 0.125058 0.728566 0.652250
Si Si7 0.250000 0.500000 0.111192
O O1 0.983285 0.750000 0.250000
O O2 0.946382 0.761894 0.090641
O O3 0.929655 0.082444 0.175097
O O4 0.034457 0.996492 0.129209
O O5 0.209868 0.640551 0.049851
O O6 0.250000 0.000000 0.025113
O O7 0.135937 0.949336 0.048644
O O8 0.178207 0.854201 0.905383
O O9 0.091970 0.183087 0.439038
O O10 0.131823 0.400388 0.300775
O O11 0.400792 0.407891 0.913581
O O12 0.500000 0.500000 0.000000
O O13 0.713454 0.356142 0.823713
O O14 0.149773 0.750000 0.750000
#
# Coordination Sequence:
#
# PCOD9413795 Si02
#       7
#     8   8   8   8   4   8   4
#     4  12  26  44  71 109 150 182 239 294 360 449
#     4  12  27  52  72 101 143 187 249 300 362 426
#     4  12  26  44  70 110 144 193 229 296 368 440
#     4  12  24  44  71 103 147 193 234 288 363 441
#     4  12  26  42  74 102 140 182 242 288 360 426
#     4  12  26  48  74 105 142 190 244 305 362 426
#     4  12  26  52  72 102 140 194 242 304 356 430
#
# _framework density 20.990110999999999
#
# number of rings (size 3 to 8) (size 9 to 14) (size 15 to 20)
#    0.000    0.000    6.667    3.500    5.833    0.000 
#    1.500    0.000    0.000    0.000    0.000    0.000 
#    0.000    0.000    0.000    0.000    0.000    0.000 
#
# Total GULP energy -267945.701330 kJ/mol
# GULP energy per Si atom -5582.202111 kJ/mol
# Density = 2.094234 g / cm^3
# Si number density = 20.990111 Si / 1000 Ang^3
#
#
#
# Elastic Constant Matrix: (Units=GPa)
#
#
# Indices 1 2 3 4 5 6 
#
# 1 66.6059 28.8238 30.1124 0.0000 0.0000 0.0000
# 2 28.8238 77.5774 28.6558 0.0000 0.0000 0.0000
# 3 30.1124 28.6558 129.4878 0.0000 0.0000 0.0000
# 4 0.0000 0.0000 0.0000 51.9468 0.0000 0.0000
# 5 0.0000 0.0000 0.0000 0.0000 40.3060 0.0000
# 6 0.0000 0.0000 0.0000 0.0000 0.0000 -10.7199
#
#
#
# Elastic Compliance Matrix: (Units=1/GPa)
#
#
# Indices 1 2 3 4 5 6 
#
# 1 0.018972 -0.005902 -0.003106 0.000000 0.000000 0.000000
# 2 -0.005902 0.015874 -0.002140 0.000000 0.000000 0.000000
# 3 -0.003106 -0.002140 0.008919 0.000000 0.000000 0.000000
# 4 0.000000 0.000000 0.000000 0.019250 0.000000 0.000000
# 5 0.000000 0.000000 0.000000 0.000000 0.024810 0.000000
# 6 0.000000 0.000000 0.000000 0.000000 0.000000 -0.093285
#
#
# Mechanical properties :
#
#
# Convention : Reuss Voigt Hill
#
# Bulk Modulus (GPa) = 46.58035 49.87278 48.22657
# Shear Modulus (GPa) = 208.40236 28.71188 118.55712
#
# Velocity S-wave (km/s) = 9.97504 3.70249 7.52363
# Velocity P-wave (km/s) = 12.44622 6.48765 9.92467
#
# Compressibility (1/GPa) = 0.02146828
#
# Stress axis : x y z
#
# Youngs Moduli (GPa) = 52.70983 62.99699 112.12426
#
# Poissons Ratio (x) = 0.37179 0.34824
# Poissons Ratio (y) = 0.31108 0.24000
# Poissons Ratio (z) = 0.16371 0.13484
#
# Static dielectric constant tensor:
#      x y z
#    x 1.419260 0.000000 0.000000 
#    y 0.000000 1.854440 0.000000 
#    z 0.000000 0.000000 1.634200 
# 
# From -- ./inp_files/29456.got.cif
#   From: 2010.05.17/outbox.cif.g08.bks.cpg/sg52_15_cif.got.tgz:29456.got - 2010.06.03 12:15:38.
