data_PCOD9413253
_publ_section_title
;
Structure prediction by ZEFSAII (Michael W. Deem and Ramdas Pophale) SiO2 
 PCOD9413253
Probable space group: P N N A
;
_chemical_formula_sum "Si O2"
_cell_formula_units_Z 36
_cell_length_a 14.863917
_cell_length_b 8.200853
_cell_length_c 15.921511
_cell_angle_alpha 90.000000
_cell_angle_beta 90.000000
_cell_angle_gamma 90.000000
_cell_volume 1940.781215
_symmetry_space_group_name_H-M "P N N A"
_symmetry_group_IT_number 52
_symmetry_cell_setting 'orthorhombic'
loop_
_space_group_symop_operation_xyz
x,y,z
1/2-x,-y,z
x,1/2-y,1/2-z
1/2-x,1/2+y,1/2-z
-x,-y,-z
1/2+x,y,-z
-x,1/2+y,1/2+z
1/2+x,1/2-y,1/2+z
loop_
_atom_site_type_symbol
_atom_site_label
_atom_site_fract_x
_atom_site_fract_y
_atom_site_fract_z
Si Si1 0.353091 0.561889 0.264875
Si Si2 0.920646 0.068625 0.941933
Si Si3 0.513384 0.645582 0.836297
Si Si4 0.804970 0.829005 0.342685
Si Si5 0.250000 0.000000 0.946088
O O1 0.250000 0.500000 0.265245
O O2 0.346832 0.750000 0.250000
O O3 0.400702 0.523801 0.354069
O O4 0.416264 0.492040 0.190663
O O5 0.946043 0.248890 0.911465
O O6 0.832037 0.056236 0.996601
O O7 0.000000 0.000000 0.000000
O O8 0.510764 0.750000 0.750000
O O9 0.408886 0.616092 0.855658
O O10 0.794419 0.750000 0.250000
O O11 0.779784 0.667474 0.397795
O O12 0.750000 0.000000 0.352042
#
# Coordination Sequence:
#
# PCOD9413253 Si02
#       5
#     8   8   8   8   4
#     4  11  23  42  69  96 128 176 226 273 332 406
#     4  11  22  42  66  94 136 172 212 278 339 384
#     4   9  21  41  64  91 125 169 218 265 323 398
#     4  11  23  42  67  93 130 175 223 265 326 406
#     4  12  24  42  66  98 134 176 214 278 340 384
#
# _framework density 18.549230000000001
#
# number of rings (size 3 to 8) (size 9 to 14) (size 15 to 20)
#    0.000    1.333    4.444    2.000    0.000    2.667 
#    4.000    2.222    0.000    0.000    0.000    0.000 
#    0.000    0.000    0.000    0.000    0.000    0.000 
#
# Total GULP energy -200490.714850 kJ/mol
# GULP energy per Si atom -5569.186524 kJ/mol
# Density = 1.850701 g / cm^3
# Si number density = 18.549230 Si / 1000 Ang^3
#
#
#
# Elastic Constant Matrix: (Units=GPa)
#
#
# Indices 1 2 3 4 5 6 
#
# 1 187.8760 98.7113 76.9987 0.0000 0.0000 0.0000
# 2 98.7113 161.5586 66.9563 0.0000 0.0000 0.0000
# 3 76.9987 66.9563 107.8308 0.0000 0.0000 0.0000
# 4 0.0000 0.0000 0.0000 22.1685 0.0000 0.0000
# 5 0.0000 0.0000 0.0000 0.0000 27.6107 0.0000
# 6 0.0000 0.0000 0.0000 0.0000 0.0000 35.0827
#
#
#
# Elastic Compliance Matrix: (Units=1/GPa)
#
#
# Indices 1 2 3 4 5 6 
#
# 1 0.008985 -0.003812 -0.004049 0.000000 0.000000 0.000000
# 2 -0.003812 0.009951 -0.003458 0.000000 0.000000 0.000000
# 3 -0.004049 -0.003458 0.014312 0.000000 0.000000 0.000000
# 4 0.000000 0.000000 0.000000 0.045109 0.000000 0.000000
# 5 0.000000 0.000000 0.000000 0.000000 0.036218 0.000000
# 6 0.000000 0.000000 0.000000 0.000000 0.000000 0.028504
#
#
# Mechanical properties :
#
#
# Convention : Reuss Voigt Hill
#
# Bulk Modulus (GPa) = 94.23279 104.73310 99.48294
# Shear Modulus (GPa) = 29.54168 31.27900 30.41034
#
# Velocity S-wave (km/s) = 3.99508 4.11088 4.05339
# Velocity P-wave (km/s) = 8.49662 8.89479 8.69798
#
# Compressibility (1/GPa) = 0.01061202
#
# Stress axis : x y z
#
# Youngs Moduli (GPa) = 111.30055 100.48754 69.87162
#
# Poissons Ratio (x) = 0.38301 0.28291
# Poissons Ratio (y) = 0.42423 0.24159
# Poissons Ratio (z) = 0.45065 0.34744
#
# Static dielectric constant tensor:
#      x y z
#    x 1.463110 0.000000 0.000000 
#    y 0.000000 1.661590 0.000000 
#    z 0.000000 0.000000 1.658070 
# 
# From -- ./inp_files/26787.got.cif
#   From: 2010.05.17/outbox.cif.g08.bks.cpg/sg52_14_cif.got.tgz:26787.got - 2010.06.03 12:15:38.
