data_PCOD9413811
_publ_section_title
;
Structure prediction by ZEFSAII (Michael W. Deem and Ramdas Pophale) SiO2 
 PCOD9413811
Probable space group: P N N A
;
_chemical_formula_sum "Si O2"
_cell_formula_units_Z 28
_cell_length_a 17.290683
_cell_length_b 7.853425
_cell_length_c 9.910410
_cell_angle_alpha 90.000000
_cell_angle_beta 90.000000
_cell_angle_gamma 90.000000
_cell_volume 1345.745298
_symmetry_space_group_name_H-M "P N N A"
_symmetry_group_IT_number 52
_symmetry_cell_setting 'orthorhombic'
loop_
_space_group_symop_operation_xyz
x,y,z
1/2-x,-y,z
x,1/2-y,1/2-z
1/2-x,1/2+y,1/2-z
-x,-y,-z
1/2+x,y,-z
-x,1/2+y,1/2+z
1/2+x,1/2-y,1/2+z
loop_
_atom_site_type_symbol
_atom_site_label
_atom_site_fract_x
_atom_site_fract_y
_atom_site_fract_z
Si Si1 0.643012 0.750000 0.750000
Si Si2 0.913316 0.250000 0.250000
Si Si3 0.638050 0.389645 0.149212
Si Si4 0.012918 0.697186 0.469134
Si Si5 0.250000 0.000000 0.415031
O O1 0.585954 0.698144 0.629819
O O2 0.698165 0.612650 0.817408
O O3 0.868437 0.430810 0.231800
O O4 0.964958 0.235069 0.383893
O O5 0.672158 0.250000 0.250000
O O6 0.555997 0.307322 0.098548
O O7 0.690819 0.408796 0.017628
O O8 0.000000 0.500000 0.500000
#
# Coordination Sequence:
#
# PCOD9413811 Si02
#       5
#     4   4   8   8   4
#     4  12  28  51  69 118 150 204 256 316 402 455
#     4  12  24  45  77 106 148 190 258 320 378 467
#     4  12  27  49  74 116 150 205 261 320 392 463
#     4  12  25  47  80 110 148 201 264 319 377 467
#     4  12  32  46  76 110 166 202 254 336 406 460
#
# _framework density 20.806314
#
# number of rings (size 3 to 8) (size 9 to 14) (size 15 to 20)
#    0.000    0.000    7.143    0.857   10.000    0.000 
#    0.000    0.000    0.000    0.000    0.000    0.000 
#    0.000    0.000    0.000    0.000    0.000    0.000 
#
# Total GULP energy -156291.840201 kJ/mol
# GULP energy per Si atom -5581.851436 kJ/mol
# Density = 2.075896 g / cm^3
# Si number density = 20.806314 Si / 1000 Ang^3
#
#
#
# Elastic Constant Matrix: (Units=GPa)
#
#
# Indices 1 2 3 4 5 6 
#
# 1 145.5294 72.5308 78.1756 0.0000 0.0000 0.0000
# 2 72.5308 137.2585 46.1385 0.0000 0.0000 0.0000
# 3 78.1756 46.1385 171.3981 0.0000 0.0000 0.0000
# 4 0.0000 0.0000 0.0000 54.9495 0.0000 0.0000
# 5 0.0000 0.0000 0.0000 0.0000 -269.2335 0.0000
# 6 0.0000 0.0000 0.0000 0.0000 0.0000 6.9932
#
#
#
# Elastic Compliance Matrix: (Units=1/GPa)
#
#
# Indices 1 2 3 4 5 6 
#
# 1 0.011282 -0.004653 -0.003893 0.000000 0.000000 0.000000
# 2 -0.004653 0.009929 -0.000551 0.000000 0.000000 0.000000
# 3 -0.003893 -0.000551 0.007758 0.000000 0.000000 0.000000
# 4 0.000000 0.000000 0.000000 0.018199 0.000000 0.000000
# 5 0.000000 0.000000 0.000000 0.000000 -0.003714 0.000000
# 6 0.000000 0.000000 0.000000 0.000000 0.000000 0.142995
#
#
# Mechanical properties :
#
#
# Convention : Reuss Voigt Hill
#
# Bulk Modulus (GPa) = 92.79925 94.20842 93.50384
# Shear Modulus (GPa) = 24.01142 -24.30207 -0.14532
#
# Velocity S-wave (km/s) = 3.40081 -3.42133 -0.26457
# Velocity P-wave (km/s) = 7.75364 5.45616 6.70406
#
# Compressibility (1/GPa) = 0.01077595
#
# Stress axis : x y z
#
# Youngs Moduli (GPa) = 88.63861 100.71176 128.89439
#
# Poissons Ratio (x) = 0.46860 0.50181
# Poissons Ratio (y) = 0.41243 0.07098
# Poissons Ratio (z) = 0.34508 0.05546
#
# Static dielectric constant tensor:
#      x y z
#    x 1.825800 0.000000 0.000000 
#    y 0.000000 1.750450 0.000000 
#    z 0.000000 0.000000 1.701460 
# 
# From -- ./inp_files/11395.got.cif
#   From: 2010.05.17/outbox.cif.g08.bks.cpg/sg52_6_cif.got.tgz:11395.got - 2010.06.03 12:15:38.
