data_PCOD9413831
_publ_section_title
;
Structure prediction by ZEFSAII (Michael W. Deem and Ramdas Pophale) SiO2 
 PCOD9413831
Probable space group: P N N A
;
_chemical_formula_sum "Si O2"
_cell_formula_units_Z 36
_cell_length_a 11.254712
_cell_length_b 10.727112
_cell_length_c 11.987433
_cell_angle_alpha 90.000000
_cell_angle_beta 90.000000
_cell_angle_gamma 90.000000
_cell_volume 1447.249453
_symmetry_space_group_name_H-M "P N N A"
_symmetry_group_IT_number 52
_symmetry_cell_setting 'orthorhombic'
loop_
_space_group_symop_operation_xyz
x,y,z
1/2-x,-y,z
x,1/2-y,1/2-z
1/2-x,1/2+y,1/2-z
-x,-y,-z
1/2+x,y,-z
-x,1/2+y,1/2+z
1/2+x,1/2-y,1/2+z
loop_
_atom_site_type_symbol
_atom_site_label
_atom_site_fract_x
_atom_site_fract_y
_atom_site_fract_z
Si Si1 0.389880 0.250000 0.250000
Si Si2 0.564586 0.473370 0.782380
Si Si3 0.125867 0.437642 0.466539
Si Si4 0.716100 0.182883 0.550928
Si Si5 0.191065 0.626947 0.811599
O O1 0.459836 0.378684 0.228902
O O2 0.304760 0.247385 0.359359
O O3 0.628669 0.443544 0.667306
O O4 0.644488 0.425256 0.884779
O O5 0.446805 0.393100 0.788744
O O6 0.250000 0.500000 0.508110
O O7 0.128126 0.291125 0.493129
O O8 0.000000 0.500000 0.500000
O O9 0.786321 0.139051 0.442960
O O10 0.250000 0.500000 0.770939
O O11 0.234616 0.750000 0.750000
#
# Coordination Sequence:
#
# PCOD9413831 Si02
#       5
#     4   8   8   8   8
#     4  12  24  48  86 116 154 216 284 328 430 496
#     4  12  27  51  82 120 165 219 279 353 420 514
#     4  12  27  47  85 126 165 221 279 349 426 508
#     4  12  26  52  80 120 165 214 279 346 421 504
#     4  12  32  53  79 120 168 218 280 351 429 499
#
# _framework density 24.874770000000002
#
# number of rings (size 3 to 8) (size 9 to 14) (size 15 to 20)
#    0.000    0.000    4.444    3.333   10.889    3.556 
#    0.000    0.000    0.000    0.000    0.000    0.000 
#    0.000    0.000    0.000    0.000    0.000    0.000 
#
# Total GULP energy -201649.026837 kJ/mol
# GULP energy per Si atom -5601.361857 kJ/mol
# Density = 2.481815 g / cm^3
# Si number density = 24.874770 Si / 1000 Ang^3
#
#
#
# Elastic Constant Matrix: (Units=GPa)
#
#
# Indices 1 2 3 4 5 6 
#
# 1 111.3589 43.4209 34.5902 0.0000 0.0000 0.0000
# 2 43.4209 194.8349 51.0137 0.0000 0.0000 0.0000
# 3 34.5902 51.0137 139.5700 0.0000 0.0000 0.0000
# 4 0.0000 0.0000 0.0000 39.3928 0.0000 0.0000
# 5 0.0000 0.0000 0.0000 0.0000 29.9334 0.0000
# 6 0.0000 0.0000 0.0000 0.0000 0.0000 45.3643
#
#
#
# Elastic Compliance Matrix: (Units=1/GPa)
#
#
# Indices 1 2 3 4 5 6 
#
# 1 0.010266 -0.001793 -0.001889 0.000000 0.000000 0.000000
# 2 -0.001793 0.005989 -0.001745 0.000000 0.000000 0.000000
# 3 -0.001889 -0.001745 0.008271 0.000000 0.000000 0.000000
# 4 0.000000 0.000000 0.000000 0.025385 0.000000 0.000000
# 5 0.000000 0.000000 0.000000 0.000000 0.033407 0.000000
# 6 0.000000 0.000000 0.000000 0.000000 0.000000 0.022044
#
#
# Mechanical properties :
#
#
# Convention : Reuss Voigt Hill
#
# Bulk Modulus (GPa) = 73.14115 78.20149 75.67132
# Shear Modulus (GPa) = 41.40004 44.05404 42.72704
#
# Velocity S-wave (km/s) = 4.08406 4.21293 4.14899
# Velocity P-wave (km/s) = 7.19075 7.42774 7.31021
#
# Compressibility (1/GPa) = 0.01367219
#
# Stress axis : x y z
#
# Youngs Moduli (GPa) = 97.40975 166.97311 120.91001
#
# Poissons Ratio (x) = 0.29944 0.22837
# Poissons Ratio (y) = 0.17469 0.21094
# Poissons Ratio (z) = 0.18399 0.29130
#
# Static dielectric constant tensor:
#      x y z
#    x 2.044860 0.000000 0.000000 
#    y 0.000000 2.078890 0.000000 
#    z 0.000000 0.000000 1.918720 
# 
# From -- ./inp_files/17789.got.cif
#   From: 2010.05.17/outbox.cif.g08.bks.cpg/sg52_9_cif.got.tgz:17789.got - 2010.06.03 12:15:38.
