data_PCOD9413677
_publ_section_title
;
Structure prediction by ZEFSAII (Michael W. Deem and Ramdas Pophale) SiO2 
 PCOD9413677
Probable space group: P N N A
;
_chemical_formula_sum "Si O2"
_cell_formula_units_Z 36
_cell_length_a 19.186887
_cell_length_b 14.484006
_cell_length_c 5.102973
_cell_angle_alpha 90.000000
_cell_angle_beta 90.000000
_cell_angle_gamma 90.000000
_cell_volume 1418.131436
_symmetry_space_group_name_H-M "P N N A"
_symmetry_group_IT_number 52
_symmetry_cell_setting 'orthorhombic'
loop_
_space_group_symop_operation_xyz
x,y,z
1/2-x,-y,z
x,1/2-y,1/2-z
1/2-x,1/2+y,1/2-z
-x,-y,-z
1/2+x,y,-z
-x,1/2+y,1/2+z
1/2+x,1/2-y,1/2+z
loop_
_atom_site_type_symbol
_atom_site_label
_atom_site_fract_x
_atom_site_fract_y
_atom_site_fract_z
Si Si1 0.525135 0.394616 0.465185
Si Si2 0.822694 0.412843 0.300082
Si Si3 0.901644 0.750000 0.750000
Si Si4 0.386410 0.349437 0.191837
Si Si5 0.671211 0.122043 0.330196
O O1 0.500000 0.500000 0.500000
O O2 0.541623 0.333788 0.717467
O O3 0.465658 0.352825 0.284060
O O4 0.601678 0.378380 0.343991
O O5 0.846952 0.418014 0.601669
O O6 0.748208 0.362444 0.286331
O O7 0.821907 0.510586 0.143907
O O8 0.878163 0.362444 0.116681
O O9 0.848153 0.803596 0.551830
O O10 0.354824 0.250000 0.250000
#
# Coordination Sequence:
#
# PCOD9413677 Si02
#       5
#     8   8   4   8   8
#     4  12  27  49  78 110 160 208 269 332 411 481
#     4  11  28  49  79 112 163 209 265 332 414 479
#     4  12  28  46  80 114 158 212 282 332 414 490
#     4  12  27  46  76 114 153 205 264 332 398 483
#     4  11  27  49  77 112 158 212 268 332 408 493
#
# _framework density 25.385517
#
# number of rings (size 3 to 8) (size 9 to 14) (size 15 to 20)
#    0.000    0.444    2.222    4.000   10.889    5.333 
#    0.000    0.000    0.000    0.000    0.000    0.000 
#    0.000    0.000    0.000    0.000    0.000    0.000 
#
# Total GULP energy -200433.256738 kJ/mol
# GULP energy per Si atom -5567.590465 kJ/mol
# Density = 2.532774 g / cm^3
# Si number density = 25.385517 Si / 1000 Ang^3
#
#
#
# Elastic Constant Matrix: (Units=GPa)
#
#
# Indices 1 2 3 4 5 6 
#
# 1 171.6983 -4.1764 25.4169 0.0000 0.0000 0.0000
# 2 -4.1764 128.4679 9.6002 0.0000 0.0000 0.0000
# 3 25.4169 9.6002 77.9359 0.0000 0.0000 0.0000
# 4 0.0000 0.0000 0.0000 23.1042 0.0000 0.0000
# 5 0.0000 0.0000 0.0000 0.0000 42.1732 0.0000
# 6 0.0000 0.0000 0.0000 0.0000 0.0000 27.4253
#
#
#
# Elastic Compliance Matrix: (Units=1/GPa)
#
#
# Indices 1 2 3 4 5 6 
#
# 1 0.006135 0.000352 -0.002044 0.000000 0.000000 0.000000
# 2 0.000352 0.007877 -0.001085 0.000000 0.000000 0.000000
# 3 -0.002044 -0.001085 0.013631 0.000000 0.000000 0.000000
# 4 0.000000 0.000000 0.000000 0.043282 0.000000 0.000000
# 5 0.000000 0.000000 0.000000 0.000000 0.023712 0.000000
# 6 0.000000 0.000000 0.000000 0.000000 0.000000 0.036463
#
#
# Mechanical properties :
#
#
# Convention : Reuss Voigt Hill
#
# Bulk Modulus (GPa) = 45.27139 48.86484 47.06811
# Shear Modulus (GPa) = 34.71804 41.69129 38.20466
#
# Velocity S-wave (km/s) = 3.70216 4.05696 3.88361
# Velocity P-wave (km/s) = 6.01223 6.42153 6.22025
#
# Compressibility (1/GPa) = 0.02208901
#
# Stress axis : x y z
#
# Youngs Moduli (GPa) = 162.98968 126.95859 73.36000
#
# Poissons Ratio (x) = -0.04472 0.14997
# Poissons Ratio (y) = -0.05741 0.07960
# Poissons Ratio (z) = 0.33320 0.13776
#
# Static dielectric constant tensor:
#      x y z
#    x 1.992690 0.000000 0.000000 
#    y 0.000000 1.506310 0.000000 
#    z 0.000000 0.000000 2.516170 
# 
# From -- ./inp_files/4061.got.cif
#   From: 2010.05.17/outbox.cif.g08.bks.cpg/sg52_3_cif.got.tgz:4061.got - 2010.06.03 12:15:38.
