data_PCOD9413804
_publ_section_title
;
Structure prediction by ZEFSAII (Michael W. Deem and Ramdas Pophale) SiO2 
 PCOD9413804
Probable space group: P N N A
;
_chemical_formula_sum "Si O2"
_cell_formula_units_Z 40
_cell_length_a 22.726860
_cell_length_b 9.483529
_cell_length_c 8.451649
_cell_angle_alpha 90.000000
_cell_angle_beta 90.000000
_cell_angle_gamma 90.000000
_cell_volume 1821.590974
_symmetry_space_group_name_H-M "P N N A"
_symmetry_group_IT_number 52
_symmetry_cell_setting 'orthorhombic'
loop_
_space_group_symop_operation_xyz
x,y,z
1/2-x,-y,z
x,1/2-y,1/2-z
1/2-x,1/2+y,1/2-z
-x,-y,-z
1/2+x,y,-z
-x,1/2+y,1/2+z
1/2+x,1/2-y,1/2+z
loop_
_atom_site_type_symbol
_atom_site_label
_atom_site_fract_x
_atom_site_fract_y
_atom_site_fract_z
Si Si1 0.626740 0.783638 0.566563
Si Si2 0.372140 0.706868 0.431281
Si Si3 0.752671 0.328363 0.418680
Si Si4 0.937240 0.040496 0.068187
Si Si5 0.935180 0.962777 0.435229
O O1 0.617476 0.750000 0.750000
O O2 0.689718 0.725886 0.510876
O O3 0.578015 0.702240 0.462029
O O4 0.614051 0.946033 0.528178
O O5 0.378338 0.750000 0.250000
O O6 0.305750 0.721651 0.490747
O O7 0.390534 0.546948 0.464833
O O8 0.417058 0.802244 0.532542
O O9 0.750000 0.500000 0.402971
O O10 0.753695 0.250000 0.250000
O O11 0.932076 0.999273 0.250581
O O12 0.000000 0.000000 0.000000
O O13 0.000000 0.000000 0.500000
#
# Coordination Sequence:
#
# PCOD9413804 Si02
#       5
#     8   8   8   8   8
#     4  12  26  46  71 103 141 183 234 291 350 415
#     4  12  26  46  71 103 141 183 234 291 350 415
#     4  12  27  48  74 106 142 185 236 292 354 423
#     4  12  24  45  70 101 142 184 234 288 348 420
#     4  12  26  45  72 105 140 186 232 286 352 418
#
# _framework density 21.958825999999998
#
# number of rings (size 3 to 8) (size 9 to 14) (size 15 to 20)
#    0.000    0.000    2.000    9.000    2.800    0.000 
#    0.000    0.000    0.000    0.000    0.000    0.000 
#    0.000    0.000    0.000    0.000    0.000    0.000 
#
# Total GULP energy -224102.721649 kJ/mol
# GULP energy per Si atom -5602.568041 kJ/mol
# Density = 2.190885 g / cm^3
# Si number density = 21.958826 Si / 1000 Ang^3
#
#
#
# Elastic Constant Matrix: (Units=GPa)
#
#
# Indices 1 2 3 4 5 6 
#
# 1 118.8002 0.3221 7.9494 0.0000 0.0000 0.0000
# 2 0.3221 71.3761 2.1235 0.0000 0.0000 0.0000
# 3 7.9494 2.1235 165.1817 0.0000 0.0000 0.0000
# 4 0.0000 0.0000 0.0000 33.5367 0.0000 0.0000
# 5 0.0000 0.0000 0.0000 0.0000 31.9548 0.0000
# 6 0.0000 0.0000 0.0000 0.0000 0.0000 40.9467
#
#
#
# Elastic Compliance Matrix: (Units=1/GPa)
#
#
# Indices 1 2 3 4 5 6 
#
# 1 0.008445 -0.000026 -0.000406 0.000000 0.000000 0.000000
# 2 -0.000026 0.014016 -0.000179 0.000000 0.000000 0.000000
# 3 -0.000406 -0.000179 0.006076 0.000000 0.000000 0.000000
# 4 0.000000 0.000000 0.000000 0.029818 0.000000 0.000000
# 5 0.000000 0.000000 0.000000 0.000000 0.031294 0.000000
# 6 0.000000 0.000000 0.000000 0.000000 0.000000 0.024422
#
#
# Mechanical properties :
#
#
# Convention : Reuss Voigt Hill
#
# Bulk Modulus (GPa) = 36.61099 41.79422 39.20261
# Shear Modulus (GPa) = 40.19381 44.28518 42.23949
#
# Velocity S-wave (km/s) = 4.28298 4.49568 4.39062
# Velocity P-wave (km/s) = 6.41617 6.78399 6.60264
#
# Compressibility (1/GPa) = 0.02731420
#
# Stress axis : x y z
#
# Youngs Moduli (GPa) = 118.41694 71.34837 164.58788
#
# Poissons Ratio (x) = 0.00186 0.06683
# Poissons Ratio (y) = 0.00308 0.02945
# Poissons Ratio (z) = 0.04809 0.01277
#
# Static dielectric constant tensor:
#      x y z
#    x 1.806260 0.000000 0.000000 
#    y 0.000000 1.753200 0.000000 
#    z 0.000000 0.000000 1.750870 
# 
# From -- ./inp_files/13982.got.cif
#   From: 2010.05.17/outbox.cif.g08.bks.cpg/sg52_7_cif.got.tgz:13982.got - 2010.06.03 12:15:38.
