data_PCOD9413662
_publ_section_title
;
Structure prediction by ZEFSAII (Michael W. Deem and Ramdas Pophale) SiO2 
 PCOD9413662
Probable space group: P N N A
;
_chemical_formula_sum "Si O2"
_cell_formula_units_Z 24
_cell_length_a 8.723400
_cell_length_b 10.188207
_cell_length_c 10.441095
_cell_angle_alpha 90.000000
_cell_angle_beta 90.000000
_cell_angle_gamma 90.000000
_cell_volume 927.960723
_symmetry_space_group_name_H-M "P N N A"
_symmetry_group_IT_number 52
_symmetry_cell_setting 'orthorhombic'
loop_
_space_group_symop_operation_xyz
x,y,z
1/2-x,-y,z
x,1/2-y,1/2-z
1/2-x,1/2+y,1/2-z
-x,-y,-z
1/2+x,y,-z
-x,1/2+y,1/2+z
1/2+x,1/2-y,1/2+z
loop_
_atom_site_type_symbol
_atom_site_label
_atom_site_fract_x
_atom_site_fract_y
_atom_site_fract_z
Si Si1 0.644113 0.126475 0.425924
Si Si2 0.922091 0.036380 0.796969
Si Si3 0.425254 0.298466 0.559963
O O1 0.525284 0.098521 0.312971
O O2 0.542272 0.177478 0.544117
O O3 0.761119 0.245012 0.399588
O O4 0.750000 0.000000 0.449170
O O5 0.750000 0.000000 0.756894
O O6 0.909951 0.132321 0.920608
O O7 0.008147 0.906583 0.846260
#
# Coordination Sequence:
#
# PCOD9413662 Si02
#       3
#     8   8   8
#     4  12  28  48  82 119 165 221 275 345 419 495
#     4  11  26  50  85 114 166 230 272 344 418 484
#     4  11  26  52  77 122 169 208 288 345 408 496
#
# _framework density 25.863163
#
# number of rings (size 3 to 8) (size 9 to 14) (size 15 to 20)
#    0.000    0.667    3.333    2.000    9.333    4.000 
#    6.000    0.000    0.000    0.000    0.000    0.000 
#    0.000    0.000    0.000    0.000    0.000    0.000 
#
# Total GULP energy -134959.836010 kJ/mol
# GULP energy per Si atom -5623.326500 kJ/mol
# Density = 2.580430 g / cm^3
# Si number density = 25.863163 Si / 1000 Ang^3
#
#
#
# Elastic Constant Matrix: (Units=GPa)
#
#
# Indices 1 2 3 4 5 6 
#
# 1 230.8131 101.1405 68.8094 0.0000 0.0000 0.0000
# 2 101.1405 144.2010 83.9107 0.0000 0.0000 0.0000
# 3 68.8094 83.9107 126.3443 0.0000 0.0000 0.0000
# 4 0.0000 0.0000 0.0000 36.2215 0.0000 0.0000
# 5 0.0000 0.0000 0.0000 0.0000 43.4681 0.0000
# 6 0.0000 0.0000 0.0000 0.0000 0.0000 72.7518
#
#
#
# Elastic Compliance Matrix: (Units=1/GPa)
#
#
# Indices 1 2 3 4 5 6 
#
# 1 0.006305 -0.003951 -0.000810 0.000000 0.000000 0.000000
# 2 -0.003951 0.013779 -0.006999 0.000000 0.000000 0.000000
# 3 -0.000810 -0.006999 0.013004 0.000000 0.000000 0.000000
# 4 0.000000 0.000000 0.000000 0.027608 0.000000 0.000000
# 5 0.000000 0.000000 0.000000 0.000000 0.023005 0.000000
# 6 0.000000 0.000000 0.000000 0.000000 0.000000 0.013745
#
#
# Mechanical properties :
#
#
# Convention : Reuss Voigt Hill
#
# Bulk Modulus (GPa) = 104.51422 112.11995 108.31709
# Shear Modulus (GPa) = 40.27138 46.98812 43.62975
#
# Velocity S-wave (km/s) = 3.95028 4.26701 4.11170
# Velocity P-wave (km/s) = 7.82972 8.22933 8.03201
#
# Compressibility (1/GPa) = 0.00956808
#
# Stress axis : x y z
#
# Youngs Moduli (GPa) = 158.59593 72.57402 76.89661
#
# Poissons Ratio (x) = 0.28676 0.06227
# Poissons Ratio (y) = 0.62665 0.53823
# Poissons Ratio (z) = 0.12843 0.50797
#
# Static dielectric constant tensor:
#      x y z
#    x 1.943600 0.000000 0.000000 
#    y 0.000000 2.052800 0.000000 
#    z 0.000000 0.000000 2.028810 
# 
# From -- ./inp_files/16239.got.cif
#   From: 2010.05.17/outbox.cif.g08.bks.cpg/sg52_9_cif.got.tgz:16239.got - 2010.06.03 12:15:38.
