data_PCOD9413259
_publ_section_title
;
Structure prediction by ZEFSAII (Michael W. Deem and Ramdas Pophale) SiO2 
 PCOD9413259
Probable space group: P N N A
;
_chemical_formula_sum "Si O2"
_cell_formula_units_Z 32
_cell_length_a 10.306387
_cell_length_b 26.109033
_cell_length_c 4.988099
_cell_angle_alpha 90.000000
_cell_angle_beta 90.000000
_cell_angle_gamma 90.000000
_cell_volume 1342.246554
_symmetry_space_group_name_H-M "P N N A"
_symmetry_group_IT_number 52
_symmetry_cell_setting 'orthorhombic'
loop_
_space_group_symop_operation_xyz
x,y,z
1/2-x,-y,z
x,1/2-y,1/2-z
1/2-x,1/2+y,1/2-z
-x,-y,-z
1/2+x,y,-z
-x,1/2+y,1/2+z
1/2+x,1/2-y,1/2+z
loop_
_atom_site_type_symbol
_atom_site_label
_atom_site_fract_x
_atom_site_fract_y
_atom_site_fract_z
Si Si1 0.859545 0.693641 0.365796
Si Si2 0.624321 0.645566 0.616098
Si Si3 0.571670 0.103809 0.479554
Si Si4 0.699100 0.056203 0.997294
O O1 0.868423 0.750000 0.250000
O O2 0.741524 0.684823 0.568293
O O3 0.846433 0.653609 0.118138
O O4 0.995828 0.674390 0.492584
O O5 0.571861 0.624330 0.903384
O O6 0.677569 0.594009 0.479509
O O7 0.613689 0.081100 0.760232
O O8 0.612560 0.060553 0.262913
O O9 0.750000 0.000000 0.940481
#
# Coordination Sequence:
#
# PCOD9413259 Si02
#       4
#     8   8   8   8
#     4   9  20  44  67 101 134 187 225 295 352 414
#     4   9  22  43  65 105 137 183 236 292 342 433
#     4   9  23  41  64 103 136 177 233 287 338 424
#     4  11  22  42  70 102 143 188 231 291 354 410
#
# _framework density 23.840627000000001
#
# number of rings (size 3 to 8) (size 9 to 14) (size 15 to 20)
#    1.500    1.000    0.000    0.750    0.000    8.000 
#    4.500    5.000    0.000    0.000    0.000    0.000 
#    0.000    0.000    0.000    0.000    0.000    0.000 
#
# Total GULP energy -178367.069932 kJ/mol
# GULP energy per Si atom -5573.970935 kJ/mol
# Density = 2.378636 g / cm^3
# Si number density = 23.840627 Si / 1000 Ang^3
#
#
#
# Elastic Constant Matrix: (Units=GPa)
#
#
# Indices 1 2 3 4 5 6 
#
# 1 197.3307 43.1241 42.9737 0.0000 0.0000 0.0000
# 2 43.1241 131.2913 0.3231 0.0000 0.0000 0.0000
# 3 42.9737 0.3231 89.0469 0.0000 0.0000 0.0000
# 4 0.0000 0.0000 0.0000 22.0679 0.0000 0.0000
# 5 0.0000 0.0000 0.0000 0.0000 28.0857 0.0000
# 6 0.0000 0.0000 0.0000 0.0000 0.0000 22.5226
#
#
#
# Elastic Compliance Matrix: (Units=1/GPa)
#
#
# Indices 1 2 3 4 5 6 
#
# 1 0.006153 -0.002014 -0.002962 0.000000 0.000000 0.000000
# 2 -0.002014 0.008276 0.000942 0.000000 0.000000 0.000000
# 3 -0.002962 0.000942 0.012656 0.000000 0.000000 0.000000
# 4 0.000000 0.000000 0.000000 0.045315 0.000000 0.000000
# 5 0.000000 0.000000 0.000000 0.000000 0.035605 0.000000
# 6 0.000000 0.000000 0.000000 0.000000 0.000000 0.044400
#
#
# Mechanical properties :
#
#
# Convention : Reuss Voigt Hill
#
# Bulk Modulus (GPa) = 52.58513 65.61230 59.09872
# Shear Modulus (GPa) = 29.97402 36.61843 33.29623
#
# Velocity S-wave (km/s) = 3.54964 3.92339 3.74119
# Velocity P-wave (km/s) = 6.23737 6.93578 6.59582
#
# Compressibility (1/GPa) = 0.01901678
#
# Stress axis : x y z
#
# Youngs Moduli (GPa) = 162.52924 120.83519 79.01348
#
# Poissons Ratio (x) = 0.24332 0.23404
# Poissons Ratio (y) = 0.32728 -0.07441
# Poissons Ratio (z) = 0.48141 -0.11380
#
# Static dielectric constant tensor:
#      x y z
#    x 1.994250 0.000000 0.000000 
#    y 0.000000 1.852050 0.000000 
#    z 0.000000 0.000000 1.992940 
# 
# From -- ./inp_files/451.got.cif
#   From: 2010.05.17/outbox.cif.g08.bks.cpg/sg52_1_cif.got.tgz:451.got - 2010.06.03 12:15:38.
