data_PCOD9413026
_publ_section_title
;
Structure prediction by ZEFSAII (Michael W. Deem and Ramdas Pophale) SiO2 
 PCOD9413026
Probable space group: P N N A
;
_chemical_formula_sum "Si O2"
_cell_formula_units_Z 56
_cell_length_a 14.501108
_cell_length_b 7.841659
_cell_length_c 20.563304
_cell_angle_alpha 90.000000
_cell_angle_beta 90.000000
_cell_angle_gamma 90.000000
_cell_volume 2338.309725
_symmetry_space_group_name_H-M "P N N A"
_symmetry_group_IT_number 52
_symmetry_cell_setting 'orthorhombic'
loop_
_space_group_symop_operation_xyz
x,y,z
1/2-x,-y,z
x,1/2-y,1/2-z
1/2-x,1/2+y,1/2-z
-x,-y,-z
1/2+x,y,-z
-x,1/2+y,1/2+z
1/2+x,1/2-y,1/2+z
loop_
_atom_site_type_symbol
_atom_site_label
_atom_site_fract_x
_atom_site_fract_y
_atom_site_fract_z
Si Si1 0.616653 0.750000 0.750000
Si Si2 0.349011 0.486013 0.819603
Si Si3 0.431140 0.158524 0.007424
Si Si4 0.014851 0.167024 0.630694
Si Si5 0.453296 0.233765 0.861044
Si Si6 0.348925 0.868893 0.193908
Si Si7 0.250000 0.500000 0.427754
Si Si8 0.153781 0.074778 0.831446
O O1 0.553923 0.794919 0.687900
O O2 0.649764 0.560520 0.724067
O O3 0.250000 0.500000 0.852242
O O4 0.452764 0.473178 0.855940
O O5 0.360847 0.278007 0.817497
O O6 0.348620 0.557809 0.746454
O O7 0.472832 0.280495 0.063555
O O8 0.330790 0.089037 0.030433
O O9 0.435201 0.253839 0.939403
O O10 0.500000 0.000000 0.000000
O O11 0.120654 0.230689 0.648359
O O12 0.552694 0.214096 0.824165
O O13 0.433469 0.020871 0.861036
O O14 0.305688 0.750000 0.250000
O O15 0.297461 0.871439 0.124142
O O16 0.250000 0.000000 0.857231
#
# Coordination Sequence:
#
# PCOD9413026 Si02
#       8
#     4   8   8   8   8   8   4   8
#     4  12  20  44  72 102 144 190 234 312 384 422
#     4  11  24  39  64 103 142 175 232 296 357 437
#     4  12  25  45  70  98 137 189 245 286 359 444
#     4  12  21  40  65  93 134 184 228 290 365 424
#     4  12  23  44  65  98 136 189 231 290 362 433
#     4  12  26  45  76 111 143 190 248 311 375 436
#     4  12  26  46  72 108 144 184 256 306 358 452
#     4  11  20  34  62  97 127 170 223 276 347 417
#
# _framework density 23.948923000000001
#
# number of rings (size 3 to 8) (size 9 to 14) (size 15 to 20)
#    0.000    0.286    7.143    3.000    2.000    4.000 
#    0.000    0.000    0.000    0.000    0.000    0.000 
#    0.000    0.000    0.000    0.000    0.000    0.000 
#
# Total GULP energy -311870.894954 kJ/mol
# GULP energy per Si atom -5569.123124 kJ/mol
# Density = 2.389441 g / cm^3
# Si number density = 23.948923 Si / 1000 Ang^3
#
#
#
# Elastic Constant Matrix: (Units=GPa)
#
#
# Indices 1 2 3 4 5 6 
#
# 1 91.4505 72.0967 38.7177 0.0000 0.0000 0.0000
# 2 72.0967 104.0341 54.3587 0.0000 0.0000 0.0000
# 3 38.7177 54.3587 157.0046 0.0000 0.0000 0.0000
# 4 0.0000 0.0000 0.0000 52.5473 0.0000 0.0000
# 5 0.0000 0.0000 0.0000 0.0000 -26.7125 0.0000
# 6 0.0000 0.0000 0.0000 0.0000 0.0000 64.3921
#
#
#
# Elastic Compliance Matrix: (Units=1/GPa)
#
#
# Indices 1 2 3 4 5 6 
#
# 1 0.024109 -0.016605 -0.000196 0.000000 0.000000 0.000000
# 2 -0.016605 0.023172 -0.003928 0.000000 0.000000 0.000000
# 3 -0.000196 -0.003928 0.007778 0.000000 0.000000 0.000000
# 4 0.000000 0.000000 0.000000 0.019030 0.000000 0.000000
# 5 0.000000 0.000000 0.000000 0.000000 -0.037436 0.000000
# 6 0.000000 0.000000 0.000000 0.000000 0.000000 0.015530
#
#
# Mechanical properties :
#
#
# Convention : Reuss Voigt Hill
#
# Bulk Modulus (GPa) = 73.52900 75.87060 74.69980
# Shear Modulus (GPa) = 50.92923 30.53313 40.73118
#
# Velocity S-wave (km/s) = 4.61649 3.57449 4.12849
# Velocity P-wave (km/s) = 7.69318 6.98462 7.34744
#
# Compressibility (1/GPa) = 0.01360008
#
# Stress axis : x y z
#
# Youngs Moduli (GPa) = 41.47825 43.15513 128.57538
#
# Poissons Ratio (x) = 0.71660 0.02523
# Poissons Ratio (y) = 0.68876 0.50503
# Poissons Ratio (z) = 0.00814 0.16951
#
# Static dielectric constant tensor:
#      x y z
#    x 2.086980 0.000000 0.000000 
#    y 0.000000 2.066920 0.000000 
#    z 0.000000 0.000000 1.946070 
# 
# From -- ./inp_files/37389.got.cif
#   From: 2010.05.17/outbox.cif.g08.bks.cpg/sg52_19_cif.got.tgz:37389.got - 2010.06.03 12:15:38.
