data_PCOD9413499
_publ_section_title
;
Structure prediction by ZEFSAII (Michael W. Deem and Ramdas Pophale) SiO2 
 PCOD9413499
Probable space group: P N N A
;
_chemical_formula_sum "Si O2"
_cell_formula_units_Z 28
_cell_length_a 21.347024
_cell_length_b 10.706167
_cell_length_c 5.069848
_cell_angle_alpha 90.000000
_cell_angle_beta 90.000000
_cell_angle_gamma 90.000000
_cell_volume 1158.687417
_symmetry_space_group_name_H-M "P N N A"
_symmetry_group_IT_number 52
_symmetry_cell_setting 'orthorhombic'
loop_
_space_group_symop_operation_xyz
x,y,z
1/2-x,-y,z
x,1/2-y,1/2-z
1/2-x,1/2+y,1/2-z
-x,-y,-z
1/2+x,y,-z
-x,1/2+y,1/2+z
1/2+x,1/2-y,1/2+z
loop_
_atom_site_type_symbol
_atom_site_label
_atom_site_fract_x
_atom_site_fract_y
_atom_site_fract_z
Si Si1 0.640240 0.750000 0.750000
Si Si2 0.244085 0.861971 0.932451
Si Si3 0.613922 0.132117 0.083590
Si Si4 0.072701 0.983891 0.435828
O O1 0.690491 0.644596 0.651520
O O2 0.592840 0.840114 0.595742
O O3 0.222026 0.750000 0.750000
O O4 0.315732 0.831023 0.002800
O O5 0.250000 0.000000 0.817219
O O6 0.586023 0.250000 0.250000
O O7 0.612815 0.030690 0.315513
O O8 0.583659 0.069835 0.825387
O O9 0.000000 0.000000 0.500000
#
# Coordination Sequence:
#
# PCOD9413499 Si02
#       4
#     4   8   8   8
#     4  12  28  46  80 116 160 214 274 336 420 480
#     4  11  24  44  76 113 163 201 266 342 413 485
#     4  11  26  49  79 115 154 211 267 338 412 478
#     4  12  28  52  79 114 166 215 275 328 406 495
#
# _framework density 24.165278000000001
#
# number of rings (size 3 to 8) (size 9 to 14) (size 15 to 20)
#    0.000    0.571    2.857    3.429   10.000    1.143 
#    5.143    0.000    0.000    0.000    0.000    0.000 
#    0.000    0.000    0.000    0.000    0.000    0.000 
#
# Total GULP energy -156185.117191 kJ/mol
# GULP energy per Si atom -5578.039900 kJ/mol
# Density = 2.411028 g / cm^3
# Si number density = 24.165278 Si / 1000 Ang^3
#
#
#
# Elastic Constant Matrix: (Units=GPa)
#
#
# Indices 1 2 3 4 5 6 
#
# 1 112.8616 63.6280 50.0610 0.0000 0.0000 0.0000
# 2 63.6280 90.9221 38.9142 0.0000 0.0000 0.0000
# 3 50.0610 38.9142 130.6557 0.0000 0.0000 0.0000
# 4 0.0000 0.0000 0.0000 55.3361 0.0000 0.0000
# 5 0.0000 0.0000 0.0000 0.0000 -23.2355 0.0000
# 6 0.0000 0.0000 0.0000 0.0000 0.0000 115.0620
#
#
#
# Elastic Compliance Matrix: (Units=1/GPa)
#
#
# Indices 1 2 3 4 5 6 
#
# 1 0.015683 -0.009631 -0.003141 0.000000 0.000000 0.000000
# 2 -0.009631 0.018520 -0.001826 0.000000 0.000000 0.000000
# 3 -0.003141 -0.001826 0.009401 0.000000 0.000000 0.000000
# 4 0.000000 0.000000 0.000000 0.018071 0.000000 0.000000
# 5 0.000000 0.000000 0.000000 0.000000 -0.043038 0.000000
# 6 0.000000 0.000000 0.000000 0.000000 0.000000 0.008691
#
#
# Mechanical properties :
#
#
# Convention : Reuss Voigt Hill
#
# Bulk Modulus (GPa) = 69.40098 71.07178 70.23638
# Shear Modulus (GPa) = 81.53139 41.55490 61.54315
#
# Velocity S-wave (km/s) = 5.81484 4.15132 5.05202
# Velocity P-wave (km/s) = 8.59446 7.24241 7.94724
#
# Compressibility (1/GPa) = 0.01440902
#
# Stress axis : x y z
#
# Youngs Moduli (GPa) = 63.76278 53.99651 106.37424
#
# Poissons Ratio (x) = 0.52004 0.33407
# Poissons Ratio (y) = 0.61410 0.19421
# Poissons Ratio (z) = 0.20025 0.09858
#
# Static dielectric constant tensor:
#      x y z
#    x 1.894810 0.000000 0.000000 
#    y 0.000000 1.934820 0.000000 
#    z 0.000000 0.000000 2.070450 
# 
# From -- ./inp_files/3781.got.cif
#   From: 2010.05.17/outbox.cif.g08.bks.cpg/sg52_2_cif.got.tgz:3781.got - 2010.06.03 12:15:38.
