data_PCOD9413518
_publ_section_title
;
Structure prediction by ZEFSAII (Michael W. Deem and Ramdas Pophale) SiO2 
 PCOD9413518
Probable space group: P N N A
;
_chemical_formula_sum "Si O2"
_cell_formula_units_Z 24
_cell_length_a 8.762874
_cell_length_b 7.838070
_cell_length_c 10.959810
_cell_angle_alpha 90.000000
_cell_angle_beta 90.000000
_cell_angle_gamma 90.000000
_cell_volume 752.763807
_symmetry_space_group_name_H-M "P N N A"
_symmetry_group_IT_number 52
_symmetry_cell_setting 'orthorhombic'
loop_
_space_group_symop_operation_xyz
x,y,z
1/2-x,-y,z
x,1/2-y,1/2-z
1/2-x,1/2+y,1/2-z
-x,-y,-z
1/2+x,y,-z
-x,1/2+y,1/2+z
1/2+x,1/2-y,1/2+z
loop_
_atom_site_type_symbol
_atom_site_label
_atom_site_fract_x
_atom_site_fract_y
_atom_site_fract_z
Si Si1 0.250000 0.000000 0.943572
Si Si2 0.277450 0.250000 0.750000
Si Si3 0.962301 0.933616 0.610191
Si Si4 0.864433 0.263667 0.632235
O O1 0.190447 0.149684 0.854203
O O2 0.367088 0.088092 0.031769
O O3 0.391290 0.120327 0.684255
O O4 0.817986 0.808839 0.616065
O O5 0.041658 0.881591 0.461427
O O6 0.897878 0.109325 0.740035
#
# Coordination Sequence:
#
# PCOD9413518 Si02
#       4
#     4   4   8   8
#     4  12  28  46  74 110 150 198 248 312 376 458
#     4  12  28  48  74 110 156 196 244 312 394 442
#     4  11  24  46  71 105 147 194 243 303 376 445
#     4  11  25  47  73 107 145 192 259 306 359 453
#
# _framework density 31.882508000000001
#
# number of rings (size 3 to 8) (size 9 to 14) (size 15 to 20)
#    0.000    0.667    5.000    2.000    4.667    4.000 
#    0.000    0.000    0.000    0.000    0.000    0.000 
#    0.000    0.000    0.000    0.000    0.000    0.000 
#
# Total GULP energy -134009.510467 kJ/mol
# GULP energy per Si atom -5583.729603 kJ/mol
# Density = 3.180994 g / cm^3
# Si number density = 31.882508 Si / 1000 Ang^3
#
#
#
# Elastic Constant Matrix: (Units=GPa)
#
#
# Indices 1 2 3 4 5 6 
#
# 1 193.4848 83.3110 76.0148 0.0000 0.0000 0.0000
# 2 83.3110 244.0586 81.5809 0.0000 0.0000 0.0000
# 3 76.0148 81.5809 268.0786 0.0000 0.0000 0.0000
# 4 0.0000 0.0000 0.0000 -83.4588 0.0000 0.0000
# 5 0.0000 0.0000 0.0000 0.0000 189.7729 0.0000
# 6 0.0000 0.0000 0.0000 0.0000 0.0000 161.3902
#
#
#
# Elastic Compliance Matrix: (Units=1/GPa)
#
#
# Indices 1 2 3 4 5 6 
#
# 1 0.006435 -0.001766 -0.001287 0.000000 0.000000 0.000000
# 2 -0.001766 0.005046 -0.001035 0.000000 0.000000 0.000000
# 3 -0.001287 -0.001035 0.004410 0.000000 0.000000 0.000000
# 4 0.000000 0.000000 0.000000 -0.011982 0.000000 0.000000
# 5 0.000000 0.000000 0.000000 0.000000 0.005269 0.000000
# 6 0.000000 0.000000 0.000000 0.000000 0.000000 0.006196
#
#
# Mechanical properties :
#
#
# Convention : Reuss Voigt Hill
#
# Bulk Modulus (GPa) = 129.62396 131.93726 130.78061
# Shear Modulus (GPa) = 191.40772 84.52187 137.96480
#
# Velocity S-wave (km/s) = 7.75665 5.15441 6.58535
# Velocity P-wave (km/s) = 10.99845 8.76904 9.94641
#
# Compressibility (1/GPa) = 0.00771462
#
# Stress axis : x y z
#
# Youngs Moduli (GPa) = 155.41169 198.16872 226.75198
#
# Poissons Ratio (x) = 0.35002 0.29184
# Poissons Ratio (y) = 0.27450 0.23465
# Poissons Ratio (z) = 0.20002 0.20507
#
# Static dielectric constant tensor:
#      x y z
#    x 13.827480 0.000000 0.000000 
#    y 0.000000 -0.491470 0.000000 
#    z 0.000000 0.000000 -0.738770 
# 
# From -- ./inp_files/23953.got.cif
#   From: 2010.05.17/outbox.cif.g08.bks.cpg/sg52_12_cif.got.tgz:23953.got - 2010.06.03 12:15:38.
