data_PCOD9413301
_publ_section_title
;
Structure prediction by ZEFSAII (Michael W. Deem and Ramdas Pophale) SiO2 
 PCOD9413301
Probable space group: P N N A
;
_chemical_formula_sum "Si O2"
_cell_formula_units_Z 48
_cell_length_a 10.080595
_cell_length_b 9.298677
_cell_length_c 30.091003
_cell_angle_alpha 90.000000
_cell_angle_beta 90.000000
_cell_angle_gamma 90.000000
_cell_volume 2820.616181
_symmetry_space_group_name_H-M "P N N A"
_symmetry_group_IT_number 52
_symmetry_cell_setting 'orthorhombic'
loop_
_space_group_symop_operation_xyz
x,y,z
1/2-x,-y,z
x,1/2-y,1/2-z
1/2-x,1/2+y,1/2-z
-x,-y,-z
1/2+x,y,-z
-x,1/2+y,1/2+z
1/2+x,1/2-y,1/2+z
loop_
_atom_site_type_symbol
_atom_site_label
_atom_site_fract_x
_atom_site_fract_y
_atom_site_fract_z
Si Si1 0.905474 0.489109 0.634291
Si Si2 0.902683 0.006963 0.458743
Si Si3 0.406877 0.241699 0.616788
Si Si4 0.098901 0.260590 0.885188
Si Si5 0.385207 0.419829 0.261080
Si Si6 0.401646 0.995269 0.690508
O O1 0.750000 0.500000 0.621618
O O2 0.908191 0.452396 0.686975
O O3 0.986359 0.633734 0.623298
O O4 0.989349 0.361859 0.611834
O O5 0.924945 0.147725 0.428006
O O6 0.750000 0.000000 0.473994
O O7 0.917138 0.872102 0.425500
O O8 0.000000 0.000000 0.500000
O O9 0.252379 0.292192 0.616051
O O10 0.421327 0.130533 0.657848
O O11 0.079922 0.354602 0.840422
O O12 0.250000 0.500000 0.248227
O O13 0.376648 0.250000 0.250000
O O14 0.501234 0.486876 0.231572
O O15 0.250000 0.000000 0.705899
#
# Coordination Sequence:
#
# PCOD9413301 Si02
#       6
#     8   8   8   8   8   8
#     4  11  23  35  52  81 111 147 190 228 272 325
#     4   9  19  37  62  88 111 139 177 221 278 339
#     4   9  20  36  58  81 109 144 181 224 280 324
#     4   9  18  38  57  79 111 143 179 228 276 327
#     4  11  24  38  52  76 115 150 187 232 284 324
#     4   9  19  36  57  77 101 143 192 229 265 323
#
# _framework density 17.017558000000001
#
# number of rings (size 3 to 8) (size 9 to 14) (size 15 to 20)
#    0.000    2.333    1.667    2.500    4.667    2.667 
#    0.000    4.167    0.000    0.000    0.000    0.000 
#    0.000    0.000    0.000    0.000    0.000    0.000 
#
# Total GULP energy -267691.194890 kJ/mol
# GULP energy per Si atom -5576.899894 kJ/mol
# Density = 1.697883 g / cm^3
# Si number density = 17.017558 Si / 1000 Ang^3
#
#
#
# Elastic Constant Matrix: (Units=GPa)
#
#
# Indices 1 2 3 4 5 6 
#
# 1 154.9640 89.3466 60.0065 0.0000 0.0000 0.0000
# 2 89.3466 97.3777 25.1070 0.0000 0.0000 0.0000
# 3 60.0065 25.1070 57.8044 0.0000 0.0000 0.0000
# 4 0.0000 0.0000 0.0000 7.7057 0.0000 0.0000
# 5 0.0000 0.0000 0.0000 0.0000 36.1431 0.0000
# 6 0.0000 0.0000 0.0000 0.0000 0.0000 33.7816
#
#
#
# Elastic Compliance Matrix: (Units=1/GPa)
#
#
# Indices 1 2 3 4 5 6 
#
# 1 0.021571 -0.015786 -0.015536 0.000000 0.000000 0.000000
# 2 -0.015786 0.023117 0.006347 0.000000 0.000000 0.000000
# 3 -0.015536 0.006347 0.030671 0.000000 0.000000 0.000000
# 4 0.000000 0.000000 0.000000 0.129775 0.000000 0.000000
# 5 0.000000 0.000000 0.000000 0.000000 0.027668 0.000000
# 6 0.000000 0.000000 0.000000 0.000000 0.000000 0.029602
#
#
# Mechanical properties :
#
#
# Convention : Reuss Voigt Hill
#
# Bulk Modulus (GPa) = 39.35760 73.22959 56.29359
# Shear Modulus (GPa) = 15.58493 24.57182 20.07837
#
# Velocity S-wave (km/s) = 3.02953 3.80400 3.43864
# Velocity P-wave (km/s) = 5.95107 7.90058 6.99408
#
# Compressibility (1/GPa) = 0.02540805
#
# Stress axis : x y z
#
# Youngs Moduli (GPa) = 46.35917 43.25812 32.60432
#
# Poissons Ratio (x) = 0.68288 0.50654
# Poissons Ratio (y) = 0.73183 -0.20693
# Poissons Ratio (z) = 0.72023 -0.27455
#
# Static dielectric constant tensor:
#      x y z
#    x 1.576050 0.000000 0.000000 
#    y 0.000000 1.579660 0.000000 
#    z 0.000000 0.000000 1.544570 
# 
# From -- ./inp_files/44360.got.cif
#   From: 2010.05.17/outbox.cif.g08.bks.cpg/sg52_23_cif.got.tgz:44360.got - 2010.06.03 12:15:38.
