data_PCOD9413307
_publ_section_title
;
Structure prediction by ZEFSAII (Michael W. Deem and Ramdas Pophale) SiO2 
 PCOD9413307
Probable space group: P N N A
;
_chemical_formula_sum "Si O2"
_cell_formula_units_Z 32
_cell_length_a 14.668206
_cell_length_b 12.384821
_cell_length_c 6.859097
_cell_angle_alpha 90.000000
_cell_angle_beta 90.000000
_cell_angle_gamma 90.000000
_cell_volume 1246.044863
_symmetry_space_group_name_H-M "P N N A"
_symmetry_group_IT_number 52
_symmetry_cell_setting 'orthorhombic'
loop_
_space_group_symop_operation_xyz
x,y,z
1/2-x,-y,z
x,1/2-y,1/2-z
1/2-x,1/2+y,1/2-z
-x,-y,-z
1/2+x,y,-z
-x,1/2+y,1/2+z
1/2+x,1/2-y,1/2+z
loop_
_atom_site_type_symbol
_atom_site_label
_atom_site_fract_x
_atom_site_fract_y
_atom_site_fract_z
Si Si1 0.807400 0.760569 0.515718
Si Si2 0.152303 0.474348 0.449715
Si Si3 0.476103 0.867979 0.353831
Si Si4 0.169585 0.914536 0.655587
O O1 0.794091 0.750000 0.750000
O O2 0.831752 0.641140 0.444947
O O3 0.895958 0.836415 0.496502
O O4 0.717840 0.807455 0.421810
O O5 0.250000 0.500000 0.347671
O O6 0.070797 0.448252 0.303775
O O7 0.143223 0.563569 0.617116
O O8 0.495984 0.750000 0.250000
O O9 0.569369 0.914000 0.438246
O O10 0.250000 0.000000 0.612836
#
# Coordination Sequence:
#
# PCOD9413307 Si02
#       4
#     8   8   8   8
#     4   9  22  44  63  92 139 187 222 275 347 409
#     4   9  20  38  67 102 130 172 230 282 340 401
#     4   9  21  42  66  92 142 183 217 279 352 409
#     4  11  23  36  70 101 133 174 235 283 334 410
#
# _framework density 25.681256000000001
#
# number of rings (size 3 to 8) (size 9 to 14) (size 15 to 20)
#    0.000    3.000    0.000    0.750    7.000    5.000 
#    0.000    0.000   11.000    0.000    0.000    0.000 
#    0.000    0.000    0.000    0.000    0.000    0.000 
#
# Total GULP energy -178773.359029 kJ/mol
# GULP energy per Si atom -5586.667470 kJ/mol
# Density = 2.562280 g / cm^3
# Si number density = 25.681256 Si / 1000 Ang^3
#
#
#
# Elastic Constant Matrix: (Units=GPa)
#
#
# Indices 1 2 3 4 5 6 
#
# 1 254.3513 64.8152 39.3689 0.0000 0.0000 0.0000
# 2 64.8152 106.5371 46.3166 0.0000 0.0000 0.0000
# 3 39.3689 46.3166 104.0882 0.0000 0.0000 0.0000
# 4 0.0000 0.0000 0.0000 38.3629 0.0000 0.0000
# 5 0.0000 0.0000 0.0000 0.0000 27.2356 0.0000
# 6 0.0000 0.0000 0.0000 0.0000 0.0000 39.5314
#
#
#
# Elastic Compliance Matrix: (Units=1/GPa)
#
#
# Indices 1 2 3 4 5 6 
#
# 1 0.004685 -0.002579 -0.000625 0.000000 0.000000 0.000000
# 2 -0.002579 0.013057 -0.004835 0.000000 0.000000 0.000000
# 3 -0.000625 -0.004835 0.011995 0.000000 0.000000 0.000000
# 4 0.000000 0.000000 0.000000 0.026067 0.000000 0.000000
# 5 0.000000 0.000000 0.000000 0.000000 0.036717 0.000000
# 6 0.000000 0.000000 0.000000 0.000000 0.000000 0.025296
#
#
# Mechanical properties :
#
#
# Convention : Reuss Voigt Hill
#
# Bulk Modulus (GPa) = 73.20136 85.10867 79.15502
# Shear Modulus (GPa) = 36.11474 41.99104 39.05289
#
# Velocity S-wave (km/s) = 3.75409 4.04801 3.90382
# Velocity P-wave (km/s) = 6.88162 7.42030 7.15603
#
# Compressibility (1/GPa) = 0.01366095
#
# Stress axis : x y z
#
# Youngs Moduli (GPa) = 213.42728 76.58547 83.36952
#
# Poissons Ratio (x) = 0.19751 0.05207
# Poissons Ratio (y) = 0.55043 0.40307
# Poissons Ratio (z) = 0.13330 0.37027
#
# Static dielectric constant tensor:
#      x y z
#    x 2.008160 0.000000 0.000000 
#    y 0.000000 2.200140 0.000000 
#    z 0.000000 0.000000 2.086620 
# 
# From -- ./inp_files/9666.got.cif
#   From: 2010.05.17/outbox.cif.g08.bks.cpg/sg52_5_cif.got.tgz:9666.got - 2010.06.03 12:15:38.
