data_PCOD9413871
_publ_section_title
;
Structure prediction by ZEFSAII (Michael W. Deem and Ramdas Pophale) SiO2 
 PCOD9413871
Probable space group: P N N A
;
_chemical_formula_sum "Si O2"
_cell_formula_units_Z 32
_cell_length_a 19.301704
_cell_length_b 5.439445
_cell_length_c 12.894210
_cell_angle_alpha 90.000000
_cell_angle_beta 90.000000
_cell_angle_gamma 90.000000
_cell_volume 1353.770294
_symmetry_space_group_name_H-M "P N N A"
_symmetry_group_IT_number 52
_symmetry_cell_setting 'orthorhombic'
loop_
_space_group_symop_operation_xyz
x,y,z
1/2-x,-y,z
x,1/2-y,1/2-z
1/2-x,1/2+y,1/2-z
-x,-y,-z
1/2+x,y,-z
-x,1/2+y,1/2+z
1/2+x,1/2-y,1/2+z
loop_
_atom_site_type_symbol
_atom_site_label
_atom_site_fract_x
_atom_site_fract_y
_atom_site_fract_z
Si Si1 0.559329 0.568698 0.579215
Si Si2 0.250000 0.500000 0.128478
Si Si3 0.974769 0.750000 0.250000
Si Si4 0.130666 0.250000 0.250000
Si Si5 0.384713 0.250000 0.750000
Si Si6 0.195056 0.684008 0.551740
O O1 0.500000 0.500000 0.500000
O O2 0.525489 0.780644 0.650861
O O3 0.583650 0.365534 0.661435
O O4 0.626124 0.611495 0.509538
O O5 0.183577 0.448479 0.199419
O O6 0.239556 0.713849 0.045019
O O7 0.930151 0.499939 0.267976
O O8 0.337385 0.178822 0.650762
O O9 0.250000 0.500000 0.601613
#
# Coordination Sequence:
#
# PCOD9413871 Si02
#       6
#     8   4   4   4   4   8
#     4  12  26  49  80 112 161 203 267 328 399 475
#     4  12  26  48  84 108 162 204 270 340 398 470
#     4  12  28  54  80 122 154 220 260 336 398 478
#     4  12  25  49  78 125 153 214 270 338 401 479
#     4  12  31  49  86 115 171 208 270 322 405 491
#     4  12  28  51  76 118 153 213 262 332 403 477
#
# _framework density 23.637689999999999
#
# number of rings (size 3 to 8) (size 9 to 14) (size 15 to 20)
#    0.000    0.000    5.000    3.750    8.750    1.000 
#    0.000    0.000    0.000    0.000    0.000    0.000 
#    0.000    0.000    0.000    0.000    0.000    0.000 
#
# Total GULP energy -178644.274931 kJ/mol
# GULP energy per Si atom -5582.633592 kJ/mol
# Density = 2.358389 g / cm^3
# Si number density = 23.637690 Si / 1000 Ang^3
#
#
#
# Elastic Constant Matrix: (Units=GPa)
#
#
# Indices 1 2 3 4 5 6 
#
# 1 66.9197 0.1088 27.3351 0.0000 0.0000 0.0000
# 2 0.1088 55.3870 6.4652 0.0000 0.0000 0.0000
# 3 27.3351 6.4652 151.7214 0.0000 0.0000 0.0000
# 4 0.0000 0.0000 0.0000 36.0975 0.0000 0.0000
# 5 0.0000 0.0000 0.0000 0.0000 32.8570 0.0000
# 6 0.0000 0.0000 0.0000 0.0000 0.0000 12.0403
#
#
#
# Elastic Compliance Matrix: (Units=1/GPa)
#
#
# Indices 1 2 3 4 5 6 
#
# 1 0.016136 0.000309 -0.002920 0.000000 0.000000 0.000000
# 2 0.000309 0.018151 -0.000829 0.000000 0.000000 0.000000
# 3 -0.002920 -0.000829 0.007152 0.000000 0.000000 0.000000
# 4 0.000000 0.000000 0.000000 0.027703 0.000000 0.000000
# 5 0.000000 0.000000 0.000000 0.000000 0.030435 0.000000
# 6 0.000000 0.000000 0.000000 0.000000 0.000000 0.083054
#
#
# Mechanical properties :
#
#
# Convention : Reuss Voigt Hill
#
# Bulk Modulus (GPa) = 28.93637 37.98293 33.45965
# Shear Modulus (GPa) = 24.87177 32.20689 28.53933
#
# Velocity S-wave (km/s) = 3.24729 3.69524 3.47849
# Velocity P-wave (km/s) = 5.13109 5.85748 5.50628
#
# Compressibility (1/GPa) = 0.03455858
#
# Stress axis : x y z
#
# Youngs Moduli (GPa) = 61.97457 55.09356 139.81132
#
# Poissons Ratio (x) = -0.01703 0.40829
# Poissons Ratio (y) = -0.01916 0.11593
# Poissons Ratio (z) = 0.18098 0.04568
#
# Static dielectric constant tensor:
#      x y z
#    x 1.847740 0.000000 0.000000 
#    y 0.000000 2.017950 0.000000 
#    z 0.000000 0.000000 1.887790 
# 
# From -- ./inp_files/21287.got.cif
#   From: 2010.05.17/outbox.cif.g08.bks.cpg/sg52_11_cif.got.tgz:21287.got - 2010.06.03 12:15:38.
