data_PCOD9413958
_publ_section_title
;
Structure prediction by ZEFSAII (Michael W. Deem and Ramdas Pophale) SiO2 
 PCOD9413958
Probable space group: P N N A
;
_chemical_formula_sum "Si O2"
_cell_formula_units_Z 48
_cell_length_a 21.000000
_cell_length_b 15.000000
_cell_length_c 9.000000
_cell_angle_alpha 90.000000
_cell_angle_beta 90.000000
_cell_angle_gamma 90.000000
_cell_volume 2835.000000
_symmetry_space_group_name_H-M "P N N A"
_symmetry_group_IT_number 52
_symmetry_cell_setting 'orthorhombic'
loop_
_space_group_symop_operation_xyz
x,y,z
1/2-x,-y,z
x,1/2-y,1/2-z
1/2-x,1/2+y,1/2-z
-x,-y,-z
1/2+x,y,-z
-x,1/2+y,1/2+z
1/2+x,1/2-y,1/2+z
loop_
_atom_site_type_symbol
_atom_site_label
_atom_site_fract_x
_atom_site_fract_y
_atom_site_fract_z
Si Si1 0.189936 0.437970 0.062244
Si Si2 0.752848 0.596388 0.621692
Si Si3 0.391596 0.151650 0.176848
Si Si4 0.609452 0.768279 0.421910
Si Si5 0.937900 0.050880 0.557102
Si Si6 0.740726 0.234897 0.424169
O O1 0.250000 0.500000 0.019015
O O2 0.202121 0.414871 0.235680
O O3 0.124316 0.489041 0.036611
O O4 0.197271 0.346085 0.975368
O O5 0.750000 0.500000 0.544187
O O6 0.681385 0.618220 0.679251
O O7 0.773560 0.675769 0.515757
O O8 0.393183 0.250000 0.250000
O O9 0.434629 0.084142 0.270710
O O10 0.409500 0.178207 0.009805
O O11 0.603440 0.750000 0.250000
O O12 0.571943 0.856201 0.469757
O O13 0.684511 0.785600 0.456910
O O14 0.000000 0.000000 0.500000
O O15 0.734971 0.250000 0.250000
#
# Coordination Sequence:
#
# PCOD9413958 Si02
#       6
#     8   8   8   8   8   8
#     4  11  18  34  56  79 108 141 187 232 277 330
#     4  10  17  30  56  83 109 140 191 226 273 329
#     4   9  16  32  56  79 106 146 186 223 268 333
#     4   9  18  35  57  80 108 148 190 221 274 348
#     4  11  21  35  55  83 109 145 190 233 278 334
#     4  10  20  33  52  85 117 143 178 235 291 327
#
# _framework density 16.931217
#
# number of rings (size 3 to 8) (size 9 to 14) (size 15 to 20)
#    0.000    2.000    5.000    2.500    0.000    0.667 
#    3.000    5.000    0.000    0.000    0.000    0.000 
#    0.000    0.000    0.000    0.000    0.000    0.000 
#
# Total GULP energy -267395.984289 kJ/mol
# GULP energy per Si atom -5570.749673 kJ/mol
# Density = 1.689268 g / cm^3
# Si number density = 16.931217 Si / 1000 Ang^3
#
#
#
# Elastic Constant Matrix: (Units=GPa)
#
#
# Indices 1 2 3 4 5 6 
#
# 1 89.3061 52.5875 36.2069 0.0000 0.0000 0.0000
# 2 52.5875 117.0141 43.3519 0.0000 0.0000 0.0000
# 3 36.2069 43.3519 77.3777 0.0000 0.0000 0.0000
# 4 0.0000 0.0000 0.0000 9.0570 0.0000 0.0000
# 5 0.0000 0.0000 0.0000 0.0000 9.8781 0.0000
# 6 0.0000 0.0000 0.0000 0.0000 0.0000 24.0736
#
#
#
# Elastic Compliance Matrix: (Units=1/GPa)
#
#
# Indices 1 2 3 4 5 6 
#
# 1 0.016364 -0.005700 -0.004463 0.000000 0.000000 0.000000
# 2 -0.005700 0.012770 -0.004487 0.000000 0.000000 0.000000
# 3 -0.004463 -0.004487 0.017526 0.000000 0.000000 0.000000
# 4 0.000000 0.000000 0.000000 0.110411 0.000000 0.000000
# 5 0.000000 0.000000 0.000000 0.000000 0.101234 0.000000
# 6 0.000000 0.000000 0.000000 0.000000 0.000000 0.041539
#
#
# Mechanical properties :
#
#
# Convention : Reuss Voigt Hill
#
# Bulk Modulus (GPa) = 57.60999 60.88783 59.24891
# Shear Modulus (GPa) = 14.92837 18.70519 16.81678
#
# Velocity S-wave (km/s) = 2.97258 3.32742 3.15499
# Velocity P-wave (km/s) = 6.77358 7.12757 6.95283
#
# Compressibility (1/GPa) = 0.01735810
#
# Stress axis : x y z
#
# Youngs Moduli (GPa) = 61.11122 78.30654 57.05757
#
# Poissons Ratio (x) = 0.44638 0.25466
# Poissons Ratio (y) = 0.34836 0.25604
# Poissons Ratio (z) = 0.27275 0.35139
#
# Static dielectric constant tensor:
#      x y z
#    x 1.548750 0.000000 0.000000 
#    y 0.000000 1.582460 0.000000 
#    z 0.000000 0.000000 1.633850 
# 
# From -- ./inp_files/13282.got.cif
#   From: 2010.05.17/outbox.ucp.g08.bks.cvg/sg52_7_cif.got.tgz:13282.got - 2010.06.11 16:30:12.
