data_PCOD9413228
_publ_section_title
;
Structure prediction by ZEFSAII (Michael W. Deem and Ramdas Pophale) SiO2 
 PCOD9413228
Probable space group: P N N A
;
_chemical_formula_sum "Si O2"
_cell_formula_units_Z 32
_cell_length_a 11.371419
_cell_length_b 7.640230
_cell_length_c 17.586100
_cell_angle_alpha 90.000000
_cell_angle_beta 90.000000
_cell_angle_gamma 90.000000
_cell_volume 1527.884880
_symmetry_space_group_name_H-M "P N N A"
_symmetry_group_IT_number 52
_symmetry_cell_setting 'orthorhombic'
loop_
_space_group_symop_operation_xyz
x,y,z
1/2-x,-y,z
x,1/2-y,1/2-z
1/2-x,1/2+y,1/2-z
-x,-y,-z
1/2+x,y,-z
-x,1/2+y,1/2+z
1/2+x,1/2-y,1/2+z
loop_
_atom_site_type_symbol
_atom_site_label
_atom_site_fract_x
_atom_site_fract_y
_atom_site_fract_z
Si Si1 0.068616 0.398524 0.852041
Si Si2 0.486916 0.543455 0.587468
Si Si3 0.830520 0.253386 0.339188
Si Si4 0.116611 0.045877 0.233753
O O1 0.015678 0.253614 0.906720
O O2 0.101334 0.592879 0.879722
O O3 0.194390 0.305583 0.835559
O O4 0.978627 0.434507 0.782527
O O5 0.500000 0.500000 0.500000
O O6 0.375634 0.432727 0.622696
O O7 0.589779 0.486353 0.645123
O O8 0.862840 0.250000 0.250000
O O9 0.103544 0.250000 0.250000
O O10 0.250000 0.000000 0.253944
#
# Coordination Sequence:
#
# PCOD9413228 Si02
#       4
#     8   8   8   8
#     4  11  23  41  72 100 131 178 230 289 343 397
#     4  12  25  42  66 101 146 182 225 284 351 416
#     4  11  22  40  70 103 134 169 235 291 337 409
#     4  12  24  46  70 100 138 186 240 284 350 430
#
# _framework density 20.943985000000001
#
# number of rings (size 3 to 8) (size 9 to 14) (size 15 to 20)
#    0.000    0.500    5.000    4.500    3.500    3.000 
#    0.000    0.000    0.000    0.000    0.000    0.000 
#    0.000    0.000    0.000    0.000    0.000    0.000 
#
# Total GULP energy -178408.838553 kJ/mol
# GULP energy per Si atom -5575.276205 kJ/mol
# Density = 2.089632 g / cm^3
# Si number density = 20.943985 Si / 1000 Ang^3
#
#
#
# Elastic Constant Matrix: (Units=GPa)
#
#
# Indices 1 2 3 4 5 6 
#
# 1 129.3531 29.4419 24.9760 0.0000 0.0000 0.0000
# 2 29.4419 160.6710 44.1081 0.0000 0.0000 0.0000
# 3 24.9760 44.1081 118.8878 0.0000 0.0000 0.0000
# 4 0.0000 0.0000 0.0000 16.0131 0.0000 0.0000
# 5 0.0000 0.0000 0.0000 0.0000 -1.8366 0.0000
# 6 0.0000 0.0000 0.0000 0.0000 0.0000 24.4747
#
#
#
# Elastic Compliance Matrix: (Units=1/GPa)
#
#
# Indices 1 2 3 4 5 6 
#
# 1 0.008245 -0.001153 -0.001304 0.000000 0.000000 0.000000
# 2 -0.001153 0.007091 -0.002389 0.000000 0.000000 0.000000
# 3 -0.001304 -0.002389 0.009572 0.000000 0.000000 0.000000
# 4 0.000000 0.000000 0.000000 0.062449 0.000000 0.000000
# 5 0.000000 0.000000 0.000000 0.000000 -0.544491 0.000000
# 6 0.000000 0.000000 0.000000 0.000000 0.000000 0.040858
#
#
# Mechanical properties :
#
#
# Convention : Reuss Voigt Hill
#
# Bulk Modulus (GPa) = 65.72094 67.32931 66.52513
# Shear Modulus (GPa) = -12.45290 28.42263 7.98487
#
# Velocity S-wave (km/s) = -2.44105 3.68785 1.95468
# Velocity P-wave (km/s) = 4.84794 7.09583 6.07673
#
# Compressibility (1/GPa) = 0.01521585
#
# Stress axis : x y z
#
# Youngs Moduli (GPa) = 121.28531 141.02667 104.47670
#
# Poissons Ratio (x) = 0.16257 0.13628
# Poissons Ratio (y) = 0.13981 0.24955
# Poissons Ratio (z) = 0.15821 0.33685
#
# Static dielectric constant tensor:
#      x y z
#    x 1.860760 0.000000 0.000000 
#    y 0.000000 1.808800 0.000000 
#    z 0.000000 0.000000 1.741230 
# 
# From -- ./inp_files/31882.got.cif
#   From: 2010.05.17/outbox.cif.g08.bks.cpg/sg52_16_cif.got.tgz:31882.got - 2010.06.03 12:15:38.
