data_PCOD9413898
_publ_section_title
;
Structure prediction by ZEFSAII (Michael W. Deem and Ramdas Pophale) SiO2 
 PCOD9413898
Probable space group: P N N A
;
_chemical_formula_sum "Si O2"
_cell_formula_units_Z 32
_cell_length_a 11.112200
_cell_length_b 7.251159
_cell_length_c 15.810771
_cell_angle_alpha 90.000000
_cell_angle_beta 90.000000
_cell_angle_gamma 90.000000
_cell_volume 1273.973886
_symmetry_space_group_name_H-M "P N N A"
_symmetry_group_IT_number 52
_symmetry_cell_setting 'orthorhombic'
loop_
_space_group_symop_operation_xyz
x,y,z
1/2-x,-y,z
x,1/2-y,1/2-z
1/2-x,1/2+y,1/2-z
-x,-y,-z
1/2+x,y,-z
-x,1/2+y,1/2+z
1/2+x,1/2-y,1/2+z
loop_
_atom_site_type_symbol
_atom_site_label
_atom_site_fract_x
_atom_site_fract_y
_atom_site_fract_z
Si Si1 0.667630 0.687511 0.387053
Si Si2 0.842423 0.330149 0.924999
Si Si3 0.846877 0.750000 0.250000
Si Si4 0.987367 0.550906 0.802237
Si Si5 0.750000 0.000000 0.805676
O O1 0.750000 0.500000 0.393504
O O2 0.642217 0.745428 0.482648
O O3 0.763491 0.795150 0.329298
O O4 0.544827 0.761101 0.338843
O O5 0.750000 0.500000 0.932575
O O6 0.961818 0.415529 0.882556
O O7 0.791631 0.170176 0.863886
O O8 0.926659 0.568720 0.258991
O O9 0.860197 0.553837 0.754923
#
# Coordination Sequence:
#
# PCOD9413898 Si02
#       5
#     8   8   4   8   4
#     4  12  28  51  80 122 168 226 290 356 426 510
#     4  12  26  50  84 121 170 220 286 358 429 509
#     4  12  26  50  80 116 164 216 284 356 428 500
#     4  12  26  53  83 121 172 222 285 356 430 509
#     4  12  26  54  84 128 168 228 286 350 438 518
#
# _framework density 25.118252999999999
#
# number of rings (size 3 to 8) (size 9 to 14) (size 15 to 20)
#    0.000    0.000    5.000    4.500    0.000    6.000 
#    0.000    3.750    0.000    0.000    0.000    0.000 
#    0.000    0.000    0.000    0.000    0.000    0.000 
#
# Total GULP energy -178833.422853 kJ/mol
# GULP energy per Si atom -5588.544464 kJ/mol
# Density = 2.506108 g / cm^3
# Si number density = 25.118253 Si / 1000 Ang^3
#
#
#
# Elastic Constant Matrix: (Units=GPa)
#
#
# Indices 1 2 3 4 5 6 
#
# 1 149.1003 55.7311 73.9358 0.0000 0.0000 0.0000
# 2 55.7311 198.2570 64.2647 0.0000 0.0000 0.0000
# 3 73.9358 64.2647 173.7114 0.0000 0.0000 0.0000
# 4 0.0000 0.0000 0.0000 15.3149 0.0000 0.0000
# 5 0.0000 0.0000 0.0000 0.0000 7.1645 0.0000
# 6 0.0000 0.0000 0.0000 0.0000 0.0000 28.4415
#
#
#
# Elastic Compliance Matrix: (Units=1/GPa)
#
#
# Indices 1 2 3 4 5 6 
#
# 1 0.008848 -0.001439 -0.003234 0.000000 0.000000 0.000000
# 2 -0.001439 0.005965 -0.001594 0.000000 0.000000 0.000000
# 3 -0.003234 -0.001594 0.007723 0.000000 0.000000 0.000000
# 4 0.000000 0.000000 0.000000 0.065296 0.000000 0.000000
# 5 0.000000 0.000000 0.000000 0.000000 0.139576 0.000000
# 6 0.000000 0.000000 0.000000 0.000000 0.000000 0.035160
#
#
# Mechanical properties :
#
#
# Convention : Reuss Voigt Hill
#
# Bulk Modulus (GPa) = 99.97795 100.99242 100.48519
# Shear Modulus (GPa) = 17.95740 31.99332 24.97536
#
# Velocity S-wave (km/s) = 2.67669 3.57278 3.15669
# Velocity P-wave (km/s) = 7.03151 7.57058 7.30602
#
# Compressibility (1/GPa) = 0.01000221
#
# Stress axis : x y z
#
# Youngs Moduli (GPa) = 113.01583 167.63588 129.48631
#
# Poissons Ratio (x) = 0.24125 0.41871
# Poissons Ratio (y) = 0.16264 0.20645
# Poissons Ratio (z) = 0.36545 0.26727
#
# Static dielectric constant tensor:
#      x y z
#    x 2.009290 0.000000 0.000000 
#    y 0.000000 2.072000 0.000000 
#    z 0.000000 0.000000 2.007000 
# 
# From -- ./inp_files/25524.got.cif
#   From: 2010.05.17/outbox.cif.g08.bks.cpg/sg52_13_cif.got.tgz:25524.got - 2010.06.03 12:15:38.
