data_PCOD9413165
_publ_section_title
;
Structure prediction by ZEFSAII (Michael W. Deem and Ramdas Pophale) SiO2 
 PCOD9413165
Probable space group: P N N A
;
_chemical_formula_sum "Si O2"
_cell_formula_units_Z 44
_cell_length_a 8.440007
_cell_length_b 15.532570
_cell_length_c 15.838329
_cell_angle_alpha 90.000000
_cell_angle_beta 90.000000
_cell_angle_gamma 90.000000
_cell_volume 2076.325733
_symmetry_space_group_name_H-M "P N N A"
_symmetry_group_IT_number 52
_symmetry_cell_setting 'orthorhombic'
loop_
_space_group_symop_operation_xyz
x,y,z
1/2-x,-y,z
x,1/2-y,1/2-z
1/2-x,1/2+y,1/2-z
-x,-y,-z
1/2+x,y,-z
-x,1/2+y,1/2+z
1/2+x,1/2-y,1/2+z
loop_
_atom_site_type_symbol
_atom_site_label
_atom_site_fract_x
_atom_site_fract_y
_atom_site_fract_z
Si Si1 0.026934 0.408408 0.588667
Si Si2 0.642182 0.687165 0.833666
Si Si3 0.180086 0.343788 0.758434
Si Si4 0.531679 0.568390 0.316111
Si Si5 0.750000 0.500000 0.791217
Si Si6 0.694802 0.166014 0.926737
O O1 0.078632 0.361872 0.674510
O O2 0.111113 0.355925 0.514485
O O3 0.074666 0.507833 0.603753
O O4 0.838510 0.401546 0.581087
O O5 0.667089 0.750000 0.750000
O O6 0.453527 0.663437 0.831164
O O7 0.726757 0.593897 0.833188
O O8 0.716326 0.743885 0.909144
O O9 0.254885 0.250000 0.750000
O O10 0.324965 0.409044 0.746178
O O11 0.405604 0.513215 0.264618
O O12 0.438269 0.648948 0.355414
#
# Coordination Sequence:
#
# PCOD9413165 Si02
#       6
#     8   8   8   8   4   8
#     4  12  23  41  63 100 138 184 229 286 356 421
#     4  11  21  44  65  93 141 188 233 291 348 414
#     4  11  23  40  64  93 136 184 232 279 347 419
#     4  12  22  38  63 100 137 181 232 289 352 420
#     4  12  22  38  72  98 134 182 238 290 348 412
#     4  12  24  42  64  98 148 188 219 292 360 424
#
# _framework density 21.191279000000002
#
# number of rings (size 3 to 8) (size 9 to 14) (size 15 to 20)
#    0.000    0.364    9.091    2.182    2.545    1.455 
#    0.000    0.000    0.000    1.091    4.727    0.000 
#    0.000    0.000    0.000    0.000    0.000    0.000 
#
# Total GULP energy -245281.642900 kJ/mol
# GULP energy per Si atom -5574.582793 kJ/mol
# Density = 2.114305 g / cm^3
# Si number density = 21.191279 Si / 1000 Ang^3
#
#
#
# Elastic Constant Matrix: (Units=GPa)
#
#
# Indices 1 2 3 4 5 6 
#
# 1 126.4764 59.8621 36.8754 0.0000 0.0000 0.0000
# 2 59.8621 140.3912 30.6397 0.0000 0.0000 0.0000
# 3 36.8754 30.6397 26.3074 0.0000 0.0000 0.0000
# 4 0.0000 0.0000 0.0000 18.1382 0.0000 0.0000
# 5 0.0000 0.0000 0.0000 0.0000 18.1094 0.0000
# 6 0.0000 0.0000 0.0000 0.0000 0.0000 46.7240
#
#
#
# Elastic Compliance Matrix: (Units=1/GPa)
#
#
# Indices 1 2 3 4 5 6 
#
# 1 0.013878 -0.002242 -0.016842 0.000000 0.000000 0.000000
# 2 -0.002242 0.009913 -0.008403 0.000000 0.000000 0.000000
# 3 -0.016842 -0.008403 0.071406 0.000000 0.000000 0.000000
# 4 0.000000 0.000000 0.000000 0.055132 0.000000 0.000000
# 5 0.000000 0.000000 0.000000 0.000000 0.055220 0.000000
# 6 0.000000 0.000000 0.000000 0.000000 0.000000 0.021402
#
#
# Mechanical properties :
#
#
# Convention : Reuss Voigt Hill
#
# Bulk Modulus (GPa) = 24.86087 60.88104 42.87096
# Shear Modulus (GPa) = 16.93005 27.64752 22.28878
#
# Velocity S-wave (km/s) = 2.82958 3.61593 3.24665
# Velocity P-wave (km/s) = 4.73629 6.79889 5.85907
#
# Compressibility (1/GPa) = 0.04022386
#
# Stress axis : x y z
#
# Youngs Moduli (GPa) = 72.05539 100.88052 14.00436
#
# Poissons Ratio (x) = 0.22616 0.23586
# Poissons Ratio (y) = 0.16154 0.11767
# Poissons Ratio (z) = 1.21357 0.84766
#
# Static dielectric constant tensor:
#      x y z
#    x 1.824650 0.000000 0.000000 
#    y 0.000000 1.919460 0.000000 
#    z 0.000000 0.000000 1.797320 
# 
# From -- ./inp_files/31179.got.cif
#   From: 2010.05.17/outbox.cif.g08.bks.cpg/sg52_16_cif.got.tgz:31179.got - 2010.06.03 12:15:38.
