data_PCOD9413073
_publ_section_title
;
Structure prediction by ZEFSAII (Michael W. Deem and Ramdas Pophale) SiO2 
 PCOD9413073
Probable space group: P N N A
;
_chemical_formula_sum "Si O2"
_cell_formula_units_Z 36
_cell_length_a 21.848289
_cell_length_b 8.194397
_cell_length_c 8.662946
_cell_angle_alpha 90.000000
_cell_angle_beta 90.000000
_cell_angle_gamma 90.000000
_cell_volume 1550.958009
_symmetry_space_group_name_H-M "P N N A"
_symmetry_group_IT_number 52
_symmetry_cell_setting 'orthorhombic'
loop_
_space_group_symop_operation_xyz
x,y,z
1/2-x,-y,z
x,1/2-y,1/2-z
1/2-x,1/2+y,1/2-z
-x,-y,-z
1/2+x,y,-z
-x,1/2+y,1/2+z
1/2+x,1/2-y,1/2+z
loop_
_atom_site_type_symbol
_atom_site_label
_atom_site_fract_x
_atom_site_fract_y
_atom_site_fract_z
Si Si1 0.341828 0.750000 0.250000
Si Si2 0.147085 0.750000 0.250000
Si Si3 0.260128 0.175016 0.484836
Si Si4 0.070684 0.067635 0.801755
Si Si5 0.154456 0.750000 0.750000
Si Si6 0.435680 0.498821 0.343513
O O1 0.298704 0.745439 0.402575
O O2 0.388880 0.601266 0.241735
O O3 0.194462 0.861958 0.341765
O O4 0.100212 0.669903 0.368410
O O5 0.299435 0.275904 0.605724
O O6 0.250000 0.000000 0.561547
O O7 0.089532 0.250000 0.750000
O O8 0.112937 0.915862 0.746104
O O9 0.062988 0.077216 0.987952
O O10 0.000062 0.025718 0.759954
#
# Coordination Sequence:
#
# PCOD9413073 Si02
#       6
#     4   4   8   8   4   8
#     4  11  25  44  74 102 131 196 245 296 362 439
#     4  11  20  46  69  99 144 180 241 300 360 445
#     4  11  25  43  68 100 140 190 241 298 364 427
#     4  11  26  45  74 111 151 190 236 308 382 442
#     4  12  27  48  67 109 149 190 240 304 368 442
#     4  11  23  46  73 107 143 189 244 305 370 447
#
# _framework density 23.211459000000001
#
# number of rings (size 3 to 8) (size 9 to 14) (size 15 to 20)
#    0.000    0.889    5.556    0.667    3.111    1.778 
#    0.000    4.444    0.000    0.000    0.000    0.000 
#    0.000    0.000    0.000    0.000    0.000    0.000 
#
# Total GULP energy -200619.764669 kJ/mol
# GULP energy per Si atom -5572.771241 kJ/mol
# Density = 2.315863 g / cm^3
# Si number density = 23.211459 Si / 1000 Ang^3
#
#
#
# Elastic Constant Matrix: (Units=GPa)
#
#
# Indices 1 2 3 4 5 6 
#
# 1 148.0915 47.6438 17.7748 0.0000 0.0000 0.0000
# 2 47.6438 98.4622 6.9479 0.0000 0.0000 0.0000
# 3 17.7748 6.9479 36.3293 0.0000 0.0000 0.0000
# 4 0.0000 0.0000 0.0000 25.3249 0.0000 0.0000
# 5 0.0000 0.0000 0.0000 0.0000 -5.2484 0.0000
# 6 0.0000 0.0000 0.0000 0.0000 0.0000 26.3551
#
#
#
# Elastic Compliance Matrix: (Units=1/GPa)
#
#
# Indices 1 2 3 4 5 6 
#
# 1 0.008386 -0.003820 -0.003373 0.000000 0.000000 0.000000
# 2 -0.003820 0.012035 -0.000433 0.000000 0.000000 0.000000
# 3 -0.003373 -0.000433 0.029259 0.000000 0.000000 0.000000
# 4 0.000000 0.000000 0.000000 0.039487 0.000000 0.000000
# 5 0.000000 0.000000 0.000000 0.000000 -0.190533 0.000000
# 6 0.000000 0.000000 0.000000 0.000000 0.000000 0.037943
#
#
# Mechanical properties :
#
#
# Convention : Reuss Voigt Hill
#
# Bulk Modulus (GPa) = 29.04463 47.51287 38.27875
# Shear Modulus (GPa) = -136.25568 23.32074 -56.46747
#
# Velocity S-wave (km/s) = -7.67003 3.17315 -4.93763
# Velocity P-wave (km/s) = 8.11781 5.82574 3.99748
#
# Compressibility (1/GPa) = 0.03442977
#
# Stress axis : x y z
#
# Youngs Moduli (GPa) = 119.24148 83.09009 34.17767
#
# Poissons Ratio (x) = 0.31740 0.11527
# Poissons Ratio (y) = 0.45550 0.01479
# Poissons Ratio (z) = 0.40216 0.03595
#
# Static dielectric constant tensor:
#      x y z
#    x 1.874930 0.000000 0.000000 
#    y 0.000000 2.086970 0.000000 
#    z 0.000000 0.000000 1.973900 
# 
# From -- ./inp_files/12986.got.cif
#   From: 2010.05.17/outbox.cif.g08.bks.cpg/sg52_7_cif.got.tgz:12986.got - 2010.06.03 12:15:38.
