data_PCOD9413895
_publ_section_title
;
Structure prediction by ZEFSAII (Michael W. Deem and Ramdas Pophale) SiO2 
 PCOD9413895
Probable space group: P N N A
;
_chemical_formula_sum "Si O2"
_cell_formula_units_Z 36
_cell_length_a 9.564179
_cell_length_b 18.536393
_cell_length_c 7.963408
_cell_angle_alpha 90.000000
_cell_angle_beta 90.000000
_cell_angle_gamma 90.000000
_cell_volume 1411.795819
_symmetry_space_group_name_H-M "P N N A"
_symmetry_group_IT_number 52
_symmetry_cell_setting 'orthorhombic'
loop_
_space_group_symop_operation_xyz
x,y,z
1/2-x,-y,z
x,1/2-y,1/2-z
1/2-x,1/2+y,1/2-z
-x,-y,-z
1/2+x,y,-z
-x,1/2+y,1/2+z
1/2+x,1/2-y,1/2+z
loop_
_atom_site_type_symbol
_atom_site_label
_atom_site_fract_x
_atom_site_fract_y
_atom_site_fract_z
Si Si1 0.664997 0.135420 0.049755
Si Si2 0.783471 0.919549 0.703129
Si Si3 0.446728 0.110691 0.530079
Si Si4 0.750000 0.500000 0.239215
Si Si5 0.592977 0.732081 0.564798
O O1 0.638032 0.117928 0.854701
O O2 0.813554 0.175523 0.037819
O O3 0.671508 0.060481 0.149033
O O4 0.552394 0.193162 0.107044
O O5 0.629709 0.895549 0.649046
O O6 0.890988 0.909298 0.548870
O O7 0.750000 0.000000 0.755041
O O8 0.429440 0.196803 0.549498
O O9 0.361239 0.050893 0.638441
O O10 0.659186 0.750000 0.750000
#
# Coordination Sequence:
#
# PCOD9413895 Si02
#       5
#     8   8   8   4   8
#     4  12  29  51  80 117 160 208 265 337 407 479
#     4  12  26  49  78 111 155 201 264 326 393 474
#     4  12  28  48  80 115 153 210 267 330 401 487
#     4  12  30  48  84 120 160 210 274 338 408 482
#     4  12  29  51  82 116 161 211 269 331 410 484
#
# _framework density 25.499434999999998
#
# number of rings (size 3 to 8) (size 9 to 14) (size 15 to 20)
#    0.000    0.000    4.444    3.333    9.333    3.556 
#    0.000    0.000    0.000    0.000    0.000    0.000 
#    0.000    0.000    0.000    0.000    0.000    0.000 
#
# Total GULP energy -201234.139334 kJ/mol
# GULP energy per Si atom -5589.837204 kJ/mol
# Density = 2.544140 g / cm^3
# Si number density = 25.499435 Si / 1000 Ang^3
#
#
#
# Elastic Constant Matrix: (Units=GPa)
#
#
# Indices 1 2 3 4 5 6 
#
# 1 86.8177 50.3922 15.9114 0.0000 0.0000 0.0000
# 2 50.3922 196.9219 55.7054 0.0000 0.0000 0.0000
# 3 15.9114 55.7054 81.1607 0.0000 0.0000 0.0000
# 4 0.0000 0.0000 0.0000 36.7449 0.0000 0.0000
# 5 0.0000 0.0000 0.0000 0.0000 31.0058 0.0000
# 6 0.0000 0.0000 0.0000 0.0000 0.0000 40.8615
#
#
#
# Elastic Compliance Matrix: (Units=1/GPa)
#
#
# Indices 1 2 3 4 5 6 
#
# 1 0.013535 -0.003367 -0.000343 0.000000 0.000000 0.000000
# 2 -0.003367 0.007139 -0.004240 0.000000 0.000000 0.000000
# 3 -0.000343 -0.004240 0.015299 0.000000 0.000000 0.000000
# 4 0.000000 0.000000 0.000000 0.027215 0.000000 0.000000
# 5 0.000000 0.000000 0.000000 0.000000 0.032252 0.000000
# 6 0.000000 0.000000 0.000000 0.000000 0.000000 0.024473
#
#
# Mechanical properties :
#
#
# Convention : Reuss Voigt Hill
#
# Bulk Modulus (GPa) = 49.81542 67.65758 58.73650
# Shear Modulus (GPa) = 35.08698 37.91519 36.50108
#
# Velocity S-wave (km/s) = 3.71346 3.86022 3.78755
# Velocity P-wave (km/s) = 6.16155 6.81608 6.49706
#
# Compressibility (1/GPa) = 0.02007411
#
# Stress axis : x y z
#
# Youngs Moduli (GPa) = 73.88041 140.07369 65.36562
#
# Poissons Ratio (x) = 0.47159 0.02241
# Poissons Ratio (y) = 0.24874 0.27715
# Poissons Ratio (z) = 0.02533 0.59391
#
# Static dielectric constant tensor:
#      x y z
#    x 1.927900 0.000000 0.000000 
#    y 0.000000 2.090670 0.000000 
#    z 0.000000 0.000000 2.085070 
# 
# From -- ./inp_files/7323.got.cif
#   From: 2010.05.17/outbox.cif.g08.bks.cpg/sg52_4_cif.got.tgz:7323.got - 2010.06.03 12:15:38.
