data_PCOD9413133
_publ_section_title
;
Structure prediction by ZEFSAII (Michael W. Deem and Ramdas Pophale) SiO2 
 PCOD9413133
Probable space group: P N N A
;
_chemical_formula_sum "Si O2"
_cell_formula_units_Z 44
_cell_length_a 14.741524
_cell_length_b 16.474115
_cell_length_c 8.162690
_cell_angle_alpha 90.000000
_cell_angle_beta 90.000000
_cell_angle_gamma 90.000000
_cell_volume 1982.338339
_symmetry_space_group_name_H-M "P N N A"
_symmetry_group_IT_number 52
_symmetry_cell_setting 'orthorhombic'
loop_
_space_group_symop_operation_xyz
x,y,z
1/2-x,-y,z
x,1/2-y,1/2-z
1/2-x,1/2+y,1/2-z
-x,-y,-z
1/2+x,y,-z
-x,1/2+y,1/2+z
1/2+x,1/2-y,1/2+z
loop_
_atom_site_type_symbol
_atom_site_label
_atom_site_fract_x
_atom_site_fract_y
_atom_site_fract_z
Si Si1 0.505973 0.263660 0.047718
Si Si2 0.638936 0.373650 0.507343
Si Si3 0.580291 0.427287 0.146328
Si Si4 0.250000 0.000000 0.460035
Si Si5 0.608422 0.535700 0.719183
Si Si6 0.168886 0.801296 0.086175
O O1 0.505310 0.250000 0.250000
O O2 0.549451 0.351660 0.035480
O O3 0.401674 0.257206 0.992605
O O4 0.567108 0.197502 0.957652
O O5 0.615386 0.400690 0.324249
O O6 0.629764 0.453485 0.620728
O O7 0.738352 0.333927 0.512322
O O8 0.668208 0.465376 0.064532
O O9 0.486445 0.474400 0.185650
O O10 0.307085 0.056825 0.337659
O O11 0.606689 0.617456 0.612018
O O12 0.191148 0.750000 0.250000
#
# Coordination Sequence:
#
# PCOD9413133 Si02
#       6
#     8   8   8   4   8   8
#     4   9  20  40  62  94 126 175 214 285 351 397
#     4  11  23  38  74 100 128 175 247 280 332 430
#     4  11  25  45  66 100 142 181 230 295 358 415
#     4  12  28  40  66  98 144 182 228 290 356 428
#     4  12  23  45  65 101 136 185 232 284 357 418
#     4  11  21  40  68  95 135 176 222 285 351 407
#
# _framework density 22.196007000000002
#
# number of rings (size 3 to 8) (size 9 to 14) (size 15 to 20)
#    0.000    1.091    7.273    1.091    5.091    0.000 
#    0.000    0.000    0.000    3.273    0.000    0.000 
#    0.000    0.000    0.000    0.000    0.000    0.000 
#
# Total GULP energy -245462.819058 kJ/mol
# GULP energy per Si atom -5578.700433 kJ/mol
# Density = 2.214549 g / cm^3
# Si number density = 22.196007 Si / 1000 Ang^3
#
#
#
# Elastic Constant Matrix: (Units=GPa)
#
#
# Indices 1 2 3 4 5 6 
#
# 1 199.3667 56.2441 37.3796 0.0000 0.0000 0.0000
# 2 56.2441 96.7316 24.1015 0.0000 0.0000 0.0000
# 3 37.3796 24.1015 32.9468 0.0000 0.0000 0.0000
# 4 0.0000 0.0000 0.0000 15.3821 0.0000 0.0000
# 5 0.0000 0.0000 0.0000 0.0000 31.5753 0.0000
# 6 0.0000 0.0000 0.0000 0.0000 0.0000 47.7545
#
#
#
# Elastic Compliance Matrix: (Units=1/GPa)
#
#
# Indices 1 2 3 4 5 6 
#
# 1 0.006831 -0.002496 -0.005924 0.000000 0.000000 0.000000
# 2 -0.002496 0.013554 -0.007084 0.000000 0.000000 0.000000
# 3 -0.005924 -0.007084 0.042255 0.000000 0.000000 0.000000
# 4 0.000000 0.000000 0.000000 0.065011 0.000000 0.000000
# 5 0.000000 0.000000 0.000000 0.000000 0.031670 0.000000
# 6 0.000000 0.000000 0.000000 0.000000 0.000000 0.020940
#
#
# Mechanical properties :
#
#
# Convention : Reuss Voigt Hill
#
# Bulk Modulus (GPa) = 31.61277 62.72174 47.16726
# Shear Modulus (GPa) = 22.54165 33.03038 27.78601
#
# Velocity S-wave (km/s) = 3.19026 3.86180 3.54198
# Velocity P-wave (km/s) = 5.27673 6.94292 6.16636
#
# Compressibility (1/GPa) = 0.03163278
#
# Stress axis : x y z
#
# Youngs Moduli (GPa) = 146.39927 73.77948 23.66589
#
# Poissons Ratio (x) = 0.18412 0.14020
# Poissons Ratio (y) = 0.36536 0.16764
# Poissons Ratio (z) = 0.86727 0.52263
#
# Static dielectric constant tensor:
#      x y z
#    x 1.814760 0.000000 0.000000 
#    y 0.000000 1.924080 0.000000 
#    z 0.000000 0.000000 1.861240 
# 
# From -- ./inp_files/10316.got.cif
#   From: 2010.05.17/outbox.cif.g08.bks.cpg/sg52_6_cif.got.tgz:10316.got - 2010.06.03 12:15:38.
