data_PCOD9413052
_publ_section_title
;
Structure prediction by ZEFSAII (Michael W. Deem and Ramdas Pophale) SiO2 
 PCOD9413052
Probable space group: P N N A
;
_chemical_formula_sum "Si O2"
_cell_formula_units_Z 40
_cell_length_a 14.342377
_cell_length_b 13.617710
_cell_length_c 8.348218
_cell_angle_alpha 90.000000
_cell_angle_beta 90.000000
_cell_angle_gamma 90.000000
_cell_volume 1630.493218
_symmetry_space_group_name_H-M "P N N A"
_symmetry_group_IT_number 52
_symmetry_cell_setting 'orthorhombic'
loop_
_space_group_symop_operation_xyz
x,y,z
1/2-x,-y,z
x,1/2-y,1/2-z
1/2-x,1/2+y,1/2-z
-x,-y,-z
1/2+x,y,-z
-x,1/2+y,1/2+z
1/2+x,1/2-y,1/2+z
loop_
_atom_site_type_symbol
_atom_site_label
_atom_site_fract_x
_atom_site_fract_y
_atom_site_fract_z
Si Si1 0.606768 0.917476 0.429697
Si Si2 0.401216 0.870708 0.560162
Si Si3 0.078084 0.162430 0.940425
Si Si4 0.153535 0.533231 0.591160
Si Si5 0.359502 0.277675 0.431381
O O1 0.509595 0.893280 0.517879
O O2 0.591803 0.928537 0.239254
O O3 0.663134 0.817879 0.462326
O O4 0.642979 0.024499 0.485734
O O5 0.396843 0.854088 0.752089
O O6 0.376598 0.762959 0.492104
O O7 0.968289 0.187036 0.946924
O O8 0.105079 0.055227 0.005274
O O9 0.250000 0.500000 0.671355
O O10 0.188583 0.623021 0.484422
O O11 0.342929 0.250000 0.250000
#
# Coordination Sequence:
#
# PCOD9413052 Si02
#       5
#     8   8   8   8   8
#     4   9  17  34  57  88 113 150 193 244 297 351
#     4   8  14  30  61  87 115 141 195 246 293 346
#     4   9  16  35  62  87 114 158 196 248 290 346
#     4  11  24  38  57  88 129 159 196 244 308 370
#     4  11  20  39  63  83 113 159 208 254 296 346
#
# _framework density 24.532456
#
# number of rings (size 3 to 8) (size 9 to 14) (size 15 to 20)
#    0.000    2.400    4.000    1.200    0.000    0.000 
#   14.400    1.000    0.000    0.000    0.000    0.000 
#    0.000    0.000    0.000    0.000    0.000    0.000 
#
# Total GULP energy -222931.065255 kJ/mol
# GULP energy per Si atom -5573.276631 kJ/mol
# Density = 2.447662 g / cm^3
# Si number density = 24.532456 Si / 1000 Ang^3
#
#
#
# Elastic Constant Matrix: (Units=GPa)
#
#
# Indices 1 2 3 4 5 6 
#
# 1 47.6266 9.6561 2.4566 0.0000 0.0000 0.0000
# 2 9.6561 262.4127 59.0879 0.0000 0.0000 0.0000
# 3 2.4566 59.0879 36.7972 0.0000 0.0000 0.0000
# 4 0.0000 0.0000 0.0000 23.7185 0.0000 0.0000
# 5 0.0000 0.0000 0.0000 0.0000 3.0862 0.0000
# 6 0.0000 0.0000 0.0000 0.0000 0.0000 19.5128
#
#
#
# Elastic Compliance Matrix: (Units=1/GPa)
#
#
# Indices 1 2 3 4 5 6 
#
# 1 0.021156 -0.000721 -0.000254 0.000000 0.000000 0.000000
# 2 -0.000721 0.005994 -0.009576 0.000000 0.000000 0.000000
# 3 -0.000254 -0.009576 0.042570 0.000000 0.000000 0.000000
# 4 0.000000 0.000000 0.000000 0.042161 0.000000 0.000000
# 5 0.000000 0.000000 0.000000 0.000000 0.324020 0.000000
# 6 0.000000 0.000000 0.000000 0.000000 0.000000 0.051248
#
#
# Mechanical properties :
#
#
# Convention : Reuss Voigt Hill
#
# Bulk Modulus (GPa) = 20.56921 54.35972 37.46447
# Shear Modulus (GPa) = 9.53364 27.63924 18.58644
#
# Velocity S-wave (km/s) = 1.97347 3.36019 2.75549
# Velocity P-wave (km/s) = 3.68720 6.10417 5.04263
#
# Compressibility (1/GPa) = 0.04861636
#
# Stress axis : x y z
#
# Youngs Moduli (GPa) = 47.26784 166.84397 23.49066
#
# Poissons Ratio (x) = 0.12033 0.00597
# Poissons Ratio (y) = 0.03409 0.22495
# Poissons Ratio (z) = 0.01202 1.59774
#
# Static dielectric constant tensor:
#      x y z
#    x 2.013760 0.000000 0.000000 
#    y 0.000000 2.187730 0.000000 
#    z 0.000000 0.000000 1.912300 
# 
# From -- ./inp_files/13133.got.cif
#   From: 2010.05.17/outbox.cif.g08.bks.cpg/sg52_7_cif.got.tgz:13133.got - 2010.06.03 12:15:38.
