data_PCOD9413715
_publ_section_title
;
Structure prediction by ZEFSAII (Michael W. Deem and Ramdas Pophale) SiO2 
 PCOD9413715
Probable space group: P N N A
;
_chemical_formula_sum "Si O2"
_cell_formula_units_Z 48
_cell_length_a 10.046041
_cell_length_b 17.490148
_cell_length_c 14.826695
_cell_angle_alpha 90.000000
_cell_angle_beta 90.000000
_cell_angle_gamma 90.000000
_cell_volume 2605.150301
_symmetry_space_group_name_H-M "P N N A"
_symmetry_group_IT_number 52
_symmetry_cell_setting 'orthorhombic'
loop_
_space_group_symop_operation_xyz
x,y,z
1/2-x,-y,z
x,1/2-y,1/2-z
1/2-x,1/2+y,1/2-z
-x,-y,-z
1/2+x,y,-z
-x,1/2+y,1/2+z
1/2+x,1/2-y,1/2+z
loop_
_atom_site_type_symbol
_atom_site_label
_atom_site_fract_x
_atom_site_fract_y
_atom_site_fract_z
Si Si1 0.246917 0.841036 0.435196
Si Si2 0.592792 0.983625 0.250000
Si Si3 0.663386 0.921307 0.750000
Si Si4 0.246916 0.841036 0.064803
Si Si5 0.472712 0.078832 0.554103
Si Si6 0.027287 0.921168 0.945897
O O1 0.200882 0.874587 0.338912
O O2 0.238221 0.750000 0.436431
O O3 0.151080 0.878851 0.509033
O O4 0.396315 0.869562 0.452238
O O5 0.556687 0.939492 0.341695
O O6 0.556686 0.939491 0.158305
O O7 0.750000 0.000000 0.250000
O O8 0.492320 0.056031 0.250000
O O9 0.700881 0.874587 0.838912
O O10 0.750000 0.000000 0.750000
O O11 0.396314 0.869562 0.047761
O O12 0.151079 0.878850 0.990966
O O13 0.500000 0.000000 0.500000
O O14 0.000000 0.000000 0.000000
#
# Coordination Sequence:
#
# PCOD9413715 Si02
#       6
#     8   8   8   8   8   8
#     4  12  25  42  65  99 135 174 218 282 341 387
#     4  12  24  40  68 102 124 167 233 274 323 387
#     4  12  21  44  69  96 125 173 229 267 326 409
#     4  12  25  42  65  99 135 174 218 282 341 387
#     4  12  23  43  69  95 133 176 227 274 324 410
#     4  12  23  43  69  95 133 176 227 274 324 410
#
# _framework density 18.425039999999999
#
# number of rings (size 3 to 8) (size 9 to 14) (size 15 to 20)
#    0.000    0.000    6.667    4.500    0.000    0.000 
#    0.000    2.500    0.000    0.000    0.000    0.000 
#    0.000    0.000    0.000    0.000    0.000    0.000 
#
# Total GULP energy -268627.361594 kJ/mol
# GULP energy per Si atom -5596.403367 kJ/mol
# Density = 1.838310 g / cm^3
# Si number density = 18.425040 Si / 1000 Ang^3
#
#
#
# Elastic Constant Matrix: (Units=GPa)
#
#
# Indices 1 2 3 4 5 6 
#
# 1 141.4690 38.8810 40.8360 0.0000 0.0000 0.0000
# 2 38.8810 143.6636 58.5157 0.0000 0.0000 0.0000
# 3 40.8360 58.5157 160.6048 0.0000 0.0000 0.0000
# 4 0.0000 0.0000 0.0000 29.2596 0.0000 0.0000
# 5 0.0000 0.0000 0.0000 0.0000 35.1390 0.0000
# 6 0.0000 0.0000 0.0000 0.0000 0.0000 31.5339
#
#
#
# Elastic Compliance Matrix: (Units=1/GPa)
#
#
# Indices 1 2 3 4 5 6 
#
# 1 0.007913 -0.001552 -0.001446 0.000000 0.000000 0.000000
# 2 -0.001552 0.008478 -0.002694 0.000000 0.000000 0.000000
# 3 -0.001446 -0.002694 0.007576 0.000000 0.000000 0.000000
# 4 0.000000 0.000000 0.000000 0.034177 0.000000 0.000000
# 5 0.000000 0.000000 0.000000 0.000000 0.028458 0.000000
# 6 0.000000 0.000000 0.000000 0.000000 0.000000 0.031712
#
#
# Mechanical properties :
#
#
# Convention : Reuss Voigt Hill
#
# Bulk Modulus (GPa) = 79.48567 80.24474 79.86521
# Shear Modulus (GPa) = 37.34301 39.68682 38.51492
#
# Velocity S-wave (km/s) = 4.50683 4.64611 4.57700
# Velocity P-wave (km/s) = 8.38545 8.51049 8.44820
#
# Compressibility (1/GPa) = 0.01258088
#
# Stress axis : x y z
#
# Youngs Moduli (GPa) = 126.37689 117.94870 131.99809
#
# Poissons Ratio (x) = 0.18311 0.19091
# Poissons Ratio (y) = 0.19619 0.35564
# Poissons Ratio (z) = 0.18278 0.31779
#
# Static dielectric constant tensor:
#      x y z
#    x 1.623220 0.000000 0.000000 
#    y 0.000000 1.592870 0.000000 
#    z 0.000000 0.000000 1.618200 
# 
# From -- ./inp_files/24696.got.cif
#   From: 2010.05.17/outbox.cif.g08.bks.cpg/sg52_13_cif.got.tgz:24696.got - 2010.06.03 12:15:38.
