data_PCOD9413424
_publ_section_title
;
Structure prediction by ZEFSAII (Michael W. Deem and Ramdas Pophale) SiO2 
 PCOD9413424
Probable space group: P N N A
;
_chemical_formula_sum "Si O2"
_cell_formula_units_Z 48
_cell_length_a 14.788610
_cell_length_b 10.616540
_cell_length_c 12.607006
_cell_angle_alpha 90.000000
_cell_angle_beta 90.000000
_cell_angle_gamma 90.000000
_cell_volume 1979.348726
_symmetry_space_group_name_H-M "P N N A"
_symmetry_group_IT_number 52
_symmetry_cell_setting 'orthorhombic'
loop_
_space_group_symop_operation_xyz
x,y,z
1/2-x,-y,z
x,1/2-y,1/2-z
1/2-x,1/2+y,1/2-z
-x,-y,-z
1/2+x,y,-z
-x,1/2+y,1/2+z
1/2+x,1/2-y,1/2+z
loop_
_atom_site_type_symbol
_atom_site_label
_atom_site_fract_x
_atom_site_fract_y
_atom_site_fract_z
Si Si1 0.780723 0.250000 0.250000
Si Si2 0.750000 0.000000 0.364016
Si Si3 0.097694 0.441002 0.007006
Si Si4 0.080549 0.573643 0.632281
Si Si5 0.373350 0.250000 0.250000
Si Si6 0.750000 0.500000 0.728099
Si Si7 0.974472 0.816290 0.069448
Si Si8 0.085795 0.396031 0.245297
O O1 0.731435 0.370861 0.198923
O O2 0.844023 0.327952 0.332539
O O3 0.833927 0.023977 0.440609
O O4 0.084886 0.304104 0.957653
O O5 0.124258 0.429458 0.130003
O O6 0.000000 0.500000 0.000000
O O7 0.024871 0.637628 0.537182
O O8 0.094305 0.429046 0.600502
O O9 0.011951 0.551015 0.731159
O O10 0.305394 0.370210 0.232322
O O11 0.444575 0.217988 0.153705
O O12 0.837113 0.562187 0.672676
O O13 0.072993 0.250000 0.250000
#
# Coordination Sequence:
#
# PCOD9413424 Si02
#       8
#     4   4   8   8   4   4   8   8
#     4  12  28  52  76 110 162 204 260 339 398 481
#     4  12  31  50  79 120 158 210 273 328 413 490
#     4  12  26  48  77 111 153 202 260 325 393 481
#     4  11  23  47  75 108 148 203 256 316 397 475
#     4  12  26  42  70 108 150 204 256 327 386 459
#     4  12  25  42  65 104 152 188 251 318 383 456
#     4  11  25  43  77 109 142 201 274 309 395 484
#     4  12  22  44  72 103 146 196 244 318 392 459
#
# _framework density 24.250401
#
# number of rings (size 3 to 8) (size 9 to 14) (size 15 to 20)
#    0.000    0.333    5.000    3.500    4.667    1.333 
#    0.000    0.833    0.000    0.000    0.000    0.000 
#    0.000    0.000    0.000    0.000    0.000    0.000 
#
# Total GULP energy -267672.007115 kJ/mol
# GULP energy per Si atom -5576.500148 kJ/mol
# Density = 2.419521 g / cm^3
# Si number density = 24.250401 Si / 1000 Ang^3
#
#
#
# Elastic Constant Matrix: (Units=GPa)
#
#
# Indices 1 2 3 4 5 6 
#
# 1 56.5123 2.0377 24.7581 0.0000 0.0000 0.0000
# 2 2.0377 154.7300 28.1819 0.0000 0.0000 0.0000
# 3 24.7581 28.1819 95.2753 0.0000 0.0000 0.0000
# 4 0.0000 0.0000 0.0000 19.8849 0.0000 0.0000
# 5 0.0000 0.0000 0.0000 0.0000 53.2394 0.0000
# 6 0.0000 0.0000 0.0000 0.0000 0.0000 41.9597
#
#
#
# Elastic Compliance Matrix: (Units=1/GPa)
#
#
# Indices 1 2 3 4 5 6 
#
# 1 0.020045 0.000724 -0.005423 0.000000 0.000000 0.000000
# 2 0.000724 0.006857 -0.002216 0.000000 0.000000 0.000000
# 3 -0.005423 -0.002216 0.012561 0.000000 0.000000 0.000000
# 4 0.000000 0.000000 0.000000 0.050289 0.000000 0.000000
# 5 0.000000 0.000000 0.000000 0.000000 0.018783 0.000000
# 6 0.000000 0.000000 0.000000 0.000000 0.000000 0.023832
#
#
# Mechanical properties :
#
#
# Convention : Reuss Voigt Hill
#
# Bulk Modulus (GPa) = 39.01438 46.27479 42.64458
# Shear Modulus (GPa) = 32.31178 39.78613 36.04896
#
# Velocity S-wave (km/s) = 3.65420 4.05487 3.85974
# Velocity P-wave (km/s) = 5.82471 6.40673 6.12264
#
# Compressibility (1/GPa) = 0.02563158
#
# Stress axis : x y z
#
# Youngs Moduli (GPa) = 49.88787 145.83607 79.61363
#
# Poissons Ratio (x) = -0.10555 0.43174
# Poissons Ratio (y) = -0.03611 0.17645
# Poissons Ratio (z) = 0.27054 0.32322
#
# Static dielectric constant tensor:
#      x y z
#    x 2.045690 0.000000 0.000000 
#    y 0.000000 1.775720 0.000000 
#    z 0.000000 0.000000 -0.348450 
# 
# From -- ./inp_files/27238.got.cif
#   From: 2010.05.17/outbox.cif.g08.bks.cpg/sg52_14_cif.got.tgz:27238.got - 2010.06.03 12:15:38.
