data_PCOD9413449
_publ_section_title
;
Structure prediction by ZEFSAII (Michael W. Deem and Ramdas Pophale) SiO2 
 PCOD9413449
Probable space group: P N N A
;
_chemical_formula_sum "Si O2"
_cell_formula_units_Z 64
_cell_length_a 12.069741
_cell_length_b 17.883143
_cell_length_c 15.355449
_cell_angle_alpha 90.000000
_cell_angle_beta 90.000000
_cell_angle_gamma 90.000000
_cell_volume 3314.395420
_symmetry_space_group_name_H-M "P N N A"
_symmetry_group_IT_number 52
_symmetry_cell_setting 'orthorhombic'
loop_
_space_group_symop_operation_xyz
x,y,z
1/2-x,-y,z
x,1/2-y,1/2-z
1/2-x,1/2+y,1/2-z
-x,-y,-z
1/2+x,y,-z
-x,1/2+y,1/2+z
1/2+x,1/2-y,1/2+z
loop_
_atom_site_type_symbol
_atom_site_label
_atom_site_fract_x
_atom_site_fract_y
_atom_site_fract_z
Si Si1 0.729889 0.180550 0.182403
Si Si2 0.998116 0.864706 0.407940
Si Si3 0.882689 0.585450 0.734444
Si Si4 0.764007 0.912505 0.340248
Si Si5 0.997996 0.688813 0.406649
Si Si6 0.976471 0.361922 0.105502
Si Si7 0.475216 0.186556 0.895265
Si Si8 0.878850 0.412438 0.735703
O O1 0.716700 0.250000 0.250000
O O2 0.714070 0.106008 0.239391
O O3 0.632799 0.184615 0.112637
O O4 0.851185 0.181777 0.142008
O O5 0.868349 0.879227 0.391047
O O6 0.026571 0.776741 0.401455
O O7 0.020875 0.889953 0.506342
O O8 0.066148 0.903418 0.330820
O O9 0.894006 0.498696 0.708381
O O10 0.752366 0.603304 0.740389
O O11 0.942756 0.596946 0.827424
O O12 0.944513 0.638482 0.665655
O O13 0.649385 0.871833 0.362775
O O14 0.750000 0.000000 0.356457
O O15 0.022609 0.661970 0.504211
O O16 0.061766 0.642532 0.332617
O O17 0.007435 0.274220 0.106830
#
# Coordination Sequence:
#
# PCOD9413449 Si02
#       8
#     8   8   8   8   8   8   8   8
#     4  12  20  42  68  93 131 166 213 274 311 374
#     4  11  24  42  65  97 127 168 218 266 322 388
#     4  11  25  44  63  92 133 171 209 263 325 386
#     4  12  24  40  66  95 127 169 213 264 328 385
#     4  11  24  41  69  97 127 167 217 269 321 379
#     4  11  24  42  65  97 127 168 218 266 322 388
#     4  11  24  41  69  97 127 167 217 269 321 379
#     4  11  25  44  63  92 133 171 209 263 325 386
#
# _framework density 19.309704
#
# number of rings (size 3 to 8) (size 9 to 14) (size 15 to 20)
#    0.000    0.750    5.000    1.500    3.500    4.500 
#    0.000    0.000    0.000    0.000    0.000    0.000 
#    0.000    0.000    0.000    0.000    0.000    0.000 
#
# Total GULP energy -357781.008792 kJ/mol
# GULP energy per Si atom -5590.328262 kJ/mol
# Density = 1.926575 g / cm^3
# Si number density = 19.309704 Si / 1000 Ang^3
#
#
#
# Elastic Constant Matrix: (Units=GPa)
#
#
# Indices 1 2 3 4 5 6 
#
# 1 86.4633 22.8854 15.6633 0.0000 0.0000 0.0000
# 2 22.8854 71.5111 29.4385 0.0000 0.0000 0.0000
# 3 15.6633 29.4385 94.5427 0.0000 0.0000 0.0000
# 4 0.0000 0.0000 0.0000 -1.5620 0.0000 0.0000
# 5 0.0000 0.0000 0.0000 0.0000 24.0156 0.0000
# 6 0.0000 0.0000 0.0000 0.0000 0.0000 23.7784
#
#
#
# Elastic Compliance Matrix: (Units=1/GPa)
#
#
# Indices 1 2 3 4 5 6 
#
# 1 0.012712 -0.003672 -0.000963 0.000000 0.000000 0.000000
# 2 -0.003672 0.017100 -0.004716 0.000000 0.000000 0.000000
# 3 -0.000963 -0.004716 0.012205 0.000000 0.000000 0.000000
# 4 0.000000 0.000000 0.000000 -0.640202 0.000000 0.000000
# 5 0.000000 0.000000 0.000000 0.000000 0.041640 0.000000
# 6 0.000000 0.000000 0.000000 0.000000 0.000000 0.042055
#
#
# Mechanical properties :
#
#
# Convention : Reuss Voigt Hill
#
# Bulk Modulus (GPa) = 42.88928 43.16570 43.02749
# Shear Modulus (GPa) = -10.24558 21.54839 5.65141
#
# Velocity S-wave (km/s) = -2.30596 3.34419 1.71262
# Velocity P-wave (km/s) = 3.89481 6.10855 5.12269
#
# Compressibility (1/GPa) = 0.02331585
#
# Stress axis : x y z
#
# Youngs Moduli (GPa) = 78.66668 58.47797 81.93161
#
# Poissons Ratio (x) = 0.21472 0.07888
# Poissons Ratio (y) = 0.28885 0.38642
# Poissons Ratio (z) = 0.07573 0.27580
#
# Static dielectric constant tensor:
#      x y z
#    x 1.646740 0.000000 0.000000 
#    y 0.000000 1.683340 0.000000 
#    z 0.000000 0.000000 1.660710 
# 
# From -- ./inp_files/26349.got.cif
#   From: 2010.05.17/outbox.cif.g08.bks.cpg/sg52_14_cif.got.tgz:26349.got - 2010.06.03 12:15:38.
