data_PCOD9413825
_publ_section_title
;
Structure prediction by ZEFSAII (Michael W. Deem and Ramdas Pophale) SiO2 
 PCOD9413825
Probable space group: P N N A
;
_chemical_formula_sum "Si O2"
_cell_formula_units_Z 20
_cell_length_a 15.150028
_cell_length_b 7.422282
_cell_length_c 7.402751
_cell_angle_alpha 90.000000
_cell_angle_beta 90.000000
_cell_angle_gamma 90.000000
_cell_volume 832.422917
_symmetry_space_group_name_H-M "P N N A"
_symmetry_group_IT_number 52
_symmetry_cell_setting 'orthorhombic'
loop_
_space_group_symop_operation_xyz
x,y,z
1/2-x,-y,z
x,1/2-y,1/2-z
1/2-x,1/2+y,1/2-z
-x,-y,-z
1/2+x,y,-z
-x,1/2+y,1/2+z
1/2+x,1/2-y,1/2+z
loop_
_atom_site_type_symbol
_atom_site_label
_atom_site_fract_x
_atom_site_fract_y
_atom_site_fract_z
Si Si1 0.864880 0.250000 0.250000
Si Si2 0.273909 0.711507 0.037071
Si Si3 0.943370 0.903401 0.148747
O O1 0.804816 0.300621 0.421790
O O2 0.917785 0.432877 0.218485
O O3 0.250000 0.500000 0.012614
O O4 0.275546 0.750000 0.250000
O O5 0.362256 0.791441 0.942760
O O6 0.997984 0.750000 0.250000
O O7 0.000000 0.000000 0.000000
#
# Coordination Sequence:
#
# PCOD9413825 Si02
#       3
#     4   8   8
#     4  12  24  52  82 108 158 206 276 322 388 486
#     4  12  24  47  83 114 148 207 274 317 386 490
#     4  12  28  49  77 117 165 209 258 341 413 468
#
# _framework density 24.026246
#
# number of rings (size 3 to 8) (size 9 to 14) (size 15 to 20)
#    0.000    0.000    6.000    3.600    2.800    6.400 
#    0.000    0.000    0.000    0.000    0.000    0.000 
#    0.000    0.000    0.000    0.000    0.000    0.000 
#
# Total GULP energy -111801.902035 kJ/mol
# GULP energy per Si atom -5590.095102 kJ/mol
# Density = 2.397156 g / cm^3
# Si number density = 24.026246 Si / 1000 Ang^3
#
#
#
# Elastic Constant Matrix: (Units=GPa)
#
#
# Indices 1 2 3 4 5 6 
#
# 1 48.1016 41.5677 8.8695 0.0000 0.0000 0.0000
# 2 41.5677 209.7307 24.2517 0.0000 0.0000 0.0000
# 3 8.8695 24.2517 110.6750 0.0000 0.0000 0.0000
# 4 0.0000 0.0000 0.0000 52.0113 0.0000 0.0000
# 5 0.0000 0.0000 0.0000 0.0000 -0.5474 0.0000
# 6 0.0000 0.0000 0.0000 0.0000 0.0000 22.1048
#
#
#
# Elastic Compliance Matrix: (Units=1/GPa)
#
#
# Indices 1 2 3 4 5 6 
#
# 1 0.025183 -0.004881 -0.000948 0.000000 0.000000 0.000000
# 2 -0.004881 0.005838 -0.000888 0.000000 0.000000 0.000000
# 3 -0.000948 -0.000888 0.009306 0.000000 0.000000 0.000000
# 4 0.000000 0.000000 0.000000 0.019227 0.000000 0.000000
# 5 0.000000 0.000000 0.000000 0.000000 -1.826773 0.000000
# 6 0.000000 0.000000 0.000000 0.000000 0.000000 0.045239
#
#
# Mechanical properties :
#
#
# Convention : Reuss Voigt Hill
#
# Bulk Modulus (GPa) = 37.18741 57.54280 47.36511
# Shear Modulus (GPa) = -2.94190 34.30163 15.67987
#
# Velocity S-wave (km/s) = -1.10775 3.78256 2.55740
# Velocity P-wave (km/s) = 3.72495 6.56345 5.33639
#
# Compressibility (1/GPa) = 0.02689082
#
# Stress axis : x y z
#
# Youngs Moduli (GPa) = 39.71007 171.28620 107.45665
#
# Poissons Ratio (x) = 0.83611 0.10192
# Poissons Ratio (y) = 0.19384 0.09543
# Poissons Ratio (z) = 0.03766 0.15212
#
# Static dielectric constant tensor:
#      x y z
#    x 1.972120 0.000000 0.000000 
#    y 0.000000 1.945300 0.000000 
#    z 0.000000 0.000000 1.969770 
# 
# From -- ./inp_files/2766.got.cif
#   From: 2010.05.17/outbox.cif.g08.bks.cpg/sg52_2_cif.got.tgz:2766.got - 2010.06.03 12:15:38.
