data_PCOD9413951
_publ_section_title
;
Structure prediction by ZEFSAII (Michael W. Deem and Ramdas Pophale) SiO2 
 PCOD9413951
Probable space group: P N N A
;
_chemical_formula_sum "Si O2"
_cell_formula_units_Z 24
_cell_length_a 8.501910
_cell_length_b 20.105759
_cell_length_c 5.622316
_cell_angle_alpha 90.000000
_cell_angle_beta 90.000000
_cell_angle_gamma 90.000000
_cell_volume 961.063818
_symmetry_space_group_name_H-M "P N N A"
_symmetry_group_IT_number 52
_symmetry_cell_setting 'orthorhombic'
loop_
_space_group_symop_operation_xyz
x,y,z
1/2-x,-y,z
x,1/2-y,1/2-z
1/2-x,1/2+y,1/2-z
-x,-y,-z
1/2+x,y,-z
-x,1/2+y,1/2+z
1/2+x,1/2-y,1/2+z
loop_
_atom_site_type_symbol
_atom_site_label
_atom_site_fract_x
_atom_site_fract_y
_atom_site_fract_z
Si Si1 0.849401 0.635834 0.782880
Si Si2 0.371600 0.451292 0.888166
Si Si3 0.208359 0.759645 0.003613
O O1 0.019585 0.603076 0.760361
O O2 0.833260 0.699403 0.959795
O O3 0.790662 0.669044 0.538577
O O4 0.727154 0.584460 0.902164
O O5 0.250000 0.500000 0.750820
O O6 0.500000 0.500000 0.000000
O O7 0.133176 0.750000 0.750000
O O8 0.112013 0.750000 0.250000
#
# Coordination Sequence:
#
# PCOD9413951 Si02
#       3
#     8   8   8
#     4   8  18  33  58  92 122 166 213 265 326 387
#     4   9  16  33  62  90 130 172 217 267 324 397
#     4   8  18  38  60  88 122 166 204 273 315 386
#
# _framework density 24.972328999999998
#
# number of rings (size 3 to 8) (size 9 to 14) (size 15 to 20)
#    2.000    1.333    0.000    0.000    0.000    0.000 
#   12.000    0.000    0.000   40.000    0.000    7.000 
#    0.000    0.000    0.000    0.000    0.000    0.000 
#
# Total GULP energy -133658.157376 kJ/mol
# GULP energy per Si atom -5569.089891 kJ/mol
# Density = 2.491549 g / cm^3
# Si number density = 24.972329 Si / 1000 Ang^3
#
#
#
# Elastic Constant Matrix: (Units=GPa)
#
#
# Indices 1 2 3 4 5 6 
#
# 1 142.3898 77.6686 39.3959 0.0000 0.0000 0.0000
# 2 77.6686 151.0587 23.1478 0.0000 0.0000 0.0000
# 3 39.3959 23.1478 143.0176 0.0000 0.0000 0.0000
# 4 0.0000 0.0000 0.0000 21.5510 0.0000 0.0000
# 5 0.0000 0.0000 0.0000 0.0000 27.5784 0.0000
# 6 0.0000 0.0000 0.0000 0.0000 0.0000 42.1503
#
#
#
# Elastic Compliance Matrix: (Units=1/GPa)
#
#
# Indices 1 2 3 4 5 6 
#
# 1 0.010305 -0.004987 -0.002032 0.000000 0.000000 0.000000
# 2 -0.004987 0.009202 -0.000116 0.000000 0.000000 0.000000
# 3 -0.002032 -0.000116 0.007570 0.000000 0.000000 0.000000
# 4 0.000000 0.000000 0.000000 0.046402 0.000000 0.000000
# 5 0.000000 0.000000 0.000000 0.000000 0.036260 0.000000
# 6 0.000000 0.000000 0.000000 0.000000 0.000000 0.023725
#
#
# Mechanical properties :
#
#
# Convention : Reuss Voigt Hill
#
# Bulk Modulus (GPa) = 78.07010 79.65450 78.86230
# Shear Modulus (GPa) = 32.89410 38.00620 35.45015
#
# Velocity S-wave (km/s) = 3.63329 3.90543 3.77182
# Velocity P-wave (km/s) = 6.99511 7.23207 7.11458
#
# Compressibility (1/GPa) = 0.01280900
#
# Stress axis : x y z
#
# Youngs Moduli (GPa) = 97.03559 108.67241 132.09241
#
# Poissons Ratio (x) = 0.54199 0.26835
# Poissons Ratio (y) = 0.48395 0.01526
# Poissons Ratio (z) = 0.19713 0.01255
#
# Static dielectric constant tensor:
#      x y z
#    x 1.940440 0.000000 0.000000 
#    y 0.000000 2.055680 0.000000 
#    z 0.000000 0.000000 1.959740 
# 
# From -- ./inp_files/286.got.cif
#   From: 2010.05.17/outbox.cif.g08.bks.cpg/sg52_1_cif.got.tgz:286.got - 2010.06.03 12:15:38.
