data_PCOD9413185
_publ_section_title
;
Structure prediction by ZEFSAII (Michael W. Deem and Ramdas Pophale) SiO2 
 PCOD9413185
Probable space group: P N N A
;
_chemical_formula_sum "Si O2"
_cell_formula_units_Z 64
_cell_length_a 17.072243
_cell_length_b 14.534983
_cell_length_c 12.584700
_cell_angle_alpha 90.000000
_cell_angle_beta 90.000000
_cell_angle_gamma 90.000000
_cell_volume 3122.827384
_symmetry_space_group_name_H-M "P N N A"
_symmetry_group_IT_number 52
_symmetry_cell_setting 'orthorhombic'
loop_
_space_group_symop_operation_xyz
x,y,z
1/2-x,-y,z
x,1/2-y,1/2-z
1/2-x,1/2+y,1/2-z
-x,-y,-z
1/2+x,y,-z
-x,1/2+y,1/2+z
1/2+x,1/2-y,1/2+z
loop_
_atom_site_type_symbol
_atom_site_label
_atom_site_fract_x
_atom_site_fract_y
_atom_site_fract_z
Si Si1 0.655368 0.012988 0.363645
Si Si2 0.341537 0.671041 0.015717
Si Si3 0.403664 0.336676 0.481783
Si Si4 0.362317 0.638499 0.246547
Si Si5 0.345807 0.365357 0.039361
Si Si6 0.157999 0.519745 0.626251
Si Si7 0.816935 0.138747 0.768399
Si Si8 0.582387 0.127605 0.970054
O O1 0.637161 0.113114 0.411485
O O2 0.626093 0.996320 0.244930
O O3 0.750000 0.000000 0.360288
O O4 0.630547 0.938239 0.450833
O O5 0.375979 0.621932 0.121846
O O6 0.246869 0.662527 0.028257
O O7 0.370245 0.776205 0.013686
O O8 0.393613 0.227604 0.475448
O O9 0.358999 0.378659 0.582903
O O10 0.364048 0.377513 0.375483
O O11 0.493921 0.360489 0.492876
O O12 0.364581 0.750000 0.250000
O O13 0.273505 0.609731 0.275696
O O14 0.414931 0.605276 0.343929
O O15 0.352810 0.401260 0.160190
O O16 0.250000 0.500000 0.627882
O O17 0.120385 0.450881 0.541364
O O18 0.816496 0.250000 0.750000
#
# Coordination Sequence:
#
# PCOD9413185 Si02
#       8
#     8   8   8   8   8   8   8   8
#     4   9  20  38  60  88 115 146 199 244 279 341
#     4   9  18  38  63  86 113 150 198 250 291 336
#     4  11  22  37  57  85 122 152 189 240 302 351
#     4   8  15  32  59  85 108 141 192 242 284 338
#     4   9  18  38  63  86 113 150 198 250 291 336
#     4  11  23  40  59  83 117 160 203 238 278 351
#     4   8  15  32  59  85 108 141 192 242 284 338
#     4  11  22  37  57  85 122 152 189 240 302 351
#
# _framework density 20.494247999999999
#
# number of rings (size 3 to 8) (size 9 to 14) (size 15 to 20)
#    0.000    2.500    0.000    4.125    0.000    2.000 
#   13.500    6.875    0.000    0.000    0.000    0.000 
#    0.000    0.000    0.000    0.000    0.000    0.000 
#
# Total GULP energy -357286.099191 kJ/mol
# GULP energy per Si atom -5582.595300 kJ/mol
# Density = 2.044760 g / cm^3
# Si number density = 20.494248 Si / 1000 Ang^3
#
#
#
# Elastic Constant Matrix: (Units=GPa)
#
#
# Indices 1 2 3 4 5 6 
#
# 1 29.7681 -15.4387 9.1662 0.0000 0.0000 0.0000
# 2 -15.4387 31.4011 2.4054 0.0000 0.0000 0.0000
# 3 9.1662 2.4054 128.4650 0.0000 0.0000 0.0000
# 4 0.0000 0.0000 0.0000 38.2786 0.0000 0.0000
# 5 0.0000 0.0000 0.0000 0.0000 3.9174 0.0000
# 6 0.0000 0.0000 0.0000 0.0000 0.0000 11.0733
#
#
#
# Elastic Compliance Matrix: (Units=1/GPa)
#
#
# Indices 1 2 3 4 5 6 
#
# 1 0.046855 0.023326 -0.003780 0.000000 0.000000 0.000000
# 2 0.023326 0.043505 -0.002479 0.000000 0.000000 0.000000
# 3 -0.003780 -0.002479 0.008100 0.000000 0.000000 0.000000
# 4 0.000000 0.000000 0.000000 0.026124 0.000000 0.000000
# 5 0.000000 0.000000 0.000000 0.000000 0.255273 0.000000
# 6 0.000000 0.000000 0.000000 0.000000 0.000000 0.090307
#
#
# Mechanical properties :
#
#
# Convention : Reuss Voigt Hill
#
# Bulk Modulus (GPa) = 7.54180 20.21109 13.87645
# Shear Modulus (GPa) = 10.41173 23.55395 16.98284
#
# Velocity S-wave (km/s) = 2.25640 3.39380 2.88177
# Velocity P-wave (km/s) = 3.23673 5.02399 4.22592
#
# Compressibility (1/GPa) = 0.13259432
#
# Stress axis : x y z
#
# Youngs Moduli (GPa) = 21.34259 22.98611 123.45168
#
# Poissons Ratio (x) = -0.53618 0.46664
# Poissons Ratio (y) = -0.49784 0.30603
# Poissons Ratio (z) = 0.08067 0.05698
#
# Static dielectric constant tensor:
#      x y z
#    x 1.711640 0.000000 0.000000 
#    y 0.000000 1.744760 0.000000 
#    z 0.000000 0.000000 1.746140 
# 
# From -- ./inp_files/20864.got.cif
#   From: 2010.05.17/outbox.cif.g08.bks.cpg/sg52_11_cif.got.tgz:20864.got - 2010.06.03 12:15:38.
