data_PCOD9413796
_publ_section_title
;
Structure prediction by ZEFSAII (Michael W. Deem and Ramdas Pophale) SiO2 
 PCOD9413796
Probable space group: P N N A
;
_chemical_formula_sum "Si O2"
_cell_formula_units_Z 32
_cell_length_a 12.885164
_cell_length_b 19.912630
_cell_length_c 5.023614
_cell_angle_alpha 90.000000
_cell_angle_beta 90.000000
_cell_angle_gamma 90.000000
_cell_volume 1288.946337
_symmetry_space_group_name_H-M "P N N A"
_symmetry_group_IT_number 52
_symmetry_cell_setting 'orthorhombic'
loop_
_space_group_symop_operation_xyz
x,y,z
1/2-x,-y,z
x,1/2-y,1/2-z
1/2-x,1/2+y,1/2-z
-x,-y,-z
1/2+x,y,-z
-x,1/2+y,1/2+z
1/2+x,1/2-y,1/2+z
loop_
_atom_site_type_symbol
_atom_site_label
_atom_site_fract_x
_atom_site_fract_y
_atom_site_fract_z
Si Si1 0.750000 0.000000 0.079521
Si Si2 0.197516 0.349702 0.520611
Si Si3 0.539786 0.960436 0.255008
Si Si4 0.374916 0.250000 0.750000
Si Si5 0.441960 0.673126 0.043801
O O1 0.714061 0.070565 0.945534
O O2 0.838526 0.031331 0.258620
O O3 0.298064 0.307792 0.628419
O O4 0.152373 0.316918 0.252609
O O5 0.112100 0.343585 0.761052
O O6 0.499706 0.887023 0.301395
O O7 0.500000 0.000000 0.500000
O O8 0.500000 0.000000 0.000000
O O9 0.461126 0.275495 0.965787
#
# Coordination Sequence:
#
# PCOD9413796 Si02
#       5
#     4   8   8   4   8
#     4  12  24  46  74 108 140 184 238 288 356 416
#     4  12  28  46  75 106 139 188 238 290 353 423
#     4  12  24  44  71 104 139 181 226 289 353 414
#     4  12  28  50  72 102 140 196 234 292 354 426
#     4  12  26  48  69 103 144 181 236 292 349 419
#
# _framework density 24.826481000000001
#
# number of rings (size 3 to 8) (size 9 to 14) (size 15 to 20)
#    0.000    0.000    7.500    1.500    0.000    8.000 
#    0.000    0.000    0.000    0.000    0.000    0.000 
#    0.000    0.000    0.000    0.000    0.000    0.000 
#
# Total GULP energy -178554.402430 kJ/mol
# GULP energy per Si atom -5579.825076 kJ/mol
# Density = 2.476998 g / cm^3
# Si number density = 24.826481 Si / 1000 Ang^3
#
#
#
# Elastic Constant Matrix: (Units=GPa)
#
#
# Indices 1 2 3 4 5 6 
#
# 1 99.3509 26.7995 -2.6177 0.0000 0.0000 0.0000
# 2 26.7995 170.9882 11.8637 0.0000 0.0000 0.0000
# 3 -2.6177 11.8637 119.0313 0.0000 0.0000 0.0000
# 4 0.0000 0.0000 0.0000 3.6445 0.0000 0.0000
# 5 0.0000 0.0000 0.0000 0.0000 -9.6266 0.0000
# 6 0.0000 0.0000 0.0000 0.0000 0.0000 58.9916
#
#
#
# Elastic Compliance Matrix: (Units=1/GPa)
#
#
# Indices 1 2 3 4 5 6 
#
# 1 0.010528 -0.001678 0.000399 0.000000 0.000000 0.000000
# 2 -0.001678 0.006156 -0.000651 0.000000 0.000000 0.000000
# 3 0.000399 -0.000651 0.008475 0.000000 0.000000 0.000000
# 4 0.000000 0.000000 0.000000 0.274388 0.000000 0.000000
# 5 0.000000 0.000000 0.000000 0.000000 -0.103879 0.000000
# 6 0.000000 0.000000 0.000000 0.000000 0.000000 0.016952
#
#
# Mechanical properties :
#
#
# Convention : Reuss Voigt Hill
#
# Bulk Modulus (GPa) = 46.94722 51.27349 49.11036
# Shear Modulus (GPa) = 22.36334 34.15689 28.26012
#
# Velocity S-wave (km/s) = 3.00457 3.71324 3.37754
# Velocity P-wave (km/s) = 5.56666 6.25154 5.91901
#
# Compressibility (1/GPa) = 0.02130052
#
# Stress axis : x y z
#
# Youngs Moduli (GPa) = 94.98100 162.43100 117.99748
#
# Poissons Ratio (x) = 0.27253 -0.04705
# Poissons Ratio (y) = 0.15936 0.07676
# Poissons Ratio (z) = -0.03787 0.10566
#
# Static dielectric constant tensor:
#      x y z
#    x 2.044430 0.000000 0.000000 
#    y 0.000000 2.134950 0.000000 
#    z 0.000000 0.000000 1.899850 
# 
# From -- ./inp_files/1086.got.cif
#   From: 2010.05.17/outbox.cif.g08.bks.cpg/sg52_1_cif.got.tgz:1086.got - 2010.06.03 12:15:38.
