data_PCOD9413970
_publ_section_title
;
Structure prediction by ZEFSAII (Michael W. Deem and Ramdas Pophale) SiO2 
 PCOD9413970
Probable space group: P N N A
;
_chemical_formula_sum "Si O2"
_cell_formula_units_Z 60
_cell_length_a 9.000000
_cell_length_b 27.000000
_cell_length_c 12.000000
_cell_angle_alpha 90.000000
_cell_angle_beta 90.000000
_cell_angle_gamma 90.000000
_cell_volume 2916.000000
_symmetry_space_group_name_H-M "P N N A"
_symmetry_group_IT_number 52
_symmetry_cell_setting 'orthorhombic'
loop_
_space_group_symop_operation_xyz
x,y,z
1/2-x,-y,z
x,1/2-y,1/2-z
1/2-x,1/2+y,1/2-z
-x,-y,-z
1/2+x,y,-z
-x,1/2+y,1/2+z
1/2+x,1/2-y,1/2+z
loop_
_atom_site_type_symbol
_atom_site_label
_atom_site_fract_x
_atom_site_fract_y
_atom_site_fract_z
Si Si1 0.750000 0.000000 0.009654
Si Si2 0.383206 0.413068 0.646040
Si Si3 0.100868 0.719654 0.862602
Si Si4 0.866180 0.728798 0.481475
Si Si5 0.371845 0.101934 0.616197
Si Si6 0.126653 0.840675 0.061443
Si Si7 0.284321 0.921784 0.182414
Si Si8 0.691446 0.446290 0.929437
O O1 0.857290 0.033538 0.086842
O O2 0.695653 0.040765 0.921135
O O3 0.301575 0.414885 0.764929
O O4 0.350465 0.370082 0.556251
O O5 0.550380 0.400162 0.684392
O O6 0.065129 0.750000 0.750000
O O7 0.263087 0.739919 0.899150
O O8 0.097231 0.660255 0.863573
O O9 0.981136 0.737399 0.952944
O O10 0.967775 0.685135 0.429822
O O11 0.751732 0.701336 0.563975
O O12 0.517125 0.068211 0.584828
O O13 0.260889 0.093482 0.513621
O O14 0.160653 0.882015 0.151822
O O15 0.248897 0.943241 0.302628
O O16 0.750000 0.500000 0.970892
#
# Coordination Sequence:
#
# PCOD9413970 Si02
#       8
#     4   8   8   8   8   8   8   8
#     4  10  20  36  60 100 124 162 212 266 320 396
#     4  10  21  37  64  90 130 167 210 265 333 386
#     4  11  24  44  69  95 136 177 222 289 339 411
#     4  10  21  40  65  96 126 163 224 263 343 396
#     4  11  24  44  65  91 131 175 229 265 342 393
#     4  10  19  38  63  99 126 166 206 273 332 410
#     4  10  20  38  62  92 135 163 214 259 340 383
#     4  11  24  44  65  93 131 180 224 278 323 402
#
# _framework density 20.576132000000001
#
# number of rings (size 3 to 8) (size 9 to 14) (size 15 to 20)
#    0.000    1.600    2.000    3.200    2.800    0.000 
#    7.200    1.333    0.000    0.000    0.000    0.000 
#    0.000    0.000    0.000    0.000    0.000    0.000 
#
# Total GULP energy -334244.313966 kJ/mol
# GULP energy per Si atom -5570.738566 kJ/mol
# Density = 2.052930 g / cm^3
# Si number density = 20.576132 Si / 1000 Ang^3
#
#
#
# Elastic Constant Matrix: (Units=GPa)
#
#
# Indices 1 2 3 4 5 6 
#
# 1 64.1914 17.0589 5.6947 0.0000 0.0000 0.0000
# 2 17.0589 103.7067 18.9359 0.0000 0.0000 0.0000
# 3 5.6947 18.9359 79.0187 0.0000 0.0000 0.0000
# 4 0.0000 0.0000 0.0000 27.6065 0.0000 0.0000
# 5 0.0000 0.0000 0.0000 0.0000 17.0872 0.0000
# 6 0.0000 0.0000 0.0000 0.0000 0.0000 25.5852
#
#
#
# Elastic Compliance Matrix: (Units=1/GPa)
#
#
# Indices 1 2 3 4 5 6 
#
# 1 0.016314 -0.002582 -0.000557 0.000000 0.000000 0.000000
# 2 -0.002582 0.010492 -0.002328 0.000000 0.000000 0.000000
# 3 -0.000557 -0.002328 0.013253 0.000000 0.000000 0.000000
# 4 0.000000 0.000000 0.000000 0.036223 0.000000 0.000000
# 5 0.000000 0.000000 0.000000 0.000000 0.058523 0.000000
# 6 0.000000 0.000000 0.000000 0.000000 0.000000 0.039085
#
#
# Mechanical properties :
#
#
# Convention : Reuss Voigt Hill
#
# Bulk Modulus (GPa) = 34.33428 36.69952 35.51690
# Shear Modulus (GPa) = 25.70243 27.73760 26.72001
#
# Velocity S-wave (km/s) = 3.53815 3.67556 3.60751
# Velocity P-wave (km/s) = 5.78049 5.99063 5.88650
#
# Compressibility (1/GPa) = 0.02912541
#
# Stress axis : x y z
#
# Youngs Moduli (GPa) = 61.29732 95.30711 75.45279
#
# Poissons Ratio (x) = 0.24606 0.04203
# Poissons Ratio (y) = 0.15826 0.17568
# Poissons Ratio (z) = 0.03414 0.22190
#
# Static dielectric constant tensor:
#      x y z
#    x 1.771480 0.000000 0.000000 
#    y 0.000000 1.779190 0.000000 
#    z 0.000000 0.000000 1.775370 
# 
# From -- ./inp_files/17122.got.cif
#   From: 2010.05.17/outbox.ucp.g08.bks.cvg/sg52_9_cif.got.tgz:17122.got - 2010.06.11 16:30:12.
