data_PCOD9413855
_publ_section_title
;
Structure prediction by ZEFSAII (Michael W. Deem and Ramdas Pophale) SiO2 
 PCOD9413855
Probable space group: P N N A
;
_chemical_formula_sum "Si O2"
_cell_formula_units_Z 32
_cell_length_a 14.852733
_cell_length_b 11.393044
_cell_length_c 8.341079
_cell_angle_alpha 90.000000
_cell_angle_beta 90.000000
_cell_angle_gamma 90.000000
_cell_volume 1411.459377
_symmetry_space_group_name_H-M "P N N A"
_symmetry_group_IT_number 52
_symmetry_cell_setting 'orthorhombic'
loop_
_space_group_symop_operation_xyz
x,y,z
1/2-x,-y,z
x,1/2-y,1/2-z
1/2-x,1/2+y,1/2-z
-x,-y,-z
1/2+x,y,-z
-x,1/2+y,1/2+z
1/2+x,1/2-y,1/2+z
loop_
_atom_site_type_symbol
_atom_site_label
_atom_site_fract_x
_atom_site_fract_y
_atom_site_fract_z
Si Si1 0.797363 0.253607 0.434042
Si Si2 0.114285 0.228459 0.428378
Si Si3 0.095434 0.963068 0.423463
Si Si4 0.461738 0.119305 0.071322
O O1 0.768630 0.250000 0.250000
O O2 0.710221 0.287549 0.537954
O O3 0.844769 0.130961 0.482890
O O4 0.876741 0.344648 0.465079
O O5 0.077763 0.250000 0.250000
O O6 0.038963 0.280672 0.548277
O O7 0.139793 0.091165 0.427987
O O8 0.073399 0.907251 0.250051
O O9 0.000000 0.000000 0.500000
O O10 0.500000 0.000000 0.000000
#
# Coordination Sequence:
#
# PCOD9413855 Si02
#       4
#     8   8   8   8
#     4  12  28  47  70 109 150 193 251 302 365 441
#     4  12  26  49  76 109 148 191 244 308 373 439
#     4  12  25  46  78 104 145 193 245 301 371 436
#     4  12  25  48  77 106 150 194 239 306 373 441
#
# _framework density 22.671569999999999
#
# number of rings (size 3 to 8) (size 9 to 14) (size 15 to 20)
#    0.000    0.000    5.000    5.250    3.500    1.000 
#    4.500    0.000    0.000    0.000    0.000    0.000 
#    0.000    0.000    0.000    0.000    0.000    0.000 
#
# Total GULP energy -178967.287309 kJ/mol
# GULP energy per Si atom -5592.727728 kJ/mol
# Density = 2.261997 g / cm^3
# Si number density = 22.671570 Si / 1000 Ang^3
#
#
#
# Elastic Constant Matrix: (Units=GPa)
#
#
# Indices 1 2 3 4 5 6 
#
# 1 106.5214 -2.5097 1.7053 0.0000 0.0000 0.0000
# 2 -2.5097 91.6713 14.1323 0.0000 0.0000 0.0000
# 3 1.7053 14.1323 85.6987 0.0000 0.0000 0.0000
# 4 0.0000 0.0000 0.0000 38.7752 0.0000 0.0000
# 5 0.0000 0.0000 0.0000 0.0000 23.7365 0.0000
# 6 0.0000 0.0000 0.0000 0.0000 0.0000 23.2162
#
#
#
# Elastic Compliance Matrix: (Units=1/GPa)
#
#
# Indices 1 2 3 4 5 6 
#
# 1 0.009398 0.000294 -0.000235 0.000000 0.000000 0.000000
# 2 0.000294 0.011202 -0.001853 0.000000 0.000000 0.000000
# 3 -0.000235 -0.001853 0.011979 0.000000 0.000000 0.000000
# 4 0.000000 0.000000 0.000000 0.025790 0.000000 0.000000
# 5 0.000000 0.000000 0.000000 0.000000 0.042129 0.000000
# 6 0.000000 0.000000 0.000000 0.000000 0.000000 0.043073
#
#
# Mechanical properties :
#
#
# Convention : Reuss Voigt Hill
#
# Bulk Modulus (GPa) = 34.49491 34.50526 34.50009
# Shear Modulus (GPa) = 31.88261 35.18315 33.53288
#
# Velocity S-wave (km/s) = 3.75411 3.94364 3.85004
# Velocity P-wave (km/s) = 5.83431 5.99909 5.91727
#
# Compressibility (1/GPa) = 0.02898978
#
# Stress axis : x y z
#
# Youngs Moduli (GPa) = 106.40024 89.26764 83.47892
#
# Poissons Ratio (x) = -0.02621 0.01965
# Poissons Ratio (y) = -0.03124 0.15470
# Poissons Ratio (z) = 0.02505 0.16543
#
# Static dielectric constant tensor:
#      x y z
#    x 1.809290 0.000000 0.000000 
#    y 0.000000 1.947500 0.000000 
#    z 0.000000 0.000000 1.661470 
# 
# From -- ./inp_files/9556.got.cif
#   From: 2010.05.17/outbox.cif.g08.bks.cpg/sg52_5_cif.got.tgz:9556.got - 2010.06.03 12:15:38.
