data_PCOD9413766
_publ_section_title
;
Structure prediction by ZEFSAII (Michael W. Deem and Ramdas Pophale) SiO2 
 PCOD9413766
Probable space group: P N N A
;
_chemical_formula_sum "Si O2"
_cell_formula_units_Z 28
_cell_length_a 34.623380
_cell_length_b 5.079034
_cell_length_c 7.651227
_cell_angle_alpha 90.000000
_cell_angle_beta 90.000000
_cell_angle_gamma 90.000000
_cell_volume 1345.493702
_symmetry_space_group_name_H-M "P N N A"
_symmetry_group_IT_number 52
_symmetry_cell_setting 'orthorhombic'
loop_
_space_group_symop_operation_xyz
x,y,z
1/2-x,-y,z
x,1/2-y,1/2-z
1/2-x,1/2+y,1/2-z
-x,-y,-z
1/2+x,y,-z
-x,1/2+y,1/2+z
1/2+x,1/2-y,1/2+z
loop_
_atom_site_type_symbol
_atom_site_label
_atom_site_fract_x
_atom_site_fract_y
_atom_site_fract_z
Si Si1 0.884416 0.808495 0.454357
Si Si2 0.035921 0.491964 0.129517
Si Si3 0.165175 0.809748 0.050620
Si Si4 0.775090 0.250000 0.250000
O O1 0.889591 0.750000 0.250000
O O2 0.865632 0.549983 0.543975
O O3 0.924456 0.910262 0.534449
O O4 0.855045 0.047253 0.479363
O O5 0.040654 0.750000 0.250000
O O6 0.025973 0.250000 0.250000
O O7 0.000000 0.500000 0.000000
O O8 0.177262 0.750000 0.250000
O O9 0.199246 0.857010 0.911931
O O10 0.750000 0.500000 0.189307
#
# Coordination Sequence:
#
# PCOD9413766 Si02
#       4
#     8   8   8   4
#     4  12  23  44  70 100 137 184 232 295 346 413
#     4  12  26  44  66  99 140 185 239 294 359 416
#     4  12  25  45  72 104 138 182 236 283 349 420
#     4  12  26  46  72 104 146 178 228 292 354 422
#
# _framework density 20.810207999999999
#
# number of rings (size 3 to 8) (size 9 to 14) (size 15 to 20)
#    0.000    0.000    2.857    8.571    0.000    3.429 
#    0.000    0.000    0.000    0.000    0.000    0.000 
#    0.000    0.000    0.000    0.000    0.000    0.000 
#
# Total GULP energy -156709.162063 kJ/mol
# GULP energy per Si atom -5596.755788 kJ/mol
# Density = 2.076284 g / cm^3
# Si number density = 20.810208 Si / 1000 Ang^3
#
#
#
# Elastic Constant Matrix: (Units=GPa)
#
#
# Indices 1 2 3 4 5 6 
#
# 1 88.7155 22.1906 64.8582 0.0000 0.0000 0.0000
# 2 22.1906 142.4748 42.4366 0.0000 0.0000 0.0000
# 3 64.8582 42.4366 122.4124 0.0000 0.0000 0.0000
# 4 0.0000 0.0000 0.0000 41.1304 0.0000 0.0000
# 5 0.0000 0.0000 0.0000 0.0000 22.9600 0.0000
# 6 0.0000 0.0000 0.0000 0.0000 0.0000 42.5390
#
#
#
# Elastic Compliance Matrix: (Units=1/GPa)
#
#
# Indices 1 2 3 4 5 6 
#
# 1 0.018399 0.000042 -0.009763 0.000000 0.000000 0.000000
# 2 0.000042 0.007827 -0.002736 0.000000 0.000000 0.000000
# 3 -0.009763 -0.002736 0.014290 0.000000 0.000000 0.000000
# 4 0.000000 0.000000 0.000000 0.024313 0.000000 0.000000
# 5 0.000000 0.000000 0.000000 0.000000 0.043554 0.000000
# 6 0.000000 0.000000 0.000000 0.000000 0.000000 0.023508
#
#
# Mechanical properties :
#
#
# Convention : Reuss Voigt Hill
#
# Bulk Modulus (GPa) = 64.08934 68.06374 66.07654
# Shear Modulus (GPa) = 30.86318 36.26703 33.56510
#
# Velocity S-wave (km/s) = 3.85525 4.17916 4.02047
# Velocity P-wave (km/s) = 7.11908 7.48766 7.30569
#
# Compressibility (1/GPa) = 0.01560322
#
# Stress axis : x y z
#
# Youngs Moduli (GPa) = 54.35078 127.76178 69.97733
#
# Poissons Ratio (x) = -0.00540 0.68319
# Poissons Ratio (y) = -0.00230 0.19144
# Poissons Ratio (z) = 0.53063 0.34953
#
# Static dielectric constant tensor:
#      x y z
#    x 1.906320 0.000000 0.000000 
#    y 0.000000 1.710150 0.000000 
#    z 0.000000 0.000000 1.569150 
# 
# From -- ./inp_files/14622.got.cif
#   From: 2010.05.17/outbox.cif.g08.bks.cpg/sg52_8_cif.got.tgz:14622.got - 2010.06.03 12:15:38.
