data_PCOD9413055
_publ_section_title
;
Structure prediction by ZEFSAII (Michael W. Deem and Ramdas Pophale) SiO2 
 PCOD9413055
Probable space group: P N N A
;
_chemical_formula_sum "Si O2"
_cell_formula_units_Z 56
_cell_length_a 8.857248
_cell_length_b 19.189236
_cell_length_c 13.803246
_cell_angle_alpha 90.000000
_cell_angle_beta 90.000000
_cell_angle_gamma 90.000000
_cell_volume 2346.052449
_symmetry_space_group_name_H-M "P N N A"
_symmetry_group_IT_number 52
_symmetry_cell_setting 'orthorhombic'
loop_
_space_group_symop_operation_xyz
x,y,z
1/2-x,-y,z
x,1/2-y,1/2-z
1/2-x,1/2+y,1/2-z
-x,-y,-z
1/2+x,y,-z
-x,1/2+y,1/2+z
1/2+x,1/2-y,1/2+z
loop_
_atom_site_type_symbol
_atom_site_label
_atom_site_fract_x
_atom_site_fract_y
_atom_site_fract_z
Si Si1 0.221194 0.721933 0.093288
Si Si2 0.911311 0.095569 0.105626
Si Si3 0.791008 0.679939 0.274520
Si Si4 0.079350 0.975218 0.679458
Si Si5 0.738899 0.614182 0.584814
Si Si6 0.440985 0.328605 0.901108
Si Si7 0.417191 0.102667 0.274125
O O1 0.185194 0.804488 0.094361
O O2 0.401680 0.712120 0.099698
O O3 0.152200 0.669960 0.173679
O O4 0.153996 0.691061 0.994659
O O5 0.806665 0.162787 0.131697
O O6 0.081524 0.114370 0.080176
O O7 0.914136 0.050073 0.205550
O O8 0.834936 0.073237 0.005009
O O9 0.879446 0.750000 0.250000
O O10 0.666395 0.684198 0.190543
O O11 0.916298 0.621166 0.266779
O O12 0.958275 0.035948 0.662699
O O13 0.250000 0.000000 0.656031
O O14 0.030560 0.910567 0.613102
O O15 0.687915 0.581497 0.685733
#
# Coordination Sequence:
#
# PCOD9413055 Si02
#       7
#     8   8   8   8   8   8   8
#     4  12  25  44  69 108 139 177 232 285 349 409
#     4  11  25  43  70  97 139 183 223 288 337 401
#     4  11  20  39  66  96 130 179 222 280 346 397
#     4  11  25  51  68  98 140 182 240 272 337 419
#     4  12  25  44  69 108 139 177 232 285 349 409
#     4  11  25  43  70  97 139 183 223 288 337 401
#     4  12  25  43  70  98 141 182 226 284 336 407
#
# _framework density 23.869883999999999
#
# number of rings (size 3 to 8) (size 9 to 14) (size 15 to 20)
#    0.000    0.571    2.857    7.286    0.000    3.429 
#    0.000    0.000    0.000    0.000    0.000    0.000 
#    0.000    0.000    0.000    0.000    0.000    0.000 
#
# Total GULP energy -313062.982627 kJ/mol
# GULP energy per Si atom -5590.410404 kJ/mol
# Density = 2.381556 g / cm^3
# Si number density = 23.869884 Si / 1000 Ang^3
#
#
#
# Elastic Constant Matrix: (Units=GPa)
#
#
# Indices 1 2 3 4 5 6 
#
# 1 92.0009 20.4521 30.6297 0.0000 0.0000 0.0000
# 2 20.4521 80.3772 -17.8692 0.0000 0.0000 0.0000
# 3 30.6297 -17.8692 71.4209 0.0000 0.0000 0.0000
# 4 0.0000 0.0000 0.0000 35.6967 0.0000 0.0000
# 5 0.0000 0.0000 0.0000 0.0000 35.3591 0.0000
# 6 0.0000 0.0000 0.0000 0.0000 0.0000 37.4798
#
#
#
# Elastic Compliance Matrix: (Units=1/GPa)
#
#
# Indices 1 2 3 4 5 6 
#
# 1 0.014609 -0.005411 -0.007619 0.000000 0.000000 0.000000
# 2 -0.005411 0.015178 0.006118 0.000000 0.000000 0.000000
# 3 -0.007619 0.006118 0.018800 0.000000 0.000000 0.000000
# 4 0.000000 0.000000 0.000000 0.028014 0.000000 0.000000
# 5 0.000000 0.000000 0.000000 0.000000 0.028281 0.000000
# 6 0.000000 0.000000 0.000000 0.000000 0.000000 0.026681
#
#
# Mechanical properties :
#
#
# Convention : Reuss Voigt Hill
#
# Bulk Modulus (GPa) = 28.76612 34.46937 31.61774
# Shear Modulus (GPa) = 31.85220 35.74621 33.79920
#
# Velocity S-wave (km/s) = 3.65692 3.87401 3.76703
# Velocity P-wave (km/s) = 5.46883 5.87218 5.67409
#
# Compressibility (1/GPa) = 0.03476312
#
# Stress axis : x y z
#
# Youngs Moduli (GPa) = 68.45098 65.88315 53.19207
#
# Poissons Ratio (x) = 0.35650 0.40528
# Poissons Ratio (y) = 0.37040 -0.32544
# Poissons Ratio (z) = 0.52153 -0.40309
#
# Static dielectric constant tensor:
#      x y z
#    x 1.839050 0.000000 0.000000 
#    y 0.000000 2.053660 0.000000 
#    z 0.000000 0.000000 1.847980 
# 
# From -- ./inp_files/24966.got.cif
#   From: 2010.05.17/outbox.cif.g08.bks.cpg/sg52_13_cif.got.tgz:24966.got - 2010.06.03 12:15:38.
