data_PCOD9413935
_publ_section_title
;
Structure prediction by ZEFSAII (Michael W. Deem and Ramdas Pophale) SiO2 
 PCOD9413935
Probable space group: P N N A
;
_chemical_formula_sum "Si O2"
_cell_formula_units_Z 24
_cell_length_a 8.865920
_cell_length_b 8.766668
_cell_length_c 10.577507
_cell_angle_alpha 90.000000
_cell_angle_beta 90.000000
_cell_angle_gamma 90.000000
_cell_volume 822.132259
_symmetry_space_group_name_H-M "P N N A"
_symmetry_group_IT_number 52
_symmetry_cell_setting 'orthorhombic'
loop_
_space_group_symop_operation_xyz
x,y,z
1/2-x,-y,z
x,1/2-y,1/2-z
1/2-x,1/2+y,1/2-z
-x,-y,-z
1/2+x,y,-z
-x,1/2+y,1/2+z
1/2+x,1/2-y,1/2+z
loop_
_atom_site_type_symbol
_atom_site_label
_atom_site_fract_x
_atom_site_fract_y
_atom_site_fract_z
Si Si1 0.046386 0.750000 0.250000
Si Si2 0.227102 0.264186 0.455048
Si Si3 0.750000 0.500000 0.118482
Si Si4 0.940448 0.071177 0.157559
O O1 0.159132 0.813655 0.356031
O O2 0.398973 0.857167 0.121711
O O3 0.162937 0.124518 0.536610
O O4 0.538479 0.387755 0.321338
O O5 0.329940 0.369144 0.547367
O O6 0.636899 0.597387 0.206495
#
# Coordination Sequence:
#
# PCOD9413935 Si02
#       4
#     4   8   4   8
#     4  12  30  52  94 132 174 238 290 364 450 530
#     4  12  31  57  92 131 180 229 301 368 442 529
#     4  12  32  52  94 130 176 234 302 362 448 524
#     4  12  31  58  87 130 179 234 293 369 439 527
#
# _framework density 29.192381000000001
#
# number of rings (size 3 to 8) (size 9 to 14) (size 15 to 20)
#    0.000    0.000    0.000    5.000   23.333    2.667 
#    0.000    0.000    0.000    0.000    0.000    0.000 
#    0.000    0.000    0.000    0.000    0.000    0.000 
#
# Total GULP energy -134619.803710 kJ/mol
# GULP energy per Si atom -5609.158488 kJ/mol
# Density = 2.912594 g / cm^3
# Si number density = 29.192381 Si / 1000 Ang^3
#
#
#
# Elastic Constant Matrix: (Units=GPa)
#
#
# Indices 1 2 3 4 5 6 
#
# 1 183.0524 74.4838 69.0110 0.0000 0.0000 0.0000
# 2 74.4838 187.8820 82.3012 0.0000 0.0000 0.0000
# 3 69.0110 82.3012 157.2878 0.0000 0.0000 0.0000
# 4 0.0000 0.0000 0.0000 81.8058 0.0000 0.0000
# 5 0.0000 0.0000 0.0000 0.0000 28.2587 0.0000
# 6 0.0000 0.0000 0.0000 0.0000 0.0000 50.3413
#
#
#
# Elastic Compliance Matrix: (Units=1/GPa)
#
#
# Indices 1 2 3 4 5 6 
#
# 1 0.007012 -0.001858 -0.002104 0.000000 0.000000 0.000000
# 2 -0.001858 0.007398 -0.003056 0.000000 0.000000 0.000000
# 3 -0.002104 -0.003056 0.008880 0.000000 0.000000 0.000000
# 4 0.000000 0.000000 0.000000 0.012224 0.000000 0.000000
# 5 0.000000 0.000000 0.000000 0.000000 0.035387 0.000000
# 6 0.000000 0.000000 0.000000 0.000000 0.000000 0.019864
#
#
# Mechanical properties :
#
#
# Convention : Reuss Voigt Hill
#
# Bulk Modulus (GPa) = 108.06543 108.86824 108.46684
# Shear Modulus (GPa) = 46.34502 52.24293 49.29397
#
# Velocity S-wave (km/s) = 3.98876 4.23497 4.11370
# Velocity P-wave (km/s) = 7.63625 7.82864 7.73304
#
# Compressibility (1/GPa) = 0.00925365
#
# Stress axis : x y z
#
# Youngs Moduli (GPa) = 142.60526 135.17908 112.61350
#
# Poissons Ratio (x) = 0.25118 0.23699
# Poissons Ratio (y) = 0.26498 0.34410
# Poissons Ratio (z) = 0.30011 0.41305
#
# Static dielectric constant tensor:
#      x y z
#    x 2.205170 0.000000 0.000000 
#    y 0.000000 2.412890 0.000000 
#    z 0.000000 0.000000 2.328960 
# 
# From -- ./inp_files/17464.got.cif
#   From: 2010.05.17/outbox.cif.g08.bks.cpg/sg52_9_cif.got.tgz:17464.got - 2010.06.03 12:15:38.
