data_PCOD9413980
_publ_section_title
;
Structure prediction by ZEFSAII (Michael W. Deem and Ramdas Pophale) SiO2 
 PCOD9413980
Probable space group: P N N A
;
_chemical_formula_sum "Si O2"
_cell_formula_units_Z 48
_cell_length_a 18.000000
_cell_length_b 15.000000
_cell_length_c 9.000000
_cell_angle_alpha 90.000000
_cell_angle_beta 90.000000
_cell_angle_gamma 90.000000
_cell_volume 2430.000000
_symmetry_space_group_name_H-M "P N N A"
_symmetry_group_IT_number 52
_symmetry_cell_setting 'orthorhombic'
loop_
_space_group_symop_operation_xyz
x,y,z
1/2-x,-y,z
x,1/2-y,1/2-z
1/2-x,1/2+y,1/2-z
-x,-y,-z
1/2+x,y,-z
-x,1/2+y,1/2+z
1/2+x,1/2-y,1/2+z
loop_
_atom_site_type_symbol
_atom_site_label
_atom_site_fract_x
_atom_site_fract_y
_atom_site_fract_z
Si Si1 0.164600 0.015420 0.376048
Si Si2 0.162491 0.997054 0.696681
Si Si3 0.456356 0.576556 0.592454
Si Si4 0.426659 0.340450 0.184570
Si Si5 0.938887 0.161851 0.346330
Si Si6 0.085266 0.150597 0.199810
O O1 0.128207 0.923312 0.327745
O O2 0.250000 0.000000 0.398060
O O3 0.137569 0.042952 0.540940
O O4 0.150315 0.087815 0.252056
O O5 0.115367 0.036045 0.829784
O O6 0.250000 0.000000 0.720765
O O7 0.134111 0.896420 0.674380
O O8 0.500000 0.500000 0.500000
O O9 0.507834 0.624498 0.711594
O O10 0.430118 0.647271 0.472133
O O11 0.393399 0.250000 0.250000
O O12 0.451710 0.319684 0.017801
O O13 0.932913 0.250000 0.250000
O O14 0.011622 0.112442 0.283046
O O15 0.097412 0.250000 0.250000
#
# Coordination Sequence:
#
# PCOD9413980 Si02
#       6
#     8   8   8   8   8   8
#     4  10  22  41  60  86 127 169 205 252 312 367
#     4  10  22  40  61  85 119 163 201 248 314 367
#     4  12  22  39  62  93 123 156 207 252 301 368
#     4  11  22  37  63  92 121 162 206 259 303 365
#     4  10  20  37  62  88 120 154 206 257 306 361
#     4  11  22  38  62  90 122 160 205 258 302 364
#
# _framework density 19.753086
#
# number of rings (size 3 to 8) (size 9 to 14) (size 15 to 20)
#    0.000    1.333    3.333    3.000    0.000    4.000 
#    0.000    5.833    0.000    0.000    0.000    0.000 
#    0.000    0.000    0.000    0.000    0.000    0.000 
#
# Total GULP energy -267623.046601 kJ/mol
# GULP energy per Si atom -5575.480138 kJ/mol
# Density = 1.970813 g / cm^3
# Si number density = 19.753086 Si / 1000 Ang^3
#
#
#
# Elastic Constant Matrix: (Units=GPa)
#
#
# Indices 1 2 3 4 5 6 
#
# 1 49.1775 26.2000 46.3944 0.0000 0.0000 0.0000
# 2 26.2000 81.8761 63.8501 0.0000 0.0000 0.0000
# 3 46.3944 63.8501 151.8347 0.0000 0.0000 0.0000
# 4 0.0000 0.0000 0.0000 31.7911 0.0000 0.0000
# 5 0.0000 0.0000 0.0000 0.0000 59.7171 0.0000
# 6 0.0000 0.0000 0.0000 0.0000 0.0000 -132.7619
#
#
#
# Elastic Compliance Matrix: (Units=1/GPa)
#
#
# Indices 1 2 3 4 5 6 
#
# 1 0.029250 -0.003556 -0.007442 0.000000 0.000000 0.000000
# 2 -0.003556 0.018606 -0.006738 0.000000 0.000000 0.000000
# 3 -0.007442 -0.006738 0.011693 0.000000 0.000000 0.000000
# 4 0.000000 0.000000 0.000000 0.031455 0.000000 0.000000
# 5 0.000000 0.000000 0.000000 0.000000 0.016746 0.000000
# 6 0.000000 0.000000 0.000000 0.000000 0.000000 -0.007532
#
#
# Mechanical properties :
#
#
# Convention : Reuss Voigt Hill
#
# Bulk Modulus (GPa) = 41.53261 61.75300 51.64280
# Shear Modulus (GPa) = 34.79098 1.51219 18.15159
#
# Velocity S-wave (km/s) = 4.20133 0.87591 3.03466
# Velocity P-wave (km/s) = 6.67880 5.68799 6.20321
#
# Compressibility (1/GPa) = 0.02407747
#
# Stress axis : x y z
#
# Youngs Moduli (GPa) = 34.18791 53.74694 85.51837
#
# Poissons Ratio (x) = 0.19114 0.63644
# Poissons Ratio (y) = 0.12158 0.57618
# Poissons Ratio (z) = 0.25443 0.36212
#
# Static dielectric constant tensor:
#      x y z
#    x 1.695780 0.000000 0.000000 
#    y 0.000000 1.675190 0.000000 
#    z 0.000000 0.000000 1.800330 
# 
# From -- ./inp_files/12079.got.cif
#   From: 2010.05.17/outbox.ucp.g08.bks.cvg/sg52_7_cif.got.tgz:12079.got - 2010.06.11 16:30:12.
