data_PCOD9413360
_publ_section_title
;
Structure prediction by ZEFSAII (Michael W. Deem and Ramdas Pophale) SiO2 
 PCOD9413360
Probable space group: P N N A
;
_chemical_formula_sum "Si O2"
_cell_formula_units_Z 64
_cell_length_a 19.132252
_cell_length_b 17.162619
_cell_length_c 8.966618
_cell_angle_alpha 90.000000
_cell_angle_beta 90.000000
_cell_angle_gamma 90.000000
_cell_volume 2944.274667
_symmetry_space_group_name_H-M "P N N A"
_symmetry_group_IT_number 52
_symmetry_cell_setting 'orthorhombic'
loop_
_space_group_symop_operation_xyz
x,y,z
1/2-x,-y,z
x,1/2-y,1/2-z
1/2-x,1/2+y,1/2-z
-x,-y,-z
1/2+x,y,-z
-x,1/2+y,1/2+z
1/2+x,1/2-y,1/2+z
loop_
_atom_site_type_symbol
_atom_site_label
_atom_site_fract_x
_atom_site_fract_y
_atom_site_fract_z
Si Si1 0.439008 0.915989 0.359868
Si Si2 0.303129 0.675832 0.141636
Si Si3 0.259382 0.666130 0.808011
Si Si4 0.312078 0.441210 0.569843
Si Si5 0.329524 0.156186 0.222994
Si Si6 0.953951 0.409399 0.926063
Si Si7 0.923357 0.839783 0.230572
Si Si8 0.567814 0.051343 0.985219
O O1 0.377839 0.857632 0.402552
O O2 0.515697 0.885618 0.410841
O O3 0.422848 0.934668 0.188560
O O4 0.433152 0.000364 0.436020
O O5 0.315638 0.750000 0.250000
O O6 0.247946 0.624779 0.234717
O O7 0.261662 0.679695 0.985348
O O8 0.236327 0.750000 0.750000
O O9 0.213435 0.601043 0.722348
O O10 0.340794 0.652135 0.763101
O O11 0.250000 0.500000 0.520699
O O12 0.335661 0.376841 0.445395
O O13 0.375698 0.501344 0.575992
O O14 0.327059 0.250000 0.250000
O O15 0.390424 0.128776 0.334929
O O16 0.023299 0.392263 0.826203
O O17 0.942469 0.750000 0.250000
O O18 0.935944 0.865272 0.061774
O O19 0.500000 0.000000 0.000000
#
# Coordination Sequence:
#
# PCOD9413360 Si02
#       8
#     8   8   8   8   8   8   8   8
#     4  11  24  41  68  99 145 186 242 303 364 454
#     4  11  25  44  68 105 143 188 243 302 376 451
#     4  11  24  44  70 102 136 184 240 310 368 448
#     4  12  24  45  72 104 142 188 251 308 378 452
#     4  11  24  44  72 102 146 196 242 311 386 457
#     4  11  23  44  66 103 142 189 244 306 370 450
#     4  11  23  42  70  98 137 184 240 302 375 442
#     4  12  24  43  68 105 137 191 240 300 371 449
#
# _framework density 21.737103999999999
#
# number of rings (size 3 to 8) (size 9 to 14) (size 15 to 20)
#    0.000    0.750    5.000    2.625    3.500    1.000 
#    2.250    0.000    0.000    0.750    0.000    0.000 
#    0.000    0.000    0.000    0.000    0.000    0.000 
#
# Total GULP energy -356563.781722 kJ/mol
# GULP energy per Si atom -5571.309089 kJ/mol
# Density = 2.168763 g / cm^3
# Si number density = 21.737104 Si / 1000 Ang^3
#
#
#
# Elastic Constant Matrix: (Units=GPa)
#
#
# Indices 1 2 3 4 5 6 
#
# 1 109.7635 42.0717 16.1402 0.0000 0.0000 0.0000
# 2 42.0717 99.5813 62.9963 0.0000 0.0000 0.0000
# 3 16.1402 62.9963 101.4107 0.0000 0.0000 0.0000
# 4 0.0000 0.0000 0.0000 40.0252 0.0000 0.0000
# 5 0.0000 0.0000 0.0000 0.0000 31.8676 0.0000
# 6 0.0000 0.0000 0.0000 0.0000 0.0000 27.1522
#
#
#
# Elastic Compliance Matrix: (Units=1/GPa)
#
#
# Indices 1 2 3 4 5 6 
#
# 1 0.011086 -0.005877 0.001886 0.000000 0.000000 0.000000
# 2 -0.005877 0.019659 -0.011277 0.000000 0.000000 0.000000
# 3 0.001886 -0.011277 0.016566 0.000000 0.000000 0.000000
# 4 0.000000 0.000000 0.000000 0.024984 0.000000 0.000000
# 5 0.000000 0.000000 0.000000 0.000000 0.031380 0.000000
# 6 0.000000 0.000000 0.000000 0.000000 0.000000 0.036829
#
#
# Mechanical properties :
#
#
# Convention : Reuss Voigt Hill
#
# Bulk Modulus (GPa) = 59.60975 61.46355 60.53665
# Shear Modulus (GPa) = 28.30779 32.44549 30.37664
#
# Velocity S-wave (km/s) = 3.61263 3.86765 3.74231
# Velocity P-wave (km/s) = 6.69955 6.94854 6.82518
#
# Compressibility (1/GPa) = 0.01677578
#
# Stress axis : x y z
#
# Youngs Moduli (GPa) = 90.20632 50.86812 60.36565
#
# Poissons Ratio (x) = 0.29895 -0.11387
# Poissons Ratio (y) = 0.53013 0.68072
# Poissons Ratio (z) = -0.17016 0.57362
#
# Static dielectric constant tensor:
#      x y z
#    x 1.786260 0.000000 0.000000 
#    y 0.000000 1.798450 0.000000 
#    z 0.000000 0.000000 2.192970 
# 
# From -- ./inp_files/13622.got.cif
#   From: 2010.05.17/outbox.cif.g08.bks.cpg/sg52_7_cif.got.tgz:13622.got - 2010.06.03 12:15:38.
