data_PCOD9413016
_publ_section_title
;
Structure prediction by ZEFSAII (Michael W. Deem and Ramdas Pophale) SiO2 
 PCOD9413016
Probable space group: P N N A
;
_chemical_formula_sum "Si O2"
_cell_formula_units_Z 40
_cell_length_a 10.703627
_cell_length_b 16.947026
_cell_length_c 9.809635
_cell_angle_alpha 90.000000
_cell_angle_beta 90.000000
_cell_angle_gamma 90.000000
_cell_volume 1779.415259
_symmetry_space_group_name_H-M "P N N A"
_symmetry_group_IT_number 52
_symmetry_cell_setting 'orthorhombic'
loop_
_space_group_symop_operation_xyz
x,y,z
1/2-x,-y,z
x,1/2-y,1/2-z
1/2-x,1/2+y,1/2-z
-x,-y,-z
1/2+x,y,-z
-x,1/2+y,1/2+z
1/2+x,1/2-y,1/2+z
loop_
_atom_site_type_symbol
_atom_site_label
_atom_site_fract_x
_atom_site_fract_y
_atom_site_fract_z
Si Si1 0.390934 0.250000 0.750000
Si Si2 0.183235 0.761543 0.051945
Si Si3 0.239465 0.619675 0.241076
Si Si4 0.496053 0.916269 0.339175
Si Si5 0.050975 0.250000 0.750000
Si Si6 0.539584 0.415004 0.164569
O O1 0.318694 0.260062 0.608368
O O2 0.463694 0.167140 0.725359
O O3 0.247069 0.685892 0.121103
O O4 0.251518 0.836735 0.114779
O O5 0.043673 0.760753 0.119621
O O6 0.356901 0.566004 0.214688
O O7 0.097810 0.592146 0.230334
O O8 0.483733 0.907709 0.502328
O O9 0.580757 0.994125 0.311666
O O10 0.109757 0.336705 0.779645
#
# Coordination Sequence:
#
# PCOD9413016 Si02
#       6
#     4   8   8   8   4   8
#     4  12  18  33  55  92 114 150 188 251 271 340
#     4   8  17  31  55  75 115 151 181 227 293 321
#     4   9  17  37  54  80 114 155 183 235 287 355
#     4  11  20  31  62  90 109 146 207 226 286 349
#     4   8  14  37  53  72 112 152 168 223 295 330
#     4   9  19  35  57  89 111 151 185 247 274 344
#
# _framework density 22.479295
#
# number of rings (size 3 to 8) (size 9 to 14) (size 15 to 20)
#    0.000    3.200    4.000    1.800    0.000    0.000 
#    0.000    5.000    4.400    0.000   15.600    0.000 
#    0.000    0.000    0.000    0.000    0.000    0.000 
#
# Total GULP energy -222766.948946 kJ/mol
# GULP energy per Si atom -5569.173724 kJ/mol
# Density = 2.242813 g / cm^3
# Si number density = 22.479295 Si / 1000 Ang^3
#
#
#
# Elastic Constant Matrix: (Units=GPa)
#
#
# Indices 1 2 3 4 5 6 
#
# 1 28.1859 19.0067 15.5373 0.0000 0.0000 0.0000
# 2 19.0067 165.4518 41.0628 0.0000 0.0000 0.0000
# 3 15.5373 41.0628 132.8445 0.0000 0.0000 0.0000
# 4 0.0000 0.0000 0.0000 60.7277 0.0000 0.0000
# 5 0.0000 0.0000 0.0000 0.0000 20.9480 0.0000
# 6 0.0000 0.0000 0.0000 0.0000 0.0000 11.9813
#
#
#
# Elastic Compliance Matrix: (Units=1/GPa)
#
#
# Indices 1 2 3 4 5 6 
#
# 1 0.039923 -0.003712 -0.003522 0.000000 0.000000 0.000000
# 2 -0.003712 0.006891 -0.001696 0.000000 0.000000 0.000000
# 3 -0.003522 -0.001696 0.008464 0.000000 0.000000 0.000000
# 4 0.000000 0.000000 0.000000 0.016467 0.000000 0.000000
# 5 0.000000 0.000000 0.000000 0.000000 0.047737 0.000000
# 6 0.000000 0.000000 0.000000 0.000000 0.000000 0.083463
#
#
# Mechanical properties :
#
#
# Convention : Reuss Voigt Hill
#
# Bulk Modulus (GPa) = 26.72485 53.07732 39.90109
# Shear Modulus (GPa) = 21.43352 35.45643 28.44497
#
# Velocity S-wave (km/s) = 3.09119 3.97582 3.56108
# Velocity P-wave (km/s) = 4.96539 6.68873 5.89043
#
# Compressibility (1/GPa) = 0.03741836
#
# Stress axis : x y z
#
# Youngs Moduli (GPa) = 25.04793 145.10781 118.15086
#
# Poissons Ratio (x) = 0.53867 0.41612
# Poissons Ratio (y) = 0.09298 0.20038
# Poissons Ratio (z) = 0.08822 0.24610
#
# Static dielectric constant tensor:
#      x y z
#    x 1.873670 0.000000 0.000000 
#    y 0.000000 1.953470 0.000000 
#    z 0.000000 0.000000 1.780120 
# 
# From -- ./inp_files/10261.got.cif
#   From: 2010.05.17/outbox.cif.g08.bks.cpg/sg52_6_cif.got.tgz:10261.got - 2010.06.03 12:15:38.
