data_PCOD9413746
_publ_section_title
;
Structure prediction by ZEFSAII (Michael W. Deem and Ramdas Pophale) SiO2 
 PCOD9413746
Probable space group: P N N A
;
_chemical_formula_sum "Si O2"
_cell_formula_units_Z 32
_cell_length_a 17.781084
_cell_length_b 11.123262
_cell_length_c 7.878357
_cell_angle_alpha 90.000000
_cell_angle_beta 90.000000
_cell_angle_gamma 90.000000
_cell_volume 1558.210251
_symmetry_space_group_name_H-M "P N N A"
_symmetry_group_IT_number 52
_symmetry_cell_setting 'orthorhombic'
loop_
_space_group_symop_operation_xyz
x,y,z
1/2-x,-y,z
x,1/2-y,1/2-z
1/2-x,1/2+y,1/2-z
-x,-y,-z
1/2+x,y,-z
-x,1/2+y,1/2+z
1/2+x,1/2-y,1/2+z
loop_
_atom_site_type_symbol
_atom_site_label
_atom_site_fract_x
_atom_site_fract_y
_atom_site_fract_z
Si Si1 0.120226 0.057015 0.360870
Si Si2 0.901848 0.303652 0.939938
Si Si3 0.731094 0.254903 0.049588
Si Si4 0.996105 0.750000 0.750000
Si Si5 0.250000 0.500000 0.381279
O O1 0.171735 0.152131 0.465952
O O2 0.177329 0.985971 0.236926
O O3 0.058622 0.135828 0.266192
O O4 0.081885 0.946177 0.455925
O O5 0.914125 0.250000 0.750000
O O6 0.815084 0.291976 0.996285
O O7 0.953164 0.240248 0.081647
O O8 0.721195 0.250000 0.250000
O O9 0.728105 0.118406 0.983732
#
# Coordination Sequence:
#
# PCOD9413746 Si02
#       5
#     8   8   8   4   4
#     4  12  24  48  71 104 144 189 247 298 351 437
#     4  12  25  47  72 104 145 192 236 303 366 431
#     4  12  25  43  75 108 140 191 247 298 357 428
#     4  12  28  46  70 108 152 184 238 300 376 424
#     4  12  22  44  78 100 136 190 248 294 352 422
#
# _framework density 20.536380999999999
#
# number of rings (size 3 to 8) (size 9 to 14) (size 15 to 20)
#    0.000    0.000    8.750    0.750    3.500    2.000 
#    0.000    0.000    0.000    0.000    0.000    0.000 
#    0.000    0.000    0.000    0.000    0.000    0.000 
#
# Total GULP energy -178731.057657 kJ/mol
# GULP energy per Si atom -5585.345552 kJ/mol
# Density = 2.048964 g / cm^3
# Si number density = 20.536381 Si / 1000 Ang^3
#
#
#
# Elastic Constant Matrix: (Units=GPa)
#
#
# Indices 1 2 3 4 5 6 
#
# 1 113.0174 43.7383 66.8207 0.0000 0.0000 0.0000
# 2 43.7383 110.9684 52.4882 0.0000 0.0000 0.0000
# 3 66.8207 52.4882 155.4396 0.0000 0.0000 0.0000
# 4 0.0000 0.0000 0.0000 17.2144 0.0000 0.0000
# 5 0.0000 0.0000 0.0000 0.0000 19.8360 0.0000
# 6 0.0000 0.0000 0.0000 0.0000 0.0000 34.4366
#
#
#
# Elastic Compliance Matrix: (Units=1/GPa)
#
#
# Indices 1 2 3 4 5 6 
#
# 1 0.012581 -0.002857 -0.004444 0.000000 0.000000 0.000000
# 2 -0.002857 0.011373 -0.002612 0.000000 0.000000 0.000000
# 3 -0.004444 -0.002612 0.009226 0.000000 0.000000 0.000000
# 4 0.000000 0.000000 0.000000 0.058091 0.000000 0.000000
# 5 0.000000 0.000000 0.000000 0.000000 0.050413 0.000000
# 6 0.000000 0.000000 0.000000 0.000000 0.000000 0.029039
#
#
# Mechanical properties :
#
#
# Convention : Reuss Voigt Hill
#
# Bulk Modulus (GPa) = 74.88277 78.39108 76.63693
# Shear Modulus (GPa) = 25.64093 28.72261 27.18177
#
# Velocity S-wave (km/s) = 3.53733 3.74387 3.64207
# Velocity P-wave (km/s) = 7.29563 7.54609 7.42192
#
# Compressibility (1/GPa) = 0.01335421
#
# Stress axis : x y z
#
# Youngs Moduli (GPa) = 79.48395 87.92524 108.39239
#
# Poissons Ratio (x) = 0.25120 0.48166
# Poissons Ratio (y) = 0.22709 0.28315
# Poissons Ratio (z) = 0.35320 0.22969
#
# Static dielectric constant tensor:
#      x y z
#    x 1.724840 0.000000 0.000000 
#    y 0.000000 1.878540 0.000000 
#    z 0.000000 0.000000 1.748960 
# 
# From -- ./inp_files/9625.got.cif
#   From: 2010.05.17/outbox.cif.g08.bks.cpg/sg52_5_cif.got.tgz:9625.got - 2010.06.03 12:15:38.
