data_PCOD9413892
_publ_section_title
;
Structure prediction by ZEFSAII (Michael W. Deem and Ramdas Pophale) SiO2 
 PCOD9413892
Probable space group: P N N A
;
_chemical_formula_sum "Si O2"
_cell_formula_units_Z 24
_cell_length_a 25.497384
_cell_length_b 4.752655
_cell_length_c 7.982384
_cell_angle_alpha 90.000000
_cell_angle_beta 90.000000
_cell_angle_gamma 90.000000
_cell_volume 967.307445
_symmetry_space_group_name_H-M "P N N A"
_symmetry_group_IT_number 52
_symmetry_cell_setting 'orthorhombic'
loop_
_space_group_symop_operation_xyz
x,y,z
1/2-x,-y,z
x,1/2-y,1/2-z
1/2-x,1/2+y,1/2-z
-x,-y,-z
1/2+x,y,-z
-x,1/2+y,1/2+z
1/2+x,1/2-y,1/2+z
loop_
_atom_site_type_symbol
_atom_site_label
_atom_site_fract_x
_atom_site_fract_y
_atom_site_fract_z
Si Si1 0.360233 0.430877 0.081121
Si Si2 0.462017 0.756949 0.551956
Si Si3 0.309874 0.904215 0.922016
O O1 0.367127 0.250000 0.250000
O O2 0.408910 0.638494 0.039853
O O3 0.314473 0.662193 0.063851
O O4 0.346275 0.176839 0.953495
O O5 0.451760 0.750000 0.750000
O O6 0.500000 0.500000 0.500000
O O7 0.500000 0.000000 0.500000
O O8 0.324624 0.750000 0.750000
O O9 0.250000 0.000000 0.910696
#
# Coordination Sequence:
#
# PCOD9413892 Si02
#       3
#     8   8   8
#     4  12  27  49  76 112 154 201 256 316 385 460
#     4  12  27  49  76 109 150 197 252 316 385 456
#     4  12  26  48  77 111 153 202 255 314 382 460
#
# _framework density 24.811142
#
# number of rings (size 3 to 8) (size 9 to 14) (size 15 to 20)
#    0.000    0.000    0.000   10.000    0.000    8.000 
#    0.000    1.667    0.000    0.000    0.000    0.000 
#    0.000    0.000    0.000    0.000    0.000    0.000 
#
# Total GULP energy -134110.449623 kJ/mol
# GULP energy per Si atom -5587.935401 kJ/mol
# Density = 2.475467 g / cm^3
# Si number density = 24.811142 Si / 1000 Ang^3
#
#
#
# Elastic Constant Matrix: (Units=GPa)
#
#
# Indices 1 2 3 4 5 6 
#
# 1 120.9908 69.1730 46.9826 0.0000 0.0000 0.0000
# 2 69.1730 255.0546 71.4887 0.0000 0.0000 0.0000
# 3 46.9826 71.4887 171.4735 0.0000 0.0000 0.0000
# 4 0.0000 0.0000 0.0000 67.5829 0.0000 0.0000
# 5 0.0000 0.0000 0.0000 0.0000 26.5475 0.0000
# 6 0.0000 0.0000 0.0000 0.0000 0.0000 65.5391
#
#
#
# Elastic Compliance Matrix: (Units=1/GPa)
#
#
# Indices 1 2 3 4 5 6 
#
# 1 0.010288 -0.002265 -0.001875 0.000000 0.000000 0.000000
# 2 -0.002265 0.004938 -0.001438 0.000000 0.000000 0.000000
# 3 -0.001875 -0.001438 0.006945 0.000000 0.000000 0.000000
# 4 0.000000 0.000000 0.000000 0.014797 0.000000 0.000000
# 5 0.000000 0.000000 0.000000 0.000000 0.037668 0.000000
# 6 0.000000 0.000000 0.000000 0.000000 0.000000 0.015258
#
#
# Mechanical properties :
#
#
# Convention : Reuss Voigt Hill
#
# Bulk Modulus (GPa) = 90.77830 102.53418 96.65624
# Shear Modulus (GPa) = 47.74592 55.92552 51.83572
#
# Velocity S-wave (km/s) = 4.39153 4.75283 4.57575
# Velocity P-wave (km/s) = 7.89817 8.45782 8.18279
#
# Compressibility (1/GPa) = 0.01101585
#
# Stress axis : x y z
#
# Youngs Moduli (GPa) = 97.20236 202.50913 143.98783
#
# Poissons Ratio (x) = 0.45863 0.26992
# Poissons Ratio (y) = 0.22014 0.20708
# Poissons Ratio (z) = 0.18222 0.29125
#
# Static dielectric constant tensor:
#      x y z
#    x 0.884940 0.000000 0.000000 
#    y 0.000000 1.899680 0.000000 
#    z 0.000000 0.000000 2.055690 
# 
# From -- ./inp_files/13773.got.cif
#   From: 2010.05.17/outbox.cif.g08.bks.cpg/sg52_7_cif.got.tgz:13773.got - 2010.06.03 12:15:38.
