data_PCOD9413341
_publ_section_title
;
Structure prediction by ZEFSAII (Michael W. Deem and Ramdas Pophale) SiO2 
 PCOD9413341
Probable space group: P N N A
;
_chemical_formula_sum "Si O2"
_cell_formula_units_Z 56
_cell_length_a 20.123080
_cell_length_b 8.602953
_cell_length_c 15.276610
_cell_angle_alpha 90.000000
_cell_angle_beta 90.000000
_cell_angle_gamma 90.000000
_cell_volume 2644.654817
_symmetry_space_group_name_H-M "P N N A"
_symmetry_group_IT_number 52
_symmetry_cell_setting 'orthorhombic'
loop_
_space_group_symop_operation_xyz
x,y,z
1/2-x,-y,z
x,1/2-y,1/2-z
1/2-x,1/2+y,1/2-z
-x,-y,-z
1/2+x,y,-z
-x,1/2+y,1/2+z
1/2+x,1/2-y,1/2+z
loop_
_atom_site_type_symbol
_atom_site_label
_atom_site_fract_x
_atom_site_fract_y
_atom_site_fract_z
Si Si1 0.894986 0.665227 0.968859
Si Si2 0.184149 0.429980 0.728659
Si Si3 0.010208 0.759358 0.853136
Si Si4 0.267643 0.683058 0.153858
Si Si5 0.196341 0.636339 0.483550
Si Si6 0.148875 0.893523 0.596369
Si Si7 0.580499 0.029579 0.075009
O O1 0.830630 0.709635 0.910569
O O2 0.956583 0.654539 0.902854
O O3 0.874396 0.512779 0.021824
O O4 0.918993 0.796419 0.037678
O O5 0.250000 0.500000 0.685996
O O6 0.190817 0.250000 0.750000
O O7 0.175408 0.518451 0.819706
O O8 0.123509 0.461094 0.663988
O O9 0.996824 0.750000 0.750000
O O10 0.083829 0.696259 0.870798
O O11 0.014962 0.932713 0.896947
O O12 0.250000 0.500000 0.156814
O O13 0.281369 0.750000 0.250000
O O14 0.207963 0.780461 0.109185
O O15 0.250000 0.500000 0.491178
O O16 0.201843 0.774713 0.554908
O O17 0.124070 0.565108 0.503352
#
# Coordination Sequence:
#
# PCOD9413341 Si02
#       7
#     8   8   8   8   8   8   8
#     4  12  24  44  71  97 131 184 238 279 341 415
#     4  12  27  39  66 104 145 179 222 280 351 425
#     4  11  24  45  67  96 136 178 236 287 342 404
#     4  12  26  45  70  99 136 176 222 286 348 405
#     4  11  23  41  68  98 137 172 220 279 345 424
#     4  11  25  43  68  99 137 183 225 282 349 415
#     4  11  24  42  67  99 136 182 222 285 346 411
#
# _framework density 21.174786000000001
#
# number of rings (size 3 to 8) (size 9 to 14) (size 15 to 20)
#    0.000    0.571    5.714    2.143    8.000    0.000 
#    0.000    0.000    0.000    0.857    0.000    0.000 
#    0.000    0.000    0.000    0.000    0.000    0.000 
#
# Total GULP energy -313140.865339 kJ/mol
# GULP energy per Si atom -5591.801167 kJ/mol
# Density = 2.112659 g / cm^3
# Si number density = 21.174786 Si / 1000 Ang^3
#
#
#
# Elastic Constant Matrix: (Units=GPa)
#
#
# Indices 1 2 3 4 5 6 
#
# 1 44.8835 17.0920 18.7426 0.0000 0.0000 0.0000
# 2 17.0920 128.8215 51.4964 0.0000 0.0000 0.0000
# 3 18.7426 51.4964 129.1245 0.0000 0.0000 0.0000
# 4 0.0000 0.0000 0.0000 -132.6430 0.0000 0.0000
# 5 0.0000 0.0000 0.0000 0.0000 24.8907 0.0000
# 6 0.0000 0.0000 0.0000 0.0000 0.0000 16.2690
#
#
#
# Elastic Compliance Matrix: (Units=1/GPa)
#
#
# Indices 1 2 3 4 5 6 
#
# 1 0.024208 -0.002150 -0.002656 0.000000 0.000000 0.000000
# 2 -0.002150 0.009426 -0.003447 0.000000 0.000000 0.000000
# 3 -0.002656 -0.003447 0.009505 0.000000 0.000000 0.000000
# 4 0.000000 0.000000 0.000000 -0.007539 0.000000 0.000000
# 5 0.000000 0.000000 0.000000 0.000000 0.040176 0.000000
# 6 0.000000 0.000000 0.000000 0.000000 0.000000 0.061467
#
#
# Mechanical properties :
#
#
# Convention : Reuss Voigt Hill
#
# Bulk Modulus (GPa) = 37.54931 53.05462 45.30196
# Shear Modulus (GPa) = 30.74542 -3.93009 13.40767
#
# Velocity S-wave (km/s) = 3.81462 -1.36384 2.51906
# Velocity P-wave (km/s) = 6.09699 4.75709 5.46824
#
# Compressibility (1/GPa) = 0.02663165
#
# Stress axis : x y z
#
# Youngs Moduli (GPa) = 41.30888 106.09051 105.21019
#
# Poissons Ratio (x) = 0.22809 0.27948
# Poissons Ratio (y) = 0.08881 0.36267
# Poissons Ratio (z) = 0.10973 0.36570
#
# Static dielectric constant tensor:
#      x y z
#    x 1.753420 0.000000 0.000000 
#    y 0.000000 1.817620 0.000000 
#    z 0.000000 0.000000 1.750500 
# 
# From -- ./inp_files/28776.got.cif
#   From: 2010.05.17/outbox.cif.g08.bks.cpg/sg52_15_cif.got.tgz:28776.got - 2010.06.03 12:15:38.
