data_PCOD9413032
_publ_section_title
;
Structure prediction by ZEFSAII (Michael W. Deem and Ramdas Pophale) SiO2 
 PCOD9413032
Probable space group: P N N A
;
_chemical_formula_sum "Si O2"
_cell_formula_units_Z 64
_cell_length_a 14.219435
_cell_length_b 18.140174
_cell_length_c 11.647381
_cell_angle_alpha 90.000000
_cell_angle_beta 90.000000
_cell_angle_gamma 90.000000
_cell_volume 3004.360689
_symmetry_space_group_name_H-M "P N N A"
_symmetry_group_IT_number 52
_symmetry_cell_setting 'orthorhombic'
loop_
_space_group_symop_operation_xyz
x,y,z
1/2-x,-y,z
x,1/2-y,1/2-z
1/2-x,1/2+y,1/2-z
-x,-y,-z
1/2+x,y,-z
-x,1/2+y,1/2+z
1/2+x,1/2-y,1/2+z
loop_
_atom_site_type_symbol
_atom_site_label
_atom_site_fract_x
_atom_site_fract_y
_atom_site_fract_z
Si Si1 0.294938 0.264380 0.622674
Si Si2 0.679113 0.899987 0.724120
Si Si3 0.616347 0.435134 0.780211
Si Si4 0.012962 0.679179 0.665364
Si Si5 0.684874 0.894180 0.449617
Si Si6 0.092721 0.208135 0.929092
Si Si7 0.110732 0.450245 0.943506
Si Si8 0.987571 0.653402 0.214204
O O1 0.255565 0.250000 0.750000
O O2 0.376336 0.324185 0.634798
O O3 0.343042 0.187595 0.585264
O O4 0.203435 0.281157 0.549002
O O5 0.787859 0.891580 0.758115
O O6 0.687196 0.898445 0.586484
O O7 0.596271 0.843306 0.753175
O O8 0.640040 0.981118 0.756899
O O9 0.529718 0.392940 0.724411
O O10 0.604452 0.436968 0.919316
O O11 0.001164 0.750000 0.750000
O O12 0.959087 0.693115 0.546869
O O13 0.791383 0.910312 0.408145
O O14 0.622430 0.963749 0.415531
O O15 0.047119 0.279519 0.865976
O O16 0.074286 0.148053 0.829322
O O17 0.028026 0.415725 0.869664
#
# Coordination Sequence:
#
# PCOD9413032 Si02
#       8
#     8   8   8   8   8   8   8   8
#     4  11  21  39  60  85 134 167 190 256 318 363
#     4   9  20  36  64  87 117 159 199 273 306 348
#     4   9  20  41  57  90 127 150 206 259 312 362
#     4  11  25  38  63  90 118 168 204 241 312 383
#     4   9  17  32  56  90 119 154 206 250 313 358
#     4  11  23  40  57  89 127 158 204 257 297 371
#     4   9  17  32  61  88 118 156 198 261 304 364
#     4  11  20  36  59  84 119 162 201 247 311 360
#
# _framework density 21.302368999999999
#
# number of rings (size 3 to 8) (size 9 to 14) (size 15 to 20)
#    0.000    2.000    2.500    3.000    1.750    6.000 
#    2.250    0.625    0.000    6.000    0.000    0.000 
#    0.000    0.000    0.000    0.000    0.000    0.000 
#
# Total GULP energy -357219.339287 kJ/mol
# GULP energy per Si atom -5581.552176 kJ/mol
# Density = 2.125388 g / cm^3
# Si number density = 21.302369 Si / 1000 Ang^3
#
#
#
# Elastic Constant Matrix: (Units=GPa)
#
#
# Indices 1 2 3 4 5 6 
#
# 1 135.1945 35.5483 21.8050 0.0000 0.0000 0.0000
# 2 35.5483 43.7512 9.9839 0.0000 0.0000 0.0000
# 3 21.8050 9.9839 71.5057 0.0000 0.0000 0.0000
# 4 0.0000 0.0000 0.0000 24.7328 0.0000 0.0000
# 5 0.0000 0.0000 0.0000 0.0000 26.0509 0.0000
# 6 0.0000 0.0000 0.0000 0.0000 0.0000 29.9242
#
#
#
# Elastic Compliance Matrix: (Units=1/GPa)
#
#
# Indices 1 2 3 4 5 6 
#
# 1 0.009652 -0.007407 -0.001909 0.000000 0.000000 0.000000
# 2 -0.007407 0.029293 -0.001831 0.000000 0.000000 0.000000
# 3 -0.001909 -0.001831 0.014823 0.000000 0.000000 0.000000
# 4 0.000000 0.000000 0.000000 0.040432 0.000000 0.000000
# 5 0.000000 0.000000 0.000000 0.000000 0.038386 0.000000
# 6 0.000000 0.000000 0.000000 0.000000 0.000000 0.033418
#
#
# Mechanical properties :
#
#
# Convention : Reuss Voigt Hill
#
# Bulk Modulus (GPa) = 31.77337 42.79177 37.28257
# Shear Modulus (GPa) = 25.15221 28.34919 26.75070
#
# Velocity S-wave (km/s) = 3.43989 3.65197 3.54752
# Velocity P-wave (km/s) = 5.54301 6.15743 5.85828
#
# Compressibility (1/GPa) = 0.03147290
#
# Stress axis : x y z
#
# Youngs Moduli (GPa) = 103.60264 34.13830 67.46377
#
# Poissons Ratio (x) = 0.25286 0.12880
# Poissons Ratio (y) = 0.76738 0.12355
# Poissons Ratio (z) = 0.19780 0.06252
#
# Static dielectric constant tensor:
#      x y z
#    x 1.854850 0.000000 0.000000 
#    y 0.000000 1.846270 0.000000 
#    z 0.000000 0.000000 1.739270 
# 
# From -- ./inp_files/19859.got.cif
#   From: 2010.05.17/outbox.cif.g08.bks.cpg/sg52_10_cif.got.tgz:19859.got - 2010.06.03 12:15:38.
