data_PCOD9413933
_publ_section_title
;
Structure prediction by ZEFSAII (Michael W. Deem and Ramdas Pophale) SiO2 
 PCOD9413933
Probable space group: P N N A
;
_chemical_formula_sum "Si O2"
_cell_formula_units_Z 20
_cell_length_a 27.935124
_cell_length_b 5.342169
_cell_length_c 5.310019
_cell_angle_alpha 90.000000
_cell_angle_beta 90.000000
_cell_angle_gamma 90.000000
_cell_volume 792.436190
_symmetry_space_group_name_H-M "P N N A"
_symmetry_group_IT_number 52
_symmetry_cell_setting 'orthorhombic'
loop_
_space_group_symop_operation_xyz
x,y,z
1/2-x,-y,z
x,1/2-y,1/2-z
1/2-x,1/2+y,1/2-z
-x,-y,-z
1/2+x,y,-z
-x,1/2+y,1/2+z
1/2+x,1/2-y,1/2+z
loop_
_atom_site_type_symbol
_atom_site_label
_atom_site_fract_x
_atom_site_fract_y
_atom_site_fract_z
Si Si1 0.054982 0.998198 0.910874
Si Si2 0.195743 0.590578 0.991578
Si Si3 0.874642 0.750000 0.750000
O O1 0.063514 0.750000 0.750000
O O2 0.061498 0.250000 0.750000
O O3 0.090973 0.034795 0.142349
O O4 0.000000 0.000000 0.000000
O O5 0.250000 0.500000 0.951361
O O6 0.195221 0.750000 0.250000
O O7 0.160258 0.361385 0.039384
O O8 0.181156 0.750000 0.750000
#
# Coordination Sequence:
#
# PCOD9413933 Si02
#       3
#     8   8   4
#     4  12  29  53  84 121 174 231 293 364 440 521
#     4  12  29  54  85 122 177 230 293 367 448 532
#     4  12  32  50  82 128 168 232 296 362 446 528
#
# _framework density 25.238624999999999
#
# number of rings (size 3 to 8) (size 9 to 14) (size 15 to 20)
#    0.000    0.000    4.000    2.400   11.200    0.000 
#    0.000    0.000    0.000    0.000    0.000    0.000 
#    0.000    0.000    0.000    0.000    0.000    0.000 
#
# Total GULP energy -112457.199642 kJ/mol
# GULP energy per Si atom -5622.859982 kJ/mol
# Density = 2.518118 g / cm^3
# Si number density = 25.238625 Si / 1000 Ang^3
#
#
#
# Elastic Constant Matrix: (Units=GPa)
#
#
# Indices 1 2 3 4 5 6 
#
# 1 217.2272 62.9457 53.7625 0.0000 0.0000 0.0000
# 2 62.9457 174.7681 78.3574 0.0000 0.0000 0.0000
# 3 53.7625 78.3574 151.7012 0.0000 0.0000 0.0000
# 4 0.0000 0.0000 0.0000 78.4408 0.0000 0.0000
# 5 0.0000 0.0000 0.0000 0.0000 -27.7491 0.0000
# 6 0.0000 0.0000 0.0000 0.0000 0.0000 31.8302
#
#
#
# Elastic Compliance Matrix: (Units=1/GPa)
#
#
# Indices 1 2 3 4 5 6 
#
# 1 0.005292 -0.001386 -0.001160 0.000000 0.000000 0.000000
# 2 -0.001386 0.007809 -0.003542 0.000000 0.000000 0.000000
# 3 -0.001160 -0.003542 0.008833 0.000000 0.000000 0.000000
# 4 0.000000 0.000000 0.000000 0.012748 0.000000 0.000000
# 5 0.000000 0.000000 0.000000 0.000000 -0.036037 0.000000
# 6 0.000000 0.000000 0.000000 0.000000 0.000000 0.031417
#
#
# Mechanical properties :
#
#
# Convention : Reuss Voigt Hill
#
# Bulk Modulus (GPa) = 102.48243 103.75863 103.12053
# Shear Modulus (GPa) = 109.91166 39.74645 74.82905
#
# Velocity S-wave (km/s) = 6.60632 3.97271 5.45096
# Velocity P-wave (km/s) = 9.94409 7.88946 8.97576
#
# Compressibility (1/GPa) = 0.00975777
#
# Stress axis : x y z
#
# Youngs Moduli (GPa) = 188.96022 128.05083 113.21670
#
# Poissons Ratio (x) = 0.17750 0.13128
# Poissons Ratio (y) = 0.26193 0.40107
# Poissons Ratio (z) = 0.21910 0.45362
#
# Static dielectric constant tensor:
#      x y z
#    x 1.930770 0.000000 0.000000 
#    y 0.000000 1.946000 0.000000 
#    z 0.000000 0.000000 1.997700 
# 
# From -- ./inp_files/5400.got.cif
#   From: 2010.05.17/outbox.cif.g08.bks.cpg/sg52_3_cif.got.tgz:5400.got - 2010.06.03 12:15:38.
