data_PCOD9413244
_publ_section_title
;
Structure prediction by ZEFSAII (Michael W. Deem and Ramdas Pophale) SiO2 
 PCOD9413244
Probable space group: P N N A
;
_chemical_formula_sum "Si O2"
_cell_formula_units_Z 60
_cell_length_a 9.478070
_cell_length_b 28.560914
_cell_length_c 9.892602
_cell_angle_alpha 90.000000
_cell_angle_beta 90.000000
_cell_angle_gamma 90.000000
_cell_volume 2677.950531
_symmetry_space_group_name_H-M "P N N A"
_symmetry_group_IT_number 52
_symmetry_cell_setting 'orthorhombic'
loop_
_space_group_symop_operation_xyz
x,y,z
1/2-x,-y,z
x,1/2-y,1/2-z
1/2-x,1/2+y,1/2-z
-x,-y,-z
1/2+x,y,-z
-x,1/2+y,1/2+z
1/2+x,1/2-y,1/2+z
loop_
_atom_site_type_symbol
_atom_site_label
_atom_site_fract_x
_atom_site_fract_y
_atom_site_fract_z
Si Si1 0.944737 0.045566 0.420625
Si Si2 0.750000 0.500000 0.308416
Si Si3 0.882429 0.875060 0.687943
Si Si4 0.113790 0.861720 0.909303
Si Si5 0.866580 0.245804 0.099433
Si Si6 0.903816 0.917817 0.106443
Si Si7 0.588408 0.305294 0.057814
Si Si8 0.584191 0.888499 0.668371
O O1 0.840930 0.031646 0.297611
O O2 0.884280 0.084914 0.526363
O O3 0.077203 0.073069 0.359234
O O4 0.000000 0.000000 0.500000
O O5 0.847665 0.529905 0.409421
O O6 0.864581 0.839336 0.564197
O O7 0.727317 0.878388 0.749908
O O8 0.013981 0.858997 0.776987
O O9 0.148645 0.807984 0.944638
O O10 0.262915 0.886597 0.887252
O O11 0.015028 0.892769 0.008067
O O12 0.929111 0.250000 0.250000
O O13 0.722565 0.276028 0.106355
O O14 0.972699 0.269762 0.996737
O O15 0.981224 0.921610 0.249973
O O16 0.505256 0.340858 0.154593
#
# Coordination Sequence:
#
# PCOD9413244 Si02
#       8
#     8   4   8   8   8   8   8   8
#     4  11  22  41  71 105 142 182 237 299 367 430
#     4  12  24  46  70 112 144 190 240 304 364 446
#     4  11  23  43  69 104 144 184 236 298 355 424
#     4  12  26  48  72 100 145 196 242 296 360 434
#     4  12  24  45  71 102 144 187 240 294 360 436
#     4  12  27  48  72 102 146 192 241 298 361 437
#     4  11  24  42  69 107 139 184 233 299 359 423
#     4  11  24  41  72 106 146 181 234 300 369 426
#
# _framework density 22.405193000000001
#
# number of rings (size 3 to 8) (size 9 to 14) (size 15 to 20)
#    0.000    0.533    5.333    3.200    1.867    0.533 
#    0.000    0.667    0.000    0.000    0.000    0.000 
#    0.000    0.000    0.000    0.000    0.000    0.000 
#
# Total GULP energy -335191.593548 kJ/mol
# GULP energy per Si atom -5586.526559 kJ/mol
# Density = 2.235420 g / cm^3
# Si number density = 22.405193 Si / 1000 Ang^3
#
#
#
# Elastic Constant Matrix: (Units=GPa)
#
#
# Indices 1 2 3 4 5 6 
#
# 1 107.0439 16.4125 -3.6573 0.0000 0.0000 0.0000
# 2 16.4125 106.3608 12.0733 0.0000 0.0000 0.0000
# 3 -3.6573 12.0733 23.4745 0.0000 0.0000 0.0000
# 4 0.0000 0.0000 0.0000 26.2744 0.0000 0.0000
# 5 0.0000 0.0000 0.0000 0.0000 10.9547 0.0000
# 6 0.0000 0.0000 0.0000 0.0000 0.0000 45.2053
#
#
#
# Elastic Compliance Matrix: (Units=1/GPa)
#
#
# Indices 1 2 3 4 5 6 
#
# 1 0.009696 -0.001771 0.002422 0.000000 0.000000 0.000000
# 2 -0.001771 0.010308 -0.005578 0.000000 0.000000 0.000000
# 3 0.002422 -0.005578 0.045845 0.000000 0.000000 0.000000
# 4 0.000000 0.000000 0.000000 0.038060 0.000000 0.000000
# 5 0.000000 0.000000 0.000000 0.000000 0.091285 0.000000
# 6 0.000000 0.000000 0.000000 0.000000 0.000000 0.022121
#
#
# Mechanical properties :
#
#
# Convention : Reuss Voigt Hill
#
# Bulk Modulus (GPa) = 17.85856 31.83735 24.84795
# Shear Modulus (GPa) = 20.33880 30.62361 25.48121
#
# Velocity S-wave (km/s) = 3.01619 3.70105 3.37603
# Velocity P-wave (km/s) = 4.48530 5.70126 5.12944
#
# Compressibility (1/GPa) = 0.05599556
#
# Stress axis : x y z
#
# Youngs Moduli (GPa) = 103.13258 97.00831 21.81246
#
# Poissons Ratio (x) = 0.17181 -0.05282
# Poissons Ratio (y) = 0.18266 0.12166
# Poissons Ratio (z) = -0.24974 0.54108
#
# Static dielectric constant tensor:
#      x y z
#    x 1.816250 0.000000 0.000000 
#    y 0.000000 1.827920 0.000000 
#    z 0.000000 0.000000 1.882250 
# 
# From -- ./inp_files/17151.got.cif
#   From: 2010.05.17/outbox.cif.g08.bks.cpg/sg52_9_cif.got.tgz:17151.got - 2010.06.03 12:15:38.
