data_PCOD9413254
_publ_section_title
;
Structure prediction by ZEFSAII (Michael W. Deem and Ramdas Pophale) SiO2 
 PCOD9413254
Probable space group: P N N A
;
_chemical_formula_sum "Si O2"
_cell_formula_units_Z 64
_cell_length_a 8.459527
_cell_length_b 30.205918
_cell_length_c 10.412535
_cell_angle_alpha 90.000000
_cell_angle_beta 90.000000
_cell_angle_gamma 90.000000
_cell_volume 2660.691941
_symmetry_space_group_name_H-M "P N N A"
_symmetry_group_IT_number 52
_symmetry_cell_setting 'orthorhombic'
loop_
_space_group_symop_operation_xyz
x,y,z
1/2-x,-y,z
x,1/2-y,1/2-z
1/2-x,1/2+y,1/2-z
-x,-y,-z
1/2+x,y,-z
-x,1/2+y,1/2+z
1/2+x,1/2-y,1/2+z
loop_
_atom_site_type_symbol
_atom_site_label
_atom_site_fract_x
_atom_site_fract_y
_atom_site_fract_z
Si Si1 0.804088 0.453266 0.691766
Si Si2 0.321203 0.639683 0.405497
Si Si3 0.833983 0.953087 0.274241
Si Si4 0.156243 0.085720 0.437919
Si Si5 0.871699 0.351625 0.062934
Si Si6 0.811454 0.367413 0.329458
Si Si7 0.135112 0.724867 0.367222
Si Si8 0.524068 0.259726 0.896957
O O1 0.750000 0.500000 0.633129
O O2 0.751636 0.408935 0.618330
O O3 0.990808 0.454067 0.715661
O O4 0.716866 0.447206 0.829766
O O5 0.503157 0.639593 0.361087
O O6 0.298108 0.649156 0.556050
O O7 0.213401 0.677227 0.338032
O O8 0.848020 0.936223 0.421804
O O9 0.730298 0.918622 0.193275
O O10 0.750000 0.000000 0.274140
O O11 0.270517 0.128637 0.447840
O O12 0.988455 0.107195 0.407596
O O13 0.770950 0.345265 0.192757
O O14 0.968593 0.307027 0.050689
O O15 0.049736 0.750000 0.250000
O O16 0.038631 0.725079 0.498660
O O17 0.288247 0.755656 0.393822
O O18 0.470361 0.250000 0.750000
#
# Coordination Sequence:
#
# PCOD9413254 Si02
#       8
#     8   8   8   8   8   8   8   8
#     4  12  26  42  69 101 136 183 231 283 349 416
#     4  12  24  45  69  94 139 183 235 286 352 404
#     4  11  25  43  65 102 138 172 230 285 351 421
#     4  11  23  39  70  97 137 181 222 283 346 412
#     4  11  22  42  67 101 137 182 227 286 349 412
#     4  11  24  43  69  95 132 183 228 285 345 416
#     4  11  25  42  68 102 139 185 232 293 348 422
#     4  11  24  42  67 101 142 183 237 288 349 418
#
# _framework density 24.053892000000001
#
# number of rings (size 3 to 8) (size 9 to 14) (size 15 to 20)
#    0.000    0.750    2.500    5.625    3.500    2.000 
#    0.000    5.000    0.000    0.000    0.000    0.000 
#    0.000    0.000    0.000    0.000    0.000    0.000 
#
# Total GULP energy -358280.756550 kJ/mol
# GULP energy per Si atom -5598.136821 kJ/mol
# Density = 2.399914 g / cm^3
# Si number density = 24.053892 Si / 1000 Ang^3
#
#
#
# Elastic Constant Matrix: (Units=GPa)
#
#
# Indices 1 2 3 4 5 6 
#
# 1 61.1789 14.1228 8.4591 0.0000 0.0000 0.0000
# 2 14.1228 125.3582 6.6332 0.0000 0.0000 0.0000
# 3 8.4591 6.6332 86.2626 0.0000 0.0000 0.0000
# 4 0.0000 0.0000 0.0000 23.7110 0.0000 0.0000
# 5 0.0000 0.0000 0.0000 0.0000 26.5958 0.0000
# 6 0.0000 0.0000 0.0000 0.0000 0.0000 35.5747
#
#
#
# Elastic Compliance Matrix: (Units=1/GPa)
#
#
# Indices 1 2 3 4 5 6 
#
# 1 0.016979 -0.001832 -0.001524 0.000000 0.000000 0.000000
# 2 -0.001832 0.008207 -0.000451 0.000000 0.000000 0.000000
# 3 -0.001524 -0.000451 0.011777 0.000000 0.000000 0.000000
# 4 0.000000 0.000000 0.000000 0.042175 0.000000 0.000000
# 5 0.000000 0.000000 0.000000 0.000000 0.037600 0.000000
# 6 0.000000 0.000000 0.000000 0.000000 0.000000 0.028110
#
#
# Mechanical properties :
#
#
# Convention : Reuss Voigt Hill
#
# Bulk Modulus (GPa) = 34.07416 36.80332 35.43874
# Shear Modulus (GPa) = 30.81744 33.41528 32.11636
#
# Velocity S-wave (km/s) = 3.58325 3.73122 3.65798
# Velocity P-wave (km/s) = 5.59607 5.82205 5.71018
#
# Compressibility (1/GPa) = 0.02934775
#
# Stress axis : x y z
#
# Youngs Moduli (GPa) = 58.89562 121.84062 84.91352
#
# Poissons Ratio (x) = 0.22324 0.12942
# Poissons Ratio (y) = 0.10791 0.03833
# Poissons Ratio (z) = 0.08976 0.05500
#
# Static dielectric constant tensor:
#      x y z
#    x 1.884410 0.000000 0.000000 
#    y 0.000000 1.942130 0.000000 
#    z 0.000000 0.000000 1.964220 
# 
# From -- ./inp_files/17245.got.cif
#   From: 2010.05.17/outbox.cif.g08.bks.cpg/sg52_9_cif.got.tgz:17245.got - 2010.06.03 12:15:38.
