data_PCOD9413593
_publ_section_title
;
Structure prediction by ZEFSAII (Michael W. Deem and Ramdas Pophale) SiO2 
 PCOD9413593
Probable space group: P N N A
;
_chemical_formula_sum "Si O2"
_cell_formula_units_Z 36
_cell_length_a 11.691595
_cell_length_b 6.766660
_cell_length_c 21.439148
_cell_angle_alpha 90.000000
_cell_angle_beta 90.000000
_cell_angle_gamma 90.000000
_cell_volume 1696.116350
_symmetry_space_group_name_H-M "P N N A"
_symmetry_group_IT_number 52
_symmetry_cell_setting 'orthorhombic'
loop_
_space_group_symop_operation_xyz
x,y,z
1/2-x,-y,z
x,1/2-y,1/2-z
1/2-x,1/2+y,1/2-z
-x,-y,-z
1/2+x,y,-z
-x,1/2+y,1/2+z
1/2+x,1/2-y,1/2+z
loop_
_atom_site_type_symbol
_atom_site_label
_atom_site_fract_x
_atom_site_fract_y
_atom_site_fract_z
Si Si1 0.918515 0.978073 0.097503
Si Si2 0.750000 0.500000 0.893833
Si Si3 0.537478 0.653453 0.817207
Si Si4 0.156895 0.664853 0.818273
Si Si5 0.351419 0.644067 0.463871
O O1 0.961792 0.810552 0.144451
O O2 0.853046 0.152040 0.134198
O O3 0.858719 0.876042 0.038349
O O4 0.030513 0.078273 0.066969
O O5 0.657241 0.612231 0.851388
O O6 0.679610 0.357125 0.938804
O O7 0.556609 0.750000 0.750000
O O8 0.464007 0.451263 0.813178
O O9 0.250000 0.500000 0.836514
O O10 0.187476 0.750000 0.750000
O O11 0.250000 0.500000 0.442541
#
# Coordination Sequence:
#
# PCOD9413593 Si02
#       5
#     8   4   8   8   8
#     4  11  26  47  70 105 146 192 242 304 363 443
#     4  12  26  46  76 114 148 194 248 306 370 446
#     4  12  26  46  76 110 149 192 243 306 377 439
#     4  12  27  46  73 106 146 191 247 303 374 448
#     4  11  25  46  72 103 147 190 244 303 362 435
#
# _framework density 21.224959999999999
#
# number of rings (size 3 to 8) (size 9 to 14) (size 15 to 20)
#    0.000    0.444    6.667    0.667    3.111    5.333 
#    0.000    0.000    0.000    0.000    0.000    0.000 
#    0.000    0.000    0.000    0.000    0.000    0.000 
#
# Total GULP energy -201559.573631 kJ/mol
# GULP energy per Si atom -5598.877045 kJ/mol
# Density = 2.117665 g / cm^3
# Si number density = 21.224960 Si / 1000 Ang^3
#
#
#
# Elastic Constant Matrix: (Units=GPa)
#
#
# Indices 1 2 3 4 5 6 
#
# 1 83.4391 31.6148 45.4085 0.0000 0.0000 0.0000
# 2 31.6148 113.2180 79.1939 0.0000 0.0000 0.0000
# 3 45.4085 79.1939 154.6715 0.0000 0.0000 0.0000
# 4 0.0000 0.0000 0.0000 21.6433 0.0000 0.0000
# 5 0.0000 0.0000 0.0000 0.0000 37.4257 0.0000
# 6 0.0000 0.0000 0.0000 0.0000 0.0000 51.9202
#
#
#
# Elastic Compliance Matrix: (Units=1/GPa)
#
#
# Indices 1 2 3 4 5 6 
#
# 1 0.014462 -0.001665 -0.003393 0.000000 0.000000 0.000000
# 2 -0.001665 0.013953 -0.006655 0.000000 0.000000 0.000000
# 3 -0.003393 -0.006655 0.010869 0.000000 0.000000 0.000000
# 4 0.000000 0.000000 0.000000 0.046204 0.000000 0.000000
# 5 0.000000 0.000000 0.000000 0.000000 0.026720 0.000000
# 6 0.000000 0.000000 0.000000 0.000000 0.000000 0.019260
#
#
# Mechanical properties :
#
#
# Convention : Reuss Voigt Hill
#
# Bulk Modulus (GPa) = 63.06288 73.75147 68.40717
# Shear Modulus (GPa) = 31.21488 35.20527 33.21008
#
# Velocity S-wave (km/s) = 3.83909 4.07710 3.95988
# Velocity P-wave (km/s) = 7.03048 7.54895 7.29432
#
# Compressibility (1/GPa) = 0.01585719
#
# Stress axis : x y z
#
# Youngs Moduli (GPa) = 69.14518 71.67148 92.00391
#
# Poissons Ratio (x) = 0.11932 0.31221
# Poissons Ratio (y) = 0.11511 0.61230
# Poissons Ratio (z) = 0.23464 0.47698
#
# Static dielectric constant tensor:
#      x y z
#    x 1.789360 0.000000 0.000000 
#    y 0.000000 1.752850 0.000000 
#    z 0.000000 0.000000 1.723020 
# 
# From -- ./inp_files/39946.got.cif
#   From: 2010.05.17/outbox.cif.g08.bks.cpg/sg52_20_cif.got.tgz:39946.got - 2010.06.03 12:15:38.
