data_PCOD9413598
_publ_section_title
;
Structure prediction by ZEFSAII (Michael W. Deem and Ramdas Pophale) SiO2 
 PCOD9413598
Probable space group: P N N A
;
_chemical_formula_sum "Si O2"
_cell_formula_units_Z 28
_cell_length_a 11.243339
_cell_length_b 11.278618
_cell_length_c 9.838301
_cell_angle_alpha 90.000000
_cell_angle_beta 90.000000
_cell_angle_gamma 90.000000
_cell_volume 1247.588315
_symmetry_space_group_name_H-M "P N N A"
_symmetry_group_IT_number 52
_symmetry_cell_setting 'orthorhombic'
loop_
_space_group_symop_operation_xyz
x,y,z
1/2-x,-y,z
x,1/2-y,1/2-z
1/2-x,1/2+y,1/2-z
-x,-y,-z
1/2+x,y,-z
-x,1/2+y,1/2+z
1/2+x,1/2-y,1/2+z
loop_
_atom_site_type_symbol
_atom_site_label
_atom_site_fract_x
_atom_site_fract_y
_atom_site_fract_z
Si Si1 0.508437 0.867744 0.562549
Si Si2 0.579671 0.352389 0.600898
Si Si3 0.114851 0.030594 0.809140
Si Si4 0.293539 0.250000 0.250000
O O1 0.466484 0.775665 0.448426
O O2 0.424310 0.878282 0.693801
O O3 0.628521 0.815605 0.633520
O O4 0.500000 0.000000 0.500000
O O5 0.478630 0.421796 0.684367
O O6 0.604663 0.417504 0.459595
O O7 0.703361 0.341996 0.680065
O O8 0.250000 0.000000 0.781340
#
# Coordination Sequence:
#
# PCOD9413598 Si02
#       4
#     8   8   8   4
#     4  12  27  49  75 111 149 200 254 315 385 458
#     4  11  25  47  74 109 148 203 244 317 385 449
#     4  11  25  46  74 105 151 191 252 312 380 454
#     4  12  26  50  76 110 158 192 270 310 388 468
#
# _framework density 22.443301999999999
#
# number of rings (size 3 to 8) (size 9 to 14) (size 15 to 20)
#    0.000    0.571    2.857    3.429    8.000    2.286 
#   10.286    0.000    0.000    0.000    0.000    0.000 
#    0.000    0.000    0.000    0.000    0.000    0.000 
#
# Total GULP energy -156565.627462 kJ/mol
# GULP energy per Si atom -5591.629552 kJ/mol
# Density = 2.239222 g / cm^3
# Si number density = 22.443302 Si / 1000 Ang^3
#
#
#
# Elastic Constant Matrix: (Units=GPa)
#
#
# Indices 1 2 3 4 5 6 
#
# 1 79.4698 48.2597 -2.5519 0.0000 0.0000 0.0000
# 2 48.2597 113.0314 12.7561 0.0000 0.0000 0.0000
# 3 -2.5519 12.7561 61.1096 0.0000 0.0000 0.0000
# 4 0.0000 0.0000 0.0000 -37.0041 0.0000 0.0000
# 5 0.0000 0.0000 0.0000 0.0000 39.3846 0.0000
# 6 0.0000 0.0000 0.0000 0.0000 0.0000 40.8559
#
#
#
# Elastic Compliance Matrix: (Units=1/GPa)
#
#
# Indices 1 2 3 4 5 6 
#
# 1 0.017303 -0.007649 0.002319 0.000000 0.000000 0.000000
# 2 -0.007649 0.012442 -0.002917 0.000000 0.000000 0.000000
# 3 0.002319 -0.002917 0.017070 0.000000 0.000000 0.000000
# 4 0.000000 0.000000 0.000000 -0.027024 0.000000 0.000000
# 5 0.000000 0.000000 0.000000 0.000000 0.025391 0.000000
# 6 0.000000 0.000000 0.000000 0.000000 0.000000 0.024476
#
#
# Mechanical properties :
#
#
# Convention : Reuss Voigt Hill
#
# Bulk Modulus (GPa) = 32.97983 41.17096 37.07539
# Shear Modulus (GPa) = 51.94329 21.65707 36.80018
#
# Velocity S-wave (km/s) = 4.81606 3.10976 4.05371
# Velocity P-wave (km/s) = 6.75667 5.59271 6.20206
#
# Compressibility (1/GPa) = 0.03032156
#
# Stress axis : x y z
#
# Youngs Moduli (GPa) = 57.79283 80.37124 58.58329
#
# Poissons Ratio (x) = 0.61480 -0.13587
# Poissons Ratio (y) = 0.44209 0.17087
# Poissons Ratio (z) = -0.13404 0.23441
#
# Static dielectric constant tensor:
#      x y z
#    x 1.805670 0.000000 0.000000 
#    y 0.000000 2.282170 0.000000 
#    z 0.000000 0.000000 1.835090 
# 
# From -- ./inp_files/17564.got.cif
#   From: 2010.05.17/outbox.cif.g08.bks.cpg/sg52_9_cif.got.tgz:17564.got - 2010.06.03 12:15:38.
