data_PCOD9413450
_publ_section_title
;
Structure prediction by ZEFSAII (Michael W. Deem and Ramdas Pophale) SiO2 
 PCOD9413450
Probable space group: P N N A
;
_chemical_formula_sum "Si O2"
_cell_formula_units_Z 40
_cell_length_a 8.557606
_cell_length_b 8.752121
_cell_length_c 22.906214
_cell_angle_alpha 90.000000
_cell_angle_beta 90.000000
_cell_angle_gamma 90.000000
_cell_volume 1715.611364
_symmetry_space_group_name_H-M "P N N A"
_symmetry_group_IT_number 52
_symmetry_cell_setting 'orthorhombic'
loop_
_space_group_symop_operation_xyz
x,y,z
1/2-x,-y,z
x,1/2-y,1/2-z
1/2-x,1/2+y,1/2-z
-x,-y,-z
1/2+x,y,-z
-x,1/2+y,1/2+z
1/2+x,1/2-y,1/2+z
loop_
_atom_site_type_symbol
_atom_site_label
_atom_site_fract_x
_atom_site_fract_y
_atom_site_fract_z
Si Si1 0.085078 0.703583 0.922229
Si Si2 0.355063 0.360789 0.699595
Si Si3 0.265169 0.820810 0.023242
Si Si4 0.417751 0.078537 0.273323
Si Si5 0.581178 0.588274 0.905709
O O1 0.095220 0.755540 0.854762
O O2 0.932261 0.784569 0.949114
O O3 0.045919 0.525931 0.932253
O O4 0.234648 0.753796 0.958989
O O5 0.250000 0.500000 0.676524
O O6 0.283279 0.250000 0.750000
O O7 0.485966 0.458452 0.734240
O O8 0.128447 0.743935 0.062780
O O9 0.250000 0.000000 0.020941
O O10 0.405080 0.250000 0.250000
O O11 0.475355 0.101760 0.339382
O O12 0.250000 0.000000 0.277513
O O13 0.750000 0.500000 0.906718
#
# Coordination Sequence:
#
# PCOD9413450 Si02
#       5
#     8   8   8   8   8
#     4  11  24  47  69  98 144 186 239 300 360 437
#     4  12  26  48  70 103 145 189 238 299 365 437
#     4  11  24  42  68 105 137 187 239 297 364 425
#     4  11  24  41  72 108 140 186 236 293 362 433
#     4   9  21  41  67  99 139 183 233 290 355 427
#
# _framework density 23.315304999999999
#
# number of rings (size 3 to 8) (size 9 to 14) (size 15 to 20)
#    0.000    1.200    2.000    3.000    8.400    0.000 
#    3.600    1.000    0.000    0.000    0.000    0.000 
#    0.000    0.000    0.000    0.000    0.000    0.000 
#
# Total GULP energy -223687.510401 kJ/mol
# GULP energy per Si atom -5592.187760 kJ/mol
# Density = 2.326224 g / cm^3
# Si number density = 23.315305 Si / 1000 Ang^3
#
#
#
# Elastic Constant Matrix: (Units=GPa)
#
#
# Indices 1 2 3 4 5 6 
#
# 1 42.3139 23.6530 19.2453 0.0000 0.0000 0.0000
# 2 23.6530 167.2469 46.8487 0.0000 0.0000 0.0000
# 3 19.2453 46.8487 141.4903 0.0000 0.0000 0.0000
# 4 0.0000 0.0000 0.0000 53.5004 0.0000 0.0000
# 5 0.0000 0.0000 0.0000 0.0000 -422.8910 0.0000
# 6 0.0000 0.0000 0.0000 0.0000 0.0000 28.7981
#
#
#
# Elastic Compliance Matrix: (Units=1/GPa)
#
#
# Indices 1 2 3 4 5 6 
#
# 1 0.026505 -0.003019 -0.002606 0.000000 0.000000 0.000000
# 2 -0.003019 0.006934 -0.001885 0.000000 0.000000 0.000000
# 3 -0.002606 -0.001885 0.008046 0.000000 0.000000 0.000000
# 4 0.000000 0.000000 0.000000 0.018691 0.000000 0.000000
# 5 0.000000 0.000000 0.000000 0.000000 -0.002365 0.000000
# 6 0.000000 0.000000 0.000000 0.000000 0.000000 0.034725
#
#
# Mechanical properties :
#
#
# Convention : Reuss Voigt Hill
#
# Bulk Modulus (GPa) = 37.78368 58.94947 48.36657
# Shear Modulus (GPa) = 42.96308 -50.69824 -3.86758
#
# Velocity S-wave (km/s) = 4.29732 -4.66817 -1.28935
# Velocity P-wave (km/s) = 6.39245 1.92803 4.30964
#
# Compressibility (1/GPa) = 0.02646646
#
# Stress axis : x y z
#
# Youngs Moduli (GPa) = 37.72809 144.21219 124.28039
#
# Poissons Ratio (x) = 0.43532 0.32384
# Poissons Ratio (y) = 0.11389 0.23432
# Poissons Ratio (z) = 0.09831 0.27190
#
# Static dielectric constant tensor:
#      x y z
#    x 1.946400 0.000000 0.000000 
#    y 0.000000 1.873420 0.000000 
#    z 0.000000 0.000000 1.887200 
# 
# From -- ./inp_files/39192.got.cif
#   From: 2010.05.17/outbox.cif.g08.bks.cpg/sg52_20_cif.got.tgz:39192.got - 2010.06.03 12:15:38.
