data_PCOD9413226
_publ_section_title
;
Structure prediction by ZEFSAII (Michael W. Deem and Ramdas Pophale) SiO2 
 PCOD9413226
Probable space group: P N N A
;
_chemical_formula_sum "Si O2"
_cell_formula_units_Z 48
_cell_length_a 20.580131
_cell_length_b 11.371815
_cell_length_c 9.069941
_cell_angle_alpha 90.000000
_cell_angle_beta 90.000000
_cell_angle_gamma 90.000000
_cell_volume 2122.669515
_symmetry_space_group_name_H-M "P N N A"
_symmetry_group_IT_number 52
_symmetry_cell_setting 'orthorhombic'
loop_
_space_group_symop_operation_xyz
x,y,z
1/2-x,-y,z
x,1/2-y,1/2-z
1/2-x,1/2+y,1/2-z
-x,-y,-z
1/2+x,y,-z
-x,1/2+y,1/2+z
1/2+x,1/2-y,1/2+z
loop_
_atom_site_type_symbol
_atom_site_label
_atom_site_fract_x
_atom_site_fract_y
_atom_site_fract_z
Si Si1 0.078257 0.944122 0.349405
Si Si2 0.801111 0.750000 0.750000
Si Si3 0.196963 0.579494 0.366384
Si Si4 0.224360 0.121089 0.674628
Si Si5 0.853043 0.220424 0.423217
Si Si6 0.395764 0.670035 0.001963
Si Si7 0.017230 0.250000 0.750000
O O1 0.140640 0.964238 0.243035
O O2 0.096531 0.858231 0.485976
O O3 0.025570 0.868201 0.260853
O O4 0.062110 0.073137 0.410907
O O5 0.750005 0.645159 0.735650
O O6 0.848806 0.758761 0.610938
O O7 0.250000 0.500000 0.448465
O O8 0.160730 0.662188 0.483325
O O9 0.215988 0.250000 0.750000
O O10 0.284598 0.151513 0.569005
O O11 0.155315 0.098860 0.599713
O O12 0.250000 0.000000 0.746194
O O13 0.866585 0.250000 0.250000
O O14 0.438671 0.749396 0.895853
#
# Coordination Sequence:
#
# PCOD9413226 Si02
#       7
#     8   4   8   8   8   8   4
#     4  12  23  46  76  98 139 196 252 302 375 455
#     4  12  23  42  66 108 145 176 236 312 374 452
#     4  12  22  41  74 108 145 183 238 314 391 444
#     4  11  22  40  69 109 148 183 236 309 384 448
#     4  11  23  39  68 110 145 180 232 306 371 442
#     4  12  25  45  70 103 140 199 244 307 369 454
#     4  12  27  50  72  96 143 204 262 298 366 460
#
# _framework density 22.613036000000001
#
# number of rings (size 3 to 8) (size 9 to 14) (size 15 to 20)
#    0.000    0.333    9.167    0.500    0.000    2.667 
#    4.500    0.833    0.000    0.000    0.000    0.000 
#    0.000    0.000    0.000    0.000    0.000    0.000 
#
# Total GULP energy -267733.497571 kJ/mol
# GULP energy per Si atom -5577.781199 kJ/mol
# Density = 2.256157 g / cm^3
# Si number density = 22.613036 Si / 1000 Ang^3
#
#
#
# Elastic Constant Matrix: (Units=GPa)
#
#
# Indices 1 2 3 4 5 6 
#
# 1 87.3851 13.8206 41.1178 0.0000 0.0000 0.0000
# 2 13.8206 71.0868 37.1857 0.0000 0.0000 0.0000
# 3 41.1178 37.1857 133.5578 0.0000 0.0000 0.0000
# 4 0.0000 0.0000 0.0000 20.9444 0.0000 0.0000
# 5 0.0000 0.0000 0.0000 0.0000 11.1958 0.0000
# 6 0.0000 0.0000 0.0000 0.0000 0.0000 13.7516
#
#
#
# Elastic Compliance Matrix: (Units=1/GPa)
#
#
# Indices 1 2 3 4 5 6 
#
# 1 0.013399 -0.000523 -0.003979 0.000000 0.000000 0.000000
# 2 -0.000523 0.016486 -0.004429 0.000000 0.000000 0.000000
# 3 -0.003979 -0.004429 0.009946 0.000000 0.000000 0.000000
# 4 0.000000 0.000000 0.000000 0.047746 0.000000 0.000000
# 5 0.000000 0.000000 0.000000 0.000000 0.089319 0.000000
# 6 0.000000 0.000000 0.000000 0.000000 0.000000 0.072719
#
#
# Mechanical properties :
#
#
# Convention : Reuss Voigt Hill
#
# Bulk Modulus (GPa) = 45.52279 52.91976 49.22127
# Shear Modulus (GPa) = 18.19508 22.50539 20.35023
#
# Velocity S-wave (km/s) = 2.83967 3.15816 3.00314
# Velocity P-wave (km/s) = 5.56117 6.06233 5.81715
#
# Compressibility (1/GPa) = 0.02196702
#
# Stress axis : x y z
#
# Youngs Moduli (GPa) = 74.63366 60.65809 100.54691
#
# Poissons Ratio (x) = 0.03175 0.40011
# Poissons Ratio (y) = 0.03906 0.44532
# Poissons Ratio (z) = 0.29699 0.26865
#
# Static dielectric constant tensor:
#      x y z
#    x 1.827270 0.000000 0.000000 
#    y 0.000000 2.004490 0.000000 
#    z 0.000000 0.000000 2.205640 
# 
# From -- ./inp_files/14343.got.cif
#   From: 2010.05.17/outbox.cif.g08.bks.cpg/sg52_8_cif.got.tgz:14343.got - 2010.06.03 12:15:38.
