data_PCOD9413392
_publ_section_title
;
Structure prediction by ZEFSAII (Michael W. Deem and Ramdas Pophale) SiO2 
 PCOD9413392
Probable space group: P N N A
;
_chemical_formula_sum "Si O2"
_cell_formula_units_Z 40
_cell_length_a 10.352851
_cell_length_b 29.257765
_cell_length_c 5.410741
_cell_angle_alpha 90.000000
_cell_angle_beta 90.000000
_cell_angle_gamma 90.000000
_cell_volume 1638.920384
_symmetry_space_group_name_H-M "P N N A"
_symmetry_group_IT_number 52
_symmetry_cell_setting 'orthorhombic'
loop_
_space_group_symop_operation_xyz
x,y,z
1/2-x,-y,z
x,1/2-y,1/2-z
1/2-x,1/2+y,1/2-z
-x,-y,-z
1/2+x,y,-z
-x,1/2+y,1/2+z
1/2+x,1/2-y,1/2+z
loop_
_atom_site_type_symbol
_atom_site_label
_atom_site_fract_x
_atom_site_fract_y
_atom_site_fract_z
Si Si1 0.155185 0.872678 0.631184
Si Si2 0.921066 0.303806 0.735057
Si Si3 0.670925 0.334072 0.501066
Si Si4 0.552964 0.072540 0.925685
Si Si5 0.840601 0.543116 0.063995
O O1 0.246646 0.913005 0.532653
O O2 0.063377 0.843812 0.445165
O O3 0.074488 0.900208 0.840544
O O4 0.251321 0.834799 0.743640
O O5 0.944813 0.250000 0.750000
O O6 0.027058 0.316421 0.528462
O O7 0.769597 0.308948 0.676986
O O8 0.658192 0.387036 0.566849
O O9 0.585609 0.039334 0.697329
O O10 0.565387 0.051838 0.200209
O O11 0.750000 0.500000 0.114680
#
# Coordination Sequence:
#
# PCOD9413392 Si02
#       5
#     8   8   8   8   8
#     4  11  24  45  72 101 155 200 259 311 400 461
#     4  12  28  45  76 110 151 203 262 327 391 469
#     4  11  25  48  70 108 147 199 252 315 387 464
#     4  11  23  44  74 104 153 202 252 314 389 461
#     4  11  25  43  72 113 153 203 261 323 388 469
#
# _framework density 24.406313999999998
#
# number of rings (size 3 to 8) (size 9 to 14) (size 15 to 20)
#    0.000    0.800    4.000    3.000    2.800    1.600 
#    0.000    0.000    0.000    0.000    0.000    0.000 
#    0.000    0.000    0.000    0.000    0.000    0.000 
#
# Total GULP energy -223161.525362 kJ/mol
# GULP energy per Si atom -5579.038134 kJ/mol
# Density = 2.435076 g / cm^3
# Si number density = 24.406314 Si / 1000 Ang^3
#
#
#
# Elastic Constant Matrix: (Units=GPa)
#
#
# Indices 1 2 3 4 5 6 
#
# 1 92.0729 10.8216 42.3018 0.0000 0.0000 0.0000
# 2 10.8216 110.9451 48.7415 0.0000 0.0000 0.0000
# 3 42.3018 48.7415 111.2611 0.0000 0.0000 0.0000
# 4 0.0000 0.0000 0.0000 12.0929 0.0000 0.0000
# 5 0.0000 0.0000 0.0000 0.0000 23.7746 0.0000
# 6 0.0000 0.0000 0.0000 0.0000 0.0000 34.2306
#
#
#
# Elastic Compliance Matrix: (Units=1/GPa)
#
#
# Indices 1 2 3 4 5 6 
#
# 1 0.013276 0.001142 -0.005548 0.000000 0.000000 0.000000
# 2 0.001142 0.011260 -0.005367 0.000000 0.000000 0.000000
# 3 -0.005548 -0.005367 0.013448 0.000000 0.000000 0.000000
# 4 0.000000 0.000000 0.000000 0.082693 0.000000 0.000000
# 5 0.000000 0.000000 0.000000 0.000000 0.042062 0.000000
# 6 0.000000 0.000000 0.000000 0.000000 0.000000 0.029214
#
#
# Mechanical properties :
#
#
# Convention : Reuss Voigt Hill
#
# Bulk Modulus (GPa) = 54.23343 57.55655 55.89499
# Shear Modulus (GPa) = 22.97331 28.18059 25.57695
#
# Velocity S-wave (km/s) = 3.07137 3.40169 3.24074
# Velocity P-wave (km/s) = 5.90314 6.25000 6.07904
#
# Compressibility (1/GPa) = 0.01843881
#
# Stress axis : x y z
#
# Youngs Moduli (GPa) = 75.32618 88.81007 74.35800
#
# Poissons Ratio (x) = -0.10146 0.41253
# Poissons Ratio (y) = -0.08606 0.39909
# Poissons Ratio (z) = 0.41790 0.47666
#
# Static dielectric constant tensor:
#      x y z
#    x 1.990890 0.000000 0.000000 
#    y 0.000000 1.947780 0.000000 
#    z 0.000000 0.000000 2.059500 
# 
# From -- ./inp_files/1335.got.cif
#   From: 2010.05.17/outbox.cif.g08.bks.cpg/sg52_1_cif.got.tgz:1335.got - 2010.06.03 12:15:38.
