data_PCOD9413418
_publ_section_title
;
Structure prediction by ZEFSAII (Michael W. Deem and Ramdas Pophale) SiO2 
 PCOD9413418
Probable space group: P N N A
;
_chemical_formula_sum "Si O2"
_cell_formula_units_Z 36
_cell_length_a 8.020610
_cell_length_b 8.491313
_cell_length_c 21.777780
_cell_angle_alpha 90.000000
_cell_angle_beta 90.000000
_cell_angle_gamma 90.000000
_cell_volume 1483.186813
_symmetry_space_group_name_H-M "P N N A"
_symmetry_group_IT_number 52
_symmetry_cell_setting 'orthorhombic'
loop_
_space_group_symop_operation_xyz
x,y,z
1/2-x,-y,z
x,1/2-y,1/2-z
1/2-x,1/2+y,1/2-z
-x,-y,-z
1/2+x,y,-z
-x,1/2+y,1/2+z
1/2+x,1/2-y,1/2+z
loop_
_atom_site_type_symbol
_atom_site_label
_atom_site_fract_x
_atom_site_fract_y
_atom_site_fract_z
Si Si1 0.750000 0.000000 0.173460
Si Si2 0.417487 0.430011 0.252247
Si Si3 0.373801 0.123245 0.036736
Si Si4 0.659640 0.774686 0.412482
Si Si5 0.998935 0.424194 0.885617
O O1 0.597293 0.056903 0.215596
O O2 0.851702 0.120888 0.129671
O O3 0.250000 0.500000 0.281203
O O4 0.376543 0.250000 0.250000
O O5 0.435361 0.477108 0.180859
O O6 0.419090 0.269538 0.081754
O O7 0.250000 0.000000 0.068319
O O8 0.291297 0.214651 0.979469
O O9 0.500000 0.000000 0.000000
O O10 0.814422 0.858689 0.380166
O O11 0.516193 0.907074 0.420533
#
# Coordination Sequence:
#
# PCOD9413418 Si02
#       5
#     4   8   8   8   8
#     4  12  24  52  86 110 158 218 264 346 412 490
#     4  12  30  49  76 118 158 209 268 328 410 490
#     4  12  24  45  73 107 151 201 260 326 404 480
#     4  11  23  46  77 110 148 204 264 322 412 485
#     4  11  25  46  72 110 155 205 261 326 397 488
#
# _framework density 24.272061000000001
#
# number of rings (size 3 to 8) (size 9 to 14) (size 15 to 20)
#    0.000    0.444    5.556    2.000    3.111    2.667 
#    4.000    0.000    0.000    0.000    0.000    0.000 
#    0.000    0.000    0.000    0.000    0.000    0.000 
#
# Total GULP energy -200419.444935 kJ/mol
# GULP energy per Si atom -5567.206804 kJ/mol
# Density = 2.421682 g / cm^3
# Si number density = 24.272061 Si / 1000 Ang^3
#
#
#
# Elastic Constant Matrix: (Units=GPa)
#
#
# Indices 1 2 3 4 5 6 
#
# 1 74.1442 40.3371 14.8500 0.0000 0.0000 0.0000
# 2 40.3371 163.0646 36.6695 0.0000 0.0000 0.0000
# 3 14.8500 36.6695 94.8506 0.0000 0.0000 0.0000
# 4 0.0000 0.0000 0.0000 34.6867 0.0000 0.0000
# 5 0.0000 0.0000 0.0000 0.0000 145.2479 0.0000
# 6 0.0000 0.0000 0.0000 0.0000 0.0000 1511.1395
#
#
#
# Elastic Compliance Matrix: (Units=1/GPa)
#
#
# Indices 1 2 3 4 5 6 
#
# 1 0.015679 -0.003643 -0.001046 0.000000 0.000000 0.000000
# 2 -0.003643 0.007563 -0.002353 0.000000 0.000000 0.000000
# 3 -0.001046 -0.002353 0.011617 0.000000 0.000000 0.000000
# 4 0.000000 0.000000 0.000000 0.028830 0.000000 0.000000
# 5 0.000000 0.000000 0.000000 0.000000 0.006885 0.000000
# 6 0.000000 0.000000 0.000000 0.000000 0.000000 0.000662
#
#
# Mechanical properties :
#
#
# Convention : Reuss Voigt Hill
#
# Bulk Modulus (GPa) = 48.14050 57.30809 52.72429
# Shear Modulus (GPa) = 54.20381 354.22832 204.21607
#
# Velocity S-wave (km/s) = 4.73078 12.09370 9.18253
# Velocity P-wave (km/s) = 7.05104 14.78757 11.58424
#
# Compressibility (1/GPa) = 0.02077253
#
# Stress axis : x y z
#
# Youngs Moduli (GPa) = 63.78041 132.22274 86.08393
#
# Poissons Ratio (x) = 0.48171 0.09007
# Poissons Ratio (y) = 0.23236 0.20260
# Poissons Ratio (z) = 0.06673 0.31119
#
# Static dielectric constant tensor:
#      x y z
#    x 2.079850 0.000000 0.000000 
#    y 0.000000 2.102830 0.000000 
#    z 0.000000 0.000000 1.344960 
# 
# From -- ./inp_files/35572.got.cif
#   From: 2010.05.17/outbox.cif.g08.bks.cpg/sg52_18_cif.got.tgz:35572.got - 2010.06.03 12:15:38.
