data_PCOD9413527
_publ_section_title
;
Structure prediction by ZEFSAII (Michael W. Deem and Ramdas Pophale) SiO2 
 PCOD9413527
Probable space group: P N N A
;
_chemical_formula_sum "Si O2"
_cell_formula_units_Z 40
_cell_length_a 8.836826
_cell_length_b 7.840954
_cell_length_c 26.814728
_cell_angle_alpha 90.000000
_cell_angle_beta 90.000000
_cell_angle_gamma 90.000000
_cell_volume 1857.969608
_symmetry_space_group_name_H-M "P N N A"
_symmetry_group_IT_number 52
_symmetry_cell_setting 'orthorhombic'
loop_
_space_group_symop_operation_xyz
x,y,z
1/2-x,-y,z
x,1/2-y,1/2-z
1/2-x,1/2+y,1/2-z
-x,-y,-z
1/2+x,y,-z
-x,1/2+y,1/2+z
1/2+x,1/2-y,1/2+z
loop_
_atom_site_type_symbol
_atom_site_label
_atom_site_fract_x
_atom_site_fract_y
_atom_site_fract_z
Si Si1 0.573328 0.049799 0.947387
Si Si2 0.425966 0.546339 0.052463
Si Si3 0.950403 0.380250 0.844050
Si Si4 0.426242 0.963740 0.845433
Si Si5 0.366832 0.729184 0.193698
O O1 0.556311 0.252180 0.939183
O O2 0.485364 0.958922 0.902514
O O3 0.750000 0.000000 0.946712
O O4 0.500000 0.000000 0.000000
O O5 0.250000 0.500000 0.049257
O O6 0.488036 0.442569 0.100035
O O7 0.500000 0.500000 0.000000
O O8 0.778869 0.303535 0.841409
O O9 0.956025 0.551262 0.811379
O O10 0.048629 0.225184 0.824600
O O11 0.531459 0.109409 0.820784
O O12 0.250000 0.000000 0.843344
O O13 0.310641 0.750000 0.250000
#
# Coordination Sequence:
#
# PCOD9413527 Si02
#       5
#     8   8   8   8   8
#     4  12  24  43  69 101 143 191 251 296 363 435
#     4  12  23  42  66 103 142 186 232 296 358 432
#     4  11  24  46  75 105 142 182 250 309 356 437
#     4  12  26  45  68 104 150 188 232 299 366 442
#     4  11  25  47  76 106 134 187 249 307 368 427
#
# _framework density 21.528877000000001
#
# number of rings (size 3 to 8) (size 9 to 14) (size 15 to 20)
#    0.000    0.400    4.000    6.000    5.600    2.400 
#    3.600    0.000    0.000    0.000    0.000    0.000 
#    0.000    0.000    0.000    0.000    0.000    0.000 
#
# Total GULP energy -223860.590786 kJ/mol
# GULP energy per Si atom -5596.514770 kJ/mol
# Density = 2.147988 g / cm^3
# Si number density = 21.528877 Si / 1000 Ang^3
#
#
#
# Elastic Constant Matrix: (Units=GPa)
#
#
# Indices 1 2 3 4 5 6 
#
# 1 50.7740 25.8159 6.0169 0.0000 0.0000 0.0000
# 2 25.8159 168.2079 22.1787 0.0000 0.0000 0.0000
# 3 6.0169 22.1787 91.4832 0.0000 0.0000 0.0000
# 4 0.0000 0.0000 0.0000 21.0239 0.0000 0.0000
# 5 0.0000 0.0000 0.0000 0.0000 18.2642 0.0000
# 6 0.0000 0.0000 0.0000 0.0000 0.0000 30.2652
#
#
#
# Elastic Compliance Matrix: (Units=1/GPa)
#
#
# Indices 1 2 3 4 5 6 
#
# 1 0.021397 -0.003201 -0.000631 0.000000 0.000000 0.000000
# 2 -0.003201 0.006620 -0.001394 0.000000 0.000000 0.000000
# 3 -0.000631 -0.001394 0.011311 0.000000 0.000000 0.000000
# 4 0.000000 0.000000 0.000000 0.047565 0.000000 0.000000
# 5 0.000000 0.000000 0.000000 0.000000 0.054752 0.000000
# 6 0.000000 0.000000 0.000000 0.000000 0.000000 0.033041
#
#
# Mechanical properties :
#
#
# Convention : Reuss Voigt Hill
#
# Bulk Modulus (GPa) = 34.63208 46.49868 40.56538
# Shear Modulus (GPa) = 25.67208 31.00757 28.33983
#
# Velocity S-wave (km/s) = 3.45693 3.79922 3.63211
# Velocity P-wave (km/s) = 5.66172 6.39457 6.03927
#
# Compressibility (1/GPa) = 0.02887496
#
# Stress axis : x y z
#
# Youngs Moduli (GPa) = 46.73483 151.05471 88.41304
#
# Poissons Ratio (x) = 0.48348 0.05582
# Poissons Ratio (y) = 0.14959 0.12329
# Poissons Ratio (z) = 0.02951 0.21064
#
# Static dielectric constant tensor:
#      x y z
#    x 1.758760 0.000000 0.000000 
#    y 0.000000 1.841030 0.000000 
#    z 0.000000 0.000000 1.788660 
# 
# From -- ./inp_files/42112.got.cif
#   From: 2010.05.17/outbox.cif.g08.bks.cpg/sg52_22_cif.got.tgz:42112.got - 2010.06.03 12:15:38.
