data_PCOD9413562
_publ_section_title
;
Structure prediction by ZEFSAII (Michael W. Deem and Ramdas Pophale) SiO2 
 PCOD9413562
Probable space group: P N N A
;
_chemical_formula_sum "Si O2"
_cell_formula_units_Z 48
_cell_length_a 28.298787
_cell_length_b 8.365346
_cell_length_c 9.483692
_cell_angle_alpha 90.000000
_cell_angle_beta 90.000000
_cell_angle_gamma 90.000000
_cell_volume 2245.066295
_symmetry_space_group_name_H-M "P N N A"
_symmetry_group_IT_number 52
_symmetry_cell_setting 'orthorhombic'
loop_
_space_group_symop_operation_xyz
x,y,z
1/2-x,-y,z
x,1/2-y,1/2-z
1/2-x,1/2+y,1/2-z
-x,-y,-z
1/2+x,y,-z
-x,1/2+y,1/2+z
1/2+x,1/2-y,1/2+z
loop_
_atom_site_type_symbol
_atom_site_label
_atom_site_fract_x
_atom_site_fract_y
_atom_site_fract_z
Si Si1 0.115442 0.206995 0.894517
Si Si2 0.945974 0.186866 0.589649
Si Si3 0.537934 0.193641 0.593391
Si Si4 0.361001 0.334222 0.597305
Si Si5 0.771738 0.326265 0.605850
Si Si6 0.715103 0.149540 0.390459
O O1 0.087926 0.250000 0.750000
O O2 0.158078 0.337338 0.896426
O O3 0.132500 0.024683 0.884894
O O4 0.083452 0.219114 0.030873
O O5 0.943582 0.250000 0.750000
O O6 0.902694 0.255399 0.496348
O O7 0.994197 0.232919 0.508832
O O8 0.948929 0.994006 0.591826
O O9 0.526365 0.250000 0.750000
O O10 0.358782 0.250000 0.750000
O O11 0.312571 0.318830 0.510570
O O12 0.750000 0.500000 0.629447
O O13 0.789291 0.250000 0.750000
O O14 0.729566 0.225861 0.538404
O O15 0.726228 0.250000 0.250000
O O16 0.750000 0.000000 0.377016
#
# Coordination Sequence:
#
# PCOD9413562 Si02
#       6
#     8   8   8   8   8   8
#     4  11  25  44  68 106 140 184 235 295 351 421
#     4  11  25  46  73 107 142 190 235 286 358 421
#     4  11  25  45  72 105 147 186 234 293 350 422
#     4  12  26  46  74 104 141 186 239 288 357 423
#     4  12  26  47  66  99 140 186 232 293 351 419
#     4  11  25  43  71 101 137 185 235 292 349 415
#
# _framework density 21.380215
#
# number of rings (size 3 to 8) (size 9 to 14) (size 15 to 20)
#    0.000    0.667    1.667    5.000    9.333    6.000 
#    3.000    0.000    0.000    0.000    0.000    0.000 
#    0.000    0.000    0.000    0.000    0.000    0.000 
#
# Total GULP energy -268272.182982 kJ/mol
# GULP energy per Si atom -5589.003812 kJ/mol
# Density = 2.133155 g / cm^3
# Si number density = 21.380215 Si / 1000 Ang^3
#
#
#
# Elastic Constant Matrix: (Units=GPa)
#
#
# Indices 1 2 3 4 5 6 
#
# 1 105.2233 50.6434 60.0112 0.0000 0.0000 0.0000
# 2 50.6434 52.2876 35.4733 0.0000 0.0000 0.0000
# 3 60.0112 35.4733 173.9698 0.0000 0.0000 0.0000
# 4 0.0000 0.0000 0.0000 34.6247 0.0000 0.0000
# 5 0.0000 0.0000 0.0000 0.0000 54.6253 0.0000
# 6 0.0000 0.0000 0.0000 0.0000 0.0000 203.7518
#
#
#
# Elastic Compliance Matrix: (Units=1/GPa)
#
#
# Indices 1 2 3 4 5 6 
#
# 1 0.019312 -0.016462 -0.003305 0.000000 0.000000 0.000000
# 2 -0.016462 0.036229 -0.001709 0.000000 0.000000 0.000000
# 3 -0.003305 -0.001709 0.007237 0.000000 0.000000 0.000000
# 4 0.000000 0.000000 0.000000 0.028881 0.000000 0.000000
# 5 0.000000 0.000000 0.000000 0.000000 0.018307 0.000000
# 6 0.000000 0.000000 0.000000 0.000000 0.000000 0.004908
#
#
# Mechanical properties :
#
#
# Convention : Reuss Voigt Hill
#
# Bulk Modulus (GPa) = 50.43989 69.30404 59.87196
# Shear Modulus (GPa) = 30.40767 70.95721 50.68244
#
# Velocity S-wave (km/s) = 3.77534 5.76717 4.87409
# Velocity P-wave (km/s) = 6.53049 8.76541 7.72916
#
# Compressibility (1/GPa) = 0.01982558
#
# Stress axis : x y z
#
# Youngs Moduli (GPa) = 51.78230 27.60243 138.18818
#
# Poissons Ratio (x) = 0.45440 0.45669
# Poissons Ratio (y) = 0.85245 0.23610
# Poissons Ratio (z) = 0.17113 0.04716
#
# Static dielectric constant tensor:
#      x y z
#    x 1.771870 0.000000 0.000000 
#    y 0.000000 1.797450 0.000000 
#    z 0.000000 0.000000 1.659790 
# 
# From -- ./inp_files/15553.got.cif
#   From: 2010.05.17/outbox.cif.g08.bks.cpg/sg52_8_cif.got.tgz:15553.got - 2010.06.03 12:15:38.
