data_PCOD9413870
_publ_section_title
;
Structure prediction by ZEFSAII (Michael W. Deem and Ramdas Pophale) SiO2 
 PCOD9413870
Probable space group: P N N A
;
_chemical_formula_sum "Si O2"
_cell_formula_units_Z 40
_cell_length_a 11.930817
_cell_length_b 8.318680
_cell_length_c 17.711310
_cell_angle_alpha 90.000000
_cell_angle_beta 90.000000
_cell_angle_gamma 90.000000
_cell_volume 1757.823585
_symmetry_space_group_name_H-M "P N N A"
_symmetry_group_IT_number 52
_symmetry_cell_setting 'orthorhombic'
loop_
_space_group_symop_operation_xyz
x,y,z
1/2-x,-y,z
x,1/2-y,1/2-z
1/2-x,1/2+y,1/2-z
-x,-y,-z
1/2+x,y,-z
-x,1/2+y,1/2+z
1/2+x,1/2-y,1/2+z
loop_
_atom_site_type_symbol
_atom_site_label
_atom_site_fract_x
_atom_site_fract_y
_atom_site_fract_z
Si Si1 0.360506 0.235654 0.506926
Si Si2 0.937914 0.572817 0.235089
Si Si3 0.750000 0.000000 0.905117
Si Si4 0.383486 0.008315 0.371055
Si Si5 0.479205 0.851790 0.133652
Si Si6 0.750000 0.500000 0.117411
O O1 0.287085 0.351224 0.455836
O O2 0.451310 0.336741 0.555200
O O3 0.410318 0.099378 0.450162
O O4 0.274905 0.149979 0.563844
O O5 0.890263 0.750000 0.250000
O O6 0.857497 0.507656 0.170061
O O7 0.058614 0.603534 0.196657
O O8 0.946867 0.444220 0.303142
O O9 0.636317 0.048903 0.864033
O O10 0.436578 0.831786 0.358384
O O11 0.250000 0.000000 0.366383
#
# Coordination Sequence:
#
# PCOD9413870 Si02
#       6
#     8   8   4   8   8   4
#     4  12  26  47  77 113 147 201 253 326 380 476
#     4  12  31  47  75 108 153 202 254 319 390 476
#     4  12  26  45  79 110 150 192 258 318 388 460
#     4  12  25  49  78 107 149 199 255 321 386 461
#     4  12  27  49  74 111 153 198 258 312 399 459
#     4  12  28  49  75 104 158 196 256 312 396 456
#
# _framework density 22.755412
#
# number of rings (size 3 to 8) (size 9 to 14) (size 15 to 20)
#    0.000    0.000    5.000    3.000    9.800    0.000 
#    0.000    0.000    0.000    0.000    0.000    0.000 
#    0.000    0.000    0.000    0.000    0.000    0.000 
#
# Total GULP energy -223474.887588 kJ/mol
# GULP energy per Si atom -5586.872190 kJ/mol
# Density = 2.270362 g / cm^3
# Si number density = 22.755412 Si / 1000 Ang^3
#
#
#
# Elastic Constant Matrix: (Units=GPa)
#
#
# Indices 1 2 3 4 5 6 
#
# 1 64.2155 19.9512 19.2886 0.0000 0.0000 0.0000
# 2 19.9512 121.7068 57.1577 0.0000 0.0000 0.0000
# 3 19.2886 57.1577 89.0041 0.0000 0.0000 0.0000
# 4 0.0000 0.0000 0.0000 102.9285 0.0000 0.0000
# 5 0.0000 0.0000 0.0000 0.0000 205.7672 0.0000
# 6 0.0000 0.0000 0.0000 0.0000 0.0000 32.1903
#
#
#
# Elastic Compliance Matrix: (Units=1/GPa)
#
#
# Indices 1 2 3 4 5 6 
#
# 1 0.016846 -0.001499 -0.002688 0.000000 0.000000 0.000000
# 2 -0.001499 0.011898 -0.007316 0.000000 0.000000 0.000000
# 3 -0.002688 -0.007316 0.016516 0.000000 0.000000 0.000000
# 4 0.000000 0.000000 0.000000 0.009715 0.000000 0.000000
# 5 0.000000 0.000000 0.000000 0.000000 0.004860 0.000000
# 6 0.000000 0.000000 0.000000 0.000000 0.000000 0.031065
#
#
# Mechanical properties :
#
#
# Convention : Reuss Voigt Hill
#
# Bulk Modulus (GPa) = 44.93608 51.96905 48.45256
# Shear Modulus (GPa) = 41.21176 80.07914 60.64545
#
# Velocity S-wave (km/s) = 4.26029 5.93866 5.16806
# Velocity P-wave (km/s) = 6.63252 8.36129 7.54658
#
# Compressibility (1/GPa) = 0.02225383
#
# Stress axis : x y z
#
# Youngs Moduli (GPa) = 59.36220 84.04762 60.54662
#
# Poissons Ratio (x) = 0.12600 0.16275
# Poissons Ratio (y) = 0.08899 0.44295
# Poissons Ratio (z) = 0.15957 0.61489
#
# Static dielectric constant tensor:
#      x y z
#    x 1.942770 0.000000 0.000000 
#    y 0.000000 1.736750 0.000000 
#    z 0.000000 0.000000 1.852880 
# 
# From -- ./inp_files/32042.got.cif
#   From: 2010.05.17/outbox.cif.g08.bks.cpg/sg52_17_cif.got.tgz:32042.got - 2010.06.03 12:15:38.
