data_PCOD9413528
_publ_section_title
;
Structure prediction by ZEFSAII (Michael W. Deem and Ramdas Pophale) SiO2 
 PCOD9413528
Probable space group: P N N A
;
_chemical_formula_sum "Si O2"
_cell_formula_units_Z 40
_cell_length_a 9.561279
_cell_length_b 8.447914
_cell_length_c 22.865346
_cell_angle_alpha 90.000000
_cell_angle_beta 90.000000
_cell_angle_gamma 90.000000
_cell_volume 1846.899454
_symmetry_space_group_name_H-M "P N N A"
_symmetry_group_IT_number 52
_symmetry_cell_setting 'orthorhombic'
loop_
_space_group_symop_operation_xyz
x,y,z
1/2-x,-y,z
x,1/2-y,1/2-z
1/2-x,1/2+y,1/2-z
-x,-y,-z
1/2+x,y,-z
-x,1/2+y,1/2+z
1/2+x,1/2-y,1/2+z
loop_
_atom_site_type_symbol
_atom_site_label
_atom_site_fract_x
_atom_site_fract_y
_atom_site_fract_z
Si Si1 0.146586 0.205409 0.085349
Si Si2 0.378867 0.880239 0.299533
Si Si3 0.879476 0.892859 0.470128
Si Si4 0.461864 0.121534 0.102723
Si Si5 0.900492 0.573962 0.272727
O O1 0.079454 0.305047 0.138098
O O2 0.300469 0.169589 0.110273
O O3 0.055051 0.049490 0.071086
O O4 0.176709 0.296500 0.025838
O O5 0.339971 0.750000 0.250000
O O6 0.250000 0.000000 0.308107
O O7 0.508242 0.974219 0.272602
O O8 0.949880 0.762736 0.427182
O O9 0.750000 0.000000 0.446568
O O10 0.000000 0.000000 0.500000
O O11 0.522773 0.080971 0.165511
O O12 0.750000 0.500000 0.280577
O O13 0.886238 0.750000 0.250000
#
# Coordination Sequence:
#
# PCOD9413528 Si02
#       5
#     8   8   8   8   8
#     4  11  24  46  75 106 144 192 251 306 362 455
#     4  12  23  43  75 106 143 191 248 303 365 446
#     4  12  26  47  74 108 146 190 245 309 377 444
#     4  11  25  48  73 105 148 195 249 304 375 447
#     4  12  28  47  70 107 151 193 242 306 377 443
#
# _framework density 21.657919
#
# number of rings (size 3 to 8) (size 9 to 14) (size 15 to 20)
#    0.000    0.400    4.000    4.800    2.800    2.400 
#    3.600    0.000    0.000    0.000    0.000    0.000 
#    0.000    0.000    0.000    0.000    0.000    0.000 
#
# Total GULP energy -223732.492369 kJ/mol
# GULP energy per Si atom -5593.312309 kJ/mol
# Density = 2.160862 g / cm^3
# Si number density = 21.657919 Si / 1000 Ang^3
#
#
#
# Elastic Constant Matrix: (Units=GPa)
#
#
# Indices 1 2 3 4 5 6 
#
# 1 121.5012 50.5981 34.0035 0.0000 0.0000 0.0000
# 2 50.5981 129.4424 35.8758 0.0000 0.0000 0.0000
# 3 34.0035 35.8758 76.4932 0.0000 0.0000 0.0000
# 4 0.0000 0.0000 0.0000 7.9702 0.0000 0.0000
# 5 0.0000 0.0000 0.0000 0.0000 144.0971 0.0000
# 6 0.0000 0.0000 0.0000 0.0000 0.0000 67.5283
#
#
#
# Elastic Compliance Matrix: (Units=1/GPa)
#
#
# Indices 1 2 3 4 5 6 
#
# 1 0.010447 -0.003214 -0.003136 0.000000 0.000000 0.000000
# 2 -0.003214 0.009869 -0.003200 0.000000 0.000000 0.000000
# 3 -0.003136 -0.003200 0.015968 0.000000 0.000000 0.000000
# 4 0.000000 0.000000 0.000000 0.125467 0.000000 0.000000
# 5 0.000000 0.000000 0.000000 0.000000 0.006940 0.000000
# 6 0.000000 0.000000 0.000000 0.000000 0.000000 0.014809
#
#
# Mechanical properties :
#
#
# Convention : Reuss Voigt Hill
#
# Bulk Modulus (GPa) = 58.19787 63.15462 60.67625
# Shear Modulus (GPa) = 24.00074 57.71643 40.85858
#
# Velocity S-wave (km/s) = 3.33254 5.16788 4.34815
# Velocity P-wave (km/s) = 6.46045 8.05187 7.29966
#
# Compressibility (1/GPa) = 0.01718276
#
# Stress axis : x y z
#
# Youngs Moduli (GPa) = 95.72434 101.33072 62.62560
#
# Poissons Ratio (x) = 0.32570 0.19642
# Poissons Ratio (y) = 0.30768 0.20038
# Poissons Ratio (z) = 0.30022 0.32422
#
# Static dielectric constant tensor:
#      x y z
#    x 1.798820 0.000000 0.000000 
#    y 0.000000 1.851520 0.000000 
#    z 0.000000 0.000000 1.835130 
# 
# From -- ./inp_files/39232.got.cif
#   From: 2010.05.17/outbox.cif.g08.bks.cpg/sg52_20_cif.got.tgz:39232.got - 2010.06.03 12:15:38.
