data_PCOD9413191
_publ_section_title
;
Structure prediction by ZEFSAII (Michael W. Deem and Ramdas Pophale) SiO2 
 PCOD9413191
Probable space group: P N N A
;
_chemical_formula_sum "Si O2"
_cell_formula_units_Z 24
_cell_length_a 10.904085
_cell_length_b 4.704530
_cell_length_c 20.545341
_cell_angle_alpha 90.000000
_cell_angle_beta 90.000000
_cell_angle_gamma 90.000000
_cell_volume 1053.947127
_symmetry_space_group_name_H-M "P N N A"
_symmetry_group_IT_number 52
_symmetry_cell_setting 'orthorhombic'
loop_
_space_group_symop_operation_xyz
x,y,z
1/2-x,-y,z
x,1/2-y,1/2-z
1/2-x,1/2+y,1/2-z
-x,-y,-z
1/2+x,y,-z
-x,1/2+y,1/2+z
1/2+x,1/2-y,1/2+z
loop_
_atom_site_type_symbol
_atom_site_label
_atom_site_fract_x
_atom_site_fract_y
_atom_site_fract_z
Si Si1 0.522286 0.887028 0.602143
Si Si2 0.388502 0.614518 0.318285
Si Si3 0.161922 0.735830 0.977478
O O1 0.524898 0.639559 0.655982
O O2 0.564670 0.727341 0.535974
O O3 0.609977 0.131749 0.629842
O O4 0.403462 0.072471 0.582148
O O5 0.250000 0.500000 0.311665
O O6 0.427952 0.750000 0.250000
O O7 0.250000 0.500000 0.006993
O O8 0.250000 0.000000 0.961704
#
# Coordination Sequence:
#
# PCOD9413191 Si02
#       3
#     8   8   8
#     4  11  23  38  60  90 125 164 209 263 321 385
#     4  12  23  38  60  89 124 163 207 261 325 386
#     4  11  22  38  61  89 124 166 210 261 321 381
#
# _framework density 22.771540999999999
#
# number of rings (size 3 to 8) (size 9 to 14) (size 15 to 20)
#    0.000    0.667    0.000   11.000    0.000    5.333 
#    0.000    0.000    0.000    6.000    0.000    2.333 
#    0.000    0.000    0.000    0.000    0.000    0.000 
#
# Total GULP energy -134038.829084 kJ/mol
# GULP energy per Si atom -5584.951212 kJ/mol
# Density = 2.271971 g / cm^3
# Si number density = 22.771541 Si / 1000 Ang^3
#
#
#
# Elastic Constant Matrix: (Units=GPa)
#
#
# Indices 1 2 3 4 5 6 
#
# 1 80.3942 66.4936 56.6813 0.0000 0.0000 0.0000
# 2 66.4936 199.6886 89.5926 0.0000 0.0000 0.0000
# 3 56.6813 89.5926 117.1771 0.0000 0.0000 0.0000
# 4 0.0000 0.0000 0.0000-2659.2201 0.0000 0.0000
# 5 0.0000 0.0000 0.0000 0.0000 24.8050 0.0000
# 6 0.0000 0.0000 0.0000 0.0000 0.0000 61.3197
#
#
#
# Elastic Compliance Matrix: (Units=1/GPa)
#
#
# Indices 1 2 3 4 5 6 
#
# 1 0.020455 -0.003610 -0.007134 0.000000 0.000000 0.000000
# 2 -0.003610 0.008260 -0.004569 0.000000 0.000000 0.000000
# 3 -0.007134 -0.004569 0.015478 0.000000 0.000000 0.000000
# 4 0.000000 0.000000 0.000000 -0.000376 0.000000 0.000000
# 5 0.000000 0.000000 0.000000 0.000000 0.040314 0.000000
# 6 0.000000 0.000000 0.000000 0.000000 0.000000 0.016308
#
#
# Mechanical properties :
#
#
# Convention : Reuss Voigt Hill
#
# Bulk Modulus (GPa) = 73.71244 91.42166 82.56705
# Shear Modulus (GPa) = 36.87643 -502.31957 -232.72157
#
# Velocity S-wave (km/s) = 4.02855 -14.86842 -10.12029
# Velocity P-wave (km/s) = 7.35389 15.95385 10.01113
#
# Compressibility (1/GPa) = 0.01356623
#
# Stress axis : x y z
#
# Youngs Moduli (GPa) = 48.88896 121.06574 64.60631
#
# Poissons Ratio (x) = 0.43710 0.46089
# Poissons Ratio (y) = 0.17651 0.29519
# Poissons Ratio (z) = 0.34877 0.55316
#
# Static dielectric constant tensor:
#      x y z
#    x 1.727780 0.000000 0.000000 
#    y 0.000000 1.865040 0.000000 
#    z 0.000000 0.000000 1.868310 
# 
# From -- ./inp_files/36298.got.cif
#   From: 2010.05.17/outbox.cif.g08.bks.cpg/sg52_19_cif.got.tgz:36298.got - 2010.06.03 12:15:38.
