data_PCOD9413383
_publ_section_title
;
Structure prediction by ZEFSAII (Michael W. Deem and Ramdas Pophale) SiO2 
 PCOD9413383
Probable space group: P N N A
;
_chemical_formula_sum "Si O2"
_cell_formula_units_Z 40
_cell_length_a 8.329058
_cell_length_b 10.907150
_cell_length_c 17.697082
_cell_angle_alpha 90.000000
_cell_angle_beta 90.000000
_cell_angle_gamma 90.000000
_cell_volume 1607.714154
_symmetry_space_group_name_H-M "P N N A"
_symmetry_group_IT_number 52
_symmetry_cell_setting 'orthorhombic'
loop_
_space_group_symop_operation_xyz
x,y,z
1/2-x,-y,z
x,1/2-y,1/2-z
1/2-x,1/2+y,1/2-z
-x,-y,-z
1/2+x,y,-z
-x,1/2+y,1/2+z
1/2+x,1/2-y,1/2+z
loop_
_atom_site_type_symbol
_atom_site_label
_atom_site_fract_x
_atom_site_fract_y
_atom_site_fract_z
Si Si1 0.349544 0.882150 0.780271
Si Si2 0.610606 0.096599 0.458247
Si Si3 0.638913 0.615930 0.824486
Si Si4 0.015834 0.531663 0.413620
Si Si5 0.673726 0.203113 0.906124
O O1 0.291489 0.750000 0.750000
O O2 0.533875 0.893961 0.750559
O O3 0.374567 0.898168 0.870113
O O4 0.250000 0.000000 0.753308
O O5 0.500650 0.137212 0.387674
O O6 0.649142 0.206215 0.519973
O O7 0.750000 0.000000 0.433354
O O8 0.500000 0.000000 0.500000
O O9 0.750000 0.500000 0.839629
O O10 0.772173 0.718328 0.835069
O O11 0.172856 0.616120 0.416410
O O12 0.036388 0.392852 0.382045
O O13 0.000000 0.500000 0.500000
#
# Coordination Sequence:
#
# PCOD9413383 Si02
#       5
#     8   8   8   8   8
#     4  12  30  53  77 114 162 213 272 340 410 488
#     4  12  22  41  69 112 154 202 262 324 394 461
#     4  12  25  45  75 112 155 205 263 330 402 484
#     4  11  27  47  77 110 151 213 265 331 401 487
#     4  11  23  43  74 112 149 204 259 325 395 474
#
# _framework density 24.880044999999999
#
# number of rings (size 3 to 8) (size 9 to 14) (size 15 to 20)
#    0.000    0.400    6.000    1.800    5.600    1.600 
#    0.000    0.000    0.000    0.000    0.000    0.000 
#    0.000    0.000    0.000    0.000    0.000    0.000 
#
# Total GULP energy -223120.563874 kJ/mol
# GULP energy per Si atom -5578.014097 kJ/mol
# Density = 2.482342 g / cm^3
# Si number density = 24.880045 Si / 1000 Ang^3
#
#
#
# Elastic Constant Matrix: (Units=GPa)
#
#
# Indices 1 2 3 4 5 6 
#
# 1 54.8962 46.5380 9.7045 0.0000 0.0000 0.0000
# 2 46.5380 216.1090 36.6450 0.0000 0.0000 0.0000
# 3 9.7045 36.6450 103.7399 0.0000 0.0000 0.0000
# 4 0.0000 0.0000 0.0000 25.9273 0.0000 0.0000
# 5 0.0000 0.0000 0.0000 0.0000 18.4297 0.0000
# 6 0.0000 0.0000 0.0000 0.0000 0.0000 49.5550
#
#
#
# Elastic Compliance Matrix: (Units=1/GPa)
#
#
# Indices 1 2 3 4 5 6 
#
# 1 0.022301 -0.004732 -0.000415 0.000000 0.000000 0.000000
# 2 -0.004732 0.005926 -0.001651 0.000000 0.000000 0.000000
# 3 -0.000415 -0.001651 0.010261 0.000000 0.000000 0.000000
# 4 0.000000 0.000000 0.000000 0.038569 0.000000 0.000000
# 5 0.000000 0.000000 0.000000 0.000000 0.054260 0.000000
# 6 0.000000 0.000000 0.000000 0.000000 0.000000 0.020180
#
#
# Mechanical properties :
#
#
# Convention : Reuss Voigt Hill
#
# Bulk Modulus (GPa) = 40.17060 62.28001 51.22531
# Shear Modulus (GPa) = 28.83658 37.57291 33.20475
#
# Velocity S-wave (km/s) = 3.40814 3.89030 3.65717
# Velocity P-wave (km/s) = 5.62743 6.72798 6.20216
#
# Compressibility (1/GPa) = 0.02489383
#
# Stress axis : x y z
#
# Youngs Moduli (GPa) = 44.84075 168.74112 97.45287
#
# Poissons Ratio (x) = 0.79850 0.04041
# Poissons Ratio (y) = 0.21219 0.16087
# Poissons Ratio (z) = 0.01859 0.27854
#
# Static dielectric constant tensor:
#      x y z
#    x 2.167310 0.000000 0.000000 
#    y 0.000000 2.015680 0.000000 
#    z 0.000000 0.000000 2.647690 
# 
# From -- ./inp_files/30873.got.cif
#   From: 2010.05.17/outbox.cif.g08.bks.cpg/sg52_16_cif.got.tgz:30873.got - 2010.06.03 12:15:38.
