data_PCOD9413278
_publ_section_title
;
Structure prediction by ZEFSAII (Michael W. Deem and Ramdas Pophale) SiO2 
 PCOD9413278
Probable space group: P N N A
;
_chemical_formula_sum "Si O2"
_cell_formula_units_Z 52
_cell_length_a 13.579666
_cell_length_b 17.097791
_cell_length_c 10.000441
_cell_angle_alpha 90.000000
_cell_angle_beta 90.000000
_cell_angle_gamma 90.000000
_cell_volume 2321.925304
_symmetry_space_group_name_H-M "P N N A"
_symmetry_group_IT_number 52
_symmetry_cell_setting 'orthorhombic'
loop_
_space_group_symop_operation_xyz
x,y,z
1/2-x,-y,z
x,1/2-y,1/2-z
1/2-x,1/2+y,1/2-z
-x,-y,-z
1/2+x,y,-z
-x,1/2+y,1/2+z
1/2+x,1/2-y,1/2+z
loop_
_atom_site_type_symbol
_atom_site_label
_atom_site_fract_x
_atom_site_fract_y
_atom_site_fract_z
Si Si1 0.726765 0.306422 0.372279
Si Si2 0.564661 0.619280 0.354327
Si Si3 0.399816 0.250000 0.250000
Si Si4 0.020576 0.373756 0.621893
Si Si5 0.250000 0.000000 0.406759
Si Si6 0.929925 0.750000 0.750000
Si Si7 0.259634 0.827537 0.413893
Si Si8 0.526759 0.505120 0.842487
O O1 0.697998 0.250000 0.250000
O O2 0.821861 0.358127 0.341322
O O3 0.634487 0.359851 0.410636
O O4 0.753596 0.244389 0.486401
O O5 0.537921 0.586024 0.500551
O O6 0.499942 0.697818 0.341179
O O7 0.527944 0.563716 0.236652
O O8 0.468693 0.289982 0.358440
O O9 0.328200 0.183567 0.308221
O O10 0.010337 0.418420 0.762900
O O11 0.245467 0.085724 0.476335
O O12 0.354379 0.000231 0.329474
O O13 0.860196 0.807716 0.664469
O O14 0.500000 0.500000 0.000000
#
# Coordination Sequence:
#
# PCOD9413278 Si02
#       8
#     8   8   4   8   4   4   8   8
#     4  12  27  40  76 109 149 194 247 317 383 438
#     4  12  26  48  73 109 151 200 255 317 381 458
#     4  11  22  43  76 102 148 193 256 305 370 460
#     4  12  26  48  73 109 151 200 255 317 381 458
#     4  12  26  46  82 106 152 200 264 294 386 462
#     4  11  22  43  76 102 148 193 256 305 370 460
#     4  11  24  45  72 113 141 203 254 303 371 456
#     4  12  31  49  75 110 155 199 249 328 388 456
#
# _framework density 22.395208
#
# number of rings (size 3 to 8) (size 9 to 14) (size 15 to 20)
#    0.000    0.308    7.692    0.462    4.308    3.077 
#    0.000    0.000    0.000    0.000    0.000    0.000 
#    0.000    0.000    0.000    0.000    0.000    0.000 
#
# Total GULP energy -290623.541551 kJ/mol
# GULP energy per Si atom -5588.914261 kJ/mol
# Density = 2.234424 g / cm^3
# Si number density = 22.395208 Si / 1000 Ang^3
#
#
#
# Elastic Constant Matrix: (Units=GPa)
#
#
# Indices 1 2 3 4 5 6 
#
# 1 124.4374 21.8799 -9.3724 0.0000 0.0000 0.0000
# 2 21.8799 82.4527 -0.0682 0.0000 0.0000 0.0000
# 3 -9.3724 -0.0682 77.5988 0.0000 0.0000 0.0000
# 4 0.0000 0.0000 0.0000 43.0003 0.0000 0.0000
# 5 0.0000 0.0000 0.0000 0.0000 24.3441 0.0000
# 6 0.0000 0.0000 0.0000 0.0000 0.0000 6.7392
#
#
#
# Elastic Compliance Matrix: (Units=1/GPa)
#
#
# Indices 1 2 3 4 5 6 
#
# 1 0.008510 -0.002257 0.001026 0.000000 0.000000 0.000000
# 2 -0.002257 0.012727 -0.000261 0.000000 0.000000 0.000000
# 3 0.001026 -0.000261 0.013010 0.000000 0.000000 0.000000
# 4 0.000000 0.000000 0.000000 0.023256 0.000000 0.000000
# 5 0.000000 0.000000 0.000000 0.000000 0.041078 0.000000
# 6 0.000000 0.000000 0.000000 0.000000 0.000000 0.148386
#
#
# Mechanical properties :
#
#
# Convention : Reuss Voigt Hill
#
# Bulk Modulus (GPa) = 31.98801 34.37417 33.18109
# Shear Modulus (GPa) = 19.20317 32.95335 26.07826
#
# Velocity S-wave (km/s) = 2.93143 3.84011 3.41612
# Velocity P-wave (km/s) = 5.07663 5.91981 5.51436
#
# Compressibility (1/GPa) = 0.03126171
#
# Stress axis : x y z
#
# Youngs Moduli (GPa) = 117.50366 78.57309 76.86117
#
# Poissons Ratio (x) = 0.17738 -0.07885
# Poissons Ratio (y) = 0.26526 0.02010
# Poissons Ratio (z) = -0.12055 0.02055
#
# Static dielectric constant tensor:
#      x y z
#    x 1.782680 0.000000 0.000000 
#    y 0.000000 1.875880 0.000000 
#    z 0.000000 0.000000 1.937720 
# 
# From -- ./inp_files/10771.got.cif
#   From: 2010.05.17/outbox.cif.g08.bks.cpg/sg52_6_cif.got.tgz:10771.got - 2010.06.03 12:15:38.
