data_PCOD9413066
_publ_section_title
;
Structure prediction by ZEFSAII (Michael W. Deem and Ramdas Pophale) SiO2 
 PCOD9413066
Probable space group: P N N A
;
_chemical_formula_sum "Si O2"
_cell_formula_units_Z 48
_cell_length_a 15.607414
_cell_length_b 20.392673
_cell_length_c 7.727101
_cell_angle_alpha 90.000000
_cell_angle_beta 90.000000
_cell_angle_gamma 90.000000
_cell_volume 2459.357676
_symmetry_space_group_name_H-M "P N N A"
_symmetry_group_IT_number 52
_symmetry_cell_setting 'orthorhombic'
loop_
_space_group_symop_operation_xyz
x,y,z
1/2-x,-y,z
x,1/2-y,1/2-z
1/2-x,1/2+y,1/2-z
-x,-y,-z
1/2+x,y,-z
-x,1/2+y,1/2+z
1/2+x,1/2-y,1/2+z
loop_
_atom_site_type_symbol
_atom_site_label
_atom_site_fract_x
_atom_site_fract_y
_atom_site_fract_z
Si Si1 0.109663 0.421266 0.220557
Si Si2 0.250000 0.000000 0.087174
Si Si3 0.148781 0.119976 0.664904
Si Si4 0.487366 0.308685 0.610256
Si Si5 0.664556 0.596287 0.322115
Si Si6 0.532944 0.005786 0.200921
Si Si7 0.553377 0.250000 0.250000
O O1 0.193676 0.447086 0.314069
O O2 0.055908 0.365703 0.328833
O O3 0.052956 0.487237 0.198859
O O4 0.136481 0.395782 0.035060
O O5 0.311639 0.045658 0.973897
O O6 0.246533 0.111725 0.727862
O O7 0.083951 0.072462 0.770456
O O8 0.114714 0.192253 0.689862
O O9 0.493123 0.250000 0.750000
O O10 0.393244 0.342396 0.619917
O O11 0.503329 0.278787 0.418427
O O12 0.597335 0.549885 0.224106
O O13 0.500000 0.000000 0.000000
#
# Coordination Sequence:
#
# PCOD9413066 Si02
#       7
#     8   4   8   8   8   8   4
#     4  11  25  42  69 102 139 177 233 287 356 421
#     4  12  22  42  68 102 138 174 224 306 350 412
#     4  12  24  43  67 102 136 184 225 290 351 412
#     4  11  25  51  70 100 138 190 236 286 341 436
#     4  11  23  42  70  98 137 177 230 290 352 407
#     4  11  20  42  70  96 135 178 224 283 349 410
#     4  12  26  46  76  92 138 190 234 278 358 418
#
# _framework density 19.517292000000001
#
# number of rings (size 3 to 8) (size 9 to 14) (size 15 to 20)
#    0.000    0.667    5.000    3.500    3.500    0.000 
#    3.000    0.000    0.000    0.000    0.000    0.000 
#    0.000    0.000    0.000    0.000    0.000    0.000 
#
# Total GULP energy -267590.917545 kJ/mol
# GULP energy per Si atom -5574.810782 kJ/mol
# Density = 1.947287 g / cm^3
# Si number density = 19.517292 Si / 1000 Ang^3
#
#
#
# Elastic Constant Matrix: (Units=GPa)
#
#
# Indices 1 2 3 4 5 6 
#
# 1 81.1506 41.6278 45.1203 0.0000 0.0000 0.0000
# 2 41.6278 106.0852 48.8183 0.0000 0.0000 0.0000
# 3 45.1203 48.8183 131.4752 0.0000 0.0000 0.0000
# 4 0.0000 0.0000 0.0000 33.8611 0.0000 0.0000
# 5 0.0000 0.0000 0.0000 0.0000 16.6511 0.0000
# 6 0.0000 0.0000 0.0000 0.0000 0.0000 36.6696
#
#
#
# Elastic Compliance Matrix: (Units=1/GPa)
#
#
# Indices 1 2 3 4 5 6 
#
# 1 0.017056 -0.004823 -0.004062 0.000000 0.000000 0.000000
# 2 -0.004823 0.012733 -0.003073 0.000000 0.000000 0.000000
# 3 -0.004062 -0.003073 0.010141 0.000000 0.000000 0.000000
# 4 0.000000 0.000000 0.000000 0.029532 0.000000 0.000000
# 5 0.000000 0.000000 0.000000 0.000000 0.060056 0.000000
# 6 0.000000 0.000000 0.000000 0.000000 0.000000 0.027271
#
#
# Mechanical properties :
#
#
# Convention : Reuss Voigt Hill
#
# Bulk Modulus (GPa) = 62.44821 65.53818 63.99319
# Shear Modulus (GPa) = 26.87555 29.64601 28.26078
#
# Velocity S-wave (km/s) = 3.71484 3.90161 3.80937
# Velocity P-wave (km/s) = 7.10393 7.34501 7.22548
#
# Compressibility (1/GPa) = 0.01601327
#
# Stress axis : x y z
#
# Youngs Moduli (GPa) = 58.63170 78.53618 98.60923
#
# Poissons Ratio (x) = 0.37880 0.40058
# Poissons Ratio (y) = 0.28279 0.30299
# Poissons Ratio (z) = 0.23818 0.24131
#
# Static dielectric constant tensor:
#      x y z
#    x 1.731710 0.000000 0.000000 
#    y 0.000000 1.694990 0.000000 
#    z 0.000000 0.000000 1.846440 
# 
# From -- ./inp_files/10534.got.cif
#   From: 2010.05.17/outbox.cif.g08.bks.cpg/sg52_6_cif.got.tgz:10534.got - 2010.06.03 12:15:38.
