data_PCOD9413979
_publ_section_title
;
Structure prediction by ZEFSAII (Michael W. Deem and Ramdas Pophale) SiO2 
 PCOD9413979
Probable space group: P N N A
;
_chemical_formula_sum "Si O2"
_cell_formula_units_Z 64
_cell_length_a 9.000000
_cell_length_b 24.000000
_cell_length_c 15.000000
_cell_angle_alpha 90.000000
_cell_angle_beta 90.000000
_cell_angle_gamma 90.000000
_cell_volume 3240.000000
_symmetry_space_group_name_H-M "P N N A"
_symmetry_group_IT_number 52
_symmetry_cell_setting 'orthorhombic'
loop_
_space_group_symop_operation_xyz
x,y,z
1/2-x,-y,z
x,1/2-y,1/2-z
1/2-x,1/2+y,1/2-z
-x,-y,-z
1/2+x,y,-z
-x,1/2+y,1/2+z
1/2+x,1/2-y,1/2+z
loop_
_atom_site_type_symbol
_atom_site_label
_atom_site_fract_x
_atom_site_fract_y
_atom_site_fract_z
Si Si1 0.918946 0.009616 0.139030
Si Si2 0.487525 0.910651 0.600401
Si Si3 0.262466 0.629797 0.207426
Si Si4 0.519168 0.592383 0.521073
Si Si5 0.083795 0.476669 0.176696
Si Si6 0.782784 0.845238 0.910923
Si Si7 0.391313 0.717967 0.091895
Si Si8 0.312285 0.349028 0.952784
O O1 0.005519 0.024815 0.228081
O O2 0.750000 0.000000 0.164974
O O3 0.917366 0.056735 0.062351
O O4 0.990557 0.953770 0.096895
O O5 0.592984 0.885269 0.679647
O O6 0.317114 0.886637 0.597663
O O7 0.585275 0.889770 0.514826
O O8 0.498990 0.978004 0.614624
O O9 0.375115 0.587551 0.154568
O O10 0.287497 0.627828 0.312611
O O11 0.309591 0.691013 0.176834
O O12 0.614407 0.644763 0.556246
O O13 0.369739 0.617021 0.481142
O O14 0.250000 0.500000 0.187393
O O15 0.857810 0.784075 0.909898
O O16 0.561653 0.693393 0.089162
O O17 0.296128 0.690457 0.011340
#
# Coordination Sequence:
#
# PCOD9413979 Si02
#       8
#     8   8   8   8   8   8   8   8
#     4  11  22  37  56  86 125 161 202 253 314 369
#     4   9  19  37  63  90 123 160 200 257 325 376
#     4  10  21  38  58  87 120 163 207 251 316 381
#     4  11  23  36  58  87 116 159 207 256 309 370
#     4  10  20  37  60  89 125 165 200 251 320 384
#     4  12  22  40  60  87 121 163 213 261 307 377
#     4  10  21  38  63  85 117 161 203 256 313 359
#     4   9  19  40  62  90 121 153 207 262 310 376
#
# _framework density 19.753086
#
# number of rings (size 3 to 8) (size 9 to 14) (size 15 to 20)
#    0.000    1.750    2.500    2.625    0.000    1.000 
#    0.000   16.875    0.000    4.500    0.000    0.000 
#    0.000    0.000    0.000    0.000    0.000    0.000 
#
# Total GULP energy -356490.653172 kJ/mol
# GULP energy per Si atom -5570.166456 kJ/mol
# Density = 1.970813 g / cm^3
# Si number density = 19.753086 Si / 1000 Ang^3
#
#
#
# Elastic Constant Matrix: (Units=GPa)
#
#
# Indices 1 2 3 4 5 6 
#
# 1 84.0874 23.5278 21.3526 0.0000 0.0000 0.0000
# 2 23.5278 97.1181 17.2793 0.0000 0.0000 0.0000
# 3 21.3526 17.2793 38.9300 0.0000 0.0000 0.0000
# 4 0.0000 0.0000 0.0000 20.5866 0.0000 0.0000
# 5 0.0000 0.0000 0.0000 0.0000 26.9190 0.0000
# 6 0.0000 0.0000 0.0000 0.0000 0.0000 35.2697
#
#
#
# Elastic Compliance Matrix: (Units=1/GPa)
#
#
# Indices 1 2 3 4 5 6 
#
# 1 0.014251 -0.002239 -0.006823 0.000000 0.000000 0.000000
# 2 -0.002239 0.011531 -0.003890 0.000000 0.000000 0.000000
# 3 -0.006823 -0.003890 0.031156 0.000000 0.000000 0.000000
# 4 0.000000 0.000000 0.000000 0.048575 0.000000 0.000000
# 5 0.000000 0.000000 0.000000 0.000000 0.037148 0.000000
# 6 0.000000 0.000000 0.000000 0.000000 0.000000 0.028353
#
#
# Mechanical properties :
#
#
# Convention : Reuss Voigt Hill
#
# Bulk Modulus (GPa) = 32.22187 38.27276 35.24731
# Shear Modulus (GPa) = 24.12375 27.08677 25.60526
#
# Velocity S-wave (km/s) = 3.49845 3.70708 3.60428
# Velocity P-wave (km/s) = 5.71547 6.14336 5.93328
#
# Compressibility (1/GPa) = 0.03103482
#
# Stress axis : x y z
#
# Youngs Moduli (GPa) = 70.16882 86.72093 32.09624
#
# Poissons Ratio (x) = 0.19413 0.21899
# Poissons Ratio (y) = 0.15708 0.12487
# Poissons Ratio (z) = 0.47877 0.33738
#
# Static dielectric constant tensor:
#      x y z
#    x 1.706460 0.000000 0.000000 
#    y 0.000000 1.725800 0.000000 
#    z 0.000000 0.000000 1.711640 
# 
# From -- ./inp_files/25113.got.cif
#   From: 2010.05.17/outbox.ucp.g08.bks.cvg/sg52_13_cif.got.tgz:25113.got - 2010.06.11 16:30:12.
