data_PCOD9413669
_publ_section_title
;
Structure prediction by ZEFSAII (Michael W. Deem and Ramdas Pophale) SiO2 
 PCOD9413669
Probable space group: P N N A
;
_chemical_formula_sum "Si O2"
_cell_formula_units_Z 24
_cell_length_a 22.686534
_cell_length_b 8.634827
_cell_length_c 4.973989
_cell_angle_alpha 90.000000
_cell_angle_beta 90.000000
_cell_angle_gamma 90.000000
_cell_volume 974.376075
_symmetry_space_group_name_H-M "P N N A"
_symmetry_group_IT_number 52
_symmetry_cell_setting 'orthorhombic'
loop_
_space_group_symop_operation_xyz
x,y,z
1/2-x,-y,z
x,1/2-y,1/2-z
1/2-x,1/2+y,1/2-z
-x,-y,-z
1/2+x,y,-z
-x,1/2+y,1/2+z
1/2+x,1/2-y,1/2+z
loop_
_atom_site_type_symbol
_atom_site_label
_atom_site_fract_x
_atom_site_fract_y
_atom_site_fract_z
Si Si1 0.549903 0.250000 0.750000
Si Si2 0.771092 0.250000 0.750000
Si Si3 0.534944 0.750000 0.750000
Si Si4 0.130248 0.516446 0.064501
Si Si5 0.813783 0.750000 0.250000
O O1 0.510360 0.291247 0.490307
O O2 0.594791 0.391662 0.765330
O O3 0.812837 0.395479 0.822022
O O4 0.728785 0.280484 0.500405
O O5 0.580031 0.647819 0.932086
O O6 0.150103 0.407432 0.816248
#
# Coordination Sequence:
#
# PCOD9413669 Si02
#       5
#     4   4   4   8   4
#     4  12  25  45  75 110 143 189 247 308 368 440
#     4  11  29  50  75 108 151 198 249 307 374 448
#     4  11  27  48  73 106 147 192 243 303 372 444
#     4  11  27  48  75 108 147 194 246 305 371 443
#     4  12  27  47  75 110 149 197 251 310 372 446
#
# _framework density 24.631149000000001
#
# number of rings (size 3 to 8) (size 9 to 14) (size 15 to 20)
#    0.000    0.667    0.000    5.000    0.000   24.000 
#    0.000    0.000    0.000    0.000    0.000    0.000 
#    0.000    0.000    0.000    0.000    0.000    0.000 
#
# Total GULP energy -133918.392167 kJ/mol
# GULP energy per Si atom -5579.933007 kJ/mol
# Density = 2.457509 g / cm^3
# Si number density = 24.631149 Si / 1000 Ang^3
#
#
#
# Elastic Constant Matrix: (Units=GPa)
#
#
# Indices 1 2 3 4 5 6 
#
# 1 208.3157 90.5431 114.1929 0.0000 0.0000 0.0000
# 2 90.5431 125.4773 55.8930 0.0000 0.0000 0.0000
# 3 114.1929 55.8930 189.1490 0.0000 0.0000 0.0000
# 4 0.0000 0.0000 0.0000 39.9999 0.0000 0.0000
# 5 0.0000 0.0000 0.0000 0.0000 130.9275 0.0000
# 6 0.0000 0.0000 0.0000 0.0000 0.0000 -14.9233
#
#
#
# Elastic Compliance Matrix: (Units=1/GPa)
#
#
# Indices 1 2 3 4 5 6 
#
# 1 0.009110 -0.004749 -0.004097 0.000000 0.000000 0.000000
# 2 -0.004749 0.011653 -0.000576 0.000000 0.000000 0.000000
# 3 -0.004097 -0.000576 0.007930 0.000000 0.000000 0.000000
# 4 0.000000 0.000000 0.000000 0.025000 0.000000 0.000000
# 5 0.000000 0.000000 0.000000 0.000000 0.007638 0.000000
# 6 0.000000 0.000000 0.000000 0.000000 0.000000 -0.067009
#
#
# Mechanical properties :
#
#
# Convention : Reuss Voigt Hill
#
# Bulk Modulus (GPa) = 101.52722 116.02223 108.77473
# Shear Modulus (GPa) = 303.95498 48.68836 176.32167
#
# Velocity S-wave (km/s) = 11.12073 4.45083 8.46996
# Velocity P-wave (km/s) = 14.35976 8.58017 11.82840
#
# Compressibility (1/GPa) = 0.00984958
#
# Stress axis : x y z
#
# Youngs Moduli (GPa) = 109.76680 85.81373 126.09660
#
# Poissons Ratio (x) = 0.40753 0.51658
# Poissons Ratio (y) = 0.52128 0.07268
# Poissons Ratio (z) = 0.44968 0.04946
#
# Static dielectric constant tensor:
#      x y z
#    x 1.899600 0.000000 0.000000 
#    y 0.000000 1.957620 0.000000 
#    z 0.000000 0.000000 1.786920 
# 
# From -- ./inp_files/4746.got.cif
#   From: 2010.05.17/outbox.cif.g08.bks.cpg/sg52_3_cif.got.tgz:4746.got - 2010.06.03 12:15:38.
