data_PCOD9413914
_publ_section_title
;
Structure prediction by ZEFSAII (Michael W. Deem and Ramdas Pophale) SiO2 
 PCOD9413914
Probable space group: P N N A
;
_chemical_formula_sum "Si O2"
_cell_formula_units_Z 28
_cell_length_a 5.452837
_cell_length_b 18.915284
_cell_length_c 10.509525
_cell_angle_alpha 90.000000
_cell_angle_beta 90.000000
_cell_angle_gamma 90.000000
_cell_volume 1083.973012
_symmetry_space_group_name_H-M "P N N A"
_symmetry_group_IT_number 52
_symmetry_cell_setting 'orthorhombic'
loop_
_space_group_symop_operation_xyz
x,y,z
1/2-x,-y,z
x,1/2-y,1/2-z
1/2-x,1/2+y,1/2-z
-x,-y,-z
1/2+x,y,-z
-x,1/2+y,1/2+z
1/2+x,1/2-y,1/2+z
loop_
_atom_site_type_symbol
_atom_site_label
_atom_site_fract_x
_atom_site_fract_y
_atom_site_fract_z
Si Si1 0.983508 0.128365 0.082979
Si Si2 0.209270 0.750000 0.750000
Si Si3 0.499756 0.044137 0.655798
Si Si4 0.541653 0.176931 0.463184
O O1 0.951136 0.203083 0.155684
O O2 0.996981 0.074496 0.201431
O O3 0.732536 0.120506 0.999927
O O4 0.375758 0.810233 0.681692
O O5 0.502397 0.105677 0.547537
O O6 0.750000 0.000000 0.642833
O O7 0.250000 0.000000 0.640650
O O8 0.275639 0.209749 0.468402
#
# Coordination Sequence:
#
# PCOD9413914 Si02
#       4
#     8   4   8   8
#     4  12  29  51  81 119 163 224 268 339 411 484
#     4  12  28  54  80 122 172 204 276 342 412 498
#     4  12  28  53  84 121 165 213 280 335 405 491
#     4  12  27  50  81 120 159 213 267 336 410 476
#
# _framework density 25.830901999999998
#
# number of rings (size 3 to 8) (size 9 to 14) (size 15 to 20)
#    0.000    0.000    2.857    5.143    4.000    9.143 
#    0.000    0.000    0.000    0.000    0.000    0.000 
#    0.000    0.000    0.000    0.000    0.000    0.000 
#
# Total GULP energy -156419.185270 kJ/mol
# GULP energy per Si atom -5586.399474 kJ/mol
# Density = 2.577211 g / cm^3
# Si number density = 25.830902 Si / 1000 Ang^3
#
#
#
# Elastic Constant Matrix: (Units=GPa)
#
#
# Indices 1 2 3 4 5 6 
#
# 1 265.7927 78.4910 112.3196 0.0000 0.0000 0.0000
# 2 78.4910 106.7737 109.6061 0.0000 0.0000 0.0000
# 3 112.3196 109.6061 209.1905 0.0000 0.0000 0.0000
# 4 0.0000 0.0000 0.0000 84.1173 0.0000 0.0000
# 5 0.0000 0.0000 0.0000 0.0000 61.2014 0.0000
# 6 0.0000 0.0000 0.0000 0.0000 0.0000 49.7187
#
#
#
# Elastic Compliance Matrix: (Units=1/GPa)
#
#
# Indices 1 2 3 4 5 6 
#
# 1 0.005059 -0.002014 -0.001661 0.000000 0.000000 0.000000
# 2 -0.002014 0.021067 -0.009957 0.000000 0.000000 0.000000
# 3 -0.001661 -0.009957 0.010889 0.000000 0.000000 0.000000
# 4 0.000000 0.000000 0.000000 0.011888 0.000000 0.000000
# 5 0.000000 0.000000 0.000000 0.000000 0.016339 0.000000
# 6 0.000000 0.000000 0.000000 0.000000 0.000000 0.020113
#
#
# Mechanical properties :
#
#
# Convention : Reuss Voigt Hill
#
# Bulk Modulus (GPa) = 102.54758 131.39889 116.97324
# Shear Modulus (GPa) = 43.15182 57.76349 50.45766
#
# Velocity S-wave (km/s) = 4.09167 4.73400 4.42450
# Velocity P-wave (km/s) = 7.88087 8.99223 8.45483
#
# Compressibility (1/GPa) = 0.00975157
#
# Stress axis : x y z
#
# Youngs Moduli (GPa) = 197.66791 47.46792 91.83371
#
# Poissons Ratio (x) = 0.09558 0.15256
# Poissons Ratio (y) = 0.39803 0.91438
# Poissons Ratio (z) = 0.32838 0.47263
#
# Static dielectric constant tensor:
#      x y z
#    x 2.017800 0.000000 0.000000 
#    y 0.000000 2.212850 0.000000 
#    z 0.000000 0.000000 2.171330 
# 
# From -- ./inp_files/15921.got.cif
#   From: 2010.05.17/outbox.cif.g08.bks.cpg/sg52_8_cif.got.tgz:15921.got - 2010.06.03 12:15:38.
