data_PCOD9413824
_publ_section_title
;
Structure prediction by ZEFSAII (Michael W. Deem and Ramdas Pophale) SiO2 
 PCOD9413824
Probable space group: P N N A
;
_chemical_formula_sum "Si O2"
_cell_formula_units_Z 40
_cell_length_a 9.064824
_cell_length_b 21.798274
_cell_length_c 7.931816
_cell_angle_alpha 90.000000
_cell_angle_beta 90.000000
_cell_angle_gamma 90.000000
_cell_volume 1567.307149
_symmetry_space_group_name_H-M "P N N A"
_symmetry_group_IT_number 52
_symmetry_cell_setting 'orthorhombic'
loop_
_space_group_symop_operation_xyz
x,y,z
1/2-x,-y,z
x,1/2-y,1/2-z
1/2-x,1/2+y,1/2-z
-x,-y,-z
1/2+x,y,-z
-x,1/2+y,1/2+z
1/2+x,1/2-y,1/2+z
loop_
_atom_site_type_symbol
_atom_site_label
_atom_site_fract_x
_atom_site_fract_y
_atom_site_fract_z
Si Si1 0.892386 0.649947 0.146711
Si Si2 0.388317 0.270453 0.920433
Si Si3 0.663691 0.063721 0.638779
Si Si4 0.645940 0.854937 0.894483
Si Si5 0.102011 0.536578 0.635853
O O1 0.751596 0.693082 0.150448
O O2 0.980920 0.640146 0.317601
O O3 0.846777 0.588791 0.049427
O O4 0.010681 0.685040 0.029101
O O5 0.471778 0.250000 0.750000
O O6 0.337411 0.214275 0.039761
O O7 0.743013 0.115886 0.755583
O O8 0.500619 0.050903 0.706683
O O9 0.750000 0.000000 0.655273
O O10 0.650471 0.899836 0.052212
O O11 0.250000 0.500000 0.667477
O O12 0.000000 0.500000 0.500000
#
# Coordination Sequence:
#
# PCOD9413824 Si02
#       5
#     8   8   8   8   8
#     4  12  29  50  75 115 155 212 257 332 410 471
#     4  12  28  47  78 115 154 205 262 323 408 486
#     4  12  27  53  76 115 162 210 273 334 396 483
#     4  12  26  50  79 111 164 196 268 335 393 491
#     4  12  24  47  80 115 153 210 268 325 402 469
#
# _framework density 25.521481999999999
#
# number of rings (size 3 to 8) (size 9 to 14) (size 15 to 20)
#    0.000    0.000    6.000    3.000    8.400    2.400 
#    0.000    2.000    0.000    0.000    0.000    0.000 
#    0.000    0.000    0.000    0.000    0.000    0.000 
#
# Total GULP energy -224755.377282 kJ/mol
# GULP energy per Si atom -5618.884432 kJ/mol
# Density = 2.546339 g / cm^3
# Si number density = 25.521482 Si / 1000 Ang^3
#
#
#
# Elastic Constant Matrix: (Units=GPa)
#
#
# Indices 1 2 3 4 5 6 
#
# 1 110.4154 39.8017 20.7880 0.0000 0.0000 0.0000
# 2 39.8017 112.0057 46.9511 0.0000 0.0000 0.0000
# 3 20.7880 46.9511 84.5899 0.0000 0.0000 0.0000
# 4 0.0000 0.0000 0.0000 49.3321 0.0000 0.0000
# 5 0.0000 0.0000 0.0000 0.0000 35.8332 0.0000
# 6 0.0000 0.0000 0.0000 0.0000 0.0000 19.8576
#
#
#
# Elastic Compliance Matrix: (Units=1/GPa)
#
#
# Indices 1 2 3 4 5 6 
#
# 1 0.010415 -0.003425 -0.000658 0.000000 0.000000 0.000000
# 2 -0.003425 0.012762 -0.006242 0.000000 0.000000 0.000000
# 3 -0.000658 -0.006242 0.015448 0.000000 0.000000 0.000000
# 4 0.000000 0.000000 0.000000 0.020271 0.000000 0.000000
# 5 0.000000 0.000000 0.000000 0.000000 0.027907 0.000000
# 6 0.000000 0.000000 0.000000 0.000000 0.000000 0.050359
#
#
# Mechanical properties :
#
#
# Convention : Reuss Voigt Hill
#
# Bulk Modulus (GPa) = 55.63411 58.01029 56.82220
# Shear Modulus (GPa) = 30.52447 34.30259 32.41353
#
# Velocity S-wave (km/s) = 3.46212 3.67013 3.56764
# Velocity P-wave (km/s) = 6.15044 6.38272 6.26766
#
# Compressibility (1/GPa) = 0.01797458
#
# Stress axis : x y z
#
# Youngs Moduli (GPa) = 96.01219 78.36010 64.73373
#
# Poissons Ratio (x) = 0.26839 0.04263
# Poissons Ratio (y) = 0.32885 0.40404
# Poissons Ratio (z) = 0.06322 0.48909
#
# Static dielectric constant tensor:
#      x y z
#    x 1.972310 0.000000 0.000000 
#    y 0.000000 2.011770 0.000000 
#    z 0.000000 0.000000 2.041260 
# 
# From -- ./inp_files/7442.got.cif
#   From: 2010.05.17/outbox.cif.g08.bks.cpg/sg52_4_cif.got.tgz:7442.got - 2010.06.03 12:15:38.
