data_PCOD9413570
_publ_section_title
;
Structure prediction by ZEFSAII (Michael W. Deem and Ramdas Pophale) SiO2 
 PCOD9413570
Probable space group: P N N A
;
_chemical_formula_sum "Si O2"
_cell_formula_units_Z 32
_cell_length_a 16.955726
_cell_length_b 12.293205
_cell_length_c 6.898335
_cell_angle_alpha 90.000000
_cell_angle_beta 90.000000
_cell_angle_gamma 90.000000
_cell_volume 1437.890435
_symmetry_space_group_name_H-M "P N N A"
_symmetry_group_IT_number 52
_symmetry_cell_setting 'orthorhombic'
loop_
_space_group_symop_operation_xyz
x,y,z
1/2-x,-y,z
x,1/2-y,1/2-z
1/2-x,1/2+y,1/2-z
-x,-y,-z
1/2+x,y,-z
-x,1/2+y,1/2+z
1/2+x,1/2-y,1/2+z
loop_
_atom_site_type_symbol
_atom_site_label
_atom_site_fract_x
_atom_site_fract_y
_atom_site_fract_z
Si Si1 0.089365 0.250000 0.750000
Si Si2 0.138723 0.750000 0.750000
Si Si3 0.995858 0.619715 0.914153
Si Si4 0.310757 0.349619 0.375612
Si Si5 0.636678 0.406195 0.594860
O O1 0.037624 0.191283 0.588067
O O2 0.129946 0.345823 0.615211
O O3 0.192046 0.695900 0.590651
O O4 0.080315 0.662008 0.844782
O O5 0.936087 0.624949 0.732174
O O6 0.000000 0.500000 0.000000
O O7 0.344771 0.250000 0.250000
O O8 0.358917 0.461851 0.396301
O O9 0.221015 0.372841 0.312054
#
# Coordination Sequence:
#
# PCOD9413570 Si02
#       5
#     4   4   8   8   8
#     4  12  23  44  70  95 148 178 236 302 361 444
#     4  12  25  42  66 107 134 180 250 288 359 436
#     4  12  26  42  70 104 140 185 241 302 364 435
#     4  11  25  44  71 100 147 189 244 305 362 450
#     4  11  25  46  70 105 142 196 240 298 385 434
#
# _framework density 22.254825
#
# number of rings (size 3 to 8) (size 9 to 14) (size 15 to 20)
#    0.000    0.500    2.500    5.250    5.250    2.000 
#    0.000    5.000    0.000    0.000    0.000    0.000 
#    0.000    0.000    0.000    0.000    0.000    0.000 
#
# Total GULP energy -178763.692191 kJ/mol
# GULP energy per Si atom -5586.365381 kJ/mol
# Density = 2.220417 g / cm^3
# Si number density = 22.254825 Si / 1000 Ang^3
#
#
#
# Elastic Constant Matrix: (Units=GPa)
#
#
# Indices 1 2 3 4 5 6 
#
# 1 69.2781 8.5300 22.9500 0.0000 0.0000 0.0000
# 2 8.5300 171.1536 55.5008 0.0000 0.0000 0.0000
# 3 22.9500 55.5008 114.8002 0.0000 0.0000 0.0000
# 4 0.0000 0.0000 0.0000 50.9139 0.0000 0.0000
# 5 0.0000 0.0000 0.0000 0.0000 -4.1602 0.0000
# 6 0.0000 0.0000 0.0000 0.0000 0.0000 1506.3976
#
#
#
# Elastic Compliance Matrix: (Units=1/GPa)
#
#
# Indices 1 2 3 4 5 6 
#
# 1 0.015469 0.000275 -0.003225 0.000000 0.000000 0.000000
# 2 0.000275 0.006934 -0.003407 0.000000 0.000000 0.000000
# 3 -0.003225 -0.003407 0.011003 0.000000 0.000000 0.000000
# 4 0.000000 0.000000 0.000000 0.019641 0.000000 0.000000
# 5 0.000000 0.000000 0.000000 0.000000 -0.240373 0.000000
# 6 0.000000 0.000000 0.000000 0.000000 0.000000 0.000664
#
#
# Mechanical properties :
#
#
# Convention : Reuss Voigt Hill
#
# Bulk Modulus (GPa) = 48.33111 58.79928 53.56519
# Shear Modulus (GPa) = -29.93110 328.51368 149.29129
#
# Velocity S-wave (km/s) = -3.67130 12.16286 8.19929
# Velocity P-wave (km/s) = 1.94756 14.95744 10.66579
#
# Compressibility (1/GPa) = 0.02069061
#
# Stress axis : x y z
#
# Youngs Moduli (GPa) = 64.64452 144.21967 90.88587
#
# Poissons Ratio (x) = -0.03966 0.29315
# Poissons Ratio (y) = -0.01778 0.30967
# Poissons Ratio (z) = 0.20851 0.49138
#
# Static dielectric constant tensor:
#      x y z
#    x 1.786870 0.000000 0.000000 
#    y 0.000000 -11.691780 0.000000 
#    z 0.000000 0.000000 1.785390 
# 
# From -- ./inp_files/3014.got.cif
#   From: 2010.05.17/outbox.cif.g08.bks.cpg/sg52_2_cif.got.tgz:3014.got - 2010.06.03 12:15:38.
