data_PCOD9413711
_publ_section_title
;
Structure prediction by ZEFSAII (Michael W. Deem and Ramdas Pophale) SiO2 
 PCOD9413711
Probable space group: P N N A
;
_chemical_formula_sum "Si O2"
_cell_formula_units_Z 48
_cell_length_a 22.825820
_cell_length_b 9.432538
_cell_length_c 10.811561
_cell_angle_alpha 90.000000
_cell_angle_beta 90.000000
_cell_angle_gamma 90.000000
_cell_volume 2327.787623
_symmetry_space_group_name_H-M "P N N A"
_symmetry_group_IT_number 52
_symmetry_cell_setting 'orthorhombic'
loop_
_space_group_symop_operation_xyz
x,y,z
1/2-x,-y,z
x,1/2-y,1/2-z
1/2-x,1/2+y,1/2-z
-x,-y,-z
1/2+x,y,-z
-x,1/2+y,1/2+z
1/2+x,1/2-y,1/2+z
loop_
_atom_site_type_symbol
_atom_site_label
_atom_site_fract_x
_atom_site_fract_y
_atom_site_fract_z
Si Si1 0.222037 0.153038 0.362514
Si Si2 0.892384 0.743149 0.960581
Si Si3 0.972001 0.275449 0.103262
Si Si4 0.116340 0.957709 0.934945
Si Si5 0.215015 0.724702 0.887899
Si Si6 0.615470 0.010124 0.350410
O O1 0.242952 0.250000 0.250000
O O2 0.151672 0.162448 0.368315
O O3 0.242164 0.207134 0.497541
O O4 0.250000 0.000000 0.346321
O O5 0.960033 0.725941 0.925976
O O6 0.882333 0.662772 0.089741
O O7 0.877827 0.909442 0.974695
O O8 0.963782 0.250000 0.250000
O O9 0.937590 0.147818 0.035344
O O10 0.936958 0.421519 0.083944
O O11 0.172721 0.856436 0.921564
O O12 0.106023 0.015076 0.795993
O O13 0.240502 0.750000 0.750000
O O14 0.173455 0.585354 0.875884
#
# Coordination Sequence:
#
# PCOD9413711 Si02
#       6
#     8   8   8   8   8   8
#     4  12  28  46  63  90 135 175 216 266 314 382
#     4  12  21  35  61  91 119 167 213 252 313 389
#     4   9  19  37  56  83 125 163 202 257 323 383
#     4   9  20  35  63  92 121 151 203 272 327 373
#     4   9  20  44  67  89 120 166 214 265 324 370
#     4   9  18  37  61  89 121 156 201 272 322 371
#
# _framework density 20.620438
#
# number of rings (size 3 to 8) (size 9 to 14) (size 15 to 20)
#    0.000    2.000    1.667    4.000    2.333    1.333 
#    0.000    0.000    0.000    0.000    0.000    0.000 
#    0.000    0.000    0.000    0.000    0.000    0.000 
#
# Total GULP energy -268058.181515 kJ/mol
# GULP energy per Si atom -5584.545448 kJ/mol
# Density = 2.057350 g / cm^3
# Si number density = 20.620438 Si / 1000 Ang^3
#
#
#
# Elastic Constant Matrix: (Units=GPa)
#
#
# Indices 1 2 3 4 5 6 
#
# 1 89.4072 37.6537 28.8012 0.0000 0.0000 0.0000
# 2 37.6537 111.0859 23.6876 0.0000 0.0000 0.0000
# 3 28.8012 23.6876 58.2017 0.0000 0.0000 0.0000
# 4 0.0000 0.0000 0.0000 27.4400 0.0000 0.0000
# 5 0.0000 0.0000 0.0000 0.0000 282.2591 0.0000
# 6 0.0000 0.0000 0.0000 0.0000 0.0000 13.1797
#
#
#
# Elastic Compliance Matrix: (Units=1/GPa)
#
#
# Indices 1 2 3 4 5 6 
#
# 1 0.014593 -0.003730 -0.005703 0.000000 0.000000 0.000000
# 2 -0.003730 0.010811 -0.002554 0.000000 0.000000 0.000000
# 3 -0.005703 -0.002554 0.021043 0.000000 0.000000 0.000000
# 4 0.000000 0.000000 0.000000 0.036443 0.000000 0.000000
# 5 0.000000 0.000000 0.000000 0.000000 0.003543 0.000000
# 6 0.000000 0.000000 0.000000 0.000000 0.000000 0.075874
#
#
# Mechanical properties :
#
#
# Convention : Reuss Voigt Hill
#
# Bulk Modulus (GPa) = 44.49918 48.77554 46.63736
# Shear Modulus (GPa) = 25.80335 75.81258 50.80797
#
# Velocity S-wave (km/s) = 3.54128 6.07005 4.96922
# Velocity P-wave (km/s) = 6.19256 8.53421 7.45589
#
# Compressibility (1/GPa) = 0.02247233
#
# Stress axis : x y z
#
# Youngs Moduli (GPa) = 68.52606 92.49757 47.52096
#
# Poissons Ratio (x) = 0.34505 0.27102
# Poissons Ratio (y) = 0.25562 0.12137
# Poissons Ratio (z) = 0.39082 0.23625
#
# Static dielectric constant tensor:
#      x y z
#    x 1.761070 0.000000 0.000000 
#    y 0.000000 1.704210 0.000000 
#    z 0.000000 0.000000 1.730340 
# 
# From -- ./inp_files/22305.got.cif
#   From: 2010.05.17/outbox.cif.g08.bks.cpg/sg52_12_cif.got.tgz:22305.got - 2010.06.03 12:15:38.
