data_PCOD9413931
_publ_section_title
;
Structure prediction by ZEFSAII (Michael W. Deem and Ramdas Pophale) SiO2 
 PCOD9413931
Probable space group: P N N A
;
_chemical_formula_sum "Si O2"
_cell_formula_units_Z 20
_cell_length_a 5.180648
_cell_length_b 4.944855
_cell_length_c 33.490887
_cell_angle_alpha 90.000000
_cell_angle_beta 90.000000
_cell_angle_gamma 90.000000
_cell_volume 857.954578
_symmetry_space_group_name_H-M "P N N A"
_symmetry_group_IT_number 52
_symmetry_cell_setting 'orthorhombic'
loop_
_space_group_symop_operation_xyz
x,y,z
1/2-x,-y,z
x,1/2-y,1/2-z
1/2-x,1/2+y,1/2-z
-x,-y,-z
1/2+x,y,-z
-x,1/2+y,1/2+z
1/2+x,1/2-y,1/2+z
loop_
_atom_site_type_symbol
_atom_site_label
_atom_site_fract_x
_atom_site_fract_y
_atom_site_fract_z
Si Si1 0.250000 0.000000 0.586663
Si Si2 0.998943 0.309685 0.654230
Si Si3 0.250000 0.500000 0.223256
Si Si4 0.750000 0.500000 0.471809
O O1 0.467137 0.891739 0.617019
O O2 0.201951 0.751355 0.557487
O O3 0.250000 0.500000 0.656015
O O4 0.750000 0.500000 0.650007
O O5 0.959925 0.132693 0.693919
O O6 0.152478 0.250000 0.250000
O O7 0.500000 0.500000 0.500000
#
# Coordination Sequence:
#
# PCOD9413931 Si02
#       4
#     4   8   4   4
#     4  12  28  54  83 113 162 204 268 321 381 500
#     4  12  28  55  82 118 156 218 268 324 401 467
#     4  12  28  54  78 120 166 210 268 344 392 466
#     4  12  30  50  81 119 158 202 252 327 407 458
#
# _framework density 23.311259
#
# number of rings (size 3 to 8) (size 9 to 14) (size 15 to 20)
#    0.000    0.000    4.000    3.600    2.800    3.200 
#   10.800    0.000    0.000    0.000    0.000    0.000 
#    0.000    0.000    0.000    0.000    0.000    0.000 
#
# Total GULP energy -112068.507514 kJ/mol
# GULP energy per Si atom -5603.425376 kJ/mol
# Density = 2.325820 g / cm^3
# Si number density = 23.311259 Si / 1000 Ang^3
#
#
#
# Elastic Constant Matrix: (Units=GPa)
#
#
# Indices 1 2 3 4 5 6 
#
# 1 194.7631 87.7933 81.9976 0.0000 0.0000 0.0000
# 2 87.7933 231.0669 124.5952 0.0000 0.0000 0.0000
# 3 81.9976 124.5952 216.6113 0.0000 0.0000 0.0000
# 4 0.0000 0.0000 0.0000 160.8878 0.0000 0.0000
# 5 0.0000 0.0000 0.0000 0.0000 48.2272 0.0000
# 6 0.0000 0.0000 0.0000 0.0000 0.0000 38.7441
#
#
#
# Elastic Compliance Matrix: (Units=1/GPa)
#
#
# Indices 1 2 3 4 5 6 
#
# 1 0.006520 -0.001662 -0.001512 0.000000 0.000000 0.000000
# 2 -0.001662 0.006697 -0.003223 0.000000 0.000000 0.000000
# 3 -0.001512 -0.003223 0.007043 0.000000 0.000000 0.000000
# 4 0.000000 0.000000 0.000000 0.006216 0.000000 0.000000
# 5 0.000000 0.000000 0.000000 0.000000 0.020735 0.000000
# 6 0.000000 0.000000 0.000000 0.000000 0.000000 0.025810
#
#
# Mechanical properties :
#
#
# Convention : Reuss Voigt Hill
#
# Bulk Modulus (GPa) = 133.94448 136.80152 135.37300
# Shear Modulus (GPa) = 56.62212 72.77548 64.69880
#
# Velocity S-wave (km/s) = 4.93380 5.59346 5.27395
# Velocity P-wave (km/s) = 9.48896 10.02636 9.76136
#
# Compressibility (1/GPa) = 0.00746578
#
# Stress axis : x y z
#
# Youngs Moduli (GPa) = 153.36772 149.31754 141.98549
#
# Poissons Ratio (x) = 0.24815 0.21473
# Poissons Ratio (y) = 0.25488 0.45763
# Poissons Ratio (z) = 0.23194 0.48126
#
# Static dielectric constant tensor:
#      x y z
#    x 1.868000 0.000000 0.000000 
#    y 0.000000 1.874820 0.000000 
#    z 0.000000 0.000000 1.865710 
# 
# From -- ./inp_files/43400.got.cif
#   From: 2010.05.17/outbox.cif.g08.bks.cpg/sg52_22_cif.got.tgz:43400.got - 2010.06.03 12:15:38.
