data_PCOD9413572
_publ_section_title
;
Structure prediction by ZEFSAII (Michael W. Deem and Ramdas Pophale) SiO2 
 PCOD9413572
Probable space group: P N N A
;
_chemical_formula_sum "Si O2"
_cell_formula_units_Z 40
_cell_length_a 8.260782
_cell_length_b 15.254428
_cell_length_c 14.107630
_cell_angle_alpha 90.000000
_cell_angle_beta 90.000000
_cell_angle_gamma 90.000000
_cell_volume 1777.751893
_symmetry_space_group_name_H-M "P N N A"
_symmetry_group_IT_number 52
_symmetry_cell_setting 'orthorhombic'
loop_
_space_group_symop_operation_xyz
x,y,z
1/2-x,-y,z
x,1/2-y,1/2-z
1/2-x,1/2+y,1/2-z
-x,-y,-z
1/2+x,y,-z
-x,1/2+y,1/2+z
1/2+x,1/2-y,1/2+z
loop_
_atom_site_type_symbol
_atom_site_label
_atom_site_fract_x
_atom_site_fract_y
_atom_site_fract_z
Si Si1 0.596781 0.857894 0.802373
Si Si2 0.439272 0.482132 0.604270
Si Si3 0.338485 0.404043 0.935185
Si Si4 0.522472 0.188110 0.396233
Si Si5 0.472416 0.849716 0.249302
O O1 0.484095 0.842927 0.712005
O O2 0.554511 0.785680 0.883886
O O3 0.777694 0.851121 0.761329
O O4 0.552843 0.953377 0.836343
O O5 0.250000 0.500000 0.611802
O O6 0.500000 0.500000 0.500000
O O7 0.465278 0.389005 0.651041
O O8 0.250000 0.500000 0.938122
O O9 0.457247 0.397726 0.843178
O O10 0.206952 0.325869 0.925740
O O11 0.428497 0.377187 0.032342
O O12 0.526065 0.750000 0.250000
#
# Coordination Sequence:
#
# PCOD9413572 Si02
#       5
#     8   8   8   8   8
#     4  11  25  49  72 106 152 192 254 302 382 452
#     4  12  28  48  78 110 150 201 257 314 376 455
#     4  12  27  46  76 110 152 193 254 314 389 457
#     4  11  25  44  72 106 144 198 240 308 374 458
#     4  12  26  47  76 111 150 199 252 318 377 449
#
# _framework density 22.500326999999999
#
# number of rings (size 3 to 8) (size 9 to 14) (size 15 to 20)
#    0.000    0.400    2.000    6.600    8.400    1.600 
#    0.000    0.000    0.000    0.000    0.000    0.000 
#    0.000    0.000    0.000    0.000    0.000    0.000 
#
# Total GULP energy -223476.257076 kJ/mol
# GULP energy per Si atom -5586.906427 kJ/mol
# Density = 2.244911 g / cm^3
# Si number density = 22.500327 Si / 1000 Ang^3
#
#
#
# Elastic Constant Matrix: (Units=GPa)
#
#
# Indices 1 2 3 4 5 6 
#
# 1 64.5397 40.0492 21.5274 0.0000 0.0000 0.0000
# 2 40.0492 121.4607 51.5893 0.0000 0.0000 0.0000
# 3 21.5274 51.5893 111.4472 0.0000 0.0000 0.0000
# 4 0.0000 0.0000 0.0000 49.9791 0.0000 0.0000
# 5 0.0000 0.0000 0.0000 0.0000 64.8784 0.0000
# 6 0.0000 0.0000 0.0000 0.0000 0.0000 21.7762
#
#
#
# Elastic Compliance Matrix: (Units=1/GPa)
#
#
# Indices 1 2 3 4 5 6 
#
# 1 0.019567 -0.006033 -0.000987 0.000000 0.000000 0.000000
# 2 -0.006033 0.012108 -0.004440 0.000000 0.000000 0.000000
# 3 -0.000987 -0.004440 0.011219 0.000000 0.000000 0.000000
# 4 0.000000 0.000000 0.000000 0.020008 0.000000 0.000000
# 5 0.000000 0.000000 0.000000 0.000000 0.015413 0.000000
# 6 0.000000 0.000000 0.000000 0.000000 0.000000 0.045922
#
#
# Mechanical properties :
#
#
# Convention : Reuss Voigt Hill
#
# Bulk Modulus (GPa) = 50.06230 58.19770 54.13000
# Shear Modulus (GPa) = 32.50683 39.61218 36.05951
#
# Velocity S-wave (km/s) = 3.80508 4.20040 4.00762
# Velocity P-wave (km/s) = 6.45002 7.03178 6.74717
#
# Compressibility (1/GPa) = 0.01997511
#
# Stress axis : x y z
#
# Youngs Moduli (GPa) = 51.10641 82.59085 89.13767
#
# Poissons Ratio (x) = 0.49823 0.08799
# Poissons Ratio (y) = 0.30830 0.39573
# Poissons Ratio (z) = 0.05045 0.36666
#
# Static dielectric constant tensor:
#      x y z
#    x 1.783220 0.000000 0.000000 
#    y 0.000000 1.867940 0.000000 
#    z 0.000000 0.000000 1.819790 
# 
# From -- ./inp_files/16629.got.cif
#   From: 2010.05.17/outbox.cif.g08.bks.cpg/sg52_9_cif.got.tgz:16629.got - 2010.06.03 12:15:38.
