data_PCOD9413422
_publ_section_title
;
Structure prediction by ZEFSAII (Michael W. Deem and Ramdas Pophale) SiO2 
 PCOD9413422
Probable space group: P N N A
;
_chemical_formula_sum "Si O2"
_cell_formula_units_Z 32
_cell_length_a 14.801382
_cell_length_b 18.124311
_cell_length_c 4.973360
_cell_angle_alpha 90.000000
_cell_angle_beta 90.000000
_cell_angle_gamma 90.000000
_cell_volume 1334.177677
_symmetry_space_group_name_H-M "P N N A"
_symmetry_group_IT_number 52
_symmetry_cell_setting 'orthorhombic'
loop_
_space_group_symop_operation_xyz
x,y,z
1/2-x,-y,z
x,1/2-y,1/2-z
1/2-x,1/2+y,1/2-z
-x,-y,-z
1/2+x,y,-z
-x,1/2+y,1/2+z
1/2+x,1/2-y,1/2+z
loop_
_atom_site_type_symbol
_atom_site_label
_atom_site_fract_x
_atom_site_fract_y
_atom_site_fract_z
Si Si1 0.837598 0.177928 0.103517
Si Si2 0.628769 0.297485 0.498937
Si Si3 0.606487 0.589464 0.915583
Si Si4 0.443713 0.947734 0.201226
O O1 0.879752 0.250000 0.250000
O O2 0.831019 0.119396 0.345946
O O3 0.737644 0.199585 0.012043
O O4 0.887187 0.142528 0.845267
O O5 0.599852 0.250000 0.750000
O O6 0.596362 0.380419 0.537055
O O7 0.595481 0.250000 0.250000
O O8 0.626703 0.505566 0.827696
O O9 0.508882 0.583610 0.064032
O O10 0.500000 0.000000 0.000000
#
# Coordination Sequence:
#
# PCOD9413422 Si02
#       4
#     8   8   8   8
#     4  11  23  47  71 107 146 187 248 298 359 429
#     4  11  27  48  75 103 146 193 240 301 365 433
#     4  11  24  45  74 103 145 193 232 308 349 441
#     4  11  26  50  70 109 149 186 245 295 365 435
#
# _framework density 23.984811000000001
#
# number of rings (size 3 to 8) (size 9 to 14) (size 15 to 20)
#    0.000    1.000    2.500    3.750    7.000    2.000 
#    9.000    0.000    0.000    0.000    0.000    0.000 
#    0.000    0.000    0.000    0.000    0.000    0.000 
#
# Total GULP energy -179085.891419 kJ/mol
# GULP energy per Si atom -5596.434107 kJ/mol
# Density = 2.393022 g / cm^3
# Si number density = 23.984811 Si / 1000 Ang^3
#
#
#
# Elastic Constant Matrix: (Units=GPa)
#
#
# Indices 1 2 3 4 5 6 
#
# 1 52.0635 43.6916 34.6449 0.0000 0.0000 0.0000
# 2 43.6916 177.8711 99.6662 0.0000 0.0000 0.0000
# 3 34.6449 99.6662 219.3256 0.0000 0.0000 0.0000
# 4 0.0000 0.0000 0.0000 67.6019 0.0000 0.0000
# 5 0.0000 0.0000 0.0000 0.0000 57.5882 0.0000
# 6 0.0000 0.0000 0.0000 0.0000 0.0000 50.3150
#
#
#
# Elastic Compliance Matrix: (Units=1/GPa)
#
#
# Indices 1 2 3 4 5 6 
#
# 1 0.024570 -0.005179 -0.001528 0.000000 0.000000 0.000000
# 2 -0.005179 0.008634 -0.003106 0.000000 0.000000 0.000000
# 3 -0.001528 -0.003106 0.006212 0.000000 0.000000 0.000000
# 4 0.000000 0.000000 0.000000 0.014792 0.000000 0.000000
# 5 0.000000 0.000000 0.000000 0.000000 0.017365 0.000000
# 6 0.000000 0.000000 0.000000 0.000000 0.000000 0.019875
#
#
# Mechanical properties :
#
#
# Convention : Reuss Voigt Hill
#
# Bulk Modulus (GPa) = 50.52611 89.47397 70.00004
# Shear Modulus (GPa) = 42.49141 53.18485 47.83813
#
# Velocity S-wave (km/s) = 4.21360 4.71408 4.47085
# Velocity P-wave (km/s) = 6.69210 8.18630 7.47662
#
# Compressibility (1/GPa) = 0.01979175
#
# Stress axis : x y z
#
# Youngs Moduli (GPa) = 40.69944 115.81560 160.98063
#
# Poissons Ratio (x) = 0.59986 0.24590
# Poissons Ratio (y) = 0.21080 0.49993
# Poissons Ratio (z) = 0.06217 0.35967
#
# Static dielectric constant tensor:
#      x y z
#    x 1.948660 0.000000 0.000000 
#    y 0.000000 1.932910 0.000000 
#    z 0.000000 0.000000 1.914300 
# 
# From -- ./inp_files/3072.got.cif
#   From: 2010.05.17/outbox.cif.g08.bks.cpg/sg52_2_cif.got.tgz:3072.got - 2010.06.03 12:15:38.
