data_PCOD9413683
_publ_section_title
;
Structure prediction by ZEFSAII (Michael W. Deem and Ramdas Pophale) SiO2 
 PCOD9413683
Probable space group: P N N A
;
_chemical_formula_sum "Si O2"
_cell_formula_units_Z 40
_cell_length_a 12.393411
_cell_length_b 11.858419
_cell_length_c 11.817923
_cell_angle_alpha 90.000000
_cell_angle_beta 90.000000
_cell_angle_gamma 90.000000
_cell_volume 1736.835950
_symmetry_space_group_name_H-M "P N N A"
_symmetry_group_IT_number 52
_symmetry_cell_setting 'orthorhombic'
loop_
_space_group_symop_operation_xyz
x,y,z
1/2-x,-y,z
x,1/2-y,1/2-z
1/2-x,1/2+y,1/2-z
-x,-y,-z
1/2+x,y,-z
-x,1/2+y,1/2+z
1/2+x,1/2-y,1/2+z
loop_
_atom_site_type_symbol
_atom_site_label
_atom_site_fract_x
_atom_site_fract_y
_atom_site_fract_z
Si Si1 0.678859 0.389172 0.493826
Si Si2 0.721602 0.811400 0.357452
Si Si3 0.308164 0.623272 0.243503
Si Si4 0.441976 0.871651 0.773145
Si Si5 0.505471 0.937282 0.382867
O O1 0.750000 0.500000 0.467700
O O2 0.743279 0.277290 0.452723
O O3 0.654381 0.391752 0.625941
O O4 0.580374 0.388820 0.405082
O O5 0.669330 0.750000 0.250000
O O6 0.828198 0.865149 0.298609
O O7 0.625325 0.888980 0.392922
O O8 0.250000 0.500000 0.216172
O O9 0.252562 0.750000 0.250000
O O10 0.403677 0.639672 0.150214
O O11 0.492307 0.750000 0.750000
O O12 0.502598 0.973464 0.718552
O O13 0.500000 0.000000 0.500000
#
# Coordination Sequence:
#
# PCOD9413683 Si02
#       5
#     8   8   8   8   8
#     4   9  19  40  69  93 124 181 231 287 349 407
#     4   9  19  40  70  94 131 171 230 290 343 413
#     4  11  28  47  68  99 143 191 235 292 365 423
#     4   9  20  40  67  97 132 176 232 288 345 413
#     4  12  26  39  65 106 139 185 229 286 349 427
#
# _framework density 23.030384000000002
#
# number of rings (size 3 to 8) (size 9 to 14) (size 15 to 20)
#    0.000    2.400    0.000    3.600    8.400    1.600 
#    3.600    0.000    0.000    0.000    0.000    0.000 
#    0.000    0.000    0.000    0.000    0.000    0.000 
#
# Total GULP energy -222868.911453 kJ/mol
# GULP energy per Si atom -5571.722786 kJ/mol
# Density = 2.297797 g / cm^3
# Si number density = 23.030384 Si / 1000 Ang^3
#
#
#
# Elastic Constant Matrix: (Units=GPa)
#
#
# Indices 1 2 3 4 5 6 
#
# 1 62.2314 25.8730 15.0702 0.0000 0.0000 0.0000
# 2 25.8730 98.5344 9.8886 0.0000 0.0000 0.0000
# 3 15.0702 9.8886 114.2801 0.0000 0.0000 0.0000
# 4 0.0000 0.0000 0.0000 34.3003 0.0000 0.0000
# 5 0.0000 0.0000 0.0000 0.0000 11.0737 0.0000
# 6 0.0000 0.0000 0.0000 0.0000 0.0000 74.1040
#
#
#
# Elastic Compliance Matrix: (Units=1/GPa)
#
#
# Indices 1 2 3 4 5 6 
#
# 1 0.018497 -0.004652 -0.002037 0.000000 0.000000 0.000000
# 2 -0.004652 0.011408 -0.000374 0.000000 0.000000 0.000000
# 3 -0.002037 -0.000374 0.009051 0.000000 0.000000 0.000000
# 4 0.000000 0.000000 0.000000 0.029154 0.000000 0.000000
# 5 0.000000 0.000000 0.000000 0.000000 0.090304 0.000000
# 6 0.000000 0.000000 0.000000 0.000000 0.000000 0.013495
#
#
# Mechanical properties :
#
#
# Convention : Reuss Voigt Hill
#
# Bulk Modulus (GPa) = 40.27300 41.85660 41.06480
# Shear Modulus (GPa) = 25.73205 38.84321 32.28763
#
# Velocity S-wave (km/s) = 3.34624 4.11129 3.74833
# Velocity P-wave (km/s) = 5.69690 6.38364 6.05002
#
# Compressibility (1/GPa) = 0.02483053
#
# Stress axis : x y z
#
# Youngs Moduli (GPa) = 54.06424 87.65896 110.48104
#
# Poissons Ratio (x) = 0.40782 0.22500
# Poissons Ratio (y) = 0.25153 0.04128
# Poissons Ratio (z) = 0.11011 0.03275
#
# Static dielectric constant tensor:
#      x y z
#    x 1.892620 0.000000 0.000000 
#    y 0.000000 1.840940 0.000000 
#    z 0.000000 0.000000 1.816890 
# 
# From -- ./inp_files/19255.got.cif
#   From: 2010.05.17/outbox.cif.g08.bks.cpg/sg52_10_cif.got.tgz:19255.got - 2010.06.03 12:15:38.
