data_PCOD9413936
_publ_section_title
;
Structure prediction by ZEFSAII (Michael W. Deem and Ramdas Pophale) SiO2 
 PCOD9413936
Probable space group: P N N A
;
_chemical_formula_sum "Si O2"
_cell_formula_units_Z 24
_cell_length_a 9.282567
_cell_length_b 17.232501
_cell_length_c 4.866609
_cell_angle_alpha 90.000000
_cell_angle_beta 90.000000
_cell_angle_gamma 90.000000
_cell_volume 778.471755
_symmetry_space_group_name_H-M "P N N A"
_symmetry_group_IT_number 52
_symmetry_cell_setting 'orthorhombic'
loop_
_space_group_symop_operation_xyz
x,y,z
1/2-x,-y,z
x,1/2-y,1/2-z
1/2-x,1/2+y,1/2-z
-x,-y,-z
1/2+x,y,-z
-x,1/2+y,1/2+z
1/2+x,1/2-y,1/2+z
loop_
_atom_site_type_symbol
_atom_site_label
_atom_site_fract_x
_atom_site_fract_y
_atom_site_fract_z
Si Si1 0.745801 0.389024 0.427178
Si Si2 0.128379 0.250000 0.250000
Si Si3 0.250000 0.500000 0.079880
Si Si4 0.972170 0.908101 0.607236
O O1 0.716505 0.302584 0.532508
O O2 0.671962 0.427811 0.153950
O O3 0.671953 0.435857 0.683369
O O4 0.912512 0.401224 0.375142
O O5 0.043902 0.186057 0.426470
O O6 0.094543 0.548917 0.073838
#
# Coordination Sequence:
#
# PCOD9413936 Si02
#       4
#     8   4   4   8
#     4   8  13  23  36  54  73  94 114 141 176 211
#     4   6  16  22  34  50  80  90 118 134 180 208
#     4   6  14  18  38  54  72  88 110 144 186 206
#     4   8  13  23  36  54  73  94 114 141 176 211
#
# _framework density 30.829636000000001
#
# number of rings (size 3 to 8) (size 9 to 14) (size 15 to 20)
#    4.000    0.000    0.000    1.000    0.000    0.000 
#    0.000    1.667    0.000    0.000    0.000   37.333 
#    0.000    0.000    0.000    0.000    0.000    0.000 
#
# Total GULP energy -133865.091578 kJ/mol
# GULP energy per Si atom -5577.712149 kJ/mol
# Density = 3.075947 g / cm^3
# Si number density = 30.829636 Si / 1000 Ang^3
#
#
#
# Elastic Constant Matrix: (Units=GPa)
#
#
# Indices 1 2 3 4 5 6 
#
# 1 403.3930 173.6986 94.8087 0.0000 0.0000 0.0000
# 2 173.6986 277.5658 115.6123 0.0000 0.0000 0.0000
# 3 94.8087 115.6123 299.6291 0.0000 0.0000 0.0000
# 4 0.0000 0.0000 0.0000 43.5027 0.0000 0.0000
# 5 0.0000 0.0000 0.0000 0.0000 51.6532 0.0000
# 6 0.0000 0.0000 0.0000 0.0000 0.0000 85.1545
#
#
#
# Elastic Compliance Matrix: (Units=1/GPa)
#
#
# Indices 1 2 3 4 5 6 
#
# 1 0.003417 -0.002011 -0.000305 0.000000 0.000000 0.000000
# 2 -0.002011 0.005476 -0.001477 0.000000 0.000000 0.000000
# 3 -0.000305 -0.001477 0.004004 0.000000 0.000000 0.000000
# 4 0.000000 0.000000 0.000000 0.022987 0.000000 0.000000
# 5 0.000000 0.000000 0.000000 0.000000 0.019360 0.000000
# 6 0.000000 0.000000 0.000000 0.000000 0.000000 0.011743
#
#
# Mechanical properties :
#
#
# Convention : Reuss Voigt Hill
#
# Bulk Modulus (GPa) = 188.28798 194.31410 191.30104
# Shear Modulus (GPa) = 65.49383 75.82663 70.66023
#
# Velocity S-wave (km/s) = 4.61410 4.96475 4.79263
# Velocity P-wave (km/s) = 9.46535 9.79950 9.63387
#
# Compressibility (1/GPa) = 0.00531101
#
# Stress axis : x y z
#
# Youngs Moduli (GPa) = 292.68787 182.60513 249.76228
#
# Poissons Ratio (x) = 0.36722 0.07621
# Poissons Ratio (y) = 0.58859 0.36883
# Poissons Ratio (z) = 0.08931 0.26966
#
# Static dielectric constant tensor:
#      x y z
#    x 2.459980 0.000000 0.000000 
#    y 0.000000 2.486060 0.000000 
#    z 0.000000 0.000000 2.421860 
# 
# From -- ./inp_files/869.got.cif
#   From: 2010.05.17/outbox.cif.g08.bks.cpg/sg52_1_cif.got.tgz:869.got - 2010.06.03 12:15:38.
