data_PCOD9413162
_publ_section_title
;
Structure prediction by ZEFSAII (Michael W. Deem and Ramdas Pophale) SiO2 
 PCOD9413162
Probable space group: P N N A
;
_chemical_formula_sum "Si O2"
_cell_formula_units_Z 40
_cell_length_a 7.858146
_cell_length_b 11.737090
_cell_length_c 18.144060
_cell_angle_alpha 90.000000
_cell_angle_beta 90.000000
_cell_angle_gamma 90.000000
_cell_volume 1673.458711
_symmetry_space_group_name_H-M "P N N A"
_symmetry_group_IT_number 52
_symmetry_cell_setting 'orthorhombic'
loop_
_space_group_symop_operation_xyz
x,y,z
1/2-x,-y,z
x,1/2-y,1/2-z
1/2-x,1/2+y,1/2-z
-x,-y,-z
1/2+x,y,-z
-x,1/2+y,1/2+z
1/2+x,1/2-y,1/2+z
loop_
_atom_site_type_symbol
_atom_site_label
_atom_site_fract_x
_atom_site_fract_y
_atom_site_fract_z
Si Si1 0.947643 0.534567 0.158835
Si Si2 0.343610 0.183415 0.824930
Si Si3 0.385758 0.252560 0.096773
Si Si4 0.492844 0.669123 0.062244
Si Si5 0.005401 0.958071 0.180699
O O1 0.750000 0.500000 0.170707
O O2 0.045467 0.506376 0.234987
O O3 0.004557 0.664466 0.149003
O O4 0.999105 0.464334 0.085290
O O5 0.391022 0.250000 0.750000
O O6 0.358524 0.276055 0.888247
O O7 0.166623 0.118381 0.813124
O O8 0.464392 0.080740 0.852531
O O9 0.192452 0.293621 0.089639
O O10 0.384078 0.125243 0.130288
O O11 0.472626 0.279348 0.017948
#
# Coordination Sequence:
#
# PCOD9413162 Si02
#       5
#     8   8   8   8   8
#     4  12  22  45  73 103 140 186 236 289 353 423
#     4  11  21  43  72 102 137 184 233 282 355 425
#     4  12  27  44  68 105 142 186 240 291 357 416
#     4  12  26  46  69 100 146 188 235 294 352 423
#     4  11  23  42  72 104 138 183 231 290 348 425
#
# _framework density 23.902591999999999
#
# number of rings (size 3 to 8) (size 9 to 14) (size 15 to 20)
#    0.000    0.400    4.000    6.600    0.000    3.200 
#    3.600    0.000    0.000    0.000    0.000    0.000 
#    0.000    0.000    0.000    0.000    0.000    0.000 
#
# Total GULP energy -223227.974460 kJ/mol
# GULP energy per Si atom -5580.699362 kJ/mol
# Density = 2.384819 g / cm^3
# Si number density = 23.902592 Si / 1000 Ang^3
#
#
#
# Elastic Constant Matrix: (Units=GPa)
#
#
# Indices 1 2 3 4 5 6 
#
# 1 115.1094 9.7037 -9.6237 0.0000 0.0000 0.0000
# 2 9.7037 117.2050 -12.3156 0.0000 0.0000 0.0000
# 3 -9.6237 -12.3156 58.8793 0.0000 0.0000 0.0000
# 4 0.0000 0.0000 0.0000 28.2458 0.0000 0.0000
# 5 0.0000 0.0000 0.0000 0.0000 -24.2252 0.0000
# 6 0.0000 0.0000 0.0000 0.0000 0.0000 32.1008
#
#
#
# Elastic Compliance Matrix: (Units=1/GPa)
#
#
# Indices 1 2 3 4 5 6 
#
# 1 0.008848 -0.000594 0.001322 0.000000 0.000000 0.000000
# 2 -0.000594 0.008764 0.001736 0.000000 0.000000 0.000000
# 3 0.001322 0.001736 0.017563 0.000000 0.000000 0.000000
# 4 0.000000 0.000000 0.000000 0.035403 0.000000 0.000000
# 5 0.000000 0.000000 0.000000 0.000000 -0.041279 0.000000
# 6 0.000000 0.000000 0.000000 0.000000 0.000000 0.031152
#
#
# Mechanical properties :
#
#
# Convention : Reuss Voigt Hill
#
# Bulk Modulus (GPa) = 24.93547 29.63582 27.28565
# Shear Modulus (GPa) = 72.57985 27.45291 50.01638
#
# Velocity S-wave (km/s) = 5.51641 3.39268 4.57936
# Velocity P-wave (km/s) = 7.14347 5.26996 6.27701
#
# Compressibility (1/GPa) = 0.04010351
#
# Stress axis : x y z
#
# Youngs Moduli (GPa) = 113.02040 114.10806 56.93757
#
# Poissons Ratio (x) = 0.06774 -0.07527
# Poissons Ratio (y) = 0.06709 -0.09885
# Poissons Ratio (z) = -0.14941 -0.19809
#
# Static dielectric constant tensor:
#      x y z
#    x 2.001240 0.000000 0.000000 
#    y 0.000000 1.884690 0.000000 
#    z 0.000000 0.000000 1.942300 
# 
# From -- ./inp_files/30853.got.cif
#   From: 2010.05.17/outbox.cif.g08.bks.cpg/sg52_16_cif.got.tgz:30853.got - 2010.06.03 12:15:38.
