data_PCOD9413152
_publ_section_title
;
Structure prediction by ZEFSAII (Michael W. Deem and Ramdas Pophale) SiO2 
 PCOD9413152
Probable space group: P N N A
;
_chemical_formula_sum "Si O2"
_cell_formula_units_Z 36
_cell_length_a 9.621058
_cell_length_b 19.490496
_cell_length_c 6.999387
_cell_angle_alpha 90.000000
_cell_angle_beta 90.000000
_cell_angle_gamma 90.000000
_cell_volume 1312.519398
_symmetry_space_group_name_H-M "P N N A"
_symmetry_group_IT_number 52
_symmetry_cell_setting 'orthorhombic'
loop_
_space_group_symop_operation_xyz
x,y,z
1/2-x,-y,z
x,1/2-y,1/2-z
1/2-x,1/2+y,1/2-z
-x,-y,-z
1/2+x,y,-z
-x,1/2+y,1/2+z
1/2+x,1/2-y,1/2+z
loop_
_atom_site_type_symbol
_atom_site_label
_atom_site_fract_x
_atom_site_fract_y
_atom_site_fract_z
Si Si1 0.066613 0.849390 0.103511
Si Si2 0.405075 0.779779 0.437316
Si Si3 0.750000 0.000000 0.571404
Si Si4 0.648077 0.636501 0.044601
Si Si5 0.675936 0.067247 0.952835
O O1 0.091073 0.852918 0.329051
O O2 0.966571 0.912212 0.046893
O O3 0.217216 0.869334 0.018816
O O4 0.990439 0.779882 0.042752
O O5 0.328373 0.750000 0.250000
O O6 0.522525 0.829335 0.342756
O O7 0.291264 0.821063 0.559022
O O8 0.671985 0.944317 0.444282
O O9 0.834489 0.953156 0.726258
O O10 0.750000 0.000000 0.034596
#
# Coordination Sequence:
#
# PCOD9413152 Si02
#       5
#     8   8   4   8   8
#     4  11  21  42  69 101 133 172 225 279 332 398
#     4  12  25  42  65  95 135 174 225 271 340 385
#     4   8  20  42  68  96 140 164 220 268 348 384
#     4  11  25  44  69  95 132 177 217 283 327 404
#     4   9  19  35  68 102 135 164 218 276 334 394
#
# _framework density 27.428163999999999
#
# number of rings (size 3 to 8) (size 9 to 14) (size 15 to 20)
#    0.667    0.889    0.000    6.667    0.000    4.444 
#    0.000    0.000    4.889    0.000    0.000    0.000 
#    0.000    0.000    0.000    0.000    0.000    0.000 
#
# Total GULP energy -201701.255979 kJ/mol
# GULP energy per Si atom -5602.812666 kJ/mol
# Density = 2.736574 g / cm^3
# Si number density = 27.428164 Si / 1000 Ang^3
#
#
#
# Elastic Constant Matrix: (Units=GPa)
#
#
# Indices 1 2 3 4 5 6 
#
# 1 136.1220 48.8319 5.9357 0.0000 0.0000 0.0000
# 2 48.8319 167.0786 18.5559 0.0000 0.0000 0.0000
# 3 5.9357 18.5559 67.3954 0.0000 0.0000 0.0000
# 4 0.0000 0.0000 0.0000 43.0131 0.0000 0.0000
# 5 0.0000 0.0000 0.0000 0.0000 33.9275 0.0000
# 6 0.0000 0.0000 0.0000 0.0000 0.0000 60.7849
#
#
#
# Elastic Compliance Matrix: (Units=1/GPa)
#
#
# Indices 1 2 3 4 5 6 
#
# 1 0.008207 -0.002392 -0.000064 0.000000 0.000000 0.000000
# 2 -0.002392 0.006871 -0.001681 0.000000 0.000000 0.000000
# 3 -0.000064 -0.001681 0.015306 0.000000 0.000000 0.000000
# 4 0.000000 0.000000 0.000000 0.023249 0.000000 0.000000
# 5 0.000000 0.000000 0.000000 0.000000 0.029475 0.000000
# 6 0.000000 0.000000 0.000000 0.000000 0.000000 0.016451
#
#
# Mechanical properties :
#
#
# Convention : Reuss Voigt Hill
#
# Bulk Modulus (GPa) = 45.22784 57.47144 51.34964
# Shear Modulus (GPa) = 43.40156 47.36326 45.38241
#
# Velocity S-wave (km/s) = 3.98222 4.16000 4.07208
# Velocity P-wave (km/s) = 6.13754 6.63875 6.39306
#
# Compressibility (1/GPa) = 0.02211028
#
# Stress axis : x y z
#
# Youngs Moduli (GPa) = 121.84589 145.54170 65.33240
#
# Poissons Ratio (x) = 0.34807 0.00420
# Poissons Ratio (y) = 0.29140 0.10983
# Poissons Ratio (z) = 0.00784 0.24467
#
# Static dielectric constant tensor:
#      x y z
#    x 2.103590 0.000000 0.000000 
#    y 0.000000 2.222460 0.000000 
#    z 0.000000 0.000000 2.194450 
# 
# From -- ./inp_files/7277.got.cif
#   From: 2010.05.17/outbox.cif.g08.bks.cpg/sg52_4_cif.got.tgz:7277.got - 2010.06.03 12:15:38.
