data_PCOD9413103
_publ_section_title
;
Structure prediction by ZEFSAII (Michael W. Deem and Ramdas Pophale) SiO2 
 PCOD9413103
Probable space group: P N N A
;
_chemical_formula_sum "Si O2"
_cell_formula_units_Z 48
_cell_length_a 8.122578
_cell_length_b 23.336209
_cell_length_c 10.932809
_cell_angle_alpha 90.000000
_cell_angle_beta 90.000000
_cell_angle_gamma 90.000000
_cell_volume 2072.315890
_symmetry_space_group_name_H-M "P N N A"
_symmetry_group_IT_number 52
_symmetry_cell_setting 'orthorhombic'
loop_
_space_group_symop_operation_xyz
x,y,z
1/2-x,-y,z
x,1/2-y,1/2-z
1/2-x,1/2+y,1/2-z
-x,-y,-z
1/2+x,y,-z
-x,1/2+y,1/2+z
1/2+x,1/2-y,1/2+z
loop_
_atom_site_type_symbol
_atom_site_label
_atom_site_fract_x
_atom_site_fract_y
_atom_site_fract_z
Si Si1 0.789840 0.251800 0.878806
Si Si2 0.820498 0.383505 0.875630
Si Si3 0.619298 0.042753 0.425048
Si Si4 0.168434 0.056114 0.164411
Si Si5 0.910854 0.678045 0.427392
Si Si6 0.350958 0.094206 0.922325
O O1 0.693816 0.250000 0.750000
O O2 0.832980 0.317139 0.909767
O O3 0.953587 0.213852 0.856173
O O4 0.691326 0.221588 0.987707
O O5 0.717445 0.391404 0.750923
O O6 0.995458 0.414789 0.855741
O O7 0.721674 0.417693 0.980538
O O8 0.750000 0.000000 0.361151
O O9 0.500000 0.000000 0.500000
O O10 0.972006 0.052842 0.151600
O O11 0.250000 0.000000 0.223095
O O12 0.257522 0.063320 0.033599
O O13 0.017242 0.637039 0.515620
O O14 0.782879 0.635699 0.359743
#
# Coordination Sequence:
#
# PCOD9413103 Si02
#       6
#     8   8   8   8   8   8
#     4  11  21  37  58  83 112 147 186 231 281 335
#     4  11  21  37  59  84 114 151 189 235 287 340
#     4   9  19  37  57  82 113 146 187 235 282 338
#     4  11  21  37  59  85 114 150 188 231 282 335
#     4   9  19  37  57  81 111 144 183 231 278 331
#     4   9  19  37  57  81 112 144 183 231 277 331
#
# _framework density 23.162489999999998
#
# number of rings (size 3 to 8) (size 9 to 14) (size 15 to 20)
#    0.000    2.000    0.000    6.000    0.000    0.000 
#    0.000   24.167    0.000    0.000    0.000    0.000 
#    0.000    0.000    0.000    0.000    0.000    0.000 
#
# Total GULP energy -268072.490901 kJ/mol
# GULP energy per Si atom -5584.843560 kJ/mol
# Density = 2.310977 g / cm^3
# Si number density = 23.162490 Si / 1000 Ang^3
#
#
#
# Elastic Constant Matrix: (Units=GPa)
#
#
# Indices 1 2 3 4 5 6 
#
# 1 104.8492 31.4651 23.1421 0.0000 0.0000 0.0000
# 2 31.4651 111.3073 -0.3234 0.0000 0.0000 0.0000
# 3 23.1421 -0.3234 46.8076 0.0000 0.0000 0.0000
# 4 0.0000 0.0000 0.0000 40.8406 0.0000 0.0000
# 5 0.0000 0.0000 0.0000 0.0000 26.2713 0.0000
# 6 0.0000 0.0000 0.0000 0.0000 0.0000 43.4622
#
#
#
# Elastic Compliance Matrix: (Units=1/GPa)
#
#
# Indices 1 2 3 4 5 6 
#
# 1 0.011845 -0.003366 -0.005880 0.000000 0.000000 0.000000
# 2 -0.003366 0.009941 0.001733 0.000000 0.000000 0.000000
# 3 -0.005880 0.001733 0.024283 0.000000 0.000000 0.000000
# 4 0.000000 0.000000 0.000000 0.024485 0.000000 0.000000
# 5 0.000000 0.000000 0.000000 0.000000 0.038064 0.000000
# 6 0.000000 0.000000 0.000000 0.000000 0.000000 0.023008
#
#
# Mechanical properties :
#
#
# Convention : Reuss Voigt Hill
#
# Bulk Modulus (GPa) = 32.21270 41.28128 36.74699
# Shear Modulus (GPa) = 31.84712 36.02686 33.93699
#
# Velocity S-wave (km/s) = 3.71205 3.94813 3.83191
# Velocity P-wave (km/s) = 5.68418 6.21649 5.95628
#
# Compressibility (1/GPa) = 0.03104366
#
# Stress axis : x y z
#
# Youngs Moduli (GPa) = 84.42196 100.59781 41.18113
#
# Poissons Ratio (x) = 0.33857 0.24213
# Poissons Ratio (y) = 0.28413 -0.07135
# Poissons Ratio (z) = 0.49637 -0.17430
#
# Static dielectric constant tensor:
#      x y z
#    x 1.890240 0.000000 0.000000 
#    y 0.000000 1.902190 0.000000 
#    z 0.000000 0.000000 1.845740 
# 
# From -- ./inp_files/16949.got.cif
#   From: 2010.05.17/outbox.cif.g08.bks.cpg/sg52_9_cif.got.tgz:16949.got - 2010.06.03 12:15:38.
