data_PCOD9413057
_publ_section_title
;
Structure prediction by ZEFSAII (Michael W. Deem and Ramdas Pophale) SiO2 
 PCOD9413057
Probable space group: P N N A
;
_chemical_formula_sum "Si O2"
_cell_formula_units_Z 48
_cell_length_a 13.499388
_cell_length_b 17.499690
_cell_length_c 9.494159
_cell_angle_alpha 90.000000
_cell_angle_beta 90.000000
_cell_angle_gamma 90.000000
_cell_volume 2242.853650
_symmetry_space_group_name_H-M "P N N A"
_symmetry_group_IT_number 52
_symmetry_cell_setting 'orthorhombic'
loop_
_space_group_symop_operation_xyz
x,y,z
1/2-x,-y,z
x,1/2-y,1/2-z
1/2-x,1/2+y,1/2-z
-x,-y,-z
1/2+x,y,-z
-x,1/2+y,1/2+z
1/2+x,1/2-y,1/2+z
loop_
_atom_site_type_symbol
_atom_site_label
_atom_site_fract_x
_atom_site_fract_y
_atom_site_fract_z
Si Si1 0.190796 0.632953 0.815722
Si Si2 0.181596 0.713053 0.514860
Si Si3 0.020516 0.449927 0.181653
Si Si4 0.142403 0.175554 0.153120
Si Si5 0.898202 0.924512 0.395656
Si Si6 0.964140 0.745870 0.085936
O O1 0.184933 0.660034 0.653338
O O2 0.082293 0.597490 0.844963
O O3 0.287387 0.581057 0.838793
O O4 0.212774 0.704359 0.920384
O O5 0.241181 0.677959 0.382155
O O6 0.072276 0.730478 0.461604
O O7 0.972068 0.533082 0.213493
O O8 0.088159 0.398740 0.285301
O O9 0.089665 0.466349 0.045849
O O10 0.118004 0.250000 0.250000
O O11 0.103979 0.196102 0.998323
O O12 0.936890 0.841480 0.442917
O O13 0.948833 0.750000 0.250000
#
# Coordination Sequence:
#
# PCOD9413057 Si02
#       6
#     8   8   8   8   8   8
#     4  11  20  40  64 100 131 177 223 273 344 401
#     4  11  22  36  68  93 128 171 227 284 327 396
#     4  11  23  41  67  96 138 179 219 279 343 408
#     4  12  21  41  65  97 129 175 223 277 339 394
#     4  11  23  39  66 101 131 177 223 278 337 413
#     4  12  23  40  63  98 129 170 228 282 336 393
#
# _framework density 21.401306000000002
#
# number of rings (size 3 to 8) (size 9 to 14) (size 15 to 20)
#    0.000    0.667    6.667    2.000    0.000    0.000 
#    0.000    3.333    0.000    0.000    0.000    0.000 
#    0.000    0.000    0.000    0.000    0.000    0.000 
#
# Total GULP energy -267574.452825 kJ/mol
# GULP energy per Si atom -5574.467767 kJ/mol
# Density = 2.135260 g / cm^3
# Si number density = 21.401306 Si / 1000 Ang^3
#
#
#
# Elastic Constant Matrix: (Units=GPa)
#
#
# Indices 1 2 3 4 5 6 
#
# 1 102.0729 20.0910 4.7991 0.0000 0.0000 0.0000
# 2 20.0910 50.4526 3.1197 0.0000 0.0000 0.0000
# 3 4.7991 3.1197 65.1816 0.0000 0.0000 0.0000
# 4 0.0000 0.0000 0.0000 31.0379 0.0000 0.0000
# 5 0.0000 0.0000 0.0000 0.0000 15.5970 0.0000
# 6 0.0000 0.0000 0.0000 0.0000 0.0000 -373.0176
#
#
#
# Elastic Compliance Matrix: (Units=1/GPa)
#
#
# Indices 1 2 3 4 5 6 
#
# 1 0.010652 -0.004206 -0.000583 0.000000 0.000000 0.000000
# 2 -0.004206 0.021540 -0.000721 0.000000 0.000000 0.000000
# 3 -0.000583 -0.000721 0.015419 0.000000 0.000000 0.000000
# 4 0.000000 0.000000 0.000000 0.032219 0.000000 0.000000
# 5 0.000000 0.000000 0.000000 0.000000 0.064115 0.000000
# 6 0.000000 0.000000 0.000000 0.000000 0.000000 -0.002681
#
#
# Mechanical properties :
#
#
# Convention : Reuss Voigt Hill
#
# Bulk Modulus (GPa) = 27.32897 30.41409 28.87153
# Shear Modulus (GPa) = 30.39862 -52.63006 -11.11572
#
# Velocity S-wave (km/s) = 3.77292 -4.96441 -2.28149
# Velocity P-wave (km/s) = 5.63714 4.31490 2.56506
#
# Compressibility (1/GPa) = 0.03659121
#
# Stress axis : x y z
#
# Youngs Moduli (GPa) = 93.87766 46.42520 64.85426
#
# Poissons Ratio (x) = 0.19526 0.03781
# Poissons Ratio (y) = 0.39483 0.04678
# Poissons Ratio (z) = 0.05473 0.03349
#
# Static dielectric constant tensor:
#      x y z
#    x 1.937760 0.000000 0.000000 
#    y 0.000000 1.601190 0.000000 
#    z 0.000000 0.000000 1.624670 
# 
# From -- ./inp_files/10484.got.cif
#   From: 2010.05.17/outbox.cif.g08.bks.cpg/sg52_6_cif.got.tgz:10484.got - 2010.06.03 12:15:38.
