data_PCOD9413932
_publ_section_title
;
Structure prediction by ZEFSAII (Michael W. Deem and Ramdas Pophale) SiO2 
 PCOD9413932
Probable space group: P N N A
;
_chemical_formula_sum "Si O2"
_cell_formula_units_Z 24
_cell_length_a 13.466475
_cell_length_b 5.058681
_cell_length_c 14.244675
_cell_angle_alpha 90.000000
_cell_angle_beta 90.000000
_cell_angle_gamma 90.000000
_cell_volume 970.384315
_symmetry_space_group_name_H-M "P N N A"
_symmetry_group_IT_number 52
_symmetry_cell_setting 'orthorhombic'
loop_
_space_group_symop_operation_xyz
x,y,z
1/2-x,-y,z
x,1/2-y,1/2-z
1/2-x,1/2+y,1/2-z
-x,-y,-z
1/2+x,y,-z
-x,1/2+y,1/2+z
1/2+x,1/2-y,1/2+z
loop_
_atom_site_type_symbol
_atom_site_label
_atom_site_fract_x
_atom_site_fract_y
_atom_site_fract_z
Si Si1 0.063309 0.518481 0.094899
Si Si2 0.750000 0.500000 0.016568
Si Si3 0.422047 0.750000 0.750000
Si Si4 0.823348 0.750000 0.750000
Si Si5 0.750000 0.000000 0.150789
O O1 0.104160 0.276411 0.159343
O O2 0.994786 0.678080 0.165449
O O3 0.166422 0.616945 0.052054
O O4 0.000000 0.500000 0.000000
O O5 0.768858 0.746109 0.085204
O O6 0.347302 0.518445 0.716467
O O7 0.750000 0.500000 0.743443
#
# Coordination Sequence:
#
# PCOD9413932 Si02
#       5
#     8   4   4   4   4
#     4  12  29  51  84 124 166 223 277 347 419 500
#     4  12  29  54  81 120 168 220 279 346 415 496
#     4  12  29  51  90 120 174 220 287 339 432 492
#     4  12  29  55  84 118 172 224 275 345 418 494
#     4  12  29  54  83 120 166 220 279 354 405 500
#
# _framework density 24.732465999999999
#
# number of rings (size 3 to 8) (size 9 to 14) (size 15 to 20)
#    0.000    0.000    5.000    2.000    7.000    1.333 
#    0.000    0.000    0.000    0.000    0.000    0.000 
#    0.000    0.000    0.000    0.000    0.000    0.000 
#
# Total GULP energy -134049.974918 kJ/mol
# GULP energy per Si atom -5585.415622 kJ/mol
# Density = 2.467617 g / cm^3
# Si number density = 24.732466 Si / 1000 Ang^3
#
#
#
# Elastic Constant Matrix: (Units=GPa)
#
#
# Indices 1 2 3 4 5 6 
#
# 1 200.6106 52.7999 89.6496 0.0000 0.0000 0.0000
# 2 52.7999 142.1841 58.6747 0.0000 0.0000 0.0000
# 3 89.6496 58.6747 231.9692 0.0000 0.0000 0.0000
# 4 0.0000 0.0000 0.0000 41.6295 0.0000 0.0000
# 5 0.0000 0.0000 0.0000 0.0000 64.1107 0.0000
# 6 0.0000 0.0000 0.0000 0.0000 0.0000 38.9238
#
#
#
# Elastic Compliance Matrix: (Units=1/GPa)
#
#
# Indices 1 2 3 4 5 6 
#
# 1 0.006296 -0.001489 -0.002056 0.000000 0.000000 0.000000
# 2 -0.001489 0.008205 -0.001500 0.000000 0.000000 0.000000
# 3 -0.002056 -0.001500 0.005485 0.000000 0.000000 0.000000
# 4 0.000000 0.000000 0.000000 0.024021 0.000000 0.000000
# 5 0.000000 0.000000 0.000000 0.000000 0.015598 0.000000
# 6 0.000000 0.000000 0.000000 0.000000 0.000000 0.025691
#
#
# Mechanical properties :
#
#
# Convention : Reuss Voigt Hill
#
# Bulk Modulus (GPa) = 101.06349 108.55693 104.81021
# Shear Modulus (GPa) = 50.66577 53.84212 52.25394
#
# Velocity S-wave (km/s) = 4.53100 4.67088 4.60147
# Velocity P-wave (km/s) = 8.26588 8.54852 8.40839
#
# Compressibility (1/GPa) = 0.00989477
#
# Stress axis : x y z
#
# Youngs Moduli (GPa) = 158.83749 121.87508 182.31410
#
# Poissons Ratio (x) = 0.18151 0.37491
# Poissons Ratio (y) = 0.23656 0.27344
# Poissons Ratio (z) = 0.32664 0.18279
#
# Static dielectric constant tensor:
#      x y z
#    x 2.375040 0.000000 0.000000 
#    y 0.000000 2.035410 0.000000 
#    z 0.000000 0.000000 1.985090 
# 
# From -- ./inp_files/26517.got.cif
#   From: 2010.05.17/outbox.cif.g08.bks.cpg/sg52_14_cif.got.tgz:26517.got - 2010.06.03 12:15:38.
