data_PCOD9413599
_publ_section_title
;
Structure prediction by ZEFSAII (Michael W. Deem and Ramdas Pophale) SiO2 
 PCOD9413599
Probable space group: P N N A
;
_chemical_formula_sum "Si O2"
_cell_formula_units_Z 32
_cell_length_a 13.006341
_cell_length_b 5.909819
_cell_length_c 17.932695
_cell_angle_alpha 90.000000
_cell_angle_beta 90.000000
_cell_angle_gamma 90.000000
_cell_volume 1378.398774
_symmetry_space_group_name_H-M "P N N A"
_symmetry_group_IT_number 52
_symmetry_cell_setting 'orthorhombic'
loop_
_space_group_symop_operation_xyz
x,y,z
1/2-x,-y,z
x,1/2-y,1/2-z
1/2-x,1/2+y,1/2-z
-x,-y,-z
1/2+x,y,-z
-x,1/2+y,1/2+z
1/2+x,1/2-y,1/2+z
loop_
_atom_site_type_symbol
_atom_site_label
_atom_site_fract_x
_atom_site_fract_y
_atom_site_fract_z
Si Si1 0.534509 0.537955 0.633173
Si Si2 0.072894 0.282876 0.007011
Si Si3 0.334029 0.168605 0.827957
Si Si4 0.689180 0.750000 0.750000
Si Si5 0.750000 0.000000 0.435246
O O1 0.474191 0.641054 0.561991
O O2 0.578795 0.320317 0.589934
O O3 0.442403 0.450158 0.685535
O O4 0.614930 0.690489 0.678653
O O5 0.189824 0.329314 0.986284
O O6 0.000000 0.500000 0.000000
O O7 0.290024 0.250000 0.750000
O O8 0.334555 0.379403 0.883441
O O9 0.250000 0.000000 0.860765
O O10 0.750000 0.500000 0.760034
#
# Coordination Sequence:
#
# PCOD9413599 Si02
#       5
#     8   8   8   4   4
#     4  11  28  50  75 109 158 209 270 339 412 492
#     4  11  25  46  74 112 153 206 260 333 410 487
#     4  12  25  42  72 114 151 198 256 332 415 490
#     4  12  34  58  84 120 162 226 290 346 414 496
#     4  12  24  42  72 112 156 200 262 326 406 496
#
# _framework density 23.215340999999999
#
# number of rings (size 3 to 8) (size 9 to 14) (size 15 to 20)
#    0.000    0.500    6.250    0.000   10.500    2.000 
#    0.000    0.000    0.000    0.000    0.000    0.000 
#    0.000    0.000    0.000    0.000    0.000    0.000 
#
# Total GULP energy -178312.257513 kJ/mol
# GULP energy per Si atom -5572.258047 kJ/mol
# Density = 2.316250 g / cm^3
# Si number density = 23.215341 Si / 1000 Ang^3
#
#
#
# Elastic Constant Matrix: (Units=GPa)
#
#
# Indices 1 2 3 4 5 6 
#
# 1 98.1969 37.9280 37.8211 0.0000 0.0000 0.0000
# 2 37.9280 80.8005 32.2313 0.0000 0.0000 0.0000
# 3 37.8211 32.2313 77.1890 0.0000 0.0000 0.0000
# 4 0.0000 0.0000 0.0000 32.2621 0.0000 0.0000
# 5 0.0000 0.0000 0.0000 0.0000 427.8747 0.0000
# 6 0.0000 0.0000 0.0000 0.0000 0.0000 41.4027
#
#
#
# Elastic Compliance Matrix: (Units=1/GPa)
#
#
# Indices 1 2 3 4 5 6 
#
# 1 0.013814 -0.004541 -0.004873 0.000000 0.000000 0.000000
# 2 -0.004541 0.016342 -0.004599 0.000000 0.000000 0.000000
# 3 -0.004873 -0.004599 0.017263 0.000000 0.000000 0.000000
# 4 0.000000 0.000000 0.000000 0.030996 0.000000 0.000000
# 5 0.000000 0.000000 0.000000 0.000000 0.002337 0.000000
# 6 0.000000 0.000000 0.000000 0.000000 0.000000 0.024153
#
#
# Mechanical properties :
#
#
# Convention : Reuss Voigt Hill
#
# Bulk Modulus (GPa) = 51.56059 52.46080 52.01069
# Shear Modulus (GPa) = 35.86921 110.18828 73.02874
#
# Velocity S-wave (km/s) = 3.93500 6.89685 5.61475
# Velocity P-wave (km/s) = 6.55008 9.27732 8.03032
#
# Compressibility (1/GPa) = 0.01939466
#
# Stress axis : x y z
#
# Youngs Moduli (GPa) = 72.38939 61.19151 57.92709
#
# Poissons Ratio (x) = 0.27785 0.28226
# Poissons Ratio (y) = 0.32870 0.26641
# Poissons Ratio (z) = 0.35273 0.28142
#
# Static dielectric constant tensor:
#      x y z
#    x 1.720030 0.000000 0.000000 
#    y 0.000000 2.147270 0.000000 
#    z 0.000000 0.000000 2.078490 
# 
# From -- ./inp_files/32656.got.cif
#   From: 2010.05.17/outbox.cif.g08.bks.cpg/sg52_17_cif.got.tgz:32656.got - 2010.06.03 12:15:38.
