data_PCOD9413606
_publ_section_title
;
Structure prediction by ZEFSAII (Michael W. Deem and Ramdas Pophale) SiO2 
 PCOD9413606
Probable space group: P N N A
;
_chemical_formula_sum "Si O2"
_cell_formula_units_Z 60
_cell_length_a 20.809816
_cell_length_b 11.404657
_cell_length_c 11.435444
_cell_angle_alpha 90.000000
_cell_angle_beta 90.000000
_cell_angle_gamma 90.000000
_cell_volume 2713.960359
_symmetry_space_group_name_H-M "P N N A"
_symmetry_group_IT_number 52
_symmetry_cell_setting 'orthorhombic'
loop_
_space_group_symop_operation_xyz
x,y,z
1/2-x,-y,z
x,1/2-y,1/2-z
1/2-x,1/2+y,1/2-z
-x,-y,-z
1/2+x,y,-z
-x,1/2+y,1/2+z
1/2+x,1/2-y,1/2+z
loop_
_atom_site_type_symbol
_atom_site_label
_atom_site_fract_x
_atom_site_fract_y
_atom_site_fract_z
Si Si1 0.081216 0.149533 0.413152
Si Si2 0.900884 0.536618 0.160233
Si Si3 0.321002 0.750000 0.250000
Si Si4 0.215818 0.370244 0.690385
Si Si5 0.431134 0.057924 0.036657
Si Si6 0.567551 0.699285 0.047471
Si Si7 0.049788 0.581977 0.202225
Si Si8 0.804298 0.903775 0.936242
O O1 0.105444 0.094977 0.532925
O O2 0.133100 0.235390 0.361482
O O3 0.009401 0.197319 0.427999
O O4 0.077028 0.048193 0.316325
O O5 0.851874 0.595501 0.248609
O O6 0.973168 0.569353 0.195754
O O7 0.900208 0.395957 0.134139
O O8 0.283882 0.855870 0.193243
O O9 0.250000 0.500000 0.701282
O O10 0.242517 0.250000 0.750000
O O11 0.205903 0.331439 0.555998
O O12 0.412930 0.164998 0.950067
O O13 0.436130 0.116614 0.165731
O O14 0.373898 0.965424 0.047978
O O15 0.500000 0.000000 0.000000
O O16 0.573161 0.648534 0.914642
O O17 0.750000 0.000000 0.954540
#
# Coordination Sequence:
#
# PCOD9413606 Si02
#       8
#     8   8   4   8   8   8   8   8
#     4   9  18  34  60  92 124 166 221 265 328 410
#     4   9  19  38  63  94 126 168 219 275 348 418
#     4  12  20  42  66  82 128 184 214 264 336 414
#     4  11  25  47  72  95 130 173 225 288 349 414
#     4  12  22  37  62  98 131 177 229 286 359 408
#     4   9  20  35  59  93 133 169 213 291 342 410
#     4   9  18  36  56  88 129 167 218 270 332 405
#     4  11  27  46  62  98 136 173 230 287 338 416
#
# _framework density 22.107914000000001
#
# number of rings (size 3 to 8) (size 9 to 14) (size 15 to 20)
#    0.000    1.867    1.333    4.400    0.000    5.333 
#    2.400    2.667    0.000    0.000    0.000    0.000 
#    0.000    0.000    0.000    0.000    0.000    0.000 
#
# Total GULP energy -334142.429504 kJ/mol
# GULP energy per Si atom -5569.040492 kJ/mol
# Density = 2.205760 g / cm^3
# Si number density = 22.107914 Si / 1000 Ang^3
#
#
#
# Elastic Constant Matrix: (Units=GPa)
#
#
# Indices 1 2 3 4 5 6 
#
# 1 20.2383 -2.1222 3.6122 0.0000 0.0000 0.0000
# 2 -2.1222 90.3229 16.3389 0.0000 0.0000 0.0000
# 3 3.6122 16.3389 94.4086 0.0000 0.0000 0.0000
# 4 0.0000 0.0000 0.0000 26.4936 0.0000 0.0000
# 5 0.0000 0.0000 0.0000 0.0000 14.4948 0.0000
# 6 0.0000 0.0000 0.0000 0.0000 0.0000 12.0266
#
#
#
# Elastic Compliance Matrix: (Units=1/GPa)
#
#
# Indices 1 2 3 4 5 6 
#
# 1 0.049966 0.001569 -0.002183 0.000000 0.000000 0.000000
# 2 0.001569 0.011478 -0.002047 0.000000 0.000000 0.000000
# 3 -0.002183 -0.002047 0.011030 0.000000 0.000000 0.000000
# 4 0.000000 0.000000 0.000000 0.037745 0.000000 0.000000
# 5 0.000000 0.000000 0.000000 0.000000 0.068990 0.000000
# 6 0.000000 0.000000 0.000000 0.000000 0.000000 0.083149
#
#
# Mechanical properties :
#
#
# Convention : Reuss Voigt Hill
#
# Bulk Modulus (GPa) = 14.89155 26.73639 20.81397
# Shear Modulus (GPa) = 17.23754 23.07905 20.15829
#
# Velocity S-wave (km/s) = 2.79534 3.23449 3.02290
# Velocity P-wave (km/s) = 4.14355 5.10579 4.64963
#
# Compressibility (1/GPa) = 0.06715219
#
# Stress axis : x y z
#
# Youngs Moduli (GPa) = 20.01378 87.11968 90.66201
#
# Poissons Ratio (x) = -0.13668 0.19794
# Poissons Ratio (y) = -0.03140 0.18555
# Poissons Ratio (z) = 0.04370 0.17830
#
# Static dielectric constant tensor:
#      x y z
#    x 1.918590 0.000000 0.000000 
#    y 0.000000 1.674210 0.000000 
#    z 0.000000 0.000000 1.947500 
# 
# From -- ./inp_files/21753.got.cif
#   From: 2010.05.17/outbox.cif.g08.bks.cpg/sg52_11_cif.got.tgz:21753.got - 2010.06.03 12:15:38.
