data_PCOD9413316
_publ_section_title
;
Structure prediction by ZEFSAII (Michael W. Deem and Ramdas Pophale) SiO2 
 PCOD9413316
Probable space group: P N N A
;
_chemical_formula_sum "Si O2"
_cell_formula_units_Z 40
_cell_length_a 11.425729
_cell_length_b 8.681309
_cell_length_c 18.440877
_cell_angle_alpha 90.000000
_cell_angle_beta 90.000000
_cell_angle_gamma 90.000000
_cell_volume 1829.155827
_symmetry_space_group_name_H-M "P N N A"
_symmetry_group_IT_number 52
_symmetry_cell_setting 'orthorhombic'
loop_
_space_group_symop_operation_xyz
x,y,z
1/2-x,-y,z
x,1/2-y,1/2-z
1/2-x,1/2+y,1/2-z
-x,-y,-z
1/2+x,y,-z
-x,1/2+y,1/2+z
1/2+x,1/2-y,1/2+z
loop_
_atom_site_type_symbol
_atom_site_label
_atom_site_fract_x
_atom_site_fract_y
_atom_site_fract_z
Si Si1 0.638524 0.914812 0.285039
Si Si2 0.191846 0.718523 0.578139
Si Si3 0.447966 0.324718 0.178118
Si Si4 0.122851 0.565938 0.031545
Si Si5 0.438664 0.573952 0.571411
O O1 0.602512 0.750000 0.250000
O O2 0.682781 0.854248 0.363834
O O3 0.750000 0.000000 0.249442
O O4 0.544739 0.051422 0.294841
O O5 0.127066 0.768445 0.505322
O O6 0.322565 0.674227 0.554427
O O7 0.119112 0.575275 0.609324
O O8 0.392001 0.250000 0.250000
O O9 0.378714 0.421526 0.117934
O O10 0.495423 0.180693 0.129846
O O11 0.250000 0.500000 0.009819
O O12 0.000000 0.500000 0.000000
O O13 0.500000 0.500000 0.500000
#
# Coordination Sequence:
#
# PCOD9413316 Si02
#       5
#     8   8   8   8   8
#     4  12  24  39  66 104 149 197 249 316 390 460
#     4  11  23  39  69 104 138 192 250 313 374 451
#     4  12  25  46  68 103 149 196 251 312 386 469
#     4  12  25  47  77 108 145 196 258 321 384 455
#     4  11  23  41  66 105 146 190 248 312 380 446
#
# _framework density 21.868010000000002
#
# number of rings (size 3 to 8) (size 9 to 14) (size 15 to 20)
#    0.000    0.400    6.000    3.600    2.800    0.000 
#    0.000    3.000    0.000    0.000    0.000    0.000 
#    0.000    0.000    0.000    0.000    0.000    0.000 
#
# Total GULP energy -222729.517536 kJ/mol
# GULP energy per Si atom -5568.237938 kJ/mol
# Density = 2.181824 g / cm^3
# Si number density = 21.868010 Si / 1000 Ang^3
#
#
#
# Elastic Constant Matrix: (Units=GPa)
#
#
# Indices 1 2 3 4 5 6 
#
# 1 71.9303 23.0230 35.4306 0.0000 0.0000 0.0000
# 2 23.0230 82.1815 35.4793 0.0000 0.0000 0.0000
# 3 35.4306 35.4793 131.3397 0.0000 0.0000 0.0000
# 4 0.0000 0.0000 0.0000 51.2361 0.0000 0.0000
# 5 0.0000 0.0000 0.0000 0.0000 25.6588 0.0000
# 6 0.0000 0.0000 0.0000 0.0000 0.0000 25.1496
#
#
#
# Elastic Compliance Matrix: (Units=1/GPa)
#
#
# Indices 1 2 3 4 5 6 
#
# 1 0.016700 -0.003094 -0.003669 0.000000 0.000000 0.000000
# 2 -0.003094 0.014348 -0.003041 0.000000 0.000000 0.000000
# 3 -0.003669 -0.003041 0.009425 0.000000 0.000000 0.000000
# 4 0.000000 0.000000 0.000000 0.019517 0.000000 0.000000
# 5 0.000000 0.000000 0.000000 0.000000 0.038973 0.000000
# 6 0.000000 0.000000 0.000000 0.000000 0.000000 0.039762
#
#
# Mechanical properties :
#
#
# Convention : Reuss Voigt Hill
#
# Bulk Modulus (GPa) = 47.92986 52.59079 50.26032
# Shear Modulus (GPa) = 30.24991 33.17683 31.71337
#
# Velocity S-wave (km/s) = 3.72330 3.89927 3.81230
# Velocity P-wave (km/s) = 6.35998 6.66137 6.51242
#
# Compressibility (1/GPa) = 0.02086382
#
# Stress axis : x y z
#
# Youngs Moduli (GPa) = 59.87986 69.69611 106.09909
#
# Poissons Ratio (x) = 0.21567 0.38929
# Poissons Ratio (y) = 0.18530 0.32266
# Poissons Ratio (z) = 0.21971 0.21195
#
# Static dielectric constant tensor:
#      x y z
#    x 1.851460 0.000000 0.000000 
#    y 0.000000 1.918170 0.000000 
#    z 0.000000 0.000000 1.932910 
# 
# From -- ./inp_files/31969.got.cif
#   From: 2010.05.17/outbox.cif.g08.bks.cpg/sg52_16_cif.got.tgz:31969.got - 2010.06.03 12:15:38.
