data_PCOD9413519
_publ_section_title
;
Structure prediction by ZEFSAII (Michael W. Deem and Ramdas Pophale) SiO2 
 PCOD9413519
Probable space group: P N N A
;
_chemical_formula_sum "Si O2"
_cell_formula_units_Z 28
_cell_length_a 7.863151
_cell_length_b 14.880900
_cell_length_c 11.021422
_cell_angle_alpha 90.000000
_cell_angle_beta 90.000000
_cell_angle_gamma 90.000000
_cell_volume 1289.625005
_symmetry_space_group_name_H-M "P N N A"
_symmetry_group_IT_number 52
_symmetry_cell_setting 'orthorhombic'
loop_
_space_group_symop_operation_xyz
x,y,z
1/2-x,-y,z
x,1/2-y,1/2-z
1/2-x,1/2+y,1/2-z
-x,-y,-z
1/2+x,y,-z
-x,1/2+y,1/2+z
1/2+x,1/2-y,1/2+z
loop_
_atom_site_type_symbol
_atom_site_label
_atom_site_fract_x
_atom_site_fract_y
_atom_site_fract_z
Si Si1 0.750000 0.000000 0.196437
Si Si2 0.179684 0.693555 0.628225
Si Si3 0.179621 0.241317 0.378838
Si Si4 0.935771 0.961822 0.627802
O O1 0.760370 0.905403 0.126932
O O2 0.582106 0.988062 0.278288
O O3 0.229733 0.750000 0.750000
O O4 0.222899 0.742916 0.502889
O O5 0.975064 0.688155 0.630763
O O6 0.277625 0.250000 0.250000
O O7 0.091133 0.144393 0.384972
O O8 0.750000 0.000000 0.659357
O O9 0.000000 0.000000 0.500000
#
# Coordination Sequence:
#
# PCOD9413519 Si02
#       4
#     4   8   8   8
#     4  12  24  46  72 108 150 190 246 306 368 440
#     4  11  24  46  72 103 150 188 241 311 363 434
#     4  11  24  47  67 102 147 186 240 301 365 435
#     4  12  23  42  75 106 140 193 251 297 360 438
#
# _framework density 21.711736999999999
#
# number of rings (size 3 to 8) (size 9 to 14) (size 15 to 20)
#    0.000    0.571    7.143    3.429    0.000    4.571 
#    2.571    0.000    0.000    0.000    0.000    0.000 
#    0.000    0.000    0.000    0.000    0.000    0.000 
#
# Total GULP energy -156482.740425 kJ/mol
# GULP energy per Si atom -5588.669301 kJ/mol
# Density = 2.166232 g / cm^3
# Si number density = 21.711737 Si / 1000 Ang^3
#
#
#
# Elastic Constant Matrix: (Units=GPa)
#
#
# Indices 1 2 3 4 5 6 
#
# 1 100.1503 14.0303 35.6221 0.0000 0.0000 0.0000
# 2 14.0303 77.4586 29.5949 0.0000 0.0000 0.0000
# 3 35.6221 29.5949 171.7067 0.0000 0.0000 0.0000
# 4 0.0000 0.0000 0.0000 34.0777 0.0000 0.0000
# 5 0.0000 0.0000 0.0000 0.0000 38.1613 0.0000
# 6 0.0000 0.0000 0.0000 0.0000 0.0000 26.9644
#
#
#
# Elastic Compliance Matrix: (Units=1/GPa)
#
#
# Indices 1 2 3 4 5 6 
#
# 1 0.010881 -0.001187 -0.002053 0.000000 0.000000 0.000000
# 2 -0.001187 0.013950 -0.002158 0.000000 0.000000 0.000000
# 3 -0.002053 -0.002158 0.006622 0.000000 0.000000 0.000000
# 4 0.000000 0.000000 0.000000 0.029345 0.000000 0.000000
# 5 0.000000 0.000000 0.000000 0.000000 0.026205 0.000000
# 6 0.000000 0.000000 0.000000 0.000000 0.000000 0.037086
#
#
# Mechanical properties :
#
#
# Convention : Reuss Voigt Hill
#
# Bulk Modulus (GPa) = 48.40871 56.42335 52.41603
# Shear Modulus (GPa) = 35.26859 37.84524 36.55692
#
# Velocity S-wave (km/s) = 4.03476 4.17955 4.10779
# Velocity P-wave (km/s) = 6.63703 7.02392 6.83321
#
# Compressibility (1/GPa) = 0.02065744
#
# Stress axis : x y z
#
# Youngs Moduli (GPa) = 91.89969 71.68647 151.01734
#
# Poissons Ratio (x) = 0.08506 0.31003
# Poissons Ratio (y) = 0.10905 0.32592
# Poissons Ratio (z) = 0.18866 0.15471
#
# Static dielectric constant tensor:
#      x y z
#    x 1.549180 0.000000 0.000000 
#    y 0.000000 1.845460 0.000000 
#    z 0.000000 0.000000 1.948030 
# 
# From -- ./inp_files/16351.got.cif
#   From: 2010.05.17/outbox.cif.g08.bks.cpg/sg52_9_cif.got.tgz:16351.got - 2010.06.03 12:15:38.
