data_PCOD9413153
_publ_section_title
;
Structure prediction by ZEFSAII (Michael W. Deem and Ramdas Pophale) SiO2 
 PCOD9413153
Probable space group: P N N A
;
_chemical_formula_sum "Si O2"
_cell_formula_units_Z 40
_cell_length_a 20.229831
_cell_length_b 9.750512
_cell_length_c 10.611289
_cell_angle_alpha 90.000000
_cell_angle_beta 90.000000
_cell_angle_gamma 90.000000
_cell_volume 2093.089594
_symmetry_space_group_name_H-M "P N N A"
_symmetry_group_IT_number 52
_symmetry_cell_setting 'orthorhombic'
loop_
_space_group_symop_operation_xyz
x,y,z
1/2-x,-y,z
x,1/2-y,1/2-z
1/2-x,1/2+y,1/2-z
-x,-y,-z
1/2+x,y,-z
-x,1/2+y,1/2+z
1/2+x,1/2-y,1/2+z
loop_
_atom_site_type_symbol
_atom_site_label
_atom_site_fract_x
_atom_site_fract_y
_atom_site_fract_z
Si Si1 0.464307 0.849884 0.990176
Si Si2 0.750000 0.500000 0.973576
Si Si3 0.318087 0.739223 0.599731
Si Si4 0.040184 0.750000 0.250000
Si Si5 0.423126 0.750000 0.250000
Si Si6 0.250000 0.500000 0.463798
Si Si7 0.651295 0.971747 0.736081
O O1 0.386609 0.825931 0.954820
O O2 0.499327 0.768451 0.877562
O O3 0.467379 0.788074 0.130157
O O4 0.500000 0.000000 0.000000
O O5 0.699488 0.573263 0.876459
O O6 0.707175 0.387802 0.049603
O O7 0.323561 0.750000 0.750000
O O8 0.264656 0.629804 0.550850
O O9 0.087229 0.879887 0.260560
O O10 0.374460 0.625399 0.216192
O O11 0.309767 0.467642 0.367560
#
# Coordination Sequence:
#
# PCOD9413153 Si02
#       7
#     8   4   8   4   4   4   8
#     4  12  25  45  68 100 141 187 230 287 347 422
#     4  11  23  42  68 104 127 161 240 280 352 414
#     4  12  24  42  66  97 140 182 217 288 356 415
#     4  12  24  43  68  96 139 174 234 282 346 412
#     4  12  22  45  68  98 135 178 232 280 348 406
#     4  11  21  42  70  98 137 171 230 286 356 416
#     4  11  22  40  74  98 124 176 225 295 337 410
#
# _framework density 19.110506000000001
#
# number of rings (size 3 to 8) (size 9 to 14) (size 15 to 20)
#    0.000    0.400    7.000    1.800    0.000    4.000 
#    3.600    0.000    4.400    0.000    0.000    0.000 
#    0.000    0.000    0.000    0.000    0.000    0.000 
#
# Total GULP energy -223173.324371 kJ/mol
# GULP energy per Si atom -5579.333109 kJ/mol
# Density = 1.906701 g / cm^3
# Si number density = 19.110506 Si / 1000 Ang^3
#
#
#
# Elastic Constant Matrix: (Units=GPa)
#
#
# Indices 1 2 3 4 5 6 
#
# 1 91.7980 45.6657 52.6530 0.0000 0.0000 0.0000
# 2 45.6657 99.2349 46.7735 0.0000 0.0000 0.0000
# 3 52.6530 46.7735 179.6451 0.0000 0.0000 0.0000
# 4 0.0000 0.0000 0.0000 19.9694 0.0000 0.0000
# 5 0.0000 0.0000 0.0000 0.0000 -14.2841 0.0000
# 6 0.0000 0.0000 0.0000 0.0000 0.0000 38.4584
#
#
#
# Elastic Compliance Matrix: (Units=1/GPa)
#
#
# Indices 1 2 3 4 5 6 
#
# 1 0.015471 -0.005679 -0.003056 0.000000 0.000000 0.000000
# 2 -0.005679 0.013572 -0.001869 0.000000 0.000000 0.000000
# 3 -0.003056 -0.001869 0.006949 0.000000 0.000000 0.000000
# 4 0.000000 0.000000 0.000000 0.050077 0.000000 0.000000
# 5 0.000000 0.000000 0.000000 0.000000 -0.070008 0.000000
# 6 0.000000 0.000000 0.000000 0.000000 0.000000 0.026002
#
#
# Mechanical properties :
#
#
# Convention : Reuss Voigt Hill
#
# Bulk Modulus (GPa) = 67.64313 73.42914 70.53614
# Shear Modulus (GPa) = 73.31504 23.86779 48.59141
#
# Velocity S-wave (km/s) = 6.20057 3.53786 5.04794
# Velocity P-wave (km/s) = 9.31318 7.42937 8.42410
#
# Compressibility (1/GPa) = 0.01478347
#
# Stress axis : x y z
#
# Youngs Moduli (GPa) = 64.63509 73.68379 143.90916
#
# Poissons Ratio (x) = 0.41847 0.43977
# Poissons Ratio (y) = 0.36708 0.26897
# Poissons Ratio (z) = 0.19752 0.13772
#
# Static dielectric constant tensor:
#      x y z
#    x 3.218500 0.000000 0.000000 
#    y 0.000000 1.694980 0.000000 
#    z 0.000000 0.000000 1.658370 
# 
# From -- ./inp_files/20430.got.cif
#   From: 2010.05.17/outbox.cif.g08.bks.cpg/sg52_11_cif.got.tgz:20430.got - 2010.06.03 12:15:38.
