data_PCOD9413792
_publ_section_title
;
Structure prediction by ZEFSAII (Michael W. Deem and Ramdas Pophale) SiO2 
 PCOD9413792
Probable space group: P N N A
;
_chemical_formula_sum "Si O2"
_cell_formula_units_Z 24
_cell_length_a 10.333403
_cell_length_b 4.881219
_cell_length_c 20.953802
_cell_angle_alpha 90.000000
_cell_angle_beta 90.000000
_cell_angle_gamma 90.000000
_cell_volume 1056.901455
_symmetry_space_group_name_H-M "P N N A"
_symmetry_group_IT_number 52
_symmetry_cell_setting 'orthorhombic'
loop_
_space_group_symop_operation_xyz
x,y,z
1/2-x,-y,z
x,1/2-y,1/2-z
1/2-x,1/2+y,1/2-z
-x,-y,-z
1/2+x,y,-z
-x,1/2+y,1/2+z
1/2+x,1/2-y,1/2+z
loop_
_atom_site_type_symbol
_atom_site_label
_atom_site_fract_x
_atom_site_fract_y
_atom_site_fract_z
Si Si1 0.830006 0.250000 0.750000
Si Si2 0.900517 0.442069 0.556984
Si Si3 0.750000 0.500000 0.201212
Si Si4 0.522653 0.056834 0.637025
O O1 0.750000 0.500000 0.718500
O O2 0.908444 0.076194 0.698319
O O3 0.750000 0.500000 0.541032
O O4 0.928014 0.133934 0.579563
O O5 0.000000 0.500000 0.500000
O O6 0.940115 0.639627 0.615750
O O7 0.728138 0.250000 0.250000
O O8 0.627317 0.546689 0.155755
#
# Coordination Sequence:
#
# PCOD9413792 Si02
#       4
#     4   8   4   8
#     4  12  24  42  72 104 142 184 226 294 370 428
#     4  12  28  49  74 104 140 190 245 296 354 418
#     4  12  26  46  72 110 144 188 230 282 362 436
#     4  12  26  46  73 104 146 182 239 294 354 432
#
# _framework density 22.707889999999999
#
# number of rings (size 3 to 8) (size 9 to 14) (size 15 to 20)
#    0.000    0.000    1.667    9.000    7.000    0.000 
#    0.000    0.000    0.000    0.000    0.000    0.000 
#    0.000    0.000    0.000    0.000    0.000    0.000 
#
# Total GULP energy -134335.522449 kJ/mol
# GULP energy per Si atom -5597.313435 kJ/mol
# Density = 2.265621 g / cm^3
# Si number density = 22.707890 Si / 1000 Ang^3
#
#
#
# Elastic Constant Matrix: (Units=GPa)
#
#
# Indices 1 2 3 4 5 6 
#
# 1 197.2954 8.2376 50.6285 0.0000 0.0000 0.0000
# 2 8.2376 84.9223 -15.6888 0.0000 0.0000 0.0000
# 3 50.6285 -15.6888 75.3499 0.0000 0.0000 0.0000
# 4 0.0000 0.0000 0.0000 31.4388 0.0000 0.0000
# 5 0.0000 0.0000 0.0000 0.0000 238.3968 0.0000
# 6 0.0000 0.0000 0.0000 0.0000 0.0000 28.3301
#
#
#
# Elastic Compliance Matrix: (Units=1/GPa)
#
#
# Indices 1 2 3 4 5 6 
#
# 1 0.006291 -0.001447 -0.004528 0.000000 0.000000 0.000000
# 2 -0.001447 0.012579 0.003591 0.000000 0.000000 0.000000
# 3 -0.004528 0.003591 0.017062 0.000000 0.000000 0.000000
# 4 0.000000 0.000000 0.000000 0.031808 0.000000 0.000000
# 5 0.000000 0.000000 0.000000 0.000000 0.004195 0.000000
# 6 0.000000 0.000000 0.000000 0.000000 0.000000 0.035298
#
#
# Mechanical properties :
#
#
# Convention : Reuss Voigt Hill
#
# Bulk Modulus (GPa) = 32.08775 49.32467 40.70621
# Shear Modulus (GPa) = 40.85360 80.59249 60.72305
#
# Velocity S-wave (km/s) = 4.24617 5.96389 5.17677
# Velocity P-wave (km/s) = 6.18072 8.31821 7.32782
#
# Compressibility (1/GPa) = 0.03116454
#
# Stress axis : x y z
#
# Youngs Moduli (GPa) = 158.95877 79.49583 58.61073
#
# Poissons Ratio (x) = 0.11501 0.26540
# Poissons Ratio (y) = 0.22998 -0.21049
# Poissons Ratio (z) = 0.71980 -0.28549
#
# Static dielectric constant tensor:
#      x y z
#    x 1.894870 0.000000 0.000000 
#    y 0.000000 2.123340 0.000000 
#    z 0.000000 0.000000 1.850070 
# 
# From -- ./inp_files/39057.got.cif
#   From: 2010.05.17/outbox.cif.g08.bks.cpg/sg52_20_cif.got.tgz:39057.got - 2010.06.03 12:15:38.
