data_PCOD9413359
_publ_section_title
;
Structure prediction by ZEFSAII (Michael W. Deem and Ramdas Pophale) SiO2 
 PCOD9413359
Probable space group: P N N A
;
_chemical_formula_sum "Si O2"
_cell_formula_units_Z 24
_cell_length_a 16.755081
_cell_length_b 12.430266
_cell_length_c 4.652779
_cell_angle_alpha 90.000000
_cell_angle_beta 90.000000
_cell_angle_gamma 90.000000
_cell_volume 969.034811
_symmetry_space_group_name_H-M "P N N A"
_symmetry_group_IT_number 52
_symmetry_cell_setting 'orthorhombic'
loop_
_space_group_symop_operation_xyz
x,y,z
1/2-x,-y,z
x,1/2-y,1/2-z
1/2-x,1/2+y,1/2-z
-x,-y,-z
1/2+x,y,-z
-x,1/2+y,1/2+z
1/2+x,1/2-y,1/2+z
loop_
_atom_site_type_symbol
_atom_site_label
_atom_site_fract_x
_atom_site_fract_y
_atom_site_fract_z
Si Si1 0.921070 0.668710 0.997928
Si Si2 0.405319 0.134005 0.390650
Si Si3 0.161363 0.981755 0.861938
O O1 0.889797 0.750000 0.750000
O O2 0.940050 0.750000 0.250000
O O3 0.867880 0.579345 0.157325
O O4 0.010240 0.623621 0.940073
O O5 0.395064 0.250000 0.250000
O O6 0.339951 0.115524 0.635758
O O7 0.394361 0.047245 0.133039
O O8 0.250000 0.000000 0.974780
#
# Coordination Sequence:
#
# PCOD9413359 Si02
#       3
#     8   8   8
#     4  11  23  42  68  97 128 173 224 273 321 386
#     4  11  23  43  66  92 126 174 225 271 322 391
#     4  12  25  41  64  97 135 173 213 272 340 397
#
# _framework density 24.766914
#
# number of rings (size 3 to 8) (size 9 to 14) (size 15 to 20)
#    0.000    0.667    0.000   10.000    0.000    4.000 
#    0.000    0.000    0.000    0.000    0.000    0.000 
#    0.000    0.000    0.000    0.000    0.000    0.000 
#
# Total GULP energy -134012.619881 kJ/mol
# GULP energy per Si atom -5583.859162 kJ/mol
# Density = 2.471054 g / cm^3
# Si number density = 24.766914 Si / 1000 Ang^3
#
#
#
# Elastic Constant Matrix: (Units=GPa)
#
#
# Indices 1 2 3 4 5 6 
#
# 1 76.4103 34.1258 9.1393 0.0000 0.0000 0.0000
# 2 34.1258 94.9620 22.1981 0.0000 0.0000 0.0000
# 3 9.1393 22.1981 113.8565 0.0000 0.0000 0.0000
# 4 0.0000 0.0000 0.0000 47.1676 0.0000 0.0000
# 5 0.0000 0.0000 0.0000 0.0000 32.2994 0.0000
# 6 0.0000 0.0000 0.0000 0.0000 0.0000 8.5926
#
#
#
# Elastic Compliance Matrix: (Units=1/GPa)
#
#
# Indices 1 2 3 4 5 6 
#
# 1 0.015592 -0.005564 -0.000167 0.000000 0.000000 0.000000
# 2 -0.005564 0.013019 -0.002092 0.000000 0.000000 0.000000
# 3 -0.000167 -0.002092 0.009204 0.000000 0.000000 0.000000
# 4 0.000000 0.000000 0.000000 0.021201 0.000000 0.000000
# 5 0.000000 0.000000 0.000000 0.000000 0.030960 0.000000
# 6 0.000000 0.000000 0.000000 0.000000 0.000000 0.116379
#
#
# Mechanical properties :
#
#
# Convention : Reuss Voigt Hill
#
# Bulk Modulus (GPa) = 45.10569 46.23947 45.67258
# Shear Modulus (GPa) = 21.79682 32.26296 27.02989
#
# Velocity S-wave (km/s) = 2.96983 3.61316 3.30717
# Velocity P-wave (km/s) = 5.47827 6.00974 5.75015
#
# Compressibility (1/GPa) = 0.02217015
#
# Stress axis : x y z
#
# Youngs Moduli (GPa) = 64.13440 76.81047 108.64648
#
# Poissons Ratio (x) = 0.42740 0.01812
# Poissons Ratio (y) = 0.35686 0.22725
# Poissons Ratio (z) = 0.01069 0.16066
#
# Static dielectric constant tensor:
#      x y z
#    x 1.957190 0.000000 0.000000 
#    y 0.000000 2.004830 0.000000 
#    z 0.000000 0.000000 1.905030 
# 
# From -- ./inp_files/2831.got.cif
#   From: 2010.05.17/outbox.cif.g08.bks.cpg/sg52_2_cif.got.tgz:2831.got - 2010.06.03 12:15:38.
