data_PCOD9413594
_publ_section_title
;
Structure prediction by ZEFSAII (Michael W. Deem and Ramdas Pophale) SiO2 
 PCOD9413594
Probable space group: P N N A
;
_chemical_formula_sum "Si O2"
_cell_formula_units_Z 40
_cell_length_a 9.529232
_cell_length_b 8.666823
_cell_length_c 21.453596
_cell_angle_alpha 90.000000
_cell_angle_beta 90.000000
_cell_angle_gamma 90.000000
_cell_volume 1771.813171
_symmetry_space_group_name_H-M "P N N A"
_symmetry_group_IT_number 52
_symmetry_cell_setting 'orthorhombic'
loop_
_space_group_symop_operation_xyz
x,y,z
1/2-x,-y,z
x,1/2-y,1/2-z
1/2-x,1/2+y,1/2-z
-x,-y,-z
1/2+x,y,-z
-x,1/2+y,1/2+z
1/2+x,1/2-y,1/2+z
loop_
_atom_site_type_symbol
_atom_site_label
_atom_site_fract_x
_atom_site_fract_y
_atom_site_fract_z
Si Si1 0.887193 0.087539 0.859226
Si Si2 0.909834 0.438901 0.826614
Si Si3 0.596270 0.922658 0.218986
Si Si4 0.369033 0.391949 0.504309
Si Si5 0.090569 0.561858 0.942207
O O1 0.914336 0.254032 0.829635
O O2 0.844983 0.138262 0.930456
O O3 0.750000 0.000000 0.834404
O O4 0.016684 0.968413 0.846410
O O5 0.750000 0.500000 0.830138
O O6 0.989234 0.493582 0.765482
O O7 0.002300 0.512050 0.882336
O O8 0.607477 0.750000 0.250000
O O9 0.750000 0.000000 0.218590
O O10 0.250000 0.500000 0.531345
O O11 0.500000 0.500000 0.500000
O O12 0.393455 0.241777 0.544219
O O13 0.250000 0.500000 0.939615
O O14 0.000000 0.500000 0.000000
#
# Coordination Sequence:
#
# PCOD9413594 Si02
#       5
#     8   8   8   8   8
#     4  11  25  46  72 104 144 190 244 293 362 430
#     4  12  26  46  76 106 146 193 243 300 362 436
#     4  12  27  49  76 108 145 187 241 303 368 434
#     4  11  26  43  70 103 147 193 238 297 355 428
#     4  12  25  45  72 106 146 193 245 295 362 431
#
# _framework density 22.575744
#
# number of rings (size 3 to 8) (size 9 to 14) (size 15 to 20)
#    0.000    0.400    2.000    6.000    8.400    0.800 
#    0.000    0.000    0.000    0.000    0.000    0.000 
#    0.000    0.000    0.000    0.000    0.000    0.000 
#
# Total GULP energy -223523.841044 kJ/mol
# GULP energy per Si atom -5588.096026 kJ/mol
# Density = 2.252436 g / cm^3
# Si number density = 22.575744 Si / 1000 Ang^3
#
#
#
# Elastic Constant Matrix: (Units=GPa)
#
#
# Indices 1 2 3 4 5 6 
#
# 1 212.1718 82.9576 33.6812 0.0000 0.0000 0.0000
# 2 82.9576 224.0663 33.0161 0.0000 0.0000 0.0000
# 3 33.6812 33.0161 93.3634 0.0000 0.0000 0.0000
# 4 0.0000 0.0000 0.0000 35.9417 0.0000 0.0000
# 5 0.0000 0.0000 0.0000 0.0000 27.7384 0.0000
# 6 0.0000 0.0000 0.0000 0.0000 0.0000 48.4712
#
#
#
# Elastic Compliance Matrix: (Units=1/GPa)
#
#
# Indices 1 2 3 4 5 6 
#
# 1 0.005674 -0.001898 -0.001376 0.000000 0.000000 0.000000
# 2 -0.001898 0.005343 -0.001205 0.000000 0.000000 0.000000
# 3 -0.001376 -0.001205 0.011633 0.000000 0.000000 0.000000
# 4 0.000000 0.000000 0.000000 0.027823 0.000000 0.000000
# 5 0.000000 0.000000 0.000000 0.000000 0.036051 0.000000
# 6 0.000000 0.000000 0.000000 0.000000 0.000000 0.020631
#
#
# Mechanical properties :
#
#
# Convention : Reuss Voigt Hill
#
# Bulk Modulus (GPa) = 73.02872 92.10127 82.56499
# Shear Modulus (GPa) = 41.43334 47.76003 44.59669
#
# Velocity S-wave (km/s) = 4.28869 4.60450 4.44940
# Velocity P-wave (km/s) = 7.54602 8.31587 7.94028
#
# Compressibility (1/GPa) = 0.01369324
#
# Stress axis : x y z
#
# Youngs Moduli (GPa) = 176.25523 187.15510 85.96111
#
# Poissons Ratio (x) = 0.35520 0.11825
# Poissons Ratio (y) = 0.33451 0.10357
# Poissons Ratio (z) = 0.24246 0.22549
#
# Static dielectric constant tensor:
#      x y z
#    x 1.793580 0.000000 0.000000 
#    y 0.000000 1.796890 0.000000 
#    z 0.000000 0.000000 1.267070 
# 
# From -- ./inp_files/39166.got.cif
#   From: 2010.05.17/outbox.cif.g08.bks.cpg/sg52_20_cif.got.tgz:39166.got - 2010.06.03 12:15:38.
