data_PCOD9413781
_publ_section_title
;
Structure prediction by ZEFSAII (Michael W. Deem and Ramdas Pophale) SiO2 
 PCOD9413781
Probable space group: P N N A
;
_chemical_formula_sum "Si O2"
_cell_formula_units_Z 32
_cell_length_a 14.579288
_cell_length_b 8.454579
_cell_length_c 10.204326
_cell_angle_alpha 90.000000
_cell_angle_beta 90.000000
_cell_angle_gamma 90.000000
_cell_volume 1257.803000
_symmetry_space_group_name_H-M "P N N A"
_symmetry_group_IT_number 52
_symmetry_cell_setting 'orthorhombic'
loop_
_space_group_symop_operation_xyz
x,y,z
1/2-x,-y,z
x,1/2-y,1/2-z
1/2-x,1/2+y,1/2-z
-x,-y,-z
1/2+x,y,-z
-x,1/2+y,1/2+z
1/2+x,1/2-y,1/2+z
loop_
_atom_site_type_symbol
_atom_site_label
_atom_site_fract_x
_atom_site_fract_y
_atom_site_fract_z
Si Si1 0.601517 0.059207 0.964650
Si Si2 0.154484 0.563954 0.725429
Si Si3 0.830619 0.095166 0.698544
Si Si4 0.525859 0.138460 0.405024
O O1 0.590341 0.239783 0.015883
O O2 0.658937 0.960790 0.070047
O O3 0.500000 0.000000 0.000000
O O4 0.632457 0.017001 0.817747
O O5 0.250000 0.500000 0.782721
O O6 0.136635 0.750000 0.750000
O O7 0.078512 0.442843 0.783370
O O8 0.779429 0.250000 0.750000
O O9 0.920315 0.176745 0.632783
O O10 0.750000 0.000000 0.623761
O O11 0.500000 0.000000 0.500000
#
# Coordination Sequence:
#
# PCOD9413781 Si02
#       4
#     8   8   8   8
#     4  12  23  49  75 100 147 193 246 303 367 435
#     4  12  26  46  75 108 143 188 245 304 366 435
#     4  12  28  47  75 109 151 196 247 306 375 442
#     4  12  27  46  75 106 148 197 246 301 369 441
#
# _framework density 25.441186999999999
#
# number of rings (size 3 to 8) (size 9 to 14) (size 15 to 20)
#    0.000    0.000    5.000    4.500    3.500    1.000 
#    0.000    0.000    0.000    0.000    0.000    0.000 
#    0.000    0.000    0.000    0.000    0.000    0.000 
#
# Total GULP energy -178458.792728 kJ/mol
# GULP energy per Si atom -5576.837273 kJ/mol
# Density = 2.538328 g / cm^3
# Si number density = 25.441187 Si / 1000 Ang^3
#
#
#
# Elastic Constant Matrix: (Units=GPa)
#
#
# Indices 1 2 3 4 5 6 
#
# 1 124.1613 10.1760 -8.0039 0.0000 0.0000 0.0000
# 2 10.1760 124.8372 -4.9342 0.0000 0.0000 0.0000
# 3 -8.0039 -4.9342 66.4349 0.0000 0.0000 0.0000
# 4 0.0000 0.0000 0.0000 42.8588 0.0000 0.0000
# 5 0.0000 0.0000 0.0000 0.0000 4.0116 0.0000
# 6 0.0000 0.0000 0.0000 0.0000 0.0000 37.8525
#
#
#
# Elastic Compliance Matrix: (Units=1/GPa)
#
#
# Indices 1 2 3 4 5 6 
#
# 1 0.008166 -0.000629 0.000937 0.000000 0.000000 0.000000
# 2 -0.000629 0.008082 0.000525 0.000000 0.000000 0.000000
# 3 0.000937 0.000525 0.015204 0.000000 0.000000 0.000000
# 4 0.000000 0.000000 0.000000 0.023332 0.000000 0.000000
# 5 0.000000 0.000000 0.000000 0.000000 0.249275 0.000000
# 6 0.000000 0.000000 0.000000 0.000000 0.000000 0.026418
#
#
# Mechanical properties :
#
#
# Convention : Reuss Voigt Hill
#
# Bulk Modulus (GPa) = 30.19441 34.43438 32.31439
# Shear Modulus (GPa) = 14.71228 38.15762 26.43495
#
# Velocity S-wave (km/s) = 2.40737 3.87697 3.22694
# Velocity P-wave (km/s) = 4.42959 5.79703 5.15882
#
# Compressibility (1/GPa) = 0.03311871
#
# Stress axis : x y z
#
# Youngs Moduli (GPa) = 122.45945 123.72556 65.77134
#
# Poissons Ratio (x) = 0.07777 -0.06164
# Poissons Ratio (y) = 0.07698 -0.03450
# Poissons Ratio (z) = -0.11476 -0.06490
#
# Static dielectric constant tensor:
#      x y z
#    x 2.717500 0.000000 0.000000 
#    y 0.000000 1.959880 0.000000 
#    z 0.000000 0.000000 1.918130 
# 
# From -- ./inp_files/18863.got.cif
#   From: 2010.05.17/outbox.cif.g08.bks.cpg/sg52_10_cif.got.tgz:18863.got - 2010.06.03 12:15:38.
