data_PCOD9413656
_publ_section_title
;
Structure prediction by ZEFSAII (Michael W. Deem and Ramdas Pophale) SiO2 
 PCOD9413656
Probable space group: P N N A
;
_chemical_formula_sum "Si O2"
_cell_formula_units_Z 40
_cell_length_a 19.405175
_cell_length_b 9.202575
_cell_length_c 9.717312
_cell_angle_alpha 90.000000
_cell_angle_beta 90.000000
_cell_angle_gamma 90.000000
_cell_volume 1735.294045
_symmetry_space_group_name_H-M "P N N A"
_symmetry_group_IT_number 52
_symmetry_cell_setting 'orthorhombic'
loop_
_space_group_symop_operation_xyz
x,y,z
1/2-x,-y,z
x,1/2-y,1/2-z
1/2-x,1/2+y,1/2-z
-x,-y,-z
1/2+x,y,-z
-x,1/2+y,1/2+z
1/2+x,1/2-y,1/2+z
loop_
_atom_site_type_symbol
_atom_site_label
_atom_site_fract_x
_atom_site_fract_y
_atom_site_fract_z
Si Si1 0.384445 0.317437 0.401387
Si Si2 0.743039 0.671681 0.392803
Si Si3 0.675288 0.429011 0.032038
Si Si4 0.089027 0.421350 0.230391
Si Si5 0.058612 0.869924 0.631278
O O1 0.377250 0.250000 0.250000
O O2 0.314584 0.308087 0.489742
O O3 0.404633 0.483092 0.367325
O O4 0.438245 0.225567 0.491762
O O5 0.750000 0.500000 0.372809
O O6 0.723569 0.750000 0.250000
O O7 0.811796 0.741043 0.061437
O O8 0.750000 0.500000 0.049799
O O9 0.618488 0.509288 0.125027
O O10 0.648967 0.457036 0.877900
O O11 0.093635 0.250000 0.250000
O O12 0.014656 0.443616 0.159969
O O13 0.069256 0.750000 0.750000
#
# Coordination Sequence:
#
# PCOD9413656 Si02
#       5
#     8   8   8   8   8
#     4  12  25  46  77 105 151 196 246 318 378 434
#     4  12  28  46  74 112 150 195 246 310 384 459
#     4  12  24  46  77 108 150 196 251 313 377 452
#     4  11  26  48  74 113 153 200 254 311 383 455
#     4  11  26  49  78 105 158 197 255 310 376 457
#
# _framework density 23.050850000000001
#
# number of rings (size 3 to 8) (size 9 to 14) (size 15 to 20)
#    0.000    0.400    4.000    3.000    2.800    8.000 
#    3.600    0.000    0.000    0.000    0.000    0.000 
#    0.000    0.000    0.000    0.000    0.000    0.000 
#
# Total GULP energy -223878.841030 kJ/mol
# GULP energy per Si atom -5596.971026 kJ/mol
# Density = 2.299839 g / cm^3
# Si number density = 23.050850 Si / 1000 Ang^3
#
#
#
# Elastic Constant Matrix: (Units=GPa)
#
#
# Indices 1 2 3 4 5 6 
#
# 1 92.0951 36.6686 47.3511 0.0000 0.0000 0.0000
# 2 36.6686 176.8884 47.5364 0.0000 0.0000 0.0000
# 3 47.3511 47.5364 140.1749 0.0000 0.0000 0.0000
# 4 0.0000 0.0000 0.0000 33.9576 0.0000 0.0000
# 5 0.0000 0.0000 0.0000 0.0000 34.7461 0.0000
# 6 0.0000 0.0000 0.0000 0.0000 0.0000 34.3212
#
#
#
# Elastic Compliance Matrix: (Units=1/GPa)
#
#
# Indices 1 2 3 4 5 6 
#
# 1 0.013613 -0.001745 -0.004007 0.000000 0.000000 0.000000
# 2 -0.001745 0.006444 -0.001596 0.000000 0.000000 0.000000
# 3 -0.004007 -0.001596 0.009029 0.000000 0.000000 0.000000
# 4 0.000000 0.000000 0.000000 0.029448 0.000000 0.000000
# 5 0.000000 0.000000 0.000000 0.000000 0.028780 0.000000
# 6 0.000000 0.000000 0.000000 0.000000 0.000000 0.029137
#
#
# Mechanical properties :
#
#
# Convention : Reuss Voigt Hill
#
# Bulk Modulus (GPa) = 69.49092 74.69674 72.09383
# Shear Modulus (GPa) = 36.78008 39.11181 37.94595
#
# Velocity S-wave (km/s) = 3.99884 4.12365 4.06172
# Velocity P-wave (km/s) = 7.17866 7.42618 7.30347
#
# Compressibility (1/GPa) = 0.01439037
#
# Stress axis : x y z
#
# Youngs Moduli (GPa) = 73.45748 155.18559 110.75965
#
# Poissons Ratio (x) = 0.27084 0.44378
# Poissons Ratio (y) = 0.12820 0.17674
# Poissons Ratio (z) = 0.29432 0.24763
#
# Static dielectric constant tensor:
#      x y z
#    x 1.862860 0.000000 0.000000 
#    y 0.000000 1.964680 0.000000 
#    z 0.000000 0.000000 1.869270 
# 
# From -- ./inp_files/11638.got.cif
#   From: 2010.05.17/outbox.cif.g08.bks.cpg/sg52_6_cif.got.tgz:11638.got - 2010.06.03 12:15:38.
