data_PCOD9413445
_publ_section_title
;
Structure prediction by ZEFSAII (Michael W. Deem and Ramdas Pophale) SiO2 
 PCOD9413445
Probable space group: P N N A
;
_chemical_formula_sum "Si O2"
_cell_formula_units_Z 32
_cell_length_a 17.866179
_cell_length_b 6.585983
_cell_length_c 13.326076
_cell_angle_alpha 90.000000
_cell_angle_beta 90.000000
_cell_angle_gamma 90.000000
_cell_volume 1568.030738
_symmetry_space_group_name_H-M "P N N A"
_symmetry_group_IT_number 52
_symmetry_cell_setting 'orthorhombic'
loop_
_space_group_symop_operation_xyz
x,y,z
1/2-x,-y,z
x,1/2-y,1/2-z
1/2-x,1/2+y,1/2-z
-x,-y,-z
1/2+x,y,-z
-x,1/2+y,1/2+z
1/2+x,1/2-y,1/2+z
loop_
_atom_site_type_symbol
_atom_site_label
_atom_site_fract_x
_atom_site_fract_y
_atom_site_fract_z
Si Si1 0.981818 0.881199 0.352360
Si Si2 0.121520 0.864114 0.144704
Si Si3 0.941108 0.750000 0.750000
Si Si4 0.750000 0.000000 0.991607
Si Si5 0.185550 0.330865 0.864781
O O1 0.973093 0.750000 0.250000
O O2 0.898454 0.900432 0.393539
O O3 0.049284 0.752312 0.403397
O O4 0.011001 0.101331 0.320459
O O5 0.136601 0.750000 0.250000
O O6 0.193332 0.869310 0.075382
O O7 0.103405 0.094972 0.178321
O O8 0.703222 0.146378 0.062378
O O9 0.250000 0.500000 0.874904
O O10 0.187540 0.250000 0.750000
#
# Coordination Sequence:
#
# PCOD9413445 Si02
#       5
#     8   8   4   4   8
#     4   8  18  37  63  91 122 165 211 256 322 375
#     4   9  21  40  63  94 127 164 206 260 323 382
#     4   8  16  36  66  88 122 162 204 260 320 368
#     4  12  26  40  62  98 130 164 216 260 316 384
#     4  11  24  41  64  92 127 170 215 265 315 370
#
# _framework density 20.407762000000002
#
# number of rings (size 3 to 8) (size 9 to 14) (size 15 to 20)
#    0.000    3.000    1.250    0.000    3.500    7.000 
#    0.000    2.500    0.000    0.000    0.000    0.000 
#    0.000    0.000    0.000    0.000    0.000    0.000 
#
# Total GULP energy -178410.816268 kJ/mol
# GULP energy per Si atom -5575.338008 kJ/mol
# Density = 2.036131 g / cm^3
# Si number density = 20.407762 Si / 1000 Ang^3
#
#
#
# Elastic Constant Matrix: (Units=GPa)
#
#
# Indices 1 2 3 4 5 6 
#
# 1 121.7257 13.3719 36.4964 0.0000 0.0000 0.0000
# 2 13.3719 91.0461 15.9313 0.0000 0.0000 0.0000
# 3 36.4964 15.9313 54.5718 0.0000 0.0000 0.0000
# 4 0.0000 0.0000 0.0000 17.2586 0.0000 0.0000
# 5 0.0000 0.0000 0.0000 0.0000 -54.8782 0.0000
# 6 0.0000 0.0000 0.0000 0.0000 0.0000 18.4334
#
#
#
# Elastic Compliance Matrix: (Units=1/GPa)
#
#
# Indices 1 2 3 4 5 6 
#
# 1 0.010285 -0.000323 -0.006784 0.000000 0.000000 0.000000
# 2 -0.000323 0.011585 -0.003166 0.000000 0.000000 0.000000
# 3 -0.006784 -0.003166 0.023785 0.000000 0.000000 0.000000
# 4 0.000000 0.000000 0.000000 0.057942 0.000000 0.000000
# 5 0.000000 0.000000 0.000000 0.000000 -0.018222 0.000000
# 6 0.000000 0.000000 0.000000 0.000000 0.000000 0.054249
#
#
# Mechanical properties :
#
#
# Convention : Reuss Voigt Hill
#
# Bulk Modulus (GPa) = 39.82594 44.32696 42.07645
# Shear Modulus (GPa) = 29.66660 9.59902 19.63281
#
# Velocity S-wave (km/s) = 3.81687 2.17113 3.10502
# Velocity P-wave (km/s) = 6.24356 5.29650 5.78943
#
# Compressibility (1/GPa) = 0.02510927
#
# Stress axis : x y z
#
# Youngs Moduli (GPa) = 97.23220 86.31936 42.04252
#
# Poissons Ratio (x) = 0.02792 0.28520
# Poissons Ratio (y) = 0.03145 0.13309
# Poissons Ratio (z) = 0.65960 0.27326
#
# Static dielectric constant tensor:
#      x y z
#    x 1.760310 0.000000 0.000000 
#    y 0.000000 1.705220 0.000000 
#    z 0.000000 0.000000 1.720980 
# 
# From -- ./inp_files/27642.got.cif
#   From: 2010.05.17/outbox.cif.g08.bks.cpg/sg52_14_cif.got.tgz:27642.got - 2010.06.03 12:15:38.
