data_PCOD9413797
_publ_section_title
;
Structure prediction by ZEFSAII (Michael W. Deem and Ramdas Pophale) SiO2 
 PCOD9413797
Probable space group: P N N A
;
_chemical_formula_sum "Si O2"
_cell_formula_units_Z 32
_cell_length_a 8.448412
_cell_length_b 5.614094
_cell_length_c 25.839380
_cell_angle_alpha 90.000000
_cell_angle_beta 90.000000
_cell_angle_gamma 90.000000
_cell_volume 1225.566422
_symmetry_space_group_name_H-M "P N N A"
_symmetry_group_IT_number 52
_symmetry_cell_setting 'orthorhombic'
loop_
_space_group_symop_operation_xyz
x,y,z
1/2-x,-y,z
x,1/2-y,1/2-z
1/2-x,1/2+y,1/2-z
-x,-y,-z
1/2+x,y,-z
-x,1/2+y,1/2+z
1/2+x,1/2-y,1/2+z
loop_
_atom_site_type_symbol
_atom_site_label
_atom_site_fract_x
_atom_site_fract_y
_atom_site_fract_z
Si Si1 0.619687 0.292431 0.561961
Si Si2 0.398499 0.882786 0.892656
Si Si3 0.750000 0.000000 0.279387
Si Si4 0.916597 0.029023 0.664035
Si Si5 0.750000 0.500000 0.032411
O O1 0.750000 0.500000 0.559670
O O2 0.451539 0.425525 0.564062
O O3 0.643253 0.125077 0.513649
O O4 0.615475 0.142598 0.614780
O O5 0.542148 0.795879 0.856888
O O6 0.250000 0.000000 0.863859
O O7 0.340955 0.654888 0.923149
O O8 0.775040 0.750000 0.250000
O O9 0.916971 0.037580 0.309705
O O10 0.750000 0.000000 0.694405
#
# Coordination Sequence:
#
# PCOD9413797 Si02
#       5
#     8   8   4   8   4
#     4  12  24  44  72 109 156 217 275 338 387 475
#     4  12  26  44  74 108 164 220 271 337 393 468
#     4  12  33  58  94 132 164 200 268 350 437 536
#     4  12  27  54  84 118 162 213 270 332 422 503
#     4  12  25  44  66 114 162 220 284 330 393 456
#
# _framework density 26.110375999999999
#
# number of rings (size 3 to 8) (size 9 to 14) (size 15 to 20)
#    0.000    0.000    3.750    5.250    5.250    8.000 
#    0.000    0.000    0.000    0.000    0.000    0.000 
#    0.000    0.000    0.000    0.000    0.000    0.000 
#
# Total GULP energy -178233.711006 kJ/mol
# GULP energy per Si atom -5569.803469 kJ/mol
# Density = 2.605095 g / cm^3
# Si number density = 26.110376 Si / 1000 Ang^3
#
#
#
# Elastic Constant Matrix: (Units=GPa)
#
#
# Indices 1 2 3 4 5 6 
#
# 1 218.0835 53.4730 46.8156 0.0000 0.0000 0.0000
# 2 53.4730 90.4988 28.0939 0.0000 0.0000 0.0000
# 3 46.8156 28.0939 64.0249 0.0000 0.0000 0.0000
# 4 0.0000 0.0000 0.0000 -142.9689 0.0000 0.0000
# 5 0.0000 0.0000 0.0000 0.0000 87.2961 0.0000
# 6 0.0000 0.0000 0.0000 0.0000 0.0000 83.1437
#
#
#
# Elastic Compliance Matrix: (Units=1/GPa)
#
#
# Indices 1 2 3 4 5 6 
#
# 1 0.005883 -0.002478 -0.003214 0.000000 0.000000 0.000000
# 2 -0.002478 0.013836 -0.004259 0.000000 0.000000 0.000000
# 3 -0.003214 -0.004259 0.019838 0.000000 0.000000 0.000000
# 4 0.000000 0.000000 0.000000 -0.006995 0.000000 0.000000
# 5 0.000000 0.000000 0.000000 0.000000 0.011455 0.000000
# 6 0.000000 0.000000 0.000000 0.000000 0.000000 0.012027
#
#
# Mechanical properties :
#
#
# Convention : Reuss Voigt Hill
#
# Bulk Modulus (GPa) = 50.88010 69.93026 60.40518
# Shear Modulus (GPa) = 60.60548 21.77581 41.19064
#
# Velocity S-wave (km/s) = 4.82303 2.89102 3.97616
# Velocity P-wave (km/s) = 7.10946 6.16317 6.65316
#
# Compressibility (1/GPa) = 0.01965405
#
# Stress axis : x y z
#
# Youngs Moduli (GPa) = 169.97912 72.27293 50.40787
#
# Poissons Ratio (x) = 0.17911 0.16203
# Poissons Ratio (y) = 0.42126 0.21470
# Poissons Ratio (z) = 0.54636 0.30783
#
# Static dielectric constant tensor:
#      x y z
#    x 2.329570 0.000000 0.000000 
#    y 0.000000 2.418860 0.000000 
#    z 0.000000 0.000000 2.117590 
# 
# From -- ./inp_files/44060.got.cif
#   From: 2010.05.17/outbox.cif.g08.bks.cpg/sg52_23_cif.got.tgz:44060.got - 2010.06.03 12:15:38.
