data_PCOD9413707
_publ_section_title
;
Structure prediction by ZEFSAII (Michael W. Deem and Ramdas Pophale) SiO2 
 PCOD9413707
Probable space group: P N N A
;
_chemical_formula_sum "Si O2"
_cell_formula_units_Z 28
_cell_length_a 7.957597
_cell_length_b 8.336354
_cell_length_c 21.563717
_cell_angle_alpha 90.000000
_cell_angle_beta 90.000000
_cell_angle_gamma 90.000000
_cell_volume 1430.479747
_symmetry_space_group_name_H-M "P N N A"
_symmetry_group_IT_number 52
_symmetry_cell_setting 'orthorhombic'
loop_
_space_group_symop_operation_xyz
x,y,z
1/2-x,-y,z
x,1/2-y,1/2-z
1/2-x,1/2+y,1/2-z
-x,-y,-z
1/2+x,y,-z
-x,1/2+y,1/2+z
1/2+x,1/2-y,1/2+z
loop_
_atom_site_type_symbol
_atom_site_label
_atom_site_fract_x
_atom_site_fract_y
_atom_site_fract_z
Si Si1 0.050198 0.338399 0.538324
Si Si2 0.709210 0.316312 0.923453
Si Si3 0.406948 0.874882 0.193499
Si Si4 0.750000 0.000000 0.142409
O O1 0.113921 0.211179 0.488139
O O2 0.185822 0.367796 0.592360
O O3 0.000000 0.500000 0.500000
O O4 0.882341 0.279021 0.570103
O O5 0.750000 0.500000 0.910927
O O6 0.611605 0.230156 0.868620
O O7 0.403507 0.750000 0.250000
O O8 0.588352 0.958695 0.184228
O O9 0.250000 0.000000 0.198123
#
# Coordination Sequence:
#
# PCOD9413707 Si02
#       4
#     8   8   8   4
#     4  12  20  40  72 102 140 180 224 284 355 416
#     4  12  23  40  67 108 144 177 227 290 350 418
#     4  12  26  48  71  96 136 189 236 284 345 414
#     4  12  24  44  74 102 136 178 238 278 348 416
#
# _framework density 19.573851999999999
#
# number of rings (size 3 to 8) (size 9 to 14) (size 15 to 20)
#    0.000    0.000    8.571    1.714    0.000    1.143 
#    5.143    0.000    0.000    0.000    0.000    0.000 
#    0.000    0.000    0.000    0.000    0.000    0.000 
#
# Total GULP energy -156463.159187 kJ/mol
# GULP energy per Si atom -5587.969971 kJ/mol
# Density = 1.952930 g / cm^3
# Si number density = 19.573852 Si / 1000 Ang^3
#
#
#
# Elastic Constant Matrix: (Units=GPa)
#
#
# Indices 1 2 3 4 5 6 
#
# 1 133.3801 39.6612 39.4239 0.0000 0.0000 0.0000
# 2 39.6612 94.0172 20.4497 0.0000 0.0000 0.0000
# 3 39.4239 20.4497 85.1896 0.0000 0.0000 0.0000
# 4 0.0000 0.0000 0.0000 11.8528 0.0000 0.0000
# 5 0.0000 0.0000 0.0000 0.0000 21.8130 0.0000
# 6 0.0000 0.0000 0.0000 0.0000 0.0000 16.3514
#
#
#
# Elastic Compliance Matrix: (Units=1/GPa)
#
#
# Indices 1 2 3 4 5 6 
#
# 1 0.009533 -0.003230 -0.003636 0.000000 0.000000 0.000000
# 2 -0.003230 0.012317 -0.001462 0.000000 0.000000 0.000000
# 3 -0.003636 -0.001462 0.013772 0.000000 0.000000 0.000000
# 4 0.000000 0.000000 0.000000 0.084369 0.000000 0.000000
# 5 0.000000 0.000000 0.000000 0.000000 0.045844 0.000000
# 6 0.000000 0.000000 0.000000 0.000000 0.000000 0.061157
#
#
# Mechanical properties :
#
#
# Convention : Reuss Voigt Hill
#
# Bulk Modulus (GPa) = 52.72767 56.85070 54.78918
# Shear Modulus (GPa) = 20.00243 24.20691 22.10467
#
# Velocity S-wave (km/s) = 3.20018 3.52048 3.36415
# Velocity P-wave (km/s) = 6.37582 6.75517 6.56824
#
# Compressibility (1/GPa) = 0.01896538
#
# Stress axis : x y z
#
# Youngs Moduli (GPa) = 104.90205 81.18816 72.61060
#
# Poissons Ratio (x) = 0.26228 0.26402
# Poissons Ratio (y) = 0.33889 0.10613
# Poissons Ratio (z) = 0.38143 0.11867
#
# Static dielectric constant tensor:
#      x y z
#    x 1.702380 0.000000 0.000000 
#    y 0.000000 1.667050 0.000000 
#    z 0.000000 0.000000 1.714800 
# 
# From -- ./inp_files/30638.got.cif
#   From: 2010.05.17/outbox.cif.g08.bks.cpg/sg52_16_cif.got.tgz:30638.got - 2010.06.03 12:15:38.
