data_PCOD9413667
_publ_section_title
;
Structure prediction by ZEFSAII (Michael W. Deem and Ramdas Pophale) SiO2 
 PCOD9413667
Probable space group: P N N A
;
_chemical_formula_sum "Si O2"
_cell_formula_units_Z 32
_cell_length_a 19.627744
_cell_length_b 13.999730
_cell_length_c 4.938436
_cell_angle_alpha 90.000000
_cell_angle_beta 90.000000
_cell_angle_gamma 90.000000
_cell_volume 1356.998835
_symmetry_space_group_name_H-M "P N N A"
_symmetry_group_IT_number 52
_symmetry_cell_setting 'orthorhombic'
loop_
_space_group_symop_operation_xyz
x,y,z
1/2-x,-y,z
x,1/2-y,1/2-z
1/2-x,1/2+y,1/2-z
-x,-y,-z
1/2+x,y,-z
-x,1/2+y,1/2+z
1/2+x,1/2-y,1/2+z
loop_
_atom_site_type_symbol
_atom_site_label
_atom_site_fract_x
_atom_site_fract_y
_atom_site_fract_z
Si Si1 0.631448 0.250000 0.750000
Si Si2 0.946723 0.062192 0.675490
Si Si3 0.031300 0.250000 0.750000
Si Si4 0.357336 0.033858 0.819918
Si Si5 0.224428 0.352771 0.604425
O O1 0.581127 0.234252 0.501601
O O2 0.682646 0.334569 0.670211
O O3 0.984017 0.157699 0.772913
O O4 0.888673 0.079248 0.450130
O O5 0.913373 0.017464 0.944981
O O6 0.000000 0.000000 0.500000
O O7 0.298927 0.103804 0.933508
O O8 0.320558 0.934120 0.750152
O O9 0.227126 0.250000 0.750000
#
# Coordination Sequence:
#
# PCOD9413667 Si02
#       5
#     4   8   4   8   8
#     4  12  24  45  72 107 140 192 248 286 368 440
#     4  12  26  48  72 107 150 191 242 303 355 442
#     4  12  26  43  76 103 146 202 240 296 370 436
#     4  11  28  46  73 109 144 186 249 299 366 431
#     4  11  27  46  77 104 144 192 239 309 366 429
#
# _framework density 23.581448999999999
#
# number of rings (size 3 to 8) (size 9 to 14) (size 15 to 20)
#    0.000    0.500    1.250    5.250   10.500    2.000 
#    0.000    0.000    0.000    0.000    0.000    0.000 
#    0.000    0.000    0.000    0.000    0.000    0.000 
#
# Total GULP energy -179181.410890 kJ/mol
# GULP energy per Si atom -5599.419090 kJ/mol
# Density = 2.352778 g / cm^3
# Si number density = 23.581449 Si / 1000 Ang^3
#
#
#
# Elastic Constant Matrix: (Units=GPa)
#
#
# Indices 1 2 3 4 5 6 
#
# 1 108.8320 51.8225 31.0119 0.0000 0.0000 0.0000
# 2 51.8225 135.3800 11.7542 0.0000 0.0000 0.0000
# 3 31.0119 11.7542 114.7455 0.0000 0.0000 0.0000
# 4 0.0000 0.0000 0.0000 28.2776 0.0000 0.0000
# 5 0.0000 0.0000 0.0000 0.0000 374.2105 0.0000
# 6 0.0000 0.0000 0.0000 0.0000 0.0000 42.8752
#
#
#
# Elastic Compliance Matrix: (Units=1/GPa)
#
#
# Indices 1 2 3 4 5 6 
#
# 1 0.012075 -0.004378 -0.002815 0.000000 0.000000 0.000000
# 2 -0.004378 0.009040 0.000257 0.000000 0.000000 0.000000
# 3 -0.002815 0.000257 0.009449 0.000000 0.000000 0.000000
# 4 0.000000 0.000000 0.000000 0.035364 0.000000 0.000000
# 5 0.000000 0.000000 0.000000 0.000000 0.002672 0.000000
# 6 0.000000 0.000000 0.000000 0.000000 0.000000 0.023323
#
#
# Mechanical properties :
#
#
# Convention : Reuss Voigt Hill
#
# Bulk Modulus (GPa) = 59.90485 60.90386 60.40435
# Shear Modulus (GPa) = 44.89932 106.69727 75.79829
#
# Velocity S-wave (km/s) = 4.36823 6.73383 5.67565
# Velocity P-wave (km/s) = 7.13445 9.29206 8.28381
#
# Compressibility (1/GPa) = 0.01669314
#
# Stress axis : x y z
#
# Youngs Moduli (GPa) = 82.81398 110.61799 105.82666
#
# Poissons Ratio (x) = 0.48428 0.29791
# Poissons Ratio (y) = 0.36255 -0.02721
# Poissons Ratio (z) = 0.23313 -0.02845
#
# Static dielectric constant tensor:
#      x y z
#    x 1.902070 0.000000 0.000000 
#    y 0.000000 1.883970 0.000000 
#    z 0.000000 0.000000 1.896890 
# 
# From -- ./inp_files/3021.got.cif
#   From: 2010.05.17/outbox.cif.g08.bks.cpg/sg52_2_cif.got.tgz:3021.got - 2010.06.03 12:15:38.
