data_PCOD9413361
_publ_section_title
;
Structure prediction by ZEFSAII (Michael W. Deem and Ramdas Pophale) SiO2 
 PCOD9413361
Probable space group: P N N A
;
_chemical_formula_sum "Si O2"
_cell_formula_units_Z 56
_cell_length_a 10.616445
_cell_length_b 16.478296
_cell_length_c 14.920988
_cell_angle_alpha 90.000000
_cell_angle_beta 90.000000
_cell_angle_gamma 90.000000
_cell_volume 2610.291415
_symmetry_space_group_name_H-M "P N N A"
_symmetry_group_IT_number 52
_symmetry_cell_setting 'orthorhombic'
loop_
_space_group_symop_operation_xyz
x,y,z
1/2-x,-y,z
x,1/2-y,1/2-z
1/2-x,1/2+y,1/2-z
-x,-y,-z
1/2+x,y,-z
-x,1/2+y,1/2+z
1/2+x,1/2-y,1/2+z
loop_
_atom_site_type_symbol
_atom_site_label
_atom_site_fract_x
_atom_site_fract_y
_atom_site_fract_z
Si Si1 0.107581 0.835225 0.796722
Si Si2 0.380821 0.837468 0.731292
Si Si3 0.120131 0.035238 0.447976
Si Si4 0.925168 0.200294 0.000147
Si Si5 0.468767 0.995301 0.253182
Si Si6 0.673222 0.299065 0.029189
Si Si7 0.382239 0.471616 0.440157
O O1 0.070571 0.750000 0.750000
O O2 0.259051 0.838083 0.795095
O O3 0.063219 0.832662 0.898671
O O4 0.057756 0.915848 0.748858
O O5 0.446358 0.750000 0.750000
O O6 0.328454 0.835504 0.629506
O O7 0.458985 0.918736 0.744959
O O8 0.108051 0.010790 0.344675
O O9 0.129832 0.131165 0.461159
O O10 0.250000 0.000000 0.486506
O O11 0.000000 0.000000 0.500000
O O12 0.810439 0.264737 0.004029
O O13 0.885896 0.125555 0.938209
O O14 0.060559 0.234053 0.972338
O O15 0.394623 0.993647 0.159733
O O16 0.250000 0.500000 0.481235
O O17 0.500000 0.500000 0.500000
#
# Coordination Sequence:
#
# PCOD9413361 Si02
#       7
#     8   8   8   8   8   8   8
#     4  11  23  42  72 108 147 189 252 308 367 439
#     4  11  23  42  72 108 147 189 252 308 367 439
#     4  12  27  47  74 106 149 195 245 303 373 443
#     4  12  25  46  75 109 147 194 246 309 374 442
#     4  12  26  46  72 106 153 190 253 302 385 430
#     4  12  25  46  75 109 147 194 246 309 374 442
#     4  12  27  47  74 106 149 195 245 303 373 443
#
# _framework density 21.453541999999999
#
# number of rings (size 3 to 8) (size 9 to 14) (size 15 to 20)
#    0.000    0.286    5.714    4.286    4.000    0.000 
#    0.000    0.000    0.000    0.000    0.000    0.000 
#    0.000    0.000    0.000    0.000    0.000    0.000 
#
# Total GULP energy -313285.660259 kJ/mol
# GULP energy per Si atom -5594.386790 kJ/mol
# Density = 2.140471 g / cm^3
# Si number density = 21.453542 Si / 1000 Ang^3
#
#
#
# Elastic Constant Matrix: (Units=GPa)
#
#
# Indices 1 2 3 4 5 6 
#
# 1 113.9069 29.4504 21.1796 0.0000 0.0000 0.0000
# 2 29.4504 128.8350 0.5552 0.0000 0.0000 0.0000
# 3 21.1796 0.5552 90.5588 0.0000 0.0000 0.0000
# 4 0.0000 0.0000 0.0000 28.1813 0.0000 0.0000
# 5 0.0000 0.0000 0.0000 0.0000 24.0880 0.0000
# 6 0.0000 0.0000 0.0000 0.0000 0.0000 27.2430
#
#
#
# Elastic Compliance Matrix: (Units=1/GPa)
#
#
# Indices 1 2 3 4 5 6 
#
# 1 0.009777 -0.002225 -0.002273 0.000000 0.000000 0.000000
# 2 -0.002225 0.008268 0.000470 0.000000 0.000000 0.000000
# 3 -0.002273 0.000470 0.011571 0.000000 0.000000 0.000000
# 4 0.000000 0.000000 0.000000 0.035485 0.000000 0.000000
# 5 0.000000 0.000000 0.000000 0.000000 0.041514 0.000000
# 6 0.000000 0.000000 0.000000 0.000000 0.000000 0.036707
#
#
# Mechanical properties :
#
#
# Convention : Reuss Voigt Hill
#
# Bulk Modulus (GPa) = 46.38223 48.40790 47.39506
# Shear Modulus (GPa) = 31.53263 34.71016 33.12140
#
# Velocity S-wave (km/s) = 3.83797 4.02670 3.93347
# Velocity P-wave (km/s) = 6.42704 6.65073 6.53984
#
# Compressibility (1/GPa) = 0.02155998
#
# Stress axis : x y z
#
# Youngs Moduli (GPa) = 102.28044 120.94115 86.42101
#
# Poissons Ratio (x) = 0.26911 0.19643
# Poissons Ratio (y) = 0.22759 -0.04059
# Poissons Ratio (z) = 0.23248 -0.05681
#
# Static dielectric constant tensor:
#      x y z
#    x 1.810020 0.000000 0.000000 
#    y 0.000000 1.823360 0.000000 
#    z 0.000000 0.000000 1.760960 
# 
# From -- ./inp_files/26145.got.cif
#   From: 2010.05.17/outbox.cif.g08.bks.cpg/sg52_14_cif.got.tgz:26145.got - 2010.06.03 12:15:38.
