data_PCOD9413647
_publ_section_title
;
Structure prediction by ZEFSAII (Michael W. Deem and Ramdas Pophale) SiO2 
 PCOD9413647
Probable space group: P N N A
;
_chemical_formula_sum "Si O2"
_cell_formula_units_Z 24
_cell_length_a 12.685674
_cell_length_b 15.404122
_cell_length_c 4.736525
_cell_angle_alpha 90.000000
_cell_angle_beta 90.000000
_cell_angle_gamma 90.000000
_cell_volume 925.572260
_symmetry_space_group_name_H-M "P N N A"
_symmetry_group_IT_number 52
_symmetry_cell_setting 'orthorhombic'
loop_
_space_group_symop_operation_xyz
x,y,z
1/2-x,-y,z
x,1/2-y,1/2-z
1/2-x,1/2+y,1/2-z
-x,-y,-z
1/2+x,y,-z
-x,1/2+y,1/2+z
1/2+x,1/2-y,1/2+z
loop_
_atom_site_type_symbol
_atom_site_label
_atom_site_fract_x
_atom_site_fract_y
_atom_site_fract_z
Si Si1 0.759893 0.325077 0.462155
Si Si2 0.613061 0.883081 0.514293
Si Si3 0.077255 0.053052 0.786833
O O1 0.715209 0.250000 0.250000
O O2 0.801223 0.336634 0.784668
O O3 0.674652 0.401552 0.434702
O O4 0.867674 0.345420 0.293500
O O5 0.496896 0.875913 0.637422
O O6 0.620942 0.986245 0.450169
O O7 0.000000 0.000000 0.000000
#
# Coordination Sequence:
#
# PCOD9413647 Si02
#       3
#     8   8   8
#     4  12  28  46  73 110 156 193 247 322 393 446
#     4  11  26  47  74 107 143 198 255 309 372 462
#     4  11  26  46  79 108 145 203 260 311 369 473
#
# _framework density 25.929902999999999
#
# number of rings (size 3 to 8) (size 9 to 14) (size 15 to 20)
#    0.000    0.667    3.333    2.000   14.000    2.667 
#    0.000    0.000    0.000    0.000    0.000    0.000 
#    0.000    0.000    0.000    0.000    0.000    0.000 
#
# Total GULP energy -133731.593793 kJ/mol
# GULP energy per Si atom -5572.149741 kJ/mol
# Density = 2.587088 g / cm^3
# Si number density = 25.929903 Si / 1000 Ang^3
#
#
#
# Elastic Constant Matrix: (Units=GPa)
#
#
# Indices 1 2 3 4 5 6 
#
# 1 56.9175 26.8526 6.5127 0.0000 0.0000 0.0000
# 2 26.8526 88.0708 16.3537 0.0000 0.0000 0.0000
# 3 6.5127 16.3537 151.1674 0.0000 0.0000 0.0000
# 4 0.0000 0.0000 0.0000 15.0741 0.0000 0.0000
# 5 0.0000 0.0000 0.0000 0.0000 19.6215 0.0000
# 6 0.0000 0.0000 0.0000 0.0000 0.0000 33.6505
#
#
#
# Elastic Compliance Matrix: (Units=1/GPa)
#
#
# Indices 1 2 3 4 5 6 
#
# 1 0.020528 -0.006220 -0.000212 0.000000 0.000000 0.000000
# 2 -0.006220 0.013472 -0.001189 0.000000 0.000000 0.000000
# 3 -0.000212 -0.001189 0.006753 0.000000 0.000000 0.000000
# 4 0.000000 0.000000 0.000000 0.066339 0.000000 0.000000
# 5 0.000000 0.000000 0.000000 0.000000 0.050964 0.000000
# 6 0.000000 0.000000 0.000000 0.000000 0.000000 0.029717
#
#
# Mechanical properties :
#
#
# Convention : Reuss Voigt Hill
#
# Bulk Modulus (GPa) = 39.19830 43.95485 41.57658
# Shear Modulus (GPa) = 23.63866 30.09834 26.86850
#
# Velocity S-wave (km/s) = 3.02261 3.41069 3.22249
# Velocity P-wave (km/s) = 5.22794 5.70075 5.46946
#
# Compressibility (1/GPa) = 0.02551131
#
# Stress axis : x y z
#
# Youngs Moduli (GPa) = 48.71448 74.22970 148.08293
#
# Poissons Ratio (x) = 0.46168 0.03132
# Poissons Ratio (y) = 0.30298 0.17614
# Poissons Ratio (z) = 0.01030 0.08829
#
# Static dielectric constant tensor:
#      x y z
#    x 1.971560 0.000000 0.000000 
#    y 0.000000 2.233930 0.000000 
#    z 0.000000 0.000000 2.074040 
# 
# From -- ./inp_files/752.got.cif
#   From: 2010.05.17/outbox.cif.g08.bks.cpg/sg52_1_cif.got.tgz:752.got - 2010.06.03 12:15:38.
