data_PCOD9413497
_publ_section_title
;
Structure prediction by ZEFSAII (Michael W. Deem and Ramdas Pophale) SiO2 
 PCOD9413497
Probable space group: P N N A
;
_chemical_formula_sum "Si O2"
_cell_formula_units_Z 36
_cell_length_a 10.112852
_cell_length_b 7.842433
_cell_length_c 20.447059
_cell_angle_alpha 90.000000
_cell_angle_beta 90.000000
_cell_angle_gamma 90.000000
_cell_volume 1621.643250
_symmetry_space_group_name_H-M "P N N A"
_symmetry_group_IT_number 52
_symmetry_cell_setting 'orthorhombic'
loop_
_space_group_symop_operation_xyz
x,y,z
1/2-x,-y,z
x,1/2-y,1/2-z
1/2-x,1/2+y,1/2-z
-x,-y,-z
1/2+x,y,-z
-x,1/2+y,1/2+z
1/2+x,1/2-y,1/2+z
loop_
_atom_site_type_symbol
_atom_site_label
_atom_site_fract_x
_atom_site_fract_y
_atom_site_fract_z
Si Si1 0.002528 0.813523 0.899537
Si Si2 0.250000 0.500000 0.440620
Si Si3 0.250000 0.000000 0.840307
Si Si4 0.900415 0.482952 0.840011
Si Si5 0.582445 0.250000 0.250000
Si Si6 0.348908 0.350178 0.013061
O O1 0.960408 0.671164 0.847597
O O2 0.138144 0.904849 0.881704
O O3 0.031175 0.703041 0.965661
O O4 0.886021 0.953584 0.903601
O O5 0.271048 0.326980 0.480005
O O6 0.174378 0.135639 0.795675
O O7 0.750000 0.500000 0.815924
O O8 0.889999 0.401449 0.913144
O O9 0.990018 0.368783 0.794315
O O10 0.250000 0.500000 0.988547
#
# Coordination Sequence:
#
# PCOD9413497 Si02
#       6
#     8   4   4   8   4   8
#     4  12  26  46  79 109 159 195 255 317 390 456
#     4  12  23  44  72 110 156 198 253 294 378 470
#     4  12  29  48  76 114 148 208 247 330 380 462
#     4  11  25  49  77 109 150 202 256 320 373 454
#     4  12  28  50  74 106 154 198 272 302 390 454
#     4  11  24  44  74 118 154 199 245 320 390 448
#
# _framework density 22.199705000000002
#
# number of rings (size 3 to 8) (size 9 to 14) (size 15 to 20)
#    0.000    0.444    4.444    4.667    3.111    1.778 
#    2.000    0.000    0.000    0.000    0.000    0.000 
#    0.000    0.000    0.000    0.000    0.000    0.000 
#
# Total GULP energy -201422.643502 kJ/mol
# GULP energy per Si atom -5595.073431 kJ/mol
# Density = 2.214918 g / cm^3
# Si number density = 22.199705 Si / 1000 Ang^3
#
#
#
# Elastic Constant Matrix: (Units=GPa)
#
#
# Indices 1 2 3 4 5 6 
#
# 1 201.2708 92.3058 65.0038 0.0000 0.0000 0.0000
# 2 92.3058 172.6473 33.6495 0.0000 0.0000 0.0000
# 3 65.0038 33.6495 54.7855 0.0000 0.0000 0.0000
# 4 0.0000 0.0000 0.0000 30.6391 0.0000 0.0000
# 5 0.0000 0.0000 0.0000 0.0000 52.5776 0.0000
# 6 0.0000 0.0000 0.0000 0.0000 0.0000 54.2556
#
#
#
# Elastic Compliance Matrix: (Units=1/GPa)
#
#
# Indices 1 2 3 4 5 6 
#
# 1 0.009426 -0.003249 -0.009189 0.000000 0.000000 0.000000
# 2 -0.003249 0.007699 -0.000874 0.000000 0.000000 0.000000
# 3 -0.009189 -0.000874 0.029693 0.000000 0.000000 0.000000
# 4 0.000000 0.000000 0.000000 0.032638 0.000000 0.000000
# 5 0.000000 0.000000 0.000000 0.000000 0.019019 0.000000
# 6 0.000000 0.000000 0.000000 0.000000 0.000000 0.018431
#
#
# Mechanical properties :
#
#
# Convention : Reuss Voigt Hill
#
# Bulk Modulus (GPa) = 49.51864 90.06908 69.79386
# Shear Modulus (GPa) = 33.27523 43.34412 38.30968
#
# Velocity S-wave (km/s) = 3.87577 4.42346 4.15864
# Velocity P-wave (km/s) = 6.51024 8.17005 7.38691
#
# Compressibility (1/GPa) = 0.02019441
#
# Stress axis : x y z
#
# Youngs Moduli (GPa) = 106.09002 129.87867 33.67844
#
# Poissons Ratio (x) = 0.42193 0.30946
# Poissons Ratio (y) = 0.34465 0.02945
# Poissons Ratio (z) = 0.97483 0.11357
#
# Static dielectric constant tensor:
#      x y z
#    x 2.595760 0.000000 0.000000 
#    y 0.000000 1.792650 0.000000 
#    z 0.000000 0.000000 1.836620 
# 
# From -- ./inp_files/35627.got.cif
#   From: 2010.05.17/outbox.cif.g08.bks.cpg/sg52_18_cif.got.tgz:35627.got - 2010.06.03 12:15:38.
