data_PCOD9413107
_publ_section_title
;
Structure prediction by ZEFSAII (Michael W. Deem and Ramdas Pophale) SiO2 
 PCOD9413107
Probable space group: P N N A
;
_chemical_formula_sum "Si O2"
_cell_formula_units_Z 24
_cell_length_a 29.520791
_cell_length_b 5.076877
_cell_length_c 7.505467
_cell_angle_alpha 90.000000
_cell_angle_beta 90.000000
_cell_angle_gamma 90.000000
_cell_volume 1124.870044
_symmetry_space_group_name_H-M "P N N A"
_symmetry_group_IT_number 52
_symmetry_cell_setting 'orthorhombic'
loop_
_space_group_symop_operation_xyz
x,y,z
1/2-x,-y,z
x,1/2-y,1/2-z
1/2-x,1/2+y,1/2-z
-x,-y,-z
1/2+x,y,-z
-x,1/2+y,1/2+z
1/2+x,1/2-y,1/2+z
loop_
_atom_site_type_symbol
_atom_site_label
_atom_site_fract_x
_atom_site_fract_y
_atom_site_fract_z
Si Si1 0.543998 0.505296 0.876002
Si Si2 0.371039 0.990356 0.626255
Si Si3 0.277335 0.758247 0.533942
O O1 0.548602 0.250000 0.750000
O O2 0.537766 0.750000 0.750000
O O3 0.500000 0.500000 0.000000
O O4 0.588548 0.556329 0.994537
O O5 0.387404 0.750000 0.750000
O O6 0.329529 0.851275 0.518261
O O7 0.358123 0.250000 0.750000
O O8 0.250000 0.500000 0.473163
O O9 0.273252 0.750000 0.750000
O O10 0.250000 0.000000 0.457636
#
# Coordination Sequence:
#
# PCOD9413107 Si02
#       3
#     8   8   8
#     4  12  25  43  65  92 127 165 209 258 316 381
#     4  11  21  37  62  93 126 163 209 260 312 367
#     4   9  16  28  50  83 116 150 196 248 292 342
#
# _framework density 21.335796999999999
#
# number of rings (size 3 to 8) (size 9 to 14) (size 15 to 20)
#    0.000    1.333    0.000   10.000    0.000    0.000 
#    0.000    0.000    0.000    4.000    0.000    2.333 
#    0.000    0.000    0.000    0.000    0.000    0.000 
#
# Total GULP energy -133758.754588 kJ/mol
# GULP energy per Si atom -5573.281441 kJ/mol
# Density = 2.128724 g / cm^3
# Si number density = 21.335797 Si / 1000 Ang^3
#
#
#
# Elastic Constant Matrix: (Units=GPa)
#
#
# Indices 1 2 3 4 5 6 
#
# 1 176.8133 60.0671 63.2129 0.0000 0.0000 0.0000
# 2 60.0671 169.5029 28.8628 0.0000 0.0000 0.0000
# 3 63.2129 28.8628 64.6076 0.0000 0.0000 0.0000
# 4 0.0000 0.0000 0.0000 30.6957 0.0000 0.0000
# 5 0.0000 0.0000 0.0000 0.0000 40.6305 0.0000
# 6 0.0000 0.0000 0.0000 0.0000 0.0000 34.1442
#
#
#
# Elastic Compliance Matrix: (Units=1/GPa)
#
#
# Indices 1 2 3 4 5 6 
#
# 1 0.009217 -0.001873 -0.008181 0.000000 0.000000 0.000000
# 2 -0.001873 0.006766 -0.001190 0.000000 0.000000 0.000000
# 3 -0.008181 -0.001190 0.024014 0.000000 0.000000 0.000000
# 4 0.000000 0.000000 0.000000 0.032578 0.000000 0.000000
# 5 0.000000 0.000000 0.000000 0.000000 0.024612 0.000000
# 6 0.000000 0.000000 0.000000 0.000000 0.000000 0.029288
#
#
# Mechanical properties :
#
#
# Convention : Reuss Voigt Hill
#
# Bulk Modulus (GPa) = 57.11459 79.46771 68.29115
# Shear Modulus (GPa) = 32.29993 38.34615 35.32304
#
# Velocity S-wave (km/s) = 3.89509 4.24402 4.07329
# Velocity P-wave (km/s) = 6.85977 7.83215 7.36203
#
# Compressibility (1/GPa) = 0.01750866
#
# Stress axis : x y z
#
# Youngs Moduli (GPa) = 108.49677 147.79748 41.64210
#
# Poissons Ratio (x) = 0.27684 0.34068
# Poissons Ratio (y) = 0.20323 0.04955
# Poissons Ratio (z) = 0.88762 0.17587
#
# Static dielectric constant tensor:
#      x y z
#    x 1.894340 0.000000 0.000000 
#    y 0.000000 1.747760 0.000000 
#    z 0.000000 0.000000 1.763650 
# 
# From -- ./inp_files/13769.got.cif
#   From: 2010.05.17/outbox.cif.g08.bks.cpg/sg52_7_cif.got.tgz:13769.got - 2010.06.03 12:15:38.
