data_PCOD9413249
_publ_section_title
;
Structure prediction by ZEFSAII (Michael W. Deem and Ramdas Pophale) SiO2 
 PCOD9413249
Probable space group: P N N A
;
_chemical_formula_sum "Si O2"
_cell_formula_units_Z 48
_cell_length_a 8.795292
_cell_length_b 27.768749
_cell_length_c 9.467684
_cell_angle_alpha 90.000000
_cell_angle_beta 90.000000
_cell_angle_gamma 90.000000
_cell_volume 2312.332757
_symmetry_space_group_name_H-M "P N N A"
_symmetry_group_IT_number 52
_symmetry_cell_setting 'orthorhombic'
loop_
_space_group_symop_operation_xyz
x,y,z
1/2-x,-y,z
x,1/2-y,1/2-z
1/2-x,1/2+y,1/2-z
-x,-y,-z
1/2+x,y,-z
-x,1/2+y,1/2+z
1/2+x,1/2-y,1/2+z
loop_
_atom_site_type_symbol
_atom_site_label
_atom_site_fract_x
_atom_site_fract_y
_atom_site_fract_z
Si Si1 0.048214 0.610880 0.641996
Si Si2 0.009056 0.693972 0.417010
Si Si3 0.237152 0.866734 0.585812
Si Si4 0.260441 0.443495 0.417870
Si Si5 0.209424 0.754834 0.599259
Si Si6 0.436313 0.387534 0.194816
O O1 0.005931 0.658225 0.551509
O O2 0.900106 0.577381 0.635193
O O3 0.108069 0.623766 0.796376
O O4 0.184960 0.584676 0.557605
O O5 0.846200 0.716726 0.385984
O O6 0.067735 0.661361 0.288808
O O7 0.114095 0.737772 0.465315
O O8 0.262187 0.809256 0.578192
O O9 0.393216 0.890982 0.635961
O O10 0.178290 0.884374 0.435334
O O11 0.250000 0.500000 0.442490
O O12 0.386244 0.429761 0.300403
O O13 0.123329 0.750000 0.750000
#
# Coordination Sequence:
#
# PCOD9413249 Si02
#       6
#     8   8   8   8   8   8
#     4  11  22  42  68  94 130 164 210 265 326 375
#     4  11  22  42  61  90 128 176 212 262 302 371
#     4  12  24  42  63  97 133 174 212 266 317 373
#     4  11  24  44  70  98 122 163 213 264 325 400
#     4  12  23  39  61  94 130 168 228 255 299 368
#     4  11  24  43  64  91 133 169 212 264 329 377
#
# _framework density 20.758258999999999
#
# number of rings (size 3 to 8) (size 9 to 14) (size 15 to 20)
#    0.000    0.667    3.333    6.500    0.000    0.000 
#    3.000    4.167    0.000    0.000    0.000    0.000 
#    0.000    0.000    0.000    0.000    0.000    0.000 
#
# Total GULP energy -268579.581283 kJ/mol
# GULP energy per Si atom -5595.407943 kJ/mol
# Density = 2.071101 g / cm^3
# Si number density = 20.758259 Si / 1000 Ang^3
#
#
#
# Elastic Constant Matrix: (Units=GPa)
#
#
# Indices 1 2 3 4 5 6 
#
# 1 61.9530 -0.3267 5.3205 0.0000 0.0000 0.0000
# 2 -0.3267 68.0338 -5.3401 0.0000 0.0000 0.0000
# 3 5.3205 -5.3401 86.3654 0.0000 0.0000 0.0000
# 4 0.0000 0.0000 0.0000 7.0216 0.0000 0.0000
# 5 0.0000 0.0000 0.0000 0.0000 37.0882 0.0000
# 6 0.0000 0.0000 0.0000 0.0000 0.0000 16.4506
#
#
#
# Elastic Compliance Matrix: (Units=1/GPa)
#
#
# Indices 1 2 3 4 5 6 
#
# 1 0.016227 -0.000001 -0.001000 0.000000 0.000000 0.000000
# 2 -0.000001 0.014770 0.000913 0.000000 0.000000 0.000000
# 3 -0.001000 0.000913 0.011697 0.000000 0.000000 0.000000
# 4 0.000000 0.000000 0.000000 0.142418 0.000000 0.000000
# 5 0.000000 0.000000 0.000000 0.000000 0.026963 0.000000
# 6 0.000000 0.000000 0.000000 0.000000 0.000000 0.060788
#
#
# Mechanical properties :
#
#
# Convention : Reuss Voigt Hill
#
# Bulk Modulus (GPa) = 23.51821 23.96219 23.74020
# Shear Modulus (GPa) = 17.40888 26.55866 21.98377
#
# Velocity S-wave (km/s) = 2.89908 3.58079 3.25782
# Velocity P-wave (km/s) = 4.74978 5.35393 5.06088
#
# Compressibility (1/GPa) = 0.04252024
#
# Stress axis : x y z
#
# Youngs Moduli (GPa) = 61.62525 67.70365 85.49372
#
# Poissons Ratio (x) = 0.00004 0.08547
# Poissons Ratio (y) = 0.00003 -0.07808
# Poissons Ratio (z) = 0.06161 -0.06183
#
# Static dielectric constant tensor:
#      x y z
#    x 1.759090 0.000000 0.000000 
#    y 0.000000 1.721940 0.000000 
#    z 0.000000 0.000000 1.749880 
# 
# From -- ./inp_files/7708.got.cif
#   From: 2010.05.17/outbox.cif.g08.bks.cpg/sg52_4_cif.got.tgz:7708.got - 2010.06.03 12:15:38.
