data_PCOD9413757
_publ_section_title
;
Structure prediction by ZEFSAII (Michael W. Deem and Ramdas Pophale) SiO2 
 PCOD9413757
Probable space group: P N N A
;
_chemical_formula_sum "Si O2"
_cell_formula_units_Z 56
_cell_length_a 14.132902
_cell_length_b 20.299626
_cell_length_c 8.820531
_cell_angle_alpha 90.000000
_cell_angle_beta 90.000000
_cell_angle_gamma 90.000000
_cell_volume 2530.545292
_symmetry_space_group_name_H-M "P N N A"
_symmetry_group_IT_number 52
_symmetry_cell_setting 'orthorhombic'
loop_
_space_group_symop_operation_xyz
x,y,z
1/2-x,-y,z
x,1/2-y,1/2-z
1/2-x,1/2+y,1/2-z
-x,-y,-z
1/2+x,y,-z
-x,1/2+y,1/2+z
1/2+x,1/2-y,1/2+z
loop_
_atom_site_type_symbol
_atom_site_label
_atom_site_fract_x
_atom_site_fract_y
_atom_site_fract_z
Si Si1 0.392398 0.142920 0.446307
Si Si2 0.922103 0.117858 0.906932
Si Si3 0.808700 0.227289 0.075730
Si Si4 0.353066 0.977182 0.135665
Si Si5 0.144483 0.142925 0.914178
Si Si6 0.235340 0.428215 0.862380
Si Si7 0.445428 0.563343 0.064831
O O1 0.388426 0.126633 0.268151
O O2 0.352986 0.215511 0.473470
O O3 0.327641 0.096869 0.552436
O O4 0.496552 0.127301 0.511548
O O5 0.031270 0.141238 0.906196
O O6 0.903175 0.040805 0.938868
O O7 0.865290 0.161622 0.027552
O O8 0.820714 0.250000 0.250000
O O9 0.698641 0.210023 0.042239
O O10 0.425652 0.948792 0.259662
O O11 0.250000 0.000000 0.197433
O O12 0.331225 0.917070 0.025246
O O13 0.193429 0.123276 0.756080
O O14 0.250000 0.500000 0.789233
O O15 0.156227 0.435828 0.989037
O O16 0.500000 0.500000 0.000000
#
# Coordination Sequence:
#
# PCOD9413757 Si02
#       7
#     8   8   8   8   8   8   8
#     4  12  26  48  76 104 154 198 250 317 379 469
#     4  12  26  50  77 112 151 205 254 321 393 464
#     4  12  29  50  71 104 151 206 260 314 379 461
#     4  12  24  46  77 118 159 193 252 323 396 465
#     4  12  27  46  76 112 152 199 253 314 386 462
#     4  12  23  41  74 110 147 186 247 311 386 452
#     4  12  23  42  73 115 145 193 244 314 393 456
#
# _framework density 22.129618000000001
#
# number of rings (size 3 to 8) (size 9 to 14) (size 15 to 20)
#    0.000    0.000    7.143    2.571    2.000    2.286 
#    0.000    1.429    0.000    0.000    0.000    0.000 
#    0.000    0.000    0.000    0.000    0.000    0.000 
#
# Total GULP energy -313272.176495 kJ/mol
# GULP energy per Si atom -5594.146009 kJ/mol
# Density = 2.207925 g / cm^3
# Si number density = 22.129618 Si / 1000 Ang^3
#
#
#
# Elastic Constant Matrix: (Units=GPa)
#
#
# Indices 1 2 3 4 5 6 
#
# 1 92.1417 7.1142 14.0387 0.0000 0.0000 0.0000
# 2 7.1142 91.8148 21.7582 0.0000 0.0000 0.0000
# 3 14.0387 21.7582 83.9725 0.0000 0.0000 0.0000
# 4 0.0000 0.0000 0.0000 30.3119 0.0000 0.0000
# 5 0.0000 0.0000 0.0000 0.0000 34.4841 0.0000
# 6 0.0000 0.0000 0.0000 0.0000 0.0000 44.4681
#
#
#
# Elastic Compliance Matrix: (Units=1/GPa)
#
#
# Indices 1 2 3 4 5 6 
#
# 1 0.011154 -0.000450 -0.001748 0.000000 0.000000 0.000000
# 2 -0.000450 0.011622 -0.002936 0.000000 0.000000 0.000000
# 3 -0.001748 -0.002936 0.012962 0.000000 0.000000 0.000000
# 4 0.000000 0.000000 0.000000 0.032990 0.000000 0.000000
# 5 0.000000 0.000000 0.000000 0.000000 0.028999 0.000000
# 6 0.000000 0.000000 0.000000 0.000000 0.000000 0.022488
#
#
# Mechanical properties :
#
#
# Convention : Reuss Voigt Hill
#
# Bulk Modulus (GPa) = 39.26313 39.30568 39.28441
# Shear Modulus (GPa) = 35.97808 36.85401 36.41605
#
# Velocity S-wave (km/s) = 4.03648 4.08532 4.06098
# Velocity P-wave (km/s) = 6.28531 6.32877 6.30707
#
# Compressibility (1/GPa) = 0.02546918
#
# Stress axis : x y z
#
# Youngs Moduli (GPa) = 89.65440 86.04235 77.15021
#
# Poissons Ratio (x) = 0.03872 0.13487
# Poissons Ratio (y) = 0.04034 0.22653
# Poissons Ratio (z) = 0.15673 0.25264
#
# Static dielectric constant tensor:
#      x y z
#    x 1.826620 0.000000 0.000000 
#    y 0.000000 1.835990 0.000000 
#    z 0.000000 0.000000 1.818520 
# 
# From -- ./inp_files/10783.got.cif
#   From: 2010.05.17/outbox.cif.g08.bks.cpg/sg52_6_cif.got.tgz:10783.got - 2010.06.03 12:15:38.
