data_PCOD9413447
_publ_section_title
;
Structure prediction by ZEFSAII (Michael W. Deem and Ramdas Pophale) SiO2 
 PCOD9413447
Probable space group: P N N A
;
_chemical_formula_sum "Si O2"
_cell_formula_units_Z 40
_cell_length_a 27.599849
_cell_length_b 7.483937
_cell_length_c 9.348212
_cell_angle_alpha 90.000000
_cell_angle_beta 90.000000
_cell_angle_gamma 90.000000
_cell_volume 1930.924895
_symmetry_space_group_name_H-M "P N N A"
_symmetry_group_IT_number 52
_symmetry_cell_setting 'orthorhombic'
loop_
_space_group_symop_operation_xyz
x,y,z
1/2-x,-y,z
x,1/2-y,1/2-z
1/2-x,1/2+y,1/2-z
-x,-y,-z
1/2+x,y,-z
-x,1/2+y,1/2+z
1/2+x,1/2-y,1/2+z
loop_
_atom_site_type_symbol
_atom_site_label
_atom_site_fract_x
_atom_site_fract_y
_atom_site_fract_z
Si Si1 0.641403 0.617851 0.385712
Si Si2 0.876337 0.750000 0.750000
Si Si3 0.053312 0.775589 0.419755
Si Si4 0.548587 0.312034 0.983832
Si Si5 0.391407 0.750000 0.750000
Si Si6 0.195002 0.936272 0.172449
O O1 0.649587 0.750000 0.250000
O O2 0.595640 0.696638 0.478716
O O3 0.635108 0.417315 0.322908
O O4 0.682530 0.596870 0.506079
O O5 0.912743 0.717839 0.618341
O O6 0.841037 0.579548 0.746223
O O7 0.060877 0.750000 0.250000
O O8 0.002006 0.714082 0.488655
O O9 0.045534 0.989220 0.423506
O O10 0.573869 0.337386 0.134509
O O11 0.187935 0.750000 0.250000
O O12 0.250000 0.000000 0.188499
#
# Coordination Sequence:
#
# PCOD9413447 Si02
#       6
#     8   4   8   8   4   8
#     4  12  26  46  71 104 146 186 234 295 355 430
#     4  12  24  46  74 107 143 188 244 300 360 436
#     4  11  24  42  68 105 148 197 247 286 350 431
#     4  11  24  41  68 104 145 195 236 293 358 418
#     4  12  24  44  64  97 143 184 226 284 348 414
#     4  12  27  51  78 105 136 184 242 306 369 435
#
# _framework density 20.715461999999999
#
# number of rings (size 3 to 8) (size 9 to 14) (size 15 to 20)
#    0.000    0.400    6.000    3.000    1.400    0.800 
#    1.800    0.000    0.000    0.000    0.000    0.000 
#    0.000    0.000    0.000    0.000    0.000    0.000 
#
# Total GULP energy -223273.730509 kJ/mol
# GULP energy per Si atom -5581.843263 kJ/mol
# Density = 2.066831 g / cm^3
# Si number density = 20.715462 Si / 1000 Ang^3
#
#
#
# Elastic Constant Matrix: (Units=GPa)
#
#
# Indices 1 2 3 4 5 6 
#
# 1 67.3420 -1.2347 -10.6905 0.0000 0.0000 0.0000
# 2 -1.2347 105.8260 0.2290 0.0000 0.0000 0.0000
# 3 -10.6905 0.2290 81.0276 0.0000 0.0000 0.0000
# 4 0.0000 0.0000 0.0000 32.4379 0.0000 0.0000
# 5 0.0000 0.0000 0.0000 0.0000 18.2051 0.0000
# 6 0.0000 0.0000 0.0000 0.0000 0.0000 11.4825
#
#
#
# Elastic Compliance Matrix: (Units=1/GPa)
#
#
# Indices 1 2 3 4 5 6 
#
# 1 0.015170 0.000173 0.002001 0.000000 0.000000 0.000000
# 2 0.000173 0.009451 -0.000004 0.000000 0.000000 0.000000
# 3 0.002001 -0.000004 0.012605 0.000000 0.000000 0.000000
# 4 0.000000 0.000000 0.000000 0.030828 0.000000 0.000000
# 5 0.000000 0.000000 0.000000 0.000000 0.054930 0.000000
# 6 0.000000 0.000000 0.000000 0.000000 0.000000 0.087089
#
#
# Mechanical properties :
#
#
# Convention : Reuss Voigt Hill
#
# Bulk Modulus (GPa) = 24.05757 25.64479 24.85118
# Shear Modulus (GPa) = 22.76970 30.15123 26.46047
#
# Velocity S-wave (km/s) = 3.31896 3.81923 3.57785
# Velocity P-wave (km/s) = 5.13088 5.64404 5.39356
#
# Compressibility (1/GPa) = 0.04156696
#
# Stress axis : x y z
#
# Youngs Moduli (GPa) = 65.91781 105.80333 79.33046
#
# Poissons Ratio (x) = -0.01827 -0.15874
# Poissons Ratio (y) = -0.01138 0.00031
# Poissons Ratio (z) = -0.13190 0.00042
#
# Static dielectric constant tensor:
#      x y z
#    x 1.772790 0.000000 0.000000 
#    y 0.000000 1.583530 0.000000 
#    z 0.000000 0.000000 1.730180 
# 
# From -- ./inp_files/14873.got.cif
#   From: 2010.05.17/outbox.cif.g08.bks.cpg/sg52_8_cif.got.tgz:14873.got - 2010.06.03 12:15:38.
