data_PCOD9413487
_publ_section_title
;
Structure prediction by ZEFSAII (Michael W. Deem and Ramdas Pophale) SiO2 
 PCOD9413487
Probable space group: P N N A
;
_chemical_formula_sum "Si O2"
_cell_formula_units_Z 52
_cell_length_a 17.018819
_cell_length_b 6.978664
_cell_length_c 19.842687
_cell_angle_alpha 90.000000
_cell_angle_beta 90.000000
_cell_angle_gamma 90.000000
_cell_volume 2356.688542
_symmetry_space_group_name_H-M "P N N A"
_symmetry_group_IT_number 52
_symmetry_cell_setting 'orthorhombic'
loop_
_space_group_symop_operation_xyz
x,y,z
1/2-x,-y,z
x,1/2-y,1/2-z
1/2-x,1/2+y,1/2-z
-x,-y,-z
1/2+x,y,-z
-x,1/2+y,1/2+z
1/2+x,1/2-y,1/2+z
loop_
_atom_site_type_symbol
_atom_site_label
_atom_site_fract_x
_atom_site_fract_y
_atom_site_fract_z
Si Si1 0.171427 0.362868 0.321539
Si Si2 0.066878 0.044210 0.689609
Si Si3 0.404212 0.266132 0.322793
Si Si4 0.250000 0.000000 0.920166
Si Si5 0.368068 0.143747 0.809291
Si Si6 0.840035 0.978002 0.571996
Si Si7 0.173145 0.124196 0.564636
O O1 0.250000 0.500000 0.328533
O O2 0.171957 0.250000 0.250000
O O3 0.097685 0.506820 0.330543
O O4 0.159929 0.202292 0.378262
O O5 0.096072 0.466711 0.732579
O O6 0.123303 0.131889 0.632941
O O7 0.983913 0.146510 0.684841
O O8 0.069240 0.812392 0.674337
O O9 0.361430 0.250000 0.250000
O O10 0.363395 0.162299 0.385023
O O11 0.315809 0.091338 0.871698
O O12 0.206233 0.169168 0.958333
O O13 0.317367 0.250000 0.750000
O O14 0.877822 0.954881 0.498195
O O15 0.750000 0.000000 0.551999
O O16 0.250000 0.000000 0.582582
#
# Coordination Sequence:
#
# PCOD9413487 Si02
#       7
#     8   8   8   4   8   8   8
#     4  12  23  42  70 102 130 166 232 291 352 412
#     4   9  23  42  63  98 138 183 222 280 341 415
#     4  12  25  43  70  97 138 184 221 294 355 408
#     4  12  22  36  72 102 134 184 234 296 338 402
#     4   8  21  38  68  98 137 174 235 280 338 412
#     4  11  25  44  70  99 134 178 233 286 348 425
#     4  11  24  44  66  99 141 183 230 281 345 416
#
# _framework density 22.064859999999999
#
# number of rings (size 3 to 8) (size 9 to 14) (size 15 to 20)
#    0.923    0.308    4.615    0.923    6.462    3.077 
#    0.000    0.769    0.000    0.000    0.000    0.000 
#    0.000    0.000    0.000    0.000    0.000    0.000 
#
# Total GULP energy -289775.215584 kJ/mol
# GULP energy per Si atom -5572.600300 kJ/mol
# Density = 2.201464 g / cm^3
# Si number density = 22.064860 Si / 1000 Ang^3
#
#
#
# Elastic Constant Matrix: (Units=GPa)
#
#
# Indices 1 2 3 4 5 6 
#
# 1 56.0765 22.4019 25.2433 0.0000 0.0000 0.0000
# 2 22.4019 117.1458 35.7039 0.0000 0.0000 0.0000
# 3 25.2433 35.7039 97.4367 0.0000 0.0000 0.0000
# 4 0.0000 0.0000 0.0000 36.2843 0.0000 0.0000
# 5 0.0000 0.0000 0.0000 0.0000 5.5119 0.0000
# 6 0.0000 0.0000 0.0000 0.0000 0.0000 38.1321
#
#
#
# Elastic Compliance Matrix: (Units=1/GPa)
#
#
# Indices 1 2 3 4 5 6 
#
# 1 0.020888 -0.002640 -0.004444 0.000000 0.000000 0.000000
# 2 -0.002640 0.009943 -0.002960 0.000000 0.000000 0.000000
# 3 -0.004444 -0.002960 0.012499 0.000000 0.000000 0.000000
# 4 0.000000 0.000000 0.000000 0.027560 0.000000 0.000000
# 5 0.000000 0.000000 0.000000 0.000000 0.181425 0.000000
# 6 0.000000 0.000000 0.000000 0.000000 0.000000 0.026225
#
#
# Mechanical properties :
#
#
# Convention : Reuss Voigt Hill
#
# Bulk Modulus (GPa) = 43.02413 48.59525 45.80969
# Shear Modulus (GPa) = 16.31986 28.47299 22.39643
#
# Velocity S-wave (km/s) = 2.72257 3.59614 3.18941
# Velocity P-wave (km/s) = 5.42443 6.27014 5.86255
#
# Compressibility (1/GPa) = 0.02324277
#
# Stress axis : x y z
#
# Youngs Moduli (GPa) = 47.87445 100.57085 80.00680
#
# Poissons Ratio (x) = 0.26550 0.35556
# Poissons Ratio (y) = 0.12638 0.23679
# Poissons Ratio (z) = 0.21276 0.29765
#
# Static dielectric constant tensor:
#      x y z
#    x 1.837080 0.000000 0.000000 
#    y 0.000000 1.954310 0.000000 
#    z 0.000000 0.000000 1.879300 
# 
# From -- ./inp_files/37883.got.cif
#   From: 2010.05.17/outbox.cif.g08.bks.cpg/sg52_19_cif.got.tgz:37883.got - 2010.06.03 12:15:38.
