data_PCOD9413434
_publ_section_title
;
Structure prediction by ZEFSAII (Michael W. Deem and Ramdas Pophale) SiO2 
 PCOD9413434
Probable space group: P N N A
;
_chemical_formula_sum "Si O2"
_cell_formula_units_Z 36
_cell_length_a 9.174901
_cell_length_b 19.168817
_cell_length_c 8.825730
_cell_angle_alpha 90.000000
_cell_angle_beta 90.000000
_cell_angle_gamma 90.000000
_cell_volume 1552.198771
_symmetry_space_group_name_H-M "P N N A"
_symmetry_group_IT_number 52
_symmetry_cell_setting 'orthorhombic'
loop_
_space_group_symop_operation_xyz
x,y,z
1/2-x,-y,z
x,1/2-y,1/2-z
1/2-x,1/2+y,1/2-z
-x,-y,-z
1/2+x,y,-z
-x,1/2+y,1/2+z
1/2+x,1/2-y,1/2+z
loop_
_atom_site_type_symbol
_atom_site_label
_atom_site_fract_x
_atom_site_fract_y
_atom_site_fract_z
Si Si1 0.410606 0.900053 0.794548
Si Si2 0.899262 0.364701 0.962740
Si Si3 0.868126 0.674083 0.808630
Si Si4 0.211551 0.582004 0.449005
Si Si5 0.750000 0.500000 0.070560
O O1 0.489121 0.849664 0.674562
O O2 0.540031 0.914253 0.913874
O O3 0.364506 0.962768 0.682278
O O4 0.267808 0.885015 0.893218
O O5 0.829645 0.442394 0.968159
O O6 0.989870 0.357619 0.114669
O O7 0.759049 0.317434 0.935127
O O8 0.904012 0.750000 0.750000
O O9 0.797406 0.623617 0.682727
O O10 0.250000 0.500000 0.452012
#
# Coordination Sequence:
#
# PCOD9413434 Si02
#       5
#     8   8   8   8   4
#     4  11  24  38  68 102 141 178 228 292 353 410
#     4  11  25  46  72 102 140 191 235 286 356 427
#     4  11  27  47  70 101 143 187 239 293 353 431
#     4  11  24  41  65 105 139 177 229 292 351 406
#     4  12  22  42  76 108 138 182 240 296 346 428
#
# _framework density 23.192905
#
# number of rings (size 3 to 8) (size 9 to 14) (size 15 to 20)
#    0.000    0.889    3.333    2.667    9.333    3.556 
#    0.000    1.111    0.000    0.000    0.000    0.000 
#    0.000    0.000    0.000    0.000    0.000    0.000 
#
# Total GULP energy -201117.114028 kJ/mol
# GULP energy per Si atom -5586.586501 kJ/mol
# Density = 2.314012 g / cm^3
# Si number density = 23.192905 Si / 1000 Ang^3
#
#
#
# Elastic Constant Matrix: (Units=GPa)
#
#
# Indices 1 2 3 4 5 6 
#
# 1 78.2589 10.1659 42.4609 0.0000 0.0000 0.0000
# 2 10.1659 41.4554 9.7115 0.0000 0.0000 0.0000
# 3 42.4609 9.7115 89.6922 0.0000 0.0000 0.0000
# 4 0.0000 0.0000 0.0000 9.6349 0.0000 0.0000
# 5 0.0000 0.0000 0.0000 0.0000 60.8281 0.0000
# 6 0.0000 0.0000 0.0000 0.0000 0.0000 12.0037
#
#
#
# Elastic Compliance Matrix: (Units=1/GPa)
#
#
# Indices 1 2 3 4 5 6 
#
# 1 0.017425 -0.002401 -0.007989 0.000000 0.000000 0.000000
# 2 -0.002401 0.025081 -0.001579 0.000000 0.000000 0.000000
# 3 -0.007989 -0.001579 0.015102 0.000000 0.000000 0.000000
# 4 0.000000 0.000000 0.000000 0.103789 0.000000 0.000000
# 5 0.000000 0.000000 0.000000 0.000000 0.016440 0.000000
# 6 0.000000 0.000000 0.000000 0.000000 0.000000 0.083308
#
#
# Mechanical properties :
#
#
# Convention : Reuss Voigt Hill
#
# Bulk Modulus (GPa) = 29.70044 37.12036 33.41040
# Shear Modulus (GPa) = 16.87445 26.29789 21.58617
#
# Velocity S-wave (km/s) = 2.70028 3.37096 3.05408
# Velocity P-wave (km/s) = 4.74928 5.58489 5.18395
#
# Compressibility (1/GPa) = 0.03366953
#
# Stress axis : x y z
#
# Youngs Moduli (GPa) = 57.39017 39.87070 66.21555
#
# Poissons Ratio (x) = 0.09575 0.52899
# Poissons Ratio (y) = 0.13782 0.10454
# Poissons Ratio (z) = 0.45848 0.06295
#
# Static dielectric constant tensor:
#      x y z
#    x 1.917990 0.000000 0.000000 
#    y 0.000000 1.615490 0.000000 
#    z 0.000000 0.000000 1.915610 
# 
# From -- ./inp_files/7270.got.cif
#   From: 2010.05.17/outbox.cif.g08.bks.cpg/sg52_4_cif.got.tgz:7270.got - 2010.06.03 12:15:38.
