data_PCOD9413390
_publ_section_title
;
Structure prediction by ZEFSAII (Michael W. Deem and Ramdas Pophale) SiO2 
 PCOD9413390
Probable space group: P N N A
;
_chemical_formula_sum "Si O2"
_cell_formula_units_Z 36
_cell_length_a 12.175173
_cell_length_b 22.567854
_cell_length_c 5.036786
_cell_angle_alpha 90.000000
_cell_angle_beta 90.000000
_cell_angle_gamma 90.000000
_cell_volume 1383.945232
_symmetry_space_group_name_H-M "P N N A"
_symmetry_group_IT_number 52
_symmetry_cell_setting 'orthorhombic'
loop_
_space_group_symop_operation_xyz
x,y,z
1/2-x,-y,z
x,1/2-y,1/2-z
1/2-x,1/2+y,1/2-z
-x,-y,-z
1/2+x,y,-z
-x,1/2+y,1/2+z
1/2+x,1/2-y,1/2+z
loop_
_atom_site_type_symbol
_atom_site_label
_atom_site_fract_x
_atom_site_fract_y
_atom_site_fract_z
Si Si1 0.751817 0.173865 0.449116
Si Si2 0.053142 0.048837 0.818341
Si Si3 0.328010 0.457895 0.048254
Si Si4 0.931600 0.250000 0.750000
Si Si5 0.886987 0.674324 0.544818
O O1 0.773909 0.103529 0.460545
O O2 0.854839 0.208235 0.569293
O O3 0.714749 0.189502 0.151878
O O4 0.650255 0.184101 0.653732
O O5 0.092011 0.105200 0.983143
O O6 0.947472 0.065639 0.641770
O O7 0.140002 0.010711 0.653338
O O8 0.000000 0.000000 0.000000
O O9 0.250000 0.500000 0.237551
O O10 0.008718 0.289756 0.560160
#
# Coordination Sequence:
#
# PCOD9413390 Si02
#       5
#     8   8   8   4   8
#     4  12  28  49  78 113 149 203 250 311 385 447
#     4  11  25  42  73 109 149 196 243 311 381 443
#     4  11  23  44  70 108 146 193 240 311 373 452
#     4  12  28  54  78 108 154 202 254 322 372 444
#     4  12  28  50  76 113 151 194 261 308 371 465
#
# _framework density 26.012589999999999
#
# number of rings (size 3 to 8) (size 9 to 14) (size 15 to 20)
#    0.000    0.444    4.444    2.667    6.222    4.444 
#    0.000    0.000    0.000    0.000    0.000    0.000 
#    0.000    0.000    0.000    0.000    0.000    0.000 
#
# Total GULP energy -201671.776096 kJ/mol
# GULP energy per Si atom -5601.993780 kJ/mol
# Density = 2.595338 g / cm^3
# Si number density = 26.012590 Si / 1000 Ang^3
#
#
#
# Elastic Constant Matrix: (Units=GPa)
#
#
# Indices 1 2 3 4 5 6 
#
# 1 107.9352 37.2259 15.7402 0.0000 0.0000 0.0000
# 2 37.2259 144.4319 11.7374 0.0000 0.0000 0.0000
# 3 15.7402 11.7374 81.0619 0.0000 0.0000 0.0000
# 4 0.0000 0.0000 0.0000 17.3849 0.0000 0.0000
# 5 0.0000 0.0000 0.0000 0.0000 -18.8084 0.0000
# 6 0.0000 0.0000 0.0000 0.0000 0.0000 63.2835
#
#
#
# Elastic Compliance Matrix: (Units=1/GPa)
#
#
# Indices 1 2 3 4 5 6 
#
# 1 0.010382 -0.002542 -0.001648 0.000000 0.000000 0.000000
# 2 -0.002542 0.007628 -0.000611 0.000000 0.000000 0.000000
# 3 -0.001648 -0.000611 0.012745 0.000000 0.000000 0.000000
# 4 0.000000 0.000000 0.000000 0.057521 0.000000 0.000000
# 5 0.000000 0.000000 0.000000 0.000000 -0.053168 0.000000
# 6 0.000000 0.000000 0.000000 0.000000 0.000000 0.015802
#
#
# Mechanical properties :
#
#
# Convention : Reuss Voigt Hill
#
# Bulk Modulus (GPa) = 47.27344 51.42622 49.34983
# Shear Modulus (GPa) = 74.00501 30.28703 52.14602
#
# Velocity S-wave (km/s) = 5.33961 3.41592 4.48218
# Velocity P-wave (km/s) = 7.49853 5.94732 6.76752
#
# Compressibility (1/GPa) = 0.02115353
#
# Stress axis : x y z
#
# Youngs Moduli (GPa) = 96.32245 131.08776 78.46405
#
# Poissons Ratio (x) = 0.33321 0.12930
# Poissons Ratio (y) = 0.24484 0.04794
# Poissons Ratio (z) = 0.15872 0.08009
#
# Static dielectric constant tensor:
#      x y z
#    x 2.079260 0.000000 0.000000 
#    y 0.000000 1.969030 0.000000 
#    z 0.000000 0.000000 1.233140 
# 
# From -- ./inp_files/1258.got.cif
#   From: 2010.05.17/outbox.cif.g08.bks.cpg/sg52_1_cif.got.tgz:1258.got - 2010.06.03 12:15:38.
