data_PCOD9413888
_publ_section_title
;
Structure prediction by ZEFSAII (Michael W. Deem and Ramdas Pophale) SiO2 
 PCOD9413888
Probable space group: P N N A
;
_chemical_formula_sum "Si O2"
_cell_formula_units_Z 28
_cell_length_a 9.680524
_cell_length_b 7.817470
_cell_length_c 16.379324
_cell_angle_alpha 90.000000
_cell_angle_beta 90.000000
_cell_angle_gamma 90.000000
_cell_volume 1239.541476
_symmetry_space_group_name_H-M "P N N A"
_symmetry_group_IT_number 52
_symmetry_cell_setting 'orthorhombic'
loop_
_space_group_symop_operation_xyz
x,y,z
1/2-x,-y,z
x,1/2-y,1/2-z
1/2-x,1/2+y,1/2-z
-x,-y,-z
1/2+x,y,-z
-x,1/2+y,1/2+z
1/2+x,1/2-y,1/2+z
loop_
_atom_site_type_symbol
_atom_site_label
_atom_site_fract_x
_atom_site_fract_y
_atom_site_fract_z
Si Si1 0.386738 0.912694 0.195752
Si Si2 0.542640 0.679698 0.463189
Si Si3 0.543538 0.250000 0.250000
Si Si4 0.825155 0.681115 0.077185
O O1 0.344614 0.750000 0.250000
O O2 0.488470 0.831289 0.129150
O O3 0.250000 0.000000 0.157946
O O4 0.458378 0.071191 0.243650
O O5 0.500000 0.500000 0.500000
O O6 0.705432 0.705242 0.462920
O O7 0.458235 0.813446 0.518696
O O8 0.630996 0.256932 0.166775
O O9 0.750000 0.500000 0.085023
#
# Coordination Sequence:
#
# PCOD9413888 Si02
#       4
#     8   8   4   8
#     4  12  26  47  75 110 153 199 254 314 382 452
#     4  12  26  48  76 106 150 199 245 308 382 448
#     4  12  28  48  76 116 152 202 254 320 382 452
#     4  12  28  48  78 111 152 197 259 313 378 453
#
# _framework density 22.588999000000001
#
# number of rings (size 3 to 8) (size 9 to 14) (size 15 to 20)
#    0.000    0.000    4.286    5.143    6.000    1.143 
#    0.000    0.000    0.000    0.000    0.000    0.000 
#    0.000    0.000    0.000    0.000    0.000    0.000 
#
# Total GULP energy -156641.532085 kJ/mol
# GULP energy per Si atom -5594.340432 kJ/mol
# Density = 2.253759 g / cm^3
# Si number density = 22.588999 Si / 1000 Ang^3
#
#
#
# Elastic Constant Matrix: (Units=GPa)
#
#
# Indices 1 2 3 4 5 6 
#
# 1 114.8538 31.4406 42.6237 0.0000 0.0000 0.0000
# 2 31.4406 136.0601 28.5369 0.0000 0.0000 0.0000
# 3 42.6237 28.5369 88.6194 0.0000 0.0000 0.0000
# 4 0.0000 0.0000 0.0000 28.4472 0.0000 0.0000
# 5 0.0000 0.0000 0.0000 0.0000 31.3089 0.0000
# 6 0.0000 0.0000 0.0000 0.0000 0.0000 3730.3985
#
#
#
# Elastic Compliance Matrix: (Units=1/GPa)
#
#
# Indices 1 2 3 4 5 6 
#
# 1 0.010884 -0.001520 -0.004745 0.000000 0.000000 0.000000
# 2 -0.001520 0.008094 -0.001876 0.000000 0.000000 0.000000
# 3 -0.004745 -0.001876 0.014171 0.000000 0.000000 0.000000
# 4 0.000000 0.000000 0.000000 0.035153 0.000000 0.000000
# 5 0.000000 0.000000 0.000000 0.000000 0.031940 0.000000
# 6 0.000000 0.000000 0.000000 0.000000 0.000000 0.000268
#
#
# Mechanical properties :
#
#
# Convention : Reuss Voigt Hill
#
# Bulk Modulus (GPa) = 59.28652 60.52618 59.90635
# Shear Modulus (GPa) = 40.84524 773.82639 407.33581
#
# Velocity S-wave (km/s) = 4.25690 18.52867 13.44308
# Velocity P-wave (km/s) = 7.10382 22.01366 16.35643
#
# Compressibility (1/GPa) = 0.01686724
#
# Stress axis : x y z
#
# Youngs Moduli (GPa) = 91.87932 123.54472 70.56854
#
# Poissons Ratio (x) = 0.18775 0.33488
# Poissons Ratio (y) = 0.13963 0.13235
# Poissons Ratio (z) = 0.43601 0.23171
#
# Static dielectric constant tensor:
#      x y z
#    x 1.832920 0.000000 0.000000 
#    y 0.000000 1.877020 0.000000 
#    z 0.000000 0.000000 1.982870 
# 
# From -- ./inp_files/30672.got.cif
#   From: 2010.05.17/outbox.cif.g08.bks.cpg/sg52_16_cif.got.tgz:30672.got - 2010.06.03 12:15:38.
