data_PCOD9413013
_publ_section_title
;
Structure prediction by ZEFSAII (Michael W. Deem and Ramdas Pophale) SiO2 
 PCOD9413013
Probable space group: P N N A
;
_chemical_formula_sum "Si O2"
_cell_formula_units_Z 56
_cell_length_a 14.925498
_cell_length_b 13.790110
_cell_length_c 12.134650
_cell_angle_alpha 90.000000
_cell_angle_beta 90.000000
_cell_angle_gamma 90.000000
_cell_volume 2497.605347
_symmetry_space_group_name_H-M "P N N A"
_symmetry_group_IT_number 52
_symmetry_cell_setting 'orthorhombic'
loop_
_space_group_symop_operation_xyz
x,y,z
1/2-x,-y,z
x,1/2-y,1/2-z
1/2-x,1/2+y,1/2-z
-x,-y,-z
1/2+x,y,-z
-x,1/2+y,1/2+z
1/2+x,1/2-y,1/2+z
loop_
_atom_site_type_symbol
_atom_site_label
_atom_site_fract_x
_atom_site_fract_y
_atom_site_fract_z
Si Si1 0.151898 0.956184 0.163038
Si Si2 0.575176 0.853977 0.175624
Si Si3 0.224832 0.140960 0.751888
Si Si4 0.046269 0.715207 0.437109
Si Si5 0.545150 0.067030 0.657594
Si Si6 0.607825 0.444451 0.433561
Si Si7 0.078135 0.401255 0.922149
O O1 0.125024 0.843883 0.130312
O O2 0.250000 0.000000 0.185307
O O3 0.097642 0.989703 0.269214
O O4 0.126424 0.018600 0.054981
O O5 0.668359 0.853952 0.242691
O O6 0.493834 0.851727 0.261181
O O7 0.569550 0.962617 0.128238
O O8 0.575318 0.786121 0.066847
O O9 0.190734 0.250000 0.750000
O O10 0.193416 0.091026 0.865074
O O11 0.168816 0.099880 0.649813
O O12 0.963467 0.640735 0.430524
O O13 0.999075 0.817220 0.401308
O O14 0.597726 0.107310 0.552284
O O15 0.463652 0.005490 0.606239
#
# Coordination Sequence:
#
# PCOD9413013 Si02
#       7
#     8   8   8   8   8   8   8
#     4  11  22  42  70  99 129 175 234 279 342 404
#     4  11  22  40  68  99 131 177 234 274 343 400
#     4  12  24  39  65 105 135 173 229 292 327 405
#     4  11  21  42  72  99 135 177 229 294 340 403
#     4  11  24  46  68  93 137 192 214 272 352 423
#     4  11  19  40  70  95 130 170 228 290 337 388
#     4  11  26  44  65  98 141 176 226 273 350 412
#
# _framework density 22.421475999999998
#
# number of rings (size 3 to 8) (size 9 to 14) (size 15 to 20)
#    0.000    0.857    5.714    3.000    2.000    0.000 
#    5.143    0.000    3.143    0.000    0.000    0.000 
#    0.000    0.000    0.000    0.000    0.000    0.000 
#
# Total GULP energy -312351.688558 kJ/mol
# GULP energy per Si atom -5577.708724 kJ/mol
# Density = 2.237044 g / cm^3
# Si number density = 22.421476 Si / 1000 Ang^3
#
#
#
# Elastic Constant Matrix: (Units=GPa)
#
#
# Indices 1 2 3 4 5 6 
#
# 1 67.3608 -1.2681 42.7513 0.0000 0.0000 0.0000
# 2 -1.2681 69.8072 9.6096 0.0000 0.0000 0.0000
# 3 42.7513 9.6096 104.5785 0.0000 0.0000 0.0000
# 4 0.0000 0.0000 0.0000 31.9689 0.0000 0.0000
# 5 0.0000 0.0000 0.0000 0.0000 42.8901 0.0000
# 6 0.0000 0.0000 0.0000 0.0000 0.0000 21.9777
#
#
#
# Elastic Compliance Matrix: (Units=1/GPa)
#
#
# Indices 1 2 3 4 5 6 
#
# 1 0.020205 0.001523 -0.008400 0.000000 0.000000 0.000000
# 2 0.001523 0.014624 -0.001966 0.000000 0.000000 0.000000
# 3 -0.008400 -0.001966 0.013177 0.000000 0.000000 0.000000
# 4 0.000000 0.000000 0.000000 0.031280 0.000000 0.000000
# 5 0.000000 0.000000 0.000000 0.000000 0.023315 0.000000
# 6 0.000000 0.000000 0.000000 0.000000 0.000000 0.045501
#
#
# Mechanical properties :
#
#
# Convention : Reuss Voigt Hill
#
# Bulk Modulus (GPa) = 32.98202 38.21468 35.59835
# Shear Modulus (GPa) = 28.42622 32.07761 30.25191
#
# Velocity S-wave (km/s) = 3.56450 3.78652 3.67718
# Velocity P-wave (km/s) = 5.62875 6.01645 5.82583
#
# Compressibility (1/GPa) = 0.03031955
#
# Stress axis : x y z
#
# Youngs Moduli (GPa) = 49.49252 68.38288 75.89173
#
# Poissons Ratio (x) = -0.10417 0.63747
# Poissons Ratio (y) = -0.07539 0.14924
# Poissons Ratio (z) = 0.41572 0.13447
#
# Static dielectric constant tensor:
#      x y z
#    x 1.879560 0.000000 0.000000 
#    y 0.000000 1.885260 0.000000 
#    z 0.000000 0.000000 1.904610 
# 
# From -- ./inp_files/19611.got.cif
#   From: 2010.05.17/outbox.cif.g08.bks.cpg/sg52_10_cif.got.tgz:19611.got - 2010.06.03 12:15:38.
