data_PCOD9413516
_publ_section_title
;
Structure prediction by ZEFSAII (Michael W. Deem and Ramdas Pophale) SiO2 
 PCOD9413516
Probable space group: P N N A
;
_chemical_formula_sum "Si O2"
_cell_formula_units_Z 48
_cell_length_a 26.688400
_cell_length_b 8.485700
_cell_length_c 9.563517
_cell_angle_alpha 90.000000
_cell_angle_beta 90.000000
_cell_angle_gamma 90.000000
_cell_volume 2165.847360
_symmetry_space_group_name_H-M "P N N A"
_symmetry_group_IT_number 52
_symmetry_cell_setting 'orthorhombic'
loop_
_space_group_symop_operation_xyz
x,y,z
1/2-x,-y,z
x,1/2-y,1/2-z
1/2-x,1/2+y,1/2-z
-x,-y,-z
1/2+x,y,-z
-x,1/2+y,1/2+z
1/2+x,1/2-y,1/2+z
loop_
_atom_site_type_symbol
_atom_site_label
_atom_site_fract_x
_atom_site_fract_y
_atom_site_fract_z
Si Si1 0.281412 0.858808 0.362696
Si Si2 0.366651 0.068585 0.219852
Si Si3 0.937038 0.607233 0.928905
Si Si4 0.600613 0.430536 0.441500
Si Si5 0.953132 0.084544 0.297846
Si Si6 0.708790 0.362178 0.375074
O O1 0.253300 0.750000 0.250000
O O2 0.296904 0.744302 0.486402
O O3 0.250000 0.000000 0.427164
O O4 0.322852 0.948939 0.269255
O O5 0.356531 0.250000 0.250000
O O6 0.411057 0.000781 0.314020
O O7 0.382778 0.054562 0.059118
O O8 0.992671 0.626242 0.865170
O O9 0.913844 0.776445 0.967374
O O10 0.930929 0.512530 0.073588
O O11 0.554512 0.477559 0.340682
O O12 0.651213 0.414775 0.348590
O O13 0.929420 0.250000 0.250000
O O14 0.750000 0.500000 0.396101
O O15 0.726075 0.250000 0.250000
#
# Coordination Sequence:
#
# PCOD9413516 Si02
#       6
#     8   8   8   8   8   8
#     4  12  24  44  72 104 141 186 237 298 362 436
#     4  12  25  42  70 106 141 183 241 302 357 439
#     4  11  24  46  71 101 145 192 241 298 369 433
#     4  12  25  47  72 101 148 193 237 304 374 431
#     4  11  25  43  71 105 140 189 242 298 360 436
#     4  12  27  48  72 104 146 195 240 297 368 441
#
# _framework density 22.162224999999999
#
# number of rings (size 3 to 8) (size 9 to 14) (size 15 to 20)
#    0.000    0.333    3.333    5.500    2.333    6.000 
#    0.000    0.000    0.000    0.000    0.000    0.000 
#    0.000    0.000    0.000    0.000    0.000    0.000 
#
# Total GULP energy -267875.096650 kJ/mol
# GULP energy per Si atom -5580.731180 kJ/mol
# Density = 2.211178 g / cm^3
# Si number density = 22.162225 Si / 1000 Ang^3
#
#
#
# Elastic Constant Matrix: (Units=GPa)
#
#
# Indices 1 2 3 4 5 6 
#
# 1 48.0251 16.4056 8.2623 0.0000 0.0000 0.0000
# 2 16.4056 112.8028 36.6178 0.0000 0.0000 0.0000
# 3 8.2623 36.6178 112.8928 0.0000 0.0000 0.0000
# 4 0.0000 0.0000 0.0000 6.3435 0.0000 0.0000
# 5 0.0000 0.0000 0.0000 0.0000 -10.0960 0.0000
# 6 0.0000 0.0000 0.0000 0.0000 0.0000 304.6233
#
#
#
# Elastic Compliance Matrix: (Units=1/GPa)
#
#
# Indices 1 2 3 4 5 6 
#
# 1 0.021952 -0.002985 -0.000638 0.000000 0.000000 0.000000
# 2 -0.002985 0.010314 -0.003127 0.000000 0.000000 0.000000
# 3 -0.000638 -0.003127 0.009919 0.000000 0.000000 0.000000
# 4 0.000000 0.000000 0.000000 0.157642 0.000000 0.000000
# 5 0.000000 0.000000 0.000000 0.000000 -0.099049 0.000000
# 6 0.000000 0.000000 0.000000 0.000000 0.000000 0.003283
#
#
# Mechanical properties :
#
#
# Convention : Reuss Voigt Hill
#
# Bulk Modulus (GPa) = 34.86278 44.03245 39.44762
# Shear Modulus (GPa) = 39.33167 74.33649 56.83408
#
# Velocity S-wave (km/s) = 4.21731 5.79783 5.06954
# Velocity P-wave (km/s) = 6.28324 8.04556 7.21839
#
# Compressibility (1/GPa) = 0.02868388
#
# Stress axis : x y z
#
# Youngs Moduli (GPa) = 45.55375 96.95273 100.81706
#
# Poissons Ratio (x) = 0.28945 0.06435
# Poissons Ratio (y) = 0.13600 0.31526
# Poissons Ratio (z) = 0.02908 0.30317
#
# Static dielectric constant tensor:
#      x y z
#    x 1.999900 0.000000 0.000000 
#    y 0.000000 1.744060 0.000000 
#    z 0.000000 0.000000 1.794710 
# 
# From -- ./inp_files/15534.got.cif
#   From: 2010.05.17/outbox.cif.g08.bks.cpg/sg52_8_cif.got.tgz:15534.got - 2010.06.03 12:15:38.
