data_PCOD9413423
_publ_section_title
;
Structure prediction by ZEFSAII (Michael W. Deem and Ramdas Pophale) SiO2 
 PCOD9413423
Probable space group: P N N A
;
_chemical_formula_sum "Si O2"
_cell_formula_units_Z 32
_cell_length_a 14.311932
_cell_length_b 15.140374
_cell_length_c 6.095069
_cell_angle_alpha 90.000000
_cell_angle_beta 90.000000
_cell_angle_gamma 90.000000
_cell_volume 1320.728331
_symmetry_space_group_name_H-M "P N N A"
_symmetry_group_IT_number 52
_symmetry_cell_setting 'orthorhombic'
loop_
_space_group_symop_operation_xyz
x,y,z
1/2-x,-y,z
x,1/2-y,1/2-z
1/2-x,1/2+y,1/2-z
-x,-y,-z
1/2+x,y,-z
-x,1/2+y,1/2+z
1/2+x,1/2-y,1/2+z
loop_
_atom_site_type_symbol
_atom_site_label
_atom_site_fract_x
_atom_site_fract_y
_atom_site_fract_z
Si Si1 0.256318 0.685597 0.569353
Si Si2 0.612523 0.750000 0.750000
Si Si3 0.900945 0.750000 0.750000
Si Si4 0.344836 0.530712 0.855606
Si Si5 0.479214 0.118789 0.601429
O O1 0.212307 0.750000 0.750000
O O2 0.179661 0.680315 0.378939
O O3 0.335229 0.749208 0.460699
O O4 0.305210 0.598312 0.670536
O O5 0.556314 0.811522 0.580424
O O6 0.969380 0.830308 0.793626
O O7 0.250000 0.500000 0.979176
O O8 0.430355 0.571058 0.993169
O O9 0.396653 0.439164 0.796166
#
# Coordination Sequence:
#
# PCOD9413423 Si02
#       5
#     8   4   4   8   8
#     4  11  23  47  73 105 148 200 247 309 377 450
#     4  11  26  46  79 106 148 212 257 302 381 464
#     4  11  24  44  77 104 142 198 253 308 367 458
#     4  11  25  47  69 107 154 186 244 321 369 447
#     4  11  25  46  76 107 147 195 255 310 378 455
#
# _framework density 24.229057000000001
#
# number of rings (size 3 to 8) (size 9 to 14) (size 15 to 20)
#    0.000    1.000    2.500    3.000    8.750    1.000 
#    9.000    0.000    0.000    0.000    0.000    0.000 
#    0.000    0.000    0.000    0.000    0.000    0.000 
#
# Total GULP energy -178286.589889 kJ/mol
# GULP energy per Si atom -5571.455934 kJ/mol
# Density = 2.417391 g / cm^3
# Si number density = 24.229057 Si / 1000 Ang^3
#
#
#
# Elastic Constant Matrix: (Units=GPa)
#
#
# Indices 1 2 3 4 5 6 
#
# 1 165.6358 37.9805 29.7024 0.0000 0.0000 0.0000
# 2 37.9805 71.7464 20.0773 0.0000 0.0000 0.0000
# 3 29.7024 20.0773 56.5295 0.0000 0.0000 0.0000
# 4 0.0000 0.0000 0.0000 15.3017 0.0000 0.0000
# 5 0.0000 0.0000 0.0000 0.0000 52.1843 0.0000
# 6 0.0000 0.0000 0.0000 0.0000 0.0000 40.5881
#
#
#
# Elastic Compliance Matrix: (Units=1/GPa)
#
#
# Indices 1 2 3 4 5 6 
#
# 1 0.007226 -0.003068 -0.002707 0.000000 0.000000 0.000000
# 2 -0.003068 0.016779 -0.004347 0.000000 0.000000 0.000000
# 3 -0.002707 -0.004347 0.020656 0.000000 0.000000 0.000000
# 4 0.000000 0.000000 0.000000 0.065352 0.000000 0.000000
# 5 0.000000 0.000000 0.000000 0.000000 0.019163 0.000000
# 6 0.000000 0.000000 0.000000 0.000000 0.000000 0.024638
#
#
# Mechanical properties :
#
#
# Convention : Reuss Voigt Hill
#
# Bulk Modulus (GPa) = 40.95599 52.15912 46.55755
# Shear Modulus (GPa) = 27.44278 35.35827 31.40052
#
# Velocity S-wave (km/s) = 3.36912 3.82427 3.60389
# Velocity P-wave (km/s) = 5.66348 6.40892 6.04770
#
# Compressibility (1/GPa) = 0.02441645
#
# Stress axis : x y z
#
# Youngs Moduli (GPa) = 138.38394 59.60008 48.41117
#
# Poissons Ratio (x) = 0.18284 0.13107
# Poissons Ratio (y) = 0.42453 0.21046
# Poissons Ratio (z) = 0.37465 0.25910
#
# Static dielectric constant tensor:
#      x y z
#    x 1.879650 0.000000 0.000000 
#    y 0.000000 2.189090 0.000000 
#    z 0.000000 0.000000 1.880650 
# 
# From -- ./inp_files/1978.got.cif
#   From: 2010.05.17/outbox.cif.g08.bks.cpg/sg52_1_cif.got.tgz:1978.got - 2010.06.03 12:15:38.
