data_PCOD9413692
_publ_section_title
;
Structure prediction by ZEFSAII (Michael W. Deem and Ramdas Pophale) SiO2 
 PCOD9413692
Probable space group: P N N A
;
_chemical_formula_sum "Si O2"
_cell_formula_units_Z 36
_cell_length_a 13.525306
_cell_length_b 8.112956
_cell_length_c 12.345143
_cell_angle_alpha 90.000000
_cell_angle_beta 90.000000
_cell_angle_gamma 90.000000
_cell_volume 1354.635164
_symmetry_space_group_name_H-M "P N N A"
_symmetry_group_IT_number 52
_symmetry_cell_setting 'orthorhombic'
loop_
_space_group_symop_operation_xyz
x,y,z
1/2-x,-y,z
x,1/2-y,1/2-z
1/2-x,1/2+y,1/2-z
-x,-y,-z
1/2+x,y,-z
-x,1/2+y,1/2+z
1/2+x,1/2-y,1/2+z
loop_
_atom_site_type_symbol
_atom_site_label
_atom_site_fract_x
_atom_site_fract_y
_atom_site_fract_z
Si Si1 0.572466 0.691921 0.443769
Si Si2 0.928164 0.381799 0.827782
Si Si3 0.860421 0.707714 0.930635
Si Si4 0.142509 0.014969 0.663193
Si Si5 0.250000 0.500000 0.487960
O O1 0.561929 0.787792 0.558077
O O2 0.458121 0.679153 0.412002
O O3 0.648481 0.541303 0.448402
O O4 0.619665 0.828359 0.367971
O O5 0.880822 0.250000 0.750000
O O6 0.872437 0.552240 0.851770
O O7 0.039821 0.423193 0.785413
O O8 0.771677 0.834530 0.922289
O O9 0.849113 0.623719 0.051223
O O10 0.250000 0.000000 0.717319
#
# Coordination Sequence:
#
# PCOD9413692 Si02
#       5
#     8   8   8   8   4
#     4   9  19  32  53  86 115 155 200 255 303 350
#     4   9  19  36  56  76 118 167 203 247 310 373
#     4   9  19  32  55  87 116 155 202 258 308 354
#     4   9  15  33  59  83 109 150 210 262 303 349
#     4  12  18  30  56  84 124 150 200 268 304 354
#
# _framework density 26.575422
#
# number of rings (size 3 to 8) (size 9 to 14) (size 15 to 20)
#    0.000    2.667    2.222    3.333    0.000    0.000 
#    0.000    3.333    9.778    0.000    0.000    0.000 
#    0.000    1.778    0.000    0.000    0.000    0.000 
#
# Total GULP energy -201203.308590 kJ/mol
# GULP energy per Si atom -5588.980794 kJ/mol
# Density = 2.651494 g / cm^3
# Si number density = 26.575422 Si / 1000 Ang^3
#
#
#
# Elastic Constant Matrix: (Units=GPa)
#
#
# Indices 1 2 3 4 5 6 
#
# 1 136.4793 47.4020 20.2287 0.0000 0.0000 0.0000
# 2 47.4020 147.4407 40.9052 0.0000 0.0000 0.0000
# 3 20.2287 40.9052 59.7547 0.0000 0.0000 0.0000
# 4 0.0000 0.0000 0.0000 25.1154 0.0000 0.0000
# 5 0.0000 0.0000 0.0000 0.0000 -1.4270 0.0000
# 6 0.0000 0.0000 0.0000 0.0000 0.0000 50.9228
#
#
#
# Elastic Compliance Matrix: (Units=1/GPa)
#
#
# Indices 1 2 3 4 5 6 
#
# 1 0.008319 -0.002337 -0.001216 0.000000 0.000000 0.000000
# 2 -0.002337 0.009029 -0.005390 0.000000 0.000000 0.000000
# 3 -0.001216 -0.005390 0.020836 0.000000 0.000000 0.000000
# 4 0.000000 0.000000 0.000000 0.039816 0.000000 0.000000
# 5 0.000000 0.000000 0.000000 0.000000 -0.700757 0.000000
# 6 0.000000 0.000000 0.000000 0.000000 0.000000 0.019638
#
#
# Mechanical properties :
#
#
# Convention : Reuss Voigt Hill
#
# Bulk Modulus (GPa) = 49.26546 62.30517 55.78532
# Shear Modulus (GPa) = -8.64355 30.59815 10.97730
#
# Velocity S-wave (km/s) = -1.80541 3.39687 2.03460
# Velocity P-wave (km/s) = 3.77256 6.23542 5.15328
#
# Compressibility (1/GPa) = 0.02029820
#
# Stress axis : x y z
#
# Youngs Moduli (GPa) = 120.20470 110.75367 47.99303
#
# Poissons Ratio (x) = 0.25885 0.05838
# Poissons Ratio (y) = 0.28093 0.25867
# Poissons Ratio (z) = 0.14622 0.59692
#
# Static dielectric constant tensor:
#      x y z
#    x 2.155830 0.000000 0.000000 
#    y 0.000000 2.037120 0.000000 
#    z 0.000000 0.000000 2.248250 
# 
# From -- ./inp_files/26798.got.cif
#   From: 2010.05.17/outbox.cif.g08.bks.cpg/sg52_14_cif.got.tgz:26798.got - 2010.06.03 12:15:38.
