data_PCOD9413749
_publ_section_title
;
Structure prediction by ZEFSAII (Michael W. Deem and Ramdas Pophale) SiO2 
 PCOD9413749
Probable space group: P N N A
;
_chemical_formula_sum "Si O2"
_cell_formula_units_Z 40
_cell_length_a 18.069457
_cell_length_b 8.892341
_cell_length_c 11.036385
_cell_angle_alpha 90.000000
_cell_angle_beta 90.000000
_cell_angle_gamma 90.000000
_cell_volume 1773.323840
_symmetry_space_group_name_H-M "P N N A"
_symmetry_group_IT_number 52
_symmetry_cell_setting 'orthorhombic'
loop_
_space_group_symop_operation_xyz
x,y,z
1/2-x,-y,z
x,1/2-y,1/2-z
1/2-x,1/2+y,1/2-z
-x,-y,-z
1/2+x,y,-z
-x,1/2+y,1/2+z
1/2+x,1/2-y,1/2+z
loop_
_atom_site_type_symbol
_atom_site_label
_atom_site_fract_x
_atom_site_fract_y
_atom_site_fract_z
Si Si1 0.414823 0.946771 0.303577
Si Si2 0.083633 0.603019 0.814752
Si Si3 0.933441 0.252763 0.922732
Si Si4 0.665193 0.457206 0.565597
Si Si5 0.898212 0.699321 0.070418
O O1 0.500326 0.921785 0.263459
O O2 0.361860 0.896122 0.196072
O O3 0.403414 0.873011 0.435002
O O4 0.403802 0.124766 0.326940
O O5 0.118668 0.750000 0.750000
O O6 0.119293 0.436973 0.835987
O O7 0.070416 0.659735 0.950452
O O8 0.020720 0.235697 0.898150
O O9 0.888132 0.101879 0.944897
O O10 0.750000 0.500000 0.572188
O O11 0.653805 0.340796 0.455583
#
# Coordination Sequence:
#
# PCOD9413749 Si02
#       5
#     8   8   8   8   8
#     4   9  18  33  54  82 115 154 195 242 306 367
#     4   9  17  35  61  81 103 146 209 267 301 338
#     4   9  19  35  55  81 114 153 202 251 294 356
#     4  12  23  34  53  87 132 164 189 239 313 390
#     4   9  19  35  55  81 115 157 204 249 297 361
#
# _framework density 22.556512000000001
#
# number of rings (size 3 to 8) (size 9 to 14) (size 15 to 20)
#    0.000    2.400    0.000    6.600    0.000    3.200 
#    0.000    6.000    0.000    2.400    0.000    0.000 
#    0.000    0.000    0.000    0.000    0.000    0.000 
#
# Total GULP energy -223069.202631 kJ/mol
# GULP energy per Si atom -5576.730066 kJ/mol
# Density = 2.250517 g / cm^3
# Si number density = 22.556512 Si / 1000 Ang^3
#
#
#
# Elastic Constant Matrix: (Units=GPa)
#
#
# Indices 1 2 3 4 5 6 
#
# 1 65.9251 57.0143 34.2807 0.0000 0.0000 0.0000
# 2 57.0143 179.0779 43.5737 0.0000 0.0000 0.0000
# 3 34.2807 43.5737 73.5047 0.0000 0.0000 0.0000
# 4 0.0000 0.0000 0.0000 51.1427 0.0000 0.0000
# 5 0.0000 0.0000 0.0000 0.0000 19.3459 0.0000
# 6 0.0000 0.0000 0.0000 0.0000 0.0000 -17.1540
#
#
#
# Elastic Compliance Matrix: (Units=1/GPa)
#
#
# Indices 1 2 3 4 5 6 
#
# 1 0.024300 -0.005818 -0.007884 0.000000 0.000000 0.000000
# 2 -0.005818 0.007918 -0.001981 0.000000 0.000000 0.000000
# 3 -0.007884 -0.001981 0.018456 0.000000 0.000000 0.000000
# 4 0.000000 0.000000 0.000000 0.019553 0.000000 0.000000
# 5 0.000000 0.000000 0.000000 0.000000 0.051691 0.000000
# 6 0.000000 0.000000 0.000000 0.000000 0.000000 -0.058295
#
#
# Mechanical properties :
#
#
# Convention : Reuss Voigt Hill
#
# Bulk Modulus (GPa) = 51.79027 65.36055 58.57541
# Shear Modulus (GPa) = 49.29787 22.90951 36.10369
#
# Velocity S-wave (km/s) = 4.68003 3.19038 4.00508
# Velocity P-wave (km/s) = 7.22590 6.52768 6.88565
#
# Compressibility (1/GPa) = 0.01930865
#
# Stress axis : x y z
#
# Youngs Moduli (GPa) = 41.15197 126.28665 54.18433
#
# Poissons Ratio (x) = 0.73477 0.42718
# Poissons Ratio (y) = 0.23943 0.10732
# Poissons Ratio (z) = 0.32444 0.25012
#
# Static dielectric constant tensor:
#      x y z
#    x 1.750690 0.000000 0.000000 
#    y 0.000000 1.967300 0.000000 
#    z 0.000000 0.000000 1.911820 
# 
# From -- ./inp_files/20319.got.cif
#   From: 2010.05.17/outbox.cif.g08.bks.cpg/sg52_11_cif.got.tgz:20319.got - 2010.06.03 12:15:38.
