data_PCOD9413607
_publ_section_title
;
Structure prediction by ZEFSAII (Michael W. Deem and Ramdas Pophale) SiO2 
 PCOD9413607
Probable space group: P N N A
;
_chemical_formula_sum "Si O2"
_cell_formula_units_Z 36
_cell_length_a 22.379645
_cell_length_b 14.125922
_cell_length_c 5.173520
_cell_angle_alpha 90.000000
_cell_angle_beta 90.000000
_cell_angle_gamma 90.000000
_cell_volume 1635.521017
_symmetry_space_group_name_H-M "P N N A"
_symmetry_group_IT_number 52
_symmetry_cell_setting 'orthorhombic'
loop_
_space_group_symop_operation_xyz
x,y,z
1/2-x,-y,z
x,1/2-y,1/2-z
1/2-x,1/2+y,1/2-z
-x,-y,-z
1/2+x,y,-z
-x,1/2+y,1/2+z
1/2+x,1/2-y,1/2+z
loop_
_atom_site_type_symbol
_atom_site_label
_atom_site_fract_x
_atom_site_fract_y
_atom_site_fract_z
Si Si1 0.286217 0.250000 0.250000
Si Si2 0.111901 0.658907 0.563686
Si Si3 0.206743 0.411083 0.045163
Si Si4 0.130717 0.053902 0.932829
Si Si5 0.523016 0.187214 0.009493
O O1 0.331629 0.322591 0.383297
O O2 0.244783 0.315432 0.074853
O O3 0.112310 0.750000 0.750000
O O4 0.121484 0.553621 0.665594
O O5 0.045960 0.659035 0.440187
O O6 0.250000 0.500000 0.984925
O O7 0.172777 0.435046 0.314522
O O8 0.161442 0.396383 0.810223
O O9 0.067349 0.099176 0.007053
O O10 0.525519 0.250000 0.750000
O O11 0.542980 0.250000 0.250000
#
# Coordination Sequence:
#
# PCOD9413607 Si02
#       5
#     4   8   8   8   8
#     4  12  26  46  70 100 142 194 238 288 354 430
#     4  11  25  48  75 102 142 189 244 296 356 433
#     4  12  27  46  71 103 144 187 237 290 352 426
#     4  12  27  47  72 107 144 183 239 298 357 417
#     4  11  25  47  74 109 143 185 237 296 364 424
#
# _framework density 22.011334000000002
#
# number of rings (size 3 to 8) (size 9 to 14) (size 15 to 20)
#    0.000    0.444    3.333    4.000    7.778    0.000 
#    0.000    5.556    0.000    0.000    0.000    0.000 
#    0.000    0.000    0.000    0.000    0.000    0.000 
#
# Total GULP energy -201361.702346 kJ/mol
# GULP energy per Si atom -5593.380621 kJ/mol
# Density = 2.196124 g / cm^3
# Si number density = 22.011334 Si / 1000 Ang^3
#
#
#
# Elastic Constant Matrix: (Units=GPa)
#
#
# Indices 1 2 3 4 5 6 
#
# 1 128.7840 63.8842 29.9924 0.0000 0.0000 0.0000
# 2 63.8842 101.5726 14.3288 0.0000 0.0000 0.0000
# 3 29.9924 14.3288 84.8150 0.0000 0.0000 0.0000
# 4 0.0000 0.0000 0.0000 22.8770 0.0000 0.0000
# 5 0.0000 0.0000 0.0000 0.0000 24.7911 0.0000
# 6 0.0000 0.0000 0.0000 0.0000 0.0000 18.1483
#
#
#
# Elastic Compliance Matrix: (Units=1/GPa)
#
#
# Indices 1 2 3 4 5 6 
#
# 1 0.012007 -0.007122 -0.003043 0.000000 0.000000 0.000000
# 2 -0.007122 0.014311 0.000101 0.000000 0.000000 0.000000
# 3 -0.003043 0.000101 0.012849 0.000000 0.000000 0.000000
# 4 0.000000 0.000000 0.000000 0.043712 0.000000 0.000000
# 5 0.000000 0.000000 0.000000 0.000000 0.040337 0.000000
# 6 0.000000 0.000000 0.000000 0.000000 0.000000 0.055102
#
#
# Mechanical properties :
#
#
# Convention : Reuss Voigt Hill
#
# Bulk Modulus (GPa) = 52.52505 59.06472 55.79488
# Shear Modulus (GPa) = 24.41513 26.96103 25.68808
#
# Velocity S-wave (km/s) = 3.33409 3.50361 3.41990
# Velocity P-wave (km/s) = 6.22383 6.57716 6.40294
#
# Compressibility (1/GPa) = 0.01903853
#
# Stress axis : x y z
#
# Youngs Moduli (GPa) = 83.28744 69.87852 77.82573
#
# Poissons Ratio (x) = 0.49770 0.23679
# Poissons Ratio (y) = 0.59320 -0.00786
# Poissons Ratio (z) = 0.25341 -0.00706
#
# Static dielectric constant tensor:
#      x y z
#    x 1.805590 0.000000 0.000000 
#    y 0.000000 1.786960 0.000000 
#    z 0.000000 0.000000 1.808470 
# 
# From -- ./inp_files/4865.got.cif
#   From: 2010.05.17/outbox.cif.g08.bks.cpg/sg52_3_cif.got.tgz:4865.got - 2010.06.03 12:15:38.
