data_PCOD9413639
_publ_section_title
;
Structure prediction by ZEFSAII (Michael W. Deem and Ramdas Pophale) SiO2 
 PCOD9413639
Probable space group: P N N A
;
_chemical_formula_sum "Si O2"
_cell_formula_units_Z 32
_cell_length_a 11.582853
_cell_length_b 22.798143
_cell_length_c 5.035428
_cell_angle_alpha 90.000000
_cell_angle_beta 90.000000
_cell_angle_gamma 90.000000
_cell_volume 1329.693080
_symmetry_space_group_name_H-M "P N N A"
_symmetry_group_IT_number 52
_symmetry_cell_setting 'orthorhombic'
loop_
_space_group_symop_operation_xyz
x,y,z
1/2-x,-y,z
x,1/2-y,1/2-z
1/2-x,1/2+y,1/2-z
-x,-y,-z
1/2+x,y,-z
-x,1/2+y,1/2+z
1/2+x,1/2-y,1/2+z
loop_
_atom_site_type_symbol
_atom_site_label
_atom_site_fract_x
_atom_site_fract_y
_atom_site_fract_z
Si Si1 0.298615 0.566457 0.439996
Si Si2 0.306861 0.750000 0.750000
Si Si3 0.039306 0.433805 0.945134
Si Si4 0.460929 0.750000 0.250000
Si Si5 0.860129 0.354349 0.206364
O O1 0.250000 0.500000 0.427056
O O2 0.359825 0.581486 0.160324
O O3 0.195580 0.606857 0.557391
O O4 0.401507 0.570469 0.658510
O O5 0.384141 0.736520 0.501614
O O6 0.239060 0.692854 0.852416
O O7 0.922911 0.396671 0.996025
O O8 0.000000 0.500000 0.000000
O O9 0.538963 0.692395 0.251849
#
# Coordination Sequence:
#
# PCOD9413639 Si02
#       5
#     8   4   8   4   8
#     4  12  26  44  69 105 145 190 239 290 361 438
#     4  11  26  49  72 106 138 187 246 301 364 434
#     4  12  26  45  68 106 145 189 240 293 361 438
#     4  11  26  49  72 108 140 187 250 303 368 432
#     4  11  26  45  77 102 146 192 236 307 366 434
#
# _framework density 24.065704
#
# number of rings (size 3 to 8) (size 9 to 14) (size 15 to 20)
#    0.000    0.500    2.500    4.500    0.000    8.000 
#    0.000    0.000    0.000    0.000    0.000    0.000 
#    0.000    0.000    0.000    0.000    0.000    0.000 
#
# Total GULP energy -178971.934640 kJ/mol
# GULP energy per Si atom -5592.872957 kJ/mol
# Density = 2.401093 g / cm^3
# Si number density = 24.065704 Si / 1000 Ang^3
#
#
#
# Elastic Constant Matrix: (Units=GPa)
#
#
# Indices 1 2 3 4 5 6 
#
# 1 78.5062 23.4084 2.9245 0.0000 0.0000 0.0000
# 2 23.4084 134.8609 -25.7134 0.0000 0.0000 0.0000
# 3 2.9245 -25.7134 62.4881 0.0000 0.0000 0.0000
# 4 0.0000 0.0000 0.0000 22.8684 0.0000 0.0000
# 5 0.0000 0.0000 0.0000 0.0000 23.7246 0.0000
# 6 0.0000 0.0000 0.0000 0.0000 0.0000-7339.0048
#
#
#
# Elastic Compliance Matrix: (Units=1/GPa)
#
#
# Indices 1 2 3 4 5 6 
#
# 1 0.013606 -0.002695 -0.001746 0.000000 0.000000 0.000000
# 2 -0.002695 0.008580 0.003657 0.000000 0.000000 0.000000
# 3 -0.001746 0.003657 0.017589 0.000000 0.000000 0.000000
# 4 0.000000 0.000000 0.000000 0.043728 0.000000 0.000000
# 5 0.000000 0.000000 0.000000 0.000000 0.042150 0.000000
# 6 0.000000 0.000000 0.000000 0.000000 0.000000 -0.000136
#
#
# Mechanical properties :
#
#
# Convention : Reuss Voigt Hill
#
# Bulk Modulus (GPa) = 26.17190 30.78824 28.48007
# Shear Modulus (GPa) = 35.75992 -1440.13330 -702.18669
#
# Velocity S-wave (km/s) = 3.85896 -24.48911 -17.10007
# Velocity P-wave (km/s) = 5.54565 28.04997 19.44282
#
# Compressibility (1/GPa) = 0.03820892
#
# Stress axis : x y z
#
# Youngs Moduli (GPa) = 73.49536 116.55072 56.85228
#
# Poissons Ratio (x) = 0.31405 0.09924
# Poissons Ratio (y) = 0.19803 -0.20789
# Poissons Ratio (z) = 0.12829 -0.42619
#
# Static dielectric constant tensor:
#      x y z
#    x 1.947020 0.000000 0.000000 
#    y 0.000000 3.081250 0.000000 
#    z 0.000000 0.000000 1.860200 
# 
# From -- ./inp_files/1082.got.cif
#   From: 2010.05.17/outbox.cif.g08.bks.cpg/sg52_1_cif.got.tgz:1082.got - 2010.06.03 12:15:38.
