data_PCOD9413865
_publ_section_title
;
Structure prediction by ZEFSAII (Michael W. Deem and Ramdas Pophale) SiO2 
 PCOD9413865
Probable space group: P N N A
;
_chemical_formula_sum "Si O2"
_cell_formula_units_Z 32
_cell_length_a 15.444292
_cell_length_b 11.626110
_cell_length_c 7.943613
_cell_angle_alpha 90.000000
_cell_angle_beta 90.000000
_cell_angle_gamma 90.000000
_cell_volume 1426.331619
_symmetry_space_group_name_H-M "P N N A"
_symmetry_group_IT_number 52
_symmetry_cell_setting 'orthorhombic'
loop_
_space_group_symop_operation_xyz
x,y,z
1/2-x,-y,z
x,1/2-y,1/2-z
1/2-x,1/2+y,1/2-z
-x,-y,-z
1/2+x,y,-z
-x,1/2+y,1/2+z
1/2+x,1/2-y,1/2+z
loop_
_atom_site_type_symbol
_atom_site_label
_atom_site_fract_x
_atom_site_fract_y
_atom_site_fract_z
Si Si1 0.579618 0.432497 0.916298
Si Si2 0.750000 0.500000 0.699927
Si Si3 0.159636 0.722406 0.434154
Si Si4 0.035973 0.750000 0.750000
Si Si5 0.776447 0.631319 0.144682
O O1 0.661210 0.476707 0.804894
O O2 0.527467 0.351374 0.794195
O O3 0.500000 0.500000 0.000000
O O4 0.627160 0.375745 0.075581
O O5 0.777257 0.387489 0.589536
O O6 0.120397 0.750000 0.250000
O O7 0.092866 0.713064 0.588042
O O8 0.214995 0.833827 0.488512
O O9 0.750000 0.500000 0.201781
O O10 0.767887 0.750000 0.250000
#
# Coordination Sequence:
#
# PCOD9413865 Si02
#       5
#     8   4   8   4   8
#     4  12  26  49  81 120 170 209 280 347 415 494
#     4  12  26  48  80 116 158 230 264 338 420 502
#     4  12  25  48  82 115 168 215 274 330 421 489
#     4  12  28  48  76 124 158 214 278 348 404 504
#     4  12  26  49  81 120 162 219 273 339 414 496
#
# _framework density 22.435175999999998
#
# number of rings (size 3 to 8) (size 9 to 14) (size 15 to 20)
#    0.000    0.000    5.000    4.500    1.750    4.000 
#    0.000    0.000    0.000    0.000    0.000    0.000 
#    0.000    0.000    0.000    0.000    0.000    0.000 
#
# Total GULP energy -178289.272986 kJ/mol
# GULP energy per Si atom -5571.539781 kJ/mol
# Density = 2.238411 g / cm^3
# Si number density = 22.435176 Si / 1000 Ang^3
#
#
#
# Elastic Constant Matrix: (Units=GPa)
#
#
# Indices 1 2 3 4 5 6 
#
# 1 198.3565 91.2246 88.8696 0.0000 0.0000 0.0000
# 2 91.2246 176.1126 83.0596 0.0000 0.0000 0.0000
# 3 88.8696 83.0596 147.0187 0.0000 0.0000 0.0000
# 4 0.0000 0.0000 0.0000 36.2210 0.0000 0.0000
# 5 0.0000 0.0000 0.0000 0.0000 0.0474 0.0000
# 6 0.0000 0.0000 0.0000 0.0000 0.0000 51.9727
#
#
#
# Elastic Compliance Matrix: (Units=1/GPa)
#
#
# Indices 1 2 3 4 5 6 
#
# 1 0.007598 -0.002412 -0.003230 0.000000 0.000000 0.000000
# 2 -0.002412 0.008507 -0.003348 0.000000 0.000000 0.000000
# 3 -0.003230 -0.003348 0.010646 0.000000 0.000000 0.000000
# 4 0.000000 0.000000 0.000000 0.027608 0.000000 0.000000
# 5 0.000000 0.000000 0.000000 0.000000 21.086468 0.000000
# 6 0.000000 0.000000 0.000000 0.000000 0.000000 0.019241
#
#
# Mechanical properties :
#
#
# Convention : Reuss Voigt Hill
#
# Bulk Modulus (GPa) = 114.02182 116.42173 115.22178
# Shear Modulus (GPa) = 0.23606 34.87049 17.55328
#
# Velocity S-wave (km/s) = 0.32473 3.94671 2.80018
# Velocity P-wave (km/s) = 7.14659 8.53076 7.86917
#
# Compressibility (1/GPa) = 0.00877025
#
# Stress axis : x y z
#
# Youngs Moduli (GPa) = 131.61393 117.55547 93.93568
#
# Poissons Ratio (x) = 0.28359 0.30341
# Poissons Ratio (y) = 0.31750 0.31447
# Poissons Ratio (z) = 0.42510 0.39354
#
# Static dielectric constant tensor:
#      x y z
#    x 1.887470 0.000000 0.000000 
#    y 0.000000 1.874630 0.000000 
#    z 0.000000 0.000000 1.998020 
# 
# From -- ./inp_files/9726.got.cif
#   From: 2010.05.17/outbox.cif.g08.bks.cpg/sg52_5_cif.got.tgz:9726.got - 2010.06.03 12:15:38.
