data_PCOD9413072
_publ_section_title
;
Structure prediction by ZEFSAII (Michael W. Deem and Ramdas Pophale) SiO2 
 PCOD9413072
Probable space group: P N N A
;
_chemical_formula_sum "Si O2"
_cell_formula_units_Z 44
_cell_length_a 14.583245
_cell_length_b 8.641761
_cell_length_c 14.005401
_cell_angle_alpha 90.000000
_cell_angle_beta 90.000000
_cell_angle_gamma 90.000000
_cell_volume 1765.029511
_symmetry_space_group_name_H-M "P N N A"
_symmetry_group_IT_number 52
_symmetry_cell_setting 'orthorhombic'
loop_
_space_group_symop_operation_xyz
x,y,z
1/2-x,-y,z
x,1/2-y,1/2-z
1/2-x,1/2+y,1/2-z
-x,-y,-z
1/2+x,y,-z
-x,1/2+y,1/2+z
1/2+x,1/2-y,1/2+z
loop_
_atom_site_type_symbol
_atom_site_label
_atom_site_fract_x
_atom_site_fract_y
_atom_site_fract_z
Si Si1 0.352617 0.019315 0.140133
Si Si2 0.818172 0.870932 0.180363
Si Si3 0.533298 0.921651 0.209074
Si Si4 0.600873 0.275201 0.991485
Si Si5 0.394490 0.247494 0.972208
Si Si6 0.750000 0.500000 0.015975
O O1 0.250000 0.000000 0.178295
O O2 0.437578 0.012390 0.212234
O O3 0.360036 0.164652 0.068641
O O4 0.377249 0.869124 0.076396
O O5 0.769034 0.750000 0.250000
O O6 0.870965 0.782041 0.096936
O O7 0.750000 0.000000 0.140172
O O8 0.889652 0.963739 0.247612
O O9 0.523243 0.750000 0.250000
O O10 0.575253 0.884962 0.103514
O O11 0.670786 0.408577 0.961211
O O12 0.494619 0.321491 0.988920
O O13 0.314386 0.364050 0.937575
#
# Coordination Sequence:
#
# PCOD9413072 Si02
#       6
#     8   8   8   8   8   4
#     4  11  20  45  75  90 120 177 227 270 320 390
#     4  12  25  40  59  93 136 177 209 258 332 401
#     4  11  24  44  66  95 129 173 217 272 333 397
#     4  11  22  40  65  94 126 170 219 267 317 386
#     4  11  22  43  68  95 128 170 221 272 328 384
#     4  12  24  34  62 102 132 156 208 280 320 372
#
# _framework density 24.928761000000002
#
# number of rings (size 3 to 8) (size 9 to 14) (size 15 to 20)
#    0.000    0.727    5.455    3.818    3.818    0.000 
#    0.000    0.909    8.000    0.000    0.000    0.000 
#    0.000    0.000    0.000    0.000    0.000    0.000 
#
# Total GULP energy -245782.832253 kJ/mol
# GULP energy per Si atom -5585.973460 kJ/mol
# Density = 2.487202 g / cm^3
# Si number density = 24.928761 Si / 1000 Ang^3
#
#
#
# Elastic Constant Matrix: (Units=GPa)
#
#
# Indices 1 2 3 4 5 6 
#
# 1 232.4504 43.2917 5.3749 0.0000 0.0000 0.0000
# 2 43.2917 82.8144 0.6342 0.0000 0.0000 0.0000
# 3 5.3749 0.6342 11.4075 0.0000 0.0000 0.0000
# 4 0.0000 0.0000 0.0000 15.6785 0.0000 0.0000
# 5 0.0000 0.0000 0.0000 0.0000 133.1952 0.0000
# 6 0.0000 0.0000 0.0000 0.0000 0.0000 58.1094
#
#
#
# Elastic Compliance Matrix: (Units=1/GPa)
#
#
# Indices 1 2 3 4 5 6 
#
# 1 0.004817 -0.002502 -0.002131 0.000000 0.000000 0.000000
# 2 -0.002502 0.013380 0.000435 0.000000 0.000000 0.000000
# 3 -0.002131 0.000435 0.088642 0.000000 0.000000 0.000000
# 4 0.000000 0.000000 0.000000 0.063782 0.000000 0.000000
# 5 0.000000 0.000000 0.000000 0.000000 0.007508 0.000000
# 6 0.000000 0.000000 0.000000 0.000000 0.000000 0.017209
#
#
# Mechanical properties :
#
#
# Convention : Reuss Voigt Hill
#
# Bulk Modulus (GPa) = 10.15812 47.25267 28.70540
# Shear Modulus (GPa) = 21.13747 59.88805 40.51276
#
# Velocity S-wave (km/s) = 2.91506 4.90671 4.03568
# Velocity P-wave (km/s) = 3.92604 7.14824 5.76676
#
# Compressibility (1/GPa) = 0.09844338
#
# Stress axis : x y z
#
# Youngs Moduli (GPa) = 207.58871 74.73976 11.28138
#
# Poissons Ratio (x) = 0.18699 0.02404
# Poissons Ratio (y) = 0.51937 -0.00491
# Poissons Ratio (z) = 0.44230 -0.03251
#
# Static dielectric constant tensor:
#      x y z
#    x 2.024420 0.000000 0.000000 
#    y 0.000000 2.085060 0.000000 
#    z 0.000000 0.000000 2.011220 
# 
# From -- ./inp_files/32950.got.cif
#   From: 2010.05.17/outbox.cif.g08.bks.cpg/sg52_17_cif.got.tgz:32950.got - 2010.06.03 12:15:38.
