data_PCOD9413071
_publ_section_title
;
Structure prediction by ZEFSAII (Michael W. Deem and Ramdas Pophale) SiO2 
 PCOD9413071
Probable space group: P N N A
;
_chemical_formula_sum "Si O2"
_cell_formula_units_Z 28
_cell_length_a 16.756888
_cell_length_b 6.694350
_cell_length_c 12.391924
_cell_angle_alpha 90.000000
_cell_angle_beta 90.000000
_cell_angle_gamma 90.000000
_cell_volume 1390.082330
_symmetry_space_group_name_H-M "P N N A"
_symmetry_group_IT_number 52
_symmetry_cell_setting 'orthorhombic'
loop_
_space_group_symop_operation_xyz
x,y,z
1/2-x,-y,z
x,1/2-y,1/2-z
1/2-x,1/2+y,1/2-z
-x,-y,-z
1/2+x,y,-z
-x,1/2+y,1/2+z
1/2+x,1/2-y,1/2+z
loop_
_atom_site_type_symbol
_atom_site_label
_atom_site_fract_x
_atom_site_fract_y
_atom_site_fract_z
Si Si1 0.703968 0.250000 0.750000
Si Si2 0.077289 0.570064 0.333486
Si Si3 0.250000 0.500000 0.066046
Si Si4 0.047691 0.750000 0.750000
Si Si5 0.416212 0.382185 0.977627
O O1 0.650244 0.432146 0.706916
O O2 0.753410 0.313612 0.853318
O O3 0.067420 0.750000 0.250000
O O4 0.081306 0.678307 0.450068
O O5 0.005074 0.416727 0.311798
O O6 0.336122 0.502857 0.010254
O O7 0.092612 0.653096 0.850198
O O8 0.500000 0.500000 0.000000
#
# Coordination Sequence:
#
# PCOD9413071 Si02
#       5
#     4   8   4   4   8
#     4  11  22  42  68 103 132 164 228 295 346 375
#     4  11  20  43  72 100 128 168 224 288 336 394
#     4  12  24  40  68  98 136 174 222 278 334 400
#     4  11  24  40  68  97 136 182 216 267 344 411
#     4  12  24  44  67  99 134 176 228 275 335 408
#
# _framework density 20.142692
#
# number of rings (size 3 to 8) (size 9 to 14) (size 15 to 20)
#    0.000    0.571    5.714    4.286    0.000    0.000 
#    0.000    5.714    0.000    0.000    0.000    0.000 
#    0.000    0.000    0.000    0.000    0.000    0.000 
#
# Total GULP energy -156175.838425 kJ/mol
# GULP energy per Si atom -5577.708515 kJ/mol
# Density = 2.009685 g / cm^3
# Si number density = 20.142692 Si / 1000 Ang^3
#
#
#
# Elastic Constant Matrix: (Units=GPa)
#
#
# Indices 1 2 3 4 5 6 
#
# 1 130.5412 31.1443 49.0725 0.0000 0.0000 0.0000
# 2 31.1443 83.9123 14.6285 0.0000 0.0000 0.0000
# 3 49.0725 14.6285 141.3080 0.0000 0.0000 0.0000
# 4 0.0000 0.0000 0.0000 35.5320 0.0000 0.0000
# 5 0.0000 0.0000 0.0000 0.0000 28.2483 0.0000
# 6 0.0000 0.0000 0.0000 0.0000 0.0000 19.8147
#
#
#
# Elastic Compliance Matrix: (Units=1/GPa)
#
#
# Indices 1 2 3 4 5 6 
#
# 1 0.009501 -0.003005 -0.002988 0.000000 0.000000 0.000000
# 2 -0.003005 0.013087 -0.000311 0.000000 0.000000 0.000000
# 3 -0.002988 -0.000311 0.008147 0.000000 0.000000 0.000000
# 4 0.000000 0.000000 0.000000 0.028144 0.000000 0.000000
# 5 0.000000 0.000000 0.000000 0.000000 0.035400 0.000000
# 6 0.000000 0.000000 0.000000 0.000000 0.000000 0.050468
#
#
# Mechanical properties :
#
#
# Convention : Reuss Voigt Hill
#
# Bulk Modulus (GPa) = 55.17248 60.60582 57.88915
# Shear Modulus (GPa) = 30.60035 34.11341 32.35688
#
# Velocity S-wave (km/s) = 3.90189 4.11979 4.01232
# Velocity P-wave (km/s) = 6.91014 7.26524 7.08991
#
# Compressibility (1/GPa) = 0.01812498
#
# Stress axis : x y z
#
# Youngs Moduli (GPa) = 105.25499 76.41253 122.74930
#
# Poissons Ratio (x) = 0.22964 0.36680
# Poissons Ratio (y) = 0.31632 0.03819
# Poissons Ratio (z) = 0.31453 0.02377
#
# Static dielectric constant tensor:
#      x y z
#    x 1.767370 0.000000 0.000000 
#    y 0.000000 1.819360 0.000000 
#    z 0.000000 0.000000 1.726110 
# 
# From -- ./inp_files/21130.got.cif
#   From: 2010.05.17/outbox.cif.g08.bks.cpg/sg52_11_cif.got.tgz:21130.got - 2010.06.03 12:15:38.
