data_PCOD9413949
_publ_section_title
;
Structure prediction by ZEFSAII (Michael W. Deem and Ramdas Pophale) SiO2 
 PCOD9413949
Probable space group: P N N A
;
_chemical_formula_sum "Si O2"
_cell_formula_units_Z 40
_cell_length_a 11.995002
_cell_length_b 17.462386
_cell_length_c 7.241215
_cell_angle_alpha 90.000000
_cell_angle_beta 90.000000
_cell_angle_gamma 90.000000
_cell_volume 1516.754706
_symmetry_space_group_name_H-M "P N N A"
_symmetry_group_IT_number 52
_symmetry_cell_setting 'orthorhombic'
loop_
_space_group_symop_operation_xyz
x,y,z
1/2-x,-y,z
x,1/2-y,1/2-z
1/2-x,1/2+y,1/2-z
-x,-y,-z
1/2+x,y,-z
-x,1/2+y,1/2+z
1/2+x,1/2-y,1/2+z
loop_
_atom_site_type_symbol
_atom_site_label
_atom_site_fract_x
_atom_site_fract_y
_atom_site_fract_z
Si Si1 0.561761 0.348635 0.892793
Si Si2 0.616364 0.826223 0.691495
Si Si3 0.401001 0.009506 0.255050
Si Si4 0.405976 0.803204 0.969681
Si Si5 0.849729 0.953297 0.157585
O O1 0.602592 0.435945 0.887640
O O2 0.630236 0.285033 0.010184
O O3 0.561968 0.327510 0.677234
O O4 0.442155 0.333797 0.990771
O O5 0.684951 0.750000 0.750000
O O6 0.665190 0.911253 0.712821
O O7 0.517275 0.815975 0.846063
O O8 0.370383 0.985986 0.047927
O O9 0.531564 0.033214 0.252623
O O10 0.322809 0.864327 0.880392
O O11 0.750000 0.000000 0.246354
#
# Coordination Sequence:
#
# PCOD9413949 Si02
#       5
#     8   8   8   8   8
#     4   9  15  27  49  76 100 130 176 215 253 318
#     4   9  16  27  47  75 103 135 170 219 262 311
#     4   9  17  29  50  79  98 140 185 208 268 321
#     4   8  16  28  46  77  96 138 171 204 270 318
#     4   9  17  31  52  78 107 138 175 223 263 318
#
# _framework density 26.372093
#
# number of rings (size 3 to 8) (size 9 to 14) (size 15 to 20)
#    0.000    3.200    0.000    1.800    0.000    0.000 
#    0.000    0.000    8.800   30.000  197.600    0.000 
#    0.000    0.000    0.000    0.000    0.000    0.000 
#
# Total GULP energy -223091.036975 kJ/mol
# GULP energy per Si atom -5577.275924 kJ/mol
# Density = 2.631207 g / cm^3
# Si number density = 26.372093 Si / 1000 Ang^3
#
#
#
# Elastic Constant Matrix: (Units=GPa)
#
#
# Indices 1 2 3 4 5 6 
#
# 1 80.1361 21.7666 29.7912 0.0000 0.0000 0.0000
# 2 21.7666 262.3267 39.2338 0.0000 0.0000 0.0000
# 3 29.7912 39.2338 121.9221 0.0000 0.0000 0.0000
# 4 0.0000 0.0000 0.0000 32.2887 0.0000 0.0000
# 5 0.0000 0.0000 0.0000 0.0000 20.9150 0.0000
# 6 0.0000 0.0000 0.0000 0.0000 0.0000 0.9899
#
#
#
# Elastic Compliance Matrix: (Units=1/GPa)
#
#
# Indices 1 2 3 4 5 6 
#
# 1 0.013838 -0.000675 -0.003164 0.000000 0.000000 0.000000
# 2 -0.000675 0.004038 -0.001134 0.000000 0.000000 0.000000
# 3 -0.003164 -0.001134 0.009340 0.000000 0.000000 0.000000
# 4 0.000000 0.000000 0.000000 0.030971 0.000000 0.000000
# 5 0.000000 0.000000 0.000000 0.000000 0.047812 0.000000
# 6 0.000000 0.000000 0.000000 0.000000 0.000000 1.010238
#
#
# Mechanical properties :
#
#
# Convention : Reuss Voigt Hill
#
# Bulk Modulus (GPa) = 57.90661 71.77425 64.84043
# Shear Modulus (GPa) = 4.41719 35.74493 20.08106
#
# Velocity S-wave (km/s) = 1.29560 3.68558 2.76243
# Velocity P-wave (km/s) = 4.92375 6.73694 5.90041
#
# Compressibility (1/GPa) = 0.01726919
#
# Stress axis : x y z
#
# Youngs Moduli (GPa) = 72.26264 247.66524 107.06472
#
# Poissons Ratio (x) = 0.16718 0.33877
# Poissons Ratio (y) = 0.04878 0.12145
# Poissons Ratio (z) = 0.22865 0.28095
#
# Static dielectric constant tensor:
#      x y z
#    x 2.099830 0.000000 0.000000 
#    y 0.000000 2.340020 0.000000 
#    z 0.000000 0.000000 2.188000 
# 
# From -- ./inp_files/10222.got.cif
#   From: 2010.05.17/outbox.cif.g08.bks.cpg/sg52_6_cif.got.tgz:10222.got - 2010.06.03 12:15:38.
