data_PCOD9413089
_publ_section_title
;
Structure prediction by ZEFSAII (Michael W. Deem and Ramdas Pophale) SiO2 
 PCOD9413089
Probable space group: P N N A
;
_chemical_formula_sum "Si O2"
_cell_formula_units_Z 32
_cell_length_a 9.741354
_cell_length_b 5.338399
_cell_length_c 28.124034
_cell_angle_alpha 90.000000
_cell_angle_beta 90.000000
_cell_angle_gamma 90.000000
_cell_volume 1462.540734
_symmetry_space_group_name_H-M "P N N A"
_symmetry_group_IT_number 52
_symmetry_cell_setting 'orthorhombic'
loop_
_space_group_symop_operation_xyz
x,y,z
1/2-x,-y,z
x,1/2-y,1/2-z
1/2-x,1/2+y,1/2-z
-x,-y,-z
1/2+x,y,-z
-x,1/2+y,1/2+z
1/2+x,1/2-y,1/2+z
loop_
_atom_site_type_symbol
_atom_site_label
_atom_site_fract_x
_atom_site_fract_y
_atom_site_fract_z
Si Si1 0.373638 0.165909 0.515127
Si Si2 0.413820 0.470667 0.606021
Si Si3 0.844605 0.250958 0.197962
Si Si4 0.327254 0.246067 0.092921
O O1 0.433542 0.352210 0.554144
O O2 0.320047 0.264920 0.464735
O O3 0.250000 0.000000 0.536722
O O4 0.500000 0.000000 0.500000
O O5 0.250000 0.500000 0.606403
O O6 0.438437 0.294421 0.651780
O O7 0.513626 0.709808 0.607889
O O8 0.750000 0.500000 0.192009
O O9 0.914270 0.250000 0.250000
O O10 0.750000 0.000000 0.200813
O O11 0.250000 0.500000 0.106950
O O12 0.250000 0.000000 0.111374
#
# Coordination Sequence:
#
# PCOD9413089 Si02
#       4
#     8   8   8   8
#     4  11  21  35  56  85 121 161 206 253 298 357
#     4  11  21  36  62  90 119 163 212 254 302 375
#     4   9  19  35  57  90 126 152 188 253 320 366
#     4  11  24  40  55  81 124 164 198 246 304 358
#
# _framework density 21.879731
#
# number of rings (size 3 to 8) (size 9 to 14) (size 15 to 20)
#    0.000    1.500    0.000    6.750    0.000    6.000 
#    0.000    0.000    0.000    0.000    0.000   21.000 
#    0.000    2.000    0.000    0.000    0.000    0.000 
#
# Total GULP energy -178550.028437 kJ/mol
# GULP energy per Si atom -5579.688389 kJ/mol
# Density = 2.182993 g / cm^3
# Si number density = 21.879731 Si / 1000 Ang^3
#
#
#
# Elastic Constant Matrix: (Units=GPa)
#
#
# Indices 1 2 3 4 5 6 
#
# 1 122.4783 70.8224 15.7424 0.0000 0.0000 0.0000
# 2 70.8224 149.0304 22.9803 0.0000 0.0000 0.0000
# 3 15.7424 22.9803 80.8781 0.0000 0.0000 0.0000
# 4 0.0000 0.0000 0.0000 27.3903 0.0000 0.0000
# 5 0.0000 0.0000 0.0000 0.0000 1.3998 0.0000
# 6 0.0000 0.0000 0.0000 0.0000 0.0000 45.5528
#
#
#
# Elastic Compliance Matrix: (Units=1/GPa)
#
#
# Indices 1 2 3 4 5 6 
#
# 1 0.011297 -0.005260 -0.000704 0.000000 0.000000 0.000000
# 2 -0.005260 0.009467 -0.001666 0.000000 0.000000 0.000000
# 3 -0.000704 -0.001666 0.012975 0.000000 0.000000 0.000000
# 4 0.000000 0.000000 0.000000 0.036509 0.000000 0.000000
# 5 0.000000 0.000000 0.000000 0.000000 0.714403 0.000000
# 6 0.000000 0.000000 0.000000 0.000000 0.000000 0.021953
#
#
# Mechanical properties :
#
#
# Convention : Reuss Voigt Hill
#
# Bulk Modulus (GPa) = 54.11931 63.49745 58.80838
# Shear Modulus (GPa) = 6.03848 31.05804 18.54826
#
# Velocity S-wave (km/s) = 1.66308 3.77170 2.91475
# Velocity P-wave (km/s) = 5.33633 6.93194 6.18580
#
# Compressibility (1/GPa) = 0.01847769
#
# Stress axis : x y z
#
# Youngs Moduli (GPa) = 88.52145 105.63563 77.07284
#
# Poissons Ratio (x) = 0.55562 0.05429
# Poissons Ratio (y) = 0.46561 0.12840
# Poissons Ratio (z) = 0.06235 0.17599
#
# Static dielectric constant tensor:
#      x y z
#    x 1.756590 0.000000 0.000000 
#    y 0.000000 1.879340 0.000000 
#    z 0.000000 0.000000 1.964300 
# 
# From -- ./inp_files/44003.got.cif
#   From: 2010.05.17/outbox.cif.g08.bks.cpg/sg52_23_cif.got.tgz:44003.got - 2010.06.03 12:15:38.
