data_PCOD9413430
_publ_section_title
;
Structure prediction by ZEFSAII (Michael W. Deem and Ramdas Pophale) SiO2 
 PCOD9413430
Probable space group: P N N A
;
_chemical_formula_sum "Si O2"
_cell_formula_units_Z 64
_cell_length_a 21.851354
_cell_length_b 13.940862
_cell_length_c 8.135420
_cell_angle_alpha 90.000000
_cell_angle_beta 90.000000
_cell_angle_gamma 90.000000
_cell_volume 2478.266234
_symmetry_space_group_name_H-M "P N N A"
_symmetry_group_IT_number 52
_symmetry_cell_setting 'orthorhombic'
loop_
_space_group_symop_operation_xyz
x,y,z
1/2-x,-y,z
x,1/2-y,1/2-z
1/2-x,1/2+y,1/2-z
-x,-y,-z
1/2+x,y,-z
-x,1/2+y,1/2+z
1/2+x,1/2-y,1/2+z
loop_
_atom_site_type_symbol
_atom_site_label
_atom_site_fract_x
_atom_site_fract_y
_atom_site_fract_z
Si Si1 0.078287 0.152231 0.835403
Si Si2 0.791875 0.795339 0.018793
Si Si3 0.252832 0.614504 0.176676
Si Si4 0.630936 0.838144 0.530289
Si Si5 0.094522 0.879491 0.979142
Si Si6 0.299209 0.417541 0.714424
Si Si7 0.972705 0.448539 0.807801
Si Si8 0.473732 0.855170 0.197793
O O1 0.053509 0.250000 0.750000
O O2 0.044594 0.074104 0.719251
O O3 0.148766 0.175532 0.876060
O O4 0.054276 0.130569 0.017851
O O5 0.785437 0.683841 0.960331
O O6 0.784406 0.855855 0.848708
O O7 0.750000 0.000000 0.245572
O O8 0.736261 0.829841 0.130997
O O9 0.250000 0.500000 0.151179
O O10 0.181319 0.644319 0.172940
O O11 0.619074 0.726296 0.514080
O O12 0.664576 0.884312 0.374173
O O13 0.565727 0.887060 0.564197
O O14 0.149178 0.947043 0.918161
O O15 0.045816 0.863051 0.834293
O O16 0.059012 0.919231 0.135192
O O17 0.958128 0.560733 0.823327
O O18 0.454701 0.750000 0.250000
#
# Coordination Sequence:
#
# PCOD9413430 Si02
#       8
#     8   8   8   8   8   8   8   8
#     4  11  26  48  75 109 160 207 263 325 414 480
#     4  11  27  47  76 115 161 219 257 331 406 486
#     4  11  26  48  77 119 164 215 274 328 397 484
#     4  12  25  47  80 113 151 202 277 340 389 476
#     4  11  23  48  78 109 150 206 265 328 395 483
#     4  12  27  45  75 116 159 203 259 326 411 471
#     4  11  26  49  82 112 145 210 279 329 403 489
#     4  11  26  49  76 113 154 204 263 337 403 476
#
# _framework density 25.824504999999998
#
# number of rings (size 3 to 8) (size 9 to 14) (size 15 to 20)
#    0.000    0.750    1.250    6.000   10.500    0.000 
#    2.250    3.750    0.000    0.000    0.000    0.000 
#    0.000    0.000    0.000    0.000    0.000    0.000 
#
# Total GULP energy -358485.594989 kJ/mol
# GULP energy per Si atom -5601.337422 kJ/mol
# Density = 2.576573 g / cm^3
# Si number density = 25.824505 Si / 1000 Ang^3
#
#
#
# Elastic Constant Matrix: (Units=GPa)
#
#
# Indices 1 2 3 4 5 6 
#
# 1 140.0773 36.4601 45.0257 0.0000 0.0000 0.0000
# 2 36.4601 188.1390 40.4679 0.0000 0.0000 0.0000
# 3 45.0257 40.4679 123.1094 0.0000 0.0000 0.0000
# 4 0.0000 0.0000 0.0000 33.2490 0.0000 0.0000
# 5 0.0000 0.0000 0.0000 0.0000 -90.7201 0.0000
# 6 0.0000 0.0000 0.0000 0.0000 0.0000 6.8706
#
#
#
# Elastic Compliance Matrix: (Units=1/GPa)
#
#
# Indices 1 2 3 4 5 6 
#
# 1 0.008269 -0.001024 -0.002688 0.000000 0.000000 0.000000
# 2 -0.001024 0.005847 -0.001547 0.000000 0.000000 0.000000
# 3 -0.002688 -0.001547 0.009614 0.000000 0.000000 0.000000
# 4 0.000000 0.000000 0.000000 0.030076 0.000000 0.000000
# 5 0.000000 0.000000 0.000000 0.000000 -0.011023 0.000000
# 6 0.000000 0.000000 0.000000 0.000000 0.000000 0.145549
#
#
# Mechanical properties :
#
#
# Convention : Reuss Voigt Hill
#
# Bulk Modulus (GPa) = 75.68990 77.24812 76.46901
# Shear Modulus (GPa) = 24.59966 11.83803 18.21884
#
# Velocity S-wave (km/s) = 3.08972 2.14336 2.65898
# Velocity P-wave (km/s) = 6.48856 6.00857 6.25318
#
# Compressibility (1/GPa) = 0.01321180
#
# Stress axis : x y z
#
# Youngs Moduli (GPa) = 120.92651 171.04137 104.01038
#
# Poissons Ratio (x) = 0.17522 0.27955
# Poissons Ratio (y) = 0.12388 0.16092
# Poissons Ratio (z) = 0.32501 0.26463
#
# Static dielectric constant tensor:
#      x y z
#    x 2.039300 0.000000 0.000000 
#    y 0.000000 2.021460 0.000000 
#    z 0.000000 0.000000 2.048840 
# 
# From -- ./inp_files/15720.got.cif
#   From: 2010.05.17/outbox.cif.g08.bks.cpg/sg52_8_cif.got.tgz:15720.got - 2010.06.03 12:15:38.
