data_PCOD9413438
_publ_section_title
;
Structure prediction by ZEFSAII (Michael W. Deem and Ramdas Pophale) SiO2 
 PCOD9413438
Probable space group: P N N A
;
_chemical_formula_sum "Si O2"
_cell_formula_units_Z 44
_cell_length_a 8.038686
_cell_length_b 16.563017
_cell_length_c 17.315471
_cell_angle_alpha 90.000000
_cell_angle_beta 90.000000
_cell_angle_gamma 90.000000
_cell_volume 2305.466531
_symmetry_space_group_name_H-M "P N N A"
_symmetry_group_IT_number 52
_symmetry_cell_setting 'orthorhombic'
loop_
_space_group_symop_operation_xyz
x,y,z
1/2-x,-y,z
x,1/2-y,1/2-z
1/2-x,1/2+y,1/2-z
-x,-y,-z
1/2+x,y,-z
-x,1/2+y,1/2+z
1/2+x,1/2-y,1/2+z
loop_
_atom_site_type_symbol
_atom_site_label
_atom_site_fract_x
_atom_site_fract_y
_atom_site_fract_z
Si Si1 0.458371 0.583426 0.547827
Si Si2 0.364623 0.062745 0.530594
Si Si3 0.796694 0.831861 0.906361
Si Si4 0.250000 0.000000 0.824018
Si Si5 0.349966 0.855111 0.396044
Si Si6 0.900586 0.562293 0.731834
O O1 0.500000 0.500000 0.500000
O O2 0.621233 0.622249 0.585500
O O3 0.389614 0.645983 0.485452
O O4 0.325381 0.565193 0.615074
O O5 0.266701 0.099534 0.458049
O O6 0.460725 0.133633 0.573728
O O7 0.250000 0.000000 0.578476
O O8 0.500000 0.000000 0.500000
O O9 0.790558 0.736622 0.893452
O O10 0.892920 0.871345 0.835165
O O11 0.087384 0.973997 0.774843
O O12 0.354462 0.898690 0.313741
O O13 0.750000 0.500000 0.715101
#
# Coordination Sequence:
#
# PCOD9413438 Si02
#       6
#     8   8   8   4   8   8
#     4  12  20  39  68  99 132 179 229 271 330 423
#     4   9  19  40  62  86 115 169 228 266 316 400
#     4  12  22  39  65  98 140 172 216 288 349 394
#     4  12  24  40  70 106 124 176 242 268 328 410
#     4  11  24  40  65  97 133 172 221 290 349 392
#     4  12  24  43  67  94 135 183 222 278 341 416
#
# _framework density 19.085073999999999
#
# number of rings (size 3 to 8) (size 9 to 14) (size 15 to 20)
#    0.000    0.727    5.455    3.273    1.273    0.000 
#    0.000    0.000    4.000    0.000    0.000    0.000 
#    0.000    0.000    0.000    0.000    0.000    0.000 
#
# Total GULP energy -245369.161078 kJ/mol
# GULP energy per Si atom -5576.571843 kJ/mol
# Density = 1.904164 g / cm^3
# Si number density = 19.085074 Si / 1000 Ang^3
#
#
#
# Elastic Constant Matrix: (Units=GPa)
#
#
# Indices 1 2 3 4 5 6 
#
# 1 108.7284 46.0415 21.8124 0.0000 0.0000 0.0000
# 2 46.0415 116.5444 35.1528 0.0000 0.0000 0.0000
# 3 21.8124 35.1528 82.2237 0.0000 0.0000 0.0000
# 4 0.0000 0.0000 0.0000 23.4652 0.0000 0.0000
# 5 0.0000 0.0000 0.0000 0.0000 32.5790 0.0000
# 6 0.0000 0.0000 0.0000 0.0000 0.0000 29.0292
#
#
#
# Elastic Compliance Matrix: (Units=1/GPa)
#
#
# Indices 1 2 3 4 5 6 
#
# 1 0.011153 -0.004034 -0.001234 0.000000 0.000000 0.000000
# 2 -0.004034 0.011310 -0.003765 0.000000 0.000000 0.000000
# 3 -0.001234 -0.003765 0.014099 0.000000 0.000000 0.000000
# 4 0.000000 0.000000 0.000000 0.042616 0.000000 0.000000
# 5 0.000000 0.000000 0.000000 0.000000 0.030695 0.000000
# 6 0.000000 0.000000 0.000000 0.000000 0.000000 0.034448
#
#
# Mechanical properties :
#
#
# Convention : Reuss Voigt Hill
#
# Bulk Modulus (GPa) = 54.06686 57.05665 55.56175
# Shear Modulus (GPa) = 29.66448 30.64733 30.15591
#
# Velocity S-wave (km/s) = 3.94678 4.01162 3.97933
# Velocity P-wave (km/s) = 7.01144 7.17066 7.09150
#
# Compressibility (1/GPa) = 0.01849562
#
# Stress axis : x y z
#
# Youngs Moduli (GPa) = 89.66247 88.42018 70.92697
#
# Poissons Ratio (x) = 0.35667 0.08753
# Poissons Ratio (y) = 0.36168 0.26705
# Poissons Ratio (z) = 0.11065 0.33291
#
# Static dielectric constant tensor:
#      x y z
#    x 1.665270 0.000000 0.000000 
#    y 0.000000 1.652440 0.000000 
#    z 0.000000 0.000000 1.656830 
# 
# From -- ./inp_files/31183.got.cif
#   From: 2010.05.17/outbox.cif.g08.bks.cpg/sg52_16_cif.got.tgz:31183.got - 2010.06.03 12:15:38.
