data_PCOD9413409
_publ_section_title
;
Structure prediction by ZEFSAII (Michael W. Deem and Ramdas Pophale) SiO2 
 PCOD9413409
Probable space group: P N N A
;
_chemical_formula_sum "Si O2"
_cell_formula_units_Z 32
_cell_length_a 9.681563
_cell_length_b 13.240785
_cell_length_c 10.143202
_cell_angle_alpha 90.000000
_cell_angle_beta 90.000000
_cell_angle_gamma 90.000000
_cell_volume 1300.272220
_symmetry_space_group_name_H-M "P N N A"
_symmetry_group_IT_number 52
_symmetry_cell_setting 'orthorhombic'
loop_
_space_group_symop_operation_xyz
x,y,z
1/2-x,-y,z
x,1/2-y,1/2-z
1/2-x,1/2+y,1/2-z
-x,-y,-z
1/2+x,y,-z
-x,1/2+y,1/2+z
1/2+x,1/2-y,1/2+z
loop_
_atom_site_type_symbol
_atom_site_label
_atom_site_fract_x
_atom_site_fract_y
_atom_site_fract_z
Si Si1 0.672859 0.750000 0.750000
Si Si2 0.657628 0.418970 0.371518
Si Si3 0.472855 0.917038 0.612650
Si Si4 0.356445 0.250000 0.750000
Si Si5 0.092772 0.242340 0.049120
O O1 0.585954 0.838549 0.676510
O O2 0.779050 0.789557 0.860913
O O3 0.750000 0.500000 0.445441
O O4 0.586107 0.468257 0.244405
O O5 0.760063 0.335691 0.310493
O O6 0.555439 0.355159 0.462282
O O7 0.369649 0.837123 0.542919
O O8 0.500000 0.000000 0.500000
O O9 0.463401 0.279165 0.865767
#
# Coordination Sequence:
#
# PCOD9413409 Si02
#       5
#     4   8   8   4   8
#     4  11  25  48  74 108 151 197 254 320 390 463
#     4  12  25  43  72 104 145 197 245 314 383 452
#     4  12  25  45  76 111 150 201 260 315 387 469
#     4  11  23  46  70 102 145 191 246 306 378 451
#     4  11  24  46  72 100 154 198 242 326 378 450
#
# _framework density 24.610232
#
# number of rings (size 3 to 8) (size 9 to 14) (size 15 to 20)
#    0.000    0.500    5.000    3.000    3.500    1.000 
#    9.000    0.000    0.000    0.000    0.000    0.000 
#    0.000    0.000    0.000    0.000    0.000    0.000 
#
# Total GULP energy -178750.143536 kJ/mol
# GULP energy per Si atom -5585.941985 kJ/mol
# Density = 2.455422 g / cm^3
# Si number density = 24.610232 Si / 1000 Ang^3
#
#
#
# Elastic Constant Matrix: (Units=GPa)
#
#
# Indices 1 2 3 4 5 6 
#
# 1 76.3954 11.6622 25.0370 0.0000 0.0000 0.0000
# 2 11.6622 96.9853 38.2279 0.0000 0.0000 0.0000
# 3 25.0370 38.2279 110.8506 0.0000 0.0000 0.0000
# 4 0.0000 0.0000 0.0000 55.7853 0.0000 0.0000
# 5 0.0000 0.0000 0.0000 0.0000 47.1936 0.0000
# 6 0.0000 0.0000 0.0000 0.0000 0.0000 32.3781
#
#
#
# Elastic Compliance Matrix: (Units=1/GPa)
#
#
# Indices 1 2 3 4 5 6 
#
# 1 0.014158 -0.000512 -0.003021 0.000000 0.000000 0.000000
# 2 -0.000512 0.011951 -0.004006 0.000000 0.000000 0.000000
# 3 -0.003021 -0.004006 0.011085 0.000000 0.000000 0.000000
# 4 0.000000 0.000000 0.000000 0.017926 0.000000 0.000000
# 5 0.000000 0.000000 0.000000 0.000000 0.021189 0.000000
# 6 0.000000 0.000000 0.000000 0.000000 0.000000 0.030885
#
#
# Mechanical properties :
#
#
# Convention : Reuss Voigt Hill
#
# Bulk Modulus (GPa) = 45.21478 48.23173 46.72325
# Shear Modulus (GPa) = 38.56690 41.02501 39.79596
#
# Velocity S-wave (km/s) = 3.96297 4.08731 4.02562
# Velocity P-wave (km/s) = 6.27315 6.47422 6.37448
#
# Compressibility (1/GPa) = 0.02211666
#
# Stress axis : x y z
#
# Youngs Moduli (GPa) = 70.63109 83.67247 90.21147
#
# Poissons Ratio (x) = 0.04280 0.27256
# Poissons Ratio (y) = 0.03613 0.36139
# Poissons Ratio (z) = 0.21340 0.33519
#
# Static dielectric constant tensor:
#      x y z
#    x 1.958190 0.000000 0.000000 
#    y 0.000000 1.924440 0.000000 
#    z 0.000000 0.000000 2.085630 
# 
# From -- ./inp_files/8365.got.cif
#   From: 2010.05.17/outbox.cif.g08.bks.cpg/sg52_5_cif.got.tgz:8365.got - 2010.06.03 12:15:38.
