data_PCOD9413930
_publ_section_title
;
Structure prediction by ZEFSAII (Michael W. Deem and Ramdas Pophale) SiO2 
 PCOD9413930
Probable space group: P N N A
;
_chemical_formula_sum "Si O2"
_cell_formula_units_Z 16
_cell_length_a 5.340919
_cell_length_b 7.388333
_cell_length_c 13.909795
_cell_angle_alpha 90.000000
_cell_angle_beta 90.000000
_cell_angle_gamma 90.000000
_cell_volume 548.887300
_symmetry_space_group_name_H-M "P N N A"
_symmetry_group_IT_number 52
_symmetry_cell_setting 'orthorhombic'
loop_
_space_group_symop_operation_xyz
x,y,z
1/2-x,-y,z
x,1/2-y,1/2-z
1/2-x,1/2+y,1/2-z
-x,-y,-z
1/2+x,y,-z
-x,1/2+y,1/2+z
1/2+x,1/2-y,1/2+z
loop_
_atom_site_type_symbol
_atom_site_label
_atom_site_fract_x
_atom_site_fract_y
_atom_site_fract_z
Si Si1 0.250000 0.000000 0.376495
Si Si2 0.552631 0.872193 0.909349
Si Si3 0.250000 0.500000 0.751044
O O1 0.177927 0.818489 0.434298
O O2 0.504713 0.964707 0.316010
O O3 0.750000 0.000000 0.854698
O O4 0.333102 0.851076 0.831617
O O5 0.500000 0.000000 0.000000
#
# Coordination Sequence:
#
# PCOD9413930 Si02
#       3
#     4   8   4
#     4  12  32  51  91 124 172 238 290 366 446 518
#     4  12  29  53  85 129 177 229 293 364 440 532
#     4  12  28  53  83 132 172 228 300 360 440 530
#
# _framework density 29.149881000000001
#
# number of rings (size 3 to 8) (size 9 to 14) (size 15 to 20)
#    0.000    0.000    5.000    1.500   14.000    2.000 
#    0.000    0.000    0.000    0.000    0.000    0.000 
#    0.000    0.000    0.000    0.000    0.000    0.000 
#
# Total GULP energy -89456.726055 kJ/mol
# GULP energy per Si atom -5591.045378 kJ/mol
# Density = 2.908353 g / cm^3
# Si number density = 29.149881 Si / 1000 Ang^3
#
#
#
# Elastic Constant Matrix: (Units=GPa)
#
#
# Indices 1 2 3 4 5 6 
#
# 1 220.9617 73.3255 88.7314 0.0000 0.0000 0.0000
# 2 73.3255 270.1607 85.0934 0.0000 0.0000 0.0000
# 3 88.7314 85.0934 179.3282 0.0000 0.0000 0.0000
# 4 0.0000 0.0000 0.0000 43.7942 0.0000 0.0000
# 5 0.0000 0.0000 0.0000 0.0000 41.2954 0.0000
# 6 0.0000 0.0000 0.0000 0.0000 0.0000 72.5418
#
#
#
# Elastic Compliance Matrix: (Units=1/GPa)
#
#
# Indices 1 2 3 4 5 6 
#
# 1 0.005787 -0.000786 -0.002490 0.000000 0.000000 0.000000
# 2 -0.000786 0.004459 -0.001727 0.000000 0.000000 0.000000
# 3 -0.002490 -0.001727 0.007628 0.000000 0.000000 0.000000
# 4 0.000000 0.000000 0.000000 0.022834 0.000000 0.000000
# 5 0.000000 0.000000 0.000000 0.000000 0.024216 0.000000
# 6 0.000000 0.000000 0.000000 0.000000 0.000000 0.013785
#
#
# Mechanical properties :
#
#
# Convention : Reuss Voigt Hill
#
# Bulk Modulus (GPa) = 127.11279 129.41679 128.26479
# Shear Modulus (GPa) = 54.74262 59.74629 57.24446
#
# Velocity S-wave (km/s) = 4.33826 4.53219 4.43628
# Velocity P-wave (km/s) = 8.29429 8.47827 8.38678
#
# Compressibility (1/GPa) = 0.00786703
#
# Stress axis : x y z
#
# Youngs Moduli (GPa) = 172.81540 224.27742 131.09937
#
# Poissons Ratio (x) = 0.17633 0.32645
# Poissons Ratio (y) = 0.13587 0.22637
# Poissons Ratio (z) = 0.43033 0.38726
#
# Static dielectric constant tensor:
#      x y z
#    x 2.686720 0.000000 0.000000 
#    y 0.000000 2.734000 0.000000 
#    z 0.000000 0.000000 2.274870 
# 
# From -- ./inp_files/23263.got.cif
#   From: 2010.05.17/outbox.cif.g08.bks.cpg/sg52_12_cif.got.tgz:23263.got - 2010.06.03 12:15:38.
