data_PCOD9413483
_publ_section_title
;
Structure prediction by ZEFSAII (Michael W. Deem and Ramdas Pophale) SiO2 
 PCOD9413483
Probable space group: P N N A
;
_chemical_formula_sum "Si O2"
_cell_formula_units_Z 48
_cell_length_a 10.887962
_cell_length_b 12.500001
_cell_length_c 14.388799
_cell_angle_alpha 90.000000
_cell_angle_beta 90.000000
_cell_angle_gamma 90.000000
_cell_volume 1958.308866
_symmetry_space_group_name_H-M "P N N A"
_symmetry_group_IT_number 52
_symmetry_cell_setting 'orthorhombic'
loop_
_space_group_symop_operation_xyz
x,y,z
1/2-x,-y,z
x,1/2-y,1/2-z
1/2-x,1/2+y,1/2-z
-x,-y,-z
1/2+x,y,-z
-x,1/2+y,1/2+z
1/2+x,1/2-y,1/2+z
loop_
_atom_site_type_symbol
_atom_site_label
_atom_site_fract_x
_atom_site_fract_y
_atom_site_fract_z
Si Si1 0.093569 0.385648 0.406281
Si Si2 0.853254 0.090588 0.447065
Si Si3 0.520232 0.562535 0.855598
Si Si4 0.853751 0.393254 0.663323
Si Si5 0.588634 0.277182 0.395018
Si Si6 0.663641 0.692971 0.346857
O O1 0.119859 0.512924 0.412812
O O2 0.213307 0.355496 0.344074
O O3 0.096010 0.310777 0.497065
O O4 0.955787 0.375867 0.367515
O O5 0.903495 0.084404 0.551128
O O6 0.823637 0.212666 0.423719
O O7 0.750000 0.000000 0.441547
O O8 0.956688 0.051574 0.373870
O O9 0.604471 0.565214 0.764559
O O10 0.413599 0.653831 0.861016
O O11 0.952896 0.305885 0.639213
O O12 0.696258 0.348643 0.348126
O O13 0.643347 0.750000 0.250000
#
# Coordination Sequence:
#
# PCOD9413483 Si02
#       6
#     8   8   8   8   8   8
#     4  11  26  47  69 103 144 189 244 296 371 436
#     4  11  24  43  73 103 148 189 237 302 374 437
#     4  11  24  45  71 107 144 190 241 302 368 439
#     4  11  26  47  73 105 141 192 243 299 365 442
#     4  12  24  46  71 103 142 189 237 302 364 437
#     4  12  25  45  71 106 140 186 243 299 362 437
#
# _framework density 24.510946000000001
#
# number of rings (size 3 to 8) (size 9 to 14) (size 15 to 20)
#    0.000    0.667    3.333    4.000    2.333    3.333 
#    0.000    0.000    0.000    0.000    0.000    0.000 
#    0.000    0.000    0.000    0.000    0.000    0.000 
#
# Total GULP energy -268066.965529 kJ/mol
# GULP energy per Si atom -5584.728449 kJ/mol
# Density = 2.445516 g / cm^3
# Si number density = 24.510946 Si / 1000 Ang^3
#
#
#
# Elastic Constant Matrix: (Units=GPa)
#
#
# Indices 1 2 3 4 5 6 
#
# 1 133.8330 26.9290 15.4819 0.0000 0.0000 0.0000
# 2 26.9290 38.4542 -5.6650 0.0000 0.0000 0.0000
# 3 15.4819 -5.6650 101.1022 0.0000 0.0000 0.0000
# 4 0.0000 0.0000 0.0000 23.6941 0.0000 0.0000
# 5 0.0000 0.0000 0.0000 0.0000 25.1368 0.0000
# 6 0.0000 0.0000 0.0000 0.0000 0.0000 19.2622
#
#
#
# Elastic Compliance Matrix: (Units=1/GPa)
#
#
# Indices 1 2 3 4 5 6 
#
# 1 0.008993 -0.006554 -0.001744 0.000000 0.000000 0.000000
# 2 -0.006554 0.030999 0.002741 0.000000 0.000000 0.000000
# 3 -0.001744 0.002741 0.010312 0.000000 0.000000 0.000000
# 4 0.000000 0.000000 0.000000 0.042205 0.000000 0.000000
# 5 0.000000 0.000000 0.000000 0.000000 0.039782 0.000000
# 6 0.000000 0.000000 0.000000 0.000000 0.000000 0.051915
#
#
# Mechanical properties :
#
#
# Convention : Reuss Voigt Hill
#
# Bulk Modulus (GPa) = 25.51879 38.54235 32.03057
# Shear Modulus (GPa) = 23.99421 29.39484 26.69452
#
# Velocity S-wave (km/s) = 3.13216 3.46678 3.30371
# Velocity P-wave (km/s) = 4.84916 5.63768 5.25822
#
# Compressibility (1/GPa) = 0.03918681
#
# Stress axis : x y z
#
# Youngs Moduli (GPa) = 111.20230 32.25940 96.97765
#
# Poissons Ratio (x) = 0.21144 0.16916
# Poissons Ratio (y) = 0.72886 -0.26578
# Poissons Ratio (z) = 0.19397 -0.08841
#
# Static dielectric constant tensor:
#      x y z
#    x 2.059650 0.000000 0.000000 
#    y 0.000000 2.001000 0.000000 
#    z 0.000000 0.000000 1.927240 
# 
# From -- ./inp_files/26074.got.cif
#   From: 2010.05.17/outbox.cif.g08.bks.cpg/sg52_14_cif.got.tgz:26074.got - 2010.06.03 12:15:38.
