data_PCOD9413583
_publ_section_title
;
Structure prediction by ZEFSAII (Michael W. Deem and Ramdas Pophale) SiO2 
 PCOD9413583
Probable space group: P N N A
;
_chemical_formula_sum "Si O2"
_cell_formula_units_Z 48
_cell_length_a 29.222725
_cell_length_b 8.509649
_cell_length_c 8.730063
_cell_angle_alpha 90.000000
_cell_angle_beta 90.000000
_cell_angle_gamma 90.000000
_cell_volume 2170.949574
_symmetry_space_group_name_H-M "P N N A"
_symmetry_group_IT_number 52
_symmetry_cell_setting 'orthorhombic'
loop_
_space_group_symop_operation_xyz
x,y,z
1/2-x,-y,z
x,1/2-y,1/2-z
1/2-x,1/2+y,1/2-z
-x,-y,-z
1/2+x,y,-z
-x,1/2+y,1/2+z
1/2+x,1/2-y,1/2+z
loop_
_atom_site_type_symbol
_atom_site_label
_atom_site_fract_x
_atom_site_fract_y
_atom_site_fract_z
Si Si1 0.782981 0.863364 0.631018
Si Si2 0.639887 0.923578 0.308790
Si Si3 0.361231 0.080424 0.323387
Si Si4 0.049831 0.075808 0.818707
Si Si5 0.785541 0.630761 0.368076
Si Si6 0.450313 0.574638 0.315978
O O1 0.757228 0.750000 0.750000
O O2 0.801419 0.747650 0.501007
O O3 0.750000 0.000000 0.568690
O O4 0.823323 0.951474 0.720777
O O5 0.649945 0.750000 0.250000
O O6 0.642680 0.919830 0.492400
O O7 0.588855 0.972349 0.260094
O O8 0.674008 0.044729 0.223903
O O9 0.352530 0.250000 0.250000
O O10 0.410578 0.023056 0.266803
O O11 0.052248 0.250000 0.750000
O O12 0.058064 0.078536 0.001416
O O13 0.999679 0.004249 0.790494
O O14 0.750000 0.500000 0.424260
O O15 0.761103 0.750000 0.250000
O O16 0.450340 0.750000 0.250000
#
# Coordination Sequence:
#
# PCOD9413583 Si02
#       6
#     8   8   8   8   8   8
#     4  12  28  48  73 108 148 196 249 308 374 444
#     4  12  27  44  73 109 142 194 250 302 370 440
#     4  12  27  46  73 104 148 194 244 304 372 438
#     4  11  25  45  73 106 146 189 246 298 362 443
#     4  12  26  47  76 106 148 193 250 308 370 441
#     4  11  25  45  72 106 147 193 237 301 371 434
#
# _framework density 22.110142
#
# number of rings (size 3 to 8) (size 9 to 14) (size 15 to 20)
#    0.000    0.333    1.667    6.000    9.333    5.333 
#    0.000    0.000    0.000    0.000    0.000    0.000 
#    0.000    0.000    0.000    0.000    0.000    0.000 
#
# Total GULP energy -268803.236817 kJ/mol
# GULP energy per Si atom -5600.067434 kJ/mol
# Density = 2.205982 g / cm^3
# Si number density = 22.110142 Si / 1000 Ang^3
#
#
#
# Elastic Constant Matrix: (Units=GPa)
#
#
# Indices 1 2 3 4 5 6 
#
# 1 124.1355 61.5211 56.6589 0.0000 0.0000 0.0000
# 2 61.5211 174.5104 78.0073 0.0000 0.0000 0.0000
# 3 56.6589 78.0073 117.1145 0.0000 0.0000 0.0000
# 4 0.0000 0.0000 0.0000 52.5655 0.0000 0.0000
# 5 0.0000 0.0000 0.0000 0.0000 25.8374 0.0000
# 6 0.0000 0.0000 0.0000 0.0000 0.0000 33.8213
#
#
#
# Elastic Compliance Matrix: (Units=1/GPa)
#
#
# Indices 1 2 3 4 5 6 
#
# 1 0.010857 -0.002107 -0.003849 0.000000 0.000000 0.000000
# 2 -0.002107 0.008569 -0.004688 0.000000 0.000000 0.000000
# 3 -0.003849 -0.004688 0.013523 0.000000 0.000000 0.000000
# 4 0.000000 0.000000 0.000000 0.019024 0.000000 0.000000
# 5 0.000000 0.000000 0.000000 0.000000 0.038704 0.000000
# 6 0.000000 0.000000 0.000000 0.000000 0.000000 0.029567
#
#
# Mechanical properties :
#
#
# Convention : Reuss Voigt Hill
#
# Bulk Modulus (GPa) = 85.75761 89.79281 87.77521
# Shear Modulus (GPa) = 34.38355 37.08304 35.73329
#
# Velocity S-wave (km/s) = 3.94776 4.09980 4.02450
# Velocity P-wave (km/s) = 7.72337 7.94424 7.83458
#
# Compressibility (1/GPa) = 0.01166077
#
# Stress axis : x y z
#
# Youngs Moduli (GPa) = 92.10944 116.70417 73.94554
#
# Poissons Ratio (x) = 0.24587 0.28462
# Poissons Ratio (y) = 0.19406 0.34667
# Poissons Ratio (z) = 0.35453 0.54713
#
# Static dielectric constant tensor:
#      x y z
#    x 1.776450 0.000000 0.000000 
#    y 0.000000 1.749010 0.000000 
#    z 0.000000 0.000000 1.836490 
# 
# From -- ./inp_files/15510.got.cif
#   From: 2010.05.17/outbox.cif.g08.bks.cpg/sg52_8_cif.got.tgz:15510.got - 2010.06.03 12:15:38.
