data_PCOD9413584
_publ_section_title
;
Structure prediction by ZEFSAII (Michael W. Deem and Ramdas Pophale) SiO2 
 PCOD9413584
Probable space group: P N N A
;
_chemical_formula_sum "Si O2"
_cell_formula_units_Z 40
_cell_length_a 15.146802
_cell_length_b 9.176045
_cell_length_c 10.982605
_cell_angle_alpha 90.000000
_cell_angle_beta 90.000000
_cell_angle_gamma 90.000000
_cell_volume 1526.447413
_symmetry_space_group_name_H-M "P N N A"
_symmetry_group_IT_number 52
_symmetry_cell_setting 'orthorhombic'
loop_
_space_group_symop_operation_xyz
x,y,z
1/2-x,-y,z
x,1/2-y,1/2-z
1/2-x,1/2+y,1/2-z
-x,-y,-z
1/2+x,y,-z
-x,1/2+y,1/2+z
1/2+x,1/2-y,1/2+z
loop_
_atom_site_type_symbol
_atom_site_label
_atom_site_fract_x
_atom_site_fract_y
_atom_site_fract_z
Si Si1 0.909683 0.117612 0.365159
Si Si2 0.514437 0.469621 0.356416
Si Si3 0.235259 0.843483 0.944581
Si Si4 0.331546 0.087807 0.204901
Si Si5 0.577943 0.199424 0.478522
O O1 0.921672 0.431009 0.275454
O O2 0.821917 0.213153 0.387229
O O3 0.999442 0.192344 0.420650
O O4 0.903379 0.965276 0.438160
O O5 0.500000 0.500000 0.500000
O O6 0.424696 0.486772 0.279985
O O7 0.540834 0.300520 0.369473
O O8 0.180372 0.896677 0.060835
O O9 0.250000 0.000000 0.876830
O O10 0.327275 0.777618 0.998200
O O11 0.332955 0.250000 0.250000
O O12 0.250000 0.000000 0.258501
#
# Coordination Sequence:
#
# PCOD9413584 Si02
#       5
#     8   8   8   8   8
#     4  11  26  48  85 117 162 225 271 352 427 503
#     4  12  26  51  77 115 166 217 280 345 424 506
#     4  11  25  50  77 121 167 209 279 345 426 515
#     4  11  25  45  72 114 161 211 270 348 409 503
#     4  11  25  49  81 121 161 209 286 345 415 518
#
# _framework density 26.204633999999999
#
# number of rings (size 3 to 8) (size 9 to 14) (size 15 to 20)
#    0.000    0.800    2.000    4.800    5.600    0.800 
#    0.000   12.000    0.000    1.200    0.000    0.000 
#    0.000    0.000    0.000    0.000    0.000    0.000 
#
# Total GULP energy -223766.254975 kJ/mol
# GULP energy per Si atom -5594.156374 kJ/mol
# Density = 2.614499 g / cm^3
# Si number density = 26.204634 Si / 1000 Ang^3
#
#
#
# Elastic Constant Matrix: (Units=GPa)
#
#
# Indices 1 2 3 4 5 6 
#
# 1 179.6291 81.3319 20.2465 0.0000 0.0000 0.0000
# 2 81.3319 168.2357 55.8509 0.0000 0.0000 0.0000
# 3 20.2465 55.8509 92.9559 0.0000 0.0000 0.0000
# 4 0.0000 0.0000 0.0000 46.4201 0.0000 0.0000
# 5 0.0000 0.0000 0.0000 0.0000 24.9571 0.0000
# 6 0.0000 0.0000 0.0000 0.0000 0.0000 59.3359
#
#
#
# Elastic Compliance Matrix: (Units=1/GPa)
#
#
# Indices 1 2 3 4 5 6 
#
# 1 0.007158 -0.003676 0.000650 0.000000 0.000000 0.000000
# 2 -0.003676 0.009313 -0.004795 0.000000 0.000000 0.000000
# 3 0.000650 -0.004795 0.013497 0.000000 0.000000 0.000000
# 4 0.000000 0.000000 0.000000 0.021542 0.000000 0.000000
# 5 0.000000 0.000000 0.000000 0.000000 0.040069 0.000000
# 6 0.000000 0.000000 0.000000 0.000000 0.000000 0.016853
#
#
# Mechanical properties :
#
#
# Convention : Reuss Voigt Hill
#
# Bulk Modulus (GPa) = 69.80477 83.96437 76.88457
# Shear Modulus (GPa) = 38.80441 45.03536 41.91989
#
# Velocity S-wave (km/s) = 3.85232 4.15010 4.00398
# Velocity P-wave (km/s) = 6.81787 7.42131 7.12598
#
# Compressibility (1/GPa) = 0.01432567
#
# Stress axis : x y z
#
# Youngs Moduli (GPa) = 139.69696 107.37512 74.08933
#
# Poissons Ratio (x) = 0.39475 -0.04814
# Poissons Ratio (y) = 0.51357 0.35525
# Poissons Ratio (z) = -0.09076 0.51485
#
# Static dielectric constant tensor:
#      x y z
#    x 2.117390 0.000000 0.000000 
#    y 0.000000 2.042400 0.000000 
#    z 0.000000 0.000000 2.095180 
# 
# From -- ./inp_files/26900.got.cif
#   From: 2010.05.17/outbox.cif.g08.bks.cpg/sg52_14_cif.got.tgz:26900.got - 2010.06.03 12:15:38.
