data_PCOD9413540
_publ_section_title
;
Structure prediction by ZEFSAII (Michael W. Deem and Ramdas Pophale) SiO2 
 PCOD9413540
Probable space group: P N N A
;
_chemical_formula_sum "Si O2"
_cell_formula_units_Z 36
_cell_length_a 12.166263
_cell_length_b 5.761318
_cell_length_c 20.543894
_cell_angle_alpha 90.000000
_cell_angle_beta 90.000000
_cell_angle_gamma 90.000000
_cell_volume 1439.997749
_symmetry_space_group_name_H-M "P N N A"
_symmetry_group_IT_number 52
_symmetry_cell_setting 'orthorhombic'
loop_
_space_group_symop_operation_xyz
x,y,z
1/2-x,-y,z
x,1/2-y,1/2-z
1/2-x,1/2+y,1/2-z
-x,-y,-z
1/2+x,y,-z
-x,1/2+y,1/2+z
1/2+x,1/2-y,1/2+z
loop_
_atom_site_type_symbol
_atom_site_label
_atom_site_fract_x
_atom_site_fract_y
_atom_site_fract_z
Si Si1 0.250000 0.500000 0.212950
Si Si2 0.430311 0.757531 0.552587
Si Si3 0.127963 0.750000 0.750000
Si Si4 0.750000 0.500000 0.361895
Si Si5 0.625381 0.068177 0.923769
Si Si6 0.475195 0.929822 0.343411
O O1 0.231680 0.250000 0.250000
O O2 0.358342 0.451510 0.169686
O O3 0.345206 0.601355 0.593089
O O4 0.550585 0.639228 0.549142
O O5 0.380893 0.765372 0.480340
O O6 0.452136 0.980397 0.596687
O O7 0.199726 0.684543 0.688211
O O8 0.046744 0.945228 0.721740
O O9 0.562137 0.169008 0.861550
O O10 0.750000 0.000000 0.911412
#
# Coordination Sequence:
#
# PCOD9413540 Si02
#       6
#     4   8   4   4   8   8
#     4  12  30  48  77 115 156 206 260 324 394 472
#     4  11  25  45  74 105 146 195 253 324 387 469
#     4  12  26  44  70 106 148 196 254 300 392 468
#     4  12  24  48  67 107 146 194 246 322 384 472
#     4  11  24  47  73 109 145 192 258 321 396 463
#     4  12  26  45  74 106 150 200 255 317 394 472
#
# _framework density 25.000039999999998
#
# number of rings (size 3 to 8) (size 9 to 14) (size 15 to 20)
#    0.000    0.444    4.444    3.333    7.778    0.000 
#    0.000    2.222    0.000    0.000    0.000    0.000 
#    0.000    0.000    0.000    0.000    0.000    0.000 
#
# Total GULP energy -201317.816748 kJ/mol
# GULP energy per Si atom -5592.161576 kJ/mol
# Density = 2.494314 g / cm^3
# Si number density = 25.000040 Si / 1000 Ang^3
#
#
#
# Elastic Constant Matrix: (Units=GPa)
#
#
# Indices 1 2 3 4 5 6 
#
# 1 136.0144 25.0332 18.4051 0.0000 0.0000 0.0000
# 2 25.0332 57.4808 15.0807 0.0000 0.0000 0.0000
# 3 18.4051 15.0807 98.5184 0.0000 0.0000 0.0000
# 4 0.0000 0.0000 0.0000 31.0703 0.0000 0.0000
# 5 0.0000 0.0000 0.0000 0.0000 -132.3306 0.0000
# 6 0.0000 0.0000 0.0000 0.0000 0.0000 34.8313
#
#
#
# Elastic Compliance Matrix: (Units=1/GPa)
#
#
# Indices 1 2 3 4 5 6 
#
# 1 0.008089 -0.003257 -0.001013 0.000000 0.000000 0.000000
# 2 -0.003257 0.019436 -0.002367 0.000000 0.000000 0.000000
# 3 -0.001013 -0.002367 0.010702 0.000000 0.000000 0.000000
# 4 0.000000 0.000000 0.000000 0.032185 0.000000 0.000000
# 5 0.000000 0.000000 0.000000 0.000000 -0.007557 0.000000
# 6 0.000000 0.000000 0.000000 0.000000 0.000000 0.028710
#
#
# Mechanical properties :
#
#
# Convention : Reuss Voigt Hill
#
# Bulk Modulus (GPa) = 40.07316 45.45017 42.76166
# Shear Modulus (GPa) = 44.18692 2.28053 23.23372
#
# Velocity S-wave (km/s) = 4.20869 0.95613 3.05183
# Velocity P-wave (km/s) = 6.29933 4.40890 5.43691
#
# Compressibility (1/GPa) = 0.02495436
#
# Stress axis : x y z
#
# Youngs Moduli (GPa) = 123.63055 51.44961 93.44187
#
# Poissons Ratio (x) = 0.16757 0.09461
# Poissons Ratio (y) = 0.40266 0.22116
# Poissons Ratio (z) = 0.12518 0.12177
#
# Static dielectric constant tensor:
#      x y z
#    x 1.950920 0.000000 0.000000 
#    y 0.000000 2.057780 0.000000 
#    z 0.000000 0.000000 1.994800 
# 
# From -- ./inp_files/39973.got.cif
#   From: 2010.05.17/outbox.cif.g08.bks.cpg/sg52_20_cif.got.tgz:39973.got - 2010.06.03 12:15:38.
