data_PCOD9413323
_publ_section_title
;
Structure prediction by ZEFSAII (Michael W. Deem and Ramdas Pophale) SiO2 
 PCOD9413323
Probable space group: P N N A
;
_chemical_formula_sum "Si O2"
_cell_formula_units_Z 32
_cell_length_a 16.402909
_cell_length_b 4.915271
_cell_length_c 19.232525
_cell_angle_alpha 90.000000
_cell_angle_beta 90.000000
_cell_angle_gamma 90.000000
_cell_volume 1550.617384
_symmetry_space_group_name_H-M "P N N A"
_symmetry_group_IT_number 52
_symmetry_cell_setting 'orthorhombic'
loop_
_space_group_symop_operation_xyz
x,y,z
1/2-x,-y,z
x,1/2-y,1/2-z
1/2-x,1/2+y,1/2-z
-x,-y,-z
1/2+x,y,-z
-x,1/2+y,1/2+z
1/2+x,1/2-y,1/2+z
loop_
_atom_site_type_symbol
_atom_site_label
_atom_site_fract_x
_atom_site_fract_y
_atom_site_fract_z
Si Si1 0.560465 0.073394 0.437049
Si Si2 0.194387 0.758265 0.129343
Si Si3 0.841385 0.089078 0.024401
Si Si4 0.537686 0.982214 0.703020
O O1 0.591603 0.380690 0.446101
O O2 0.515313 0.993688 0.366362
O O3 0.500000 0.000000 0.500000
O O4 0.638884 0.884424 0.446744
O O5 0.250000 0.500000 0.108452
O O6 0.124449 0.637949 0.177787
O O7 0.250000 0.000000 0.160874
O O8 0.155064 0.889429 0.059874
O O9 0.750000 0.000000 0.041250
O O10 0.497655 0.750000 0.750000
O O11 0.546848 0.250000 0.750000
#
# Coordination Sequence:
#
# PCOD9413323 Si02
#       4
#     8   8   8   8
#     4  12  24  42  71  97 129 175 225 275 325 385
#     4  11  23  40  66  97 138 177 220 263 331 409
#     4  11  23  40  70 102 131 163 221 283 334 380
#     4  12  27  43  65  95 139 181 222 267 330 396
#
# _framework density 20.636939999999999
#
# number of rings (size 3 to 8) (size 9 to 14) (size 15 to 20)
#    0.000    0.500    2.500    7.500    3.500    2.000 
#    0.000    0.000    0.000   15.000    0.000    0.000 
#    0.000    0.000    0.000    0.000    0.000    0.000 
#
# Total GULP energy -179034.662562 kJ/mol
# GULP energy per Si atom -5594.833205 kJ/mol
# Density = 2.058997 g / cm^3
# Si number density = 20.636940 Si / 1000 Ang^3
#
#
#
# Elastic Constant Matrix: (Units=GPa)
#
#
# Indices 1 2 3 4 5 6 
#
# 1 73.2783 18.7556 49.6431 0.0000 0.0000 0.0000
# 2 18.7556 98.6036 22.7653 0.0000 0.0000 0.0000
# 3 49.6431 22.7653 123.0005 0.0000 0.0000 0.0000
# 4 0.0000 0.0000 0.0000 42.2977 0.0000 0.0000
# 5 0.0000 0.0000 0.0000 0.0000 6.2621 0.0000
# 6 0.0000 0.0000 0.0000 0.0000 0.0000 32.7311
#
#
#
# Elastic Compliance Matrix: (Units=1/GPa)
#
#
# Indices 1 2 3 4 5 6 
#
# 1 0.019131 -0.001939 -0.007362 0.000000 0.000000 0.000000
# 2 -0.001939 0.010791 -0.001215 0.000000 0.000000 0.000000
# 3 -0.007362 -0.001215 0.011326 0.000000 0.000000 0.000000
# 4 0.000000 0.000000 0.000000 0.023642 0.000000 0.000000
# 5 0.000000 0.000000 0.000000 0.000000 0.159690 0.000000
# 6 0.000000 0.000000 0.000000 0.000000 0.000000 0.030552
#
#
# Mechanical properties :
#
#
# Convention : Reuss Voigt Hill
#
# Bulk Modulus (GPa) = 49.46608 53.02337 51.24473
# Shear Modulus (GPa) = 17.67397 29.83942 23.75669
#
# Velocity S-wave (km/s) = 2.92965 3.80665 3.39658
# Velocity P-wave (km/s) = 5.95529 6.71342 6.34569
#
# Compressibility (1/GPa) = 0.02021587
#
# Stress axis : x y z
#
# Youngs Moduli (GPa) = 52.27246 92.67088 88.29050
#
# Poissons Ratio (x) = 0.17970 0.65001
# Poissons Ratio (y) = 0.10136 0.10724
# Poissons Ratio (z) = 0.38484 0.11256
#
# Static dielectric constant tensor:
#      x y z
#    x 1.742290 0.000000 0.000000 
#    y 0.000000 1.737930 0.000000 
#    z 0.000000 0.000000 1.773630 
# 
# From -- ./inp_files/32598.got.cif
#   From: 2010.05.17/outbox.cif.g08.bks.cpg/sg52_17_cif.got.tgz:32598.got - 2010.06.03 12:15:38.
