data_PCOD9413379
_publ_section_title
;
Structure prediction by ZEFSAII (Michael W. Deem and Ramdas Pophale) SiO2 
 PCOD9413379
Probable space group: P N N A
;
_chemical_formula_sum "Si O2"
_cell_formula_units_Z 28
_cell_length_a 17.988031
_cell_length_b 8.102444
_cell_length_c 7.584177
_cell_angle_alpha 90.000000
_cell_angle_beta 90.000000
_cell_angle_gamma 90.000000
_cell_volume 1105.371150
_symmetry_space_group_name_H-M "P N N A"
_symmetry_group_IT_number 52
_symmetry_cell_setting 'orthorhombic'
loop_
_space_group_symop_operation_xyz
x,y,z
1/2-x,-y,z
x,1/2-y,1/2-z
1/2-x,1/2+y,1/2-z
-x,-y,-z
1/2+x,y,-z
-x,1/2+y,1/2+z
1/2+x,1/2-y,1/2+z
loop_
_atom_site_type_symbol
_atom_site_label
_atom_site_fract_x
_atom_site_fract_y
_atom_site_fract_z
Si Si1 0.683675 0.391206 0.885474
Si Si2 0.816149 0.750000 0.250000
Si Si3 0.444260 0.065895 0.235609
Si Si4 0.098630 0.584000 0.654389
O O1 0.750000 0.500000 0.810918
O O2 0.661402 0.250000 0.750000
O O3 0.609171 0.504280 0.892908
O O4 0.716314 0.305494 0.061435
O O5 0.860447 0.582484 0.290583
O O6 0.476741 0.250000 0.250000
O O7 0.511798 0.941763 0.203812
O O8 0.396534 0.084331 0.057081
O O9 0.125639 0.750000 0.750000
#
# Coordination Sequence:
#
# PCOD9413379 Si02
#       4
#     8   4   8   8
#     4  12  27  49  74 102 144 197 248 300 365 437
#     4  12  26  50  74 108 146 188 248 304 362 432
#     4  11  23  43  71 108 147 192 238 294 372 434
#     4  11  24  41  74 111 148 185 237 305 365 437
#
# _framework density 25.330860000000001
#
# number of rings (size 3 to 8) (size 9 to 14) (size 15 to 20)
#    0.000    0.571    4.286    3.429    4.000    3.429 
#    7.714    0.000    0.000    0.000    0.000    0.000 
#    0.000    0.000    0.000    0.000    0.000    0.000 
#
# Total GULP energy -156589.637580 kJ/mol
# GULP energy per Si atom -5592.487056 kJ/mol
# Density = 2.527321 g / cm^3
# Si number density = 25.330860 Si / 1000 Ang^3
#
#
#
# Elastic Constant Matrix: (Units=GPa)
#
#
# Indices 1 2 3 4 5 6 
#
# 1 41.1584 4.6979 -2.2109 0.0000 0.0000 0.0000
# 2 4.6979 164.8284 20.6445 0.0000 0.0000 0.0000
# 3 -2.2109 20.6445 71.1480 0.0000 0.0000 0.0000
# 4 0.0000 0.0000 0.0000 23.8150 0.0000 0.0000
# 5 0.0000 0.0000 0.0000 0.0000 -10.6174 0.0000
# 6 0.0000 0.0000 0.0000 0.0000 0.0000 18.6616
#
#
#
# Elastic Compliance Matrix: (Units=1/GPa)
#
#
# Indices 1 2 3 4 5 6 
#
# 1 0.024444 -0.000822 0.000998 0.000000 0.000000 0.000000
# 2 -0.000822 0.006323 -0.001860 0.000000 0.000000 0.000000
# 3 0.000998 -0.001860 0.014626 0.000000 0.000000 0.000000
# 4 0.000000 0.000000 0.000000 0.041990 0.000000 0.000000
# 5 0.000000 0.000000 0.000000 0.000000 -0.094185 0.000000
# 6 0.000000 0.000000 0.000000 0.000000 0.000000 0.053586
#
#
# Mechanical properties :
#
#
# Convention : Reuss Voigt Hill
#
# Bulk Modulus (GPa) = 23.79531 35.93309 29.86420
# Shear Modulus (GPa) = 77.92948 23.30542 50.61745
#
# Velocity S-wave (km/s) = 5.55261 3.03651 4.47503
# Velocity P-wave (km/s) = 7.10794 5.14880 6.20616
#
# Compressibility (1/GPa) = 0.04202508
#
# Stress axis : x y z
#
# Youngs Moduli (GPa) = 40.91026 158.14431 68.37134
#
# Poissons Ratio (x) = 0.12994 -0.06824
# Poissons Ratio (y) = 0.03362 0.12719
# Poissons Ratio (z) = -0.04083 0.29420
#
# Static dielectric constant tensor:
#      x y z
#    x 1.912100 0.000000 0.000000 
#    y 0.000000 2.126890 0.000000 
#    z 0.000000 0.000000 2.094270 
# 
# From -- ./inp_files/11360.got.cif
#   From: 2010.05.17/outbox.cif.g08.bks.cpg/sg52_6_cif.got.tgz:11360.got - 2010.06.03 12:15:38.
