data_PCOD9413619
_publ_section_title
;
Structure prediction by ZEFSAII (Michael W. Deem and Ramdas Pophale) SiO2 
 PCOD9413619
Probable space group: P N N A
;
_chemical_formula_sum "Si O2"
_cell_formula_units_Z 32
_cell_length_a 9.506750
_cell_length_b 11.608424
_cell_length_c 10.712969
_cell_angle_alpha 90.000000
_cell_angle_beta 90.000000
_cell_angle_gamma 90.000000
_cell_volume 1182.265956
_symmetry_space_group_name_H-M "P N N A"
_symmetry_group_IT_number 52
_symmetry_cell_setting 'orthorhombic'
loop_
_space_group_symop_operation_xyz
x,y,z
1/2-x,-y,z
x,1/2-y,1/2-z
1/2-x,1/2+y,1/2-z
-x,-y,-z
1/2+x,y,-z
-x,1/2+y,1/2+z
1/2+x,1/2-y,1/2+z
loop_
_atom_site_type_symbol
_atom_site_label
_atom_site_fract_x
_atom_site_fract_y
_atom_site_fract_z
Si Si1 0.265016 0.327418 0.410771
Si Si2 0.158481 0.098652 0.499893
Si Si3 0.937052 0.363648 0.341686
Si Si4 0.974247 0.070848 0.704908
O O1 0.575994 0.509036 0.286004
O O2 0.334957 0.361933 0.540538
O O3 0.253623 0.190595 0.431386
O O4 0.363109 0.373820 0.299649
O O5 0.102161 0.358597 0.384584
O O6 0.060140 0.151273 0.607622
O O7 0.250000 0.000000 0.562910
O O8 0.083225 0.028401 0.389673
O O9 0.915753 0.250000 0.250000
#
# Coordination Sequence:
#
# PCOD9413619 Si02
#       4
#     8   8   8   8
#     4  12  28  48  82 118 159 216 274 338 412 492
#     4  11  25  48  80 116 161 220 272 330 409 494
#     4  12  26  50  78 119 165 213 275 341 412 494
#     4  11  26  49  81 114 167 215 269 337 412 491
#
# _framework density 27.066666999999999
#
# number of rings (size 3 to 8) (size 9 to 14) (size 15 to 20)
#    0.000    0.500    2.500    4.500    3.500    4.000 
#    0.000    0.000    0.000    0.000    0.000    0.000 
#    0.000    0.000    0.000    0.000    0.000    0.000 
#
# Total GULP energy -179181.120195 kJ/mol
# GULP energy per Si atom -5599.410006 kJ/mol
# Density = 2.700506 g / cm^3
# Si number density = 27.066667 Si / 1000 Ang^3
#
#
#
# Elastic Constant Matrix: (Units=GPa)
#
#
# Indices 1 2 3 4 5 6 
#
# 1 94.0272 12.5206 81.1116 0.0000 0.0000 0.0000
# 2 12.5206 87.0251 39.0887 0.0000 0.0000 0.0000
# 3 81.1116 39.0887 206.5094 0.0000 0.0000 0.0000
# 4 0.0000 0.0000 0.0000 26.9777 0.0000 0.0000
# 5 0.0000 0.0000 0.0000 0.0000 75.4145 0.0000
# 6 0.0000 0.0000 0.0000 0.0000 0.0000 34.0779
#
#
#
# Elastic Compliance Matrix: (Units=1/GPa)
#
#
# Indices 1 2 3 4 5 6 
#
# 1 0.016111 0.000573 -0.006437 0.000000 0.000000 0.000000
# 2 0.000573 0.012579 -0.002606 0.000000 0.000000 0.000000
# 3 -0.006437 -0.002606 0.007864 0.000000 0.000000 0.000000
# 4 0.000000 0.000000 0.000000 0.037068 0.000000 0.000000
# 5 0.000000 0.000000 0.000000 0.000000 0.013260 0.000000
# 6 0.000000 0.000000 0.000000 0.000000 0.000000 0.029345
#
#
# Mechanical properties :
#
#
# Convention : Reuss Voigt Hill
#
# Bulk Modulus (GPa) = 50.98124 72.55593 61.76859
# Shear Modulus (GPa) = 35.78992 44.28339 40.03665
#
# Velocity S-wave (km/s) = 3.64027 4.04924 3.85019
# Velocity P-wave (km/s) = 6.04525 6.98043 6.52961
#
# Compressibility (1/GPa) = 0.01961506
#
# Stress axis : x y z
#
# Youngs Moduli (GPa) = 62.06784 79.49717 127.16453
#
# Poissons Ratio (x) = -0.04556 0.81851
# Poissons Ratio (y) = -0.03557 0.33140
# Poissons Ratio (z) = 0.39951 0.20718
#
# Static dielectric constant tensor:
#      x y z
#    x 2.245690 0.000000 0.000000 
#    y 0.000000 2.226930 0.000000 
#    z 0.000000 0.000000 2.123060 
# 
# From -- ./inp_files/17599.got.cif
#   From: 2010.05.17/outbox.cif.g08.bks.cpg/sg52_9_cif.got.tgz:17599.got - 2010.06.03 12:15:38.
