data_PCOD9413505
_publ_section_title
;
Structure prediction by ZEFSAII (Michael W. Deem and Ramdas Pophale) SiO2 
 PCOD9413505
Probable space group: P N N A
;
_chemical_formula_sum "Si O2"
_cell_formula_units_Z 32
_cell_length_a 8.155524
_cell_length_b 16.087753
_cell_length_c 9.377120
_cell_angle_alpha 90.000000
_cell_angle_beta 90.000000
_cell_angle_gamma 90.000000
_cell_volume 1230.316175
_symmetry_space_group_name_H-M "P N N A"
_symmetry_group_IT_number 52
_symmetry_cell_setting 'orthorhombic'
loop_
_space_group_symop_operation_xyz
x,y,z
1/2-x,-y,z
x,1/2-y,1/2-z
1/2-x,1/2+y,1/2-z
-x,-y,-z
1/2+x,y,-z
-x,1/2+y,1/2+z
1/2+x,1/2-y,1/2+z
loop_
_atom_site_type_symbol
_atom_site_label
_atom_site_fract_x
_atom_site_fract_y
_atom_site_fract_z
Si Si1 0.182158 0.828805 0.047259
Si Si2 0.484506 0.589563 0.779375
Si Si3 0.211343 0.138250 0.457209
Si Si4 0.992438 0.904193 0.803024
O O1 0.127846 0.855086 0.890874
O O2 0.032692 0.843941 0.158369
O O3 0.236873 0.734036 0.051026
O O4 0.325666 0.887432 0.107467
O O5 0.643833 0.585751 0.884086
O O6 0.465785 0.500697 0.706415
O O7 0.337501 0.611654 0.884855
O O8 0.053770 0.128500 0.353549
#
# Coordination Sequence:
#
# PCOD9413505 Si02
#       4
#     8   8   8   8
#     4  11  24  45  71 106 147 189 238 297 356 428
#     4  11  24  45  71 106 147 189 238 297 356 428
#     4  11  24  45  71 106 147 189 238 297 356 428
#     4  11  24  45  71 106 147 189 238 297 356 428
#
# _framework density 26.009575000000002
#
# number of rings (size 3 to 8) (size 9 to 14) (size 15 to 20)
#    0.000    1.000    0.000    9.000    0.000    2.000 
#    0.000   10.000    0.000    0.000    0.000    0.000 
#    0.000    0.000    0.000    0.000    0.000    0.000 
#
# Total GULP energy -179803.473174 kJ/mol
# GULP energy per Si atom -5618.858537 kJ/mol
# Density = 2.595038 g / cm^3
# Si number density = 26.009575 Si / 1000 Ang^3
#
#
#
# Elastic Constant Matrix: (Units=GPa)
#
#
# Indices 1 2 3 4 5 6 
#
# 1 69.9225 6.3558 17.3412 0.0000 0.0000 0.0000
# 2 6.3558 115.5718 -12.6125 0.0000 0.0000 0.0000
# 3 17.3412 -12.6125 81.9983 0.0000 0.0000 0.0000
# 4 0.0000 0.0000 0.0000 45.9362 0.0000 0.0000
# 5 0.0000 0.0000 0.0000 0.0000 50.0006 0.0000
# 6 0.0000 0.0000 0.0000 0.0000 0.0000 21.9483
#
#
#
# Elastic Compliance Matrix: (Units=1/GPa)
#
#
# Indices 1 2 3 4 5 6 
#
# 1 0.015258 -0.001212 -0.003413 0.000000 0.000000 0.000000
# 2 -0.001212 0.008897 0.001625 0.000000 0.000000 0.000000
# 3 -0.003413 0.001625 0.013167 0.000000 0.000000 0.000000
# 4 0.000000 0.000000 0.000000 0.021769 0.000000 0.000000
# 5 0.000000 0.000000 0.000000 0.000000 0.020000 0.000000
# 6 0.000000 0.000000 0.000000 0.000000 0.000000 0.045562
#
#
# Mechanical properties :
#
#
# Convention : Reuss Voigt Hill
#
# Bulk Modulus (GPa) = 31.92693 32.18464 32.05578
# Shear Modulus (GPa) = 35.43752 40.67089 38.05421
#
# Velocity S-wave (km/s) = 3.69518 3.95864 3.82918
# Velocity P-wave (km/s) = 5.52336 5.77022 5.64814
#
# Compressibility (1/GPa) = 0.03132152
#
# Stress axis : x y z
#
# Youngs Moduli (GPa) = 65.53866 112.40298 75.94687
#
# Poissons Ratio (x) = 0.13619 0.25922
# Poissons Ratio (y) = 0.07941 -0.12339
# Poissons Ratio (z) = 0.22370 -0.18262
#
# Static dielectric constant tensor:
#      x y z
#    x 2.147050 0.000000 0.000000 
#    y 0.000000 1.920890 0.000000 
#    z 0.000000 0.000000 2.020860 
# 
# From -- ./inp_files/8333.got.cif
#   From: 2010.05.17/outbox.cif.g08.bks.cpg/sg52_5_cif.got.tgz:8333.got - 2010.06.03 12:15:38.
