data_PCOD9413734
_publ_section_title
;
Structure prediction by ZEFSAII (Michael W. Deem and Ramdas Pophale) SiO2 
 PCOD9413734
Probable space group: P N N A
;
_chemical_formula_sum "Si O2"
_cell_formula_units_Z 36
_cell_length_a 20.421628
_cell_length_b 12.270664
_cell_length_c 6.800395
_cell_angle_alpha 90.000000
_cell_angle_beta 90.000000
_cell_angle_gamma 90.000000
_cell_volume 1704.090143
_symmetry_space_group_name_H-M "P N N A"
_symmetry_group_IT_number 52
_symmetry_cell_setting 'orthorhombic'
loop_
_space_group_symop_operation_xyz
x,y,z
1/2-x,-y,z
x,1/2-y,1/2-z
1/2-x,1/2+y,1/2-z
-x,-y,-z
1/2+x,y,-z
-x,1/2+y,1/2+z
1/2+x,1/2-y,1/2+z
loop_
_atom_site_type_symbol
_atom_site_label
_atom_site_fract_x
_atom_site_fract_y
_atom_site_fract_z
Si Si1 0.926978 0.955071 0.993047
Si Si2 0.666843 0.846727 0.120897
Si Si3 0.750000 0.000000 0.351420
Si Si4 0.894409 0.750000 0.250000
Si Si5 0.654488 0.396228 0.889984
Si Si6 0.232678 0.750000 0.250000
O O1 0.900089 0.921835 0.774126
O O2 0.927441 0.852099 0.140063
O O3 0.878155 0.049514 0.072076
O O4 0.000000 0.000000 0.000000
O O5 0.635926 0.750000 0.250000
O O6 0.733897 0.895202 0.218228
O O7 0.687817 0.783850 0.927617
O O8 0.684756 0.005346 0.484340
O O9 0.861694 0.807926 0.440802
O O10 0.718085 0.349911 0.781532
#
# Coordination Sequence:
#
# PCOD9413734 Si02
#       6
#     8   8   4   4   8   4
#     4  12  29  49  72 105 151 201 256 301 368 466
#     4  12  26  43  70 109 146 194 245 312 381 437
#     4  12  22  44  72 106 152 180 242 320 376 450
#     4  12  24  49  76 102 141 202 250 300 380 438
#     4  12  23  44  73 108 143 191 239 308 383 437
#     4  12  22  41  74 108 147 178 242 310 376 446
#
# _framework density 21.125643
#
# number of rings (size 3 to 8) (size 9 to 14) (size 15 to 20)
#    0.000    0.000    6.667    4.000    0.000    3.556 
#    0.000    0.000    0.000    0.000    0.000    0.000 
#    0.000    0.000    0.000    0.000    0.000    0.000 
#
# Total GULP energy -200815.820902 kJ/mol
# GULP energy per Si atom -5578.217247 kJ/mol
# Density = 2.107756 g / cm^3
# Si number density = 21.125643 Si / 1000 Ang^3
#
#
#
# Elastic Constant Matrix: (Units=GPa)
#
#
# Indices 1 2 3 4 5 6 
#
# 1 104.6376 43.3134 63.0981 0.0000 0.0000 0.0000
# 2 43.3134 108.6539 56.9209 0.0000 0.0000 0.0000
# 3 63.0981 56.9209 153.3830 0.0000 0.0000 0.0000
# 4 0.0000 0.0000 0.0000 51.7101 0.0000 0.0000
# 5 0.0000 0.0000 0.0000 0.0000 4.8366 0.0000
# 6 0.0000 0.0000 0.0000 0.0000 0.0000 -17.0887
#
#
#
# Elastic Compliance Matrix: (Units=1/GPa)
#
#
# Indices 1 2 3 4 5 6 
#
# 1 0.013485 -0.003065 -0.004410 0.000000 0.000000 0.000000
# 2 -0.003065 0.012121 -0.003237 0.000000 0.000000 0.000000
# 3 -0.004410 -0.003237 0.009535 0.000000 0.000000 0.000000
# 4 0.000000 0.000000 0.000000 0.019339 0.000000 0.000000
# 5 0.000000 0.000000 0.000000 0.000000 0.206758 0.000000
# 6 0.000000 0.000000 0.000000 0.000000 0.000000 -0.058518
#
#
# Mechanical properties :
#
#
# Convention : Reuss Voigt Hill
#
# Bulk Modulus (GPa) = 72.90501 77.03770 74.97136
# Shear Modulus (GPa) = 21.86111 21.44774 21.65443
#
# Velocity S-wave (km/s) = 3.22034 3.18975 3.20508
# Velocity P-wave (km/s) = 6.95792 7.07896 7.01870
#
# Compressibility (1/GPa) = 0.01371648
#
# Stress axis : x y z
#
# Youngs Moduli (GPa) = 74.15744 82.49858 104.87614
#
# Poissons Ratio (x) = 0.25289 0.46248
# Poissons Ratio (y) = 0.22732 0.33951
# Poissons Ratio (z) = 0.32702 0.26707
#
# Static dielectric constant tensor:
#      x y z
#    x 1.717140 0.000000 0.000000 
#    y 0.000000 1.755110 0.000000 
#    z 0.000000 0.000000 1.846570 
# 
# From -- ./inp_files/4118.got.cif
#   From: 2010.05.17/outbox.cif.g08.bks.cpg/sg52_3_cif.got.tgz:4118.got - 2010.06.03 12:15:38.
