data_PCOD9413629
_publ_section_title
;
Structure prediction by ZEFSAII (Michael W. Deem and Ramdas Pophale) SiO2 
 PCOD9413629
Probable space group: P N N A
;
_chemical_formula_sum "Si O2"
_cell_formula_units_Z 32
_cell_length_a 9.483163
_cell_length_b 17.445306
_cell_length_c 7.146062
_cell_angle_alpha 90.000000
_cell_angle_beta 90.000000
_cell_angle_gamma 90.000000
_cell_volume 1182.220775
_symmetry_space_group_name_H-M "P N N A"
_symmetry_group_IT_number 52
_symmetry_cell_setting 'orthorhombic'
loop_
_space_group_symop_operation_xyz
x,y,z
1/2-x,-y,z
x,1/2-y,1/2-z
1/2-x,1/2+y,1/2-z
-x,-y,-z
1/2+x,y,-z
-x,1/2+y,1/2+z
1/2+x,1/2-y,1/2+z
loop_
_atom_site_type_symbol
_atom_site_label
_atom_site_fract_x
_atom_site_fract_y
_atom_site_fract_z
Si Si1 0.105749 0.676976 0.587869
Si Si2 0.097561 0.538876 0.340819
Si Si3 0.671200 0.923631 0.433280
Si Si4 0.337053 0.773401 0.456193
O O1 0.093749 0.625389 0.407671
O O2 0.087989 0.880565 0.734709
O O3 0.260916 0.711933 0.588792
O O4 0.999708 0.747704 0.555048
O O5 0.250000 0.500000 0.363586
O O6 0.084407 0.547774 0.115813
O O7 0.000000 0.500000 0.500000
O O8 0.786018 0.859170 0.499245
O O9 0.750000 0.000000 0.358769
O O10 0.284366 0.750000 0.250000
#
# Coordination Sequence:
#
# PCOD9413629 Si02
#       4
#     8   8   8   8
#     4  12  27  53  84 118 167 226 281 347 426 507
#     4  11  25  51  82 127 172 217 278 357 429 513
#     4  11  27  54  85 124 170 224 282 356 436 514
#     4  12  26  53  81 117 169 216 283 347 419 506
#
# _framework density 27.067702000000001
#
# number of rings (size 3 to 8) (size 9 to 14) (size 15 to 20)
#    0.000    0.500    2.500    4.500    3.500    3.000 
#   22.500    0.000    0.000    0.000    0.000    0.000 
#    0.000    0.000    0.000    0.000    0.000    0.000 
#
# Total GULP energy -178909.108132 kJ/mol
# GULP energy per Si atom -5590.909629 kJ/mol
# Density = 2.700609 g / cm^3
# Si number density = 27.067702 Si / 1000 Ang^3
#
#
#
# Elastic Constant Matrix: (Units=GPa)
#
#
# Indices 1 2 3 4 5 6 
#
# 1 111.4555 40.9489 47.9307 0.0000 0.0000 0.0000
# 2 40.9489 171.4135 35.4881 0.0000 0.0000 0.0000
# 3 47.9307 35.4881 155.2831 0.0000 0.0000 0.0000
# 4 0.0000 0.0000 0.0000 72.7199 0.0000 0.0000
# 5 0.0000 0.0000 0.0000 0.0000 -524.7235 0.0000
# 6 0.0000 0.0000 0.0000 0.0000 0.0000 42.5728
#
#
#
# Elastic Compliance Matrix: (Units=1/GPa)
#
#
# Indices 1 2 3 4 5 6 
#
# 1 0.010971 -0.002015 -0.002926 0.000000 0.000000 0.000000
# 2 -0.002015 0.006494 -0.000862 0.000000 0.000000 0.000000
# 3 -0.002926 -0.000862 0.007540 0.000000 0.000000 0.000000
# 4 0.000000 0.000000 0.000000 0.013751 0.000000 0.000000
# 5 0.000000 0.000000 0.000000 0.000000 -0.001906 0.000000
# 6 0.000000 0.000000 0.000000 0.000000 0.000000 0.023489
#
#
# Mechanical properties :
#
#
# Convention : Reuss Voigt Hill
#
# Bulk Modulus (GPa) = 74.63490 76.32083 75.47786
# Shear Modulus (GPa) = 65.43545 -60.96718 2.23413
#
# Velocity S-wave (km/s) = 4.92211 -4.75109 0.90949
# Velocity P-wave (km/s) = 7.74185 1.35634 5.38965
#
# Compressibility (1/GPa) = 0.01339856
#
# Stress axis : x y z
#
# Youngs Moduli (GPa) = 91.15159 153.99544 132.62675
#
# Poissons Ratio (x) = 0.31031 0.38804
# Poissons Ratio (y) = 0.18368 0.11433
# Poissons Ratio (z) = 0.26669 0.13276
#
# Static dielectric constant tensor:
#      x y z
#    x 2.095830 0.000000 0.000000 
#    y 0.000000 2.099350 0.000000 
#    z 0.000000 0.000000 2.158570 
# 
# From -- ./inp_files/17883.got.cif
#   From: 2010.05.17/outbox.cif.g08.bks.cpg/sg52_9_cif.got.tgz:17883.got - 2010.06.03 12:15:38.
