data_PCOD9413098
_publ_section_title
;
Structure prediction by ZEFSAII (Michael W. Deem and Ramdas Pophale) SiO2 
 PCOD9413098
Probable space group: P N N A
;
_chemical_formula_sum "Si O2"
_cell_formula_units_Z 52
_cell_length_a 24.306494
_cell_length_b 8.103890
_cell_length_c 12.526517
_cell_angle_alpha 90.000000
_cell_angle_beta 90.000000
_cell_angle_gamma 90.000000
_cell_volume 2467.437664
_symmetry_space_group_name_H-M "P N N A"
_symmetry_group_IT_number 52
_symmetry_cell_setting 'orthorhombic'
loop_
_space_group_symop_operation_xyz
x,y,z
1/2-x,-y,z
x,1/2-y,1/2-z
1/2-x,1/2+y,1/2-z
-x,-y,-z
1/2+x,y,-z
-x,1/2+y,1/2+z
1/2+x,1/2-y,1/2+z
loop_
_atom_site_type_symbol
_atom_site_label
_atom_site_fract_x
_atom_site_fract_y
_atom_site_fract_z
Si Si1 0.402121 0.436232 0.086095
Si Si2 0.495811 0.547230 0.377396
Si Si3 0.215176 0.837277 0.357801
Si Si4 0.808500 0.468611 0.487288
Si Si5 0.120284 0.299635 0.366899
Si Si6 0.602272 0.767012 0.128542
Si Si7 0.982439 0.250000 0.750000
O O1 0.346935 0.401600 0.153475
O O2 0.406205 0.633944 0.082773
O O3 0.447817 0.333911 0.152306
O O4 0.394013 0.370139 0.965146
O O5 0.500000 0.500000 0.500000
O O6 0.432071 0.580035 0.351423
O O7 0.537499 0.695853 0.363418
O O8 0.515547 0.397900 0.303292
O O9 0.234444 0.750000 0.250000
O O10 0.208545 0.690195 0.442136
O O11 0.250000 0.000000 0.386946
O O12 0.750000 0.500000 0.429615
O O13 0.832516 0.613948 0.563117
O O14 0.860797 0.416015 0.417705
O O15 0.140654 0.250000 0.250000
O O16 0.622089 0.750000 0.250000
#
# Coordination Sequence:
#
# PCOD9413098 Si02
#       7
#     8   8   8   8   8   8   4
#     4  11  23  40  67  96 138 175 221 274 350 409
#     4  12  23  43  69 101 140 177 221 284 348 424
#     4  11  21  36  60  96 135 178 220 277 345 410
#     4  11  24  44  65  93 136 178 233 289 337 405
#     4  12  23  40  70 107 139 178 224 284 358 421
#     4  11  26  48  68  95 135 184 230 283 345 410
#     4  12  22  42  66 100 136 176 214 278 352 410
#
# _framework density 21.074494999999999
#
# number of rings (size 3 to 8) (size 9 to 14) (size 15 to 20)
#    0.000    0.615    5.385    3.692    0.000    3.077 
#    0.000    4.615    0.000    0.000    0.000    0.000 
#    0.000    0.000    0.000    0.000    0.000    0.000 
#
# Total GULP energy -290184.139386 kJ/mol
# GULP energy per Si atom -5580.464219 kJ/mol
# Density = 2.102653 g / cm^3
# Si number density = 21.074495 Si / 1000 Ang^3
#
#
#
# Elastic Constant Matrix: (Units=GPa)
#
#
# Indices 1 2 3 4 5 6 
#
# 1 75.4463 -5.0422 4.6390 0.0000 0.0000 0.0000
# 2 -5.0422 92.0133 33.4353 0.0000 0.0000 0.0000
# 3 4.6390 33.4353 126.8016 0.0000 0.0000 0.0000
# 4 0.0000 0.0000 0.0000 29.7009 0.0000 0.0000
# 5 0.0000 0.0000 0.0000 0.0000 6.5509 0.0000
# 6 0.0000 0.0000 0.0000 0.0000 0.0000 19.6387
#
#
#
# Elastic Compliance Matrix: (Units=1/GPa)
#
#
# Indices 1 2 3 4 5 6 
#
# 1 0.013368 0.001007 -0.000755 0.000000 0.000000 0.000000
# 2 0.001007 0.012095 -0.003226 0.000000 0.000000 0.000000
# 3 -0.000755 -0.003226 0.008765 0.000000 0.000000 0.000000
# 4 0.000000 0.000000 0.000000 0.033669 0.000000 0.000000
# 5 0.000000 0.000000 0.000000 0.000000 0.152652 0.000000
# 6 0.000000 0.000000 0.000000 0.000000 0.000000 0.050920
#
#
# Mechanical properties :
#
#
# Convention : Reuss Voigt Hill
#
# Bulk Modulus (GPa) = 35.36034 40.03615 37.69824
# Shear Modulus (GPa) = 17.43112 28.59338 23.01225
#
# Velocity S-wave (km/s) = 2.87909 3.68744 3.30805
# Velocity P-wave (km/s) = 5.27895 6.09658 5.70244
#
# Compressibility (1/GPa) = 0.02828027
#
# Stress axis : x y z
#
# Youngs Moduli (GPa) = 74.80475 82.67560 114.09501
#
# Poissons Ratio (x) = -0.08323 0.08609
# Poissons Ratio (y) = -0.07531 0.36809
# Poissons Ratio (z) = 0.05644 0.26673
#
# Static dielectric constant tensor:
#      x y z
#    x 1.784160 0.000000 0.000000 
#    y 0.000000 1.871680 0.000000 
#    z 0.000000 0.000000 1.807600 
# 
# From -- ./inp_files/22853.got.cif
#   From: 2010.05.17/outbox.cif.g08.bks.cpg/sg52_12_cif.got.tgz:22853.got - 2010.06.03 12:15:38.
