data_PCOD9413724
_publ_section_title
;
Structure prediction by ZEFSAII (Michael W. Deem and Ramdas Pophale) SiO2 
 PCOD9413724
Probable space group: P N N A
;
_chemical_formula_sum "Si O2"
_cell_formula_units_Z 64
_cell_length_a 9.245262
_cell_length_b 21.304787
_cell_length_c 16.145358
_cell_angle_alpha 90.000000
_cell_angle_beta 90.000000
_cell_angle_gamma 90.000000
_cell_volume 3180.124326
_symmetry_space_group_name_H-M "P N N A"
_symmetry_group_IT_number 52
_symmetry_cell_setting 'orthorhombic'
loop_
_space_group_symop_operation_xyz
x,y,z
1/2-x,-y,z
x,1/2-y,1/2-z
1/2-x,1/2+y,1/2-z
-x,-y,-z
1/2+x,y,-z
-x,1/2+y,1/2+z
1/2+x,1/2-y,1/2+z
loop_
_atom_site_type_symbol
_atom_site_label
_atom_site_fract_x
_atom_site_fract_y
_atom_site_fract_z
Si Si1 0.841333 0.561389 0.168547
Si Si2 0.923437 0.265583 0.341380
Si Si3 0.510943 0.827257 0.934082
Si Si4 0.309810 0.739449 0.431134
Si Si5 0.239947 0.386746 0.652772
Si Si6 0.860272 0.456385 0.505870
Si Si7 0.898313 0.039610 0.561652
Si Si8 0.788694 0.342275 0.040236
O O1 0.750000 0.500000 0.143574
O O2 0.790404 0.578369 0.261257
O O3 0.793920 0.618063 0.109331
O O4 0.009251 0.548770 0.146261
O O5 0.870811 0.250000 0.250000
O O6 0.869498 0.336450 0.354048
O O7 0.865716 0.215026 0.408968
O O8 0.096155 0.261916 0.348838
O O9 0.642564 0.779385 0.921025
O O10 0.401580 0.843560 0.861031
O O11 0.401672 0.805783 0.007160
O O12 0.590395 0.891987 0.954290
O O13 0.313231 0.806431 0.475647
O O14 0.275987 0.434741 0.578051
O O15 0.750000 0.500000 0.556085
O O16 0.000000 0.500000 0.500000
O O17 0.872650 0.106193 0.515133
O O18 0.750000 0.000000 0.573225
O O19 0.000000 0.000000 0.500000
#
# Coordination Sequence:
#
# PCOD9413724 Si02
#       8
#     8   8   8   8   8   8   8   8
#     4  12  26  45  69 100 138 183 227 280 349 415
#     4  12  25  44  67 100 135 179 224 282 349 406
#     4  12  22  42  65  99 133 170 230 277 332 415
#     4  12  23  42  70  96 134 175 227 286 341 406
#     4  12  25  45  67  97 141 178 225 287 343 411
#     4  12  22  38  67  97 127 176 225 272 325 399
#     4  12  24  45  71 104 139 176 236 288 340 420
#     4  12  22  42  76  99 129 180 232 281 342 415
#
# _framework density 20.125
#
# number of rings (size 3 to 8) (size 9 to 14) (size 15 to 20)
#    0.000    0.000   10.000    1.125    0.000    0.000 
#    2.250    0.625    0.000    0.000    0.000    0.000 
#    0.000    0.000    0.000    0.000    0.000    0.000 
#
# Total GULP energy -356938.358924 kJ/mol
# GULP energy per Si atom -5577.161858 kJ/mol
# Density = 2.007919 g / cm^3
# Si number density = 20.125000 Si / 1000 Ang^3
#
#
#
# Elastic Constant Matrix: (Units=GPa)
#
#
# Indices 1 2 3 4 5 6 
#
# 1 102.5260 9.8070 22.6132 0.0000 0.0000 0.0000
# 2 9.8070 84.7065 20.4732 0.0000 0.0000 0.0000
# 3 22.6132 20.4732 61.0066 0.0000 0.0000 0.0000
# 4 0.0000 0.0000 0.0000 28.3135 0.0000 0.0000
# 5 0.0000 0.0000 0.0000 0.0000 24.1457 0.0000
# 6 0.0000 0.0000 0.0000 0.0000 0.0000 45.8887
#
#
#
# Elastic Compliance Matrix: (Units=1/GPa)
#
#
# Indices 1 2 3 4 5 6 
#
# 1 0.010629 -0.000303 -0.003838 0.000000 0.000000 0.000000
# 2 -0.000303 0.012856 -0.004202 0.000000 0.000000 0.000000
# 3 -0.003838 -0.004202 0.019225 0.000000 0.000000 0.000000
# 4 0.000000 0.000000 0.000000 0.035319 0.000000 0.000000
# 5 0.000000 0.000000 0.000000 0.000000 0.041415 0.000000
# 6 0.000000 0.000000 0.000000 0.000000 0.000000 0.021792
#
#
# Mechanical properties :
#
#
# Convention : Reuss Voigt Hill
#
# Bulk Modulus (GPa) = 38.42702 39.33621 38.88161
# Shear Modulus (GPa) = 30.01260 32.69264 31.35262
#
# Velocity S-wave (km/s) = 3.86594 4.03486 3.95130
# Velocity P-wave (km/s) = 6.25003 6.42613 6.33869
#
# Compressibility (1/GPa) = 0.02602336
#
# Stress axis : x y z
#
# Youngs Moduli (GPa) = 94.08083 77.78362 52.01682
#
# Poissons Ratio (x) = 0.02356 0.19965
# Poissons Ratio (y) = 0.02850 0.21858
# Poissons Ratio (z) = 0.36110 0.32686
#
# Static dielectric constant tensor:
#      x y z
#    x 1.919680 0.000000 0.000000 
#    y 0.000000 1.759900 0.000000 
#    z 0.000000 0.000000 1.735230 
# 
# From -- ./inp_files/31591.got.cif
#   From: 2010.05.17/outbox.cif.g08.bks.cpg/sg52_16_cif.got.tgz:31591.got - 2010.06.03 12:15:38.
