data_PCOD9413209
_publ_section_title
;
Structure prediction by ZEFSAII (Michael W. Deem and Ramdas Pophale) SiO2 
 PCOD9413209
Probable space group: P N N A
;
_chemical_formula_sum "Si O2"
_cell_formula_units_Z 64
_cell_length_a 8.921310
_cell_length_b 14.530018
_cell_length_c 25.593014
_cell_angle_alpha 90.000000
_cell_angle_beta 90.000000
_cell_angle_gamma 90.000000
_cell_volume 3317.540376
_symmetry_space_group_name_H-M "P N N A"
_symmetry_group_IT_number 52
_symmetry_cell_setting 'orthorhombic'
loop_
_space_group_symop_operation_xyz
x,y,z
1/2-x,-y,z
x,1/2-y,1/2-z
1/2-x,1/2+y,1/2-z
-x,-y,-z
1/2+x,y,-z
-x,1/2+y,1/2+z
1/2+x,1/2-y,1/2+z
loop_
_atom_site_type_symbol
_atom_site_label
_atom_site_fract_x
_atom_site_fract_y
_atom_site_fract_z
Si Si1 0.899475 0.852083 0.094360
Si Si2 0.437326 0.858992 0.357186
Si Si3 0.947829 0.162622 0.119410
Si Si4 0.428339 0.005472 0.165637
Si Si5 0.384299 0.926507 0.020375
Si Si6 0.570811 0.980079 0.716476
Si Si7 0.574089 0.991589 0.554984
Si Si8 0.422061 0.329815 0.131420
O O1 0.727719 0.854838 0.112482
O O2 0.988220 0.938168 0.120063
O O3 0.994077 0.765222 0.117518
O O4 0.876733 0.860222 0.031126
O O5 0.528862 0.767423 0.365663
O O6 0.467024 0.927601 0.405256
O O7 0.260070 0.827771 0.359935
O O8 0.483536 0.922429 0.307647
O O9 0.048479 0.131432 0.068835
O O10 0.010402 0.097539 0.164437
O O11 0.461363 0.042301 0.223556
O O12 0.250000 0.000000 0.157849
O O13 0.250000 0.000000 0.032887
O O14 0.500000 0.000000 0.000000
O O15 0.526983 0.892887 0.680642
O O16 0.750000 0.000000 0.711768
O O17 0.750000 0.000000 0.548119
O O18 0.500000 0.000000 0.500000
O O19 0.544965 0.894566 0.582047
#
# Coordination Sequence:
#
# PCOD9413209 Si02
#       8
#     8   8   8   8   8   8   8   8
#     4  12  25  40  58  91 124 156 197 248 300 363
#     4   9  20  39  62  86 117 156 201 245 292 352
#     4  12  25  39  59  90 124 157 199 245 302 363
#     4  11  22  39  66  88 114 156 204 250 301 353
#     4  12  24  43  62  82 122 166 203 246 295 352
#     4   8  18  41  66  89 115 154 204 255 292 348
#     4   9  19  36  56  82 115 154 196 243 290 344
#     4   9  20  39  62  85 118 156 201 246 295 348
#
# _framework density 19.291401
#
# number of rings (size 3 to 8) (size 9 to 14) (size 15 to 20)
#    0.000    1.750    2.500    3.000    3.500    2.000 
#    0.000    9.375    0.000    0.000    0.000    0.000 
#    0.000    0.000    0.000    0.000    0.000    0.000 
#
# Total GULP energy -356353.383208 kJ/mol
# GULP energy per Si atom -5568.021613 kJ/mol
# Density = 1.924749 g / cm^3
# Si number density = 19.291401 Si / 1000 Ang^3
#
#
#
# Elastic Constant Matrix: (Units=GPa)
#
#
# Indices 1 2 3 4 5 6 
#
# 1 49.8872 25.3505 19.5834 0.0000 0.0000 0.0000
# 2 25.3505 74.6036 6.5950 0.0000 0.0000 0.0000
# 3 19.5834 6.5950 95.2477 0.0000 0.0000 0.0000
# 4 0.0000 0.0000 0.0000 14.7789 0.0000 0.0000
# 5 0.0000 0.0000 0.0000 0.0000 15.6581 0.0000
# 6 0.0000 0.0000 0.0000 0.0000 0.0000 23.7372
#
#
#
# Elastic Compliance Matrix: (Units=1/GPa)
#
#
# Indices 1 2 3 4 5 6 
#
# 1 0.026249 -0.008495 -0.004809 0.000000 0.000000 0.000000
# 2 -0.008495 0.016236 0.000622 0.000000 0.000000 0.000000
# 3 -0.004809 0.000622 0.011445 0.000000 0.000000 0.000000
# 4 0.000000 0.000000 0.000000 0.067664 0.000000 0.000000
# 5 0.000000 0.000000 0.000000 0.000000 0.063865 0.000000
# 6 0.000000 0.000000 0.000000 0.000000 0.000000 0.042128
#
#
# Mechanical properties :
#
#
# Convention : Reuss Voigt Hill
#
# Bulk Modulus (GPa) = 35.00467 35.86624 35.43545
# Shear Modulus (GPa) = 19.04972 22.04881 20.54927
#
# Velocity S-wave (km/s) = 3.14582 3.38440 3.26729
# Velocity P-wave (km/s) = 5.60174 5.82275 5.71331
#
# Compressibility (1/GPa) = 0.02856762
#
# Stress axis : x y z
#
# Youngs Moduli (GPa) = 38.09597 61.59290 87.37764
#
# Poissons Ratio (x) = 0.52320 0.42019
# Poissons Ratio (y) = 0.32361 -0.05438
# Poissons Ratio (z) = 0.18320 -0.03833
#
# Static dielectric constant tensor:
#      x y z
#    x 1.637010 0.000000 0.000000 
#    y 0.000000 1.661230 0.000000 
#    z 0.000000 0.000000 0.947720 
# 
# From -- ./inp_files/39674.got.cif
#   From: 2010.05.17/outbox.cif.g08.bks.cpg/sg52_20_cif.got.tgz:39674.got - 2010.06.03 12:15:38.
