data_PCOD9413355
_publ_section_title
;
Structure prediction by ZEFSAII (Michael W. Deem and Ramdas Pophale) SiO2 
 PCOD9413355
Probable space group: P N N A
;
_chemical_formula_sum "Si O2"
_cell_formula_units_Z 56
_cell_length_a 11.069161
_cell_length_b 20.071254
_cell_length_c 12.442473
_cell_angle_alpha 90.000000
_cell_angle_beta 90.000000
_cell_angle_gamma 90.000000
_cell_volume 2764.368390
_symmetry_space_group_name_H-M "P N N A"
_symmetry_group_IT_number 52
_symmetry_cell_setting 'orthorhombic'
loop_
_space_group_symop_operation_xyz
x,y,z
1/2-x,-y,z
x,1/2-y,1/2-z
1/2-x,1/2+y,1/2-z
-x,-y,-z
1/2+x,y,-z
-x,1/2+y,1/2+z
1/2+x,1/2-y,1/2+z
loop_
_atom_site_type_symbol
_atom_site_label
_atom_site_fract_x
_atom_site_fract_y
_atom_site_fract_z
Si Si1 0.250000 0.770136 0.914933
Si Si2 0.503138 0.922219 0.372603
Si Si3 0.890970 0.675891 0.714516
Si Si4 0.003137 0.077781 0.627396
Si Si5 0.750000 0.134915 0.280312
Si Si6 0.390969 0.324109 0.285484
Si Si7 1.000000 0.190991 1.000000
O O1 0.250000 0.837985 0.842561
O O2 0.250000 0.704554 0.843801
O O3 0.376052 0.769108 0.979183
O O4 0.123949 0.769108 0.979184
O O5 0.411090 0.874244 0.311559
O O6 0.500000 0.908886 0.500000
O O7 0.632129 0.904825 0.318747
O O8 0.475408 0.000000 0.356996
O O9 0.933217 0.750000 0.750000
O O10 0.750000 0.679642 0.687397
O O11 0.967625 0.653792 0.610516
O O12 0.911089 0.125756 0.688440
O O13 0.132128 0.095175 0.681253
O O14 0.433217 0.250000 0.250000
O O15 0.467625 0.346208 0.389484
#
# Coordination Sequence:
#
# PCOD9413355 Si02
#       7
#     8   8   8   8   8   8   8
#     4  11  24  38  70 102 138 169 230 282 345 394
#     4  11  26  44  67  98 137 179 222 274 339 411
#     4  11  25  41  67 101 136 176 225 282 340 401
#     4  11  26  44  67  98 137 179 222 274 339 411
#     4  11  23  42  67  97 131 178 223 281 328 407
#     4  11  25  41  67 101 136 176 225 282 340 401
#     4  12  22  42  63 102 135 174 220 284 344 396
#
# _framework density 20.257792999999999
#
# number of rings (size 3 to 8) (size 9 to 14) (size 15 to 20)
#    0.000    0.857    4.286    2.143   10.000    0.571 
#    0.000    0.714    0.000    0.000    0.000    0.000 
#    0.000    0.000    0.000    0.000    0.000    0.000 
#
# Total GULP energy -312799.735650 kJ/mol
# GULP energy per Si atom -5585.709565 kJ/mol
# Density = 2.021169 g / cm^3
# Si number density = 20.257793 Si / 1000 Ang^3
#
#
#
# Elastic Constant Matrix: (Units=GPa)
#
#
# Indices 1 2 3 4 5 6 
#
# 1 104.7062 12.9175 26.6791 0.0000 0.0000 0.0000
# 2 12.9175 98.7642 63.2062 0.0000 0.0000 0.0000
# 3 26.6791 63.2062 114.1733 0.0000 0.0000 0.0000
# 4 0.0000 0.0000 0.0000 25.7954 0.0000 0.0000
# 5 0.0000 0.0000 0.0000 0.0000 27.6122 0.0000
# 6 0.0000 0.0000 0.0000 0.0000 0.0000 20.9713
#
#
#
# Elastic Compliance Matrix: (Units=1/GPa)
#
#
# Indices 1 2 3 4 5 6 
#
# 1 0.010161 0.000295 -0.002538 0.000000 0.000000 0.000000
# 2 0.000295 0.015689 -0.008754 0.000000 0.000000 0.000000
# 3 -0.002538 -0.008754 0.014198 0.000000 0.000000 0.000000
# 4 0.000000 0.000000 0.000000 0.038767 0.000000 0.000000
# 5 0.000000 0.000000 0.000000 0.000000 0.036216 0.000000
# 6 0.000000 0.000000 0.000000 0.000000 0.000000 0.047684
#
#
# Mechanical properties :
#
#
# Convention : Reuss Voigt Hill
#
# Bulk Modulus (GPa) = 55.38970 58.13881 56.76425
# Shear Modulus (GPa) = 26.21556 29.19851 27.70704
#
# Velocity S-wave (km/s) = 3.60126 3.80063 3.70229
# Velocity P-wave (km/s) = 6.68535 6.92975 6.80865
#
# Compressibility (1/GPa) = 0.01805390
#
# Stress axis : x y z
#
# Youngs Moduli (GPa) = 98.41825 63.73859 70.43243
#
# Poissons Ratio (x) = -0.01881 0.17873
# Poissons Ratio (y) = -0.02904 0.61659
# Poissons Ratio (z) = 0.24975 0.55799
#
# Static dielectric constant tensor:
#      x y z
#    x 1.749470 0.000000 0.000000 
#    y 0.000000 1.673260 0.000000 
#    z 0.000000 0.000000 1.780770 
# 
# From -- ./inp_files/18340.got.cif
#   From: 2010.05.17/outbox.cif.g08.bks.cpg/sg52_10_cif.got.tgz:18340.got - 2010.06.03 12:15:38.
