data_PCOD9413459
_publ_section_title
;
Structure prediction by ZEFSAII (Michael W. Deem and Ramdas Pophale) SiO2 
 PCOD9413459
Probable space group: P N N A
;
_chemical_formula_sum "Si O2"
_cell_formula_units_Z 32
_cell_length_a 28.519561
_cell_length_b 6.690946
_cell_length_c 7.800746
_cell_angle_alpha 90.000000
_cell_angle_beta 90.000000
_cell_angle_gamma 90.000000
_cell_volume 1488.560526
_symmetry_space_group_name_H-M "P N N A"
_symmetry_group_IT_number 52
_symmetry_cell_setting 'orthorhombic'
loop_
_space_group_symop_operation_xyz
x,y,z
1/2-x,-y,z
x,1/2-y,1/2-z
1/2-x,1/2+y,1/2-z
-x,-y,-z
1/2+x,y,-z
-x,1/2+y,1/2+z
1/2+x,1/2-y,1/2+z
loop_
_atom_site_type_symbol
_atom_site_label
_atom_site_fract_x
_atom_site_fract_y
_atom_site_fract_z
Si Si1 0.581630 0.517752 0.055252
Si Si2 0.509571 0.217769 0.934770
Si Si3 0.633116 0.750000 0.750000
Si Si4 0.802098 0.588736 0.594433
Si Si5 0.651191 0.250000 0.250000
O O1 0.540950 0.680045 0.081261
O O2 0.620646 0.445002 0.190232
O O3 0.547994 0.323807 0.049728
O O4 0.604896 0.604840 0.880982
O O5 0.531959 0.250000 0.750000
O O6 0.500000 0.000000 0.000000
O O7 0.664223 0.597165 0.639447
O O8 0.750000 0.500000 0.579650
O O9 0.804033 0.750000 0.750000
O O10 0.819154 0.689507 0.417654
#
# Coordination Sequence:
#
# PCOD9413459 Si02
#       5
#     8   8   4   8   4
#     4  11  26  43  67 113 142 200 255 307 368 440
#     4  11  24  42  68  97 155 198 248 310 367 432
#     4  12  26  45  82 102 150 200 252 307 378 456
#     4  12  28  53  79 114 151 193 244 316 388 456
#     4  12  28  47  80 114 150 190 260 307 372 454
#
# _framework density 21.49728
#
# number of rings (size 3 to 8) (size 9 to 14) (size 15 to 20)
#    0.000    0.500    3.750    3.000   10.500    7.000 
#    0.000    0.000    0.000    0.000    0.000    0.000 
#    0.000    0.000    0.000    0.000    0.000    0.000 
#
# Total GULP energy -178582.182970 kJ/mol
# GULP energy per Si atom -5580.693218 kJ/mol
# Density = 2.144835 g / cm^3
# Si number density = 21.497280 Si / 1000 Ang^3
#
#
#
# Elastic Constant Matrix: (Units=GPa)
#
#
# Indices 1 2 3 4 5 6 
#
# 1 113.4930 46.1332 70.3143 0.0000 0.0000 0.0000
# 2 46.1332 126.0304 62.7905 0.0000 0.0000 0.0000
# 3 70.3143 62.7905 160.6196 0.0000 0.0000 0.0000
# 4 0.0000 0.0000 0.0000 45.7797 0.0000 0.0000
# 5 0.0000 0.0000 0.0000 0.0000 35.0757 0.0000
# 6 0.0000 0.0000 0.0000 0.0000 0.0000 76.2086
#
#
#
# Elastic Compliance Matrix: (Units=1/GPa)
#
#
# Indices 1 2 3 4 5 6 
#
# 1 0.012613 -0.002317 -0.004616 0.000000 0.000000 0.000000
# 2 -0.002317 0.010280 -0.003004 0.000000 0.000000 0.000000
# 3 -0.004616 -0.003004 0.009421 0.000000 0.000000 0.000000
# 4 0.000000 0.000000 0.000000 0.021844 0.000000 0.000000
# 5 0.000000 0.000000 0.000000 0.000000 0.028510 0.000000
# 6 0.000000 0.000000 0.000000 0.000000 0.000000 0.013122
#
#
# Mechanical properties :
#
#
# Convention : Reuss Voigt Hill
#
# Bulk Modulus (GPa) = 80.39160 84.29100 82.34130
# Shear Modulus (GPa) = 41.73327 46.13980 43.93653
#
# Velocity S-wave (km/s) = 4.41083 4.63785 4.52577
# Velocity P-wave (km/s) = 7.96354 8.24468 8.10533
#
# Compressibility (1/GPa) = 0.01243911
#
# Stress axis : x y z
#
# Youngs Moduli (GPa) = 79.28588 97.28068 106.14802
#
# Poissons Ratio (x) = 0.22543 0.48993
# Poissons Ratio (y) = 0.18373 0.31888
# Poissons Ratio (z) = 0.36595 0.29224
#
# Static dielectric constant tensor:
#      x y z
#    x 1.725000 0.000000 0.000000 
#    y 0.000000 1.832280 0.000000 
#    z 0.000000 0.000000 1.848260 
# 
# From -- ./inp_files/15199.got.cif
#   From: 2010.05.17/outbox.cif.g08.bks.cpg/sg52_8_cif.got.tgz:15199.got - 2010.06.03 12:15:38.
