data_PCOD9413984
_publ_section_title
;
Structure prediction by ZEFSAII (Michael W. Deem and Ramdas Pophale) SiO2 
 PCOD9413984
Probable space group: P N N A
;
_chemical_formula_sum "Si O2"
_cell_formula_units_Z 36
_cell_length_a 9.000000
_cell_length_b 21.000000
_cell_length_c 9.000000
_cell_angle_alpha 90.000000
_cell_angle_beta 90.000000
_cell_angle_gamma 90.000000
_cell_volume 1701.000000
_symmetry_space_group_name_H-M "P N N A"
_symmetry_group_IT_number 52
_symmetry_cell_setting 'orthorhombic'
loop_
_space_group_symop_operation_xyz
x,y,z
1/2-x,-y,z
x,1/2-y,1/2-z
1/2-x,1/2+y,1/2-z
-x,-y,-z
1/2+x,y,-z
-x,1/2+y,1/2+z
1/2+x,1/2-y,1/2+z
loop_
_atom_site_type_symbol
_atom_site_label
_atom_site_fract_x
_atom_site_fract_y
_atom_site_fract_z
Si Si1 0.305325 0.373019 0.022390
Si Si2 0.222411 0.430366 0.305765
Si Si3 0.250000 0.000000 0.671019
Si Si4 0.908220 0.682510 0.187250
Si Si5 0.445349 0.924172 0.896647
O O1 0.201659 0.383966 0.167829
O O2 0.463241 0.353217 0.091970
O O3 0.301437 0.439218 0.927966
O O4 0.235687 0.319227 0.917531
O O5 0.250000 0.500000 0.238742
O O6 0.103551 0.434813 0.435605
O O7 0.378999 0.415666 0.384843
O O8 0.381201 0.976556 0.781377
O O9 0.956168 0.750000 0.250000
O O10 0.874722 0.639883 0.331204
#
# Coordination Sequence:
#
# PCOD9413984 Si02
#       5
#     8   8   4   8   8
#     4  10  23  39  68  89 126 162 207 260 311 374
#     4  11  21  35  57  94 122 159 195 250 312 372
#     4  10  20  38  60  96 124 160 202 260 324 358
#     4  10  24  44  61  90 122 168 212 252 304 372
#     4  10  23  35  59  88 129 156 203 254 303 367
#
# _framework density 21.164021000000002
#
# number of rings (size 3 to 8) (size 9 to 14) (size 15 to 20)
#    0.000    1.778    2.222    0.667    3.111    8.000 
#    0.000    1.111    0.000    0.000    0.000    0.000 
#    0.000    0.000    0.000    0.000    0.000    0.000 
#
# Total GULP energy -200862.413912 kJ/mol
# GULP energy per Si atom -5579.511498 kJ/mol
# Density = 2.111585 g / cm^3
# Si number density = 21.164021 Si / 1000 Ang^3
#
#
#
# Elastic Constant Matrix: (Units=GPa)
#
#
# Indices 1 2 3 4 5 6 
#
# 1 33.7750 19.9550 17.3631 0.0000 0.0000 0.0000
# 2 19.9550 68.8069 51.2033 0.0000 0.0000 0.0000
# 3 17.3631 51.2033 87.1070 0.0000 0.0000 0.0000
# 4 0.0000 0.0000 0.0000 19.9954 0.0000 0.0000
# 5 0.0000 0.0000 0.0000 0.0000 23.8638 0.0000
# 6 0.0000 0.0000 0.0000 0.0000 0.0000 16.4509
#
#
#
# Elastic Compliance Matrix: (Units=1/GPa)
#
#
# Indices 1 2 3 4 5 6 
#
# 1 0.035895 -0.009040 -0.001841 0.000000 0.000000 0.000000
# 2 -0.009040 0.028111 -0.014722 0.000000 0.000000 0.000000
# 3 -0.001841 -0.014722 0.020501 0.000000 0.000000 0.000000
# 4 0.000000 0.000000 0.000000 0.050012 0.000000 0.000000
# 5 0.000000 0.000000 0.000000 0.000000 0.041905 0.000000
# 6 0.000000 0.000000 0.000000 0.000000 0.000000 0.060787
#
#
# Mechanical properties :
#
#
# Convention : Reuss Voigt Hill
#
# Bulk Modulus (GPa) = 30.02954 40.74797 35.38875
# Shear Modulus (GPa) = 16.69352 18.80650 17.75001
#
# Velocity S-wave (km/s) = 2.81155 2.98419 2.89915
# Velocity P-wave (km/s) = 4.97589 5.58292 5.28813
#
# Compressibility (1/GPa) = 0.03330055
#
# Stress axis : x y z
#
# Youngs Moduli (GPa) = 27.85879 35.57343 48.77782
#
# Poissons Ratio (x) = 0.32159 0.08980
# Poissons Ratio (y) = 0.25185 0.71812
# Poissons Ratio (z) = 0.05129 0.52372
#
# Static dielectric constant tensor:
#      x y z
#    x 1.784110 0.000000 0.000000 
#    y 0.000000 1.805620 0.000000 
#    z 0.000000 0.000000 1.741060 
# 
# From -- ./inp_files/7280.got.cif
#   From: 2010.05.17/outbox.ucp.g08.bks.cvg/sg52_4_cif.got.tgz:7280.got - 2010.06.11 16:30:12.
