data_PCOD9413128
_publ_section_title
;
Structure prediction by ZEFSAII (Michael W. Deem and Ramdas Pophale) SiO2 
 PCOD9413128
Probable space group: P N N A
;
_chemical_formula_sum "Si O2"
_cell_formula_units_Z 60
_cell_length_a 8.950421
_cell_length_b 18.265875
_cell_length_c 16.709532
_cell_angle_alpha 90.000000
_cell_angle_beta 90.000000
_cell_angle_gamma 90.000000
_cell_volume 2731.795789
_symmetry_space_group_name_H-M "P N N A"
_symmetry_group_IT_number 52
_symmetry_cell_setting 'orthorhombic'
loop_
_space_group_symop_operation_xyz
x,y,z
1/2-x,-y,z
x,1/2-y,1/2-z
1/2-x,1/2+y,1/2-z
-x,-y,-z
1/2+x,y,-z
-x,1/2+y,1/2+z
1/2+x,1/2-y,1/2+z
loop_
_atom_site_type_symbol
_atom_site_label
_atom_site_fract_x
_atom_site_fract_y
_atom_site_fract_z
Si Si1 0.169495 0.750000 0.250000
Si Si2 0.628911 0.604714 0.357784
Si Si3 0.624576 0.243080 0.003771
Si Si4 0.602493 0.345877 0.857832
Si Si5 0.633233 0.865314 0.966334
Si Si6 0.021310 0.384211 0.689935
Si Si7 0.413645 0.983927 0.259057
Si Si8 0.315719 0.260863 0.837508
O O1 0.279728 0.700460 0.195394
O O2 0.059834 0.692807 0.293717
O O3 0.626746 0.588381 0.452014
O O4 0.802979 0.608459 0.329979
O O5 0.522721 0.556870 0.303144
O O6 0.580698 0.689383 0.349762
O O7 0.465161 0.209051 0.024289
O O8 0.705302 0.261419 0.087751
O O9 0.622649 0.313381 0.946764
O O10 0.705101 0.172535 0.962446
O O11 0.614773 0.431166 0.834778
O O12 0.430602 0.326990 0.836232
O O13 0.566466 0.907489 0.891127
O O14 0.988192 0.436386 0.765501
O O15 0.250000 0.000000 0.224926
O O16 0.245874 0.250000 0.750000
#
# Coordination Sequence:
#
# PCOD9413128 Si02
#       8
#     4   8   8   8   8   8   8   8
#     4  12  24  38  72 106 134 184 254 320 356 430
#     4  11  24  43  66 103 149 184 241 311 377 445
#     4  11  22  39  67 111 145 181 235 315 371 436
#     4  12  22  42  69 108 146 190 240 306 368 439
#     4  11  22  39  67 104 148 182 236 308 379 439
#     4  12  26  42  66 104 143 187 246 311 374 451
#     4  12  27  44  67 100 143 204 240 288 371 458
#     4  11  21  39  74 106 137 184 243 306 376 429
#
# _framework density 21.963574999999999
#
# number of rings (size 3 to 8) (size 9 to 14) (size 15 to 20)
#    0.000    0.533   10.000    0.400    2.800    0.533 
#    0.000    0.000    0.000    0.800    0.000    0.000 
#    0.000    0.000    0.000    0.000    0.000    0.000 
#
# Total GULP energy -334834.697441 kJ/mol
# GULP energy per Si atom -5580.578291 kJ/mol
# Density = 2.191358 g / cm^3
# Si number density = 21.963575 Si / 1000 Ang^3
#
#
#
# Elastic Constant Matrix: (Units=GPa)
#
#
# Indices 1 2 3 4 5 6 
#
# 1 92.5193 6.8694 32.9567 0.0000 0.0000 0.0000
# 2 6.8694 66.3807 22.9271 0.0000 0.0000 0.0000
# 3 32.9567 22.9271 116.4869 0.0000 0.0000 0.0000
# 4 0.0000 0.0000 0.0000 32.6065 0.0000 0.0000
# 5 0.0000 0.0000 0.0000 0.0000 28.7761 0.0000
# 6 0.0000 0.0000 0.0000 0.0000 0.0000 31.3809
#
#
#
# Elastic Compliance Matrix: (Units=1/GPa)
#
#
# Indices 1 2 3 4 5 6 
#
# 1 0.012020 -0.000074 -0.003386 0.000000 0.000000 0.000000
# 2 -0.000074 0.016164 -0.003160 0.000000 0.000000 0.000000
# 3 -0.003386 -0.003160 0.010165 0.000000 0.000000 0.000000
# 4 0.000000 0.000000 0.000000 0.030669 0.000000 0.000000
# 5 0.000000 0.000000 0.000000 0.000000 0.034751 0.000000
# 6 0.000000 0.000000 0.000000 0.000000 0.000000 0.031866
#
#
# Mechanical properties :
#
#
# Convention : Reuss Voigt Hill
#
# Bulk Modulus (GPa) = 39.82941 44.54370 42.18655
# Shear Modulus (GPa) = 31.79732 32.72828 32.26280
#
# Velocity S-wave (km/s) = 3.80903 3.86439 3.83681
# Velocity P-wave (km/s) = 6.12525 6.34319 6.23517
#
# Compressibility (1/GPa) = 0.02510707
#
# Stress axis : x y z
#
# Youngs Moduli (GPa) = 83.19278 61.86638 98.37968
#
# Poissons Ratio (x) = 0.00460 0.33313
# Poissons Ratio (y) = 0.00619 0.31091
# Poissons Ratio (z) = 0.28170 0.19552
#
# Static dielectric constant tensor:
#      x y z
#    x 1.834670 0.000000 0.000000 
#    y 0.000000 1.886620 0.000000 
#    z 0.000000 0.000000 1.882790 
# 
# From -- ./inp_files/31487.got.cif
#   From: 2010.05.17/outbox.cif.g08.bks.cpg/sg52_16_cif.got.tgz:31487.got - 2010.06.03 12:15:38.
