data_PCOD9413543
_publ_section_title
;
Structure prediction by ZEFSAII (Michael W. Deem and Ramdas Pophale) SiO2 
 PCOD9413543
Probable space group: P N N A
;
_chemical_formula_sum "Si O2"
_cell_formula_units_Z 32
_cell_length_a 8.496090
_cell_length_b 10.601484
_cell_length_c 12.042691
_cell_angle_alpha 90.000000
_cell_angle_beta 90.000000
_cell_angle_gamma 90.000000
_cell_volume 1084.699174
_symmetry_space_group_name_H-M "P N N A"
_symmetry_group_IT_number 52
_symmetry_cell_setting 'orthorhombic'
loop_
_space_group_symop_operation_xyz
x,y,z
1/2-x,-y,z
x,1/2-y,1/2-z
1/2-x,1/2+y,1/2-z
-x,-y,-z
1/2+x,y,-z
-x,1/2+y,1/2+z
1/2+x,1/2-y,1/2+z
loop_
_atom_site_type_symbol
_atom_site_label
_atom_site_fract_x
_atom_site_fract_y
_atom_site_fract_z
Si Si1 0.347478 0.627229 0.365770
Si Si2 0.920204 0.544752 0.876509
Si Si3 0.561418 0.764995 0.978339
Si Si4 0.642388 0.380263 0.277161
O O1 0.250000 0.500000 0.387632
O O2 0.374451 0.624401 0.234492
O O3 0.515569 0.638357 0.423663
O O4 0.238208 0.726557 0.432922
O O5 0.750000 0.500000 0.918472
O O6 0.982902 0.368620 0.037367
O O7 0.024858 0.432574 0.819898
O O8 0.463653 0.826389 0.876505
O O9 0.750000 0.500000 0.298125
O O10 0.734423 0.250000 0.250000
#
# Coordination Sequence:
#
# PCOD9413543 Si02
#       4
#     8   8   8   8
#     4  11  24  47  78 130 171 232 302 374 460 568
#     4  11  27  53  85 130 182 243 311 387 465 567
#     4  12  27  48  89 123 180 237 305 381 477 538
#     4  12  31  56  87 135 183 241 315 390 465 566
#
# _framework density 29.501268
#
# number of rings (size 3 to 8) (size 9 to 14) (size 15 to 20)
#    0.000    0.500    5.000    2.250   10.500    2.000 
#    0.000    0.000    0.000    0.000    0.000    0.000 
#    0.000    0.000    0.000    0.000    0.000    0.000 
#
# Total GULP energy -179341.429106 kJ/mol
# GULP energy per Si atom -5604.419660 kJ/mol
# Density = 2.943412 g / cm^3
# Si number density = 29.501268 Si / 1000 Ang^3
#
#
#
# Elastic Constant Matrix: (Units=GPa)
#
#
# Indices 1 2 3 4 5 6 
#
# 1 155.6439 99.6743 104.8211 0.0000 0.0000 0.0000
# 2 99.6743 279.7731 78.2057 0.0000 0.0000 0.0000
# 3 104.8211 78.2057 231.4451 0.0000 0.0000 0.0000
# 4 0.0000 0.0000 0.0000 71.5361 0.0000 0.0000
# 5 0.0000 0.0000 0.0000 0.0000 73.0253 0.0000
# 6 0.0000 0.0000 0.0000 0.0000 0.0000 63.1702
#
#
#
# Elastic Compliance Matrix: (Units=1/GPa)
#
#
# Indices 1 2 3 4 5 6 
#
# 1 0.010884 -0.002761 -0.003997 0.000000 0.000000 0.000000
# 2 -0.002761 0.004647 -0.000320 0.000000 0.000000 0.000000
# 3 -0.003997 -0.000320 0.006239 0.000000 0.000000 0.000000
# 4 0.000000 0.000000 0.000000 0.013979 0.000000 0.000000
# 5 0.000000 0.000000 0.000000 0.000000 0.013694 0.000000
# 6 0.000000 0.000000 0.000000 0.000000 0.000000 0.015830
#
#
# Mechanical properties :
#
#
# Convention : Reuss Voigt Hill
#
# Bulk Modulus (GPa) = 131.30375 136.91825 134.11100
# Shear Modulus (GPa) = 60.99994 67.15705 64.07850
#
# Velocity S-wave (km/s) = 4.55214 4.77635 4.66559
# Velocity P-wave (km/s) = 8.49904 8.77096 8.63607
#
# Compressibility (1/GPa) = 0.00761593
#
# Stress axis : x y z
#
# Youngs Moduli (GPa) = 91.87394 215.17874 160.28312
#
# Poissons Ratio (x) = 0.59402 0.64061
# Poissons Ratio (y) = 0.25362 0.05130
# Poissons Ratio (z) = 0.36720 0.06887
#
# Static dielectric constant tensor:
#      x y z
#    x 2.237240 0.000000 0.000000 
#    y 0.000000 2.545190 0.000000 
#    z 0.000000 0.000000 2.313710 
# 
# From -- ./inp_files/24159.got.cif
#   From: 2010.05.17/outbox.cif.g08.bks.cpg/sg52_13_cif.got.tgz:24159.got - 2010.06.03 12:15:38.
