data_PCOD9413314
_publ_section_title
;
Structure prediction by ZEFSAII (Michael W. Deem and Ramdas Pophale) SiO2 
 PCOD9413314
Probable space group: P N N A
;
_chemical_formula_sum "Si O2"
_cell_formula_units_Z 40
_cell_length_a 23.890712
_cell_length_b 5.454154
_cell_length_c 13.318931
_cell_angle_alpha 90.000000
_cell_angle_beta 90.000000
_cell_angle_gamma 90.000000
_cell_volume 1735.504956
_symmetry_space_group_name_H-M "P N N A"
_symmetry_group_IT_number 52
_symmetry_cell_setting 'orthorhombic'
loop_
_space_group_symop_operation_xyz
x,y,z
1/2-x,-y,z
x,1/2-y,1/2-z
1/2-x,1/2+y,1/2-z
-x,-y,-z
1/2+x,y,-z
-x,1/2+y,1/2+z
1/2+x,1/2-y,1/2+z
loop_
_atom_site_type_symbol
_atom_site_label
_atom_site_fract_x
_atom_site_fract_y
_atom_site_fract_z
Si Si1 0.924145 0.502376 0.685057
Si Si2 0.786465 0.287250 0.138879
Si Si3 0.101913 0.077832 0.657099
Si Si4 0.019737 0.788382 0.577227
Si Si5 0.368958 0.501895 0.513164
O O1 0.917178 0.750000 0.750000
O O2 0.872110 0.485964 0.606880
O O3 0.977249 0.578775 0.612725
O O4 0.929404 0.250000 0.750000
O O5 0.750000 0.500000 0.086544
O O6 0.759241 0.250000 0.250000
O O7 0.845564 0.405011 0.165321
O O8 0.810156 0.068332 0.067853
O O9 0.107602 0.250000 0.750000
O O10 0.111142 0.236458 0.556231
O O11 0.041523 0.954233 0.668623
O O12 0.079484 0.677944 0.543770
O O13 0.000000 0.000000 0.500000
#
# Coordination Sequence:
#
# PCOD9413314 Si02
#       5
#     8   8   8   8   8
#     4  12  28  44  68 102 143 200 254 299 343 413
#     4  11  24  42  69 105 138 174 224 290 370 452
#     4  11  23  39  64  97 140 185 229 287 358 431
#     4  11  24  40  63  96 144 190 242 293 346 417
#     4  11  25  43  63  99 140 186 232 297 354 423
#
# _framework density 23.048044999999998
#
# number of rings (size 3 to 8) (size 9 to 14) (size 15 to 20)
#    0.000    0.800    4.000    2.400    8.400    0.000 
#    0.000    0.000    0.000    0.000    5.200    0.000 
#    0.000    0.000    0.000    0.000    0.000    0.000 
#
# Total GULP energy -223014.944221 kJ/mol
# GULP energy per Si atom -5575.373606 kJ/mol
# Density = 2.299559 g / cm^3
# Si number density = 23.048045 Si / 1000 Ang^3
#
#
#
# Elastic Constant Matrix: (Units=GPa)
#
#
# Indices 1 2 3 4 5 6 
#
# 1 76.3434 31.2651 27.6404 0.0000 0.0000 0.0000
# 2 31.2651 130.4816 38.6109 0.0000 0.0000 0.0000
# 3 27.6404 38.6109 97.5191 0.0000 0.0000 0.0000
# 4 0.0000 0.0000 0.0000 55.4637 0.0000 0.0000
# 5 0.0000 0.0000 0.0000 0.0000 13.6607 0.0000
# 6 0.0000 0.0000 0.0000 0.0000 0.0000 53.6945
#
#
#
# Elastic Compliance Matrix: (Units=1/GPa)
#
#
# Indices 1 2 3 4 5 6 
#
# 1 0.015403 -0.002717 -0.003290 0.000000 0.000000 0.000000
# 2 -0.002717 0.009160 -0.002857 0.000000 0.000000 0.000000
# 3 -0.003290 -0.002857 0.012318 0.000000 0.000000 0.000000
# 4 0.000000 0.000000 0.000000 0.018030 0.000000 0.000000
# 5 0.000000 0.000000 0.000000 0.000000 0.073203 0.000000
# 6 0.000000 0.000000 0.000000 0.000000 0.000000 0.018624
#
#
# Mechanical properties :
#
#
# Convention : Reuss Voigt Hill
#
# Bulk Modulus (GPa) = 52.21006 55.48632 53.84819
# Shear Modulus (GPa) = 29.26557 38.35228 33.80892
#
# Velocity S-wave (km/s) = 3.56724 4.08366 3.83415
# Velocity P-wave (km/s) = 6.29832 6.80893 6.55859
#
# Compressibility (1/GPa) = 0.01915340
#
# Stress axis : x y z
#
# Youngs Moduli (GPa) = 64.92425 109.16656 81.18252
#
# Poissons Ratio (x) = 0.29662 0.26708
# Poissons Ratio (y) = 0.17641 0.23192
# Poissons Ratio (z) = 0.21359 0.31186
#
# Static dielectric constant tensor:
#      x y z
#    x 1.837680 0.000000 0.000000 
#    y 0.000000 2.141790 0.000000 
#    z 0.000000 0.000000 2.004340 
# 
# From -- ./inp_files/29015.got.cif
#   From: 2010.05.17/outbox.cif.g08.bks.cpg/sg52_15_cif.got.tgz:29015.got - 2010.06.03 12:15:38.
