data_PCOD9413404
_publ_section_title
;
Structure prediction by ZEFSAII (Michael W. Deem and Ramdas Pophale) SiO2 
 PCOD9413404
Probable space group: P N N A
;
_chemical_formula_sum "Si O2"
_cell_formula_units_Z 20
_cell_length_a 14.936602
_cell_length_b 7.903012
_cell_length_c 7.327671
_cell_angle_alpha 90.000000
_cell_angle_beta 90.000000
_cell_angle_gamma 90.000000
_cell_volume 864.988657
_symmetry_space_group_name_H-M "P N N A"
_symmetry_group_IT_number 52
_symmetry_cell_setting 'orthorhombic'
loop_
_space_group_symop_operation_xyz
x,y,z
1/2-x,-y,z
x,1/2-y,1/2-z
1/2-x,1/2+y,1/2-z
-x,-y,-z
1/2+x,y,-z
-x,1/2+y,1/2+z
1/2+x,1/2-y,1/2+z
loop_
_atom_site_type_symbol
_atom_site_label
_atom_site_fract_x
_atom_site_fract_y
_atom_site_fract_z
Si Si1 0.692761 0.650921 0.906888
Si Si2 0.993203 0.060698 0.787906
Si Si3 0.608414 0.750000 0.250000
O O1 0.750000 0.500000 0.987112
O O2 0.745866 0.750000 0.750000
O O3 0.606177 0.576781 0.797879
O O4 0.665959 0.776117 0.069137
O O5 0.031136 0.250000 0.750000
O O6 0.048721 0.910830 0.695684
O O7 0.000000 0.000000 0.000000
#
# Coordination Sequence:
#
# PCOD9413404 Si02
#       3
#     8   8   4
#     4  11  26  45  69 105 147 189 239 307 371 436
#     4  11  23  45  74 105 141 191 247 303 366 445
#     4  12  24  48  72 106 138 194 248 294 374 442
#
# _framework density 23.121689
#
# number of rings (size 3 to 8) (size 9 to 14) (size 15 to 20)
#    0.000    0.800    8.000    1.200    2.800    1.600 
#    3.600    0.000    0.000    0.000    0.000    0.000 
#    0.000    0.000    0.000    0.000    0.000    0.000 
#
# Total GULP energy -111559.963691 kJ/mol
# GULP energy per Si atom -5577.998185 kJ/mol
# Density = 2.306906 g / cm^3
# Si number density = 23.121689 Si / 1000 Ang^3
#
#
#
# Elastic Constant Matrix: (Units=GPa)
#
#
# Indices 1 2 3 4 5 6 
#
# 1 25.2109 20.3411 10.2755 0.0000 0.0000 0.0000
# 2 20.3411 145.8073 10.4411 0.0000 0.0000 0.0000
# 3 10.2755 10.4411 140.2545 0.0000 0.0000 0.0000
# 4 0.0000 0.0000 0.0000 42.6184 0.0000 0.0000
# 5 0.0000 0.0000 0.0000 0.0000 0.6745 0.0000
# 6 0.0000 0.0000 0.0000 0.0000 0.0000 38.8448
#
#
#
# Elastic Compliance Matrix: (Units=1/GPa)
#
#
# Indices 1 2 3 4 5 6 
#
# 1 0.045838 -0.006187 -0.002898 0.000000 0.000000 0.000000
# 2 -0.006187 0.007730 -0.000122 0.000000 0.000000 0.000000
# 3 -0.002898 -0.000122 0.007351 0.000000 0.000000 0.000000
# 4 0.000000 0.000000 0.000000 0.023464 0.000000 0.000000
# 5 0.000000 0.000000 0.000000 0.000000 1.482572 0.000000
# 6 0.000000 0.000000 0.000000 0.000000 0.000000 0.025743
#
#
# Mechanical properties :
#
#
# Convention : Reuss Voigt Hill
#
# Bulk Modulus (GPa) = 23.52620 43.70981 33.61800
# Shear Modulus (GPa) = 3.07639 34.44186 18.75913
#
# Velocity S-wave (km/s) = 1.15473 3.86371 2.85146
# Velocity P-wave (km/s) = 3.46048 6.23295 5.04106
#
# Compressibility (1/GPa) = 0.04250581
#
# Stress axis : x y z
#
# Youngs Moduli (GPa) = 21.81573 129.36133 136.03071
#
# Poissons Ratio (x) = 0.80040 0.39417
# Poissons Ratio (y) = 0.13498 0.01662
# Poissons Ratio (z) = 0.06321 0.01580
#
# Static dielectric constant tensor:
#      x y z
#    x 1.889430 0.000000 0.000000 
#    y 0.000000 1.841280 0.000000 
#    z 0.000000 0.000000 2.017240 
# 
# From -- ./inp_files/9213.got.cif
#   From: 2010.05.17/outbox.cif.g08.bks.cpg/sg52_5_cif.got.tgz:9213.got - 2010.06.03 12:15:38.
