data_PCOD9413217
_publ_section_title
;
Structure prediction by ZEFSAII (Michael W. Deem and Ramdas Pophale) SiO2 
 PCOD9413217
Probable space group: P N N A
;
_chemical_formula_sum "Si O2"
_cell_formula_units_Z 24
_cell_length_a 28.678081
_cell_length_b 4.972776
_cell_length_c 7.934462
_cell_angle_alpha 90.000000
_cell_angle_beta 90.000000
_cell_angle_gamma 90.000000
_cell_volume 1131.531031
_symmetry_space_group_name_H-M "P N N A"
_symmetry_group_IT_number 52
_symmetry_cell_setting 'orthorhombic'
loop_
_space_group_symop_operation_xyz
x,y,z
1/2-x,-y,z
x,1/2-y,1/2-z
1/2-x,1/2+y,1/2-z
-x,-y,-z
1/2+x,y,-z
-x,1/2+y,1/2+z
1/2+x,1/2-y,1/2+z
loop_
_atom_site_type_symbol
_atom_site_label
_atom_site_fract_x
_atom_site_fract_y
_atom_site_fract_z
Si Si1 0.452447 0.867655 0.435544
Si Si2 0.100245 0.638943 0.558680
Si Si3 0.699618 0.999663 0.123614
O O1 0.458659 0.750000 0.250000
O O2 0.434306 0.613919 0.543065
O O3 0.500000 0.000000 0.500000
O O4 0.415505 0.110757 0.445344
O O5 0.099459 0.750000 0.750000
O O6 0.152485 0.537463 0.518992
O O7 0.702838 0.750000 0.250000
O O8 0.750000 0.000000 0.033306
O O9 0.693545 0.250000 0.250000
#
# Coordination Sequence:
#
# PCOD9413217 Si02
#       3
#     8   8   8
#     4  12  26  43  61  87 124 164 206 253 309 369
#     4  11  22  40  65  93 122 157 204 254 302 358
#     4   9  17  31  56  92 125 153 193 247 300 353
#
# _framework density 21.210201999999999
#
# number of rings (size 3 to 8) (size 9 to 14) (size 15 to 20)
#    0.000    1.333    0.000    8.000    0.000    2.667 
#    0.000    0.000    0.000    4.000    0.000    2.333 
#    0.000    0.000    0.000    0.000    0.000    0.000 
#
# Total GULP energy -134135.601618 kJ/mol
# GULP energy per Si atom -5588.983401 kJ/mol
# Density = 2.116193 g / cm^3
# Si number density = 21.210202 Si / 1000 Ang^3
#
#
#
# Elastic Constant Matrix: (Units=GPa)
#
#
# Indices 1 2 3 4 5 6 
#
# 1 183.3867 71.3917 61.0275 0.0000 0.0000 0.0000
# 2 71.3917 175.1752 36.1623 0.0000 0.0000 0.0000
# 3 61.0275 36.1623 70.0788 0.0000 0.0000 0.0000
# 4 0.0000 0.0000 0.0000 43.2517 0.0000 0.0000
# 5 0.0000 0.0000 0.0000 0.0000 15.2486 0.0000
# 6 0.0000 0.0000 0.0000 0.0000 0.0000 39.9828
#
#
#
# Elastic Compliance Matrix: (Units=1/GPa)
#
#
# Indices 1 2 3 4 5 6 
#
# 1 0.008328 -0.002123 -0.006157 0.000000 0.000000 0.000000
# 2 -0.002123 0.006930 -0.001727 0.000000 0.000000 0.000000
# 3 -0.006157 -0.001727 0.020523 0.000000 0.000000 0.000000
# 4 0.000000 0.000000 0.000000 0.023120 0.000000 0.000000
# 5 0.000000 0.000000 0.000000 0.000000 0.065580 0.000000
# 6 0.000000 0.000000 0.000000 0.000000 0.000000 0.025011
#
#
# Mechanical properties :
#
#
# Convention : Reuss Voigt Hill
#
# Bulk Modulus (GPa) = 63.42569 85.08931 74.25750
# Shear Modulus (GPa) = 28.61009 37.03391 32.82200
#
# Velocity S-wave (km/s) = 3.67670 4.18310 3.93805
# Velocity P-wave (km/s) = 6.92766 7.97091 7.46752
#
# Compressibility (1/GPa) = 0.01576648
#
# Stress axis : x y z
#
# Youngs Moduli (GPa) = 120.06972 144.29103 48.72606
#
# Poissons Ratio (x) = 0.30636 0.30002
# Poissons Ratio (y) = 0.25493 0.08417
# Poissons Ratio (z) = 0.73929 0.24924
#
# Static dielectric constant tensor:
#      x y z
#    x 1.871540 0.000000 0.000000 
#    y 0.000000 1.733510 0.000000 
#    z 0.000000 0.000000 1.772010 
# 
# From -- ./inp_files/14597.got.cif
#   From: 2010.05.17/outbox.cif.g08.bks.cpg/sg52_8_cif.got.tgz:14597.got - 2010.06.03 12:15:38.
