data_PCOD9413157
_publ_section_title
;
Structure prediction by ZEFSAII (Michael W. Deem and Ramdas Pophale) SiO2 
 PCOD9413157
Probable space group: P N N A
;
_chemical_formula_sum "Si O2"
_cell_formula_units_Z 56
_cell_length_a 16.206256
_cell_length_b 21.765049
_cell_length_c 8.850623
_cell_angle_alpha 90.000000
_cell_angle_beta 90.000000
_cell_angle_gamma 90.000000
_cell_volume 3121.879861
_symmetry_space_group_name_H-M "P N N A"
_symmetry_group_IT_number 52
_symmetry_cell_setting 'orthorhombic'
loop_
_space_group_symop_operation_xyz
x,y,z
1/2-x,-y,z
x,1/2-y,1/2-z
1/2-x,1/2+y,1/2-z
-x,-y,-z
1/2+x,y,-z
-x,1/2+y,1/2+z
1/2+x,1/2-y,1/2+z
loop_
_atom_site_type_symbol
_atom_site_label
_atom_site_fract_x
_atom_site_fract_y
_atom_site_fract_z
Si Si1 0.904702 0.750000 0.250000
Si Si2 0.747839 0.570071 0.623477
Si Si3 0.246752 0.064921 0.616196
Si Si4 0.244216 0.167161 0.859665
Si Si5 0.889358 0.066294 0.636582
Si Si6 0.886589 0.250000 0.250000
Si Si7 0.890475 0.569958 0.876322
Si Si8 0.495962 0.326349 0.991252
O O1 0.841316 0.797198 0.168437
O O2 0.957214 0.716225 0.116490
O O3 0.750000 0.500000 0.564156
O O4 0.759178 0.623225 0.503150
O O5 0.660593 0.577502 0.709377
O O6 0.821654 0.574117 0.745743
O O7 0.259342 0.122857 0.718313
O O8 0.317152 0.061378 0.489022
O O9 0.159631 0.070426 0.533113
O O10 0.250000 0.000000 0.700951
O O11 0.323018 0.211537 0.855114
O O12 0.945048 0.123078 0.588126
O O13 0.930310 0.998160 0.641448
O O14 0.941620 0.211918 0.370345
O O15 0.946599 0.629672 0.887313
#
# Coordination Sequence:
#
# PCOD9413157 Si02
#       8
#     4   8   8   8   8   4   8   8
#     4  11  28  38  60  81 120 162 208 227 296 346
#     4   9  20  37  64  92 115 147 194 246 300 351
#     4   9  16  34  61  82 106 146 192 239 286 346
#     4  11  21  43  55  87 116 159 196 240 280 361
#     4   9  19  37  62  88 112 148 194 243 299 350
#     4  11  28  38  60  81 120 162 208 227 296 346
#     4   9  19  37  62  88 112 148 194 243 299 350
#     4  12  23  42  56  86 119 158 196 252 286 348
#
# _framework density 17.937909000000001
#
# number of rings (size 3 to 8) (size 9 to 14) (size 15 to 20)
#    0.000    2.000    2.857    2.571    4.000    0.000 
#    0.000    1.429    0.000    3.429    0.000    0.000 
#    0.000    0.000    0.000    0.000    0.000    0.000 
#
# Total GULP energy -311905.205527 kJ/mol
# GULP energy per Si atom -5569.735813 kJ/mol
# Density = 1.789708 g / cm^3
# Si number density = 17.937909 Si / 1000 Ang^3
#
#
#
# Elastic Constant Matrix: (Units=GPa)
#
#
# Indices 1 2 3 4 5 6 
#
# 1 76.1556 58.2952 26.2469 0.0000 0.0000 0.0000
# 2 58.2952 123.1764 43.5995 0.0000 0.0000 0.0000
# 3 26.2469 43.5995 71.1345 0.0000 0.0000 0.0000
# 4 0.0000 0.0000 0.0000 39.5591 0.0000 0.0000
# 5 0.0000 0.0000 0.0000 0.0000 11.0723 0.0000
# 6 0.0000 0.0000 0.0000 0.0000 0.0000 20.8442
#
#
#
# Elastic Compliance Matrix: (Units=1/GPa)
#
#
# Indices 1 2 3 4 5 6 
#
# 1 0.020833 -0.009116 -0.002099 0.000000 0.000000 0.000000
# 2 -0.009116 0.014357 -0.005436 0.000000 0.000000 0.000000
# 3 -0.002099 -0.005436 0.018164 0.000000 0.000000 0.000000
# 4 0.000000 0.000000 0.000000 0.025279 0.000000 0.000000
# 5 0.000000 0.000000 0.000000 0.000000 0.090316 0.000000
# 6 0.000000 0.000000 0.000000 0.000000 0.000000 0.047975
#
#
# Mechanical properties :
#
#
# Convention : Reuss Voigt Hill
#
# Bulk Modulus (GPa) = 49.87286 58.52774 54.20030
# Shear Modulus (GPa) = 19.46204 23.78343 21.62273
#
# Velocity S-wave (km/s) = 3.29746 3.64521 3.47568
# Velocity P-wave (km/s) = 6.50854 7.10039 6.81089
#
# Compressibility (1/GPa) = 0.02005099
#
# Stress axis : x y z
#
# Youngs Moduli (GPa) = 48.00090 69.65218 55.05337
#
# Poissons Ratio (x) = 0.63498 0.11557
# Poissons Ratio (y) = 0.43760 0.29927
# Poissons Ratio (z) = 0.10076 0.37862
#
# Static dielectric constant tensor:
#      x y z
#    x 1.630730 0.000000 0.000000 
#    y 0.000000 1.701370 0.000000 
#    z 0.000000 0.000000 1.593590 
# 
# From -- ./inp_files/10852.got.cif
#   From: 2010.05.17/outbox.cif.g08.bks.cpg/sg52_6_cif.got.tgz:10852.got - 2010.06.03 12:15:38.
