data_PCOD9413339
_publ_section_title
;
Structure prediction by ZEFSAII (Michael W. Deem and Ramdas Pophale) SiO2 
 PCOD9413339
Probable space group: P N N A
;
_chemical_formula_sum "Si O2"
_cell_formula_units_Z 32
_cell_length_a 13.251616
_cell_length_b 19.824968
_cell_length_c 5.240904
_cell_angle_alpha 90.000000
_cell_angle_beta 90.000000
_cell_angle_gamma 90.000000
_cell_volume 1376.852895
_symmetry_space_group_name_H-M "P N N A"
_symmetry_group_IT_number 52
_symmetry_cell_setting 'orthorhombic'
loop_
_space_group_symop_operation_xyz
x,y,z
1/2-x,-y,z
x,1/2-y,1/2-z
1/2-x,1/2+y,1/2-z
-x,-y,-z
1/2+x,y,-z
-x,1/2+y,1/2+z
1/2+x,1/2-y,1/2+z
loop_
_atom_site_type_symbol
_atom_site_label
_atom_site_fract_x
_atom_site_fract_y
_atom_site_fract_z
Si Si1 0.780708 0.373548 0.105441
Si Si2 0.613917 0.290272 0.003730
Si Si3 0.697371 0.066512 0.911795
Si Si4 0.495189 0.926538 0.366833
O O1 0.735384 0.302824 0.006044
O O2 0.724778 0.379083 0.377868
O O3 0.894481 0.394974 0.164930
O O4 0.747156 0.420933 0.866037
O O5 0.580848 0.250000 0.250000
O O6 0.585372 0.250000 0.750000
O O7 0.563811 0.364656 0.003731
O O8 0.577580 0.061652 0.876418
O O9 0.750000 0.000000 0.018771
O O10 0.500000 0.000000 0.500000
#
# Coordination Sequence:
#
# PCOD9413339 Si02
#       4
#     8   8   8   8
#     4  11  25  44  71 101 144 191 240 296 373 435
#     4  11  26  49  70 103 152 201 251 308 372 456
#     4  11  23  41  67 107 152 180 230 303 372 438
#     4  11  25  47  78 116 143 196 251 316 375 447
#
# _framework density 23.241409999999998
#
# number of rings (size 3 to 8) (size 9 to 14) (size 15 to 20)
#    0.000    1.000    2.500    3.750    3.500    9.000 
#    0.000    0.000    0.000    0.000    0.000    0.000 
#    0.000    0.000    0.000    0.000    0.000    0.000 
#
# Total GULP energy -178435.361362 kJ/mol
# GULP energy per Si atom -5576.105043 kJ/mol
# Density = 2.318851 g / cm^3
# Si number density = 23.241410 Si / 1000 Ang^3
#
#
#
# Elastic Constant Matrix: (Units=GPa)
#
#
# Indices 1 2 3 4 5 6 
#
# 1 157.7181 21.4833 51.4085 0.0000 0.0000 0.0000
# 2 21.4833 127.0564 40.3681 0.0000 0.0000 0.0000
# 3 51.4085 40.3681 124.8462 0.0000 0.0000 0.0000
# 4 0.0000 0.0000 0.0000 27.5079 0.0000 0.0000
# 5 0.0000 0.0000 0.0000 0.0000 21.2706 0.0000
# 6 0.0000 0.0000 0.0000 0.0000 0.0000 38.9978
#
#
#
# Elastic Compliance Matrix: (Units=1/GPa)
#
#
# Indices 1 2 3 4 5 6 
#
# 1 0.007334 -0.000313 -0.002919 0.000000 0.000000 0.000000
# 2 -0.000313 0.008785 -0.002712 0.000000 0.000000 0.000000
# 3 -0.002919 -0.002712 0.010089 0.000000 0.000000 0.000000
# 4 0.000000 0.000000 0.000000 0.036353 0.000000 0.000000
# 5 0.000000 0.000000 0.000000 0.000000 0.047013 0.000000
# 6 0.000000 0.000000 0.000000 0.000000 0.000000 0.025642
#
#
# Mechanical properties :
#
#
# Convention : Reuss Voigt Hill
#
# Bulk Modulus (GPa) = 69.82727 70.68227 70.25477
# Shear Modulus (GPa) = 32.92117 37.31263 35.11690
#
# Velocity S-wave (km/s) = 3.76771 4.01114 3.89133
# Velocity P-wave (km/s) = 7.00265 7.20628 7.10520
#
# Compressibility (1/GPa) = 0.01432105
#
# Stress axis : x y z
#
# Youngs Moduli (GPa) = 136.34216 113.83057 99.12101
#
# Poissons Ratio (x) = 0.03560 0.28934
# Poissons Ratio (y) = 0.04264 0.26880
# Poissons Ratio (z) = 0.39799 0.30869
#
# Static dielectric constant tensor:
#      x y z
#    x 1.957650 0.000000 0.000000 
#    y 0.000000 2.360310 0.000000 
#    z 0.000000 0.000000 1.864610 
# 
# From -- ./inp_files/1995.got.cif
#   From: 2010.05.17/outbox.cif.g08.bks.cpg/sg52_1_cif.got.tgz:1995.got - 2010.06.03 12:15:38.
