data_PCOD9413732
_publ_section_title
;
Structure prediction by ZEFSAII (Michael W. Deem and Ramdas Pophale) SiO2 
 PCOD9413732
Probable space group: P N N A
;
_chemical_formula_sum "Si O2"
_cell_formula_units_Z 24
_cell_length_a 13.713145
_cell_length_b 4.860927
_cell_length_c 16.544895
_cell_angle_alpha 90.000000
_cell_angle_beta 90.000000
_cell_angle_gamma 90.000000
_cell_volume 1102.859485
_symmetry_space_group_name_H-M "P N N A"
_symmetry_group_IT_number 52
_symmetry_cell_setting 'orthorhombic'
loop_
_space_group_symop_operation_xyz
x,y,z
1/2-x,-y,z
x,1/2-y,1/2-z
1/2-x,1/2+y,1/2-z
-x,-y,-z
1/2+x,y,-z
-x,1/2+y,1/2+z
1/2+x,1/2-y,1/2+z
loop_
_atom_site_type_symbol
_atom_site_label
_atom_site_fract_x
_atom_site_fract_y
_atom_site_fract_z
Si Si1 0.958481 0.457621 0.908735
Si Si2 0.053839 0.567344 0.668855
Si Si3 0.250000 0.000000 0.458924
Si Si4 0.750000 0.000000 0.071911
O O1 0.969708 0.761460 0.874449
O O2 0.844263 0.389798 0.912066
O O3 0.018509 0.246821 0.850362
O O4 0.000000 0.500000 0.000000
O O5 0.066124 0.750000 0.750000
O O6 0.158140 0.589977 0.625048
O O7 0.283313 0.751800 0.516407
#
# Coordination Sequence:
#
# PCOD9413732 Si02
#       4
#     8   8   4   4
#     4  12  23  45  69 101 138 185 236 288 340 422
#     4  12  26  43  68 103 146 180 225 289 368 420
#     4  12  24  39  74 101 130 180 248 288 336 409
#     4  12  22  41  68 103 136 176 228 298 354 421
#
# _framework density 21.761610000000001
#
# number of rings (size 3 to 8) (size 9 to 14) (size 15 to 20)
#    0.000    0.000    6.667    4.000    0.000    4.000 
#    0.000    3.333    0.000    0.000    0.000    0.000 
#    0.000    0.000    0.000    0.000    0.000    0.000 
#
# Total GULP energy -133720.059383 kJ/mol
# GULP energy per Si atom -5571.669141 kJ/mol
# Density = 2.171208 g / cm^3
# Si number density = 21.761610 Si / 1000 Ang^3
#
#
#
# Elastic Constant Matrix: (Units=GPa)
#
#
# Indices 1 2 3 4 5 6 
#
# 1 126.0328 -5.7039 25.0632 0.0000 0.0000 0.0000
# 2 -5.7039 117.2512 22.8523 0.0000 0.0000 0.0000
# 3 25.0632 22.8523 43.4213 0.0000 0.0000 0.0000
# 4 0.0000 0.0000 0.0000 39.3752 0.0000 0.0000
# 5 0.0000 0.0000 0.0000 0.0000 141.4408 0.0000
# 6 0.0000 0.0000 0.0000 0.0000 0.0000 38.6734
#
#
#
# Elastic Compliance Matrix: (Units=1/GPa)
#
#
# Indices 1 2 3 4 5 6 
#
# 1 0.009244 0.001660 -0.006210 0.000000 0.000000 0.000000
# 2 0.001660 0.009802 -0.006117 0.000000 0.000000 0.000000
# 3 -0.006210 -0.006117 0.029834 0.000000 0.000000 0.000000
# 4 0.000000 0.000000 0.000000 0.025397 0.000000 0.000000
# 5 0.000000 0.000000 0.000000 0.000000 0.007070 0.000000
# 6 0.000000 0.000000 0.000000 0.000000 0.000000 0.025858
#
#
# Mechanical properties :
#
#
# Convention : Reuss Voigt Hill
#
# Bulk Modulus (GPa) = 36.30158 41.23650 38.76904
# Shear Modulus (GPa) = 36.30584 60.19746 48.25165
#
# Velocity S-wave (km/s) = 4.08897 5.26520 4.71391
# Velocity P-wave (km/s) = 6.24584 7.48020 6.89072
#
# Compressibility (1/GPa) = 0.02754701
#
# Stress axis : x y z
#
# Youngs Moduli (GPa) = 108.17336 102.02423 33.51927
#
# Poissons Ratio (x) = -0.16936 0.20814
# Poissons Ratio (y) = -0.17956 0.20503
# Poissons Ratio (z) = 0.67171 0.62405
#
# Static dielectric constant tensor:
#      x y z
#    x 1.700400 0.000000 0.000000 
#    y 0.000000 1.736320 0.000000 
#    z 0.000000 0.000000 1.920390 
# 
# From -- ./inp_files/26501.got.cif
#   From: 2010.05.17/outbox.cif.g08.bks.cpg/sg52_14_cif.got.tgz:26501.got - 2010.06.03 12:15:38.
