data_PCOD9413752
_publ_section_title
;
Structure prediction by ZEFSAII (Michael W. Deem and Ramdas Pophale) SiO2 
 PCOD9413752
Probable space group: P N N A
;
_chemical_formula_sum "Si O2"
_cell_formula_units_Z 56
_cell_length_a 19.454419
_cell_length_b 8.542340
_cell_length_c 14.617052
_cell_angle_alpha 90.000000
_cell_angle_beta 90.000000
_cell_angle_gamma 90.000000
_cell_volume 2429.153227
_symmetry_space_group_name_H-M "P N N A"
_symmetry_group_IT_number 52
_symmetry_cell_setting 'orthorhombic'
loop_
_space_group_symop_operation_xyz
x,y,z
1/2-x,-y,z
x,1/2-y,1/2-z
1/2-x,1/2+y,1/2-z
-x,-y,-z
1/2+x,y,-z
-x,1/2+y,1/2+z
1/2+x,1/2-y,1/2+z
loop_
_atom_site_type_symbol
_atom_site_label
_atom_site_fract_x
_atom_site_fract_y
_atom_site_fract_z
Si Si1 0.941685 0.770478 0.544424
Si Si2 0.446052 0.857032 0.834792
Si Si3 0.589489 0.683442 0.410007
Si Si4 0.241303 0.813185 0.851641
Si Si5 0.908887 0.062350 0.882141
Si Si6 0.266404 0.320075 0.343590
Si Si7 0.304852 0.629074 0.997895
O O1 0.948316 0.719437 0.437237
O O2 0.907455 0.626623 0.602463
O O3 0.881893 0.902837 0.535363
O O4 0.018373 0.787016 0.589365
O O5 0.422121 0.750000 0.750000
O O6 0.525829 0.900058 0.821261
O O7 0.414167 0.030980 0.844005
O O8 0.666467 0.743036 0.390517
O O9 0.586561 0.616952 0.512540
O O10 0.246179 0.750000 0.750000
O O11 0.303698 0.745407 0.911854
O O12 0.250000 0.000000 0.856127
O O13 0.847766 0.165297 0.843189
O O14 0.250000 0.500000 0.359775
O O15 0.239309 0.250000 0.250000
O O16 0.235708 0.217356 0.422608
O O17 0.250000 0.500000 0.969716
#
# Coordination Sequence:
#
# PCOD9413752 Si02
#       7
#     8   8   8   8   8   8   8
#     4   9  19  37  63  90 128 182 220 274 350 410
#     4   9  17  29  58  97 128 161 220 278 336 410
#     4   9  19  37  63  90 128 179 225 271 347 418
#     4  12  25  43  69 101 138 184 234 291 353 421
#     4   9  16  35  62  90 119 171 216 269 337 405
#     4  12  23  39  65  93 128 167 219 275 340 407
#     4  12  25  43  66  97 134 177 228 284 347 419
#
# _framework density 23.053301999999999
#
# number of rings (size 3 to 8) (size 9 to 14) (size 15 to 20)
#    0.000    1.714    2.857    5.143    0.000    3.429 
#    0.000    1.429    6.286    0.000    0.000    0.000 
#    0.000    0.000    0.000    0.000    0.000    0.000 
#
# Total GULP energy -311996.352954 kJ/mol
# GULP energy per Si atom -5571.363446 kJ/mol
# Density = 2.300083 g / cm^3
# Si number density = 23.053302 Si / 1000 Ang^3
#
#
#
# Elastic Constant Matrix: (Units=GPa)
#
#
# Indices 1 2 3 4 5 6 
#
# 1 142.7334 4.6653 2.2013 0.0000 0.0000 0.0000
# 2 4.6653 33.3274 9.0177 0.0000 0.0000 0.0000
# 3 2.2013 9.0177 70.2559 0.0000 0.0000 0.0000
# 4 0.0000 0.0000 0.0000 30.5915 0.0000 0.0000
# 5 0.0000 0.0000 0.0000 0.0000 36.6620 0.0000
# 6 0.0000 0.0000 0.0000 0.0000 0.0000 16.7756
#
#
#
# Elastic Compliance Matrix: (Units=1/GPa)
#
#
# Indices 1 2 3 4 5 6 
#
# 1 0.007039 -0.000959 -0.000097 0.000000 0.000000 0.000000
# 2 -0.000959 0.031216 -0.003977 0.000000 0.000000 0.000000
# 3 -0.000097 -0.003977 0.014747 0.000000 0.000000 0.000000
# 4 0.000000 0.000000 0.000000 0.032689 0.000000 0.000000
# 5 0.000000 0.000000 0.000000 0.000000 0.027276 0.000000
# 6 0.000000 0.000000 0.000000 0.000000 0.000000 0.059610
#
#
# Mechanical properties :
#
#
# Convention : Reuss Voigt Hill
#
# Bulk Modulus (GPa) = 23.29074 30.89837 27.09456
# Shear Modulus (GPa) = 25.38652 32.16798 28.77725
#
# Velocity S-wave (km/s) = 3.32205 3.73952 3.53695
# Velocity P-wave (km/s) = 4.98393 5.66370 5.33466
#
# Compressibility (1/GPa) = 0.04293551
#
# Stress axis : x y z
#
# Youngs Moduli (GPa) = 142.06731 32.03529 67.80966
#
# Poissons Ratio (x) = 0.03072 0.00661
# Poissons Ratio (y) = 0.13624 0.26965
# Poissons Ratio (z) = 0.01385 0.12739
#
# Static dielectric constant tensor:
#      x y z
#    x 1.880720 0.000000 0.000000 
#    y 0.000000 1.877010 0.000000 
#    z 0.000000 0.000000 1.818030 
# 
# From -- ./inp_files/28797.got.cif
#   From: 2010.05.17/outbox.cif.g08.bks.cpg/sg52_15_cif.got.tgz:28797.got - 2010.06.03 12:15:38.
