data_PCOD9413176
_publ_section_title
;
Structure prediction by ZEFSAII (Michael W. Deem and Ramdas Pophale) SiO2 
 PCOD9413176
Probable space group: P N N A
;
_chemical_formula_sum "Si O2"
_cell_formula_units_Z 48
_cell_length_a 21.299475
_cell_length_b 9.473886
_cell_length_c 14.427937
_cell_angle_alpha 90.000000
_cell_angle_beta 90.000000
_cell_angle_gamma 90.000000
_cell_volume 2911.396065
_symmetry_space_group_name_H-M "P N N A"
_symmetry_group_IT_number 52
_symmetry_cell_setting 'orthorhombic'
loop_
_space_group_symop_operation_xyz
x,y,z
1/2-x,-y,z
x,1/2-y,1/2-z
1/2-x,1/2+y,1/2-z
-x,-y,-z
1/2+x,y,-z
-x,1/2+y,1/2+z
1/2+x,1/2-y,1/2+z
loop_
_atom_site_type_symbol
_atom_site_label
_atom_site_fract_x
_atom_site_fract_y
_atom_site_fract_z
Si Si1 0.906273 0.224345 0.952026
Si Si2 0.944339 0.275138 0.147866
Si Si3 0.450084 0.961859 0.128404
Si Si4 0.649747 0.234433 0.637443
Si Si5 0.946145 0.496354 0.843373
Si Si6 0.722012 0.838108 0.845043
O O1 0.939064 0.350915 0.896234
O O2 0.841038 0.174938 0.904953
O O3 0.952733 0.091839 0.940001
O O4 0.900066 0.269019 0.058861
O O5 0.915771 0.250000 0.250000
O O6 0.992249 0.143861 0.137975
O O7 0.989637 0.413686 0.143561
O O8 0.391840 0.862790 0.101162
O O9 0.438256 0.020502 0.232710
O O10 0.650204 0.250000 0.750000
O O11 0.611718 0.092373 0.620442
O O12 0.720834 0.252841 0.607052
O O13 0.709899 0.750000 0.750000
O O14 0.750000 0.000000 0.830097
#
# Coordination Sequence:
#
# PCOD9413176 Si02
#       6
#     8   8   8   8   8   8
#     4  12  20  28  50  79  97 129 174 201 235 302
#     4   9  20  36  49  66 101 137 166 206 250 283
#     4   9  16  31  49  71  99 130 157 198 249 300
#     4   8  16  30  45  65 104 134 148 181 251 305
#     4   9  18  31  50  73 102 129 154 202 255 300
#     4  11  22  32  48  76 110 132 157 198 249 310
#
# _framework density 16.486936
#
# number of rings (size 3 to 8) (size 9 to 14) (size 15 to 20)
#    0.000    2.333    1.667    4.500    4.667    0.000 
#    0.000    0.000    0.000    0.000    4.333    0.000 
#    0.000    0.000    0.000    0.000    0.000    0.000 
#
# Total GULP energy -267217.397439 kJ/mol
# GULP energy per Si atom -5567.029113 kJ/mol
# Density = 1.644941 g / cm^3
# Si number density = 16.486936 Si / 1000 Ang^3
#
#
#
# Elastic Constant Matrix: (Units=GPa)
#
#
# Indices 1 2 3 4 5 6 
#
# 1 39.3783 15.0053 22.0578 0.0000 0.0000 0.0000
# 2 15.0053 77.1554 20.3690 0.0000 0.0000 0.0000
# 3 22.0578 20.3690 74.6193 0.0000 0.0000 0.0000
# 4 0.0000 0.0000 0.0000 15.0520 0.0000 0.0000
# 5 0.0000 0.0000 0.0000 0.0000 13.5229 0.0000
# 6 0.0000 0.0000 0.0000 0.0000 0.0000 7.6057
#
#
#
# Elastic Compliance Matrix: (Units=1/GPa)
#
#
# Indices 1 2 3 4 5 6 
#
# 1 0.031515 -0.003955 -0.008237 0.000000 0.000000 0.000000
# 2 -0.003955 0.014464 -0.002779 0.000000 0.000000 0.000000
# 3 -0.008237 -0.002779 0.016595 0.000000 0.000000 0.000000
# 4 0.000000 0.000000 0.000000 0.066437 0.000000 0.000000
# 5 0.000000 0.000000 0.000000 0.000000 0.073949 0.000000
# 6 0.000000 0.000000 0.000000 0.000000 0.000000 0.131480
#
#
# Mechanical properties :
#
#
# Convention : Reuss Voigt Hill
#
# Bulk Modulus (GPa) = 30.64385 34.00190 32.32288
# Shear Modulus (GPa) = 13.32420 16.15085 14.73753
#
# Velocity S-wave (km/s) = 2.84591 3.13328 2.99304
# Velocity P-wave (km/s) = 5.42458 5.81018 5.62069
#
# Compressibility (1/GPa) = 0.03263298
#
# Stress axis : x y z
#
# Youngs Moduli (GPa) = 31.73051 69.13884 60.25997
#
# Poissons Ratio (x) = 0.27342 0.49634
# Poissons Ratio (y) = 0.12548 0.16747
# Poissons Ratio (z) = 0.26135 0.19215
#
# Static dielectric constant tensor:
#      x y z
#    x 1.580760 0.000000 0.000000 
#    y 0.000000 1.595420 0.000000 
#    z 0.000000 0.000000 1.568530 
# 
# From -- ./inp_files/22299.got.cif
#   From: 2010.05.17/outbox.cif.g08.bks.cpg/sg52_12_cif.got.tgz:22299.got - 2010.06.03 12:15:38.
