data_PCOD9413159
_publ_section_title
;
Structure prediction by ZEFSAII (Michael W. Deem and Ramdas Pophale) SiO2 
 PCOD9413159
Probable space group: P N N A
;
_chemical_formula_sum "Si O2"
_cell_formula_units_Z 64
_cell_length_a 24.016968
_cell_length_b 14.783585
_cell_length_c 8.635754
_cell_angle_alpha 90.000000
_cell_angle_beta 90.000000
_cell_angle_gamma 90.000000
_cell_volume 3066.183940
_symmetry_space_group_name_H-M "P N N A"
_symmetry_group_IT_number 52
_symmetry_cell_setting 'orthorhombic'
loop_
_space_group_symop_operation_xyz
x,y,z
1/2-x,-y,z
x,1/2-y,1/2-z
1/2-x,1/2+y,1/2-z
-x,-y,-z
1/2+x,y,-z
-x,1/2+y,1/2+z
1/2+x,1/2-y,1/2+z
loop_
_atom_site_type_symbol
_atom_site_label
_atom_site_fract_x
_atom_site_fract_y
_atom_site_fract_z
Si Si1 0.531566 0.754129 0.569168
Si Si2 0.794557 0.566440 0.401018
Si Si3 0.139873 0.795248 0.586286
Si Si4 0.998265 0.078303 0.129218
Si Si5 0.738489 0.178313 0.363772
Si Si6 0.891464 0.011930 0.317962
Si Si7 0.660455 0.247241 0.927464
Si Si8 0.558606 0.371666 0.933680
O O1 0.517828 0.750000 0.750000
O O2 0.597740 0.760529 0.541834
O O3 0.510582 0.669823 0.467906
O O4 0.501538 0.841933 0.498457
O O5 0.750000 0.500000 0.486508
O O6 0.755088 0.599020 0.257096
O O7 0.848549 0.527074 0.310535
O O8 0.819060 0.650402 0.503224
O O9 0.122379 0.750000 0.750000
O O10 0.205406 0.776842 0.573753
O O11 0.136341 0.902984 0.597469
O O12 0.047531 0.091835 0.258252
O O13 0.944069 0.052718 0.227962
O O14 0.000000 0.000000 0.000000
O O15 0.708740 0.250000 0.250000
O O16 0.695400 0.169598 0.498740
O O17 0.913864 0.941808 0.446385
O O18 0.674361 0.250000 0.750000
O O19 0.596827 0.280945 0.941714
#
# Coordination Sequence:
#
# PCOD9413159 Si02
#       8
#     8   8   8   8   8   8   8   8
#     4  12  26  43  67  98 140 186 230 285 358 432
#     4  11  23  44  70 110 135 182 243 293 353 432
#     4  11  21  43  67  96 135 183 230 290 355 420
#     4  12  27  45  67 100 139 185 238 293 356 428
#     4   9  20  40  68  93 130 177 232 280 340 415
#     4  12  24  41  72 100 135 178 241 290 353 422
#     4  11  25  43  69 102 145 190 227 291 364 423
#     4  12  26  45  69 101 143 185 234 298 359 436
#
# _framework density 20.872852000000002
#
# number of rings (size 3 to 8) (size 9 to 14) (size 15 to 20)
#    0.000    0.750    5.000    2.250    7.000    0.500 
#    0.000    1.875    0.000    0.000    0.000    0.000 
#    0.000    0.000    0.000    0.000    0.000    0.000 
#
# Total GULP energy -356495.285823 kJ/mol
# GULP energy per Si atom -5570.238841 kJ/mol
# Density = 2.082534 g / cm^3
# Si number density = 20.872852 Si / 1000 Ang^3
#
#
#
# Elastic Constant Matrix: (Units=GPa)
#
#
# Indices 1 2 3 4 5 6 
#
# 1 89.2940 30.0180 45.3306 0.0000 0.0000 0.0000
# 2 30.0180 96.5809 46.1422 0.0000 0.0000 0.0000
# 3 45.3306 46.1422 114.8505 0.0000 0.0000 0.0000
# 4 0.0000 0.0000 0.0000 29.5473 0.0000 0.0000
# 5 0.0000 0.0000 0.0000 0.0000 24.7018 0.0000
# 6 0.0000 0.0000 0.0000 0.0000 0.0000 36.4271
#
#
#
# Elastic Compliance Matrix: (Units=1/GPa)
#
#
# Indices 1 2 3 4 5 6 
#
# 1 0.014364 -0.002173 -0.004797 0.000000 0.000000 0.000000
# 2 -0.002173 0.013142 -0.004422 0.000000 0.000000 0.000000
# 3 -0.004797 -0.004422 0.012377 0.000000 0.000000 0.000000
# 4 0.000000 0.000000 0.000000 0.033844 0.000000 0.000000
# 5 0.000000 0.000000 0.000000 0.000000 0.040483 0.000000
# 6 0.000000 0.000000 0.000000 0.000000 0.000000 0.027452
#
#
# Mechanical properties :
#
#
# Convention : Reuss Voigt Hill
#
# Bulk Modulus (GPa) = 58.48027 60.41188 59.44608
# Shear Modulus (GPa) = 29.38652 30.08422 29.73537
#
# Velocity S-wave (km/s) = 3.75625 3.80058 3.77848
# Velocity P-wave (km/s) = 6.84768 6.94729 6.89766
#
# Compressibility (1/GPa) = 0.01709978
#
# Stress axis : x y z
#
# Youngs Moduli (GPa) = 69.61641 76.09087 80.79623
#
# Poissons Ratio (x) = 0.16535 0.38754
# Poissons Ratio (y) = 0.15128 0.35731
# Poissons Ratio (z) = 0.33392 0.33650
#
# Static dielectric constant tensor:
#      x y z
#    x 1.799070 0.000000 0.000000 
#    y 0.000000 1.899830 0.000000 
#    z 0.000000 0.000000 1.824200 
# 
# From -- ./inp_files/14490.got.cif
#   From: 2010.05.17/outbox.cif.g08.bks.cpg/sg52_8_cif.got.tgz:14490.got - 2010.06.03 12:15:38.
