data_PCOD9413040
_publ_section_title
;
Structure prediction by ZEFSAII (Michael W. Deem and Ramdas Pophale) SiO2 
 PCOD9413040
Probable space group: P N N A
;
_chemical_formula_sum "Si O2"
_cell_formula_units_Z 44
_cell_length_a 11.093218
_cell_length_b 11.807397
_cell_length_c 19.506444
_cell_angle_alpha 90.000000
_cell_angle_beta 90.000000
_cell_angle_gamma 90.000000
_cell_volume 2554.993612
_symmetry_space_group_name_H-M "P N N A"
_symmetry_group_IT_number 52
_symmetry_cell_setting 'orthorhombic'
loop_
_space_group_symop_operation_xyz
x,y,z
1/2-x,-y,z
x,1/2-y,1/2-z
1/2-x,1/2+y,1/2-z
-x,-y,-z
1/2+x,y,-z
-x,1/2+y,1/2+z
1/2+x,1/2-y,1/2+z
loop_
_atom_site_type_symbol
_atom_site_label
_atom_site_fract_x
_atom_site_fract_y
_atom_site_fract_z
Si Si1 0.608004 0.773401 0.355907
Si Si2 0.250000 0.000000 0.353223
Si Si3 0.063360 0.105125 0.460171
Si Si4 0.039419 0.872797 0.284289
Si Si5 0.332899 0.616963 0.899370
Si Si6 0.384712 0.442825 0.726905
O O1 0.532763 0.817048 0.421044
O O2 0.749004 0.787532 0.368460
O O3 0.590378 0.644613 0.334086
O O4 0.589770 0.862912 0.293565
O O5 0.156310 0.063598 0.402841
O O6 0.329381 0.085631 0.308041
O O7 0.135160 0.154882 0.524155
O O8 0.000000 0.000000 0.500000
O O9 0.039589 0.750000 0.250000
O O10 0.949622 0.888719 0.350371
O O11 0.980840 0.957757 0.229683
O O12 0.250000 0.500000 0.900505
O O13 0.250000 0.500000 0.729322
#
# Coordination Sequence:
#
# PCOD9413040 Si02
#       6
#     8   4   8   8   8   8
#     4  11  21  34  62  90 116 149 189 252 300 343
#     4  12  22  36  54  88 122 148 190 236 298 350
#     4  12  20  36  59  89 120 146 192 251 299 343
#     4  12  24  38  59  87 123 159 192 239 295 358
#     4  12  19  34  60  93 118 142 194 247 299 341
#     4  11  20  37  60  88 118 150 195 243 295 349
#
# _framework density 17.221177999999998
#
# number of rings (size 3 to 8) (size 9 to 14) (size 15 to 20)
#    0.000    0.364   10.000    1.091    0.000    1.455 
#    0.000    0.000    0.000    4.364    0.000    0.000 
#    0.000    0.000    0.000    0.000    0.000    0.000 
#
# Total GULP energy -245216.009514 kJ/mol
# GULP energy per Si atom -5573.091125 kJ/mol
# Density = 1.718198 g / cm^3
# Si number density = 17.221178 Si / 1000 Ang^3
#
#
#
# Elastic Constant Matrix: (Units=GPa)
#
#
# Indices 1 2 3 4 5 6 
#
# 1 94.5421 51.6299 35.1521 0.0000 0.0000 0.0000
# 2 51.6299 125.3510 56.1155 0.0000 0.0000 0.0000
# 3 35.1521 56.1155 76.0587 0.0000 0.0000 0.0000
# 4 0.0000 0.0000 0.0000 22.7166 0.0000 0.0000
# 5 0.0000 0.0000 0.0000 0.0000 20.0316 0.0000
# 6 0.0000 0.0000 0.0000 0.0000 0.0000 10.5258
#
#
#
# Elastic Compliance Matrix: (Units=1/GPa)
#
#
# Indices 1 2 3 4 5 6 
#
# 1 0.014198 -0.004346 -0.003356 0.000000 0.000000 0.000000
# 2 -0.004346 0.013242 -0.007761 0.000000 0.000000 0.000000
# 3 -0.003356 -0.007761 0.020425 0.000000 0.000000 0.000000
# 4 0.000000 0.000000 0.000000 0.044021 0.000000 0.000000
# 5 0.000000 0.000000 0.000000 0.000000 0.049921 0.000000
# 6 0.000000 0.000000 0.000000 0.000000 0.000000 0.095005
#
#
# Mechanical properties :
#
#
# Convention : Reuss Voigt Hill
#
# Bulk Modulus (GPa) = 59.03375 64.63854 61.83614
# Shear Modulus (GPa) = 18.28927 20.85841 19.57384
#
# Velocity S-wave (km/s) = 3.26240 3.48402 3.37503
# Velocity P-wave (km/s) = 6.96744 7.33487 7.15351
#
# Compressibility (1/GPa) = 0.01693946
#
# Stress axis : x y z
#
# Youngs Moduli (GPa) = 70.43116 75.51683 48.95967
#
# Poissons Ratio (x) = 0.32818 0.16430
# Poissons Ratio (y) = 0.30608 0.38000
# Poissons Ratio (z) = 0.23635 0.58612
#
# Static dielectric constant tensor:
#      x y z
#    x 1.679270 0.000000 0.000000 
#    y 0.000000 1.606180 0.000000 
#    z 0.000000 0.000000 1.644860 
# 
# From -- ./inp_files/36731.got.cif
#   From: 2010.05.17/outbox.cif.g08.bks.cpg/sg52_19_cif.got.tgz:36731.got - 2010.06.03 12:15:38.
