data_PCOD9413308
_publ_section_title
;
Structure prediction by ZEFSAII (Michael W. Deem and Ramdas Pophale) SiO2 
 PCOD9413308
Probable space group: P N N A
;
_chemical_formula_sum "Si O2"
_cell_formula_units_Z 36
_cell_length_a 7.210203
_cell_length_b 29.215044
_cell_length_c 7.257453
_cell_angle_alpha 90.000000
_cell_angle_beta 90.000000
_cell_angle_gamma 90.000000
_cell_volume 1528.756332
_symmetry_space_group_name_H-M "P N N A"
_symmetry_group_IT_number 52
_symmetry_cell_setting 'orthorhombic'
loop_
_space_group_symop_operation_xyz
x,y,z
1/2-x,-y,z
x,1/2-y,1/2-z
1/2-x,1/2+y,1/2-z
-x,-y,-z
1/2+x,y,-z
-x,1/2+y,1/2+z
1/2+x,1/2-y,1/2+z
loop_
_atom_site_type_symbol
_atom_site_label
_atom_site_fract_x
_atom_site_fract_y
_atom_site_fract_z
Si Si1 0.550805 0.935718 0.352822
Si Si2 0.250000 0.500000 0.154677
Si Si3 0.582280 0.802404 0.230178
Si Si4 0.649311 0.803429 0.802169
Si Si5 0.351675 0.629267 0.867070
O O1 0.407848 0.969186 0.247137
O O2 0.426620 0.897222 0.454688
O O3 0.726303 0.909849 0.262157
O O4 0.639170 0.965709 0.518646
O O5 0.629352 0.750000 0.250000
O O6 0.363501 0.807862 0.253648
O O7 0.701273 0.830288 0.376015
O O8 0.639740 0.812041 0.021212
O O9 0.593682 0.750000 0.750000
O O10 0.520047 0.844003 0.726674
#
# Coordination Sequence:
#
# PCOD9413308 Si02
#       5
#     8   4   8   8   8
#     4   9  20  34  64  92 124 158 198 266 308 373
#     4   8  16  38  56  96 122 148 202 254 334 352
#     4  11  25  40  60  87 127 174 213 257 300 355
#     4  11  25  40  60  87 127 174 213 257 300 355
#     4  11  23  37  59  94 124 162 208 255 306 368
#
# _framework density 23.548552999999998
#
# number of rings (size 3 to 8) (size 9 to 14) (size 15 to 20)
#    0.000    1.778    2.222    0.667    9.333    0.000 
#    0.000    0.000    0.000    0.000    0.000   77.778 
#    0.000    0.000    0.000    0.000    0.000    0.000 
#
# Total GULP energy -200722.166054 kJ/mol
# GULP energy per Si atom -5575.615724 kJ/mol
# Density = 2.349496 g / cm^3
# Si number density = 23.548553 Si / 1000 Ang^3
#
#
#
# Elastic Constant Matrix: (Units=GPa)
#
#
# Indices 1 2 3 4 5 6 
#
# 1 119.2673 51.6142 16.7862 0.0000 0.0000 0.0000
# 2 51.6142 131.1305 17.4628 0.0000 0.0000 0.0000
# 3 16.7862 17.4628 65.3827 0.0000 0.0000 0.0000
# 4 0.0000 0.0000 0.0000 11.3270 0.0000 0.0000
# 5 0.0000 0.0000 0.0000 0.0000 20.8692 0.0000
# 6 0.0000 0.0000 0.0000 0.0000 0.0000 71.0076
#
#
#
# Elastic Compliance Matrix: (Units=1/GPa)
#
#
# Indices 1 2 3 4 5 6 
#
# 1 0.010268 -0.003826 -0.001614 0.000000 0.000000 0.000000
# 2 -0.003826 0.009333 -0.001510 0.000000 0.000000 0.000000
# 3 -0.001614 -0.001510 0.016112 0.000000 0.000000 0.000000
# 4 0.000000 0.000000 0.000000 0.088284 0.000000 0.000000
# 5 0.000000 0.000000 0.000000 0.000000 0.047918 0.000000
# 6 0.000000 0.000000 0.000000 0.000000 0.000000 0.014083
#
#
# Mechanical properties :
#
#
# Convention : Reuss Voigt Hill
#
# Bulk Modulus (GPa) = 45.84768 54.16744 50.00756
# Shear Modulus (GPa) = 24.13469 35.96858 30.05163
#
# Velocity S-wave (km/s) = 3.20486 3.91246 3.57621
# Velocity P-wave (km/s) = 5.76251 6.59259 6.19148
#
# Compressibility (1/GPa) = 0.02181135
#
# Stress axis : x y z
#
# Youngs Moduli (GPa) = 97.39321 107.14358 62.06415
#
# Poissons Ratio (x) = 0.40998 0.10018
# Poissons Ratio (y) = 0.37267 0.09374
# Poissons Ratio (z) = 0.15720 0.16183
#
# Static dielectric constant tensor:
#      x y z
#    x 1.966020 0.000000 0.000000 
#    y 0.000000 1.950960 0.000000 
#    z 0.000000 0.000000 1.879210 
# 
# From -- ./inp_files/7512.got.cif
#   From: 2010.05.17/outbox.cif.g08.bks.cpg/sg52_4_cif.got.tgz:7512.got - 2010.06.03 12:15:38.
