data_PCOD9413437
_publ_section_title
;
Structure prediction by ZEFSAII (Michael W. Deem and Ramdas Pophale) SiO2 
 PCOD9413437
Probable space group: P N N A
;
_chemical_formula_sum "Si O2"
_cell_formula_units_Z 36
_cell_length_a 12.442140
_cell_length_b 24.244134
_cell_length_c 4.789288
_cell_angle_alpha 90.000000
_cell_angle_beta 90.000000
_cell_angle_gamma 90.000000
_cell_volume 1444.683502
_symmetry_space_group_name_H-M "P N N A"
_symmetry_group_IT_number 52
_symmetry_cell_setting 'orthorhombic'
loop_
_space_group_symop_operation_xyz
x,y,z
1/2-x,-y,z
x,1/2-y,1/2-z
1/2-x,1/2+y,1/2-z
-x,-y,-z
1/2+x,y,-z
-x,1/2+y,1/2+z
1/2+x,1/2-y,1/2+z
loop_
_atom_site_type_symbol
_atom_site_label
_atom_site_fract_x
_atom_site_fract_y
_atom_site_fract_z
Si Si1 0.153014 0.034899 0.012864
Si Si2 0.500000 0.000000 0.500000
Si Si3 0.997247 0.102940 0.632729
Si Si4 0.317818 0.806456 0.591063
Si Si5 0.216000 0.855913 0.089947
O O1 0.203185 0.092558 0.109148
O O2 0.104560 0.003187 0.273695
O O3 0.250000 0.000000 0.887407
O O4 0.065682 0.049795 0.769543
O O5 0.539608 0.935388 0.379025
O O6 0.080527 0.152092 0.589563
O O7 0.900392 0.126834 0.808036
O O8 0.346431 0.750000 0.750000
O O9 0.268587 0.808957 0.284274
O O10 0.223838 0.834163 0.777159
#
# Coordination Sequence:
#
# PCOD9413437 Si02
#       5
#     8   4   8   8   8
#     4  11  24  40  65 102 143 184 223 282 349 429
#     4  12  22  40  66 102 142 180 230 276 358 426
#     4  11  26  42  69 101 140 181 236 283 353 422
#     4  11  26  47  69  98 134 180 237 295 351 411
#     4  11  25  44  71 101 135 180 231 288 346 415
#
# _framework density 24.918956999999999
#
# number of rings (size 3 to 8) (size 9 to 14) (size 15 to 20)
#    0.000    0.889    4.444    1.333    3.111    4.444 
#    0.000    0.000    0.000    0.000    0.000    0.000 
#    0.000    0.000    0.000    0.000    0.000    0.000 
#
# Total GULP energy -200824.626250 kJ/mol
# GULP energy per Si atom -5578.461840 kJ/mol
# Density = 2.486224 g / cm^3
# Si number density = 24.918957 Si / 1000 Ang^3
#
#
#
# Elastic Constant Matrix: (Units=GPa)
#
#
# Indices 1 2 3 4 5 6 
#
# 1 103.8474 29.5479 33.2857 0.0000 0.0000 0.0000
# 2 29.5479 160.6809 6.5053 0.0000 0.0000 0.0000
# 3 33.2857 6.5053 91.4018 0.0000 0.0000 0.0000
# 4 0.0000 0.0000 0.0000 39.1948 0.0000 0.0000
# 5 0.0000 0.0000 0.0000 0.0000 27.7560 0.0000
# 6 0.0000 0.0000 0.0000 0.0000 0.0000 23.2760
#
#
#
# Elastic Compliance Matrix: (Units=1/GPa)
#
#
# Indices 1 2 3 4 5 6 
#
# 1 0.011479 -0.001947 -0.004042 0.000000 0.000000 0.000000
# 2 -0.001947 0.006572 0.000241 0.000000 0.000000 0.000000
# 3 -0.004042 0.000241 0.012395 0.000000 0.000000 0.000000
# 4 0.000000 0.000000 0.000000 0.025514 0.000000 0.000000
# 5 0.000000 0.000000 0.000000 0.000000 0.036028 0.000000
# 6 0.000000 0.000000 0.000000 0.000000 0.000000 0.042963
#
#
# Mechanical properties :
#
#
# Convention : Reuss Voigt Hill
#
# Bulk Modulus (GPa) = 52.76741 54.95643 53.86192
# Shear Modulus (GPa) = 32.73042 37.15142 34.94092
#
# Velocity S-wave (km/s) = 3.62812 3.86539 3.74863
# Velocity P-wave (km/s) = 6.22676 6.48256 6.35595
#
# Compressibility (1/GPa) = 0.01895109
#
# Stress axis : x y z
#
# Youngs Moduli (GPa) = 87.11517 152.16461 80.67507
#
# Poissons Ratio (x) = 0.29631 0.32607
# Poissons Ratio (y) = 0.16964 -0.01948
# Poissons Ratio (z) = 0.35210 -0.03673
#
# Static dielectric constant tensor:
#      x y z
#    x 1.987100 0.000000 0.000000 
#    y 0.000000 2.119100 0.000000 
#    z 0.000000 0.000000 2.210320 
# 
# From -- ./inp_files/1205.got.cif
#   From: 2010.05.17/outbox.cif.g08.bks.cpg/sg52_1_cif.got.tgz:1205.got - 2010.06.03 12:15:38.
