data_PCOD9413004
_publ_section_title
;
Structure prediction by ZEFSAII (Michael W. Deem and Ramdas Pophale) SiO2 
 PCOD9413004
Probable space group: P N N A
;
_chemical_formula_sum "Si O2"
_cell_formula_units_Z 48
_cell_length_a 22.191812
_cell_length_b 9.417183
_cell_length_c 11.414813
_cell_angle_alpha 90.000000
_cell_angle_beta 90.000000
_cell_angle_gamma 90.000000
_cell_volume 2385.517329
_symmetry_space_group_name_H-M "P N N A"
_symmetry_group_IT_number 52
_symmetry_cell_setting 'orthorhombic'
loop_
_space_group_symop_operation_xyz
x,y,z
1/2-x,-y,z
x,1/2-y,1/2-z
1/2-x,1/2+y,1/2-z
-x,-y,-z
1/2+x,y,-z
-x,1/2+y,1/2+z
1/2+x,1/2-y,1/2+z
loop_
_atom_site_type_symbol
_atom_site_label
_atom_site_fract_x
_atom_site_fract_y
_atom_site_fract_z
Si Si1 0.516549 0.550618 0.370136
Si Si2 0.389134 0.912147 0.248165
Si Si3 0.607063 0.319020 0.363482
Si Si4 0.428789 0.962886 0.506490
Si Si5 0.320165 0.467913 0.467688
Si Si6 0.625434 0.766698 0.380291
O O1 0.500000 0.500000 0.500000
O O2 0.456418 0.590869 0.304436
O O3 0.552660 0.417853 0.315985
O O4 0.562481 0.680260 0.376658
O O5 0.365557 0.750000 0.250000
O O6 0.350278 0.006452 0.158908
O O7 0.398085 0.969115 0.378703
O O8 0.637900 0.250000 0.250000
O O9 0.648226 0.420612 0.442606
O O10 0.580501 0.195215 0.444502
O O11 0.392786 0.074707 0.586620
O O12 0.500000 0.000000 0.500000
O O13 0.250000 0.500000 0.462146
O O14 0.334959 0.314047 0.522609
O O15 0.652289 0.750000 0.250000
#
# Coordination Sequence:
#
# PCOD9413004 Si02
#       6
#     8   8   8   8   8   8
#     4  11  19  37  64  94 137 172 201 267 341 411
#     4  12  22  42  67  95 132 171 218 272 338 395
#     4  11  22  40  65  98 132 172 220 270 336 399
#     4  12  23  37  65 105 132 165 208 265 341 411
#     4  11  26  48  67  88 132 183 232 278 325 384
#     4  11  23  42  65  99 133 166 217 275 335 393
#
# _framework density 20.121421999999999
#
# number of rings (size 3 to 8) (size 9 to 14) (size 15 to 20)
#    0.000    0.667    5.000    6.500    0.000    1.333 
#    3.000    0.833    0.000    0.000    0.000    0.000 
#    0.000    0.000    0.000    0.000    0.000    0.000 
#
# Total GULP energy -268454.072764 kJ/mol
# GULP energy per Si atom -5592.793183 kJ/mol
# Density = 2.007563 g / cm^3
# Si number density = 20.121422 Si / 1000 Ang^3
#
#
#
# Elastic Constant Matrix: (Units=GPa)
#
#
# Indices 1 2 3 4 5 6 
#
# 1 80.0254 10.5725 5.6183 0.0000 0.0000 0.0000
# 2 10.5725 82.3158 13.9397 0.0000 0.0000 0.0000
# 3 5.6183 13.9397 115.3231 0.0000 0.0000 0.0000
# 4 0.0000 0.0000 0.0000 37.2845 0.0000 0.0000
# 5 0.0000 0.0000 0.0000 0.0000 6.8297 0.0000
# 6 0.0000 0.0000 0.0000 0.0000 0.0000 12.2671
#
#
#
# Elastic Compliance Matrix: (Units=1/GPa)
#
#
# Indices 1 2 3 4 5 6 
#
# 1 0.012733 -0.001562 -0.000431 0.000000 0.000000 0.000000
# 2 -0.001562 0.012594 -0.001446 0.000000 0.000000 0.000000
# 3 -0.000431 -0.001446 0.008867 0.000000 0.000000 0.000000
# 4 0.000000 0.000000 0.000000 0.026821 0.000000 0.000000
# 5 0.000000 0.000000 0.000000 0.000000 0.146420 0.000000
# 6 0.000000 0.000000 0.000000 0.000000 0.000000 0.081519
#
#
# Mechanical properties :
#
#
# Convention : Reuss Voigt Hill
#
# Bulk Modulus (GPa) = 36.61146 37.54725 37.07935
# Shear Modulus (GPa) = 16.39680 27.77851 22.08765
#
# Velocity S-wave (km/s) = 2.85773 3.71960 3.31678
# Velocity P-wave (km/s) = 5.39663 6.09492 5.75637
#
# Compressibility (1/GPa) = 0.02731385
#
# Stress axis : x y z
#
# Youngs Moduli (GPa) = 78.53777 79.40351 112.77623
#
# Poissons Ratio (x) = 0.12405 0.04866
# Poissons Ratio (y) = 0.12270 0.16309
# Poissons Ratio (z) = 0.03389 0.11483
#
# Static dielectric constant tensor:
#      x y z
#    x 1.682860 0.000000 0.000000 
#    y 0.000000 1.727180 0.000000 
#    z 0.000000 0.000000 1.784620 
# 
# From -- ./inp_files/22314.got.cif
#   From: 2010.05.17/outbox.cif.g08.bks.cpg/sg52_12_cif.got.tgz:22314.got - 2010.06.03 12:15:38.
