data_PCOD9413200
_publ_section_title
;
Structure prediction by ZEFSAII (Michael W. Deem and Ramdas Pophale) SiO2 
 PCOD9413200
Probable space group: P N N A
;
_chemical_formula_sum "Si O2"
_cell_formula_units_Z 44
_cell_length_a 8.421293
_cell_length_b 27.218596
_cell_length_c 9.355703
_cell_angle_alpha 90.000000
_cell_angle_beta 90.000000
_cell_angle_gamma 90.000000
_cell_volume 2144.474685
_symmetry_space_group_name_H-M "P N N A"
_symmetry_group_IT_number 52
_symmetry_cell_setting 'orthorhombic'
loop_
_space_group_symop_operation_xyz
x,y,z
1/2-x,-y,z
x,1/2-y,1/2-z
1/2-x,1/2+y,1/2-z
-x,-y,-z
1/2+x,y,-z
-x,1/2+y,1/2+z
1/2+x,1/2-y,1/2+z
loop_
_atom_site_type_symbol
_atom_site_label
_atom_site_fract_x
_atom_site_fract_y
_atom_site_fract_z
Si Si1 0.678965 0.798387 0.069967
Si Si2 0.881226 0.534664 0.090429
Si Si3 0.357239 0.668520 0.297663
Si Si4 0.965273 0.199230 0.474803
Si Si5 0.107876 0.250000 0.750000
Si Si6 0.837554 0.399658 0.883152
O O1 0.527335 0.829107 0.121592
O O2 0.822328 0.801420 0.180704
O O3 0.737789 0.807520 0.910623
O O4 0.650277 0.739783 0.093593
O O5 0.750000 0.500000 0.167650
O O6 0.005435 0.570982 0.167200
O O7 0.775237 0.567253 0.982789
O O8 0.000000 0.500000 0.000000
O O9 0.271792 0.619141 0.246283
O O10 0.397885 0.694080 0.145343
O O11 0.897445 0.146532 0.519772
O O12 0.013799 0.227470 0.616687
#
# Coordination Sequence:
#
# PCOD9413200 Si02
#       6
#     8   8   8   8   4   8
#     4  12  26  42  55  88 138 193 231 267 304 371
#     4   9  20  40  65 104 137 154 201 281 367 420
#     4  12  26  43  60  90 135 184 233 272 317 381
#     4  12  24  39  63  91 135 179 232 266 328 377
#     4  12  24  38  60  90 132 188 228 276 318 370
#     4  11  22  38  67  99 131 167 216 278 339 402
#
# _framework density 20.517844
#
# number of rings (size 3 to 8) (size 9 to 14) (size 15 to 20)
#    0.000    0.727    5.455    2.182    2.545    0.000 
#    0.000    0.000    0.000    0.000    0.000   16.545 
#    0.000    0.000    0.000    0.000    0.000    0.000 
#
# Total GULP energy -245073.057129 kJ/mol
# GULP energy per Si atom -5569.842207 kJ/mol
# Density = 2.047114 g / cm^3
# Si number density = 20.517844 Si / 1000 Ang^3
#
#
#
# Elastic Constant Matrix: (Units=GPa)
#
#
# Indices 1 2 3 4 5 6 
#
# 1 97.6531 36.4970 40.4466 0.0000 0.0000 0.0000
# 2 36.4970 67.6855 25.1448 0.0000 0.0000 0.0000
# 3 40.4466 25.1448 105.3002 0.0000 0.0000 0.0000
# 4 0.0000 0.0000 0.0000 8.6595 0.0000 0.0000
# 5 0.0000 0.0000 0.0000 0.0000 35.4780 0.0000
# 6 0.0000 0.0000 0.0000 0.0000 0.0000 51.3207
#
#
#
# Elastic Compliance Matrix: (Units=1/GPa)
#
#
# Indices 1 2 3 4 5 6 
#
# 1 0.014197 -0.006177 -0.003978 0.000000 0.000000 0.000000
# 2 -0.006177 0.018900 -0.002141 0.000000 0.000000 0.000000
# 3 -0.003978 -0.002141 0.011536 0.000000 0.000000 0.000000
# 4 0.000000 0.000000 0.000000 0.115480 0.000000 0.000000
# 5 0.000000 0.000000 0.000000 0.000000 0.028186 0.000000
# 6 0.000000 0.000000 0.000000 0.000000 0.000000 0.019485
#
#
# Mechanical properties :
#
#
# Convention : Reuss Voigt Hill
#
# Bulk Modulus (GPa) = 49.89710 52.75730 51.32720
# Shear Modulus (GPa) = 20.91561 30.32834 25.62198
#
# Velocity S-wave (km/s) = 3.19625 3.84884 3.53762
# Velocity P-wave (km/s) = 6.16385 6.74686 6.46193
#
# Compressibility (1/GPa) = 0.02004124
#
# Stress axis : x y z
#
# Youngs Moduli (GPa) = 70.43922 52.90932 86.68696
#
# Poissons Ratio (x) = 0.32683 0.34484
# Poissons Ratio (y) = 0.43512 0.18555
# Poissons Ratio (z) = 0.28020 0.11325
#
# Static dielectric constant tensor:
#      x y z
#    x 1.899250 0.000000 0.000000 
#    y 0.000000 1.815130 0.000000 
#    z 0.000000 0.000000 1.858730 
# 
# From -- ./inp_files/7633.got.cif
#   From: 2010.05.17/outbox.cif.g08.bks.cpg/sg52_4_cif.got.tgz:7633.got - 2010.06.03 12:15:38.
