data_PCOD9413092
_publ_section_title
;
Structure prediction by ZEFSAII (Michael W. Deem and Ramdas Pophale) SiO2 
 PCOD9413092
Probable space group: P N N A
;
_chemical_formula_sum "Si O2"
_cell_formula_units_Z 48
_cell_length_a 11.945286
_cell_length_b 15.140081
_cell_length_c 12.112786
_cell_angle_alpha 90.000000
_cell_angle_beta 90.000000
_cell_angle_gamma 90.000000
_cell_volume 2190.628812
_symmetry_space_group_name_H-M "P N N A"
_symmetry_group_IT_number 52
_symmetry_cell_setting 'orthorhombic'
loop_
_space_group_symop_operation_xyz
x,y,z
1/2-x,-y,z
x,1/2-y,1/2-z
1/2-x,1/2+y,1/2-z
-x,-y,-z
1/2+x,y,-z
-x,1/2+y,1/2+z
1/2+x,1/2-y,1/2+z
loop_
_atom_site_type_symbol
_atom_site_label
_atom_site_fract_x
_atom_site_fract_y
_atom_site_fract_z
Si Si1 0.224109 0.644226 0.274869
Si Si2 0.113676 0.350686 0.760620
Si Si3 0.071459 0.871461 0.422189
Si Si4 0.479811 0.650215 0.305171
Si Si5 0.968784 0.340108 0.561624
Si Si6 0.667093 0.917796 0.341469
O O1 0.221787 0.750000 0.250000
O O2 0.167435 0.606071 0.165726
O O3 0.352046 0.620568 0.290592
O O4 0.143812 0.624962 0.378682
O O5 0.072088 0.250000 0.750000
O O6 0.042916 0.397494 0.858552
O O7 0.071278 0.378167 0.638153
O O8 0.241622 0.345472 0.799856
O O9 0.052063 0.766434 0.438257
O O10 0.112683 0.907303 0.538634
O O11 0.489609 0.750000 0.250000
O O12 0.509400 0.643995 0.433753
O O13 0.565194 0.588066 0.241668
O O14 0.750000 0.000000 0.332229
#
# Coordination Sequence:
#
# PCOD9413092 Si02
#       6
#     8   8   8   8   8   8
#     4   8  18  33  57  88 115 144 186 246 295 349
#     4   9  21  39  64  88 116 154 195 246 301 347
#     4   9  19  38  58  87 118 151 193 239 303 354
#     4  11  21  35  60  89 114 151 202 243 290 349
#     4   9  18  36  63  89 114 146 196 253 298 340
#     4  12  26  38  56  88 125 157 195 244 294 356
#
# _framework density 21.911517
#
# number of rings (size 3 to 8) (size 9 to 14) (size 15 to 20)
#    0.000    2.333    1.667    2.500    4.667    3.333 
#    0.000    0.833    0.000    0.000    0.000    0.000 
#    0.000    0.000    0.000    0.000    0.000    0.000 
#
# Total GULP energy -267366.948584 kJ/mol
# GULP energy per Si atom -5570.144762 kJ/mol
# Density = 2.186164 g / cm^3
# Si number density = 21.911517 Si / 1000 Ang^3
#
#
#
# Elastic Constant Matrix: (Units=GPa)
#
#
# Indices 1 2 3 4 5 6 
#
# 1 120.4493 -18.1924 81.2447 0.0000 0.0000 0.0000
# 2 -18.1924 17.7389 -0.8201 0.0000 0.0000 0.0000
# 3 81.2447 -0.8201 202.3817 0.0000 0.0000 0.0000
# 4 0.0000 0.0000 0.0000 6.1563 0.0000 0.0000
# 5 0.0000 0.0000 0.0000 0.0000 19.1751 0.0000
# 6 0.0000 0.0000 0.0000 0.0000 0.0000 10.8115
#
#
#
# Elastic Compliance Matrix: (Units=1/GPa)
#
#
# Indices 1 2 3 4 5 6 
#
# 1 0.014318 0.014421 -0.005689 0.000000 0.000000 0.000000
# 2 0.014421 0.070908 -0.005502 0.000000 0.000000 0.000000
# 3 -0.005689 -0.005502 0.007203 0.000000 0.000000 0.000000
# 4 0.000000 0.000000 0.000000 0.162434 0.000000 0.000000
# 5 0.000000 0.000000 0.000000 0.000000 0.052151 0.000000
# 6 0.000000 0.000000 0.000000 0.000000 0.000000 0.092494
#
#
# Mechanical properties :
#
#
# Convention : Reuss Voigt Hill
#
# Bulk Modulus (GPa) = 10.11240 51.67047 30.89143
# Shear Modulus (GPa) = 11.73678 25.78444 18.76061
#
# Velocity S-wave (km/s) = 2.31691 3.43410 2.92926
# Velocity P-wave (km/s) = 3.43257 6.27349 5.05664
#
# Compressibility (1/GPa) = 0.09888852
#
# Stress axis : x y z
#
# Youngs Moduli (GPa) = 69.84245 14.10271 138.83424
#
# Poissons Ratio (x) = -0.20337 0.78988
# Poissons Ratio (y) = -1.00719 0.76385
# Poissons Ratio (z) = 0.39736 0.07759
#
# Static dielectric constant tensor:
#      x y z
#    x 1.815240 0.000000 0.000000 
#    y 0.000000 1.932650 0.000000 
#    z 0.000000 0.000000 1.810630 
# 
# From -- ./inp_files/18212.got.cif
#   From: 2010.05.17/outbox.cif.g08.bks.cpg/sg52_10_cif.got.tgz:18212.got - 2010.06.03 12:15:38.
