data_PCOD9413271
_publ_section_title
;
Structure prediction by ZEFSAII (Michael W. Deem and Ramdas Pophale) SiO2 
 PCOD9413271
Probable space group: P N N A
;
_chemical_formula_sum "Si O2"
_cell_formula_units_Z 28
_cell_length_a 7.687356
_cell_length_b 7.875740
_cell_length_c 20.628383
_cell_angle_alpha 90.000000
_cell_angle_beta 90.000000
_cell_angle_gamma 90.000000
_cell_volume 1248.916923
_symmetry_space_group_name_H-M "P N N A"
_symmetry_group_IT_number 52
_symmetry_cell_setting 'orthorhombic'
loop_
_space_group_symop_operation_xyz
x,y,z
1/2-x,-y,z
x,1/2-y,1/2-z
1/2-x,1/2+y,1/2-z
-x,-y,-z
1/2+x,y,-z
-x,1/2+y,1/2+z
1/2+x,1/2-y,1/2+z
loop_
_atom_site_type_symbol
_atom_site_label
_atom_site_fract_x
_atom_site_fract_y
_atom_site_fract_z
Si Si1 0.822826 0.310140 0.439627
Si Si2 0.090555 0.899814 0.296568
Si Si3 0.750000 0.000000 0.355670
Si Si4 0.271403 0.804707 0.088659
O O1 0.750000 0.500000 0.426156
O O2 0.808387 0.284223 0.516775
O O3 0.022250 0.284018 0.419447
O O4 0.722457 0.165326 0.400343
O O5 0.029610 0.750000 0.250000
O O6 0.179079 0.818154 0.360613
O O7 0.924607 0.013576 0.313588
O O8 0.250000 0.000000 0.264300
O O9 0.250000 0.000000 0.108421
#
# Coordination Sequence:
#
# PCOD9413271 Si02
#       4
#     8   8   4   8
#     4  11  23  41  73 110 146 182 229 293 357 417
#     4  12  27  48  71  99 139 190 240 291 352 421
#     4  12  26  48  74 108 138 184 242 292 354 420
#     4  11  22  43  69 106 147 183 230 291 352 421
#
# _framework density 22.419425
#
# number of rings (size 3 to 8) (size 9 to 14) (size 15 to 20)
#    0.000    0.571    2.857    7.714    2.000    3.429 
#    7.714    0.000    0.000    0.000    0.000    0.000 
#    0.000    0.000    0.000    0.000    0.000    0.000 
#
# Total GULP energy -156743.686801 kJ/mol
# GULP energy per Si atom -5597.988814 kJ/mol
# Density = 2.236840 g / cm^3
# Si number density = 22.419425 Si / 1000 Ang^3
#
#
#
# Elastic Constant Matrix: (Units=GPa)
#
#
# Indices 1 2 3 4 5 6 
#
# 1 125.7701 0.9986 28.0358 0.0000 0.0000 0.0000
# 2 0.9986 62.7196 25.9077 0.0000 0.0000 0.0000
# 3 28.0358 25.9077 68.2904 0.0000 0.0000 0.0000
# 4 0.0000 0.0000 0.0000 52.2576 0.0000 0.0000
# 5 0.0000 0.0000 0.0000 0.0000 -97.2559 0.0000
# 6 0.0000 0.0000 0.0000 0.0000 0.0000 35.0884
#
#
#
# Elastic Compliance Matrix: (Units=1/GPa)
#
#
# Indices 1 2 3 4 5 6 
#
# 1 0.008889 0.001620 -0.004264 0.000000 0.000000 0.000000
# 2 0.001620 0.019202 -0.007950 0.000000 0.000000 0.000000
# 3 -0.004264 -0.007950 0.019410 0.000000 0.000000 0.000000
# 4 0.000000 0.000000 0.000000 0.019136 0.000000 0.000000
# 5 0.000000 0.000000 0.000000 0.000000 -0.010282 0.000000
# 6 0.000000 0.000000 0.000000 0.000000 0.000000 0.028499
#
#
# Mechanical properties :
#
#
# Convention : Reuss Voigt Hill
#
# Bulk Modulus (GPa) = 38.00407 40.74048 39.37227
# Shear Modulus (GPa) = 43.54962 11.47388 27.51175
#
# Velocity S-wave (km/s) = 4.41216 2.26472 3.50685
# Velocity P-wave (km/s) = 6.55319 5.00500 5.83071
#
# Compressibility (1/GPa) = 0.02631297
#
# Stress axis : x y z
#
# Youngs Moduli (GPa) = 112.50424 52.07795 51.52091
#
# Poissons Ratio (x) = -0.08435 0.21966
# Poissons Ratio (y) = -0.18221 0.40957
# Poissons Ratio (z) = 0.47967 0.41400
#
# Static dielectric constant tensor:
#      x y z
#    x 1.870200 0.000000 0.000000 
#    y 0.000000 1.899810 0.000000 
#    z 0.000000 0.000000 1.789830 
# 
# From -- ./inp_files/30674.got.cif
#   From: 2010.05.17/outbox.cif.g08.bks.cpg/sg52_16_cif.got.tgz:30674.got - 2010.06.03 12:15:38.
