data_PCOD9413592
_publ_section_title
;
Structure prediction by ZEFSAII (Michael W. Deem and Ramdas Pophale) SiO2 
 PCOD9413592
Probable space group: P N N A
;
_chemical_formula_sum "Si O2"
_cell_formula_units_Z 40
_cell_length_a 9.816137
_cell_length_b 29.325348
_cell_length_c 4.979988
_cell_angle_alpha 90.000000
_cell_angle_beta 90.000000
_cell_angle_gamma 90.000000
_cell_volume 1433.547481
_symmetry_space_group_name_H-M "P N N A"
_symmetry_group_IT_number 52
_symmetry_cell_setting 'orthorhombic'
loop_
_space_group_symop_operation_xyz
x,y,z
1/2-x,-y,z
x,1/2-y,1/2-z
1/2-x,1/2+y,1/2-z
-x,-y,-z
1/2+x,y,-z
-x,1/2+y,1/2+z
1/2+x,1/2-y,1/2+z
loop_
_atom_site_type_symbol
_atom_site_label
_atom_site_fract_x
_atom_site_fract_y
_atom_site_fract_z
Si Si1 0.418684 0.923814 0.479294
Si Si2 0.677443 0.323643 0.959356
Si Si3 0.336911 0.073576 0.160546
Si Si4 0.007663 0.250000 0.750000
Si Si5 0.159895 0.827992 0.954866
Si Si6 0.250000 0.500000 0.699068
O O1 0.389090 0.871001 0.554000
O O2 0.327178 0.925047 0.208011
O O3 0.575859 0.929987 0.565294
O O4 0.339351 0.963817 0.636298
O O5 0.598070 0.279764 0.050512
O O6 0.814967 0.322511 0.139413
O O7 0.705226 0.324676 0.643401
O O8 0.384194 0.119975 0.014082
O O9 0.353500 0.029250 0.983010
O O10 0.924535 0.213448 0.924368
#
# Coordination Sequence:
#
# PCOD9413592 Si02
#       6
#     8   8   8   4   8   4
#     4  11  25  47  71 107 147 196 247 313 379 455
#     4  11  25  46  70 107 148 191 245 308 368 446
#     4  11  25  47  71 107 147 196 247 313 379 455
#     4  12  24  46  76 106 142 198 248 302 378 438
#     4  11  25  46  70 107 148 191 245 308 368 446
#     4  12  24  44  76 104 142 196 246 318 380 454
#
# _framework density 27.902811
#
# number of rings (size 3 to 8) (size 9 to 14) (size 15 to 20)
#    0.000    0.800    4.000    2.400    0.000    8.000 
#    3.600    0.000    0.000    0.000    0.000    0.000 
#    0.000    0.000    0.000    0.000    0.000    0.000 
#
# Total GULP energy -224092.224725 kJ/mol
# GULP energy per Si atom -5602.305618 kJ/mol
# Density = 2.783930 g / cm^3
# Si number density = 27.902811 Si / 1000 Ang^3
#
#
#
# Elastic Constant Matrix: (Units=GPa)
#
#
# Indices 1 2 3 4 5 6 
#
# 1 75.9262 48.4833 12.5942 0.0000 0.0000 0.0000
# 2 48.4833 236.1476 31.7659 0.0000 0.0000 0.0000
# 3 12.5942 31.7659 87.2025 0.0000 0.0000 0.0000
# 4 0.0000 0.0000 0.0000 43.4568 0.0000 0.0000
# 5 0.0000 0.0000 0.0000 0.0000 28.3719 0.0000
# 6 0.0000 0.0000 0.0000 0.0000 0.0000 37.2783
#
#
#
# Elastic Compliance Matrix: (Units=1/GPa)
#
#
# Indices 1 2 3 4 5 6 
#
# 1 0.015261 -0.002983 -0.001117 0.000000 0.000000 0.000000
# 2 -0.002983 0.005036 -0.001404 0.000000 0.000000 0.000000
# 3 -0.001117 -0.001404 0.012140 0.000000 0.000000 0.000000
# 4 0.000000 0.000000 0.000000 0.023011 0.000000 0.000000
# 5 0.000000 0.000000 0.000000 0.000000 0.035246 0.000000
# 6 0.000000 0.000000 0.000000 0.000000 0.000000 0.026825
#
#
# Mechanical properties :
#
#
# Convention : Reuss Voigt Hill
#
# Bulk Modulus (GPa) = 46.66577 64.99590 55.83084
# Shear Modulus (GPa) = 36.85399 42.25027 39.55213
#
# Velocity S-wave (km/s) = 3.63822 3.89549 3.76905
# Velocity P-wave (km/s) = 5.86597 6.60131 6.24447
#
# Compressibility (1/GPa) = 0.02142898
#
# Stress axis : x y z
#
# Youngs Moduli (GPa) = 65.52752 198.57562 82.37054
#
# Poissons Ratio (x) = 0.59232 0.09204
# Poissons Ratio (y) = 0.19546 0.11562
# Poissons Ratio (z) = 0.07322 0.27873
#
# Static dielectric constant tensor:
#      x y z
#    x 2.262450 0.000000 0.000000 
#    y 0.000000 2.069290 0.000000 
#    z 0.000000 0.000000 2.144370 
# 
# From -- ./inp_files/1431.got.cif
#   From: 2010.05.17/outbox.cif.g08.bks.cpg/sg52_1_cif.got.tgz:1431.got - 2010.06.03 12:15:38.
