data_PCOD9413435
_publ_section_title
;
Structure prediction by ZEFSAII (Michael W. Deem and Ramdas Pophale) SiO2 
 PCOD9413435
Probable space group: P N N A
;
_chemical_formula_sum "Si O2"
_cell_formula_units_Z 36
_cell_length_a 10.334484
_cell_length_b 23.524288
_cell_length_c 6.683847
_cell_angle_alpha 90.000000
_cell_angle_beta 90.000000
_cell_angle_gamma 90.000000
_cell_volume 1624.919254
_symmetry_space_group_name_H-M "P N N A"
_symmetry_group_IT_number 52
_symmetry_cell_setting 'orthorhombic'
loop_
_space_group_symop_operation_xyz
x,y,z
1/2-x,-y,z
x,1/2-y,1/2-z
1/2-x,1/2+y,1/2-z
-x,-y,-z
1/2+x,y,-z
-x,1/2+y,1/2+z
1/2+x,1/2-y,1/2+z
loop_
_atom_site_type_symbol
_atom_site_label
_atom_site_fract_x
_atom_site_fract_y
_atom_site_fract_z
Si Si1 0.868304 0.896112 0.939363
Si Si2 0.258608 0.191642 0.346878
Si Si3 0.045451 0.940667 0.587318
Si Si4 0.750000 0.000000 0.182828
Si Si5 0.958307 0.838110 0.332685
O O1 0.826476 0.955995 0.040314
O O2 0.919634 0.851746 0.105379
O O3 0.763885 0.861013 0.807319
O O4 0.975413 0.915504 0.781299
O O5 0.209296 0.250000 0.250000
O O6 0.413240 0.199086 0.377200
O O7 0.169032 0.179757 0.541309
O O8 0.013452 0.897207 0.415890
O O9 0.186713 0.954471 0.666146
O O10 0.000000 0.000000 0.500000
#
# Coordination Sequence:
#
# PCOD9413435 Si02
#       5
#     8   8   8   4   8
#     4  11  25  43  69 104 140 190 236 288 359 429
#     4  11  28  48  75 102 138 189 241 304 355 421
#     4  11  24  39  64 102 144 182 227 282 348 426
#     4  12  22  40  68 102 142 190 220 286 356 430
#     4  11  25  50  70 107 142 186 242 296 361 430
#
# _framework density 22.154947
#
# number of rings (size 3 to 8) (size 9 to 14) (size 15 to 20)
#    0.000    0.889    2.222    3.333    9.333    1.778 
#    0.000    0.000    0.000    0.000    0.000    0.000 
#    0.000    0.000    0.000    0.000    0.000    0.000 
#
# Total GULP energy -200759.975746 kJ/mol
# GULP energy per Si atom -5576.665993 kJ/mol
# Density = 2.210452 g / cm^3
# Si number density = 22.154947 Si / 1000 Ang^3
#
#
#
# Elastic Constant Matrix: (Units=GPa)
#
#
# Indices 1 2 3 4 5 6 
#
# 1 93.4064 1.1821 43.0527 0.0000 0.0000 0.0000
# 2 1.1821 79.1834 5.4408 0.0000 0.0000 0.0000
# 3 43.0527 5.4408 109.0249 0.0000 0.0000 0.0000
# 4 0.0000 0.0000 0.0000 27.4622 0.0000 0.0000
# 5 0.0000 0.0000 0.0000 0.0000 -12.0294 0.0000
# 6 0.0000 0.0000 0.0000 0.0000 0.0000 27.5133
#
#
#
# Elastic Compliance Matrix: (Units=1/GPa)
#
#
# Indices 1 2 3 4 5 6 
#
# 1 0.013090 0.000160 -0.005177 0.000000 0.000000 0.000000
# 2 0.000160 0.012674 -0.000696 0.000000 0.000000 0.000000
# 3 -0.005177 -0.000696 0.011251 0.000000 0.000000 0.000000
# 4 0.000000 0.000000 0.000000 0.036414 0.000000 0.000000
# 5 0.000000 0.000000 0.000000 0.000000 -0.083130 0.000000
# 6 0.000000 0.000000 0.000000 0.000000 0.000000 0.036346
#
#
# Mechanical properties :
#
#
# Convention : Reuss Voigt Hill
#
# Bulk Modulus (GPa) = 39.07700 42.32955 40.70328
# Shear Modulus (GPa) = 107.29333 24.05184 65.67259
#
# Velocity S-wave (km/s) = 6.96662 3.29845 5.45039
# Velocity P-wave (km/s) = 9.07678 5.80120 7.61715
#
# Compressibility (1/GPa) = 0.02559050
#
# Stress axis : x y z
#
# Youngs Moduli (GPa) = 76.39361 78.89966 88.87841
#
# Poissons Ratio (x) = -0.01265 0.46013
# Poissons Ratio (y) = -0.01225 0.06184
# Poissons Ratio (z) = 0.39550 0.05490
#
# Static dielectric constant tensor:
#      x y z
#    x 1.953070 0.000000 0.000000 
#    y 0.000000 1.644740 0.000000 
#    z 0.000000 0.000000 1.963310 
# 
# From -- ./inp_files/1218.got.cif
#   From: 2010.05.17/outbox.cif.g08.bks.cpg/sg52_1_cif.got.tgz:1218.got - 2010.06.03 12:15:38.
