data_PCOD9413731
_publ_section_title
;
Structure prediction by ZEFSAII (Michael W. Deem and Ramdas Pophale) SiO2 
 PCOD9413731
Probable space group: P N N A
;
_chemical_formula_sum "Si O2"
_cell_formula_units_Z 40
_cell_length_a 8.218522
_cell_length_b 23.028174
_cell_length_c 9.099653
_cell_angle_alpha 90.000000
_cell_angle_beta 90.000000
_cell_angle_gamma 90.000000
_cell_volume 1722.178075
_symmetry_space_group_name_H-M "P N N A"
_symmetry_group_IT_number 52
_symmetry_cell_setting 'orthorhombic'
loop_
_space_group_symop_operation_xyz
x,y,z
1/2-x,-y,z
x,1/2-y,1/2-z
1/2-x,1/2+y,1/2-z
-x,-y,-z
1/2+x,y,-z
-x,1/2+y,1/2+z
1/2+x,1/2-y,1/2+z
loop_
_atom_site_type_symbol
_atom_site_label
_atom_site_fract_x
_atom_site_fract_y
_atom_site_fract_z
Si Si1 0.500000 0.500000 0.000000
Si Si2 0.230531 0.815887 0.709139
Si Si3 0.750000 0.000000 0.252685
Si Si4 0.272003 0.430232 0.286535
Si Si5 0.928418 0.097918 0.075748
Si Si6 0.466868 0.128045 0.463521
O O1 0.610533 0.478506 0.137504
O O2 0.491986 0.431743 0.944496
O O3 0.267734 0.750000 0.750000
O O4 0.157106 0.845365 0.856628
O O5 0.095185 0.824861 0.581107
O O6 0.388111 0.847162 0.636765
O O7 0.824624 0.047318 0.148871
O O8 0.250000 0.500000 0.246772
O O9 0.413868 0.416500 0.403772
O O10 0.321179 0.394303 0.143218
O O11 0.111741 0.408229 0.368129
#
# Coordination Sequence:
#
# PCOD9413731 Si02
#       6
#     4   8   4   8   8   8
#     4  12  22  40  74 112 148 182 246 322 392 454
#     4  12  29  51  76 105 151 208 264 312 364 462
#     4  12  24  38  70 112 154 186 234 320 392 466
#     4  12  27  41  75 113 156 193 237 320 402 474
#     4  12  25  46  68 112 154 198 252 305 395 456
#     4  12  26  47  76 114 146 197 254 322 390 449
#
# _framework density 23.226402
#
# number of rings (size 3 to 8) (size 9 to 14) (size 15 to 20)
#    0.000    0.000    5.000    4.200    7.000    3.200 
#    0.000    2.000    0.000    0.000    0.000    0.000 
#    0.000    0.000    0.000    0.000    0.000    0.000 
#
# Total GULP energy -223022.979045 kJ/mol
# GULP energy per Si atom -5575.574476 kJ/mol
# Density = 2.317354 g / cm^3
# Si number density = 23.226402 Si / 1000 Ang^3
#
#
#
# Elastic Constant Matrix: (Units=GPa)
#
#
# Indices 1 2 3 4 5 6 
#
# 1 81.6695 24.6590 3.2763 0.0000 0.0000 0.0000
# 2 24.6590 136.4018 20.5392 0.0000 0.0000 0.0000
# 3 3.2763 20.5392 108.3873 0.0000 0.0000 0.0000
# 4 0.0000 0.0000 0.0000 35.9375 0.0000 0.0000
# 5 0.0000 0.0000 0.0000 0.0000 42.2982 0.0000
# 6 0.0000 0.0000 0.0000 0.0000 0.0000 26.6899
#
#
#
# Elastic Compliance Matrix: (Units=1/GPa)
#
#
# Indices 1 2 3 4 5 6 
#
# 1 0.012952 -0.002350 0.000054 0.000000 0.000000 0.000000
# 2 -0.002350 0.007973 -0.001440 0.000000 0.000000 0.000000
# 3 0.000054 -0.001440 0.009497 0.000000 0.000000 0.000000
# 4 0.000000 0.000000 0.000000 0.027826 0.000000 0.000000
# 5 0.000000 0.000000 0.000000 0.000000 0.023642 0.000000
# 6 0.000000 0.000000 0.000000 0.000000 0.000000 0.037467
#
#
# Mechanical properties :
#
#
# Convention : Reuss Voigt Hill
#
# Bulk Modulus (GPa) = 43.57160 47.04527 45.30843
# Shear Modulus (GPa) = 37.18068 39.51741 38.34905
#
# Velocity S-wave (km/s) = 4.00533 4.12928 4.06778
# Velocity P-wave (km/s) = 6.33960 6.56000 6.45074
#
# Compressibility (1/GPa) = 0.02295073
#
# Stress axis : x y z
#
# Youngs Moduli (GPa) = 77.20976 125.42583 105.29211
#
# Poissons Ratio (x) = 0.29469 -0.00566
# Poissons Ratio (y) = 0.18141 0.15160
# Poissons Ratio (z) = -0.00415 0.18059
#
# Static dielectric constant tensor:
#      x y z
#    x 2.041900 0.000000 0.000000 
#    y 0.000000 1.890940 0.000000 
#    z 0.000000 0.000000 2.057190 
# 
# From -- ./inp_files/7482.got.cif
#   From: 2010.05.17/outbox.cif.g08.bks.cpg/sg52_4_cif.got.tgz:7482.got - 2010.06.03 12:15:38.
