data_PCOD9413158
_publ_section_title
;
Structure prediction by ZEFSAII (Michael W. Deem and Ramdas Pophale) SiO2 
 PCOD9413158
Probable space group: P N N A
;
_chemical_formula_sum "Si O2"
_cell_formula_units_Z 52
_cell_length_a 23.614371
_cell_length_b 18.101466
_cell_length_c 6.623256
_cell_angle_alpha 90.000000
_cell_angle_beta 90.000000
_cell_angle_gamma 90.000000
_cell_volume 2831.142130
_symmetry_space_group_name_H-M "P N N A"
_symmetry_group_IT_number 52
_symmetry_cell_setting 'orthorhombic'
loop_
_space_group_symop_operation_xyz
x,y,z
1/2-x,-y,z
x,1/2-y,1/2-z
1/2-x,1/2+y,1/2-z
-x,-y,-z
1/2+x,y,-z
-x,1/2+y,1/2+z
1/2+x,1/2-y,1/2+z
loop_
_atom_site_type_symbol
_atom_site_label
_atom_site_fract_x
_atom_site_fract_y
_atom_site_fract_z
Si Si1 0.587051 0.663037 0.286262
Si Si2 0.689026 0.430753 0.521144
Si Si3 0.750000 0.000000 0.603579
Si Si4 0.909837 0.670797 0.669566
Si Si5 0.699411 0.578122 0.275564
Si Si6 0.511054 0.675437 0.637252
Si Si7 0.990788 0.913076 0.524828
O O1 0.579874 0.750000 0.250000
O O2 0.651382 0.638759 0.268815
O O3 0.563135 0.644772 0.508561
O O4 0.546924 0.620310 0.130021
O O5 0.637965 0.374409 0.550100
O O6 0.675679 0.505014 0.392361
O O7 0.744263 0.400281 0.401569
O O8 0.709024 0.456263 0.743913
O O9 0.717224 0.946387 0.449163
O O10 0.888173 0.750000 0.750000
O O11 0.961748 0.691728 0.522752
O O12 0.938306 0.617575 0.840456
O O13 0.528058 0.750000 0.750000
O O14 0.487162 0.620104 0.802061
O O15 0.000000 0.000000 0.500000
#
# Coordination Sequence:
#
# PCOD9413158 Si02
#       7
#     8   8   4   8   8   8   8
#     4  11  23  40  60  90 123 156 199 246 297 366
#     4   9  21  40  61  86 117 155 202 248 293 346
#     4   8  18  40  60  80 116 152 196 248 296 348
#     4  11  23  40  60  90 123 156 199 246 297 366
#     4   9  21  40  61  86 117 155 202 248 293 346
#     4  11  21  43  59  82 127 161 187 244 305 349
#     4  11  25  37  63  95 115 159 207 241 298 360
#
# _framework density 18.367145000000001
#
# number of rings (size 3 to 8) (size 9 to 14) (size 15 to 20)
#    0.000    2.154    3.077    0.923    6.462    3.692 
#    2.769    0.000    0.000    0.000    0.000    0.000 
#    0.000    0.000    0.000    0.000    0.000    0.000 
#
# Total GULP energy -290049.254330 kJ/mol
# GULP energy per Si atom -5577.870276 kJ/mol
# Density = 1.832534 g / cm^3
# Si number density = 18.367145 Si / 1000 Ang^3
#
#
#
# Elastic Constant Matrix: (Units=GPa)
#
#
# Indices 1 2 3 4 5 6 
#
# 1 65.7851 17.9832 4.4701 0.0000 0.0000 0.0000
# 2 17.9832 87.0326 7.2178 0.0000 0.0000 0.0000
# 3 4.4701 7.2178 84.9543 0.0000 0.0000 0.0000
# 4 0.0000 0.0000 0.0000 17.2868 0.0000 0.0000
# 5 0.0000 0.0000 0.0000 0.0000 8.0534 0.0000
# 6 0.0000 0.0000 0.0000 0.0000 0.0000 39.1165
#
#
#
# Elastic Compliance Matrix: (Units=1/GPa)
#
#
# Indices 1 2 3 4 5 6 
#
# 1 0.016138 -0.003287 -0.000570 0.000000 0.000000 0.000000
# 2 -0.003287 0.012241 -0.000867 0.000000 0.000000 0.000000
# 3 -0.000570 -0.000867 0.011875 0.000000 0.000000 0.000000
# 4 0.000000 0.000000 0.000000 0.057847 0.000000 0.000000
# 5 0.000000 0.000000 0.000000 0.000000 0.124171 0.000000
# 6 0.000000 0.000000 0.000000 0.000000 0.000000 0.025565
#
#
# Mechanical properties :
#
#
# Convention : Reuss Voigt Hill
#
# Bulk Modulus (GPa) = 32.46160 33.01271 32.73715
# Shear Modulus (GPa) = 18.68778 26.76475 22.72627
#
# Velocity S-wave (km/s) = 3.19322 3.82148 3.52139
# Velocity P-wave (km/s) = 5.59532 6.12245 5.86481
#
# Compressibility (1/GPa) = 0.03080563
#
# Stress axis : x y z
#
# Youngs Moduli (GPa) = 61.96413 81.69199 84.21275
#
# Poissons Ratio (x) = 0.26855 0.04799
# Poissons Ratio (y) = 0.20370 0.07302
# Poissons Ratio (z) = 0.03531 0.07083
#
# Static dielectric constant tensor:
#      x y z
#    x 1.628910 0.000000 0.000000 
#    y 0.000000 1.700770 0.000000 
#    z 0.000000 0.000000 1.639060 
# 
# From -- ./inp_files/5900.got.cif
#   From: 2010.05.17/outbox.cif.g08.bks.cpg/sg52_3_cif.got.tgz:5900.got - 2010.06.03 12:15:38.
