data_PCOD9413273
_publ_section_title
;
Structure prediction by ZEFSAII (Michael W. Deem and Ramdas Pophale) SiO2 
 PCOD9413273
Probable space group: P N N A
;
_chemical_formula_sum "Si O2"
_cell_formula_units_Z 32
_cell_length_a 13.994568
_cell_length_b 8.634564
_cell_length_c 11.328066
_cell_angle_alpha 90.000000
_cell_angle_beta 90.000000
_cell_angle_gamma 90.000000
_cell_volume 1368.849432
_symmetry_space_group_name_H-M "P N N A"
_symmetry_group_IT_number 52
_symmetry_cell_setting 'orthorhombic'
loop_
_space_group_symop_operation_xyz
x,y,z
1/2-x,-y,z
x,1/2-y,1/2-z
1/2-x,1/2+y,1/2-z
-x,-y,-z
1/2+x,y,-z
-x,1/2+y,1/2+z
1/2+x,1/2-y,1/2+z
loop_
_atom_site_type_symbol
_atom_site_label
_atom_site_fract_x
_atom_site_fract_y
_atom_site_fract_z
Si Si1 0.489177 0.892642 0.885515
Si Si2 0.963308 0.895103 0.671997
Si Si3 0.776135 0.683533 0.378864
Si Si4 0.623145 0.849092 0.529422
O O1 0.389545 0.803105 0.895564
O O2 0.487643 0.993702 0.768221
O O3 0.579262 0.780775 0.885427
O O4 0.500000 0.000000 0.000000
O O5 0.928778 0.750000 0.750000
O O6 0.045330 0.853607 0.577565
O O7 0.883639 0.990766 0.600292
O O8 0.750000 0.500000 0.387412
O O9 0.750690 0.750000 0.250000
O O10 0.719410 0.785598 0.473229
#
# Coordination Sequence:
#
# PCOD9413273 Si02
#       4
#     8   8   8   8
#     4  12  23  43  74 100 143 192 234 304 376 436
#     4  11  22  43  70 103 147 198 240 301 377 436
#     4  12  24  42  70 108 142 187 256 312 363 444
#     4  11  24  42  72 104 143 191 250 305 365 432
#
# _framework density 23.377298
#
# number of rings (size 3 to 8) (size 9 to 14) (size 15 to 20)
#    0.000    0.500    5.000    4.500    0.000    2.000 
#    0.000    0.000   16.500    0.000    0.000    0.000 
#    0.000    0.000    0.000    0.000    0.000    0.000 
#
# Total GULP energy -179288.177765 kJ/mol
# GULP energy per Si atom -5602.755555 kJ/mol
# Density = 2.332409 g / cm^3
# Si number density = 23.377298 Si / 1000 Ang^3
#
#
#
# Elastic Constant Matrix: (Units=GPa)
#
#
# Indices 1 2 3 4 5 6 
#
# 1 106.7551 47.9327 30.7888 0.0000 0.0000 0.0000
# 2 47.9327 134.6021 66.6622 0.0000 0.0000 0.0000
# 3 30.7888 66.6622 121.5061 0.0000 0.0000 0.0000
# 4 0.0000 0.0000 0.0000 67.9695 0.0000 0.0000
# 5 0.0000 0.0000 0.0000 0.0000 22.9465 0.0000
# 6 0.0000 0.0000 0.0000 0.0000 0.0000 30.5064
#
#
#
# Elastic Compliance Matrix: (Units=1/GPa)
#
#
# Indices 1 2 3 4 5 6 
#
# 1 0.011220 -0.003553 -0.000894 0.000000 0.000000 0.000000
# 2 -0.003553 0.011326 -0.005314 0.000000 0.000000 0.000000
# 3 -0.000894 -0.005314 0.011372 0.000000 0.000000 0.000000
# 4 0.000000 0.000000 0.000000 0.014712 0.000000 0.000000
# 5 0.000000 0.000000 0.000000 0.000000 0.043580 0.000000
# 6 0.000000 0.000000 0.000000 0.000000 0.000000 0.032780
#
#
# Mechanical properties :
#
#
# Convention : Reuss Voigt Hill
#
# Bulk Modulus (GPa) = 69.45724 72.62564 71.04144
# Shear Modulus (GPa) = 33.48735 38.78312 36.13523
#
# Velocity S-wave (km/s) = 3.78891 4.07751 3.93586
# Velocity P-wave (km/s) = 6.99407 7.30084 7.14910
#
# Compressibility (1/GPa) = 0.01439735
#
# Stress axis : x y z
#
# Youngs Moduli (GPa) = 89.12424 88.29171 87.93726
#
# Poissons Ratio (x) = 0.31369 0.07861
# Poissons Ratio (y) = 0.31665 0.46726
# Poissons Ratio (z) = 0.07967 0.46914
#
# Static dielectric constant tensor:
#      x y z
#    x 1.824980 0.000000 0.000000 
#    y 0.000000 1.955110 0.000000 
#    z 0.000000 0.000000 1.848830 
# 
# From -- ./inp_files/18880.got.cif
#   From: 2010.05.17/outbox.cif.g08.bks.cpg/sg52_10_cif.got.tgz:18880.got - 2010.06.03 12:15:38.
