data_PCOD9413659
_publ_section_title
;
Structure prediction by ZEFSAII (Michael W. Deem and Ramdas Pophale) SiO2 
 PCOD9413659
Probable space group: P N N A
;
_chemical_formula_sum "Si O2"
_cell_formula_units_Z 32
_cell_length_a 19.963253
_cell_length_b 8.787910
_cell_length_c 6.721980
_cell_angle_alpha 90.000000
_cell_angle_beta 90.000000
_cell_angle_gamma 90.000000
_cell_volume 1179.272381
_symmetry_space_group_name_H-M "P N N A"
_symmetry_group_IT_number 52
_symmetry_cell_setting 'orthorhombic'
loop_
_space_group_symop_operation_xyz
x,y,z
1/2-x,-y,z
x,1/2-y,1/2-z
1/2-x,1/2+y,1/2-z
-x,-y,-z
1/2+x,y,-z
-x,1/2+y,1/2+z
1/2+x,1/2-y,1/2+z
loop_
_atom_site_type_symbol
_atom_site_label
_atom_site_fract_x
_atom_site_fract_y
_atom_site_fract_z
Si Si1 0.193053 0.869626 0.622497
Si Si2 0.547935 0.998652 0.303349
Si Si3 0.076220 0.382591 0.399262
Si Si4 0.191553 0.625896 0.371967
O O1 0.117169 0.931731 0.624033
O O2 0.196712 0.823801 0.374676
O O3 0.250000 0.000000 0.621812
O O4 0.197198 0.828577 0.875724
O O5 0.500663 0.897489 0.164269
O O6 0.500000 0.000000 0.500000
O O7 0.570887 0.126871 0.138836
O O8 0.104466 0.250000 0.250000
O O9 0.120327 0.534285 0.367440
O O10 0.250000 0.500000 0.372743
#
# Coordination Sequence:
#
# PCOD9413659 Si02
#       4
#     8   8   8   8
#     4  12  26  51  79 116 165 222 285 354 432 524
#     4  11  26  50  80 120 168 221 282 356 437 520
#     4  11  26  49  79 121 168 221 286 352 437 524
#     4  12  26  49  80 118 169 219 288 359 433 520
#
# _framework density 27.135376999999998
#
# number of rings (size 3 to 8) (size 9 to 14) (size 15 to 20)
#    0.000    0.500    2.500    4.500    3.500    3.000 
#    0.000    0.000    0.000    0.000    0.000    0.000 
#    0.000    0.000    0.000    0.000    0.000    0.000 
#
# Total GULP energy -178526.359030 kJ/mol
# GULP energy per Si atom -5578.948720 kJ/mol
# Density = 2.707362 g / cm^3
# Si number density = 27.135377 Si / 1000 Ang^3
#
#
#
# Elastic Constant Matrix: (Units=GPa)
#
#
# Indices 1 2 3 4 5 6 
#
# 1 245.1729 123.5717 94.1330 0.0000 0.0000 0.0000
# 2 123.5717 187.0728 160.4204 0.0000 0.0000 0.0000
# 3 94.1330 160.4204 363.3094 0.0000 0.0000 0.0000
# 4 0.0000 0.0000 0.0000 106.3564 0.0000 0.0000
# 5 0.0000 0.0000 0.0000 0.0000 68.5355 0.0000
# 6 0.0000 0.0000 0.0000 0.0000 0.0000 0.9328
#
#
#
# Elastic Compliance Matrix: (Units=1/GPa)
#
#
# Indices 1 2 3 4 5 6 
#
# 1 0.006138 -0.004330 0.000322 0.000000 0.000000 0.000000
# 2 -0.004330 0.011658 -0.004026 0.000000 0.000000 0.000000
# 3 0.000322 -0.004026 0.004447 0.000000 0.000000 0.000000
# 4 0.000000 0.000000 0.000000 0.009402 0.000000 0.000000
# 5 0.000000 0.000000 0.000000 0.000000 0.014591 0.000000
# 6 0.000000 0.000000 0.000000 0.000000 0.000000 1.072002
#
#
# Mechanical properties :
#
#
# Convention : Reuss Voigt Hill
#
# Bulk Modulus (GPa) = 161.96693 172.42279 167.19486
# Shear Modulus (GPa) = 4.40000 62.99362 33.69681
#
# Velocity S-wave (km/s) = 1.27476 4.82338 3.52775
# Velocity P-wave (km/s) = 7.87304 9.73137 8.85111
#
# Compressibility (1/GPa) = 0.00617410
#
# Stress axis : x y z
#
# Youngs Moduli (GPa) = 162.92685 85.77836 224.88813
#
# Poissons Ratio (x) = 0.37144 -0.07235
# Poissons Ratio (y) = 0.70550 0.90532
# Poissons Ratio (z) = -0.05242 0.34531
#
# Static dielectric constant tensor:
#      x y z
#    x 1.940780 0.000000 0.000000 
#    y 0.000000 2.214700 0.000000 
#    z 0.000000 0.000000 2.338160 
# 
# From -- ./inp_files/3876.got.cif
#   From: 2010.05.17/outbox.cif.g08.bks.cpg/sg52_2_cif.got.tgz:3876.got - 2010.06.03 12:15:38.
