data_PCOD9413517
_publ_section_title
;
Structure prediction by ZEFSAII (Michael W. Deem and Ramdas Pophale) SiO2 
 PCOD9413517
Probable space group: P N N A
;
_chemical_formula_sum "Si O2"
_cell_formula_units_Z 36
_cell_length_a 9.379746
_cell_length_b 9.527030
_cell_length_c 18.840132
_cell_angle_alpha 90.000000
_cell_angle_beta 90.000000
_cell_angle_gamma 90.000000
_cell_volume 1683.575325
_symmetry_space_group_name_H-M "P N N A"
_symmetry_group_IT_number 52
_symmetry_cell_setting 'orthorhombic'
loop_
_space_group_symop_operation_xyz
x,y,z
1/2-x,-y,z
x,1/2-y,1/2-z
1/2-x,1/2+y,1/2-z
-x,-y,-z
1/2+x,y,-z
-x,1/2+y,1/2+z
1/2+x,1/2-y,1/2+z
loop_
_atom_site_type_symbol
_atom_site_label
_atom_site_fract_x
_atom_site_fract_y
_atom_site_fract_z
Si Si1 0.212463 0.651909 0.815194
Si Si2 0.387998 0.400953 0.462029
Si Si3 0.004819 0.635252 0.949172
Si Si4 0.750000 0.000000 0.611080
Si Si5 0.531217 0.724376 0.833229
O O1 0.250000 0.500000 0.783809
O O2 0.166572 0.750000 0.750000
O O3 0.098352 0.632586 0.877519
O O4 0.362396 0.704792 0.848139
O O5 0.250000 0.500000 0.465308
O O6 0.500000 0.500000 0.500000
O O7 0.420094 0.257405 0.505771
O O8 0.416649 0.353228 0.381351
O O9 0.837748 0.627722 0.927230
O O10 0.000000 0.500000 0.000000
O O11 0.625753 0.913435 0.650309
O O12 0.543063 0.750000 0.750000
#
# Coordination Sequence:
#
# PCOD9413517 Si02
#       5
#     8   8   8   4   8
#     4  11  24  46  71 102 143 193 247 301 367 445
#     4  12  26  46  71 108 147 189 237 317 378 433
#     4  12  26  45  77 105 145 191 256 295 368 452
#     4  12  24  44  74 104 142 200 242 312 360 456
#     4  11  26  45  70 105 146 193 247 305 369 449
#
# _framework density 21.383064999999998
#
# number of rings (size 3 to 8) (size 9 to 14) (size 15 to 20)
#    0.000    0.444    4.444    2.667    6.222    5.333 
#    0.000    0.000    0.000    0.000    0.000    0.000 
#    0.000    0.000    0.000    0.000    0.000    0.000 
#
# Total GULP energy -200664.369492 kJ/mol
# GULP energy per Si atom -5574.010264 kJ/mol
# Density = 2.133440 g / cm^3
# Si number density = 21.383065 Si / 1000 Ang^3
#
#
#
# Elastic Constant Matrix: (Units=GPa)
#
#
# Indices 1 2 3 4 5 6 
#
# 1 182.1129 67.0654 82.1413 0.0000 0.0000 0.0000
# 2 67.0654 153.0820 77.1459 0.0000 0.0000 0.0000
# 3 82.1413 77.1459 140.5920 0.0000 0.0000 0.0000
# 4 0.0000 0.0000 0.0000 38.5640 0.0000 0.0000
# 5 0.0000 0.0000 0.0000 0.0000 33.6122 0.0000
# 6 0.0000 0.0000 0.0000 0.0000 0.0000 47.3602
#
#
#
# Elastic Compliance Matrix: (Units=1/GPa)
#
#
# Indices 1 2 3 4 5 6 
#
# 1 0.007707 -0.001530 -0.003663 0.000000 0.000000 0.000000
# 2 -0.001530 0.009333 -0.004227 0.000000 0.000000 0.000000
# 3 -0.003663 -0.004227 0.011572 0.000000 0.000000 0.000000
# 4 0.000000 0.000000 0.000000 0.025931 0.000000 0.000000
# 5 0.000000 0.000000 0.000000 0.000000 0.029751 0.000000
# 6 0.000000 0.000000 0.000000 0.000000 0.000000 0.021115
#
#
# Mechanical properties :
#
#
# Convention : Reuss Voigt Hill
#
# Bulk Modulus (GPa) = 102.34013 103.16581 102.75297
# Shear Modulus (GPa) = 39.21331 40.53622 39.87477
#
# Velocity S-wave (km/s) = 4.28699 4.35871 4.32300
# Velocity P-wave (km/s) = 8.51285 8.58384 8.54842
#
# Compressibility (1/GPa) = 0.00977134
#
# Stress axis : x y z
#
# Youngs Moduli (GPa) = 129.75427 107.14409 86.41212
#
# Poissons Ratio (x) = 0.16398 0.31653
# Poissons Ratio (y) = 0.19858 0.36528
# Poissons Ratio (z) = 0.47529 0.45292
#
# Static dielectric constant tensor:
#      x y z
#    x 1.811140 0.000000 0.000000 
#    y 0.000000 1.760050 0.000000 
#    z 0.000000 0.000000 1.782250 
# 
# From -- ./inp_files/35601.got.cif
#   From: 2010.05.17/outbox.cif.g08.bks.cpg/sg52_18_cif.got.tgz:35601.got - 2010.06.03 12:15:38.
