data_PCOD9413512
_publ_section_title
;
Structure prediction by ZEFSAII (Michael W. Deem and Ramdas Pophale) SiO2 
 PCOD9413512
Probable space group: P N N A
;
_chemical_formula_sum "Si O2"
_cell_formula_units_Z 40
_cell_length_a 18.936352
_cell_length_b 7.991453
_cell_length_c 11.851504
_cell_angle_alpha 90.000000
_cell_angle_beta 90.000000
_cell_angle_gamma 90.000000
_cell_volume 1793.475858
_symmetry_space_group_name_H-M "P N N A"
_symmetry_group_IT_number 52
_symmetry_cell_setting 'orthorhombic'
loop_
_space_group_symop_operation_xyz
x,y,z
1/2-x,-y,z
x,1/2-y,1/2-z
1/2-x,1/2+y,1/2-z
-x,-y,-z
1/2+x,y,-z
-x,1/2+y,1/2+z
1/2+x,1/2-y,1/2+z
loop_
_atom_site_type_symbol
_atom_site_label
_atom_site_fract_x
_atom_site_fract_y
_atom_site_fract_z
Si Si1 0.679270 0.889536 0.343227
Si Si2 0.405080 0.445980 0.282009
Si Si3 0.325967 0.920425 0.001957
Si Si4 0.174481 0.462907 0.072575
Si Si5 0.933804 0.562212 0.297482
O O1 0.694887 0.750000 0.250000
O O2 0.750000 0.000000 0.334686
O O3 0.667074 0.890297 0.478619
O O4 0.605025 0.959316 0.299248
O O5 0.398108 0.250000 0.250000
O O6 0.352726 0.501691 0.380769
O O7 0.385320 0.538782 0.166216
O O8 0.485254 0.483844 0.318147
O O9 0.322014 0.718997 0.014311
O O10 0.250000 0.000000 0.972089
O O11 0.383769 0.956245 0.905919
O O12 0.250000 0.500000 0.129945
O O13 0.933302 0.750000 0.250000
#
# Coordination Sequence:
#
# PCOD9413512 Si02
#       5
#     8   8   8   8   8
#     4  11  25  41  69 102 143 182 237 291 352 419
#     4  11  26  46  69 102 144 186 238 287 356 428
#     4  12  25  45  77 101 142 183 238 300 352 423
#     4  11  25  45  70 107 134 188 239 292 359 419
#     4  11  24  46  68 104 138 186 230 289 355 424
#
# _framework density 22.303059999999999
#
# number of rings (size 3 to 8) (size 9 to 14) (size 15 to 20)
#    0.000    0.800    2.000    4.200   11.200    2.400 
#    0.000    0.000    0.000    0.000    0.000    0.000 
#    0.000    0.000    0.000    0.000    0.000    0.000 
#
# Total GULP energy -223545.764810 kJ/mol
# GULP energy per Si atom -5588.644120 kJ/mol
# Density = 2.225230 g / cm^3
# Si number density = 22.303060 Si / 1000 Ang^3
#
#
#
# Elastic Constant Matrix: (Units=GPa)
#
#
# Indices 1 2 3 4 5 6 
#
# 1 123.3686 26.8422 63.9600 0.0000 0.0000 0.0000
# 2 26.8422 37.7910 30.9625 0.0000 0.0000 0.0000
# 3 63.9600 30.9625 136.8555 0.0000 0.0000 0.0000
# 4 0.0000 0.0000 0.0000 28.7440 0.0000 0.0000
# 5 0.0000 0.0000 0.0000 0.0000 47.1204 0.0000
# 6 0.0000 0.0000 0.0000 0.0000 0.0000 23.7502
#
#
#
# Elastic Compliance Matrix: (Units=1/GPa)
#
#
# Indices 1 2 3 4 5 6 
#
# 1 0.011299 -0.004541 -0.004253 0.000000 0.000000 0.000000
# 2 -0.004541 0.034307 -0.005640 0.000000 0.000000 0.000000
# 3 -0.004253 -0.005640 0.010571 0.000000 0.000000 0.000000
# 4 0.000000 0.000000 0.000000 0.034790 0.000000 0.000000
# 5 0.000000 0.000000 0.000000 0.000000 0.021222 0.000000
# 6 0.000000 0.000000 0.000000 0.000000 0.000000 0.042105
#
#
# Mechanical properties :
#
#
# Convention : Reuss Voigt Hill
#
# Bulk Modulus (GPa) = 36.61725 60.17163 48.39444
# Shear Modulus (GPa) = 26.00594 31.67294 28.83944
#
# Velocity S-wave (km/s) = 3.41842 3.77253 3.59983
# Velocity P-wave (km/s) = 5.65990 6.78334 6.24692
#
# Compressibility (1/GPa) = 0.02730954
#
# Stress axis : x y z
#
# Youngs Moduli (GPa) = 88.50481 29.14853 94.60124
#
# Poissons Ratio (x) = 0.13235 0.40237
# Poissons Ratio (y) = 0.40186 0.53352
# Poissons Ratio (z) = 0.37644 0.16439
#
# Static dielectric constant tensor:
#      x y z
#    x 1.777520 0.000000 0.000000 
#    y 0.000000 1.906060 0.000000 
#    z 0.000000 0.000000 1.828590 
# 
# From -- ./inp_files/20341.got.cif
#   From: 2010.05.17/outbox.cif.g08.bks.cpg/sg52_11_cif.got.tgz:20341.got - 2010.06.03 12:15:38.
