data_PCOD9413632
_publ_section_title
;
Structure prediction by ZEFSAII (Michael W. Deem and Ramdas Pophale) SiO2 
 PCOD9413632
Probable space group: P N N A
;
_chemical_formula_sum "Si O2"
_cell_formula_units_Z 36
_cell_length_a 5.470593
_cell_length_b 19.933724
_cell_length_c 13.605954
_cell_angle_alpha 90.000000
_cell_angle_beta 90.000000
_cell_angle_gamma 90.000000
_cell_volume 1483.719637
_symmetry_space_group_name_H-M "P N N A"
_symmetry_group_IT_number 52
_symmetry_cell_setting 'orthorhombic'
loop_
_space_group_symop_operation_xyz
x,y,z
1/2-x,-y,z
x,1/2-y,1/2-z
1/2-x,1/2+y,1/2-z
-x,-y,-z
1/2+x,y,-z
-x,1/2+y,1/2+z
1/2+x,1/2-y,1/2+z
loop_
_atom_site_type_symbol
_atom_site_label
_atom_site_fract_x
_atom_site_fract_y
_atom_site_fract_z
Si Si1 0.329412 0.180337 0.224556
Si Si2 0.013995 0.778991 0.951103
Si Si3 0.750000 0.500000 0.908963
Si Si4 0.369163 0.563995 0.757251
Si Si5 0.977530 0.630153 0.901765
O O1 0.465799 0.250000 0.250000
O O2 0.101730 0.198734 0.153649
O O3 0.489933 0.117636 0.190653
O O4 0.234899 0.154966 0.329213
O O5 0.043946 0.697749 0.957652
O O6 0.788908 0.801209 0.022187
O O7 0.547054 0.527669 0.834502
O O8 0.874346 0.564902 0.959823
O O9 0.250000 0.500000 0.703296
O O10 0.183022 0.605606 0.825587
#
# Coordination Sequence:
#
# PCOD9413632 Si02
#       5
#     8   8   4   8   8
#     4   9  20  35  59  86 114 159 208 256 302 360
#     4  11  26  40  56  86 126 163 199 250 308 361
#     4   8  16  32  54  90 110 146 196 252 294 354
#     4   9  17  32  62  90 118 146 204 261 305 353
#     4   9  19  35  60  83 113 155 201 251 295 365
#
# _framework density 24.263345000000001
#
# number of rings (size 3 to 8) (size 9 to 14) (size 15 to 20)
#    0.000    2.667    0.000    0.000   12.444    0.889 
#    0.000    1.111    0.000    1.333    0.000    0.000 
#    0.000    0.000    0.000    0.000    0.000    0.000 
#
# Total GULP energy -200862.865585 kJ/mol
# GULP energy per Si atom -5579.524044 kJ/mol
# Density = 2.420812 g / cm^3
# Si number density = 24.263345 Si / 1000 Ang^3
#
#
#
# Elastic Constant Matrix: (Units=GPa)
#
#
# Indices 1 2 3 4 5 6 
#
# 1 73.5643 61.0396 -3.9072 0.0000 0.0000 0.0000
# 2 61.0396 128.1199 33.6265 0.0000 0.0000 0.0000
# 3 -3.9072 33.6265 57.7269 0.0000 0.0000 0.0000
# 4 0.0000 0.0000 0.0000 15.5414 0.0000 0.0000
# 5 0.0000 0.0000 0.0000 0.0000 33.5672 0.0000
# 6 0.0000 0.0000 0.0000 0.0000 0.0000 42.4834
#
#
#
# Elastic Compliance Matrix: (Units=1/GPa)
#
#
# Indices 1 2 3 4 5 6 
#
# 1 0.027501 -0.016043 0.011207 0.000000 0.000000 0.000000
# 2 -0.016043 0.018573 -0.011905 0.000000 0.000000 0.000000
# 3 0.011207 -0.011905 0.025016 0.000000 0.000000 0.000000
# 4 0.000000 0.000000 0.000000 0.064344 0.000000 0.000000
# 5 0.000000 0.000000 0.000000 0.000000 0.029791 0.000000
# 6 0.000000 0.000000 0.000000 0.000000 0.000000 0.023539
#
#
# Mechanical properties :
#
#
# Convention : Reuss Voigt Hill
#
# Bulk Modulus (GPa) = 26.59070 48.99210 37.79140
# Shear Modulus (GPa) = 21.29622 29.56185 25.42904
#
# Velocity S-wave (km/s) = 2.96583 3.49431 3.24086
# Velocity P-wave (km/s) = 4.76563 6.04284 5.44184
#
# Compressibility (1/GPa) = 0.03760713
#
# Stress axis : x y z
#
# Youngs Moduli (GPa) = 36.36261 53.84065 39.97391
#
# Poissons Ratio (x) = 0.86379 -0.44798
# Poissons Ratio (y) = 0.58338 0.47589
# Poissons Ratio (z) = -0.40751 0.64098
#
# Static dielectric constant tensor:
#      x y z
#    x 2.061300 0.000000 0.000000 
#    y 0.000000 2.027770 0.000000 
#    z 0.000000 0.000000 1.886460 
# 
# From -- ./inp_files/23554.got.cif
#   From: 2010.05.17/outbox.cif.g08.bks.cpg/sg52_12_cif.got.tgz:23554.got - 2010.06.03 12:15:38.
