data_PCOD9413503
_publ_section_title
;
Structure prediction by ZEFSAII (Michael W. Deem and Ramdas Pophale) SiO2 
 PCOD9413503
Probable space group: P N N A
;
_chemical_formula_sum "Si O2"
_cell_formula_units_Z 32
_cell_length_a 9.557086
_cell_length_b 15.549088
_cell_length_c 8.638022
_cell_angle_alpha 90.000000
_cell_angle_beta 90.000000
_cell_angle_gamma 90.000000
_cell_volume 1283.644373
_symmetry_space_group_name_H-M "P N N A"
_symmetry_group_IT_number 52
_symmetry_cell_setting 'orthorhombic'
loop_
_space_group_symop_operation_xyz
x,y,z
1/2-x,-y,z
x,1/2-y,1/2-z
1/2-x,1/2+y,1/2-z
-x,-y,-z
1/2+x,y,-z
-x,1/2+y,1/2+z
1/2+x,1/2-y,1/2+z
loop_
_atom_site_type_symbol
_atom_site_label
_atom_site_fract_x
_atom_site_fract_y
_atom_site_fract_z
Si Si1 0.949906 0.901359 0.989254
Si Si2 0.792578 0.345646 0.308381
Si Si3 0.035684 0.600010 0.982936
Si Si4 0.271179 0.896382 0.318011
O O1 0.089931 0.849979 0.944441
O O2 0.855529 0.881822 0.137264
O O3 0.841198 0.885572 0.848069
O O4 0.000000 0.000000 0.000000
O O5 0.776322 0.250000 0.250000
O O6 0.862406 0.104074 0.334430
O O7 0.120565 0.637094 0.128269
O O8 0.888253 0.641102 0.935179
O O9 0.250000 0.000000 0.333262
O O10 0.500000 0.000000 0.500000
#
# Coordination Sequence:
#
# PCOD9413503 Si02
#       4
#     8   8   8   8
#     4  11  24  45  71 100 139 192 248 294 354 448
#     4  11  26  46  69 103 145 186 235 304 373 428
#     4   9  20  37  61  95 134 176 228 289 350 422
#     4   9  18  34  60  92 124 164 223 289 338 400
#
# _framework density 24.929023999999998
#
# number of rings (size 3 to 8) (size 9 to 14) (size 15 to 20)
#    0.000    2.000    0.000    2.250    0.000   20.000 
#    0.000    1.250    0.000    0.000    0.000    0.000 
#    0.000    0.000    0.000    0.000    0.000    0.000 
#
# Total GULP energy -178946.598451 kJ/mol
# GULP energy per Si atom -5592.081202 kJ/mol
# Density = 2.487228 g / cm^3
# Si number density = 24.929024 Si / 1000 Ang^3
#
#
#
# Elastic Constant Matrix: (Units=GPa)
#
#
# Indices 1 2 3 4 5 6 
#
# 1 187.1532 48.1264 79.3143 0.0000 0.0000 0.0000
# 2 48.1264 91.1447 29.7928 0.0000 0.0000 0.0000
# 3 79.3143 29.7928 60.9744 0.0000 0.0000 0.0000
# 4 0.0000 0.0000 0.0000 29.1883 0.0000 0.0000
# 5 0.0000 0.0000 0.0000 0.0000 72.9326 0.0000
# 6 0.0000 0.0000 0.0000 0.0000 0.0000 18.6515
#
#
#
# Elastic Compliance Matrix: (Units=1/GPa)
#
#
# Indices 1 2 3 4 5 6 
#
# 1 0.012072 -0.001477 -0.014981 0.000000 0.000000 0.000000
# 2 -0.001477 0.013238 -0.004546 0.000000 0.000000 0.000000
# 3 -0.014981 -0.004546 0.038109 0.000000 0.000000 0.000000
# 4 0.000000 0.000000 0.000000 0.034260 0.000000 0.000000
# 5 0.000000 0.000000 0.000000 0.000000 0.013711 0.000000
# 6 0.000000 0.000000 0.000000 0.000000 0.000000 0.053615
#
#
# Mechanical properties :
#
#
# Convention : Reuss Voigt Hill
#
# Bulk Modulus (GPa) = 46.70966 72.63770 59.67368
# Shear Modulus (GPa) = 23.34792 36.29041 29.81916
#
# Velocity S-wave (km/s) = 3.06367 3.81957 3.46231
# Velocity P-wave (km/s) = 5.59397 6.97518 6.32241
#
# Compressibility (1/GPa) = 0.02140885
#
# Stress axis : x y z
#
# Youngs Moduli (GPa) = 82.83581 75.54166 26.24045
#
# Poissons Ratio (x) = 0.11160 0.39312
# Poissons Ratio (y) = 0.12238 0.11930
# Poissons Ratio (z) = 1.24099 0.34344
#
# Static dielectric constant tensor:
#      x y z
#    x 1.969600 0.000000 0.000000 
#    y 0.000000 1.929560 0.000000 
#    z 0.000000 0.000000 2.000430 
# 
# From -- ./inp_files/24090.got.cif
#   From: 2010.05.17/outbox.cif.g08.bks.cpg/sg52_13_cif.got.tgz:24090.got - 2010.06.03 12:15:38.
