data_PCOD9413496
_publ_section_title
;
Structure prediction by ZEFSAII (Michael W. Deem and Ramdas Pophale) SiO2 
 PCOD9413496
Probable space group: P N N A
;
_chemical_formula_sum "Si O2"
_cell_formula_units_Z 36
_cell_length_a 9.203657
_cell_length_b 21.298594
_cell_length_c 7.800942
_cell_angle_alpha 90.000000
_cell_angle_beta 90.000000
_cell_angle_gamma 90.000000
_cell_volume 1529.179295
_symmetry_space_group_name_H-M "P N N A"
_symmetry_group_IT_number 52
_symmetry_cell_setting 'orthorhombic'
loop_
_space_group_symop_operation_xyz
x,y,z
1/2-x,-y,z
x,1/2-y,1/2-z
1/2-x,1/2+y,1/2-z
-x,-y,-z
1/2+x,y,-z
-x,1/2+y,1/2+z
1/2+x,1/2-y,1/2+z
loop_
_atom_site_type_symbol
_atom_site_label
_atom_site_fract_x
_atom_site_fract_y
_atom_site_fract_z
Si Si1 0.924469 0.568141 0.500324
Si Si2 0.374797 0.750000 0.750000
Si Si3 0.006635 0.645485 0.021220
Si Si4 0.753959 0.569875 0.856393
Si Si5 0.680242 0.860237 0.163870
O O1 0.825363 0.567461 0.670745
O O2 0.807518 0.587043 0.354915
O O3 0.000000 0.500000 0.500000
O O4 0.051092 0.619596 0.535348
O O5 0.472170 0.708946 0.878466
O O6 0.270327 0.796149 0.859726
O O7 0.094528 0.598375 0.142968
O O8 0.100783 0.648267 0.846785
O O9 0.856302 0.614954 0.964969
O O10 0.750000 0.500000 0.929851
#
# Coordination Sequence:
#
# PCOD9413496 Si02
#       5
#     8   4   8   8   8
#     4  11  26  47  77 112 155 198 259 320 395 459
#     4  12  28  48  76 102 162 196 270 308 384 462
#     4  11  26  48  73 111 147 204 252 318 382 459
#     4  11  24  44  74 110 150 192 249 315 393 451
#     4  11  27  47  77 112 149 207 254 317 386 461
#
# _framework density 23.542041999999999
#
# number of rings (size 3 to 8) (size 9 to 14) (size 15 to 20)
#    0.000    0.889    2.222    2.667    9.333    3.556 
#    0.000    0.000    0.000    0.000    0.000    0.000 
#    0.000    0.000    0.000    0.000    0.000    0.000 
#
# Total GULP energy -201411.315765 kJ/mol
# GULP energy per Si atom -5594.758771 kJ/mol
# Density = 2.348846 g / cm^3
# Si number density = 23.542042 Si / 1000 Ang^3
#
#
#
# Elastic Constant Matrix: (Units=GPa)
#
#
# Indices 1 2 3 4 5 6 
#
# 1 125.4538 30.8773 29.4035 0.0000 0.0000 0.0000
# 2 30.8773 120.3659 29.7177 0.0000 0.0000 0.0000
# 3 29.4035 29.7177 103.0787 0.0000 0.0000 0.0000
# 4 0.0000 0.0000 0.0000 36.0153 0.0000 0.0000
# 5 0.0000 0.0000 0.0000 0.0000 -275.5885 0.0000
# 6 0.0000 0.0000 0.0000 0.0000 0.0000 65.8807
#
#
#
# Elastic Compliance Matrix: (Units=1/GPa)
#
#
# Indices 1 2 3 4 5 6 
#
# 1 0.008883 -0.001780 -0.002021 0.000000 0.000000 0.000000
# 2 -0.001780 0.009301 -0.002174 0.000000 0.000000 0.000000
# 3 -0.002021 -0.002174 0.010904 0.000000 0.000000 0.000000
# 4 0.000000 0.000000 0.000000 0.027766 0.000000 0.000000
# 5 0.000000 0.000000 0.000000 0.000000 -0.003629 0.000000
# 6 0.000000 0.000000 0.000000 0.000000 0.000000 0.015179
#
#
# Mechanical properties :
#
#
# Convention : Reuss Voigt Hill
#
# Bulk Modulus (GPa) = 58.34394 58.76616 58.55505
# Shear Modulus (GPa) = 58.09445 -17.47848 20.30798
#
# Velocity S-wave (km/s) = 4.97297 -2.72773 2.94024
# Velocity P-wave (km/s) = 7.60333 3.88533 6.03765
#
# Compressibility (1/GPa) = 0.01713974
#
# Stress axis : x y z
#
# Youngs Moduli (GPa) = 112.57823 107.51207 91.70552
#
# Poissons Ratio (x) = 0.19135 0.18531
# Poissons Ratio (y) = 0.20036 0.19936
# Poissons Ratio (z) = 0.22749 0.23372
#
# Static dielectric constant tensor:
#      x y z
#    x 1.900120 0.000000 0.000000 
#    y 0.000000 1.864530 0.000000 
#    z 0.000000 0.000000 1.944040 
# 
# From -- ./inp_files/7272.got.cif
#   From: 2010.05.17/outbox.cif.g08.bks.cpg/sg52_4_cif.got.tgz:7272.got - 2010.06.03 12:15:38.
