data_PCOD9413187
_publ_section_title
;
Structure prediction by ZEFSAII (Michael W. Deem and Ramdas Pophale) SiO2 
 PCOD9413187
Probable space group: P N N A
;
_chemical_formula_sum "Si O2"
_cell_formula_units_Z 32
_cell_length_a 18.079272
_cell_length_b 10.831237
_cell_length_c 8.094439
_cell_angle_alpha 90.000000
_cell_angle_beta 90.000000
_cell_angle_gamma 90.000000
_cell_volume 1585.060167
_symmetry_space_group_name_H-M "P N N A"
_symmetry_group_IT_number 52
_symmetry_cell_setting 'orthorhombic'
loop_
_space_group_symop_operation_xyz
x,y,z
1/2-x,-y,z
x,1/2-y,1/2-z
1/2-x,1/2+y,1/2-z
-x,-y,-z
1/2+x,y,-z
-x,1/2+y,1/2+z
1/2+x,1/2-y,1/2+z
loop_
_atom_site_type_symbol
_atom_site_label
_atom_site_fract_x
_atom_site_fract_y
_atom_site_fract_z
Si Si1 0.839931 0.255821 0.444257
Si Si2 0.586443 0.498993 0.465038
Si Si3 0.161152 0.010046 0.606024
Si Si4 0.321273 0.765331 0.060939
O O1 0.859008 0.250000 0.250000
O O2 0.882798 0.368554 0.525022
O O3 0.753553 0.288199 0.459249
O O4 0.853562 0.114830 0.499103
O O5 0.500000 0.500000 0.500000
O O6 0.613047 0.489065 0.273182
O O7 0.624102 0.380087 0.546997
O O8 0.147481 0.136416 0.508520
O O9 0.250000 0.000000 0.644998
O O10 0.298721 0.750000 0.250000
#
# Coordination Sequence:
#
# PCOD9413187 Si02
#       4
#     8   8   8   8
#     4   9  19  38  64  86 110 149 196 240 288 341
#     4  11  22  37  58  85 117 154 192 231 286 354
#     4   9  19  40  66  85 108 151 198 243 291 341
#     4  11  22  37  59  88 116 146 192 244 288 338
#
# _framework density 20.188509
#
# number of rings (size 3 to 8) (size 9 to 14) (size 15 to 20)
#    0.000    2.000    0.000    6.000    0.000    9.000 
#    0.000   10.000    0.000    0.000    0.000    0.000 
#    0.000    0.000    0.000    0.000    0.000    0.000 
#
# Total GULP energy -178497.528699 kJ/mol
# GULP energy per Si atom -5578.047772 kJ/mol
# Density = 2.014256 g / cm^3
# Si number density = 20.188509 Si / 1000 Ang^3
#
#
#
# Elastic Constant Matrix: (Units=GPa)
#
#
# Indices 1 2 3 4 5 6 
#
# 1 73.2704 68.6304 -8.6628 0.0000 0.0000 0.0000
# 2 68.6304 179.7030 8.3132 0.0000 0.0000 0.0000
# 3 -8.6628 8.3132 32.8655 0.0000 0.0000 0.0000
# 4 0.0000 0.0000 0.0000 1.7197 0.0000 0.0000
# 5 0.0000 0.0000 0.0000 0.0000 0.1938 0.0000
# 6 0.0000 0.0000 0.0000 0.0000 0.0000 -19.5507
#
#
#
# Elastic Compliance Matrix: (Units=1/GPa)
#
#
# Indices 1 2 3 4 5 6 
#
# 1 0.023394 -0.009329 0.008526 0.000000 0.000000 0.000000
# 2 -0.009329 0.009351 -0.004824 0.000000 0.000000 0.000000
# 3 0.008526 -0.004824 0.033895 0.000000 0.000000 0.000000
# 4 0.000000 0.000000 0.000000 0.581507 0.000000 0.000000
# 5 0.000000 0.000000 0.000000 0.000000 5.160661 0.000000
# 6 0.000000 0.000000 0.000000 0.000000 0.000000 -0.051149
#
#
# Mechanical properties :
#
#
# Convention : Reuss Voigt Hill
#
# Bulk Modulus (GPa) = 18.05523 46.93339 32.49431
# Shear Modulus (GPa) = 0.86395 10.97643 5.92019
#
# Velocity S-wave (km/s) = 0.65488 2.33426 1.71430
# Velocity P-wave (km/s) = 3.08781 5.52839 4.47759
#
# Compressibility (1/GPa) = 0.05538563
#
# Stress axis : x y z
#
# Youngs Moduli (GPa) = 42.74548 106.94354 29.50314
#
# Poissons Ratio (x) = 0.99767 -0.25155
# Poissons Ratio (y) = 0.39877 0.14233
# Poissons Ratio (z) = -0.36445 0.51592
#
# Static dielectric constant tensor:
#      x y z
#    x 1.675590 0.000000 0.000000 
#    y 0.000000 1.786450 0.000000 
#    z 0.000000 0.000000 1.698790 
# 
# From -- ./inp_files/9544.got.cif
#   From: 2010.05.17/outbox.cif.g08.bks.cpg/sg52_5_cif.got.tgz:9544.got - 2010.06.03 12:15:38.
