data_PCOD9413170
_publ_section_title
;
Structure prediction by ZEFSAII (Michael W. Deem and Ramdas Pophale) SiO2 
 PCOD9413170
Probable space group: P N N A
;
_chemical_formula_sum "Si O2"
_cell_formula_units_Z 48
_cell_length_a 15.720924
_cell_length_b 9.907096
_cell_length_c 17.294409
_cell_angle_alpha 90.000000
_cell_angle_beta 90.000000
_cell_angle_gamma 90.000000
_cell_volume 2693.581776
_symmetry_space_group_name_H-M "P N N A"
_symmetry_group_IT_number 52
_symmetry_cell_setting 'orthorhombic'
loop_
_space_group_symop_operation_xyz
x,y,z
1/2-x,-y,z
x,1/2-y,1/2-z
1/2-x,1/2+y,1/2-z
-x,-y,-z
1/2+x,y,-z
-x,1/2+y,1/2+z
1/2+x,1/2-y,1/2+z
loop_
_atom_site_type_symbol
_atom_site_label
_atom_site_fract_x
_atom_site_fract_y
_atom_site_fract_z
Si Si1 0.150411 0.753483 0.929720
Si Si2 0.421776 0.888604 0.795941
Si Si3 0.250000 0.500000 0.637914
Si Si4 0.485772 0.362512 0.807465
Si Si5 0.250000 0.000000 0.521459
Si Si6 0.927238 0.594731 0.960863
Si Si7 0.003530 0.649665 0.464108
O O1 0.199002 0.890158 0.911056
O O2 0.087221 0.710000 0.859934
O O3 0.217479 0.631959 0.933911
O O4 0.092928 0.783024 0.006420
O O5 0.427070 0.750000 0.750000
O O6 0.323660 0.922895 0.815348
O O7 0.477352 0.869793 0.874586
O O8 0.453585 0.011698 0.742452
O O9 0.519995 0.250000 0.750000
O O10 0.553362 0.406341 0.870707
O O11 0.333855 0.958244 0.475941
O O12 0.937777 0.743926 0.997506
O O13 0.000000 0.500000 0.000000
O O14 0.000000 0.500000 0.500000
#
# Coordination Sequence:
#
# PCOD9413170 Si02
#       7
#     8   8   4   8   4   8   8
#     4  11  25  41  67  95 130 171 223 262 322 391
#     4  12  26  36  63  93 134 166 205 272 332 392
#     4  12  24  41  56 103 134 166 214 264 336 395
#     4  11  22  44  62  91 128 174 204 265 334 390
#     4  12  24  41  74  95 124 172 230 278 304 385
#     4  11  22  43  68  92 127 171 225 260 319 385
#     4  11  21  45  63  91 128 175 217 258 315 396
#
# _framework density 17.820138
#
# number of rings (size 3 to 8) (size 9 to 14) (size 15 to 20)
#    0.000    0.667    6.667    3.000    4.667    0.000 
#    0.000    0.000    3.667    0.000    0.000    0.000 
#    0.000    0.000    0.000    0.000    0.000    0.000 
#
# Total GULP energy -267806.127524 kJ/mol
# GULP energy per Si atom -5579.294323 kJ/mol
# Density = 1.777958 g / cm^3
# Si number density = 17.820138 Si / 1000 Ang^3
#
#
#
# Elastic Constant Matrix: (Units=GPa)
#
#
# Indices 1 2 3 4 5 6 
#
# 1 70.5381 34.7503 35.6302 0.0000 0.0000 0.0000
# 2 34.7503 121.8435 44.4334 0.0000 0.0000 0.0000
# 3 35.6302 44.4334 116.9534 0.0000 0.0000 0.0000
# 4 0.0000 0.0000 0.0000 40.4942 0.0000 0.0000
# 5 0.0000 0.0000 0.0000 0.0000 -9.6571 0.0000
# 6 0.0000 0.0000 0.0000 0.0000 0.0000 33.8310
#
#
#
# Elastic Compliance Matrix: (Units=1/GPa)
#
#
# Indices 1 2 3 4 5 6 
#
# 1 0.018052 -0.003648 -0.004113 0.000000 0.000000 0.000000
# 2 -0.003648 0.010265 -0.002788 0.000000 0.000000 0.000000
# 3 -0.004113 -0.002788 0.010863 0.000000 0.000000 0.000000
# 4 0.000000 0.000000 0.000000 0.024695 0.000000 0.000000
# 5 0.000000 0.000000 0.000000 0.000000 -0.103551 0.000000
# 6 0.000000 0.000000 0.000000 0.000000 0.000000 0.029559
#
#
# Mechanical properties :
#
#
# Convention : Reuss Voigt Hill
#
# Bulk Modulus (GPa) = 55.31227 59.88475 57.59851
# Shear Modulus (GPa) = 293.96126 25.90169 159.93148
#
# Velocity S-wave (km/s) = 12.85761 3.81662 9.48380
# Velocity P-wave (km/s) = 15.85973 7.28699 12.34162
#
# Compressibility (1/GPa) = 0.01807917
#
# Stress axis : x y z
#
# Youngs Moduli (GPa) = 55.39586 97.42209 92.05628
#
# Poissons Ratio (x) = 0.35544 0.37867
# Poissons Ratio (y) = 0.20211 0.25668
# Poissons Ratio (z) = 0.22787 0.27164
#
# Static dielectric constant tensor:
#      x y z
#    x 1.637180 0.000000 0.000000 
#    y 0.000000 1.606670 0.000000 
#    z 0.000000 0.000000 1.609240 
# 
# From -- ./inp_files/33101.got.cif
#   From: 2010.05.17/outbox.cif.g08.bks.cpg/sg52_17_cif.got.tgz:33101.got - 2010.06.03 12:15:38.
