data_PCOD9413473
_publ_section_title
;
Structure prediction by ZEFSAII (Michael W. Deem and Ramdas Pophale) SiO2 
 PCOD9413473
Probable space group: P N N A
;
_chemical_formula_sum "Si O2"
_cell_formula_units_Z 32
_cell_length_a 14.650248
_cell_length_b 11.276628
_cell_length_c 8.281887
_cell_angle_alpha 90.000000
_cell_angle_beta 90.000000
_cell_angle_gamma 90.000000
_cell_volume 1368.212428
_symmetry_space_group_name_H-M "P N N A"
_symmetry_group_IT_number 52
_symmetry_cell_setting 'orthorhombic'
loop_
_space_group_symop_operation_xyz
x,y,z
1/2-x,-y,z
x,1/2-y,1/2-z
1/2-x,1/2+y,1/2-z
-x,-y,-z
1/2+x,y,-z
-x,1/2+y,1/2+z
1/2+x,1/2-y,1/2+z
loop_
_atom_site_type_symbol
_atom_site_label
_atom_site_fract_x
_atom_site_fract_y
_atom_site_fract_z
Si Si1 0.217445 0.269049 0.059143
Si Si2 0.400681 0.280994 0.571406
Si Si3 0.941766 0.903007 0.588334
Si Si4 0.646925 0.470079 0.579174
O O1 0.198776 0.250000 0.250000
O O2 0.156253 0.378873 0.008931
O O3 0.173988 0.149480 0.981973
O O4 0.324773 0.280453 0.040483
O O5 0.365953 0.250000 0.750000
O O6 0.498498 0.217328 0.568781
O O7 0.392414 0.419068 0.521962
O O8 0.920610 0.943397 0.771829
O O9 0.000000 0.000000 0.500000
O O10 0.750000 0.500000 0.644067
#
# Coordination Sequence:
#
# PCOD9413473 Si02
#       4
#     8   8   8   8
#     4   9  21  45  71  92 132 183 226 271 349 413
#     4  11  24  43  68 100 133 175 230 283 338 408
#     4  11  25  39  66 103 132 178 225 282 337 423
#     4   9  21  45  73  89 133 189 224 276 350 406
#
# _framework density 23.388180999999999
#
# number of rings (size 3 to 8) (size 9 to 14) (size 15 to 20)
#    0.000    2.000    0.000    2.250   10.500    4.000 
#   18.000    0.000    0.000    0.000    0.000    0.000 
#    0.000    0.000    0.000    0.000    0.000    0.000 
#
# Total GULP energy -178427.339751 kJ/mol
# GULP energy per Si atom -5575.854367 kJ/mol
# Density = 2.333495 g / cm^3
# Si number density = 23.388181 Si / 1000 Ang^3
#
#
#
# Elastic Constant Matrix: (Units=GPa)
#
#
# Indices 1 2 3 4 5 6 
#
# 1 122.6978 42.9223 34.9718 0.0000 0.0000 0.0000
# 2 42.9223 93.3925 27.1523 0.0000 0.0000 0.0000
# 3 34.9718 27.1523 48.4287 0.0000 0.0000 0.0000
# 4 0.0000 0.0000 0.0000 38.7639 0.0000 0.0000
# 5 0.0000 0.0000 0.0000 0.0000 34.5976 0.0000
# 6 0.0000 0.0000 0.0000 0.0000 0.0000 51.7166
#
#
#
# Elastic Compliance Matrix: (Units=1/GPa)
#
#
# Indices 1 2 3 4 5 6 
#
# 1 0.011051 -0.003296 -0.006132 0.000000 0.000000 0.000000
# 2 -0.003296 0.013776 -0.005343 0.000000 0.000000 0.000000
# 3 -0.006132 -0.005343 0.028073 0.000000 0.000000 0.000000
# 4 0.000000 0.000000 0.000000 0.025797 0.000000 0.000000
# 5 0.000000 0.000000 0.000000 0.000000 0.028904 0.000000
# 6 0.000000 0.000000 0.000000 0.000000 0.000000 0.019336
#
#
# Mechanical properties :
#
#
# Convention : Reuss Voigt Hill
#
# Bulk Modulus (GPa) = 42.81485 52.73464 47.77475
# Shear Modulus (GPa) = 30.43841 35.64711 33.04276
#
# Velocity S-wave (km/s) = 3.61147 3.90827 3.76280
# Velocity P-wave (km/s) = 5.97798 6.55459 6.27291
#
# Compressibility (1/GPa) = 0.02335638
#
# Stress axis : x y z
#
# Youngs Moduli (GPa) = 90.48971 72.59078 35.62128
#
# Poissons Ratio (x) = 0.23926 0.21844
# Poissons Ratio (y) = 0.29826 0.19034
# Poissons Ratio (z) = 0.55491 0.38789
#
# Static dielectric constant tensor:
#      x y z
#    x 1.917110 0.000000 0.000000 
#    y 0.000000 2.033990 0.000000 
#    z 0.000000 0.000000 1.878150 
# 
# From -- ./inp_files/9668.got.cif
#   From: 2010.05.17/outbox.cif.g08.bks.cpg/sg52_5_cif.got.tgz:9668.got - 2010.06.03 12:15:38.
