data_PCOD9413171
_publ_section_title
;
Structure prediction by ZEFSAII (Michael W. Deem and Ramdas Pophale) SiO2 
 PCOD9413171
Probable space group: P N N A
;
_chemical_formula_sum "Si O2"
_cell_formula_units_Z 32
_cell_length_a 27.815469
_cell_length_b 8.384753
_cell_length_c 6.116389
_cell_angle_alpha 90.000000
_cell_angle_beta 90.000000
_cell_angle_gamma 90.000000
_cell_volume 1426.499945
_symmetry_space_group_name_H-M "P N N A"
_symmetry_group_IT_number 52
_symmetry_cell_setting 'orthorhombic'
loop_
_space_group_symop_operation_xyz
x,y,z
1/2-x,-y,z
x,1/2-y,1/2-z
1/2-x,1/2+y,1/2-z
-x,-y,-z
1/2+x,y,-z
-x,1/2+y,1/2+z
1/2+x,1/2-y,1/2+z
loop_
_atom_site_type_symbol
_atom_site_label
_atom_site_fract_x
_atom_site_fract_y
_atom_site_fract_z
Si Si1 0.627373 0.427429 0.153635
Si Si2 0.303370 0.937944 0.289557
Si Si3 0.606575 0.896401 0.926889
Si Si4 0.463336 0.918327 0.336515
O O1 0.633804 0.250000 0.250000
O O2 0.609795 0.570365 0.311750
O O3 0.676368 0.474507 0.031625
O O4 0.586069 0.398328 0.972955
O O5 0.304291 0.750000 0.250000
O O6 0.250000 0.000000 0.254329
O O7 0.343539 0.015084 0.135047
O O8 0.607185 0.750000 0.750000
O O9 0.555806 0.978329 0.865434
O O10 0.481498 0.750000 0.250000
O O11 0.500000 0.000000 0.500000
#
# Coordination Sequence:
#
# PCOD9413171 Si02
#       4
#     8   8   8   8
#     4  11  21  45  68  88 133 184 219 277 356 417
#     4  11  23  42  66  98 132 171 223 280 339 415
#     4  11  24  43  66  95 131 172 224 281 343 418
#     4  11  25  41  64  97 131 171 228 287 345 423
#
# _framework density 22.432524999999998
#
# number of rings (size 3 to 8) (size 9 to 14) (size 15 to 20)
#    0.000    1.000    5.000    2.250    3.500    6.000 
#    4.500    0.000    0.000    0.000    0.000    0.000 
#    0.000    0.000    0.000    0.000    0.000    0.000 
#
# Total GULP energy -178435.119909 kJ/mol
# GULP energy per Si atom -5576.097497 kJ/mol
# Density = 2.238147 g / cm^3
# Si number density = 22.432525 Si / 1000 Ang^3
#
#
#
# Elastic Constant Matrix: (Units=GPa)
#
#
# Indices 1 2 3 4 5 6 
#
# 1 104.1251 10.9979 -1.7265 0.0000 0.0000 0.0000
# 2 10.9979 107.2892 16.1759 0.0000 0.0000 0.0000
# 3 -1.7265 16.1759 77.8363 0.0000 0.0000 0.0000
# 4 0.0000 0.0000 0.0000 39.7937 0.0000 0.0000
# 5 0.0000 0.0000 0.0000 0.0000 17.5613 0.0000
# 6 0.0000 0.0000 0.0000 0.0000 0.0000 19.6800
#
#
#
# Elastic Compliance Matrix: (Units=1/GPa)
#
#
# Indices 1 2 3 4 5 6 
#
# 1 0.009723 -0.001063 0.000436 0.000000 0.000000 0.000000
# 2 -0.001063 0.009738 -0.002047 0.000000 0.000000 0.000000
# 3 0.000436 -0.002047 0.013283 0.000000 0.000000 0.000000
# 4 0.000000 0.000000 0.000000 0.025130 0.000000 0.000000
# 5 0.000000 0.000000 0.000000 0.000000 0.056943 0.000000
# 6 0.000000 0.000000 0.000000 0.000000 0.000000 0.050813
#
#
# Mechanical properties :
#
#
# Convention : Reuss Voigt Hill
#
# Bulk Modulus (GPa) = 36.49985 37.79390 37.14688
# Shear Modulus (GPa) = 27.76094 32.99391 30.37743
#
# Velocity S-wave (km/s) = 3.52167 3.83927 3.68390
# Velocity P-wave (km/s) = 5.73084 6.04464 5.88983
#
# Compressibility (1/GPa) = 0.02739737
#
# Stress axis : x y z
#
# Youngs Moduli (GPa) = 102.84578 102.68848 75.28628
#
# Poissons Ratio (x) = 0.10911 -0.03286
# Poissons Ratio (y) = 0.10928 0.15414
# Poissons Ratio (z) = -0.04489 0.21024
#
# Static dielectric constant tensor:
#      x y z
#    x 1.752690 0.000000 0.000000 
#    y 0.000000 1.879000 0.000000 
#    z 0.000000 0.000000 2.080330 
# 
# From -- ./inp_files/6113.got.cif
#   From: 2010.05.17/outbox.cif.g08.bks.cpg/sg52_4_cif.got.tgz:6113.got - 2010.06.03 12:15:38.
