data_PCOD9413116
_publ_section_title
;
Structure prediction by ZEFSAII (Michael W. Deem and Ramdas Pophale) SiO2 
 PCOD9413116
Probable space group: P N N A
;
_chemical_formula_sum "Si O2"
_cell_formula_units_Z 32
_cell_length_a 17.087941
_cell_length_b 17.461580
_cell_length_c 4.937256
_cell_angle_alpha 90.000000
_cell_angle_beta 90.000000
_cell_angle_gamma 90.000000
_cell_volume 1473.190536
_symmetry_space_group_name_H-M "P N N A"
_symmetry_group_IT_number 52
_symmetry_cell_setting 'orthorhombic'
loop_
_space_group_symop_operation_xyz
x,y,z
1/2-x,-y,z
x,1/2-y,1/2-z
1/2-x,1/2+y,1/2-z
-x,-y,-z
1/2+x,y,-z
-x,1/2+y,1/2+z
1/2+x,1/2-y,1/2+z
loop_
_atom_site_type_symbol
_atom_site_label
_atom_site_fract_x
_atom_site_fract_y
_atom_site_fract_z
Si Si1 0.594315 0.197076 0.510573
Si Si2 0.691462 0.057014 0.621644
Si Si3 0.584830 0.831566 0.377286
Si Si4 0.846980 0.088261 0.882209
O O1 0.627790 0.250000 0.750000
O O2 0.648322 0.123500 0.466929
O O3 0.508965 0.169080 0.607692
O O4 0.584801 0.250000 0.250000
O O5 0.753182 0.091868 0.838937
O O6 0.750000 0.000000 0.456581
O O7 0.634682 0.997723 0.775584
O O8 0.609216 0.750000 0.250000
O O9 0.616396 0.850573 0.674208
O O10 0.619933 0.894396 0.174875
#
# Coordination Sequence:
#
# PCOD9413116 Si02
#       4
#     8   8   8   8
#     4  11  24  41  65  94 131 170 214 270 327 388
#     4   8  23  45  59  98 124 171 217 268 328 393
#     4  11  21  38  61  93 125 167 216 262 320 381
#     4   9  22  39  62  88 126 166 210 272 307 397
#
# _framework density 21.721561999999999
#
# number of rings (size 3 to 8) (size 9 to 14) (size 15 to 20)
#    1.500    0.500    0.000    3.750    0.000   13.000 
#    0.000    0.000    0.000    0.000    0.000    0.000 
#    0.000    0.000    0.000    0.000    0.000    0.000 
#
# Total GULP energy -178475.018124 kJ/mol
# GULP energy per Si atom -5577.344316 kJ/mol
# Density = 2.167212 g / cm^3
# Si number density = 21.721562 Si / 1000 Ang^3
#
#
#
# Elastic Constant Matrix: (Units=GPa)
#
#
# Indices 1 2 3 4 5 6 
#
# 1 56.9112 58.3095 16.8752 0.0000 0.0000 0.0000
# 2 58.3095 99.7625 10.4743 0.0000 0.0000 0.0000
# 3 16.8752 10.4743 68.6087 0.0000 0.0000 0.0000
# 4 0.0000 0.0000 0.0000 26.8521 0.0000 0.0000
# 5 0.0000 0.0000 0.0000 0.0000 392.6527 0.0000
# 6 0.0000 0.0000 0.0000 0.0000 0.0000 38.5201
#
#
#
# Elastic Compliance Matrix: (Units=1/GPa)
#
#
# Indices 1 2 3 4 5 6 
#
# 1 0.047354 -0.026886 -0.007543 0.000000 0.000000 0.000000
# 2 -0.026886 0.025452 0.002727 0.000000 0.000000 0.000000
# 3 -0.007543 0.002727 0.016014 0.000000 0.000000 0.000000
# 4 0.000000 0.000000 0.000000 0.037241 0.000000 0.000000
# 5 0.000000 0.000000 0.000000 0.000000 0.002547 0.000000
# 6 0.000000 0.000000 0.000000 0.000000 0.000000 0.025960
#
#
# Mechanical properties :
#
#
# Convention : Reuss Voigt Hill
#
# Bulk Modulus (GPa) = 39.34284 44.06670 41.70477
# Shear Modulus (GPa) = 22.08051 100.91320 61.49685
#
# Velocity S-wave (km/s) = 3.19176 6.82338 5.32662
# Velocity P-wave (km/s) = 5.63336 9.07794 7.55460
#
# Compressibility (1/GPa) = 0.02541759
#
# Stress axis : x y z
#
# Youngs Moduli (GPa) = 21.11740 39.28994 62.44416
#
# Poissons Ratio (x) = 1.05634 0.47101
# Poissons Ratio (y) = 0.56776 -0.17030
# Poissons Ratio (z) = 0.15929 -0.10716
#
# Static dielectric constant tensor:
#      x y z
#    x 1.777970 0.000000 0.000000 
#    y 0.000000 1.839470 0.000000 
#    z 0.000000 0.000000 1.789430 
# 
# From -- ./inp_files/3127.got.cif
#   From: 2010.05.17/outbox.cif.g08.bks.cpg/sg52_2_cif.got.tgz:3127.got - 2010.06.03 12:15:38.
