data_PCOD9413854
_publ_section_title
;
Structure prediction by ZEFSAII (Michael W. Deem and Ramdas Pophale) SiO2 
 PCOD9413854
Probable space group: P N N A
;
_chemical_formula_sum "Si O2"
_cell_formula_units_Z 32
_cell_length_a 15.357945
_cell_length_b 8.519855
_cell_length_c 11.734808
_cell_angle_alpha 90.000000
_cell_angle_beta 90.000000
_cell_angle_gamma 90.000000
_cell_volume 1535.469873
_symmetry_space_group_name_H-M "P N N A"
_symmetry_group_IT_number 52
_symmetry_cell_setting 'orthorhombic'
loop_
_space_group_symop_operation_xyz
x,y,z
1/2-x,-y,z
x,1/2-y,1/2-z
1/2-x,1/2+y,1/2-z
-x,-y,-z
1/2+x,y,-z
-x,1/2+y,1/2+z
1/2+x,1/2-y,1/2+z
loop_
_atom_site_type_symbol
_atom_site_label
_atom_site_fract_x
_atom_site_fract_y
_atom_site_fract_z
Si Si1 0.996755 0.078158 0.376399
Si Si2 0.414270 0.406862 0.533624
Si Si3 0.347375 0.065544 0.222250
Si Si4 0.162686 0.433997 0.747636
O O1 0.955257 0.250740 0.404253
O O2 0.083784 0.041184 0.298613
O O3 0.000000 0.000000 0.500000
O O4 0.922784 0.984019 0.312018
O O5 0.500000 0.500000 0.500000
O O6 0.364601 0.419162 0.413219
O O7 0.352260 0.491347 0.624120
O O8 0.356655 0.250000 0.250000
O O9 0.250000 0.000000 0.243617
O O10 0.250000 0.500000 0.802454
O O11 0.170099 0.250000 0.750000
#
# Coordination Sequence:
#
# PCOD9413854 Si02
#       4
#     8   8   8   8
#     4  12  25  48  75 106 149 194 241 304 370 436
#     4  12  25  46  78 104 144 195 248 301 370 438
#     4  12  28  49  74 112 152 193 246 306 373 445
#     4  12  26  47  72 107 146 189 247 304 363 434
#
# _framework density 20.840526000000001
#
# number of rings (size 3 to 8) (size 9 to 14) (size 15 to 20)
#    0.000    0.000    5.000    5.250    3.500    1.000 
#    4.500    0.000    0.000    0.000    0.000    0.000 
#    0.000    0.000    0.000    0.000    0.000    0.000 
#
# Total GULP energy -178283.474898 kJ/mol
# GULP energy per Si atom -5571.358591 kJ/mol
# Density = 2.079309 g / cm^3
# Si number density = 20.840526 Si / 1000 Ang^3
#
#
#
# Elastic Constant Matrix: (Units=GPa)
#
#
# Indices 1 2 3 4 5 6 
#
# 1 170.2852 44.2928 41.4368 0.0000 0.0000 0.0000
# 2 44.2928 151.2117 25.0437 0.0000 0.0000 0.0000
# 3 41.4368 25.0437 140.2245 0.0000 0.0000 0.0000
# 4 0.0000 0.0000 0.0000 -26.7844 0.0000 0.0000
# 5 0.0000 0.0000 0.0000 0.0000 7.0669 0.0000
# 6 0.0000 0.0000 0.0000 0.0000 0.0000 18.2245
#
#
#
# Elastic Compliance Matrix: (Units=1/GPa)
#
#
# Indices 1 2 3 4 5 6 
#
# 1 0.006722 -0.001690 -0.001685 0.000000 0.000000 0.000000
# 2 -0.001690 0.007240 -0.000794 0.000000 0.000000 0.000000
# 3 -0.001685 -0.000794 0.007771 0.000000 0.000000 0.000000
# 4 0.000000 0.000000 0.000000 -0.037335 0.000000 0.000000
# 5 0.000000 0.000000 0.000000 0.000000 0.141504 0.000000
# 6 0.000000 0.000000 0.000000 0.000000 0.000000 0.054871
#
#
# Mechanical properties :
#
#
# Convention : Reuss Voigt Hill
#
# Bulk Modulus (GPa) = 74.64703 75.91865 75.28284
# Shear Modulus (GPa) = 25.82980 23.09795 24.46387
#
# Velocity S-wave (km/s) = 3.52433 3.33275 3.42988
# Velocity P-wave (km/s) = 7.24274 7.16360 7.20327
#
# Compressibility (1/GPa) = 0.01339638
#
# Stress axis : x y z
#
# Youngs Moduli (GPa) = 148.76521 138.12697 128.68452
#
# Poissons Ratio (x) = 0.23344 0.21677
# Poissons Ratio (y) = 0.25141 0.10212
# Poissons Ratio (z) = 0.25060 0.10962
#
# Static dielectric constant tensor:
#      x y z
#    x 1.653210 0.000000 0.000000 
#    y 0.000000 1.769030 0.000000 
#    z 0.000000 0.000000 -2.785100 
# 
# From -- ./inp_files/18860.got.cif
#   From: 2010.05.17/outbox.cif.g08.bks.cpg/sg52_10_cif.got.tgz:18860.got - 2010.06.03 12:15:38.
