data_PCOD9413292
_publ_section_title
;
Structure prediction by ZEFSAII (Michael W. Deem and Ramdas Pophale) SiO2 
 PCOD9413292
Probable space group: P N N A
;
_chemical_formula_sum "Si O2"
_cell_formula_units_Z 44
_cell_length_a 13.847044
_cell_length_b 24.685624
_cell_length_c 5.685099
_cell_angle_alpha 90.000000
_cell_angle_beta 90.000000
_cell_angle_gamma 90.000000
_cell_volume 1943.297150
_symmetry_space_group_name_H-M "P N N A"
_symmetry_group_IT_number 52
_symmetry_cell_setting 'orthorhombic'
loop_
_space_group_symop_operation_xyz
x,y,z
1/2-x,-y,z
x,1/2-y,1/2-z
1/2-x,1/2+y,1/2-z
-x,-y,-z
1/2+x,y,-z
-x,1/2+y,1/2+z
1/2+x,1/2-y,1/2+z
loop_
_atom_site_type_symbol
_atom_site_label
_atom_site_fract_x
_atom_site_fract_y
_atom_site_fract_z
Si Si1 0.519307 0.939361 0.080140
Si Si2 0.120310 0.750000 0.250000
Si Si3 0.854767 0.629989 0.832273
Si Si4 0.677075 0.616517 0.142212
Si Si5 0.012666 0.649636 0.186399
Si Si6 0.781773 0.708759 0.434876
O O1 0.426890 0.914606 0.220513
O O2 0.619203 0.931852 0.227260
O O3 0.526043 0.901940 0.849940
O O4 0.500000 0.000000 0.000000
O O5 0.197880 0.747760 0.460997
O O6 0.048266 0.702039 0.319713
O O7 0.839976 0.679726 0.649168
O O8 0.753621 0.606193 0.931009
O O9 0.909692 0.649889 0.066021
O O10 0.729684 0.656119 0.323546
O O11 0.588743 0.648103 0.025069
O O12 0.830788 0.750000 0.250000
#
# Coordination Sequence:
#
# PCOD9413292 Si02
#       6
#     8   4   8   8   8   8
#     4  11  26  50  76 105 148 197 261 325 387 460
#     4  12  22  44  72  98 140 196 240 310 374 444
#     4  11  25  46  69 113 146 195 255 308 384 464
#     4  11  22  46  72 100 146 185 248 313 370 456
#     4  11  24  46  69 105 146 191 250 307 380 452
#     4  12  22  44  72 105 151 197 241 304 384 461
#
# _framework density 22.641929999999999
#
# number of rings (size 3 to 8) (size 9 to 14) (size 15 to 20)
#    0.000    0.727    5.455    1.091    0.000    2.909 
#   16.364   13.636    0.000    0.000    0.000    0.000 
#    0.000    0.000    0.000    0.000    0.000    0.000 
#
# Total GULP energy -245505.973774 kJ/mol
# GULP energy per Si atom -5579.681222 kJ/mol
# Density = 2.259040 g / cm^3
# Si number density = 22.641930 Si / 1000 Ang^3
#
#
#
# Elastic Constant Matrix: (Units=GPa)
#
#
# Indices 1 2 3 4 5 6 
#
# 1 126.4419 42.0732 34.3044 0.0000 0.0000 0.0000
# 2 42.0732 141.9270 31.7718 0.0000 0.0000 0.0000
# 3 34.3044 31.7718 72.8860 0.0000 0.0000 0.0000
# 4 0.0000 0.0000 0.0000 29.5610 0.0000 0.0000
# 5 0.0000 0.0000 0.0000 0.0000 53.9692 0.0000
# 6 0.0000 0.0000 0.0000 0.0000 0.0000 27.9455
#
#
#
# Elastic Compliance Matrix: (Units=1/GPa)
#
#
# Indices 1 2 3 4 5 6 
#
# 1 0.009564 -0.002025 -0.003619 0.000000 0.000000 0.000000
# 2 -0.002025 0.008237 -0.002637 0.000000 0.000000 0.000000
# 3 -0.003619 -0.002637 0.016573 0.000000 0.000000 0.000000
# 4 0.000000 0.000000 0.000000 0.033828 0.000000 0.000000
# 5 0.000000 0.000000 0.000000 0.000000 0.018529 0.000000
# 6 0.000000 0.000000 0.000000 0.000000 0.000000 0.035784
#
#
# Mechanical properties :
#
#
# Convention : Reuss Voigt Hill
#
# Bulk Modulus (GPa) = 56.14364 61.95042 59.04703
# Shear Modulus (GPa) = 34.47922 37.83552 36.15737
#
# Velocity S-wave (km/s) = 3.90655 4.09227 4.00048
# Velocity P-wave (km/s) = 6.72297 7.05331 6.89012
#
# Compressibility (1/GPa) = 0.01781146
#
# Stress axis : x y z
#
# Youngs Moduli (GPa) = 104.55389 121.40917 60.33958
#
# Poissons Ratio (x) = 0.24588 0.21836
# Poissons Ratio (y) = 0.21174 0.15913
# Poissons Ratio (z) = 0.37836 0.32019
#
# Static dielectric constant tensor:
#      x y z
#    x 1.866540 0.000000 0.000000 
#    y 0.000000 1.865560 0.000000 
#    z 0.000000 0.000000 1.931600 
# 
# From -- ./inp_files/2394.got.cif
#   From: 2010.05.17/outbox.cif.g08.bks.cpg/sg52_2_cif.got.tgz:2394.got - 2010.06.03 12:15:38.
