data_PCOD9413828
_publ_section_title
;
Structure prediction by ZEFSAII (Michael W. Deem and Ramdas Pophale) SiO2 
 PCOD9413828
Probable space group: P N N A
;
_chemical_formula_sum "Si O2"
_cell_formula_units_Z 32
_cell_length_a 7.618715
_cell_length_b 10.645863
_cell_length_c 15.897831
_cell_angle_alpha 90.000000
_cell_angle_beta 90.000000
_cell_angle_gamma 90.000000
_cell_volume 1289.438036
_symmetry_space_group_name_H-M "P N N A"
_symmetry_group_IT_number 52
_symmetry_cell_setting 'orthorhombic'
loop_
_space_group_symop_operation_xyz
x,y,z
1/2-x,-y,z
x,1/2-y,1/2-z
1/2-x,1/2+y,1/2-z
-x,-y,-z
1/2+x,y,-z
-x,1/2+y,1/2+z
1/2+x,1/2-y,1/2+z
loop_
_atom_site_type_symbol
_atom_site_label
_atom_site_fract_x
_atom_site_fract_y
_atom_site_fract_z
Si Si1 0.406332 0.590290 0.754073
Si Si2 0.250000 0.000000 0.152716
Si Si3 0.116024 0.254208 0.084607
Si Si4 0.030153 0.887825 0.435891
Si Si5 0.619306 0.750000 0.250000
O O1 0.415005 0.750000 0.750000
O O2 0.582365 0.546083 0.707288
O O3 0.424456 0.923253 0.646254
O O4 0.303446 0.394086 0.732119
O O5 0.308533 0.883549 0.097009
O O6 0.987565 0.273703 0.163791
O O7 0.226328 0.646006 0.090613
O O8 0.034592 0.270578 0.992173
O O9 0.000000 0.000000 0.500000
#
# Coordination Sequence:
#
# PCOD9413828 Si02
#       5
#     8   4   8   8   4
#     4  12  25  48  77 112 158 206 267 334 405 488
#     4  12  28  50  82 120 164 214 270 342 418 498
#     4  12  26  48  76 117 164 214 273 341 415 494
#     4  12  27  46  77 117 160 214 274 342 411 494
#     4  12  24  48  78 110 160 216 274 334 412 486
#
# _framework density 24.817011000000001
#
# number of rings (size 3 to 8) (size 9 to 14) (size 15 to 20)
#    0.000    0.000    2.500    8.250    3.500    1.000 
#    0.000    0.000    0.000    0.000    0.000    0.000 
#    0.000    0.000    0.000    0.000    0.000    0.000 
#
# Total GULP energy -178699.135416 kJ/mol
# GULP energy per Si atom -5584.347982 kJ/mol
# Density = 2.476053 g / cm^3
# Si number density = 24.817011 Si / 1000 Ang^3
#
#
#
# Elastic Constant Matrix: (Units=GPa)
#
#
# Indices 1 2 3 4 5 6 
#
# 1 218.5142 121.0850 74.4520 0.0000 0.0000 0.0000
# 2 121.0850 172.8621 71.4281 0.0000 0.0000 0.0000
# 3 74.4520 71.4281 136.8384 0.0000 0.0000 0.0000
# 4 0.0000 0.0000 0.0000 60.6956 0.0000 0.0000
# 5 0.0000 0.0000 0.0000 0.0000 35.8712 0.0000
# 6 0.0000 0.0000 0.0000 0.0000 0.0000 82.5435
#
#
#
# Elastic Compliance Matrix: (Units=1/GPa)
#
#
# Indices 1 2 3 4 5 6 
#
# 1 0.007804 -0.004733 -0.001776 0.000000 0.000000 0.000000
# 2 -0.004733 0.010246 -0.002773 0.000000 0.000000 0.000000
# 3 -0.001776 -0.002773 0.009722 0.000000 0.000000 0.000000
# 4 0.000000 0.000000 0.000000 0.016476 0.000000 0.000000
# 5 0.000000 0.000000 0.000000 0.000000 0.027878 0.000000
# 6 0.000000 0.000000 0.000000 0.000000 0.000000 0.012115
#
#
# Mechanical properties :
#
#
# Convention : Reuss Voigt Hill
#
# Bulk Modulus (GPa) = 108.59731 118.01609 113.30670
# Shear Modulus (GPa) = 47.22679 53.23869 50.23274
#
# Velocity S-wave (km/s) = 4.36707 4.63671 4.50391
# Velocity P-wave (km/s) = 8.32362 8.73631 8.53246
#
# Compressibility (1/GPa) = 0.00920833
#
# Stress axis : x y z
#
# Youngs Moduli (GPa) = 128.14175 97.59864 102.86384
#
# Poissons Ratio (x) = 0.46191 0.18264
# Poissons Ratio (y) = 0.60646 0.28527
# Poissons Ratio (z) = 0.22752 0.27067
#
# Static dielectric constant tensor:
#      x y z
#    x 1.764310 0.000000 0.000000 
#    y 0.000000 3.961040 0.000000 
#    z 0.000000 0.000000 1.888910 
# 
# From -- ./inp_files/32779.got.cif
#   From: 2010.05.17/outbox.cif.g08.bks.cpg/sg52_17_cif.got.tgz:32779.got - 2010.06.03 12:15:38.
