data_PCOD9413309
_publ_section_title
;
Structure prediction by ZEFSAII (Michael W. Deem and Ramdas Pophale) SiO2 
 PCOD9413309
Probable space group: P N N A
;
_chemical_formula_sum "Si O2"
_cell_formula_units_Z 64
_cell_length_a 9.245674
_cell_length_b 23.060107
_cell_length_c 14.213068
_cell_angle_alpha 90.000000
_cell_angle_beta 90.000000
_cell_angle_gamma 90.000000
_cell_volume 3030.314670
_symmetry_space_group_name_H-M "P N N A"
_symmetry_group_IT_number 52
_symmetry_cell_setting 'orthorhombic'
loop_
_space_group_symop_operation_xyz
x,y,z
1/2-x,-y,z
x,1/2-y,1/2-z
1/2-x,1/2+y,1/2-z
-x,-y,-z
1/2+x,y,-z
-x,1/2+y,1/2+z
1/2+x,1/2-y,1/2+z
loop_
_atom_site_type_symbol
_atom_site_label
_atom_site_fract_x
_atom_site_fract_y
_atom_site_fract_z
Si Si1 0.948783 0.446572 0.373759
Si Si2 0.797072 0.885993 0.789687
Si Si3 0.811900 0.149151 0.595345
Si Si4 0.955327 0.077386 0.913233
Si Si5 0.338905 0.773674 0.096062
Si Si6 0.798709 0.621839 0.298946
Si Si7 0.182425 0.725815 0.590946
Si Si8 0.844057 0.651185 0.091700
O O1 0.967857 0.415004 0.475105
O O2 0.788475 0.431885 0.341497
O O3 0.050153 0.417749 0.295299
O O4 0.990119 0.512747 0.389952
O O5 0.721477 0.887732 0.688618
O O6 0.704137 0.916601 0.871562
O O7 0.817881 0.819534 0.821144
O O8 0.738704 0.212195 0.611944
O O9 0.732828 0.126270 0.501322
O O10 0.983159 0.156256 0.579183
O O11 0.049588 0.122807 0.853784
O O12 0.510575 0.765282 0.080007
O O13 0.256140 0.798452 0.004267
O O14 0.712908 0.679993 0.326984
O O15 0.818500 0.617156 0.188158
O O16 0.267873 0.785987 0.605986
#
# Coordination Sequence:
#
# PCOD9413309 Si02
#       8
#     8   8   8   8   8   8   8   8
#     4  11  24  42  68  95 129 165 200 264 312 385
#     4  12  24  39  67  95 126 169 211 254 314 376
#     4  11  25  42  64  92 129 168 212 262 308 368
#     4  11  24  44  64  97 129 161 210 254 322 371
#     4  11  23  37  62  96 133 169 208 254 309 377
#     4  12  24  39  67  95 126 169 211 254 314 376
#     4  11  23  37  62  96 133 169 208 254 309 377
#     4  11  25  42  64  92 129 168 212 262 308 368
#
# _framework density 21.119917999999998
#
# number of rings (size 3 to 8) (size 9 to 14) (size 15 to 20)
#    0.000    0.750    2.500    6.750    7.000    4.000 
#    0.000    0.000    0.000    4.500    0.000    0.000 
#    0.000    0.000    0.000    0.000    0.000    0.000 
#
# Total GULP energy -357884.124674 kJ/mol
# GULP energy per Si atom -5591.939448 kJ/mol
# Density = 2.107185 g / cm^3
# Si number density = 21.119918 Si / 1000 Ang^3
#
#
#
# Elastic Constant Matrix: (Units=GPa)
#
#
# Indices 1 2 3 4 5 6 
#
# 1 126.4229 0.9245 45.8401 0.0000 0.0000 0.0000
# 2 0.9245 23.1431 20.2568 0.0000 0.0000 0.0000
# 3 45.8401 20.2568 135.9797 0.0000 0.0000 0.0000
# 4 0.0000 0.0000 0.0000 12.6387 0.0000 0.0000
# 5 0.0000 0.0000 0.0000 0.0000 32.9805 0.0000
# 6 0.0000 0.0000 0.0000 0.0000 0.0000 29.5431
#
#
#
# Elastic Compliance Matrix: (Units=1/GPa)
#
#
# Indices 1 2 3 4 5 6 
#
# 1 0.009154 0.002686 -0.003486 0.000000 0.000000 0.000000
# 2 0.002686 0.050476 -0.008425 0.000000 0.000000 0.000000
# 3 -0.003486 -0.008425 0.009784 0.000000 0.000000 0.000000
# 4 0.000000 0.000000 0.000000 0.079122 0.000000 0.000000
# 5 0.000000 0.000000 0.000000 0.000000 0.030321 0.000000
# 6 0.000000 0.000000 0.000000 0.000000 0.000000 0.033849
#
#
# Mechanical properties :
#
#
# Convention : Reuss Voigt Hill
#
# Bulk Modulus (GPa) = 19.62158 46.62095 33.12126
# Shear Modulus (GPa) = 20.14951 29.60076 24.87514
#
# Velocity S-wave (km/s) = 3.09213 3.74780 3.43564
# Velocity P-wave (km/s) = 4.69671 6.39142 5.60845
#
# Compressibility (1/GPa) = 0.05096429
#
# Stress axis : x y z
#
# Youngs Moduli (GPa) = 109.23759 19.81135 102.20488
#
# Poissons Ratio (x) = -0.05321 0.35630
# Poissons Ratio (y) = -0.29337 0.86105
# Poissons Ratio (z) = 0.38081 0.16691
#
# Static dielectric constant tensor:
#      x y z
#    x 1.763690 0.000000 0.000000 
#    y 0.000000 1.754080 0.000000 
#    z 0.000000 0.000000 1.774440 
# 
# From -- ./inp_files/25147.got.cif
#   From: 2010.05.17/outbox.cif.g08.bks.cpg/sg52_13_cif.got.tgz:25147.got - 2010.06.03 12:15:38.
