data_PCOD9413255
_publ_section_title
;
Structure prediction by ZEFSAII (Michael W. Deem and Ramdas Pophale) SiO2 
 PCOD9413255
Probable space group: P N N A
;
_chemical_formula_sum "Si O2"
_cell_formula_units_Z 64
_cell_length_a 11.571994
_cell_length_b 14.267676
_cell_length_c 18.246979
_cell_angle_alpha 90.000000
_cell_angle_beta 90.000000
_cell_angle_gamma 90.000000
_cell_volume 3012.675881
_symmetry_space_group_name_H-M "P N N A"
_symmetry_group_IT_number 52
_symmetry_cell_setting 'orthorhombic'
loop_
_space_group_symop_operation_xyz
x,y,z
1/2-x,-y,z
x,1/2-y,1/2-z
1/2-x,1/2+y,1/2-z
-x,-y,-z
1/2+x,y,-z
-x,1/2+y,1/2+z
1/2+x,1/2-y,1/2+z
loop_
_atom_site_type_symbol
_atom_site_label
_atom_site_fract_x
_atom_site_fract_y
_atom_site_fract_z
Si Si1 0.515767 0.745795 0.394370
Si Si2 0.694560 0.330745 0.701571
Si Si3 0.385623 0.414000 0.405183
Si Si4 0.797645 0.093726 0.063403
Si Si5 0.922332 0.843039 0.300290
Si Si6 0.840847 0.352334 0.212360
Si Si7 0.465065 0.515758 0.268221
Si Si8 0.920960 0.733364 0.446527
O O1 0.415224 0.719036 0.337210
O O2 0.600349 0.656581 0.403711
O O3 0.596100 0.830164 0.364979
O O4 0.455130 0.765178 0.472133
O O5 0.752737 0.250000 0.750000
O O6 0.778115 0.373740 0.640684
O O7 0.642402 0.416043 0.749383
O O8 0.347062 0.443843 0.485712
O O9 0.444197 0.490335 0.353210
O O10 0.477310 0.333287 0.418342
O O11 0.693779 0.168663 0.052667
O O12 0.750000 0.000000 0.102646
O O13 0.936386 0.750000 0.250000
O O14 0.792383 0.880499 0.286591
O O15 0.917875 0.813571 0.385227
O O16 0.016758 0.919380 0.276030
O O17 0.844640 0.250000 0.250000
O O18 0.920839 0.425370 0.253207
#
# Coordination Sequence:
#
# PCOD9413255 Si02
#       8
#     8   8   8   8   8   8   8   8
#     4  11  22  42  68  93 134 179 227 268 354 400
#     4  12  24  43  68  95 136 181 223 276 344 422
#     4  11  26  42  64 100 141 175 222 282 349 412
#     4  11  24  39  66  97 137 178 221 282 341 419
#     4  11  24  43  64  97 135 178 233 282 341 394
#     4  11  22  42  68  97 130 178 227 285 337 406
#     4  12  23  41  67  98 132 169 225 284 337 397
#     4  11  24  43  66  96 135 184 222 283 340 407
#
# _framework density 21.243573000000001
#
# number of rings (size 3 to 8) (size 9 to 14) (size 15 to 20)
#    0.000    0.750    6.250    1.500    3.500    1.000 
#    2.250    0.625    0.000    0.000    0.000    0.000 
#    0.000    0.000    0.000    0.000    0.000    0.000 
#
# Total GULP energy -357877.420032 kJ/mol
# GULP energy per Si atom -5591.834688 kJ/mol
# Density = 2.119522 g / cm^3
# Si number density = 21.243573 Si / 1000 Ang^3
#
#
#
# Elastic Constant Matrix: (Units=GPa)
#
#
# Indices 1 2 3 4 5 6 
#
# 1 64.5987 15.2073 13.0518 0.0000 0.0000 0.0000
# 2 15.2073 71.6014 35.2328 0.0000 0.0000 0.0000
# 3 13.0518 35.2328 95.5285 0.0000 0.0000 0.0000
# 4 0.0000 0.0000 0.0000 25.4508 0.0000 0.0000
# 5 0.0000 0.0000 0.0000 0.0000 27.7899 0.0000
# 6 0.0000 0.0000 0.0000 0.0000 0.0000 30.1266
#
#
#
# Elastic Compliance Matrix: (Units=1/GPa)
#
#
# Indices 1 2 3 4 5 6 
#
# 1 0.016401 -0.002909 -0.001168 0.000000 0.000000 0.000000
# 2 -0.002909 0.017579 -0.006086 0.000000 0.000000 0.000000
# 3 -0.001168 -0.006086 0.012872 0.000000 0.000000 0.000000
# 4 0.000000 0.000000 0.000000 0.039292 0.000000 0.000000
# 5 0.000000 0.000000 0.000000 0.000000 0.035984 0.000000
# 6 0.000000 0.000000 0.000000 0.000000 0.000000 0.033193
#
#
# Mechanical properties :
#
#
# Convention : Reuss Voigt Hill
#
# Bulk Modulus (GPa) = 37.69797 39.85692 38.77745
# Shear Modulus (GPa) = 27.10197 27.88923 27.49560
#
# Velocity S-wave (km/s) = 3.57567 3.62723 3.60154
# Velocity P-wave (km/s) = 5.90181 6.02868 5.96558
#
# Compressibility (1/GPa) = 0.02652663
#
# Stress axis : x y z
#
# Youngs Moduli (GPa) = 60.97225 56.88715 77.68630
#
# Poissons Ratio (x) = 0.16546 0.09074
# Poissons Ratio (y) = 0.17734 0.47280
# Poissons Ratio (z) = 0.07122 0.34621
#
# Static dielectric constant tensor:
#      x y z
#    x 1.790410 0.000000 0.000000 
#    y 0.000000 1.780520 0.000000 
#    z 0.000000 0.000000 1.784710 
# 
# From -- ./inp_files/32412.got.cif
#   From: 2010.05.17/outbox.cif.g08.bks.cpg/sg52_17_cif.got.tgz:32412.got - 2010.06.03 12:15:38.
