data_PCOD9413510
_publ_section_title
;
Structure prediction by ZEFSAII (Michael W. Deem and Ramdas Pophale) SiO2 
 PCOD9413510
Probable space group: P N N A
;
_chemical_formula_sum "Si O2"
_cell_formula_units_Z 40
_cell_length_a 8.517041
_cell_length_b 9.450173
_cell_length_c 19.209342
_cell_angle_alpha 90.000000
_cell_angle_beta 90.000000
_cell_angle_gamma 90.000000
_cell_volume 1546.112124
_symmetry_space_group_name_H-M "P N N A"
_symmetry_group_IT_number 52
_symmetry_cell_setting 'orthorhombic'
loop_
_space_group_symop_operation_xyz
x,y,z
1/2-x,-y,z
x,1/2-y,1/2-z
1/2-x,1/2+y,1/2-z
-x,-y,-z
1/2+x,y,-z
-x,1/2+y,1/2+z
1/2+x,1/2-y,1/2+z
loop_
_atom_site_type_symbol
_atom_site_label
_atom_site_fract_x
_atom_site_fract_y
_atom_site_fract_z
Si Si1 0.000000 0.000000 0.500000
Si Si2 0.411400 0.996494 0.100040
Si Si3 0.086364 0.750000 0.750000
Si Si4 0.640221 0.224500 0.144990
Si Si5 0.561386 0.494452 0.840536
Si Si6 0.877125 0.216270 0.025155
O O1 0.216170 0.257211 0.567595
O O2 0.902796 0.141916 0.518696
O O3 0.131478 0.906233 0.032910
O O4 0.485683 0.850095 0.074034
O O5 0.250000 0.000000 0.142059
O O6 0.460873 0.915458 0.858743
O O7 0.208485 0.798285 0.808536
O O8 0.989997 0.622350 0.783997
O O9 0.535565 0.357949 0.169585
O O10 0.750000 0.500000 0.840740
O O11 0.500974 0.448485 0.917640
#
# Coordination Sequence:
#
# PCOD9413510 Si02
#       6
#     4   8   4   8   8   8
#     4  12  26  48  92 134 172 208 290 374 448 496
#     4  11  25  45  75 124 175 218 277 356 439 507
#     4  12  30  58  80 118 166 236 286 348 442 544
#     4  12  27  52  83 115 167 232 286 351 432 533
#     4  12  31  53  90 128 171 223 296 369 440 526
#     4  11  24  45  80 126 171 218 277 358 441 515
#
# _framework density 25.871345000000002
#
# number of rings (size 3 to 8) (size 9 to 14) (size 15 to 20)
#    0.000    0.400    4.000    3.600    5.600    4.000 
#    0.000    2.000    0.000    0.000    0.000    0.000 
#    0.000    0.000    0.000    0.000    0.000    0.000 
#
# Total GULP energy -223215.943995 kJ/mol
# GULP energy per Si atom -5580.398600 kJ/mol
# Density = 2.581246 g / cm^3
# Si number density = 25.871345 Si / 1000 Ang^3
#
#
#
# Elastic Constant Matrix: (Units=GPa)
#
#
# Indices 1 2 3 4 5 6 
#
# 1 151.5445 44.0148 31.2015 0.0000 0.0000 0.0000
# 2 44.0148 175.5766 34.8139 0.0000 0.0000 0.0000
# 3 31.2015 34.8139 99.9232 0.0000 0.0000 0.0000
# 4 0.0000 0.0000 0.0000 46.9973 0.0000 0.0000
# 5 0.0000 0.0000 0.0000 0.0000 20.8699 0.0000
# 6 0.0000 0.0000 0.0000 0.0000 0.0000 32.6349
#
#
#
# Elastic Compliance Matrix: (Units=1/GPa)
#
#
# Indices 1 2 3 4 5 6 
#
# 1 0.007403 -0.001501 -0.001789 0.000000 0.000000 0.000000
# 2 -0.001501 0.006423 -0.001769 0.000000 0.000000 0.000000
# 3 -0.001789 -0.001769 0.011182 0.000000 0.000000 0.000000
# 4 0.000000 0.000000 0.000000 0.021278 0.000000 0.000000
# 5 0.000000 0.000000 0.000000 0.000000 0.047916 0.000000
# 6 0.000000 0.000000 0.000000 0.000000 0.000000 0.030642
#
#
# Mechanical properties :
#
#
# Convention : Reuss Voigt Hill
#
# Bulk Modulus (GPa) = 67.15619 71.90054 69.52837
# Shear Modulus (GPa) = 35.73351 41.23470 38.48410
#
# Velocity S-wave (km/s) = 3.72048 3.99662 3.86102
# Velocity P-wave (km/s) = 6.66859 7.01065 6.84176
#
# Compressibility (1/GPa) = 0.01489066
#
# Stress axis : x y z
#
# Youngs Moduli (GPa) = 135.08065 155.70026 89.42549
#
# Poissons Ratio (x) = 0.23373 0.15995
# Poissons Ratio (y) = 0.20278 0.15819
# Poissons Ratio (z) = 0.24160 0.27542
#
# Static dielectric constant tensor:
#      x y z
#    x 1.988490 0.000000 0.000000 
#    y 0.000000 0.820560 0.000000 
#    z 0.000000 0.000000 2.144550 
# 
# From -- ./inp_files/39284.got.cif
#   From: 2010.05.17/outbox.cif.g08.bks.cpg/sg52_20_cif.got.tgz:39284.got - 2010.06.03 12:15:38.
