data_PCOD9413502
_publ_section_title
;
Structure prediction by ZEFSAII (Michael W. Deem and Ramdas Pophale) SiO2 
 PCOD9413502
Probable space group: P N N A
;
_chemical_formula_sum "Si O2"
_cell_formula_units_Z 40
_cell_length_a 22.314950
_cell_length_b 8.831079
_cell_length_c 9.212131
_cell_angle_alpha 90.000000
_cell_angle_beta 90.000000
_cell_angle_gamma 90.000000
_cell_volume 1815.389391
_symmetry_space_group_name_H-M "P N N A"
_symmetry_group_IT_number 52
_symmetry_cell_setting 'orthorhombic'
loop_
_space_group_symop_operation_xyz
x,y,z
1/2-x,-y,z
x,1/2-y,1/2-z
1/2-x,1/2+y,1/2-z
-x,-y,-z
1/2+x,y,-z
-x,1/2+y,1/2+z
1/2+x,1/2-y,1/2+z
loop_
_atom_site_type_symbol
_atom_site_label
_atom_site_fract_x
_atom_site_fract_y
_atom_site_fract_z
Si Si1 0.003485 0.828188 0.541064
Si Si2 0.549783 0.750000 0.750000
Si Si3 0.783834 0.158338 0.050289
Si Si4 0.838848 0.457956 0.740435
Si Si5 0.250000 0.500000 0.998955
Si Si6 0.110689 0.750000 0.750000
Si Si7 0.103935 0.250000 0.250000
O O1 0.012017 0.731069 0.395241
O O2 0.063566 0.819194 0.637124
O O3 0.942898 0.790352 0.624152
O O4 0.000000 0.000000 0.500000
O O5 0.596112 0.612765 0.767040
O O6 0.843742 0.156495 0.148655
O O7 0.750000 0.000000 0.083816
O O8 0.753456 0.328059 0.072397
O O9 0.803318 0.139015 0.879868
O O10 0.806149 0.487056 0.891965
O O11 0.852690 0.624235 0.682387
#
# Coordination Sequence:
#
# PCOD9413502 Si02
#       7
#     8   4   8   8   4   4   4
#     4  11  24  45  70 101 139 184 237 293 359 423
#     4  12  22  43  70  92 136 177 224 288 346 412
#     4  12  26  45  72 104 144 191 238 293 362 431
#     4  12  22  42  67 103 133 176 232 287 347 421
#     4  12  24  44  74 106 142 182 238 296 354 434
#     4  11  26  48  68 102 150 188 233 304 358 424
#     4  11  26  39  74 102 134 177 235 292 358 430
#
# _framework density 22.033840999999999
#
# number of rings (size 3 to 8) (size 9 to 14) (size 15 to 20)
#    0.000    0.400    7.000    1.200    1.400    2.400 
#    0.000    0.000    0.000    0.000    0.000    0.000 
#    0.000    0.000    0.000    0.000    0.000    0.000 
#
# Total GULP energy -223000.954766 kJ/mol
# GULP energy per Si atom -5575.023869 kJ/mol
# Density = 2.198369 g / cm^3
# Si number density = 22.033841 Si / 1000 Ang^3
#
#
#
# Elastic Constant Matrix: (Units=GPa)
#
#
# Indices 1 2 3 4 5 6 
#
# 1 64.6008 50.9649 31.7319 0.0000 0.0000 0.0000
# 2 50.9649 132.4575 31.5727 0.0000 0.0000 0.0000
# 3 31.7319 31.5727 87.4771 0.0000 0.0000 0.0000
# 4 0.0000 0.0000 0.0000 20.1299 0.0000 0.0000
# 5 0.0000 0.0000 0.0000 0.0000 -23.2457 0.0000
# 6 0.0000 0.0000 0.0000 0.0000 0.0000 50.9474
#
#
#
# Elastic Compliance Matrix: (Units=1/GPa)
#
#
# Indices 1 2 3 4 5 6 
#
# 1 0.024879 -0.008120 -0.006094 0.000000 0.000000 0.000000
# 2 -0.008120 0.010910 -0.000992 0.000000 0.000000 0.000000
# 3 -0.006094 -0.000992 0.014000 0.000000 0.000000 0.000000
# 4 0.000000 0.000000 0.000000 0.049677 0.000000 0.000000
# 5 0.000000 0.000000 0.000000 0.000000 -0.043019 0.000000
# 6 0.000000 0.000000 0.000000 0.000000 0.000000 0.019628
#
#
# Mechanical properties :
#
#
# Convention : Reuss Voigt Hill
#
# Bulk Modulus (GPa) = 51.60754 57.00825 54.30790
# Shear Modulus (GPa) = 44.26794 20.91738 32.59266
#
# Velocity S-wave (km/s) = 4.48715 3.08446 3.85022
# Velocity P-wave (km/s) = 7.09357 6.21405 6.66833
#
# Compressibility (1/GPa) = 0.01937701
#
# Stress axis : x y z
#
# Youngs Moduli (GPa) = 40.19427 91.65552 71.42687
#
# Poissons Ratio (x) = 0.74424 0.43528
# Poissons Ratio (y) = 0.32638 0.07088
# Poissons Ratio (z) = 0.24495 0.09095
#
# Static dielectric constant tensor:
#      x y z
#    x 1.785690 0.000000 0.000000 
#    y 0.000000 1.883350 0.000000 
#    z 0.000000 0.000000 1.830420 
# 
# From -- ./inp_files/14089.got.cif
#   From: 2010.05.17/outbox.cif.g08.bks.cpg/sg52_8_cif.got.tgz:14089.got - 2010.06.03 12:15:38.
