data_PCOD9413774
_publ_section_title
;
Structure prediction by ZEFSAII (Michael W. Deem and Ramdas Pophale) SiO2 
 PCOD9413774
Probable space group: P N N A
;
_chemical_formula_sum "Si O2"
_cell_formula_units_Z 36
_cell_length_a 14.631257
_cell_length_b 12.800794
_cell_length_c 9.371237
_cell_angle_alpha 90.000000
_cell_angle_beta 90.000000
_cell_angle_gamma 90.000000
_cell_volume 1755.154973
_symmetry_space_group_name_H-M "P N N A"
_symmetry_group_IT_number 52
_symmetry_cell_setting 'orthorhombic'
loop_
_space_group_symop_operation_xyz
x,y,z
1/2-x,-y,z
x,1/2-y,1/2-z
1/2-x,1/2+y,1/2-z
-x,-y,-z
1/2+x,y,-z
-x,1/2+y,1/2+z
1/2+x,1/2-y,1/2+z
loop_
_atom_site_type_symbol
_atom_site_label
_atom_site_fract_x
_atom_site_fract_y
_atom_site_fract_z
Si Si1 0.938789 0.554379 0.377076
Si Si2 0.616903 0.250000 0.750000
Si Si3 0.090418 0.774787 0.092232
Si Si4 0.974286 0.409195 0.109134
Si Si5 0.234600 0.390829 0.454069
O O1 0.936497 0.476304 0.242727
O O2 0.835080 0.579718 0.420191
O O3 0.000000 0.500000 0.500000
O O4 0.996908 0.662756 0.369116
O O5 0.554554 0.338316 0.823480
O O6 0.679047 0.306826 0.635027
O O7 0.128551 0.750000 0.250000
O O8 0.165340 0.847155 0.014625
O O9 0.078641 0.675410 0.989326
O O10 0.000000 0.500000 0.000000
O O11 0.250000 0.500000 0.370912
#
# Coordination Sequence:
#
# PCOD9413774 Si02
#       5
#     8   4   8   8   8
#     4  12  23  46  73 102 146 189 243 303 368 437
#     4  12  24  44  74 102 140 190 248 294 368 440
#     4  12  24  44  74 106 146 192 248 302 365 442
#     4  12  25  45  77 108 142 192 244 304 368 437
#     4  12  25  43  73 103 145 193 241 301 375 445
#
# _framework density 20.511009000000001
#
# number of rings (size 3 to 8) (size 9 to 14) (size 15 to 20)
#    0.000    0.000   10.000    0.000    0.000    0.000 
#    0.000    6.667    0.000    0.000    0.000    0.000 
#    0.000    0.000    0.000    0.000    0.000    0.000 
#
# Total GULP energy -200722.050963 kJ/mol
# GULP energy per Si atom -5575.612527 kJ/mol
# Density = 2.046433 g / cm^3
# Si number density = 20.511009 Si / 1000 Ang^3
#
#
#
# Elastic Constant Matrix: (Units=GPa)
#
#
# Indices 1 2 3 4 5 6 
#
# 1 121.8492 59.3243 40.3983 0.0000 0.0000 0.0000
# 2 59.3243 156.6444 56.7414 0.0000 0.0000 0.0000
# 3 40.3983 56.7414 120.8501 0.0000 0.0000 0.0000
# 4 0.0000 0.0000 0.0000 61.4622 0.0000 0.0000
# 5 0.0000 0.0000 0.0000 0.0000 24.1200 0.0000
# 6 0.0000 0.0000 0.0000 0.0000 0.0000 45.9605
#
#
#
# Elastic Compliance Matrix: (Units=1/GPa)
#
#
# Indices 1 2 3 4 5 6 
#
# 1 0.010437 -0.003240 -0.001968 0.000000 0.000000 0.000000
# 2 -0.003240 0.008698 -0.003001 0.000000 0.000000 0.000000
# 3 -0.001968 -0.003001 0.010341 0.000000 0.000000 0.000000
# 4 0.000000 0.000000 0.000000 0.016270 0.000000 0.000000
# 5 0.000000 0.000000 0.000000 0.000000 0.041459 0.000000
# 6 0.000000 0.000000 0.000000 0.000000 0.000000 0.021758
#
#
# Mechanical properties :
#
#
# Convention : Reuss Voigt Hill
#
# Bulk Modulus (GPa) = 76.57341 79.14129 77.85735
# Shear Modulus (GPa) = 38.54078 42.50052 40.52065
#
# Velocity S-wave (km/s) = 4.33948 4.55695 4.44954
# Velocity P-wave (km/s) = 7.90708 8.14594 8.02740
#
# Compressibility (1/GPa) = 0.01305936
#
# Stress axis : x y z
#
# Youngs Moduli (GPa) = 95.81697 114.97115 96.69883
#
# Poissons Ratio (x) = 0.37248 0.19027
# Poissons Ratio (y) = 0.31043 0.29017
# Poissons Ratio (z) = 0.18853 0.34500
#
# Static dielectric constant tensor:
#      x y z
#    x 1.863640 0.000000 0.000000 
#    y 0.000000 1.812370 0.000000 
#    z 0.000000 0.000000 1.787690 
# 
# From -- ./inp_files/9930.got.cif
#   From: 2010.05.17/outbox.cif.g08.bks.cpg/sg52_5_cif.got.tgz:9930.got - 2010.06.03 12:15:38.
