data_PCOD9413105
_publ_section_title
;
Structure prediction by ZEFSAII (Michael W. Deem and Ramdas Pophale) SiO2 
 PCOD9413105
Probable space group: P N N A
;
_chemical_formula_sum "Si O2"
_cell_formula_units_Z 36
_cell_length_a 14.674478
_cell_length_b 4.963691
_cell_length_c 22.851735
_cell_angle_alpha 90.000000
_cell_angle_beta 90.000000
_cell_angle_gamma 90.000000
_cell_volume 1664.510651
_symmetry_space_group_name_H-M "P N N A"
_symmetry_group_IT_number 52
_symmetry_cell_setting 'orthorhombic'
loop_
_space_group_symop_operation_xyz
x,y,z
1/2-x,-y,z
x,1/2-y,1/2-z
1/2-x,1/2+y,1/2-z
-x,-y,-z
1/2+x,y,-z
-x,1/2+y,1/2+z
1/2+x,1/2-y,1/2+z
loop_
_atom_site_type_symbol
_atom_site_label
_atom_site_fract_x
_atom_site_fract_y
_atom_site_fract_z
Si Si1 0.309966 0.235110 0.891035
Si Si2 0.250000 0.000000 0.206733
Si Si3 0.421352 0.355879 0.374961
Si Si4 0.988340 0.846367 0.561009
Si Si5 0.084285 0.504502 0.711816
O O1 0.250000 0.500000 0.889000
O O2 0.407585 0.296265 0.919205
O O3 0.250000 0.000000 0.920548
O O4 0.336256 0.130345 0.826839
O O5 0.227323 0.250000 0.250000
O O6 0.332745 0.084114 0.163789
O O7 0.433114 0.053187 0.397640
O O8 0.506799 0.405082 0.332239
O O9 0.436239 0.562558 0.429549
O O10 0.000000 0.000000 0.500000
O O11 0.113153 0.250000 0.750000
O O12 0.046157 0.750000 0.750000
#
# Coordination Sequence:
#
# PCOD9413105 Si02
#       5
#     8   4   8   8   8
#     4  11  23  41  62  92 127 162 214 266 316 387
#     4  12  24  42  70 102 144 178 220 290 348 410
#     4  11  23  42  66  96 132 167 227 266 328 410
#     4  11  24  46  68  89 128 173 217 278 336 387
#     4  11  21  37  61  88 125 169 201 244 313 378
#
# _framework density 21.627979
#
# number of rings (size 3 to 8) (size 9 to 14) (size 15 to 20)
#    0.000    0.889    0.000   10.000    0.000    1.778 
#    6.000    2.222    0.000    0.000    0.000    0.000 
#    0.000    0.000    0.000    0.000    0.000    0.000 
#
# Total GULP energy -201280.497765 kJ/mol
# GULP energy per Si atom -5591.124938 kJ/mol
# Density = 2.157875 g / cm^3
# Si number density = 21.627979 Si / 1000 Ang^3
#
#
#
# Elastic Constant Matrix: (Units=GPa)
#
#
# Indices 1 2 3 4 5 6 
#
# 1 98.9848 33.6408 18.4199 0.0000 0.0000 0.0000
# 2 33.6408 137.8288 18.9132 0.0000 0.0000 0.0000
# 3 18.4199 18.9132 71.7677 0.0000 0.0000 0.0000
# 4 0.0000 0.0000 0.0000 -4.8171 0.0000 0.0000
# 5 0.0000 0.0000 0.0000 0.0000 7.8948 0.0000
# 6 0.0000 0.0000 0.0000 0.0000 0.0000 30.0691
#
#
#
# Elastic Compliance Matrix: (Units=1/GPa)
#
#
# Indices 1 2 3 4 5 6 
#
# 1 0.011361 -0.002462 -0.002267 0.000000 0.000000 0.000000
# 2 -0.002462 0.008061 -0.001492 0.000000 0.000000 0.000000
# 3 -0.002267 -0.001492 0.014909 0.000000 0.000000 0.000000
# 4 0.000000 0.000000 0.000000 -0.207593 0.000000 0.000000
# 5 0.000000 0.000000 0.000000 0.000000 0.126665 0.000000
# 6 0.000000 0.000000 0.000000 0.000000 0.000000 0.033257
#
#
# Mechanical properties :
#
#
# Convention : Reuss Voigt Hill
#
# Bulk Modulus (GPa) = 45.68674 50.05879 47.87276
# Shear Modulus (GPa) = 781.32748 22.46986 401.89867
#
# Velocity S-wave (km/s) = 19.02740 3.22673 13.64650
# Velocity P-wave (km/s) = 22.44755 6.08917 16.44644
#
# Compressibility (1/GPa) = 0.02188819
#
# Stress axis : x y z
#
# Youngs Moduli (GPa) = 88.01930 124.05300 67.07335
#
# Poissons Ratio (x) = 0.30540 0.15207
# Poissons Ratio (y) = 0.21669 0.10011
# Poissons Ratio (z) = 0.19955 0.18515
#
# Static dielectric constant tensor:
#      x y z
#    x 1.758340 0.000000 0.000000 
#    y 0.000000 3.267980 0.000000 
#    z 0.000000 0.000000 1.818680 
# 
# From -- ./inp_files/37051.got.cif
#   From: 2010.05.17/outbox.cif.g08.bks.cpg/sg52_19_cif.got.tgz:37051.got - 2010.06.03 12:15:38.
