data_PCOD9413549
_publ_section_title
;
Structure prediction by ZEFSAII (Michael W. Deem and Ramdas Pophale) SiO2 
 PCOD9413549
Probable space group: P N N A
;
_chemical_formula_sum "Si O2"
_cell_formula_units_Z 60
_cell_length_a 9.862885
_cell_length_b 17.139497
_cell_length_c 16.807521
_cell_angle_alpha 90.000000
_cell_angle_beta 90.000000
_cell_angle_gamma 90.000000
_cell_volume 2841.225503
_symmetry_space_group_name_H-M "P N N A"
_symmetry_group_IT_number 52
_symmetry_cell_setting 'orthorhombic'
loop_
_space_group_symop_operation_xyz
x,y,z
1/2-x,-y,z
x,1/2-y,1/2-z
1/2-x,1/2+y,1/2-z
-x,-y,-z
1/2+x,y,-z
-x,1/2+y,1/2+z
1/2+x,1/2-y,1/2+z
loop_
_atom_site_type_symbol
_atom_site_label
_atom_site_fract_x
_atom_site_fract_y
_atom_site_fract_z
Si Si1 0.250000 0.000000 0.526044
Si Si2 0.068856 0.432827 0.214827
Si Si3 0.597488 0.019734 0.893083
Si Si4 0.754662 0.264483 0.479219
Si Si5 0.062020 0.089445 0.650798
Si Si6 0.500676 0.628310 0.534916
Si Si7 0.317814 0.181862 0.686153
Si Si8 0.294026 0.369282 0.095143
O O1 0.356390 0.952482 0.579103
O O2 0.179981 0.937513 0.469045
O O3 0.018338 0.519076 0.191788
O O4 0.944825 0.375200 0.196340
O O5 0.102054 0.439084 0.307810
O O6 0.195494 0.403296 0.162721
O O7 0.750000 0.000000 0.919443
O O8 0.520947 0.936336 0.896308
O O9 0.530253 0.077477 0.956102
O O10 0.865240 0.322536 0.516378
O O11 0.624043 0.313433 0.453189
O O12 0.810958 0.218380 0.402402
O O13 0.724568 0.201328 0.548039
O O14 0.180059 0.132513 0.698660
O O15 0.944629 0.149925 0.625832
O O16 0.327918 0.250000 0.750000
#
# Coordination Sequence:
#
# PCOD9413549 Si02
#       8
#     4   8   8   8   8   8   8   8
#     4  12  22  40  68 100 138 178 242 274 338 420
#     4  12  25  46  71 100 143 187 236 292 353 429
#     4  11  24  48  74 104 136 186 244 299 346 418
#     4  12  24  45  69 106 143 183 229 292 356 432
#     4  12  23  44  66 102 134 186 237 289 339 421
#     4  11  25  46  75 102 138 183 240 289 356 418
#     4  12  27  44  65 101 143 185 229 290 366 417
#     4  12  25  41  74 102 140 185 229 288 356 419
#
# _framework density 21.117647000000002
#
# number of rings (size 3 to 8) (size 9 to 14) (size 15 to 20)
#    0.000    0.267    5.333    3.600    3.733    0.000 
#    2.400    0.667    0.000    0.000    0.000    0.000 
#    0.000    0.000    0.000    0.000    0.000    0.000 
#
# Total GULP energy -335681.277625 kJ/mol
# GULP energy per Si atom -5594.687960 kJ/mol
# Density = 2.106958 g / cm^3
# Si number density = 21.117647 Si / 1000 Ang^3
#
#
#
# Elastic Constant Matrix: (Units=GPa)
#
#
# Indices 1 2 3 4 5 6 
#
# 1 77.1128 18.2538 -10.9115 0.0000 0.0000 0.0000
# 2 18.2538 95.6989 19.8170 0.0000 0.0000 0.0000
# 3 -10.9115 19.8170 72.2426 0.0000 0.0000 0.0000
# 4 0.0000 0.0000 0.0000 23.0187 0.0000 0.0000
# 5 0.0000 0.0000 0.0000 0.0000 18.3738 0.0000
# 6 0.0000 0.0000 0.0000 0.0000 0.0000 47.7144
#
#
#
# Elastic Compliance Matrix: (Units=1/GPa)
#
#
# Indices 1 2 3 4 5 6 
#
# 1 0.014192 -0.003341 0.003060 0.000000 0.000000 0.000000
# 2 -0.003341 0.011865 -0.003759 0.000000 0.000000 0.000000
# 3 0.003060 -0.003759 0.015336 0.000000 0.000000 0.000000
# 4 0.000000 0.000000 0.000000 0.043443 0.000000 0.000000
# 5 0.000000 0.000000 0.000000 0.000000 0.054425 0.000000
# 6 0.000000 0.000000 0.000000 0.000000 0.000000 0.020958
#
#
# Mechanical properties :
#
#
# Convention : Reuss Voigt Hill
#
# Bulk Modulus (GPa) = 30.01879 33.26366 31.64123
# Shear Modulus (GPa) = 27.87023 32.34772 30.10898
#
# Velocity S-wave (km/s) = 3.63679 3.91805 3.78004
# Velocity P-wave (km/s) = 5.64632 6.02112 5.83673
#
# Compressibility (1/GPa) = 0.03331247
#
# Stress axis : x y z
#
# Youngs Moduli (GPa) = 70.46339 84.28086 65.20766
#
# Poissons Ratio (x) = 0.28155 -0.19953
# Poissons Ratio (y) = 0.23539 0.24513
# Poissons Ratio (z) = -0.21561 0.31684
#
# Static dielectric constant tensor:
#      x y z
#    x 1.750610 0.000000 0.000000 
#    y 0.000000 1.762170 0.000000 
#    z 0.000000 0.000000 1.754760 
# 
# From -- ./inp_files/31485.got.cif
#   From: 2010.05.17/outbox.cif.g08.bks.cpg/sg52_16_cif.got.tgz:31485.got - 2010.06.03 12:15:38.
