data_PCOD9413830
_publ_section_title
;
Structure prediction by ZEFSAII (Michael W. Deem and Ramdas Pophale) SiO2 
 PCOD9413830
Probable space group: P N N A
;
_chemical_formula_sum "Si O2"
_cell_formula_units_Z 40
_cell_length_a 16.360407
_cell_length_b 9.944820
_cell_length_c 9.938827
_cell_angle_alpha 90.000000
_cell_angle_beta 90.000000
_cell_angle_gamma 90.000000
_cell_volume 1617.060101
_symmetry_space_group_name_H-M "P N N A"
_symmetry_group_IT_number 52
_symmetry_cell_setting 'orthorhombic'
loop_
_space_group_symop_operation_xyz
x,y,z
1/2-x,-y,z
x,1/2-y,1/2-z
1/2-x,1/2+y,1/2-z
-x,-y,-z
1/2+x,y,-z
-x,1/2+y,1/2+z
1/2+x,1/2-y,1/2+z
loop_
_atom_site_type_symbol
_atom_site_label
_atom_site_fract_x
_atom_site_fract_y
_atom_site_fract_z
Si Si1 0.750000 0.500000 0.865836
Si Si2 0.838144 0.182980 0.113179
Si Si3 0.779139 0.837922 0.854572
Si Si4 0.921502 0.087464 0.537923
Si Si5 0.502122 0.750000 0.750000
Si Si6 0.581208 0.079426 0.038500
O O1 0.832795 0.479777 0.953269
O O2 0.771332 0.668068 0.820732
O O3 0.806991 0.250000 0.250000
O O4 0.775198 0.173490 0.991139
O O5 0.868906 0.030174 0.126480
O O6 0.909576 0.283026 0.058377
O O7 0.870434 0.868898 0.908660
O O8 0.750000 0.000000 0.811102
O O9 0.938529 0.137416 0.690249
O O10 0.000000 0.000000 0.500000
O O11 0.445457 0.798382 0.869256
O O12 0.500000 0.000000 0.000000
#
# Coordination Sequence:
#
# PCOD9413830 Si02
#       6
#     4   8   8   8   4   8
#     4  12  24  48  82 108 148 214 268 320 396 478
#     4  12  26  50  74 111 162 204 265 335 404 475
#     4  12  26  49  80 111 153 210 270 329 398 482
#     4  12  27  49  78 117 158 208 269 332 399 484
#     4  12  26  48  76 114 164 200 264 332 394 476
#     4  12  26  48  79 113 158 210 267 326 405 476
#
# _framework density 24.736246999999999
#
# number of rings (size 3 to 8) (size 9 to 14) (size 15 to 20)
#    0.000    0.000    6.000    3.600    4.200    0.800 
#    3.600    0.000    0.000    0.000    0.000    0.000 
#    0.000    0.000    0.000    0.000    0.000    0.000 
#
# Total GULP energy -223729.576587 kJ/mol
# GULP energy per Si atom -5593.239415 kJ/mol
# Density = 2.467995 g / cm^3
# Si number density = 24.736247 Si / 1000 Ang^3
#
#
#
# Elastic Constant Matrix: (Units=GPa)
#
#
# Indices 1 2 3 4 5 6 
#
# 1 149.6372 51.3223 48.0604 0.0000 0.0000 0.0000
# 2 51.3223 141.8199 48.1744 0.0000 0.0000 0.0000
# 3 48.0604 48.1744 110.9386 0.0000 0.0000 0.0000
# 4 0.0000 0.0000 0.0000 66.2906 0.0000 0.0000
# 5 0.0000 0.0000 0.0000 0.0000 -7.6164 0.0000
# 6 0.0000 0.0000 0.0000 0.0000 0.0000 53.5432
#
#
#
# Elastic Compliance Matrix: (Units=1/GPa)
#
#
# Indices 1 2 3 4 5 6 
#
# 1 0.008254 -0.002079 -0.002673 0.000000 0.000000 0.000000
# 2 -0.002079 0.008795 -0.002918 0.000000 0.000000 0.000000
# 3 -0.002673 -0.002918 0.011439 0.000000 0.000000 0.000000
# 4 0.000000 0.000000 0.000000 0.015085 0.000000 0.000000
# 5 0.000000 0.000000 0.000000 0.000000 -0.131296 0.000000
# 6 0.000000 0.000000 0.000000 0.000000 0.000000 0.018677
#
#
# Mechanical properties :
#
#
# Convention : Reuss Voigt Hill
#
# Bulk Modulus (GPa) = 76.06072 77.50110 76.78091
# Shear Modulus (GPa) = -101.37460 39.43272 -30.97094
#
# Velocity S-wave (km/s) = -6.40868 3.99698 -3.54227
# Velocity P-wave (km/s) = 4.89348 7.25949 3.79170
#
# Compressibility (1/GPa) = 0.01314739
#
# Stress axis : x y z
#
# Youngs Moduli (GPa) = 121.14631 113.70145 87.41749
#
# Poissons Ratio (x) = 0.23640 0.23368
# Poissons Ratio (y) = 0.25188 0.25512
# Poissons Ratio (z) = 0.32384 0.33183
#
# Static dielectric constant tensor:
#      x y z
#    x 1.948770 0.000000 0.000000 
#    y 0.000000 2.047000 0.000000 
#    z 0.000000 0.000000 1.919540 
# 
# From -- ./inp_files/20352.got.cif
#   From: 2010.05.17/outbox.cif.g08.bks.cpg/sg52_11_cif.got.tgz:20352.got - 2010.06.03 12:15:38.
