data_PCOD9413590
_publ_section_title
;
Structure prediction by ZEFSAII (Michael W. Deem and Ramdas Pophale) SiO2 
 PCOD9413590
Probable space group: P N N A
;
_chemical_formula_sum "Si O2"
_cell_formula_units_Z 20
_cell_length_a 14.264947
_cell_length_b 7.288481
_cell_length_c 7.150837
_cell_angle_alpha 90.000000
_cell_angle_beta 90.000000
_cell_angle_gamma 90.000000
_cell_volume 743.471058
_symmetry_space_group_name_H-M "P N N A"
_symmetry_group_IT_number 52
_symmetry_cell_setting 'orthorhombic'
loop_
_space_group_symop_operation_xyz
x,y,z
1/2-x,-y,z
x,1/2-y,1/2-z
1/2-x,1/2+y,1/2-z
-x,-y,-z
1/2+x,y,-z
-x,1/2+y,1/2+z
1/2+x,1/2-y,1/2+z
loop_
_atom_site_type_symbol
_atom_site_label
_atom_site_fract_x
_atom_site_fract_y
_atom_site_fract_z
Si Si1 0.122296 0.329154 0.950457
Si Si2 0.033982 0.750000 0.750000
Si Si3 0.673006 0.746399 0.967883
O O1 0.092625 0.250000 0.750000
O O2 0.216410 0.217207 0.009520
O O3 0.154516 0.540672 0.956664
O O4 0.039712 0.328769 0.100858
O O5 0.103257 0.643876 0.603773
O O6 0.649629 0.750000 0.750000
#
# Coordination Sequence:
#
# PCOD9413590 Si02
#       3
#     8   4   8
#     4  11  25  46  69 106 146 188 242 302 363 437
#     4  12  24  46  76 102 140 198 236 306 362 444
#     4  11  25  46  69 106 146 188 242 302 363 437
#
# _framework density 26.900843999999999
#
# number of rings (size 3 to 8) (size 9 to 14) (size 15 to 20)
#    0.000    0.800    4.000    2.400    0.000    6.400 
#    0.000    0.000    0.000    0.000    0.000    0.000 
#    0.000    0.000    0.000    0.000    0.000    0.000 
#
# Total GULP energy -111794.060964 kJ/mol
# GULP energy per Si atom -5589.703048 kJ/mol
# Density = 2.683962 g / cm^3
# Si number density = 26.900844 Si / 1000 Ang^3
#
#
#
# Elastic Constant Matrix: (Units=GPa)
#
#
# Indices 1 2 3 4 5 6 
#
# 1 213.3597 15.3716 81.5716 0.0000 0.0000 0.0000
# 2 15.3716 78.0812 43.8982 0.0000 0.0000 0.0000
# 3 81.5716 43.8982 277.5277 0.0000 0.0000 0.0000
# 4 0.0000 0.0000 0.0000 14.0615 0.0000 0.0000
# 5 0.0000 0.0000 0.0000 0.0000 50.7209 0.0000
# 6 0.0000 0.0000 0.0000 0.0000 0.0000 10.8371
#
#
#
# Elastic Compliance Matrix: (Units=1/GPa)
#
#
# Indices 1 2 3 4 5 6 
#
# 1 0.005283 -0.000183 -0.001524 0.000000 0.000000 0.000000
# 2 -0.000183 0.014064 -0.002171 0.000000 0.000000 0.000000
# 3 -0.001524 -0.002171 0.004394 0.000000 0.000000 0.000000
# 4 0.000000 0.000000 0.000000 0.071116 0.000000 0.000000
# 5 0.000000 0.000000 0.000000 0.000000 0.019716 0.000000
# 6 0.000000 0.000000 0.000000 0.000000 0.000000 0.092276
#
#
# Mechanical properties :
#
#
# Convention : Reuss Voigt Hill
#
# Bulk Modulus (GPa) = 62.55714 94.51681 78.53697
# Shear Modulus (GPa) = 22.73424 43.66570 33.19997
#
# Velocity S-wave (km/s) = 2.91024 4.03328 3.51687
# Velocity P-wave (km/s) = 5.88199 7.54330 6.76384
#
# Compressibility (1/GPa) = 0.01598539
#
# Stress axis : x y z
#
# Youngs Moduli (GPa) = 189.29834 71.10539 227.56059
#
# Poissons Ratio (x) = 0.01304 0.34673
# Poissons Ratio (y) = 0.03471 0.49395
# Poissons Ratio (z) = 0.28843 0.15434
#
# Static dielectric constant tensor:
#      x y z
#    x 2.179920 0.000000 0.000000 
#    y 0.000000 2.368330 0.000000 
#    z 0.000000 0.000000 2.032960 
# 
# From -- ./inp_files/1595.got.cif
#   From: 2010.05.17/outbox.cif.g08.bks.cpg/sg52_1_cif.got.tgz:1595.got - 2010.06.03 12:15:38.
