data_PCOD9413456
_publ_section_title
;
Structure prediction by ZEFSAII (Michael W. Deem and Ramdas Pophale) SiO2 
 PCOD9413456
Probable space group: P N N A
;
_chemical_formula_sum "Si O2"
_cell_formula_units_Z 60
_cell_length_a 16.247870
_cell_length_b 25.077535
_cell_length_c 6.290420
_cell_angle_alpha 90.000000
_cell_angle_beta 90.000000
_cell_angle_gamma 90.000000
_cell_volume 2563.072697
_symmetry_space_group_name_H-M "P N N A"
_symmetry_group_IT_number 52
_symmetry_cell_setting 'orthorhombic'
loop_
_space_group_symop_operation_xyz
x,y,z
1/2-x,-y,z
x,1/2-y,1/2-z
1/2-x,1/2+y,1/2-z
-x,-y,-z
1/2+x,y,-z
-x,1/2+y,1/2+z
1/2+x,1/2-y,1/2+z
loop_
_atom_site_type_symbol
_atom_site_label
_atom_site_fract_x
_atom_site_fract_y
_atom_site_fract_z
Si Si1 0.063961 0.501628 0.196460
Si Si2 0.620610 0.196529 0.629477
Si Si3 0.157147 0.750000 0.750000
Si Si4 0.186123 0.372635 0.800378
Si Si5 0.452590 0.148194 0.693554
Si Si6 0.034822 0.085736 0.972452
Si Si7 0.725451 0.830207 0.919554
Si Si8 0.175803 0.912342 0.422923
O O1 0.069611 0.445860 0.321045
O O2 0.151358 0.528430 0.145380
O O3 0.023490 0.544503 0.354852
O O4 0.000000 0.500000 0.000000
O O5 0.590549 0.250000 0.750000
O O6 0.667134 0.185712 0.404987
O O7 0.540658 0.160502 0.591453
O O8 0.688094 0.178407 0.800797
O O9 0.101688 0.799250 0.678393
O O10 0.198636 0.725299 0.533486
O O11 0.106612 0.396268 0.685656
O O12 0.254821 0.366541 0.620844
O O13 0.233203 0.407273 0.976899
O O14 0.397891 0.102829 0.586067
O O15 0.479806 0.133322 0.932703
O O16 0.672636 0.865253 0.755321
#
# Coordination Sequence:
#
# PCOD9413456 Si02
#       8
#     8   8   4   8   8   8   8   8
#     4  11  24  46  77 102 139 186 243 310 373 440
#     4  11  24  42  68 102 140 196 240 281 352 438
#     4  12  24  40  70 110 142 190 236 300 358 436
#     4  11  24  45  73  99 147 191 232 306 365 438
#     4  12  23  44  70 104 145 183 247 295 357 429
#     4  11  25  46  75 104 141 194 245 303 374 441
#     4  11  24  45  67  99 146 190 232 293 364 429
#     4  11  25  44  73 104 142 191 241 309 375 435
#
# _framework density 23.409400000000002
#
# number of rings (size 3 to 8) (size 9 to 14) (size 15 to 20)
#    0.000    0.800    4.667    2.400    1.867    0.000 
#    0.000    5.333    0.000    0.000    0.000    0.000 
#    0.000    0.000    0.000    0.000    0.000    0.000 
#
# Total GULP energy -334763.986377 kJ/mol
# GULP energy per Si atom -5579.399773 kJ/mol
# Density = 2.335612 g / cm^3
# Si number density = 23.409400 Si / 1000 Ang^3
#
#
#
# Elastic Constant Matrix: (Units=GPa)
#
#
# Indices 1 2 3 4 5 6 
#
# 1 90.3743 21.5204 45.9390 0.0000 0.0000 0.0000
# 2 21.5204 71.5137 21.0835 0.0000 0.0000 0.0000
# 3 45.9390 21.0835 99.8306 0.0000 0.0000 0.0000
# 4 0.0000 0.0000 0.0000 41.1872 0.0000 0.0000
# 5 0.0000 0.0000 0.0000 0.0000 45.5617 0.0000
# 6 0.0000 0.0000 0.0000 0.0000 0.0000 32.5177
#
#
#
# Elastic Compliance Matrix: (Units=1/GPa)
#
#
# Indices 1 2 3 4 5 6 
#
# 1 0.014892 -0.002624 -0.006298 0.000000 0.000000 0.000000
# 2 -0.002624 0.015374 -0.002039 0.000000 0.000000 0.000000
# 3 -0.006298 -0.002039 0.013346 0.000000 0.000000 0.000000
# 4 0.000000 0.000000 0.000000 0.024279 0.000000 0.000000
# 5 0.000000 0.000000 0.000000 0.000000 0.021948 0.000000
# 6 0.000000 0.000000 0.000000 0.000000 0.000000 0.030752
#
#
# Mechanical properties :
#
#
# Convention : Reuss Voigt Hill
#
# Bulk Modulus (GPa) = 46.10900 48.75603 47.43251
# Shear Modulus (GPa) = 33.38998 35.39837 34.39417
#
# Velocity S-wave (km/s) = 3.78080 3.89285 3.83723
# Velocity P-wave (km/s) = 6.22887 6.40925 6.31970
#
# Compressibility (1/GPa) = 0.02168774
#
# Stress axis : x y z
#
# Youngs Moduli (GPa) = 67.15174 65.04357 74.92891
#
# Poissons Ratio (x) = 0.17070 0.47193
# Poissons Ratio (y) = 0.17623 0.15280
# Poissons Ratio (z) = 0.42295 0.13264
#
# Static dielectric constant tensor:
#      x y z
#    x 1.911890 0.000000 0.000000 
#    y 0.000000 1.914030 0.000000 
#    z 0.000000 0.000000 1.942470 
# 
# From -- ./inp_files/3615.got.cif
#   From: 2010.05.17/outbox.cif.g08.bks.cpg/sg52_2_cif.got.tgz:3615.got - 2010.06.03 12:15:38.
