data_PCOD9413631
_publ_section_title
;
Structure prediction by ZEFSAII (Michael W. Deem and Ramdas Pophale) SiO2 
 PCOD9413631
Probable space group: P N N A
;
_chemical_formula_sum "Si O2"
_cell_formula_units_Z 44
_cell_length_a 5.597607
_cell_length_b 24.862194
_cell_length_c 13.664290
_cell_angle_alpha 90.000000
_cell_angle_beta 90.000000
_cell_angle_gamma 90.000000
_cell_volume 1901.642721
_symmetry_space_group_name_H-M "P N N A"
_symmetry_group_IT_number 52
_symmetry_cell_setting 'orthorhombic'
loop_
_space_group_symop_operation_xyz
x,y,z
1/2-x,-y,z
x,1/2-y,1/2-z
1/2-x,1/2+y,1/2-z
-x,-y,-z
1/2+x,y,-z
-x,1/2+y,1/2+z
1/2+x,1/2-y,1/2+z
loop_
_atom_site_type_symbol
_atom_site_label
_atom_site_fract_x
_atom_site_fract_y
_atom_site_fract_z
Si Si1 0.515553 0.397205 0.260594
Si Si2 0.791414 0.805991 0.724488
Si Si3 0.635029 0.051258 0.908078
Si Si4 0.750000 0.500000 0.261464
Si Si5 0.616069 0.774438 0.453808
Si Si6 0.095581 0.844830 0.902544
O O1 0.376811 0.354851 0.193009
O O2 0.335677 0.425526 0.336196
O O3 0.640892 0.447970 0.207600
O O4 0.695256 0.363957 0.330026
O O5 0.660195 0.750000 0.750000
O O6 0.010847 0.792062 0.651988
O O7 0.892713 0.825956 0.827271
O O8 0.507005 0.102499 0.958475
O O9 0.750000 0.000000 0.963904
O O10 0.442443 0.027341 0.832830
O O11 0.886508 0.792154 0.479802
O O12 0.646405 0.709286 0.461099
#
# Coordination Sequence:
#
# PCOD9413631 Si02
#       6
#     8   8   8   4   8   8
#     4   9  16  28  55  79 114 138 189 232 295 331
#     4   9  20  34  54  80 105 149 191 240 286 347
#     4   8  14  26  47  79 108 137 175 233 281 326
#     4   8  14  26  44  86 114 138 172 240 290 334
#     4  11  26  40  55  79 115 153 192 237 290 345
#     4   9  19  33  55  79 105 146 187 235 280 339
#
# _framework density 23.137889000000001
#
# number of rings (size 3 to 8) (size 9 to 14) (size 15 to 20)
#    0.000    2.909    0.000    0.000   10.182    0.727 
#    0.000    0.000    0.000    1.091    0.000    1.273 
#    0.000    0.000    0.000    0.000    0.000    0.000 
#
# Total GULP energy -245358.240508 kJ/mol
# GULP energy per Si atom -5576.323648 kJ/mol
# Density = 2.308523 g / cm^3
# Si number density = 23.137889 Si / 1000 Ang^3
#
#
#
# Elastic Constant Matrix: (Units=GPa)
#
#
# Indices 1 2 3 4 5 6 
#
# 1 82.2822 55.6532 -0.7113 0.0000 0.0000 0.0000
# 2 55.6532 131.2390 26.9823 0.0000 0.0000 0.0000
# 3 -0.7113 26.9823 41.5178 0.0000 0.0000 0.0000
# 4 0.0000 0.0000 0.0000 15.4622 0.0000 0.0000
# 5 0.0000 0.0000 0.0000 0.0000 26.2392 0.0000
# 6 0.0000 0.0000 0.0000 0.0000 0.0000 46.1594
#
#
#
# Elastic Compliance Matrix: (Units=1/GPa)
#
#
# Indices 1 2 3 4 5 6 
#
# 1 0.018323 -0.009043 0.006191 0.000000 0.000000 0.000000
# 2 -0.009043 0.013258 -0.008771 0.000000 0.000000 0.000000
# 3 0.006191 -0.008771 0.029892 0.000000 0.000000 0.000000
# 4 0.000000 0.000000 0.000000 0.064674 0.000000 0.000000
# 5 0.000000 0.000000 0.000000 0.000000 0.038111 0.000000
# 6 0.000000 0.000000 0.000000 0.000000 0.000000 0.021664
#
#
# Mechanical properties :
#
#
# Convention : Reuss Voigt Hill
#
# Bulk Modulus (GPa) = 26.15947 46.54307 36.35127
# Shear Modulus (GPa) = 22.53154 29.11314 25.82234
#
# Velocity S-wave (km/s) = 3.12395 3.55102 3.34431
# Velocity P-wave (km/s) = 4.93382 6.08048 5.53691
#
# Compressibility (1/GPa) = 0.03822707
#
# Stress axis : x y z
#
# Youngs Moduli (GPa) = 54.57561 75.42747 33.45326
#
# Poissons Ratio (x) = 0.68209 -0.20711
# Poissons Ratio (y) = 0.49353 0.29342
# Poissons Ratio (z) = -0.33787 0.66158
#
# Static dielectric constant tensor:
#      x y z
#    x 1.990290 0.000000 0.000000 
#    y 0.000000 1.994740 0.000000 
#    z 0.000000 0.000000 1.804870 
# 
# From -- ./inp_files/23671.got.cif
#   From: 2010.05.17/outbox.cif.g08.bks.cpg/sg52_12_cif.got.tgz:23671.got - 2010.06.03 12:15:38.
