data_PCOD9413104
_publ_section_title
;
Structure prediction by ZEFSAII (Michael W. Deem and Ramdas Pophale) SiO2 
 PCOD9413104
Probable space group: P N N A
;
_chemical_formula_sum "Si O2"
_cell_formula_units_Z 48
_cell_length_a 7.890912
_cell_length_b 23.447886
_cell_length_c 11.586292
_cell_angle_alpha 90.000000
_cell_angle_beta 90.000000
_cell_angle_gamma 90.000000
_cell_volume 2143.756053
_symmetry_space_group_name_H-M "P N N A"
_symmetry_group_IT_number 52
_symmetry_cell_setting 'orthorhombic'
loop_
_space_group_symop_operation_xyz
x,y,z
1/2-x,-y,z
x,1/2-y,1/2-z
1/2-x,1/2+y,1/2-z
-x,-y,-z
1/2+x,y,-z
-x,1/2+y,1/2+z
1/2+x,1/2-y,1/2+z
loop_
_atom_site_type_symbol
_atom_site_label
_atom_site_fract_x
_atom_site_fract_y
_atom_site_fract_z
Si Si1 0.276217 0.253001 0.875335
Si Si2 0.964391 0.180723 0.928940
Si Si3 0.306482 0.903700 0.082614
Si Si4 0.352124 0.445300 0.647548
Si Si5 0.174115 0.883673 0.632851
Si Si6 0.627205 0.455444 0.943023
O O1 0.365744 0.250000 0.750000
O O2 0.279316 0.319943 0.901367
O O3 0.095075 0.221311 0.862817
O O4 0.364645 0.220651 0.980766
O O5 0.833588 0.138792 0.860676
O O6 0.073143 0.139280 0.011121
O O7 0.442823 0.943814 0.146716
O O8 0.207293 0.937559 0.983503
O O9 0.250000 0.500000 0.693242
O O10 0.291427 0.394473 0.731600
O O11 0.276899 0.924694 0.547970
O O12 0.980343 0.905646 0.617906
O O13 0.750000 0.500000 0.875532
O O14 0.500000 0.500000 0.000000
#
# Coordination Sequence:
#
# PCOD9413104 Si02
#       6
#     8   8   8   8   8   8
#     4  11  21  37  60  86 116 154 194 241 295 349
#     4   9  19  37  57  82 114 148 189 239 288 345
#     4   9  19  37  57  82 114 148 189 239 288 345
#     4  11  21  37  60  86 116 154 194 241 295 349
#     4  11  21  37  60  86 116 154 194 241 295 349
#     4   9  19  37  57  82 114 148 189 239 288 345
#
# _framework density 22.390609000000001
#
# number of rings (size 3 to 8) (size 9 to 14) (size 15 to 20)
#    0.000    2.000    0.000    6.000    0.000    0.000 
#    0.000   22.500    0.000    0.000    0.000    0.000 
#    0.000    0.000    0.000    0.000    0.000    0.000 
#
# Total GULP energy -267344.591088 kJ/mol
# GULP energy per Si atom -5569.678981 kJ/mol
# Density = 2.233965 g / cm^3
# Si number density = 22.390609 Si / 1000 Ang^3
#
#
#
# Elastic Constant Matrix: (Units=GPa)
#
#
# Indices 1 2 3 4 5 6 
#
# 1 87.7001 40.7327 1.4928 0.0000 0.0000 0.0000
# 2 40.7327 108.4345 -4.1008 0.0000 0.0000 0.0000
# 3 1.4928 -4.1008 48.0526 0.0000 0.0000 0.0000
# 4 0.0000 0.0000 0.0000 26.7140 0.0000 0.0000
# 5 0.0000 0.0000 0.0000 0.0000 13.3167 0.0000
# 6 0.0000 0.0000 0.0000 0.0000 0.0000 40.3576
#
#
#
# Elastic Compliance Matrix: (Units=1/GPa)
#
#
# Indices 1 2 3 4 5 6 
#
# 1 0.013849 -0.005235 -0.000877 0.000000 0.000000 0.000000
# 2 -0.005235 0.011231 0.001121 0.000000 0.000000 0.000000
# 3 -0.000877 0.001121 0.020933 0.000000 0.000000 0.000000
# 4 0.000000 0.000000 0.000000 0.037434 0.000000 0.000000
# 5 0.000000 0.000000 0.000000 0.000000 0.075093 0.000000
# 6 0.000000 0.000000 0.000000 0.000000 0.000000 0.024778
#
#
# Mechanical properties :
#
#
# Convention : Reuss Voigt Hill
#
# Bulk Modulus (GPa) = 27.75392 35.60408 31.67900
# Shear Modulus (GPa) = 24.35313 29.81516 27.08415
#
# Velocity S-wave (km/s) = 3.30153 3.65306 3.48173
# Velocity P-wave (km/s) = 5.19189 5.80767 5.50839
#
# Compressibility (1/GPa) = 0.03603095
#
# Stress axis : x y z
#
# Youngs Moduli (GPa) = 72.20697 89.03745 47.77044
#
# Poissons Ratio (x) = 0.46615 0.04190
# Poissons Ratio (y) = 0.37804 -0.05356
# Poissons Ratio (z) = 0.06333 -0.09982
#
# Static dielectric constant tensor:
#      x y z
#    x 1.940710 0.000000 0.000000 
#    y 0.000000 1.866870 0.000000 
#    z 0.000000 0.000000 1.836380 
# 
# From -- ./inp_files/16969.got.cif
#   From: 2010.05.17/outbox.cif.g08.bks.cpg/sg52_9_cif.got.tgz:16969.got - 2010.06.03 12:15:38.
