data_PCOD9413290
_publ_section_title
;
Structure prediction by ZEFSAII (Michael W. Deem and Ramdas Pophale) SiO2 
 PCOD9413290
Probable space group: P N N A
;
_chemical_formula_sum "Si O2"
_cell_formula_units_Z 40
_cell_length_a 9.480697
_cell_length_b 13.783650
_cell_length_c 14.199023
_cell_angle_alpha 90.000000
_cell_angle_beta 90.000000
_cell_angle_gamma 90.000000
_cell_volume 1855.508578
_symmetry_space_group_name_H-M "P N N A"
_symmetry_group_IT_number 52
_symmetry_cell_setting 'orthorhombic'
loop_
_space_group_symop_operation_xyz
x,y,z
1/2-x,-y,z
x,1/2-y,1/2-z
1/2-x,1/2+y,1/2-z
-x,-y,-z
1/2+x,y,-z
-x,1/2+y,1/2+z
1/2+x,1/2-y,1/2+z
loop_
_atom_site_type_symbol
_atom_site_label
_atom_site_fract_x
_atom_site_fract_y
_atom_site_fract_z
Si Si1 0.416231 0.763375 0.352758
Si Si2 0.537659 0.075979 0.217070
Si Si3 0.916505 0.987791 0.596816
Si Si4 0.796115 0.108051 0.923123
Si Si5 0.660818 0.877080 0.144554
O O1 0.350607 0.750000 0.250000
O O2 0.428656 0.875363 0.374958
O O3 0.320846 0.692157 0.415442
O O4 0.572714 0.720271 0.350102
O O5 0.429441 0.126882 0.144803
O O6 0.691403 0.123502 0.200256
O O7 0.475486 0.060865 0.322046
O O8 0.567099 0.965003 0.184762
O O9 0.750000 0.000000 0.583574
O O10 0.000000 0.000000 0.500000
O O11 0.750000 0.000000 0.891193
O O12 0.825434 0.100401 0.033817
#
# Coordination Sequence:
#
# PCOD9413290 Si02
#       5
#     8   8   8   8   8
#     4  12  25  45  72 103 144 198 251 305 375 453
#     4  11  22  45  72 106 146 188 235 314 388 438
#     4  12  30  53  74 101 153 212 260 313 374 459
#     4  12  21  41  71 108 146 178 240 317 392 444
#     4  11  23  39  74 108 139 183 238 314 374 449
#
# _framework density 21.557431000000001
#
# number of rings (size 3 to 8) (size 9 to 14) (size 15 to 20)
#    0.000    0.400    6.000    3.600    5.600    0.000 
#    0.000    1.000    0.000    0.000    0.000    0.000 
#    0.000    0.000    0.000    0.000    0.000    0.000 
#
# Total GULP energy -223519.181796 kJ/mol
# GULP energy per Si atom -5587.979545 kJ/mol
# Density = 2.150837 g / cm^3
# Si number density = 21.557431 Si / 1000 Ang^3
#
#
#
# Elastic Constant Matrix: (Units=GPa)
#
#
# Indices 1 2 3 4 5 6 
#
# 1 159.9612 40.5372 63.1561 0.0000 0.0000 0.0000
# 2 40.5372 84.5543 0.9892 0.0000 0.0000 0.0000
# 3 63.1561 0.9892 143.9295 0.0000 0.0000 0.0000
# 4 0.0000 0.0000 0.0000 2.7735 0.0000 0.0000
# 5 0.0000 0.0000 0.0000 0.0000 39.4027 0.0000
# 6 0.0000 0.0000 0.0000 0.0000 0.0000 34.8305
#
#
#
# Elastic Compliance Matrix: (Units=1/GPa)
#
#
# Indices 1 2 3 4 5 6 
#
# 1 0.008832 -0.004189 -0.003847 0.000000 0.000000 0.000000
# 2 -0.004189 0.013815 0.001743 0.000000 0.000000 0.000000
# 3 -0.003847 0.001743 0.008624 0.000000 0.000000 0.000000
# 4 0.000000 0.000000 0.000000 0.360553 0.000000 0.000000
# 5 0.000000 0.000000 0.000000 0.000000 0.025379 0.000000
# 6 0.000000 0.000000 0.000000 0.000000 0.000000 0.028710
#
#
# Mechanical properties :
#
#
# Convention : Reuss Voigt Hill
#
# Bulk Modulus (GPa) = 53.51816 66.42334 59.97075
# Shear Modulus (GPa) = 10.75903 34.31885 22.53894
#
# Velocity S-wave (km/s) = 2.23645 3.99428 3.23697
# Velocity P-wave (km/s) = 5.61682 7.22160 6.46917
#
# Compressibility (1/GPa) = 0.01868525
#
# Stress axis : x y z
#
# Youngs Moduli (GPa) = 113.22635 72.38655 115.95877
#
# Poissons Ratio (x) = 0.30324 0.44605
# Poissons Ratio (y) = 0.47433 -0.20215
# Poissons Ratio (z) = 0.43554 -0.12619
#
# Static dielectric constant tensor:
#      x y z
#    x 1.816470 0.000000 0.000000 
#    y 0.000000 1.649100 0.000000 
#    z 0.000000 0.000000 1.822290 
# 
# From -- ./inp_files/24387.got.cif
#   From: 2010.05.17/outbox.cif.g08.bks.cpg/sg52_13_cif.got.tgz:24387.got - 2010.06.03 12:15:38.
