data_PCOD9413076
_publ_section_title
;
Structure prediction by ZEFSAII (Michael W. Deem and Ramdas Pophale) SiO2 
 PCOD9413076
Probable space group: P N N A
;
_chemical_formula_sum "Si O2"
_cell_formula_units_Z 56
_cell_length_a 22.690168
_cell_length_b 7.944379
_cell_length_c 16.155069
_cell_angle_alpha 90.000000
_cell_angle_beta 90.000000
_cell_angle_gamma 90.000000
_cell_volume 2912.101335
_symmetry_space_group_name_H-M "P N N A"
_symmetry_group_IT_number 52
_symmetry_cell_setting 'orthorhombic'
loop_
_space_group_symop_operation_xyz
x,y,z
1/2-x,-y,z
x,1/2-y,1/2-z
1/2-x,1/2+y,1/2-z
-x,-y,-z
1/2+x,y,-z
-x,1/2+y,1/2+z
1/2+x,1/2-y,1/2+z
loop_
_atom_site_type_symbol
_atom_site_label
_atom_site_fract_x
_atom_site_fract_y
_atom_site_fract_z
Si Si1 0.561922 0.136677 0.577474
Si Si2 0.148971 0.943942 0.651429
Si Si3 0.058537 0.063112 0.788603
Si Si4 0.429793 0.297220 0.987283
Si Si5 0.228401 0.200990 0.664465
Si Si6 0.386149 0.942059 0.976092
Si Si7 0.750000 0.000000 0.046872
Si Si8 0.527960 0.250000 0.750000
O O1 0.493504 0.165636 0.551865
O O2 0.596828 0.272856 0.523713
O O3 0.565144 0.177946 0.673859
O O4 0.578256 0.944612 0.554668
O O5 0.104672 0.989721 0.722730
O O6 0.178073 0.109352 0.610672
O O7 0.117938 0.828466 0.585176
O O8 0.210214 0.885001 0.690656
O O9 0.041510 0.250000 0.750000
O O10 0.089661 0.073676 0.879792
O O11 0.009583 0.912448 0.784977
O O12 0.421628 0.104148 0.012653
O O13 0.198141 0.250000 0.750000
O O14 0.253066 0.343091 0.607100
O O15 0.316213 0.981098 0.989935
#
# Coordination Sequence:
#
# PCOD9413076 Si02
#       8
#     8   8   8   8   8   8   4   4
#     4  11  25  42  65  89 120 160 208 262 316 369
#     4  11  21  37  52  83 128 171 209 243 290 357
#     4  12  23  36  59  90 131 170 206 246 300 364
#     4  11  22  41  63  86 126 166 203 255 309 362
#     4  11  21  31  51  81 126 174 210 243 280 350
#     4  12  24  40  62  93 126 165 211 256 308 371
#     4  12  22  36  56  88 122 164 210 254 302 362
#     4  12  26  42  64  94 120 162 208 264 318 372
#
# _framework density 19.230098999999999
#
# number of rings (size 3 to 8) (size 9 to 14) (size 15 to 20)
#    0.000    0.571    4.286    6.000    3.000    0.000 
#    0.000    0.000    0.000    0.000    3.714    0.000 
#    0.000    0.000    0.000    0.000    0.000    0.000 
#
# Total GULP energy -311922.510226 kJ/mol
# GULP energy per Si atom -5570.044825 kJ/mol
# Density = 1.918633 g / cm^3
# Si number density = 19.230099 Si / 1000 Ang^3
#
#
#
# Elastic Constant Matrix: (Units=GPa)
#
#
# Indices 1 2 3 4 5 6 
#
# 1 42.1172 11.3422 9.6163 0.0000 0.0000 0.0000
# 2 11.3422 89.1459 31.1899 0.0000 0.0000 0.0000
# 3 9.6163 31.1899 80.7296 0.0000 0.0000 0.0000
# 4 0.0000 0.0000 0.0000 29.8811 0.0000 0.0000
# 5 0.0000 0.0000 0.0000 0.0000 16.4518 0.0000
# 6 0.0000 0.0000 0.0000 0.0000 0.0000 39.4205
#
#
#
# Elastic Compliance Matrix: (Units=1/GPa)
#
#
# Indices 1 2 3 4 5 6 
#
# 1 0.024865 -0.002460 -0.002011 0.000000 0.000000 0.000000
# 2 -0.002460 0.013214 -0.004812 0.000000 0.000000 0.000000
# 3 -0.002011 -0.004812 0.014486 0.000000 0.000000 0.000000
# 4 0.000000 0.000000 0.000000 0.033466 0.000000 0.000000
# 5 0.000000 0.000000 0.000000 0.000000 0.060784 0.000000
# 6 0.000000 0.000000 0.000000 0.000000 0.000000 0.025367
#
#
# Mechanical properties :
#
#
# Convention : Reuss Voigt Hill
#
# Bulk Modulus (GPa) = 29.41367 35.14327 32.27847
# Shear Modulus (GPa) = 24.74243 27.80697 26.27470
#
# Velocity S-wave (km/s) = 3.59088 3.80677 3.70040
# Velocity P-wave (km/s) = 5.70276 6.13489 5.92276
#
# Compressibility (1/GPa) = 0.03399780
#
# Stress axis : x y z
#
# Youngs Moduli (GPa) = 40.21720 75.67596 69.03282
#
# Poissons Ratio (x) = 0.18615 0.13886
# Poissons Ratio (y) = 0.09893 0.33221
# Poissons Ratio (z) = 0.08090 0.36418
#
# Static dielectric constant tensor:
#      x y z
#    x 1.655820 0.000000 0.000000 
#    y 0.000000 4.089800 0.000000 
#    z 0.000000 0.000000 1.758300 
# 
# From -- ./inp_files/28812.got.cif
#   From: 2010.05.17/outbox.cif.g08.bks.cpg/sg52_15_cif.got.tgz:28812.got - 2010.06.03 12:15:38.
