data_PCOD9413441
_publ_section_title
;
Structure prediction by ZEFSAII (Michael W. Deem and Ramdas Pophale) SiO2 
 PCOD9413441
Probable space group: P N N A
;
_chemical_formula_sum "Si O2"
_cell_formula_units_Z 32
_cell_length_a 10.541230
_cell_length_b 5.555643
_cell_length_c 22.846810
_cell_angle_alpha 90.000000
_cell_angle_beta 90.000000
_cell_angle_gamma 90.000000
_cell_volume 1337.984832
_symmetry_space_group_name_H-M "P N N A"
_symmetry_group_IT_number 52
_symmetry_cell_setting 'orthorhombic'
loop_
_space_group_symop_operation_xyz
x,y,z
1/2-x,-y,z
x,1/2-y,1/2-z
1/2-x,1/2+y,1/2-z
-x,-y,-z
1/2+x,y,-z
-x,1/2+y,1/2+z
1/2+x,1/2-y,1/2+z
loop_
_atom_site_type_symbol
_atom_site_label
_atom_site_fract_x
_atom_site_fract_y
_atom_site_fract_z
Si Si1 0.632422 0.177052 0.430105
Si Si2 0.374833 0.337387 0.118424
Si Si3 0.108346 0.750000 0.750000
Si Si4 0.546093 0.750000 0.750000
Si Si5 0.250000 0.500000 0.655494
Si Si6 0.750000 0.000000 0.969835
O O1 0.502007 0.048307 0.410901
O O2 0.639605 0.396233 0.384184
O O3 0.670610 0.309667 0.490620
O O4 0.750000 0.000000 0.420705
O O5 0.250000 0.500000 0.115270
O O6 0.385998 0.256139 0.186393
O O7 0.349297 0.124545 0.072969
O O8 0.198799 0.713821 0.694989
O O9 0.030286 0.502502 0.752114
#
# Coordination Sequence:
#
# PCOD9413441 Si02
#       6
#     8   8   4   4   4   4
#     4  11  25  51  79 116 153 212 276 350 406 487
#     4  12  29  49  78 116 162 217 268 341 415 498
#     4  12  25  47  76 124 162 220 268 344 408 488
#     4  12  29  49  82 116 176 214 278 328 422 504
#     4  11  24  40  80 116 166 201 282 340 418 477
#     4  11  28  48  78 112 158 211 278 344 412 491
#
# _framework density 23.916566
#
# number of rings (size 3 to 8) (size 9 to 14) (size 15 to 20)
#    0.000    0.500    2.500    3.750    7.000    8.000 
#    0.000    0.000    0.000    0.000    0.000    0.000 
#    0.000    0.000    0.000    0.000    0.000    0.000 
#
# Total GULP energy -178766.725467 kJ/mol
# GULP energy per Si atom -5586.460171 kJ/mol
# Density = 2.386213 g / cm^3
# Si number density = 23.916566 Si / 1000 Ang^3
#
#
#
# Elastic Constant Matrix: (Units=GPa)
#
#
# Indices 1 2 3 4 5 6 
#
# 1 158.4860 55.1261 72.3655 0.0000 0.0000 0.0000
# 2 55.1261 112.8238 59.9937 0.0000 0.0000 0.0000
# 3 72.3655 59.9937 205.0412 0.0000 0.0000 0.0000
# 4 0.0000 0.0000 0.0000 76.0337 0.0000 0.0000
# 5 0.0000 0.0000 0.0000 0.0000 1.1361 0.0000
# 6 0.0000 0.0000 0.0000 0.0000 0.0000 36.1792
#
#
#
# Elastic Compliance Matrix: (Units=1/GPa)
#
#
# Indices 1 2 3 4 5 6 
#
# 1 0.008275 -0.002949 -0.002058 0.000000 0.000000 0.000000
# 2 -0.002949 0.011547 -0.002338 0.000000 0.000000 0.000000
# 3 -0.002058 -0.002338 0.006287 0.000000 0.000000 0.000000
# 4 0.000000 0.000000 0.000000 0.013152 0.000000 0.000000
# 5 0.000000 0.000000 0.000000 0.000000 0.880211 0.000000
# 6 0.000000 0.000000 0.000000 0.000000 0.000000 0.027640
#
#
# Mechanical properties :
#
#
# Convention : Reuss Voigt Hill
#
# Bulk Modulus (GPa) = 87.56091 94.59129 91.07610
# Shear Modulus (GPa) = 5.17808 41.92752 23.55280
#
# Velocity S-wave (km/s) = 1.47301 4.19152 3.14154
# Velocity P-wave (km/s) = 6.29154 7.94112 7.16397
#
# Compressibility (1/GPa) = 0.01142062
#
# Stress axis : x y z
#
# Youngs Moduli (GPa) = 120.84594 86.59909 159.05016
#
# Poissons Ratio (x) = 0.25539 0.32727
# Poissons Ratio (y) = 0.35638 0.37184
# Poissons Ratio (z) = 0.24866 0.20246
#
# Static dielectric constant tensor:
#      x y z
#    x 2.112310 0.000000 0.000000 
#    y 0.000000 2.002420 0.000000 
#    z 0.000000 0.000000 1.929400 
# 
# From -- ./inp_files/36528.got.cif
#   From: 2010.05.17/outbox.cif.g08.bks.cpg/sg52_19_cif.got.tgz:36528.got - 2010.06.03 12:15:38.
