data_PCOD9413380
_publ_section_title
;
Structure prediction by ZEFSAII (Michael W. Deem and Ramdas Pophale) SiO2 
 PCOD9413380
Probable space group: P N N A
;
_chemical_formula_sum "Si O2"
_cell_formula_units_Z 36
_cell_length_a 13.642633
_cell_length_b 7.235160
_cell_length_c 15.166504
_cell_angle_alpha 90.000000
_cell_angle_beta 90.000000
_cell_angle_gamma 90.000000
_cell_volume 1497.034538
_symmetry_space_group_name_H-M "P N N A"
_symmetry_group_IT_number 52
_symmetry_cell_setting 'orthorhombic'
loop_
_space_group_symop_operation_xyz
x,y,z
1/2-x,-y,z
x,1/2-y,1/2-z
1/2-x,1/2+y,1/2-z
-x,-y,-z
1/2+x,y,-z
-x,1/2+y,1/2+z
1/2+x,1/2-y,1/2+z
loop_
_atom_site_type_symbol
_atom_site_label
_atom_site_fract_x
_atom_site_fract_y
_atom_site_fract_z
Si Si1 0.086748 0.250000 0.250000
Si Si2 0.119747 0.613952 0.166336
Si Si3 0.940906 0.730403 0.063276
Si Si4 0.237182 0.775832 0.000896
Si Si5 0.566018 0.635290 0.396033
O O1 0.146490 0.413901 0.204921
O O2 0.012879 0.327440 0.322265
O O3 0.116626 0.750000 0.250000
O O4 0.185030 0.697245 0.087918
O O5 0.009009 0.602143 0.123479
O O6 0.912603 0.917904 0.113664
O O7 0.839468 0.672414 0.018210
O O8 0.010044 0.806075 0.985462
O O9 0.250000 0.000000 0.016454
O O10 0.169099 0.764431 0.913426
#
# Coordination Sequence:
#
# PCOD9413380 Si02
#       5
#     4   8   8   8   8
#     4  12  24  40  66 106 142 184 238 292 354 422
#     4  11  23  43  72 102 146 188 232 298 361 416
#     4   9  18  41  69  94 135 191 234 287 355 425
#     4   9  20  40  72 102 136 188 247 292 355 434
#     4   9  19  38  65  96 138 183 231 292 352 420
#
# _framework density 24.047540000000001
#
# number of rings (size 3 to 8) (size 9 to 14) (size 15 to 20)
#    0.000    2.222    2.222    1.333    0.000    3.556 
#    4.000    4.444    0.000    0.000    0.000    0.000 
#    0.000    0.000    0.000    0.000    0.000    0.000 
#
# Total GULP energy -201194.365702 kJ/mol
# GULP energy per Si atom -5588.732381 kJ/mol
# Density = 2.399281 g / cm^3
# Si number density = 24.047540 Si / 1000 Ang^3
#
#
#
# Elastic Constant Matrix: (Units=GPa)
#
#
# Indices 1 2 3 4 5 6 
#
# 1 130.5868 28.7218 20.3703 0.0000 0.0000 0.0000
# 2 28.7218 93.3440 28.6082 0.0000 0.0000 0.0000
# 3 20.3703 28.6082 67.5798 0.0000 0.0000 0.0000
# 4 0.0000 0.0000 0.0000 33.3070 0.0000 0.0000
# 5 0.0000 0.0000 0.0000 0.0000 37.8695 0.0000
# 6 0.0000 0.0000 0.0000 0.0000 0.0000 33.9515
#
#
#
# Elastic Compliance Matrix: (Units=1/GPa)
#
#
# Indices 1 2 3 4 5 6 
#
# 1 0.008370 -0.002071 -0.001646 0.000000 0.000000 0.000000
# 2 -0.002071 0.012823 -0.004804 0.000000 0.000000 0.000000
# 3 -0.001646 -0.004804 0.017327 0.000000 0.000000 0.000000
# 4 0.000000 0.000000 0.000000 0.030024 0.000000 0.000000
# 5 0.000000 0.000000 0.000000 0.000000 0.026406 0.000000
# 6 0.000000 0.000000 0.000000 0.000000 0.000000 0.029454
#
#
# Mechanical properties :
#
#
# Convention : Reuss Voigt Hill
#
# Bulk Modulus (GPa) = 46.56008 49.65681 48.10845
# Shear Modulus (GPa) = 33.64621 35.27961 34.46291
#
# Velocity S-wave (km/s) = 3.74458 3.83440 3.78976
# Velocity P-wave (km/s) = 6.17249 6.34805 6.26089
#
# Compressibility (1/GPa) = 0.02147763
#
# Stress axis : x y z
#
# Youngs Moduli (GPa) = 119.47395 77.98748 57.71286
#
# Poissons Ratio (x) = 0.16150 0.09501
# Poissons Ratio (y) = 0.24742 0.27725
# Poissons Ratio (z) = 0.19669 0.37464
#
# Static dielectric constant tensor:
#      x y z
#    x 2.012040 0.000000 0.000000 
#    y 0.000000 1.337130 0.000000 
#    z 0.000000 0.000000 2.104950 
# 
# From -- ./inp_files/26754.got.cif
#   From: 2010.05.17/outbox.cif.g08.bks.cpg/sg52_14_cif.got.tgz:26754.got - 2010.06.03 12:15:38.
