data_PCOD9413688
_publ_section_title
;
Structure prediction by ZEFSAII (Michael W. Deem and Ramdas Pophale) SiO2 
 PCOD9413688
Probable space group: P N N A
;
_chemical_formula_sum "Si O2"
_cell_formula_units_Z 32
_cell_length_a 10.118926
_cell_length_b 9.628235
_cell_length_c 11.311708
_cell_angle_alpha 90.000000
_cell_angle_beta 90.000000
_cell_angle_gamma 90.000000
_cell_volume 1102.070271
_symmetry_space_group_name_H-M "P N N A"
_symmetry_group_IT_number 52
_symmetry_cell_setting 'orthorhombic'
loop_
_space_group_symop_operation_xyz
x,y,z
1/2-x,-y,z
x,1/2-y,1/2-z
1/2-x,1/2+y,1/2-z
-x,-y,-z
1/2+x,y,-z
-x,1/2+y,1/2+z
1/2+x,1/2-y,1/2+z
loop_
_atom_site_type_symbol
_atom_site_label
_atom_site_fract_x
_atom_site_fract_y
_atom_site_fract_z
Si Si1 0.358383 0.336904 0.019233
Si Si2 0.750000 0.500000 0.404580
Si Si3 0.095291 0.341851 0.426454
Si Si4 0.313858 0.750000 0.750000
Si Si5 0.014102 0.518026 0.811660
O O1 0.488548 0.242599 0.002200
O O2 0.370215 0.405926 0.887859
O O3 0.603258 0.534613 0.896131
O O4 0.230692 0.253773 0.068289
O O5 0.867524 0.528024 0.493397
O O6 0.583809 0.374747 0.221917
O O7 0.047866 0.394804 0.297401
O O8 0.231027 0.647429 0.662000
#
# Coordination Sequence:
#
# PCOD9413688 Si02
#       5
#     8   4   8   4   8
#     4  11  28  57  89 145 201 264 346 433 516 629
#     4  12  30  50  94 132 198 254 352 412 526 620
#     4  12  28  56  95 140 199 271 346 425 523 635
#     4  12  28  56  88 134 192 276 328 436 526 622
#     4  11  28  53  92 137 201 266 341 429 522 616
#
# _framework density 29.036262000000001
#
# number of rings (size 3 to 8) (size 9 to 14) (size 15 to 20)
#    0.000    0.500    2.500    2.250    7.000   10.000 
#    0.000    0.000    0.000    0.000    0.000    0.000 
#    0.000    0.000    0.000    0.000    0.000    0.000 
#
# Total GULP energy -178802.127501 kJ/mol
# GULP energy per Si atom -5587.566484 kJ/mol
# Density = 2.897017 g / cm^3
# Si number density = 29.036262 Si / 1000 Ang^3
#
#
#
# Elastic Constant Matrix: (Units=GPa)
#
#
# Indices 1 2 3 4 5 6 
#
# 1 218.2039 101.6389 96.5271 0.0000 0.0000 0.0000
# 2 101.6389 275.8667 104.8743 0.0000 0.0000 0.0000
# 3 96.5271 104.8743 241.3026 0.0000 0.0000 0.0000
# 4 0.0000 0.0000 0.0000 85.6892 0.0000 0.0000
# 5 0.0000 0.0000 0.0000 0.0000 13.7598 0.0000
# 6 0.0000 0.0000 0.0000 0.0000 0.0000 82.0303
#
#
#
# Elastic Compliance Matrix: (Units=1/GPa)
#
#
# Indices 1 2 3 4 5 6 
#
# 1 0.006093 -0.001579 -0.001751 0.000000 0.000000 0.000000
# 2 -0.001579 0.004752 -0.001433 0.000000 0.000000 0.000000
# 3 -0.001751 -0.001433 0.005468 0.000000 0.000000 0.000000
# 4 0.000000 0.000000 0.000000 0.011670 0.000000 0.000000
# 5 0.000000 0.000000 0.000000 0.000000 0.072675 0.000000
# 6 0.000000 0.000000 0.000000 0.000000 0.000000 0.012191
#
#
# Mechanical properties :
#
#
# Convention : Reuss Voigt Hill
#
# Bulk Modulus (GPa) = 147.38337 149.05042 148.21689
# Shear Modulus (GPa) = 40.11630 65.11805 52.61717
#
# Velocity S-wave (km/s) = 3.72101 4.74080 4.26152
# Velocity P-wave (km/s) = 8.32645 9.02279 8.68161
#
# Compressibility (1/GPa) = 0.00678503
#
# Stress axis : x y z
#
# Youngs Moduli (GPa) = 164.12087 210.44982 182.89459
#
# Poissons Ratio (x) = 0.33235 0.32025
# Poissons Ratio (y) = 0.25918 0.26217
# Poissons Ratio (z) = 0.28738 0.30167
#
# Static dielectric constant tensor:
#      x y z
#    x 2.400000 0.000000 0.000000 
#    y 0.000000 2.299190 0.000000 
#    z 0.000000 0.000000 2.716330 
# 
# From -- ./inp_files/24274.got.cif
#   From: 2010.05.17/outbox.cif.g08.bks.cpg/sg52_13_cif.got.tgz:24274.got - 2010.06.03 12:15:38.
