data_PCOD9413863
_publ_section_title
;
Structure prediction by ZEFSAII (Michael W. Deem and Ramdas Pophale) SiO2 
 PCOD9413863
Probable space group: P N N A
;
_chemical_formula_sum "Si O2"
_cell_formula_units_Z 20
_cell_length_a 11.504438
_cell_length_b 13.571464
_cell_length_c 4.853237
_cell_angle_alpha 90.000000
_cell_angle_beta 90.000000
_cell_angle_gamma 90.000000
_cell_volume 757.745920
_symmetry_space_group_name_H-M "P N N A"
_symmetry_group_IT_number 52
_symmetry_cell_setting 'orthorhombic'
loop_
_space_group_symop_operation_xyz
x,y,z
1/2-x,-y,z
x,1/2-y,1/2-z
1/2-x,1/2+y,1/2-z
-x,-y,-z
1/2+x,y,-z
-x,1/2+y,1/2+z
1/2+x,1/2-y,1/2+z
loop_
_atom_site_type_symbol
_atom_site_label
_atom_site_fract_x
_atom_site_fract_y
_atom_site_fract_z
Si Si1 0.521764 0.850522 0.419348
Si Si2 0.322693 0.750000 0.750000
Si Si3 0.164764 0.908415 0.047577
O O1 0.538821 0.750000 0.250000
O O2 0.399859 0.825717 0.566224
O O3 0.606117 0.874140 0.671177
O O4 0.563226 0.926728 0.183219
O O5 0.247197 0.679110 0.560282
O O6 0.250000 0.000000 0.086599
#
# Coordination Sequence:
#
# PCOD9413863 Si02
#       3
#     8   4   8
#     4  12  25  48  72 109 147 198 261 296 382 454
#     4  12  26  46  82 102 156 212 238 322 374 446
#     4  12  28  48  75 114 155 196 256 314 373 452
#
# _framework density 26.394072000000001
#
# number of rings (size 3 to 8) (size 9 to 14) (size 15 to 20)
#    0.000    0.000    6.000    1.200    5.600    3.200 
#    0.000    0.000    0.000    0.000    0.000    0.000 
#    0.000    0.000    0.000    0.000    0.000    0.000 
#
# Total GULP energy -112016.870556 kJ/mol
# GULP energy per Si atom -5600.843528 kJ/mol
# Density = 2.633400 g / cm^3
# Si number density = 26.394072 Si / 1000 Ang^3
#
#
#
# Elastic Constant Matrix: (Units=GPa)
#
#
# Indices 1 2 3 4 5 6 
#
# 1 92.7494 39.7710 74.5658 0.0000 0.0000 0.0000
# 2 39.7710 104.9734 53.6668 0.0000 0.0000 0.0000
# 3 74.5658 53.6668 246.6675 0.0000 0.0000 0.0000
# 4 0.0000 0.0000 0.0000 39.9852 0.0000 0.0000
# 5 0.0000 0.0000 0.0000 0.0000 38.2187 0.0000
# 6 0.0000 0.0000 0.0000 0.0000 0.0000 49.7292
#
#
#
# Elastic Compliance Matrix: (Units=1/GPa)
#
#
# Indices 1 2 3 4 5 6 
#
# 1 0.015560 -0.003927 -0.003849 0.000000 0.000000 0.000000
# 2 -0.003927 0.011710 -0.001360 0.000000 0.000000 0.000000
# 3 -0.003849 -0.001360 0.005514 0.000000 0.000000 0.000000
# 4 0.000000 0.000000 0.000000 0.025009 0.000000 0.000000
# 5 0.000000 0.000000 0.000000 0.000000 0.026165 0.000000
# 6 0.000000 0.000000 0.000000 0.000000 0.000000 0.020109
#
#
# Mechanical properties :
#
#
# Convention : Reuss Voigt Hill
#
# Bulk Modulus (GPa) = 68.92045 86.71082 77.81564
# Shear Modulus (GPa) = 39.31495 44.01239 41.66367
#
# Velocity S-wave (km/s) = 3.86364 4.08795 3.97737
# Velocity P-wave (km/s) = 6.78766 7.43004 7.11610
#
# Compressibility (1/GPa) = 0.01450948
#
# Stress axis : x y z
#
# Youngs Moduli (GPa) = 64.26529 85.39926 181.36794
#
# Poissons Ratio (x) = 0.33540 0.69815
# Poissons Ratio (y) = 0.25240 0.24674
# Poissons Ratio (z) = 0.24738 0.11618
#
# Static dielectric constant tensor:
#      x y z
#    x 2.166390 0.000000 0.000000 
#    y 0.000000 2.152320 0.000000 
#    z 0.000000 0.000000 2.034220 
# 
# From -- ./inp_files/640.got.cif
#   From: 2010.05.17/outbox.cif.g08.bks.cpg/sg52_1_cif.got.tgz:640.got - 2010.06.03 12:15:38.
