data_PCOD9413028
_publ_section_title
;
Structure prediction by ZEFSAII (Michael W. Deem and Ramdas Pophale) SiO2 
 PCOD9413028
Probable space group: P N N A
;
_chemical_formula_sum "Si O2"
_cell_formula_units_Z 64
_cell_length_a 9.373753
_cell_length_b 17.953313
_cell_length_c 20.175904
_cell_angle_alpha 90.000000
_cell_angle_beta 90.000000
_cell_angle_gamma 90.000000
_cell_volume 3395.401302
_symmetry_space_group_name_H-M "P N N A"
_symmetry_group_IT_number 52
_symmetry_cell_setting 'orthorhombic'
loop_
_space_group_symop_operation_xyz
x,y,z
1/2-x,-y,z
x,1/2-y,1/2-z
1/2-x,1/2+y,1/2-z
-x,-y,-z
1/2+x,y,-z
-x,1/2+y,1/2+z
1/2+x,1/2-y,1/2+z
loop_
_atom_site_type_symbol
_atom_site_label
_atom_site_fract_x
_atom_site_fract_y
_atom_site_fract_z
Si Si1 0.711085 0.833427 0.035967
Si Si2 0.707007 0.380011 0.323623
Si Si3 0.493332 0.482516 0.677013
Si Si4 0.788915 0.333427 0.035967
Si Si5 0.493332 0.482516 0.822987
Si Si6 0.434145 0.929964 0.460218
Si Si7 0.207007 0.119989 0.676377
Si Si8 0.565855 0.429964 0.539782
O O1 0.776658 0.832934 0.110125
O O2 0.718386 0.750000 0.008048
O O3 0.550489 0.863717 0.039943
O O4 0.796633 0.895513 0.994763
O O5 0.571441 0.434804 0.330978
O O6 0.850050 0.431281 0.323770
O O7 0.699978 0.345147 0.250000
O O8 0.558893 0.475199 0.750000
O O9 0.586046 0.457177 0.615062
O O10 0.949511 0.363717 0.039943
O O11 0.723343 0.332934 0.110125
O O12 0.703367 0.395513 0.994763
O O13 0.586046 0.457177 0.884938
O O14 0.350050 0.431281 0.823770
O O15 0.428559 0.565196 0.830978
O O16 0.500000 0.000000 0.500000
O O17 0.500000 0.500000 0.500000
#
# Coordination Sequence:
#
# PCOD9413028 Si02
#       8
#     8   8   8   8   8   8   8   8
#     4  11  22  34  51  79 111 139 171 217 268 314
#     4   8  14  27  48  75 104 130 164 212 263 307
#     4   8  14  27  50  77  99 127 173 221 251 293
#     4  11  22  34  51  79 111 139 171 217 268 314
#     4   8  14  27  50  77  99 127 173 221 251 293
#     4  11  20  35  56  78 103 140 180 215 259 315
#     4   8  14  27  48  75 104 130 164 212 263 307
#     4  11  20  35  56  78 103 140 180 215 259 315
#
# _framework density 18.849024
#
# number of rings (size 3 to 8) (size 9 to 14) (size 15 to 20)
#    0.000    2.500    2.500    3.000    0.000    0.500 
#    0.000    0.000    0.000    6.750    0.000    0.000 
#    0.000    0.000    0.000    0.000    0.000    0.000 
#
# Total GULP energy -356705.251187 kJ/mol
# GULP energy per Si atom -5573.519550 kJ/mol
# Density = 1.880612 g / cm^3
# Si number density = 18.849024 Si / 1000 Ang^3
#
#
#
# Elastic Constant Matrix: (Units=GPa)
#
#
# Indices 1 2 3 4 5 6 
#
# 1 33.8911 -0.5286 10.9913 0.0000 0.0000 0.0000
# 2 -0.5286 66.7006 4.5387 0.0000 0.0000 0.0000
# 3 10.9913 4.5387 100.6492 0.0000 0.0000 0.0000
# 4 0.0000 0.0000 0.0000 16.0094 0.0000 0.0000
# 5 0.0000 0.0000 0.0000 0.0000 21.3775 0.0000
# 6 0.0000 0.0000 0.0000 0.0000 0.0000 14.8681
#
#
#
# Elastic Compliance Matrix: (Units=1/GPa)
#
#
# Indices 1 2 3 4 5 6 
#
# 1 0.030604 0.000471 -0.003363 0.000000 0.000000 0.000000
# 2 0.000471 0.015046 -0.000730 0.000000 0.000000 0.000000
# 3 -0.003363 -0.000730 0.010336 0.000000 0.000000 0.000000
# 4 0.000000 0.000000 0.000000 0.062463 0.000000 0.000000
# 5 0.000000 0.000000 0.000000 0.000000 0.046778 0.000000
# 6 0.000000 0.000000 0.000000 0.000000 0.000000 0.067258
#
#
# Mechanical properties :
#
#
# Convention : Reuss Voigt Hill
#
# Bulk Modulus (GPa) = 20.51618 25.69373 23.10495
# Shear Modulus (GPa) = 19.53304 22.86697 21.20000
#
# Velocity S-wave (km/s) = 3.22264 3.48683 3.35733
# Velocity P-wave (km/s) = 4.97547 5.46549 5.22623
#
# Compressibility (1/GPa) = 0.04874202
#
# Stress axis : x y z
#
# Youngs Moduli (GPa) = 32.67504 66.46379 96.75193
#
# Poissons Ratio (x) = -0.03133 0.32541
# Poissons Ratio (y) = -0.01540 0.07062
# Poissons Ratio (z) = 0.10990 0.04852
#
# Static dielectric constant tensor:
#      x y z
#    x 1.633950 0.000000 0.000000 
#    y 0.000000 1.694250 0.000000 
#    z 0.000000 0.000000 1.691660 
# 
# From -- ./inp_files/36186.got.cif
#   From: 2010.05.17/outbox.cif.g08.bks.cpg/sg52_19_cif.got.tgz:36186.got - 2010.06.03 12:15:38.
