data_PCOD9413777
_publ_section_title
;
Structure prediction by ZEFSAII (Michael W. Deem and Ramdas Pophale) SiO2 
 PCOD9413777
Probable space group: P N N A
;
_chemical_formula_sum "Si O2"
_cell_formula_units_Z 32
_cell_length_a 9.716542
_cell_length_b 12.420041
_cell_length_c 11.275706
_cell_angle_alpha 90.000000
_cell_angle_beta 90.000000
_cell_angle_gamma 90.000000
_cell_volume 1360.750509
_symmetry_space_group_name_H-M "P N N A"
_symmetry_group_IT_number 52
_symmetry_cell_setting 'orthorhombic'
loop_
_space_group_symop_operation_xyz
x,y,z
1/2-x,-y,z
x,1/2-y,1/2-z
1/2-x,1/2+y,1/2-z
-x,-y,-z
1/2+x,y,-z
-x,1/2+y,1/2+z
1/2+x,1/2-y,1/2+z
loop_
_atom_site_type_symbol
_atom_site_label
_atom_site_fract_x
_atom_site_fract_y
_atom_site_fract_z
Si Si1 0.750000 0.500000 0.203683
Si Si2 0.509309 0.377977 0.771571
Si Si3 0.626962 0.161981 0.484873
Si Si4 0.250000 0.500000 0.365281
Si Si5 0.622635 0.781123 0.890087
O O1 0.632557 0.567660 0.269090
O O2 0.669135 0.416318 0.120310
O O3 0.507467 0.250000 0.750000
O O4 0.537114 0.392977 0.911608
O O5 0.637153 0.434274 0.709342
O O6 0.765115 0.206375 0.545220
O O7 0.530025 0.255573 0.434429
O O8 0.335509 0.402812 0.422191
O O9 0.629133 0.750000 0.750000
#
# Coordination Sequence:
#
# PCOD9413777 Si02
#       5
#     4   8   8   4   8
#     4  12  27  40  77 102 140 190 245 298 359 418
#     4  12  25  46  70 106 142 185 241 301 352 431
#     4  12  24  48  70 107 140 187 241 295 354 432
#     4  12  23  46  75  98 148 200 223 294 377 408
#     4  12  26  46  75 106 148 186 243 296 354 430
#
# _framework density 23.516435000000001
#
# number of rings (size 3 to 8) (size 9 to 14) (size 15 to 20)
#    0.000    0.000    7.500    3.000    0.000    4.000 
#    0.000    0.000    0.000    0.000    0.000    0.000 
#    0.000    0.000    0.000    0.000    0.000    0.000 
#
# Total GULP energy -179214.122266 kJ/mol
# GULP energy per Si atom -5600.441321 kJ/mol
# Density = 2.346291 g / cm^3
# Si number density = 23.516435 Si / 1000 Ang^3
#
#
#
# Elastic Constant Matrix: (Units=GPa)
#
#
# Indices 1 2 3 4 5 6 
#
# 1 152.1393 52.3741 22.2949 0.0000 0.0000 0.0000
# 2 52.3741 107.1051 2.6165 0.0000 0.0000 0.0000
# 3 22.2949 2.6165 40.5992 0.0000 0.0000 0.0000
# 4 0.0000 0.0000 0.0000 -12.5957 0.0000 0.0000
# 5 0.0000 0.0000 0.0000 0.0000 -15.9186 0.0000
# 6 0.0000 0.0000 0.0000 0.0000 0.0000 60.1346
#
#
#
# Elastic Compliance Matrix: (Units=1/GPa)
#
#
# Indices 1 2 3 4 5 6 
#
# 1 0.008648 -0.004119 -0.004484 0.000000 0.000000 0.000000
# 2 -0.004119 0.011314 0.001533 0.000000 0.000000 0.000000
# 3 -0.004484 0.001533 0.026994 0.000000 0.000000 0.000000
# 4 0.000000 0.000000 0.000000 -0.079392 0.000000 0.000000
# 5 0.000000 0.000000 0.000000 0.000000 -0.062820 0.000000
# 6 0.000000 0.000000 0.000000 0.000000 0.000000 0.016629
#
#
# Mechanical properties :
#
#
# Convention : Reuss Voigt Hill
#
# Bulk Modulus (GPa) = 30.47285 50.49051 40.48168
# Shear Modulus (GPa) = -93.37378 21.16129 -36.10624
#
# Velocity S-wave (km/s) = -6.30809 3.00301 -3.92262
# Velocity P-wave (km/s) = 6.33006 5.79146 1.80675
#
# Compressibility (1/GPa) = 0.03281610
#
# Stress axis : x y z
#
# Youngs Moduli (GPa) = 115.63311 88.38989 37.04481
#
# Poissons Ratio (x) = 0.36411 0.16609
# Poissons Ratio (y) = 0.47633 -0.05679
# Poissons Ratio (z) = 0.51845 -0.13550
#
# Static dielectric constant tensor:
#      x y z
#    x 1.765590 0.000000 0.000000 
#    y 0.000000 1.840890 0.000000 
#    z 0.000000 0.000000 1.900580 
# 
# From -- ./inp_files/24131.got.cif
#   From: 2010.05.17/outbox.cif.g08.bks.cpg/sg52_13_cif.got.tgz:24131.got - 2010.06.03 12:15:38.
