data_PCOD9413638
_publ_section_title
;
Structure prediction by ZEFSAII (Michael W. Deem and Ramdas Pophale) SiO2 
 PCOD9413638
Probable space group: P N N A
;
_chemical_formula_sum "Si O2"
_cell_formula_units_Z 24
_cell_length_a 9.477121
_cell_length_b 9.043613
_cell_length_c 10.733165
_cell_angle_alpha 90.000000
_cell_angle_beta 90.000000
_cell_angle_gamma 90.000000
_cell_volume 919.911823
_symmetry_space_group_name_H-M "P N N A"
_symmetry_group_IT_number 52
_symmetry_cell_setting 'orthorhombic'
loop_
_space_group_symop_operation_xyz
x,y,z
1/2-x,-y,z
x,1/2-y,1/2-z
1/2-x,1/2+y,1/2-z
-x,-y,-z
1/2+x,y,-z
-x,1/2+y,1/2+z
1/2+x,1/2-y,1/2+z
loop_
_atom_site_type_symbol
_atom_site_label
_atom_site_fract_x
_atom_site_fract_y
_atom_site_fract_z
Si Si1 0.407951 0.064340 0.615723
Si Si2 0.630178 0.599499 0.450020
Si Si3 0.378177 0.412485 0.279000
O O1 0.401899 0.240950 0.604047
O O2 0.250000 0.000000 0.609407
O O3 0.500000 0.000000 0.500000
O O4 0.490273 0.016574 0.742126
O O5 0.750000 0.500000 0.388161
O O6 0.500000 0.500000 0.500000
O O7 0.693848 0.632849 0.589075
O O8 0.250000 0.500000 0.212337
O O9 0.435820 0.250000 0.250000
#
# Coordination Sequence:
#
# PCOD9413638 Si02
#       3
#     8   8   8
#     4  12  25  46  77 107 149 197 249 310 372 440
#     4  11  26  45  71 104 145 193 249 305 372 440
#     4  11  26  46  74 105 146 196 246 301 373 444
#
# _framework density 26.089458
#
# number of rings (size 3 to 8) (size 9 to 14) (size 15 to 20)
#    0.000    0.667    3.333    3.000    9.333    1.333 
#    0.000    0.000    0.000    0.000    0.000    0.000 
#    0.000    0.000    0.000    0.000    0.000    0.000 
#
# Total GULP energy -133853.821490 kJ/mol
# GULP energy per Si atom -5577.242562 kJ/mol
# Density = 2.603008 g / cm^3
# Si number density = 26.089458 Si / 1000 Ang^3
#
#
#
# Elastic Constant Matrix: (Units=GPa)
#
#
# Indices 1 2 3 4 5 6 
#
# 1 235.8745 110.5996 20.1392 0.0000 0.0000 0.0000
# 2 110.5996 329.0769 31.6380 0.0000 0.0000 0.0000
# 3 20.1392 31.6380 89.4899 0.0000 0.0000 0.0000
# 4 0.0000 0.0000 0.0000 17.6384 0.0000 0.0000
# 5 0.0000 0.0000 0.0000 0.0000 30.5977 0.0000
# 6 0.0000 0.0000 0.0000 0.0000 0.0000 39.9041
#
#
#
# Elastic Compliance Matrix: (Units=1/GPa)
#
#
# Indices 1 2 3 4 5 6 
#
# 1 0.005059 -0.001647 -0.000556 0.000000 0.000000 0.000000
# 2 -0.001647 0.003682 -0.000931 0.000000 0.000000 0.000000
# 3 -0.000556 -0.000931 0.011629 0.000000 0.000000 0.000000
# 4 0.000000 0.000000 0.000000 0.056694 0.000000 0.000000
# 5 0.000000 0.000000 0.000000 0.000000 0.032682 0.000000
# 6 0.000000 0.000000 0.000000 0.000000 0.000000 0.025060
#
#
# Mechanical properties :
#
#
# Convention : Reuss Voigt Hill
#
# Bulk Modulus (GPa) = 70.91504 108.79944 89.85724
# Shear Modulus (GPa) = 34.29934 50.43236 42.36585
#
# Velocity S-wave (km/s) = 3.62979 4.40142 4.03410
# Velocity P-wave (km/s) = 6.69385 8.22332 7.49769
#
# Compressibility (1/GPa) = 0.01410138
#
# Stress axis : x y z
#
# Youngs Moduli (GPa) = 197.65776 271.60520 85.99344
#
# Poissons Ratio (x) = 0.44730 0.04784
# Poissons Ratio (y) = 0.32552 0.08006
# Poissons Ratio (z) = 0.10996 0.25287
#
# Static dielectric constant tensor:
#      x y z
#    x 2.066420 0.000000 0.000000 
#    y 0.000000 1.942280 0.000000 
#    z 0.000000 0.000000 1.421000 
# 
# From -- ./inp_files/23908.got.cif
#   From: 2010.05.17/outbox.cif.g08.bks.cpg/sg52_12_cif.got.tgz:23908.got - 2010.06.03 12:15:38.
