data_PCOD9413963
_publ_section_title
;
Structure prediction by ZEFSAII (Michael W. Deem and Ramdas Pophale) SiO2 
 PCOD9413963
Probable space group: P N N A
;
_chemical_formula_sum "Si O2"
_cell_formula_units_Z 40
_cell_length_a 9.000000
_cell_length_b 21.000000
_cell_length_c 12.000000
_cell_angle_alpha 90.000000
_cell_angle_beta 90.000000
_cell_angle_gamma 90.000000
_cell_volume 2268.000000
_symmetry_space_group_name_H-M "P N N A"
_symmetry_group_IT_number 52
_symmetry_cell_setting 'orthorhombic'
loop_
_space_group_symop_operation_xyz
x,y,z
1/2-x,-y,z
x,1/2-y,1/2-z
1/2-x,1/2+y,1/2-z
-x,-y,-z
1/2+x,y,-z
-x,1/2+y,1/2+z
1/2+x,1/2-y,1/2+z
loop_
_atom_site_type_symbol
_atom_site_label
_atom_site_fract_x
_atom_site_fract_y
_atom_site_fract_z
Si Si1 0.673911 0.762740 0.588592
Si Si2 0.890259 0.140176 0.773760
Si Si3 0.015934 0.774824 0.872816
Si Si4 0.398284 0.535927 0.649980
Si Si5 0.600635 0.085334 0.899137
O O1 0.639737 0.828209 0.653431
O O2 0.591434 0.703070 0.648987
O O3 0.624345 0.756994 0.461978
O O4 0.848104 0.748885 0.603232
O O5 0.748325 0.103204 0.828475
O O6 0.028291 0.092271 0.778367
O O7 0.054252 0.750000 0.750000
O O8 0.004146 0.851799 0.886752
O O9 0.250000 0.500000 0.689095
O O10 0.518591 0.478921 0.639454
O O11 0.365751 0.568897 0.528936
#
# Coordination Sequence:
#
# PCOD9413963 Si02
#       5
#     8   8   8   8   8
#     4  10  21  38  61  86 119 163 197 243 307 361
#     4  10  19  38  55  83 126 156 187 240 310 364
#     4  11  21  40  61  89 123 158 202 248 303 361
#     4  11  21  31  56  91 122 151 200 252 296 356
#     4  10  19  34  56  84 122 160 190 241 307 359
#
# _framework density 17.636683999999999
#
# number of rings (size 3 to 8) (size 9 to 14) (size 15 to 20)
#    0.000    1.600    6.000    3.000    2.800    0.000 
#    7.200    0.000    0.000    1.200    0.000    0.000 
#    0.000    0.000    0.000    0.000    0.000    0.000 
#
# Total GULP energy -223150.193075 kJ/mol
# GULP energy per Si atom -5578.754827 kJ/mol
# Density = 1.759654 g / cm^3
# Si number density = 17.636684 Si / 1000 Ang^3
#
#
#
# Elastic Constant Matrix: (Units=GPa)
#
#
# Indices 1 2 3 4 5 6 
#
# 1 37.9162 37.3565 28.9139 0.0000 0.0000 0.0000
# 2 37.3565 111.6468 45.4659 0.0000 0.0000 0.0000
# 3 28.9139 45.4659 115.0819 0.0000 0.0000 0.0000
# 4 0.0000 0.0000 0.0000 32.9012 0.0000 0.0000
# 5 0.0000 0.0000 0.0000 0.0000 21.6141 0.0000
# 6 0.0000 0.0000 0.0000 0.0000 0.0000 32.6843
#
#
#
# Elastic Compliance Matrix: (Units=1/GPa)
#
#
# Indices 1 2 3 4 5 6 
#
# 1 0.042602 -0.011793 -0.006045 0.000000 0.000000 0.000000
# 2 -0.011793 0.013939 -0.002544 0.000000 0.000000 0.000000
# 3 -0.006045 -0.002544 0.011213 0.000000 0.000000 0.000000
# 4 0.000000 0.000000 0.000000 0.030394 0.000000 0.000000
# 5 0.000000 0.000000 0.000000 0.000000 0.046266 0.000000
# 6 0.000000 0.000000 0.000000 0.000000 0.000000 0.030596
#
#
# Mechanical properties :
#
#
# Convention : Reuss Voigt Hill
#
# Bulk Modulus (GPa) = 37.04906 54.23528 45.64217
# Shear Modulus (GPa) = 22.24499 27.63383 24.93941
#
# Velocity S-wave (km/s) = 3.55532 3.96262 3.76448
# Velocity P-wave (km/s) = 6.15680 7.19407 6.69555
#
# Compressibility (1/GPa) = 0.02699124
#
# Stress axis : x y z
#
# Youngs Moduli (GPa) = 23.47295 71.74318 89.18103
#
# Poissons Ratio (x) = 0.84606 0.53906
# Poissons Ratio (y) = 0.27682 0.22686
# Poissons Ratio (z) = 0.14188 0.18250
#
# Static dielectric constant tensor:
#      x y z
#    x 1.635740 0.000000 0.000000 
#    y 0.000000 1.592510 0.000000 
#    z 0.000000 0.000000 1.604300 
# 
# From -- ./inp_files/16626.got.cif
#   From: 2010.05.17/outbox.ucp.g08.bks.cvg/sg52_9_cif.got.tgz:16626.got - 2010.06.11 16:30:12.
