data_PCOD9413680
_publ_section_title
;
Structure prediction by ZEFSAII (Michael W. Deem and Ramdas Pophale) SiO2 
 PCOD9413680
Probable space group: P N N A
;
_chemical_formula_sum "Si O2"
_cell_formula_units_Z 24
_cell_length_a 13.677565
_cell_length_b 13.232805
_cell_length_c 4.949056
_cell_angle_alpha 90.000000
_cell_angle_beta 90.000000
_cell_angle_gamma 90.000000
_cell_volume 895.742268
_symmetry_space_group_name_H-M "P N N A"
_symmetry_group_IT_number 52
_symmetry_cell_setting 'orthorhombic'
loop_
_space_group_symop_operation_xyz
x,y,z
1/2-x,-y,z
x,1/2-y,1/2-z
1/2-x,1/2+y,1/2-z
-x,-y,-z
1/2+x,y,-z
-x,1/2+y,1/2+z
1/2+x,1/2-y,1/2+z
loop_
_atom_site_type_symbol
_atom_site_label
_atom_site_fract_x
_atom_site_fract_y
_atom_site_fract_z
Si Si1 0.931597 0.154452 0.957456
Si Si2 0.397385 0.559398 0.232388
Si Si3 0.220467 0.364430 0.722664
O O1 0.931858 0.250000 0.750000
O O2 0.936425 0.054823 0.762785
O O3 0.833906 0.147920 0.141037
O O4 0.017078 0.136838 0.177857
O O5 0.322987 0.578642 0.471708
O O6 0.331149 0.580374 0.973023
O O7 0.183151 0.250000 0.750000
#
# Coordination Sequence:
#
# PCOD9413680 Si02
#       3
#     8   8   8
#     4  11  27  51  85 120 160 216 276 335 408 492
#     4  11  28  52  79 116 162 209 266 336 404 481
#     4  12  27  48  78 117 160 207 264 333 405 480
#
# _framework density 26.793420000000001
#
# number of rings (size 3 to 8) (size 9 to 14) (size 15 to 20)
#    0.000    0.667    0.000    5.000    0.000   24.000 
#    0.000    3.333    0.000    0.000    0.000    0.000 
#    0.000    0.000    0.000    0.000    0.000    0.000 
#
# Total GULP energy -134414.319577 kJ/mol
# GULP energy per Si atom -5600.596649 kJ/mol
# Density = 2.673244 g / cm^3
# Si number density = 26.793420 Si / 1000 Ang^3
#
#
#
# Elastic Constant Matrix: (Units=GPa)
#
#
# Indices 1 2 3 4 5 6 
#
# 1 226.1525 32.4609 86.1059 0.0000 0.0000 0.0000
# 2 32.4609 254.8511 104.1833 0.0000 0.0000 0.0000
# 3 86.1059 104.1833 305.4801 0.0000 0.0000 0.0000
# 4 0.0000 0.0000 0.0000 55.3954 0.0000 0.0000
# 5 0.0000 0.0000 0.0000 0.0000 104.1511 0.0000
# 6 0.0000 0.0000 0.0000 0.0000 0.0000 28.5712
#
#
#
# Elastic Compliance Matrix: (Units=1/GPa)
#
#
# Indices 1 2 3 4 5 6 
#
# 1 0.004954 -0.000070 -0.001373 0.000000 0.000000 0.000000
# 2 -0.000070 0.004561 -0.001536 0.000000 0.000000 0.000000
# 3 -0.001373 -0.001536 0.004184 0.000000 0.000000 0.000000
# 4 0.000000 0.000000 0.000000 0.018052 0.000000 0.000000
# 5 0.000000 0.000000 0.000000 0.000000 0.009601 0.000000
# 6 0.000000 0.000000 0.000000 0.000000 0.000000 0.035000
#
#
# Mechanical properties :
#
#
# Convention : Reuss Voigt Hill
#
# Bulk Modulus (GPa) = 129.15378 136.88709 133.02044
# Shear Modulus (GPa) = 58.89949 75.20577 67.05263
#
# Velocity S-wave (km/s) = 4.69367 5.30374 5.00800
# Velocity P-wave (km/s) = 8.81375 9.41844 9.12111
#
# Compressibility (1/GPa) = 0.00774271
#
# Stress axis : x y z
#
# Youngs Moduli (GPa) = 201.83816 219.27215 238.99518
#
# Poissons Ratio (x) = 0.01533 0.32806
# Poissons Ratio (y) = 0.01411 0.36701
# Poissons Ratio (z) = 0.27706 0.33673
#
# Static dielectric constant tensor:
#      x y z
#    x 2.122560 0.000000 0.000000 
#    y 0.000000 1.615920 0.000000 
#    z 0.000000 0.000000 2.008730 
# 
# From -- ./inp_files/1775.got.cif
#   From: 2010.05.17/outbox.cif.g08.bks.cpg/sg52_1_cif.got.tgz:1775.got - 2010.06.03 12:15:38.
