data_PCOD9413136
_publ_section_title
;
Structure prediction by ZEFSAII (Michael W. Deem and Ramdas Pophale) SiO2 
 PCOD9413136
Probable space group: P N N A
;
_chemical_formula_sum "Si O2"
_cell_formula_units_Z 56
_cell_length_a 15.033690
_cell_length_b 12.018489
_cell_length_c 15.489629
_cell_angle_alpha 90.000000
_cell_angle_beta 90.000000
_cell_angle_gamma 90.000000
_cell_volume 2798.700832
_symmetry_space_group_name_H-M "P N N A"
_symmetry_group_IT_number 52
_symmetry_cell_setting 'orthorhombic'
loop_
_space_group_symop_operation_xyz
x,y,z
1/2-x,-y,z
x,1/2-y,1/2-z
1/2-x,1/2+y,1/2-z
-x,-y,-z
1/2+x,y,-z
-x,1/2+y,1/2+z
1/2+x,1/2-y,1/2+z
loop_
_atom_site_type_symbol
_atom_site_label
_atom_site_fract_x
_atom_site_fract_y
_atom_site_fract_z
Si Si1 0.803326 0.600441 0.338976
Si Si2 0.883842 0.771584 0.000591
Si Si3 0.785872 0.378261 0.022186
Si Si4 0.980587 0.886048 0.246510
Si Si5 0.871894 0.281594 0.336492
Si Si6 0.482584 0.948011 0.093998
Si Si7 0.968359 0.399946 0.939829
O O1 0.750000 0.500000 0.382161
O O2 0.856500 0.663134 0.412912
O O3 0.876253 0.583743 0.265635
O O4 0.718791 0.663446 0.302856
O O5 0.904106 0.858365 0.923850
O O6 0.799786 0.690180 0.988894
O O7 0.973012 0.703987 0.025632
O O8 0.750000 0.500000 0.047485
O O9 0.837220 0.314559 0.099923
O O10 0.863262 0.385343 0.951331
O O11 0.990128 0.750000 0.250000
O O12 0.010511 0.924209 0.340528
O O13 0.026326 0.956136 0.167761
O O14 0.924328 0.250000 0.250000
O O15 0.931355 0.373461 0.383530
O O16 0.500000 0.000000 0.000000
O O17 0.000000 0.500000 0.000000
#
# Coordination Sequence:
#
# PCOD9413136 Si02
#       7
#     8   8   8   8   8   8   8
#     4  11  21  41  67 106 141 171 233 291 370 436
#     4  11  23  44  71 102 142 190 238 296 359 438
#     4  11  25  44  72 100 145 193 243 295 368 436
#     4  12  25  43  71  97 140 188 236 296 362 436
#     4  11  25  37  64 108 145 172 229 299 370 436
#     4  12  23  44  70 101 140 189 239 293 358 434
#     4  12  25  44  72 103 144 194 237 285 367 436
#
# _framework density 20.009285999999999
#
# number of rings (size 3 to 8) (size 9 to 14) (size 15 to 20)
#    0.000    0.571    7.143    0.429    4.000    0.571 
#    0.000    0.000    3.143    0.000    0.000    0.000 
#    0.000    0.000    0.000    0.000    0.000    0.000 
#
# Total GULP energy -312289.868486 kJ/mol
# GULP energy per Si atom -5576.604794 kJ/mol
# Density = 1.996374 g / cm^3
# Si number density = 20.009286 Si / 1000 Ang^3
#
#
#
# Elastic Constant Matrix: (Units=GPa)
#
#
# Indices 1 2 3 4 5 6 
#
# 1 96.3957 39.8759 36.5551 0.0000 0.0000 0.0000
# 2 39.8759 118.4632 46.4275 0.0000 0.0000 0.0000
# 3 36.5551 46.4275 121.2364 0.0000 0.0000 0.0000
# 4 0.0000 0.0000 0.0000 38.9673 0.0000 0.0000
# 5 0.0000 0.0000 0.0000 0.0000 26.2920 0.0000
# 6 0.0000 0.0000 0.0000 0.0000 0.0000 44.7042
#
#
#
# Elastic Compliance Matrix: (Units=1/GPa)
#
#
# Indices 1 2 3 4 5 6 
#
# 1 0.012703 -0.003265 -0.002580 0.000000 0.000000 0.000000
# 2 -0.003265 0.010771 -0.003140 0.000000 0.000000 0.000000
# 3 -0.002580 -0.003140 0.010229 0.000000 0.000000 0.000000
# 4 0.000000 0.000000 0.000000 0.025663 0.000000 0.000000
# 5 0.000000 0.000000 0.000000 0.000000 0.038034 0.000000
# 6 0.000000 0.000000 0.000000 0.000000 0.000000 0.022369
#
#
# Mechanical properties :
#
#
# Convention : Reuss Voigt Hill
#
# Bulk Modulus (GPa) = 63.56219 64.64582 64.10401
# Shear Modulus (GPa) = 34.96909 36.20849 35.58879
#
# Velocity S-wave (km/s) = 4.18502 4.25854 4.22194
# Velocity P-wave (km/s) = 7.42885 7.52052 7.47483
#
# Compressibility (1/GPa) = 0.01573262
#
# Stress axis : x y z
#
# Youngs Moduli (GPa) = 78.72284 92.84033 97.76262
#
# Poissons Ratio (x) = 0.30310 0.25222
# Poissons Ratio (y) = 0.25701 0.30702
# Poissons Ratio (z) = 0.20310 0.29156
#
# Static dielectric constant tensor:
#      x y z
#    x 1.705870 0.000000 0.000000 
#    y 0.000000 1.843920 0.000000 
#    z 0.000000 0.000000 1.683680 
# 
# From -- ./inp_files/27296.got.cif
#   From: 2010.05.17/outbox.cif.g08.bks.cpg/sg52_14_cif.got.tgz:27296.got - 2010.06.03 12:15:38.
