data_PCOD9413846
_publ_section_title
;
Structure prediction by ZEFSAII (Michael W. Deem and Ramdas Pophale) SiO2 
 PCOD9413846
Probable space group: P N N A
;
_chemical_formula_sum "Si O2"
_cell_formula_units_Z 40
_cell_length_a 9.280226
_cell_length_b 14.460802
_cell_length_c 10.602326
_cell_angle_alpha 90.000000
_cell_angle_beta 90.000000
_cell_angle_gamma 90.000000
_cell_volume 1422.826961
_symmetry_space_group_name_H-M "P N N A"
_symmetry_group_IT_number 52
_symmetry_cell_setting 'orthorhombic'
loop_
_space_group_symop_operation_xyz
x,y,z
1/2-x,-y,z
x,1/2-y,1/2-z
1/2-x,1/2+y,1/2-z
-x,-y,-z
1/2+x,y,-z
-x,1/2+y,1/2+z
1/2+x,1/2-y,1/2+z
loop_
_atom_site_type_symbol
_atom_site_label
_atom_site_fract_x
_atom_site_fract_y
_atom_site_fract_z
Si Si1 0.143992 0.914318 0.414997
Si Si2 0.959505 0.980527 0.203768
Si Si3 0.809318 0.143894 0.852931
Si Si4 0.881993 0.802331 0.077462
Si Si5 0.638184 0.665854 0.180101
O O1 0.093764 0.868220 0.542958
O O2 0.219293 0.858221 0.297534
O O3 0.250000 0.000000 0.443037
O O4 0.002283 0.948754 0.343772
O O5 0.641246 0.098867 0.147938
O O6 0.901524 0.081289 0.226309
O O7 0.109943 0.958009 0.129273
O O8 0.947788 0.206446 0.895362
O O9 0.678774 0.174278 0.939717
O O10 0.789480 0.718051 0.134876
O O11 0.561909 0.750000 0.250000
#
# Coordination Sequence:
#
# PCOD9413846 Si02
#       5
#     8   8   8   8   8
#     4   9  22  45  80 106 164 215 267 337 419 491
#     4   8  23  48  74 115 167 210 273 339 417 485
#     4   8  21  49  78 113 159 208 264 345 418 477
#     4   9  22  48  80 114 160 206 273 341 407 496
#     4  12  25  44  75 120 156 222 277 336 409 497
#
# _framework density 28.113046000000001
#
# number of rings (size 3 to 8) (size 9 to 14) (size 15 to 20)
#    2.400    0.000    0.000    0.600    2.800    2.400 
#   14.400    7.000    0.000    0.000    0.000    0.000 
#    0.000    0.000    0.000    0.000    0.000    0.000 
#
# Total GULP energy -222847.263197 kJ/mol
# GULP energy per Si atom -5571.181580 kJ/mol
# Density = 2.804906 g / cm^3
# Si number density = 28.113046 Si / 1000 Ang^3
#
#
#
# Elastic Constant Matrix: (Units=GPa)
#
#
# Indices 1 2 3 4 5 6 
#
# 1 86.5227 40.0575 56.0744 0.0000 0.0000 0.0000
# 2 40.0575 179.0708 51.5952 0.0000 0.0000 0.0000
# 3 56.0744 51.5952 106.4280 0.0000 0.0000 0.0000
# 4 0.0000 0.0000 0.0000 58.2365 0.0000 0.0000
# 5 0.0000 0.0000 0.0000 0.0000 -8.8480 0.0000
# 6 0.0000 0.0000 0.0000 0.0000 0.0000 -123.3972
#
#
#
# Elastic Compliance Matrix: (Units=1/GPa)
#
#
# Indices 1 2 3 4 5 6 
#
# 1 0.017888 -0.001495 -0.008700 0.000000 0.000000 0.000000
# 2 -0.001495 0.006616 -0.002420 0.000000 0.000000 0.000000
# 3 -0.008700 -0.002420 0.015153 0.000000 0.000000 0.000000
# 4 0.000000 0.000000 0.000000 0.017171 0.000000 0.000000
# 5 0.000000 0.000000 0.000000 0.000000 -0.113020 0.000000
# 6 0.000000 0.000000 0.000000 0.000000 0.000000 -0.008104
#
#
# Mechanical properties :
#
#
# Convention : Reuss Voigt Hill
#
# Bulk Modulus (GPa) = 69.31129 74.16396 71.73763
# Shear Modulus (GPa) = -145.95848 0.15123 -72.90363
#
# Velocity S-wave (km/s) = -7.21326 0.23218 -5.09790
# Velocity P-wave (km/s) = 6.68332 5.14876 3.01306
#
# Compressibility (1/GPa) = 0.01442766
#
# Stress axis : x y z
#
# Youngs Moduli (GPa) = 55.90274 151.14957 65.99330
#
# Poissons Ratio (x) = 0.22593 0.57416
# Poissons Ratio (y) = 0.08356 0.15969
# Poissons Ratio (z) = 0.48637 0.36575
#
# Static dielectric constant tensor:
#      x y z
#    x 2.322170 0.000000 0.000000 
#    y 0.000000 2.294380 0.000000 
#    z 0.000000 0.000000 2.206030 
# 
# From -- ./inp_files/16652.got.cif
#   From: 2010.05.17/outbox.cif.g08.bks.cpg/sg52_9_cif.got.tgz:16652.got - 2010.06.03 12:15:38.
