data_PCOD9413394
_publ_section_title
;
Structure prediction by ZEFSAII (Michael W. Deem and Ramdas Pophale) SiO2 
 PCOD9413394
Probable space group: P N N A
;
_chemical_formula_sum "Si O2"
_cell_formula_units_Z 32
_cell_length_a 14.096596
_cell_length_b 12.117399
_cell_length_c 7.472046
_cell_angle_alpha 90.000000
_cell_angle_beta 90.000000
_cell_angle_gamma 90.000000
_cell_volume 1276.330650
_symmetry_space_group_name_H-M "P N N A"
_symmetry_group_IT_number 52
_symmetry_cell_setting 'orthorhombic'
loop_
_space_group_symop_operation_xyz
x,y,z
1/2-x,-y,z
x,1/2-y,1/2-z
1/2-x,1/2+y,1/2-z
-x,-y,-z
1/2+x,y,-z
-x,1/2+y,1/2+z
1/2+x,1/2-y,1/2+z
loop_
_atom_site_type_symbol
_atom_site_label
_atom_site_fract_x
_atom_site_fract_y
_atom_site_fract_z
Si Si1 0.250000 0.500000 0.419942
Si Si2 0.043843 0.081216 0.146303
Si Si3 0.518865 0.824234 0.497392
Si Si4 0.612110 0.250000 0.250000
Si Si5 0.226790 0.738605 0.461208
O O1 0.154612 0.452037 0.330437
O O2 0.475616 0.704753 0.432674
O O3 0.001804 0.089015 0.343718
O O4 0.788874 0.109931 0.014674
O O5 0.000000 0.000000 0.000000
O O6 0.465700 0.841846 0.686118
O O7 0.630775 0.806440 0.513767
O O8 0.687489 0.230575 0.410439
O O9 0.248229 0.750000 0.250000
#
# Coordination Sequence:
#
# PCOD9413394 Si02
#       5
#     4   8   8   4   8
#     4  12  24  42  74 108 150 202 266 328 400 482
#     4  11  23  44  74 110 155 211 262 336 406 487
#     4  11  24  46  75 112 158 214 272 336 415 494
#     4  12  24  46  74 108 154 210 272 330 414 482
#     4  12  26  48  76 111 157 208 269 344 411 489
#
# _framework density 25.071874000000001
#
# number of rings (size 3 to 8) (size 9 to 14) (size 15 to 20)
#    0.000    0.500    6.250    3.000    0.000    0.000 
#    0.000   12.500    0.000    0.000    0.000    0.000 
#    0.000    0.000    0.000    0.000    0.000    0.000 
#
# Total GULP energy -178425.068249 kJ/mol
# GULP energy per Si atom -5575.783383 kJ/mol
# Density = 2.501481 g / cm^3
# Si number density = 25.071874 Si / 1000 Ang^3
#
#
#
# Elastic Constant Matrix: (Units=GPa)
#
#
# Indices 1 2 3 4 5 6 
#
# 1 211.8397 35.3966 108.4775 0.0000 0.0000 0.0000
# 2 35.3966 96.9454 23.5161 0.0000 0.0000 0.0000
# 3 108.4775 23.5161 179.8435 0.0000 0.0000 0.0000
# 4 0.0000 0.0000 0.0000 29.7842 0.0000 0.0000
# 5 0.0000 0.0000 0.0000 0.0000 10.6740 0.0000
# 6 0.0000 0.0000 0.0000 0.0000 0.0000 5.5929
#
#
#
# Elastic Compliance Matrix: (Units=1/GPa)
#
#
# Indices 1 2 3 4 5 6 
#
# 1 0.007061 -0.001596 -0.004051 0.000000 0.000000 0.000000
# 2 -0.001596 0.011014 -0.000478 0.000000 0.000000 0.000000
# 3 -0.004051 -0.000478 0.008066 0.000000 0.000000 0.000000
# 4 0.000000 0.000000 0.000000 0.033575 0.000000 0.000000
# 5 0.000000 0.000000 0.000000 0.000000 0.093686 0.000000
# 6 0.000000 0.000000 0.000000 0.000000 0.000000 0.178799
#
#
# Mechanical properties :
#
#
# Convention : Reuss Voigt Hill
#
# Bulk Modulus (GPa) = 71.97792 91.48990 81.73391
# Shear Modulus (GPa) = 14.32338 30.62610 22.47474
#
# Velocity S-wave (km/s) = 2.39277 3.49883 2.99726
# Velocity P-wave (km/s) = 6.03363 7.27274 6.68197
#
# Compressibility (1/GPa) = 0.01389315
#
# Stress axis : x y z
#
# Youngs Moduli (GPa) = 141.61510 90.79716 123.97581
#
# Poissons Ratio (x) = 0.14488 0.50218
# Poissons Ratio (y) = 0.22597 0.05922
# Poissons Ratio (z) = 0.57363 0.04337
#
# Static dielectric constant tensor:
#      x y z
#    x 2.029030 0.000000 0.000000 
#    y 0.000000 2.077100 0.000000 
#    z 0.000000 0.000000 2.277960 
# 
# From -- ./inp_files/9604.got.cif
#   From: 2010.05.17/outbox.cif.g08.bks.cpg/sg52_5_cif.got.tgz:9604.got - 2010.06.03 12:15:38.
