data_PCOD9413172
_publ_section_title
;
Structure prediction by ZEFSAII (Michael W. Deem and Ramdas Pophale) SiO2 
 PCOD9413172
Probable space group: P N N A
;
_chemical_formula_sum "Si O2"
_cell_formula_units_Z 48
_cell_length_a 16.689297
_cell_length_b 15.794034
_cell_length_c 9.661146
_cell_angle_alpha 90.000000
_cell_angle_beta 90.000000
_cell_angle_gamma 90.000000
_cell_volume 2546.594268
_symmetry_space_group_name_H-M "P N N A"
_symmetry_group_IT_number 52
_symmetry_cell_setting 'orthorhombic'
loop_
_space_group_symop_operation_xyz
x,y,z
1/2-x,-y,z
x,1/2-y,1/2-z
1/2-x,1/2+y,1/2-z
-x,-y,-z
1/2+x,y,-z
-x,1/2+y,1/2+z
1/2+x,1/2-y,1/2+z
loop_
_atom_site_type_symbol
_atom_site_label
_atom_site_fract_x
_atom_site_fract_y
_atom_site_fract_z
Si Si1 0.104769 0.172981 0.550521
Si Si2 0.250000 0.000000 0.116917
Si Si3 0.048855 0.469723 0.744126
Si Si4 0.763576 0.750000 0.250000
Si Si5 0.010921 0.334637 0.503867
Si Si6 0.843125 0.389692 0.395097
Si Si7 0.101208 0.090945 0.256557
O O1 0.079922 0.089734 0.634519
O O2 0.180242 0.215671 0.626497
O O3 0.035215 0.243339 0.559598
O O4 0.116972 0.146499 0.391983
O O5 0.319332 0.957068 0.207276
O O6 0.209065 0.931048 0.016571
O O7 0.027823 0.408409 0.615066
O O8 0.117225 0.534697 0.694051
O O9 0.970164 0.523286 0.783442
O O10 0.709887 0.673265 0.305040
O O11 0.066838 0.354274 0.371341
O O12 0.919192 0.340582 0.458240
#
# Coordination Sequence:
#
# PCOD9413172 Si02
#       7
#     8   4   8   4   8   8   8
#     4  12  25  44  65  98 138 167 217 280 336 385
#     4  12  20  42  64  94 134 166 216 276 332 386
#     4  11  21  46  69  94 126 178 227 259 326 405
#     4  12  26  42  64 104 136 176 216 286 344 382
#     4  11  21  45  69  94 125 178 226 265 321 404
#     4  11  24  40  71  94 127 178 226 264 328 409
#     4  11  24  39  68  96 126 173 221 269 325 398
#
# _framework density 18.848703
#
# number of rings (size 3 to 8) (size 9 to 14) (size 15 to 20)
#    0.000    0.667    5.000    4.000    4.667    1.333 
#    3.000    0.000    0.000    0.000    0.000    0.000 
#    0.000    0.000    0.000    0.000    0.000    0.000 
#
# Total GULP energy -268493.013216 kJ/mol
# GULP energy per Si atom -5593.604442 kJ/mol
# Density = 1.880580 g / cm^3
# Si number density = 18.848703 Si / 1000 Ang^3
#
#
#
# Elastic Constant Matrix: (Units=GPa)
#
#
# Indices 1 2 3 4 5 6 
#
# 1 80.9300 36.4547 26.3230 0.0000 0.0000 0.0000
# 2 36.4547 97.2462 21.9782 0.0000 0.0000 0.0000
# 3 26.3230 21.9782 80.4879 0.0000 0.0000 0.0000
# 4 0.0000 0.0000 0.0000 44.2525 0.0000 0.0000
# 5 0.0000 0.0000 0.0000 0.0000 18.5194 0.0000
# 6 0.0000 0.0000 0.0000 0.0000 0.0000 7.4516
#
#
#
# Elastic Compliance Matrix: (Units=1/GPa)
#
#
# Indices 1 2 3 4 5 6 
#
# 1 0.015890 -0.005097 -0.003805 0.000000 0.000000 0.000000
# 2 -0.005097 0.012594 -0.001772 0.000000 0.000000 0.000000
# 3 -0.003805 -0.001772 0.014153 0.000000 0.000000 0.000000
# 4 0.000000 0.000000 0.000000 0.022598 0.000000 0.000000
# 5 0.000000 0.000000 0.000000 0.000000 0.053997 0.000000
# 6 0.000000 0.000000 0.000000 0.000000 0.000000 0.134199
#
#
# Mechanical properties :
#
#
# Convention : Reuss Voigt Hill
#
# Bulk Modulus (GPa) = 46.97264 47.57510 47.27387
# Shear Modulus (GPa) = 17.73841 25.63859 21.68850
#
# Velocity S-wave (km/s) = 3.07105 3.69213 3.39582
# Velocity P-wave (km/s) = 6.12782 6.59326 6.36480
#
# Compressibility (1/GPa) = 0.02128899
#
# Stress axis : x y z
#
# Youngs Moduli (GPa) = 62.93391 79.40114 70.65881
#
# Poissons Ratio (x) = 0.40468 0.26885
# Poissons Ratio (y) = 0.32075 0.12522
# Poissons Ratio (z) = 0.23946 0.14071
#
# Static dielectric constant tensor:
#      x y z
#    x 1.622920 0.000000 0.000000 
#    y 0.000000 1.638270 0.000000 
#    z 0.000000 0.000000 1.647980 
# 
# From -- ./inp_files/12137.got.cif
#   From: 2010.05.17/outbox.cif.g08.bks.cpg/sg52_7_cif.got.tgz:12137.got - 2010.06.03 12:15:38.
