data_PCOD9414220
_publ_section_title
;
Structure prediction by ZEFSAII (Michael W. Deem and Ramdas Pophale) SiO2 
 PCOD9414220
Probable space group: P M N A
;
_chemical_formula_sum "Si O2"
_cell_formula_units_Z 40
_cell_length_a 7.782179
_cell_length_b 7.463882
_cell_length_c 31.623711
_cell_angle_alpha 90.000000
_cell_angle_beta 90.000000
_cell_angle_gamma 90.000000
_cell_volume 1836.871658
_symmetry_space_group_name_H-M "P M N A"
_symmetry_group_IT_number 53
_symmetry_cell_setting 'orthorhombic'
loop_
_space_group_symop_operation_xyz
x,y,z
1/2-x,-y,1/2+z
x,-y,-z
1/2-x,y,1/2-z
-x,-y,-z
1/2+x,y,1/2-z
-x,y,z
1/2+x,-y,1/2+z
loop_
_atom_site_type_symbol
_atom_site_label
_atom_site_fract_x
_atom_site_fract_y
_atom_site_fract_z
Si Si1 0.292972 0.277100 0.115394
Si Si2 0.307522 0.267098 0.796574
Si Si3 0.289682 0.014263 0.951835
Si Si4 0.700546 0.323881 0.294126
Si Si5 0.211203 0.688298 0.387213
O O1 0.500000 0.276304 0.114520
O O2 0.232849 0.148544 0.078178
O O3 0.240268 0.221289 0.162772
O O4 0.233956 0.482023 0.109531
O O5 0.250000 0.210250 0.750000
O O6 0.500000 0.200174 0.800169
O O7 0.301009 0.486172 0.795515
O O8 0.223912 0.231245 0.842341
O O9 0.500000 0.011598 0.952694
O O10 0.238081 0.193742 0.927123
O O11 0.230584 0.000000 0.000000
O O12 0.750000 0.232624 0.250000
O O13 0.500000 0.368281 0.293078
O O14 0.000000 0.688381 0.385541
#
# Coordination Sequence:
#
# PCOD9414220 Si02
#       5
#     8   8   8   8   8
#     4   9  17  30  48  70  98 128 157 195 240 283
#     4   9  15  25  43  68  98 128 157 191 231 277
#     4   9  17  29  47  71  96 123 159 204 248 285
#     4  10  17  27  46  71  99 129 161 194 231 280
#     4   8  15  27  43  67  97 125 155 193 236 280
#
# _framework density 21.776153999999998
#
# number of rings (size 3 to 8) (size 9 to 14) (size 15 to 20)
#    0.000    3.000    0.000    4.800    0.000    0.800 
#    0.000    5.000    0.000    9.000    0.000    5.600 
#    0.000    0.000    0.000    0.000    0.000    0.000 
#
# Total GULP energy -223047.008725 kJ/mol
# GULP energy per Si atom -5576.175218 kJ/mol
# Density = 2.172659 g / cm^3
# Si number density = 21.776154 Si / 1000 Ang^3
#
#
#
# Elastic Constant Matrix: (Units=GPa)
#
#
# Indices 1 2 3 4 5 6 
#
# 1 36.7620 -0.3670 4.7893 0.0000 0.0000 0.0000
# 2 -0.3670 82.6748 75.0662 0.0000 0.0000 0.0000
# 3 4.7893 75.0662 251.9574 0.0000 0.0000 0.0000
# 4 0.0000 0.0000 0.0000 42.9777 0.0000 0.0000
# 5 0.0000 0.0000 0.0000 0.0000 19.3016 0.0000
# 6 0.0000 0.0000 0.0000 0.0000 0.0000 3.1083
#
#
#
# Elastic Compliance Matrix: (Units=1/GPa)
#
#
# Indices 1 2 3 4 5 6 
#
# 1 0.027309 0.000812 -0.000761 0.000000 0.000000 0.000000
# 2 0.000812 0.016605 -0.004963 0.000000 0.000000 0.000000
# 3 -0.000761 -0.004963 0.005462 0.000000 0.000000 0.000000
# 4 0.000000 0.000000 0.000000 0.023268 0.000000 0.000000
# 5 0.000000 0.000000 0.000000 0.000000 0.051809 0.000000
# 6 0.000000 0.000000 0.000000 0.000000 0.000000 0.321722
#
#
# Mechanical properties :
#
#
# Convention : Reuss Voigt Hill
#
# Bulk Modulus (GPa) = 25.28227 58.93014 42.10621
# Shear Modulus (GPa) = 10.65683 32.53790 21.59737
#
# Velocity S-wave (km/s) = 2.21460 3.86968 3.15269
# Velocity P-wave (km/s) = 4.26316 6.86195 5.71231
#
# Compressibility (1/GPa) = 0.03955340
#
# Stress axis : x y z
#
# Youngs Moduli (GPa) = 36.61760 60.22238 183.08574
#
# Poissons Ratio (x) = -0.04892 0.13935
# Poissons Ratio (y) = -0.02974 0.90859
# Poissons Ratio (z) = 0.02787 0.29886
#
# Static dielectric constant tensor:
#      x y z
#    x 1.813480 0.000000 0.000000 
#    y 0.000000 1.807290 0.000000 
#    z 0.000000 0.000000 1.816050 
# 
# From -- ./inp_files/37519.got.cif
#   From: 2010.05.17/outbox.cif.g08.bks.cpg/sg53_19_cif.got.tgz:37519.got - 2010.06.03 12:45:16.
