data_PCOD9414474
_publ_section_title
;
Structure prediction by ZEFSAII (Michael W. Deem and Ramdas Pophale) SiO2 
 PCOD9414474
Probable space group: P M N A
;
_chemical_formula_sum "Si O2"
_cell_formula_units_Z 40
_cell_length_a 8.056003
_cell_length_b 15.744174
_cell_length_c 19.226761
_cell_angle_alpha 90.000000
_cell_angle_beta 90.000000
_cell_angle_gamma 90.000000
_cell_volume 2438.628404
_symmetry_space_group_name_H-M "P M N A"
_symmetry_group_IT_number 53
_symmetry_cell_setting 'orthorhombic'
loop_
_space_group_symop_operation_xyz
x,y,z
1/2-x,-y,1/2+z
x,-y,-z
1/2-x,y,1/2-z
-x,-y,-z
1/2+x,y,1/2-z
-x,y,z
1/2+x,-y,1/2+z
loop_
_atom_site_type_symbol
_atom_site_label
_atom_site_fract_x
_atom_site_fract_y
_atom_site_fract_z
Si Si1 0.684367 0.729508 0.526663
Si Si2 0.317034 0.662348 0.367170
Si Si3 0.197917 0.157303 0.677262
Si Si4 0.799076 0.092285 0.526705
Si Si5 0.500000 0.439703 0.893551
Si Si6 0.000000 0.626146 0.554942
O O1 0.500000 0.717157 0.556313
O O2 0.682892 0.689853 0.448602
O O3 0.723309 0.828914 0.515543
O O4 0.834982 0.682307 0.564746
O O5 0.500000 0.628994 0.349673
O O6 0.282813 0.750485 0.327965
O O7 0.165093 0.598065 0.358338
O O8 0.250000 0.116521 0.750000
O O9 0.244841 0.106372 0.607753
O O10 0.000000 0.169745 0.675312
O O11 0.000000 0.098841 0.521149
O O12 0.748060 0.000000 0.500000
O O13 0.500000 0.540834 0.900029
O O14 0.500000 0.404247 0.973572
#
# Coordination Sequence:
#
# PCOD9414474 Si02
#       6
#     8   8   8   8   4   4
#     4   9  16  26  41  60  85 118 153 184 227 280
#     4   9  16  27  41  59  85 117 151 182 221 274
#     4  10  18  29  45  66  93 125 157 193 236 287
#     4   9  17  30  47  65  90 127 162 198 244 292
#     4   9  16  26  40  58  84 118 147 182 221 263
#     4   9  16  26  39  58  86 116 149 184 221 264
#
# _framework density 16.402661999999999
#
# number of rings (size 3 to 8) (size 9 to 14) (size 15 to 20)
#    0.000    2.800    2.000    0.600    0.000    2.000 
#    0.000    4.000    0.000    0.000    0.000    0.000 
#    0.000    1.600    1.200    0.000    0.400    0.000 
#
# Total GULP energy -222834.944537 kJ/mol
# GULP energy per Si atom -5570.873613 kJ/mol
# Density = 1.636533 g / cm^3
# Si number density = 16.402662 Si / 1000 Ang^3
#
#
#
# Elastic Constant Matrix: (Units=GPa)
#
#
# Indices 1 2 3 4 5 6 
#
# 1 126.4260 68.7555 22.8396 0.0000 0.0000 0.0000
# 2 68.7555 109.6420 27.8105 0.0000 0.0000 0.0000
# 3 22.8396 27.8105 34.8440 0.0000 0.0000 0.0000
# 4 0.0000 0.0000 0.0000 8.0577 0.0000 0.0000
# 5 0.0000 0.0000 0.0000 0.0000 11.2216 0.0000
# 6 0.0000 0.0000 0.0000 0.0000 0.0000 5.1376
#
#
#
# Elastic Compliance Matrix: (Units=1/GPa)
#
#
# Indices 1 2 3 4 5 6 
#
# 1 0.012156 -0.007024 -0.002362 0.000000 0.000000 0.000000
# 2 -0.007024 0.015494 -0.007763 0.000000 0.000000 0.000000
# 3 -0.002362 -0.007763 0.036443 0.000000 0.000000 0.000000
# 4 0.000000 0.000000 0.000000 0.124105 0.000000 0.000000
# 5 0.000000 0.000000 0.000000 0.000000 0.089114 0.000000
# 6 0.000000 0.000000 0.000000 0.000000 0.000000 0.194645
#
#
# Mechanical properties :
#
#
# Convention : Reuss Voigt Hill
#
# Bulk Modulus (GPa) = 33.56083 56.63592 45.09837
# Shear Modulus (GPa) = 9.68641 14.98380 12.33511
#
# Velocity S-wave (km/s) = 2.43274 3.02569 2.74527
# Velocity P-wave (km/s) = 5.32879 6.84177 6.13212
#
# Compressibility (1/GPa) = 0.02979664
#
# Stress axis : x y z
#
# Youngs Moduli (GPa) = 82.26080 64.53992 27.43986
#
# Poissons Ratio (x) = 0.45333 0.06482
# Poissons Ratio (y) = 0.57781 0.21300
# Poissons Ratio (z) = 0.19431 0.50099
#
# Static dielectric constant tensor:
#      x y z
#    x 1.589690 0.000000 0.000000 
#    y 0.000000 1.525550 0.000000 
#    z 0.000000 0.000000 1.559280 
# 
# From -- ./inp_files/26017.got.cif
#   From: 2010.05.17/outbox.cif.g08.bks.cpg/sg53_14_cif.got.tgz:26017.got - 2010.06.03 12:45:16.
