data_PCOD9414497
_publ_section_title
;
Structure prediction by ZEFSAII (Michael W. Deem and Ramdas Pophale) SiO2 
 PCOD9414497
Probable space group: P M N A
;
_chemical_formula_sum "Si O2"
_cell_formula_units_Z 56
_cell_length_a 7.920542
_cell_length_b 18.023072
_cell_length_c 25.555971
_cell_angle_alpha 90.000000
_cell_angle_beta 90.000000
_cell_angle_gamma 90.000000
_cell_volume 3648.178718
_symmetry_space_group_name_H-M "P M N A"
_symmetry_group_IT_number 53
_symmetry_cell_setting 'orthorhombic'
loop_
_space_group_symop_operation_xyz
x,y,z
1/2-x,-y,1/2+z
x,-y,-z
1/2-x,y,1/2-z
-x,-y,-z
1/2+x,y,1/2-z
-x,y,z
1/2+x,-y,1/2+z
loop_
_atom_site_type_symbol
_atom_site_label
_atom_site_fract_x
_atom_site_fract_y
_atom_site_fract_z
Si Si1 0.797277 0.733292 0.308595
Si Si2 0.299460 0.565224 0.191780
Si Si3 0.189282 0.790945 0.510748
Si Si4 0.298157 0.508376 0.417812
Si Si5 0.294597 0.621469 0.505322
Si Si6 0.802960 0.145382 0.607136
Si Si7 0.000000 0.113356 0.037565
Si Si8 0.500000 0.954508 0.419497
O O1 0.750000 0.756636 0.250000
O O2 0.729753 0.649362 0.315919
O O3 0.743189 0.792425 0.351679
O O4 0.000000 0.729664 0.312491
O O5 0.250000 0.539916 0.250000
O O6 0.500000 0.569899 0.190855
O O7 0.246273 0.516150 0.142628
O O8 0.222296 0.703176 0.511224
O O9 0.199970 0.817748 0.450403
O O10 0.334223 0.835575 0.541089
O O11 0.000000 0.807389 0.529602
O O12 0.500000 0.508418 0.422346
O O13 0.239727 0.579636 0.451854
O O14 0.241739 0.434193 0.447940
O O15 0.500000 0.627014 0.504985
O O16 0.669578 0.078414 0.606437
O O17 0.000000 0.125068 0.617770
O O18 0.000000 0.043039 0.075750
O O19 0.000000 0.078421 0.978834
#
# Coordination Sequence:
#
# PCOD9414497 Si02
#       8
#     8   8   8   8   8   8   4   4
#     4   9  18  29  41  61  88 118 154 192 222 256
#     4  10  19  31  44  61  88 122 161 198 232 274
#     4  10  18  29  47  66  90 123 154 188 227 267
#     4   9  18  30  45  64  90 125 155 194 238 272
#     4   9  17  30  45  65  94 123 157 194 233 281
#     4   9  18  30  43  65  92 119 153 189 217 265
#     4   9  18  32  44  67  92 112 152 185 216 272
#     4   9  18  30  48  64  86 124 148 174 226 272
#
# _framework density 15.350123999999999
#
# number of rings (size 3 to 8) (size 9 to 14) (size 15 to 20)
#    0.000    2.714    0.714    2.143    1.000    3.429 
#    0.000    4.286    0.000    0.000    0.000    0.000 
#    0.000    1.143    0.857    0.000    0.000    0.000 
#
# Total GULP energy -312020.510071 kJ/mol
# GULP energy per Si atom -5571.794823 kJ/mol
# Density = 1.531519 g / cm^3
# Si number density = 15.350124 Si / 1000 Ang^3
#
#
#
# Elastic Constant Matrix: (Units=GPa)
#
#
# Indices 1 2 3 4 5 6 
#
# 1 66.6335 41.0707 19.1543 0.0000 0.0000 0.0000
# 2 41.0707 85.3784 28.0999 0.0000 0.0000 0.0000
# 3 19.1543 28.0999 65.5114 0.0000 0.0000 0.0000
# 4 0.0000 0.0000 0.0000 73.3294 0.0000 0.0000
# 5 0.0000 0.0000 0.0000 0.0000 15.2717 0.0000
# 6 0.0000 0.0000 0.0000 0.0000 0.0000 11.8220
#
#
#
# Elastic Compliance Matrix: (Units=1/GPa)
#
#
# Indices 1 2 3 4 5 6 
#
# 1 0.021593 -0.009675 -0.002163 0.000000 0.000000 0.000000
# 2 -0.009675 0.017973 -0.004880 0.000000 0.000000 0.000000
# 3 -0.002163 -0.004880 0.017990 0.000000 0.000000 0.000000
# 4 0.000000 0.000000 0.000000 0.013637 0.000000 0.000000
# 5 0.000000 0.000000 0.000000 0.000000 0.065481 0.000000
# 6 0.000000 0.000000 0.000000 0.000000 0.000000 0.084588
#
#
# Mechanical properties :
#
#
# Convention : Reuss Voigt Hill
#
# Bulk Modulus (GPa) = 41.46195 43.79702 42.62948
# Shear Modulus (GPa) = 19.03030 28.69785 23.86407
#
# Velocity S-wave (km/s) = 3.52483 4.32852 3.94718
# Velocity P-wave (km/s) = 6.60570 7.31952 6.97176
#
# Compressibility (1/GPa) = 0.02411850
#
# Stress axis : x y z
#
# Youngs Moduli (GPa) = 46.31193 55.63935 55.58527
#
# Poissons Ratio (x) = 0.53831 0.12025
# Poissons Ratio (y) = 0.44807 0.27128
# Poissons Ratio (z) = 0.10019 0.27154
#
# Static dielectric constant tensor:
#      x y z
#    x 1.544390 0.000000 0.000000 
#    y 0.000000 1.500490 0.000000 
#    z 0.000000 0.000000 1.486830 
# 
# From -- ./inp_files/34402.got.cif
#   From: 2010.05.17/outbox.cif.g08.bks.cpg/sg53_18_cif.got.tgz:34402.got - 2010.06.03 12:45:16.
