data_PCOD9414484
_publ_section_title
;
Structure prediction by ZEFSAII (Michael W. Deem and Ramdas Pophale) SiO2 
 PCOD9414484
Probable space group: P M N A
;
_chemical_formula_sum "Si O2"
_cell_formula_units_Z 52
_cell_length_a 9.280462
_cell_length_b 14.887923
_cell_length_c 23.307386
_cell_angle_alpha 90.000000
_cell_angle_beta 90.000000
_cell_angle_gamma 90.000000
_cell_volume 3220.307025
_symmetry_space_group_name_H-M "P M N A"
_symmetry_group_IT_number 53
_symmetry_cell_setting 'orthorhombic'
loop_
_space_group_symop_operation_xyz
x,y,z
1/2-x,-y,1/2+z
x,-y,-z
1/2-x,y,1/2-z
-x,-y,-z
1/2+x,y,1/2-z
-x,y,z
1/2+x,-y,1/2+z
loop_
_atom_site_type_symbol
_atom_site_label
_atom_site_fract_x
_atom_site_fract_y
_atom_site_fract_z
Si Si1 0.233937 0.500000 0.500000
Si Si2 0.325447 0.516593 0.688664
Si Si3 0.666304 0.184363 0.436650
Si Si4 0.169566 0.368434 0.900313
Si Si5 0.833814 0.994196 0.569848
Si Si6 0.835874 0.362269 0.401278
Si Si7 0.332725 0.172106 0.575048
O O1 0.312468 0.570182 0.457220
O O2 0.159903 0.566990 0.545547
O O3 0.250000 0.519430 0.750000
O O4 0.500000 0.520929 0.692193
O O5 0.281458 0.426200 0.654049
O O6 0.262429 0.594738 0.648260
O O7 0.500000 0.193360 0.417761
O O8 0.760948 0.270418 0.420631
O O9 0.664563 0.177708 0.505818
O O10 0.740350 0.093104 0.414590
O O11 0.230613 0.268212 0.905338
O O12 0.000000 0.355048 0.893944
O O13 0.760824 0.085833 0.591458
O O14 0.000000 0.985592 0.587678
O O15 0.832851 0.000000 0.500000
O O16 0.000000 0.347911 0.382046
O O17 0.500000 0.160548 0.593391
#
# Coordination Sequence:
#
# PCOD9414484 Si02
#       7
#     4   8   8   8   8   8   8
#     4  10  18  30  44  70 101 132 159 198 241 292
#     4  10  21  37  54  71  95 128 168 209 247 289
#     4  10  18  29  46  68  95 130 166 199 237 289
#     4   9  17  29  49  72  97 129 164 201 243 290
#     4   9  17  28  41  62  94 131 162 196 239 287
#     4  11  21  32  48  72 101 131 162 200 245 293
#     4   9  16  28  44  67  95 128 165 198 235 290
#
# _framework density 16.147528000000001
#
# number of rings (size 3 to 8) (size 9 to 14) (size 15 to 20)
#    0.000    2.308    1.538    2.308    0.000    3.692 
#    0.000    1.538    0.000    0.000    0.000    1.077 
#    0.000    2.462    0.000    0.000    0.000    0.000 
#
# Total GULP energy -289488.768724 kJ/mol
# GULP energy per Si atom -5567.091706 kJ/mol
# Density = 1.611078 g / cm^3
# Si number density = 16.147528 Si / 1000 Ang^3
#
#
#
# Elastic Constant Matrix: (Units=GPa)
#
#
# Indices 1 2 3 4 5 6 
#
# 1 93.6606 56.6373 22.9908 0.0000 0.0000 0.0000
# 2 56.6373 139.3010 21.5500 0.0000 0.0000 0.0000
# 3 22.9908 21.5500 61.6200 0.0000 0.0000 0.0000
# 4 0.0000 0.0000 0.0000 11.0590 0.0000 0.0000
# 5 0.0000 0.0000 0.0000 0.0000 13.4010 0.0000
# 6 0.0000 0.0000 0.0000 0.0000 0.0000 8.6460
#
#
#
# Elastic Compliance Matrix: (Units=1/GPa)
#
#
# Indices 1 2 3 4 5 6 
#
# 1 0.014890 -0.005492 -0.003635 0.000000 0.000000 0.000000
# 2 -0.005492 0.009615 -0.001314 0.000000 0.000000 0.000000
# 3 -0.003635 -0.001314 0.018044 0.000000 0.000000 0.000000
# 4 0.000000 0.000000 0.000000 0.090424 0.000000 0.000000
# 5 0.000000 0.000000 0.000000 0.000000 0.074621 0.000000
# 6 0.000000 0.000000 0.000000 0.000000 0.000000 0.115660
#
#
# Mechanical properties :
#
#
# Convention : Reuss Voigt Hill
#
# Bulk Modulus (GPa) = 46.14999 55.21529 50.68264
# Shear Modulus (GPa) = 14.23054 19.51478 16.87266
#
# Velocity S-wave (km/s) = 2.97186 3.48016 3.23601
# Velocity P-wave (km/s) = 6.35753 7.10051 6.73927
#
# Compressibility (1/GPa) = 0.02166848
#
# Stress axis : x y z
#
# Youngs Moduli (GPa) = 67.15925 104.00725 55.41978
#
# Poissons Ratio (x) = 0.57117 0.20145
# Poissons Ratio (y) = 0.36882 0.07279
# Poissons Ratio (z) = 0.24412 0.13662
#
# Static dielectric constant tensor:
#      x y z
#    x 1.548500 0.000000 0.000000 
#    y 0.000000 1.568560 0.000000 
#    z 0.000000 0.000000 1.512810 
# 
# From -- ./inp_files/30592.got.cif
#   From: 2010.05.17/outbox.cif.g08.bks.cpg/sg53_16_cif.got.tgz:30592.got - 2010.06.03 12:45:16.
