data_PCOD9414236
_publ_section_title
;
Structure prediction by ZEFSAII (Michael W. Deem and Ramdas Pophale) SiO2 
 PCOD9414236
Probable space group: P M N A
;
_chemical_formula_sum "Si O2"
_cell_formula_units_Z 60
_cell_length_a 21.243701
_cell_length_b 12.150523
_cell_length_c 13.456303
_cell_angle_alpha 90.000000
_cell_angle_beta 90.000000
_cell_angle_gamma 90.000000
_cell_volume 3473.368887
_symmetry_space_group_name_H-M "P M N A"
_symmetry_group_IT_number 53
_symmetry_cell_setting 'orthorhombic'
loop_
_space_group_symop_operation_xyz
x,y,z
1/2-x,-y,1/2+z
x,-y,-z
1/2-x,y,1/2-z
-x,-y,-z
1/2+x,y,1/2-z
-x,y,z
1/2+x,-y,1/2+z
loop_
_atom_site_type_symbol
_atom_site_label
_atom_site_fract_x
_atom_site_fract_y
_atom_site_fract_z
Si Si1 0.322838 0.095649 0.563359
Si Si2 0.789382 0.720001 0.903262
Si Si3 0.173533 0.778943 0.255512
Si Si4 0.741738 0.500000 0.500000
Si Si5 0.314913 0.979052 0.112713
Si Si6 0.659334 0.788276 0.803482
Si Si7 0.640736 0.582286 0.120893
Si Si8 0.074397 0.360204 0.417763
O O1 0.299818 0.189821 0.488090
O O2 0.351103 0.162043 0.655925
O O3 0.260968 0.034099 0.607523
O O4 0.357297 0.000000 0.500000
O O5 0.796020 0.598064 0.947695
O O6 0.717920 0.733594 0.863395
O O7 0.832895 0.749552 0.809518
O O8 0.250000 0.767427 0.250000
O O9 0.160836 0.864897 0.344083
O O10 0.145087 0.662328 0.285810
O O11 0.789114 0.445032 0.580598
O O12 0.332261 0.081604 0.181753
O O13 0.335999 0.000000 0.000000
O O14 0.597024 0.744547 0.855960
O O15 0.604965 0.467286 0.135401
O O16 0.604998 0.638562 0.027652
O O17 0.000000 0.370749 0.424679
#
# Coordination Sequence:
#
# PCOD9414236 Si02
#       8
#     8   8   8   4   8   8   8   8
#     4  10  18  30  45  71 110 143 171 198 246 332
#     4  11  20  31  46  75 109 144 170 210 266 329
#     4  10  20  27  47  78 108 144 171 205 256 321
#     4  10  18  32  45  70 111 136 168 208 264 322
#     4  10  17  28  45  71 108 143 170 202 250 319
#     4  11  20  31  51  74 102 144 175 213 265 314
#     4  10  18  33  49  74  99 135 176 214 262 307
#     4  10  21  37  55  72  97 139 186 225 260 308
#
# _framework density 17.274294999999999
#
# number of rings (size 3 to 8) (size 9 to 14) (size 15 to 20)
#    0.000    1.867    5.333    4.000    3.733    2.133 
#    0.000    0.000    0.000    4.400    0.000    5.133 
#    0.000    3.733    0.000    0.000    0.000    0.000 
#
# Total GULP energy -334597.544568 kJ/mol
# GULP energy per Si atom -5576.625743 kJ/mol
# Density = 1.723498 g / cm^3
# Si number density = 17.274295 Si / 1000 Ang^3
#
#
#
# Elastic Constant Matrix: (Units=GPa)
#
#
# Indices 1 2 3 4 5 6 
#
# 1 24.5000 19.0172 14.1229 0.0000 0.0000 0.0000
# 2 19.0172 97.3800 41.4941 0.0000 0.0000 0.0000
# 3 14.1229 41.4941 74.8663 0.0000 0.0000 0.0000
# 4 0.0000 0.0000 0.0000 42.1719 0.0000 0.0000
# 5 0.0000 0.0000 0.0000 0.0000 3.8744 0.0000
# 6 0.0000 0.0000 0.0000 0.0000 0.0000 4.6779
#
#
#
# Elastic Compliance Matrix: (Units=1/GPa)
#
#
# Indices 1 2 3 4 5 6 
#
# 1 0.049622 -0.007465 -0.005223 0.000000 0.000000 0.000000
# 2 -0.007465 0.014567 -0.006666 0.000000 0.000000 0.000000
# 3 -0.005223 -0.006666 0.018037 0.000000 0.000000 0.000000
# 4 0.000000 0.000000 0.000000 0.023712 0.000000 0.000000
# 5 0.000000 0.000000 0.000000 0.000000 0.258102 0.000000
# 6 0.000000 0.000000 0.000000 0.000000 0.000000 0.213769
#
#
# Mechanical properties :
#
#
# Convention : Reuss Voigt Hill
#
# Bulk Modulus (GPa) = 22.97894 38.44605 30.71249
# Shear Modulus (GPa) = 7.92365 18.28566 13.10466
#
# Velocity S-wave (km/s) = 2.14404 3.25706 2.75730
# Velocity P-wave (km/s) = 4.41140 6.03731 5.28723
#
# Compressibility (1/GPa) = 0.04351811
#
# Stress axis : x y z
#
# Youngs Moduli (GPa) = 20.15249 68.64809 55.44219
#
# Poissons Ratio (x) = 0.51245 0.28960
# Poissons Ratio (y) = 0.15043 0.36955
# Poissons Ratio (z) = 0.10526 0.45757
#
# Static dielectric constant tensor:
#      x y z
#    x 1.549560 0.000000 0.000000 
#    y 0.000000 1.617910 0.000000 
#    z 0.000000 0.000000 1.631570 
# 
# From -- ./inp_files/24451.got.cif
#   From: 2010.05.17/outbox.cif.g08.bks.cpg/sg53_13_cif.got.tgz:24451.got - 2010.06.03 12:45:16.
