data_PCOD9414958
_publ_section_title
;
Structure prediction by ZEFSAII (Michael W. Deem and Ramdas Pophale) SiO2 
 PCOD9414958
Probable space group: P M N A
;
_chemical_formula_sum "Si O2"
_cell_formula_units_Z 48
_cell_length_a 14.804903
_cell_length_b 10.210832
_cell_length_c 19.190627
_cell_angle_alpha 90.000000
_cell_angle_beta 90.000000
_cell_angle_gamma 90.000000
_cell_volume 2901.054324
_symmetry_space_group_name_H-M "P M N A"
_symmetry_group_IT_number 53
_symmetry_cell_setting 'orthorhombic'
loop_
_space_group_symop_operation_xyz
x,y,z
1/2-x,-y,1/2+z
x,-y,-z
1/2-x,y,1/2-z
-x,-y,-z
1/2+x,y,1/2-z
-x,y,z
1/2+x,-y,1/2+z
loop_
_atom_site_type_symbol
_atom_site_label
_atom_site_fract_x
_atom_site_fract_y
_atom_site_fract_z
Si Si1 0.500000 0.788518 0.726057
Si Si2 0.500000 0.788273 0.890085
Si Si3 0.304804 0.473165 0.678689
Si Si4 0.500000 0.528223 0.272109
Si Si5 0.803214 0.212441 0.176775
Si Si6 0.193483 0.617223 0.448974
Si Si7 0.000000 0.530844 0.391777
Si Si8 0.810401 0.868454 0.544449
O O1 0.500000 0.822100 0.807967
O O2 0.500000 0.630062 0.725767
O O3 0.593181 0.829400 0.689593
O O4 0.500000 0.628621 0.897513
O O5 0.589164 0.845978 0.925161
O O6 0.250000 0.456166 0.750000
O O7 0.407662 0.430624 0.691224
O O8 0.301025 0.629893 0.663308
O O9 0.255136 0.394406 0.618725
O O10 0.500000 0.563317 0.190452
O O11 0.750000 0.191857 0.250000
O O12 0.755645 0.143912 0.111245
O O13 0.220270 0.500000 0.500000
O O14 0.204946 0.749695 0.491058
O O15 0.089867 0.588952 0.426451
O O16 0.802282 0.000000 0.500000
#
# Coordination Sequence:
#
# PCOD9414958 Si02
#       8
#     4   4   8   4   8   8   4   8
#     4   9  18  30  61  89 106 142 199 241 268 330
#     4  11  18  35  59  90 116 141 185 241 290 336
#     4  10  18  33  57  86 115 147 190 236 279 340
#     4   9  18  30  54  91 117 138 189 243 284 324
#     4  10  18  35  59  84 113 147 193 234 277 341
#     4  12  21  35  57  85 116 147 185 230 292 341
#     4  11  18  32  60  90 115 146 183 239 286 346
#     4  12  25  38  55  85 123 153 186 237 290 337
#
# _framework density 16.545708000000001
#
# number of rings (size 3 to 8) (size 9 to 14) (size 15 to 20)
#    0.000    1.333    6.667    1.000    0.000    0.000 
#    0.000    2.500    0.000    0.000    0.000    0.000 
#    0.000    0.000    0.000    0.000    0.000    0.000 
#
# Total GULP energy -267899.212992 kJ/mol
# GULP energy per Si atom -5581.233604 kJ/mol
# Density = 1.650805 g / cm^3
# Si number density = 16.545708 Si / 1000 Ang^3
#
#
#
# Elastic Constant Matrix: (Units=GPa)
#
#
# Indices 1 2 3 4 5 6 
#
# 1 142.1912 39.9418 80.6383 0.0000 0.0000 0.0000
# 2 39.9418 82.7311 63.1541 0.0000 0.0000 0.0000
# 3 80.6383 63.1541 146.4667 0.0000 0.0000 0.0000
# 4 0.0000 0.0000 0.0000 -14.1813 0.0000 0.0000
# 5 0.0000 0.0000 0.0000 0.0000 32.3962 0.0000
# 6 0.0000 0.0000 0.0000 0.0000 0.0000 -0.0294
#
#
#
# Elastic Compliance Matrix: (Units=1/GPa)
#
#
# Indices 1 2 3 4 5 6 
#
# 1 0.010276 -0.000958 -0.005245 0.000000 0.000000 0.000000
# 2 -0.000958 0.018107 -0.007280 0.000000 0.000000 0.000000
# 3 -0.005245 -0.007280 0.012854 0.000000 0.000000 0.000000
# 4 0.000000 0.000000 0.000000 -0.070515 0.000000 0.000000
# 5 0.000000 0.000000 0.000000 0.000000 0.030868 0.000000
# 6 0.000000 0.000000 0.000000 0.000000 0.000000-33.995540
#
#
# Mechanical properties :
#
#
# Convention : Reuss Voigt Hill
#
# Bulk Modulus (GPa) = 70.06603 82.09527 76.08065
# Shear Modulus (GPa) = -0.14722 16.14742 8.00010
#
# Velocity S-wave (km/s) = -0.29862 3.12737 2.20128
# Velocity P-wave (km/s) = 6.50538 7.92247 7.24864
#
# Compressibility (1/GPa) = 0.01427225
#
# Stress axis : x y z
#
# Youngs Moduli (GPa) = 97.31326 55.22662 77.79594
#
# Poissons Ratio (x) = 0.05288 0.40801
# Poissons Ratio (y) = 0.09319 0.56638
# Poissons Ratio (z) = 0.51038 0.40207
#
# Static dielectric constant tensor:
#      x y z
#    x 1.565670 0.000000 0.000000 
#    y 0.000000 1.536480 0.000000 
#    z 0.000000 0.000000 1.514780 
# 
# From -- ./inp_files/28342.got.cif
#   From: 2010.05.17/outbox.cif.g08.bks.cpg/sg53_15_cif.got.tgz:28342.got - 2010.06.03 12:45:16.
