data_PCOD9414393
_publ_section_title
;
Structure prediction by ZEFSAII (Michael W. Deem and Ramdas Pophale) SiO2 
 PCOD9414393
Probable space group: P M N A
;
_chemical_formula_sum "Si O2"
_cell_formula_units_Z 64
_cell_length_a 9.262220
_cell_length_b 14.158251
_cell_length_c 33.303288
_cell_angle_alpha 90.000000
_cell_angle_beta 90.000000
_cell_angle_gamma 90.000000
_cell_volume 4367.287803
_symmetry_space_group_name_H-M "P M N A"
_symmetry_group_IT_number 53
_symmetry_cell_setting 'orthorhombic'
loop_
_space_group_symop_operation_xyz
x,y,z
1/2-x,-y,1/2+z
x,-y,-z
1/2-x,y,1/2-z
-x,-y,-z
1/2+x,y,1/2-z
-x,y,z
1/2+x,-y,1/2+z
loop_
_atom_site_type_symbol
_atom_site_label
_atom_site_fract_x
_atom_site_fract_y
_atom_site_fract_z
Si Si1 0.832948 0.496031 0.790834
Si Si2 0.672146 0.778085 0.018563
Si Si3 0.830640 0.496644 0.372875
Si Si4 0.666444 0.274041 0.289594
Si Si5 0.825343 0.438514 0.538775
Si Si6 0.828743 0.843505 0.938158
Si Si7 0.167881 0.269116 0.369559
Si Si8 0.336620 0.024716 0.952211
O O1 0.750000 0.465750 0.750000
O O2 0.755104 0.470584 0.833000
O O3 0.833381 0.610990 0.789774
O O4 0.000000 0.465268 0.790278
O O5 0.500000 0.781890 0.008317
O O6 0.705004 0.672275 0.032450
O O7 0.696151 0.863830 0.049884
O O8 0.766040 0.804244 0.980004
O O9 0.775617 0.530296 0.416698
O O10 0.824895 0.382655 0.373593
O O11 0.000000 0.523666 0.368784
O O12 0.750000 0.242998 0.250000
O O13 0.500000 0.243836 0.290607
O O14 0.756468 0.242919 0.328002
O O15 0.774276 0.500000 0.500000
O O16 0.000000 0.450185 0.539454
O O17 0.756150 0.779739 0.904528
O O18 0.000000 0.838700 0.937427
O O19 0.773828 0.951229 0.933427
O O20 0.000000 0.242181 0.370763
O O21 0.500000 0.007281 0.937668
O O22 0.336814 0.000000 0.000000
#
# Coordination Sequence:
#
# PCOD9414393 Si02
#       8
#     8   8   8   8   8   8   8   8
#     4   9  16  26  41  59  81 108 139 176 216 255
#     4   9  17  30  46  61  80 109 142 174 209 249
#     4   9  17  28  43  62  84 112 146 179 210 247
#     4   9  16  26  39  57  81 109 140 170 203 245
#     4   9  16  27  44  64  85 113 149 181 206 241
#     4  11  20  28  41  61  83 106 136 175 215 252
#     4  10  18  28  42  59  82 112 142 173 208 245
#     4   8  15  28  44  60  78 102 133 169 208 249
#
# _framework density 14.654404
#
# number of rings (size 3 to 8) (size 9 to 14) (size 15 to 20)
#    0.000    2.750    0.000    3.750    0.000    7.750 
#    0.000    0.625    0.000    1.500    0.000    0.000 
#    0.000    1.000    0.000    5.000    0.000    3.750 
#
# Total GULP energy -356279.615839 kJ/mol
# GULP energy per Si atom -5566.868997 kJ/mol
# Density = 1.462105 g / cm^3
# Si number density = 14.654404 Si / 1000 Ang^3
#
#
#
# Elastic Constant Matrix: (Units=GPa)
#
#
# Indices 1 2 3 4 5 6 
#
# 1 103.5696 33.6686 63.4313 0.0000 0.0000 0.0000
# 2 33.6686 44.2251 27.8978 0.0000 0.0000 0.0000
# 3 63.4313 27.8978 105.5809 0.0000 0.0000 0.0000
# 4 0.0000 0.0000 0.0000 -16.1408 0.0000 0.0000
# 5 0.0000 0.0000 0.0000 0.0000 23.7127 0.0000
# 6 0.0000 0.0000 0.0000 0.0000 0.0000 9.6275
#
#
#
# Elastic Compliance Matrix: (Units=1/GPa)
#
#
# Indices 1 2 3 4 5 6 
#
# 1 0.017330 -0.007951 -0.008311 0.000000 0.000000 0.000000
# 2 -0.007951 0.030782 -0.003357 0.000000 0.000000 0.000000
# 3 -0.008311 -0.003357 0.015351 0.000000 0.000000 0.000000
# 4 0.000000 0.000000 0.000000 -0.061955 0.000000 0.000000
# 5 0.000000 0.000000 0.000000 0.000000 0.042171 0.000000
# 6 0.000000 0.000000 0.000000 0.000000 0.000000 0.103869
#
#
# Mechanical properties :
#
#
# Convention : Reuss Voigt Hill
#
# Bulk Modulus (GPa) = 41.27691 55.93011 48.60351
# Shear Modulus (GPa) = 25.65931 11.99843 18.82887
#
# Velocity S-wave (km/s) = 4.18899 2.86450 3.58838
# Velocity P-wave (km/s) = 7.18505 7.01352 7.09980
#
# Compressibility (1/GPa) = 0.02422662
#
# Stress axis : x y z
#
# Youngs Moduli (GPa) = 57.70391 32.48642 65.14101
#
# Poissons Ratio (x) = 0.25829 0.54136
# Poissons Ratio (y) = 0.45879 0.21867
# Poissons Ratio (z) = 0.47956 0.10905
#
# Static dielectric constant tensor:
#      x y z
#    x 1.489190 0.000000 0.000000 
#    y 0.000000 1.483850 0.000000 
#    z 0.000000 0.000000 1.659430 
# 
# From -- ./inp_files/38522.got.cif
#   From: 2010.05.17/outbox.cif.g08.bks.cpg/sg53_20_cif.got.tgz:38522.got - 2010.06.03 12:45:16.
