data_PCOD9414859
_publ_section_title
;
Structure prediction by ZEFSAII (Michael W. Deem and Ramdas Pophale) SiO2 
 PCOD9414859
Probable space group: P M N A
;
_chemical_formula_sum "Si O2"
_cell_formula_units_Z 40
_cell_length_a 14.833666
_cell_length_b 10.389306
_cell_length_c 14.201029
_cell_angle_alpha 90.000000
_cell_angle_beta 90.000000
_cell_angle_gamma 90.000000
_cell_volume 2188.541812
_symmetry_space_group_name_H-M "P M N A"
_symmetry_group_IT_number 53
_symmetry_cell_setting 'orthorhombic'
loop_
_space_group_symop_operation_xyz
x,y,z
1/2-x,-y,1/2+z
x,-y,-z
1/2-x,y,1/2-z
-x,-y,-z
1/2+x,y,1/2-z
-x,y,z
1/2+x,-y,1/2+z
loop_
_atom_site_type_symbol
_atom_site_label
_atom_site_fract_x
_atom_site_fract_y
_atom_site_fract_z
Si Si1 0.396748 0.022537 0.613401
Si Si2 0.898928 0.606741 0.419174
Si Si3 0.150583 0.491638 0.222792
Si Si4 0.708972 0.271487 0.591961
Si Si5 0.897950 0.743622 0.900070
O O1 0.500000 0.058114 0.639149
O O2 0.326861 0.136277 0.633385
O O3 0.394141 0.000000 0.500000
O O4 0.375691 0.879317 0.650389
O O5 0.880196 0.500000 0.500000
O O6 0.896423 0.536625 0.318089
O O7 0.816250 0.707097 0.414631
O O8 0.000000 0.658832 0.435543
O O9 0.250000 0.443264 0.250000
O O10 0.168014 0.613948 0.155150
O O11 0.103728 0.377150 0.168135
O O12 0.668033 0.280842 0.487238
O O13 0.000000 0.759071 0.937910
#
# Coordination Sequence:
#
# PCOD9414859 Si02
#       5
#     8   8   8   8   8
#     4   8  16  30  49  77 111 139 159 192 255 322
#     4  10  21  36  52  71 101 141 181 219 255 294
#     4  10  20  33  51  78 106 134 172 213 254 301
#     4  10  18  32  54  80 108 134 164 208 260 309
#     4  10  19  32  54  83 110 134 162 204 261 316
#
# _framework density 18.277010000000001
#
# number of rings (size 3 to 8) (size 9 to 14) (size 15 to 20)
#    0.000    2.400    0.000    5.400    0.000    4.000 
#    0.000    3.000    0.000    5.400    0.000    2.800 
#    0.000    0.000    0.000    0.000    0.000    0.000 
#
# Total GULP energy -222956.192263 kJ/mol
# GULP energy per Si atom -5573.904807 kJ/mol
# Density = 1.823541 g / cm^3
# Si number density = 18.277010 Si / 1000 Ang^3
#
#
#
# Elastic Constant Matrix: (Units=GPa)
#
#
# Indices 1 2 3 4 5 6 
#
# 1 123.2602 63.6318 33.2323 0.0000 0.0000 0.0000
# 2 63.6318 105.1634 37.6031 0.0000 0.0000 0.0000
# 3 33.2323 37.6031 49.8219 0.0000 0.0000 0.0000
# 4 0.0000 0.0000 0.0000 -1.9804 0.0000 0.0000
# 5 0.0000 0.0000 0.0000 0.0000 867.1238 0.0000
# 6 0.0000 0.0000 0.0000 0.0000 0.0000 30.3925
#
#
#
# Elastic Compliance Matrix: (Units=1/GPa)
#
#
# Indices 1 2 3 4 5 6 
#
# 1 0.012234 -0.006142 -0.003524 0.000000 0.000000 0.000000
# 2 -0.006142 0.016108 -0.008060 0.000000 0.000000 0.000000
# 3 -0.003524 -0.008060 0.028506 0.000000 0.000000 0.000000
# 4 0.000000 0.000000 0.000000 -0.504959 0.000000 0.000000
# 5 0.000000 0.000000 0.000000 0.000000 0.001153 0.000000
# 6 0.000000 0.000000 0.000000 0.000000 0.000000 0.032903
#
#
# Mechanical properties :
#
#
# Convention : Reuss Voigt Hill
#
# Bulk Modulus (GPa) = 46.74303 60.79779 53.77041
# Shear Modulus (GPa) = -13.46002 188.69241 87.61619
#
# Velocity S-wave (km/s) = -2.71670 10.17175 6.93123
# Velocity P-wave (km/s) = 3.97363 13.08776 9.67158
#
# Compressibility (1/GPa) = 0.02139356
#
# Stress axis : x y z
#
# Youngs Moduli (GPa) = 81.73906 62.08231 35.08053
#
# Poissons Ratio (x) = 0.38133 0.12364
# Poissons Ratio (y) = 0.50206 0.28276
# Poissons Ratio (z) = 0.28809 0.50040
#
# Static dielectric constant tensor:
#      x y z
#    x 1.640340 0.000000 0.000000 
#    y 0.000000 1.660720 0.000000 
#    z 0.000000 0.000000 1.629780 
# 
# From -- ./inp_files/22415.got.cif
#   From: 2010.05.17/outbox.cif.g08.bks.cpg/sg53_12_cif.got.tgz:22415.got - 2010.06.03 12:45:16.
