data_PCOD9414069
_publ_section_title
;
Structure prediction by ZEFSAII (Michael W. Deem and Ramdas Pophale) SiO2 
 PCOD9414069
Probable space group: P M N A
;
_chemical_formula_sum "Si O2"
_cell_formula_units_Z 56
_cell_length_a 8.962912
_cell_length_b 19.132565
_cell_length_c 16.047466
_cell_angle_alpha 90.000000
_cell_angle_beta 90.000000
_cell_angle_gamma 90.000000
_cell_volume 2751.875579
_symmetry_space_group_name_H-M "P M N A"
_symmetry_group_IT_number 53
_symmetry_cell_setting 'orthorhombic'
loop_
_space_group_symop_operation_xyz
x,y,z
1/2-x,-y,1/2+z
x,-y,-z
1/2-x,y,1/2-z
-x,-y,-z
1/2+x,y,1/2-z
-x,y,z
1/2+x,-y,1/2+z
loop_
_atom_site_type_symbol
_atom_site_label
_atom_site_fract_x
_atom_site_fract_y
_atom_site_fract_z
Si Si1 0.169781 0.852953 0.369833
Si Si2 0.180651 0.006950 0.334854
Si Si3 0.181284 0.561978 0.100451
Si Si4 0.328418 0.287416 0.623568
Si Si5 0.328238 0.281975 0.419862
Si Si6 0.671099 0.858552 0.929958
Si Si7 0.678563 0.423089 0.085497
O O1 0.245436 0.780806 0.344658
O O2 0.169188 0.854107 0.470292
O O3 0.000000 0.851397 0.339521
O O4 0.238437 0.927740 0.345910
O O5 0.250000 0.034718 0.250000
O O6 0.220763 0.063878 0.404381
O O7 0.000000 0.003033 0.333079
O O8 0.224500 0.634385 0.145802
O O9 0.249362 0.489356 0.132945
O O10 0.000000 0.558583 0.094933
O O11 0.251209 0.570654 0.007731
O O12 0.500000 0.282066 0.648016
O O13 0.321519 0.284356 0.521733
O O14 0.500000 0.291831 0.396373
O O15 0.268208 0.205574 0.396346
O O16 0.230627 0.346364 0.386042
O O17 0.500000 0.849404 0.901114
O O18 0.500000 0.428596 0.082621
#
# Coordination Sequence:
#
# PCOD9414069 Si02
#       7
#     8   8   8   8   8   8   8
#     4   9  17  30  49  69  90 119 155 193 231 272
#     4  10  21  35  50  70  95 122 151 187 233 280
#     4   9  15  23  33  49  79 116 150 185 226 269
#     4   8  15  25  38  58  84 114 148 186 227 270
#     4   9  16  26  39  58  85 115 148 186 229 273
#     4   9  17  31  50  69  90 118 155 195 231 271
#     4  10  16  21  32  52  79 114 153 186 221 267
#
# _framework density 20.349757
#
# number of rings (size 3 to 8) (size 9 to 14) (size 15 to 20)
#    0.000    2.857    0.000    4.286    0.000    6.857 
#    0.000    0.000    0.000    4.286    0.000    0.000 
#    0.000    1.143    0.000    5.714    0.000    8.429 
#
# Total GULP energy -311961.323582 kJ/mol
# GULP energy per Si atom -5570.737921 kJ/mol
# Density = 2.030344 g / cm^3
# Si number density = 20.349757 Si / 1000 Ang^3
#
#
#
# Elastic Constant Matrix: (Units=GPa)
#
#
# Indices 1 2 3 4 5 6 
#
# 1 72.8738 61.9838 11.3073 0.0000 0.0000 0.0000
# 2 61.9838 180.8979 27.0588 0.0000 0.0000 0.0000
# 3 11.3073 27.0588 14.1657 0.0000 0.0000 0.0000
# 4 0.0000 0.0000 0.0000 -17.2657 0.0000 0.0000
# 5 0.0000 0.0000 0.0000 0.0000 20.9083 0.0000
# 6 0.0000 0.0000 0.0000 0.0000 0.0000 29.2509
#
#
#
# Elastic Compliance Matrix: (Units=1/GPa)
#
#
# Indices 1 2 3 4 5 6 
#
# 1 0.019521 -0.006101 -0.003928 0.000000 0.000000 0.000000
# 2 -0.006101 0.009646 -0.013556 0.000000 0.000000 0.000000
# 3 -0.003928 -0.013556 0.099622 0.000000 0.000000 0.000000
# 4 0.000000 0.000000 0.000000 -0.057918 0.000000 0.000000
# 5 0.000000 0.000000 0.000000 0.000000 0.047828 0.000000
# 6 0.000000 0.000000 0.000000 0.000000 0.000000 0.034187
#
#
# Mechanical properties :
#
#
# Convention : Reuss Voigt Hill
#
# Bulk Modulus (GPa) = 12.25187 52.07079 32.16133
# Shear Modulus (GPa) = 22.00100 17.75121 19.87610
#
# Velocity S-wave (km/s) = 3.29164 2.95669 3.12865
# Velocity P-wave (km/s) = 4.52551 6.10733 5.37493
#
# Compressibility (1/GPa) = 0.08162022
#
# Stress axis : x y z
#
# Youngs Moduli (GPa) = 51.22576 103.66685 10.03794
#
# Poissons Ratio (x) = 0.63252 0.03942
# Poissons Ratio (y) = 0.31255 0.13607
# Poissons Ratio (z) = 0.20119 1.40528
#
# Static dielectric constant tensor:
#      x y z
#    x 1.704020 0.000000 0.000000 
#    y 0.000000 1.782110 0.000000 
#    z 0.000000 0.000000 1.665790 
# 
# From -- ./inp_files/31069.got.cif
#   From: 2010.05.17/outbox.cif.g08.bks.cpg/sg53_16_cif.got.tgz:31069.got - 2010.06.03 12:45:16.
