data_PCOD9414749
_publ_section_title
;
Structure prediction by ZEFSAII (Michael W. Deem and Ramdas Pophale) SiO2 
 PCOD9414749
Probable space group: P M N A
;
_chemical_formula_sum "Si O2"
_cell_formula_units_Z 64
_cell_length_a 8.132553
_cell_length_b 12.445530
_cell_length_c 33.084555
_cell_angle_alpha 90.000000
_cell_angle_beta 90.000000
_cell_angle_gamma 90.000000
_cell_volume 3348.617911
_symmetry_space_group_name_H-M "P M N A"
_symmetry_group_IT_number 53
_symmetry_cell_setting 'orthorhombic'
loop_
_space_group_symop_operation_xyz
x,y,z
1/2-x,-y,1/2+z
x,-y,-z
1/2-x,y,1/2-z
-x,-y,-z
1/2+x,y,1/2-z
-x,y,z
1/2+x,-y,1/2+z
loop_
_atom_site_type_symbol
_atom_site_label
_atom_site_fract_x
_atom_site_fract_y
_atom_site_fract_z
Si Si1 0.195544 0.310031 0.794575
Si Si2 0.699909 0.735944 0.921956
Si Si3 0.700544 0.861315 0.085436
Si Si4 0.197513 0.072417 0.370490
Si Si5 0.196379 0.936798 0.205508
Si Si6 0.303999 0.353694 0.878823
Si Si7 0.194304 0.495640 0.047230
Si Si8 0.199753 0.877887 0.502476
O O1 0.250000 0.347940 0.750000
O O2 0.261694 0.186386 0.799234
O O3 0.246281 0.380806 0.833426
O O4 0.000000 0.304016 0.794298
O O5 0.500000 0.725818 0.921263
O O6 0.752782 0.808053 0.883297
O O7 0.769446 0.619690 0.932265
O O8 0.752533 0.810317 0.959564
O O9 0.500000 0.863915 0.086903
O O10 0.761668 0.767374 0.114039
O O11 0.755971 0.979937 0.098053
O O12 0.746822 0.828594 0.040274
O O13 0.000000 0.075632 0.373802
O O14 0.241618 0.020680 0.327737
O O15 0.250000 0.971738 0.250000
O O16 0.000000 0.932788 0.202764
O O17 0.500000 0.351255 0.877432
O O18 0.259138 0.421353 0.918753
O O19 0.000000 0.513009 0.044245
O O20 0.258970 0.500000 0.000000
O O21 0.000000 0.881512 0.504882
O O22 0.257337 0.000000 0.500000
#
# Coordination Sequence:
#
# PCOD9414749 Si02
#       8
#     8   8   8   8   8   8   8   8
#     4  10  20  34  54  84 120 155 191 233 286 343
#     4  10  20  34  57  83 109 143 188 235 278 333
#     4   9  16  26  45  77 111 141 173 219 273 325
#     4  10  18  31  52  81 115 145 179 226 280 337
#     4  10  20  33  52  79 115 156 190 226 273 336
#     4  11  21  35  59  85 112 148 193 241 289 343
#     4  11  25  43  59  77 111 156 200 247 297 347
#     4   9  14  24  44  74 107 136 170 216 266 314
#
# _framework density 19.112361
#
# number of rings (size 3 to 8) (size 9 to 14) (size 15 to 20)
#    0.000    2.000    2.500    2.250    0.000    3.500 
#    0.000    0.000    0.000    1.125    0.000    1.750 
#    0.000    0.000    0.000    0.000    0.000    0.000 
#
# Total GULP energy -356554.261173 kJ/mol
# GULP energy per Si atom -5571.160331 kJ/mol
# Density = 1.906886 g / cm^3
# Si number density = 19.112361 Si / 1000 Ang^3
#
#
#
# Elastic Constant Matrix: (Units=GPa)
#
#
# Indices 1 2 3 4 5 6 
#
# 1 26.4255 6.1511 13.1501 0.0000 0.0000 0.0000
# 2 6.1511 67.0445 33.6532 0.0000 0.0000 0.0000
# 3 13.1501 33.6532 138.7239 0.0000 0.0000 0.0000
# 4 0.0000 0.0000 0.0000 32.3039 0.0000 0.0000
# 5 0.0000 0.0000 0.0000 0.0000 23.1778 0.0000
# 6 0.0000 0.0000 0.0000 0.0000 0.0000 12.0907
#
#
#
# Elastic Compliance Matrix: (Units=1/GPa)
#
#
# Indices 1 2 3 4 5 6 
#
# 1 0.039952 -0.002009 -0.003300 0.000000 0.000000 0.000000
# 2 -0.002009 0.017085 -0.003954 0.000000 0.000000 0.000000
# 3 -0.003300 -0.003954 0.008481 0.000000 0.000000 0.000000
# 4 0.000000 0.000000 0.000000 0.030956 0.000000 0.000000
# 5 0.000000 0.000000 0.000000 0.000000 0.043145 0.000000
# 6 0.000000 0.000000 0.000000 0.000000 0.000000 0.082708
#
#
# Mechanical properties :
#
#
# Convention : Reuss Voigt Hill
#
# Bulk Modulus (GPa) = 21.28060 37.56696 29.42378
# Shear Modulus (GPa) = 19.49195 25.46377 22.47786
#
# Velocity S-wave (km/s) = 3.19699 3.65406 3.43314
# Velocity P-wave (km/s) = 4.97858 6.12383 5.58067
#
# Compressibility (1/GPa) = 0.04699115
#
# Stress axis : x y z
#
# Youngs Moduli (GPa) = 25.03001 58.53237 117.91620
#
# Poissons Ratio (x) = 0.11760 0.38910
# Poissons Ratio (y) = 0.05029 0.46625
# Poissons Ratio (z) = 0.08259 0.23144
#
# Static dielectric constant tensor:
#      x y z
#    x 1.678750 0.000000 0.000000 
#    y 0.000000 1.682160 0.000000 
#    z 0.000000 0.000000 1.708770 
# 
# From -- ./inp_files/38230.got.cif
#   From: 2010.05.17/outbox.cif.g08.bks.cpg/sg53_20_cif.got.tgz:38230.got - 2010.06.03 12:45:16.
