data_PCOD9414416
_publ_section_title
;
Structure prediction by ZEFSAII (Michael W. Deem and Ramdas Pophale) SiO2 
 PCOD9414416
Probable space group: P M N A
;
_chemical_formula_sum "Si O2"
_cell_formula_units_Z 56
_cell_length_a 8.612081
_cell_length_b 19.735570
_cell_length_c 18.892399
_cell_angle_alpha 90.000000
_cell_angle_beta 90.000000
_cell_angle_gamma 90.000000
_cell_volume 3211.033889
_symmetry_space_group_name_H-M "P M N A"
_symmetry_group_IT_number 53
_symmetry_cell_setting 'orthorhombic'
loop_
_space_group_symop_operation_xyz
x,y,z
1/2-x,-y,1/2+z
x,-y,-z
1/2-x,y,1/2-z
-x,-y,-z
1/2+x,y,1/2-z
-x,y,z
1/2+x,-y,1/2+z
loop_
_atom_site_type_symbol
_atom_site_label
_atom_site_fract_x
_atom_site_fract_y
_atom_site_fract_z
Si Si1 0.185832 0.362972 0.827527
Si Si2 0.185874 0.055241 0.330264
Si Si3 0.812085 0.428422 0.532517
Si Si4 0.187251 0.290456 0.459524
Si Si5 0.312787 0.794737 0.829273
Si Si6 0.687292 0.223727 0.597998
Si Si7 0.686150 0.915600 0.330036
O O1 0.250000 0.378621 0.750000
O O2 0.248218 0.411645 0.889579
O O3 0.232989 0.286341 0.850773
O O4 0.000000 0.365879 0.826490
O O5 0.250000 0.056101 0.250000
O O6 0.229005 0.129866 0.358153
O O7 0.000000 0.049588 0.329198
O O8 0.255045 0.986656 0.362496
O O9 0.762194 0.500000 0.500000
O O10 0.762662 0.365845 0.482148
O O11 0.000000 0.428240 0.536297
O O12 0.241603 0.262147 0.384161
O O13 0.244056 0.241244 0.521764
O O14 0.000000 0.290093 0.458786
O O15 0.250000 0.786625 0.750000
O O16 0.500000 0.792862 0.825268
O O17 0.500000 0.223980 0.593733
O O18 0.737178 0.151203 0.627898
O O19 0.750000 0.910579 0.250000
O O20 0.500000 0.917038 0.326971
#
# Coordination Sequence:
#
# PCOD9414416 Si02
#       7
#     8   8   8   8   8   8   8
#     4  10  19  32  51  75 102 131 166 202 236 280
#     4   9  16  27  43  63  88 118 154 194 236 279
#     4   9  18  34  55  76 101 132 161 194 240 290
#     4   9  18  33  52  72  94 122 157 193 233 285
#     4   9  18  32  50  71  92 118 155 198 239 280
#     4   9  19  32  46  68  97 127 159 196 236 280
#     4  10  18  28  43  65  93 123 158 197 236 279
#
# _framework density 17.439867
#
# number of rings (size 3 to 8) (size 9 to 14) (size 15 to 20)
#    0.000    2.714    0.000    2.571    0.000    3.143 
#    0.000    1.429    0.000    6.000    0.000    0.000 
#    0.000    0.000    0.000    0.000    0.000    0.000 
#
# Total GULP energy -312056.348012 kJ/mol
# GULP energy per Si atom -5572.434786 kJ/mol
# Density = 1.740017 g / cm^3
# Si number density = 17.439867 Si / 1000 Ang^3
#
#
#
# Elastic Constant Matrix: (Units=GPa)
#
#
# Indices 1 2 3 4 5 6 
#
# 1 21.5537 29.9840 21.6819 0.0000 0.0000 0.0000
# 2 29.9840 136.9989 91.0237 0.0000 0.0000 0.0000
# 3 21.6819 91.0237 111.5211 0.0000 0.0000 0.0000
# 4 0.0000 0.0000 0.0000 24.2246 0.0000 0.0000
# 5 0.0000 0.0000 0.0000 0.0000 22.5858 0.0000
# 6 0.0000 0.0000 0.0000 0.0000 0.0000 19.9823
#
#
#
# Elastic Compliance Matrix: (Units=1/GPa)
#
#
# Indices 1 2 3 4 5 6 
#
# 1 0.066977 -0.013124 -0.002310 0.000000 0.000000 0.000000
# 2 -0.013124 0.018519 -0.012564 0.000000 0.000000 0.000000
# 3 -0.002310 -0.012564 0.019671 0.000000 0.000000 0.000000
# 4 0.000000 0.000000 0.000000 0.041280 0.000000 0.000000
# 5 0.000000 0.000000 0.000000 0.000000 0.044276 0.000000
# 6 0.000000 0.000000 0.000000 0.000000 0.000000 0.050044
#
#
# Mechanical properties :
#
#
# Convention : Reuss Voigt Hill
#
# Bulk Modulus (GPa) = 20.33711 61.71696 41.02704
# Shear Modulus (GPa) = 15.96667 21.85083 18.90875
#
# Velocity S-wave (km/s) = 3.02905 3.54351 3.29633
# Velocity P-wave (km/s) = 4.89082 7.22545 6.16957
#
# Compressibility (1/GPa) = 0.04917119
#
# Stress axis : x y z
#
# Youngs Moduli (GPa) = 14.93059 53.99768 50.83724
#
# Poissons Ratio (x) = 0.70867 0.11741
# Poissons Ratio (y) = 0.19595 0.63871
# Poissons Ratio (z) = 0.03448 0.67842
#
# Static dielectric constant tensor:
#      x y z
#    x 1.601450 0.000000 0.000000 
#    y 0.000000 1.624960 0.000000 
#    z 0.000000 0.000000 1.561410 
# 
# From -- ./inp_files/26722.got.cif
#   From: 2010.05.17/outbox.cif.g08.bks.cpg/sg53_14_cif.got.tgz:26722.got - 2010.06.03 12:45:16.
