data_PCOD9414612
_publ_section_title
;
Structure prediction by ZEFSAII (Michael W. Deem and Ramdas Pophale) SiO2 
 PCOD9414612
Probable space group: P M N A
;
_chemical_formula_sum "Si O2"
_cell_formula_units_Z 48
_cell_length_a 8.893855
_cell_length_b 9.859628
_cell_length_c 32.240384
_cell_angle_alpha 90.000000
_cell_angle_beta 90.000000
_cell_angle_gamma 90.000000
_cell_volume 2827.162555
_symmetry_space_group_name_H-M "P M N A"
_symmetry_group_IT_number 53
_symmetry_cell_setting 'orthorhombic'
loop_
_space_group_symop_operation_xyz
x,y,z
1/2-x,-y,1/2+z
x,-y,-z
1/2-x,y,1/2-z
-x,-y,-z
1/2+x,y,1/2-z
-x,y,z
1/2+x,-y,1/2+z
loop_
_atom_site_type_symbol
_atom_site_label
_atom_site_fract_x
_atom_site_fract_y
_atom_site_fract_z
Si Si1 0.317909 0.651476 0.952671
Si Si2 0.181744 0.149371 0.882871
Si Si3 0.817807 0.336914 0.546635
Si Si4 0.681132 0.850162 0.879225
Si Si5 0.826029 0.160143 0.207312
Si Si6 0.172427 0.170299 0.792061
O O1 0.500000 0.653028 0.952787
O O2 0.275620 0.494508 0.946337
O O3 0.268911 0.749563 0.915874
O O4 0.273088 0.695798 0.999080
O O5 0.240400 0.241467 0.919993
O O6 0.232932 0.206689 0.837675
O O7 0.000000 0.141444 0.882222
O O8 0.249076 0.998580 0.886663
O O9 0.000000 0.325387 0.549773
O O10 0.500000 0.859566 0.878920
O O11 0.738366 0.800591 0.834317
O O12 0.750000 0.207175 0.250000
O O13 0.000000 0.200927 0.205198
O O14 0.822782 0.994795 0.208261
O O15 0.250000 0.218212 0.750000
O O16 0.000000 0.212871 0.790157
#
# Coordination Sequence:
#
# PCOD9414612 Si02
#       6
#     8   8   8   8   8   8
#     4   8  17  33  53  73  93 120 162 205 241 287
#     4  10  20  32  45  71 104 128 155 198 243 287
#     4   9  17  34  55  71  90 124 164 201 240 290
#     4  10  18  30  49  73  98 127 160 199 243 285
#     4   9  16  27  43  67  97 128 159 195 235 281
#     4   8  15  26  41  61  90 121 151 186 226 270
#
# _framework density 16.978154
#
# number of rings (size 3 to 8) (size 9 to 14) (size 15 to 20)
#    0.000    3.000    0.000    3.500    0.000    5.333 
#    0.000    8.333    0.000    1.000    0.000    2.333 
#    0.000    0.000    0.000    0.000    0.000    0.000 
#
# Total GULP energy -267305.628010 kJ/mol
# GULP energy per Si atom -5568.867250 kJ/mol
# Density = 1.693951 g / cm^3
# Si number density = 16.978154 Si / 1000 Ang^3
#
#
#
# Elastic Constant Matrix: (Units=GPa)
#
#
# Indices 1 2 3 4 5 6 
#
# 1 58.2383 26.8756 58.5790 0.0000 0.0000 0.0000
# 2 26.8756 46.5955 80.2567 0.0000 0.0000 0.0000
# 3 58.5790 80.2567 204.3058 0.0000 0.0000 0.0000
# 4 0.0000 0.0000 0.0000 -9.8202 0.0000 0.0000
# 5 0.0000 0.0000 0.0000 0.0000 32.2235 0.0000
# 6 0.0000 0.0000 0.0000 0.0000 0.0000 -3.2562
#
#
#
# Elastic Compliance Matrix: (Units=1/GPa)
#
#
# Indices 1 2 3 4 5 6 
#
# 1 0.024721 -0.006339 -0.004598 0.000000 0.000000 0.000000
# 2 -0.006339 0.067989 -0.024890 0.000000 0.000000 0.000000
# 3 -0.004598 -0.024890 0.015990 0.000000 0.000000 0.000000
# 4 0.000000 0.000000 0.000000 -0.101831 0.000000 0.000000
# 5 0.000000 0.000000 0.000000 0.000000 0.031033 0.000000
# 6 0.000000 0.000000 0.000000 0.000000 0.000000 -0.307104
#
#
# Mechanical properties :
#
#
# Convention : Reuss Voigt Hill
#
# Bulk Modulus (GPa) = 26.99377 71.17357 49.08367
# Shear Modulus (GPa) = -26.99814 13.39130 -6.80342
#
# Velocity S-wave (km/s) = -3.99202 2.81149 -2.00396
# Velocity P-wave (km/s) = 2.30535 7.24921 4.85985
#
# Compressibility (1/GPa) = 0.03704559
#
# Stress axis : x y z
#
# Youngs Moduli (GPa) = 40.45149 14.70824 62.53731
#
# Poissons Ratio (x) = 0.09324 0.28753
# Poissons Ratio (y) = 0.25644 1.55657
# Poissons Ratio (z) = 0.18599 0.36609
#
# Static dielectric constant tensor:
#      x y z
#    x 1.573560 0.000000 0.000000 
#    y 0.000000 1.549600 0.000000 
#    z 0.000000 0.000000 1.595830 
# 
# From -- ./inp_files/36167.got.cif
#   From: 2010.05.17/outbox.cif.g08.bks.cpg/sg53_19_cif.got.tgz:36167.got - 2010.06.03 12:45:16.
