data_PCOD9414582
_publ_section_title
;
Structure prediction by ZEFSAII (Michael W. Deem and Ramdas Pophale) SiO2 
 PCOD9414582
Probable space group: P M N A
;
_chemical_formula_sum "Si O2"
_cell_formula_units_Z 40
_cell_length_a 10.285478
_cell_length_b 25.566958
_cell_length_c 8.566036
_cell_angle_alpha 90.000000
_cell_angle_beta 90.000000
_cell_angle_gamma 90.000000
_cell_volume 2252.596645
_symmetry_space_group_name_H-M "P M N A"
_symmetry_group_IT_number 53
_symmetry_cell_setting 'orthorhombic'
loop_
_space_group_symop_operation_xyz
x,y,z
1/2-x,-y,1/2+z
x,-y,-z
1/2-x,y,1/2-z
-x,-y,-z
1/2+x,y,1/2-z
-x,y,z
1/2+x,-y,1/2+z
loop_
_atom_site_type_symbol
_atom_site_label
_atom_site_fract_x
_atom_site_fract_y
_atom_site_fract_z
Si Si1 0.350623 0.550266 0.889045
Si Si2 0.746225 0.875702 0.058711
Si Si3 0.500000 0.057471 0.933558
Si Si4 0.000000 0.060174 0.943649
Si Si5 0.849749 0.349983 0.606935
Si Si6 0.344687 0.766618 0.098888
O O1 0.250000 0.546820 0.750000
O O2 0.500000 0.550961 0.832271
O O3 0.336292 0.500000 0.000000
O O4 0.328521 0.603017 0.987629
O O5 0.750000 0.873845 0.250000
O O6 0.626304 0.911613 0.012794
O O7 0.875631 0.905412 0.007345
O O8 0.714221 0.816367 0.008120
O O9 0.500000 0.056990 0.745089
O O10 0.500000 0.000000 0.000000
O O11 0.000000 0.000000 0.000000
O O12 0.750000 0.354544 0.750000
O O13 0.837138 0.292016 0.531576
O O14 0.000000 0.353463 0.663579
O O15 0.250000 0.763241 0.250000
O O16 0.500000 0.777093 0.133531
#
# Coordination Sequence:
#
# PCOD9414582 Si02
#       6
#     8   8   4   4   8   8
#     4  10  21  36  55  79 109 144 180 219 259 304
#     4   9  17  28  45  68  92 121 154 197 241 288
#     4  10  18  30  48  68  88 118 159 192 235 292
#     4  10  20  32  46  66  96 122 151 198 245 286
#     4   9  18  32  51  78 108 135 170 215 261 308
#     4   9  16  27  46  72  99 126 159 204 248 291
#
# _framework density 17.757283999999999
#
# number of rings (size 3 to 8) (size 9 to 14) (size 15 to 20)
#    0.000    2.600    1.000    1.200    4.200    1.200 
#    0.000    0.000    0.000    2.400    0.000    0.000 
#    0.000    0.000    0.000    0.000    0.000    0.000 
#
# Total GULP energy -222705.978095 kJ/mol
# GULP energy per Si atom -5567.649452 kJ/mol
# Density = 1.771687 g / cm^3
# Si number density = 17.757284 Si / 1000 Ang^3
#
#
#
# Elastic Constant Matrix: (Units=GPa)
#
#
# Indices 1 2 3 4 5 6 
#
# 1 157.6220 89.4413 47.3439 0.0000 0.0000 0.0000
# 2 89.4413 184.0967 34.6442 0.0000 0.0000 0.0000
# 3 47.3439 34.6442 26.3036 0.0000 0.0000 0.0000
# 4 0.0000 0.0000 0.0000 19.5997 0.0000 0.0000
# 5 0.0000 0.0000 0.0000 0.0000 17.1311 0.0000
# 6 0.0000 0.0000 0.0000 0.0000 0.0000 33.4591
#
#
#
# Elastic Compliance Matrix: (Units=1/GPa)
#
#
# Indices 1 2 3 4 5 6 
#
# 1 0.014901 -0.002915 -0.022981 0.000000 0.000000 0.000000
# 2 -0.002915 0.007792 -0.005017 0.000000 0.000000 0.000000
# 3 -0.022981 -0.005017 0.085989 0.000000 0.000000 0.000000
# 4 0.000000 0.000000 0.000000 0.051021 0.000000 0.000000
# 5 0.000000 0.000000 0.000000 0.000000 0.058373 0.000000
# 6 0.000000 0.000000 0.000000 0.000000 0.000000 0.029887
#
#
# Mechanical properties :
#
#
# Convention : Reuss Voigt Hill
#
# Bulk Modulus (GPa) = 21.34161 78.98676 50.16419
# Shear Modulus (GPa) = 15.36531 27.14417 21.25474
#
# Velocity S-wave (km/s) = 2.94478 3.91400 3.46346
# Velocity P-wave (km/s) = 4.85870 8.06249 6.65623
#
# Compressibility (1/GPa) = 0.04685682
#
# Stress axis : x y z
#
# Youngs Moduli (GPa) = 67.10959 128.33559 11.62937
#
# Poissons Ratio (x) = 0.37407 0.26726
# Poissons Ratio (y) = 0.19561 0.05834
# Poissons Ratio (z) = 1.54227 0.64381
#
# Static dielectric constant tensor:
#      x y z
#    x 1.784770 0.000000 0.000000 
#    y 0.000000 1.633760 0.000000 
#    z 0.000000 0.000000 1.585640 
# 
# From -- ./inp_files/6458.got.cif
#   From: 2010.05.17/outbox.cif.g08.bks.cpg/sg53_4_cif.got.tgz:6458.got - 2010.06.03 12:45:16.
