data_PCOD9414762
_publ_section_title
;
Structure prediction by ZEFSAII (Michael W. Deem and Ramdas Pophale) SiO2 
 PCOD9414762
Probable space group: P M N A
;
_chemical_formula_sum "Si O2"
_cell_formula_units_Z 40
_cell_length_a 8.621350
_cell_length_b 26.786069
_cell_length_c 9.237749
_cell_angle_alpha 90.000000
_cell_angle_beta 90.000000
_cell_angle_gamma 90.000000
_cell_volume 2133.292554
_symmetry_space_group_name_H-M "P M N A"
_symmetry_group_IT_number 53
_symmetry_cell_setting 'orthorhombic'
loop_
_space_group_symop_operation_xyz
x,y,z
1/2-x,-y,1/2+z
x,-y,-z
1/2-x,y,1/2-z
-x,-y,-z
1/2+x,y,1/2-z
-x,y,z
1/2+x,-y,1/2+z
loop_
_atom_site_type_symbol
_atom_site_label
_atom_site_fract_x
_atom_site_fract_y
_atom_site_fract_z
Si Si1 0.685307 0.751576 0.585371
Si Si2 0.685195 0.144279 0.086276
Si Si3 0.687167 0.548826 0.088280
Si Si4 0.313533 0.352308 0.086520
Si Si5 0.313927 0.050265 0.588048
O O1 0.750000 0.751243 0.750000
O O2 0.500000 0.752143 0.587294
O O3 0.749781 0.803414 0.523481
O O4 0.747093 0.699466 0.522611
O O5 0.750000 0.138682 0.250000
O O6 0.500000 0.146595 0.092917
O O7 0.741360 0.097776 0.992368
O O8 0.750000 0.547772 0.250000
O O9 0.500000 0.547892 0.092613
O O10 0.739862 0.500000 0.000000
O O11 0.733104 0.599515 0.005944
O O12 0.250000 0.357949 0.250000
O O13 0.500000 0.349024 0.092643
O O14 0.250000 0.046550 0.750000
O O15 0.500000 0.055369 0.590554
O O16 0.274916 0.000000 0.500000
#
# Coordination Sequence:
#
# PCOD9414762 Si02
#       5
#     8   8   8   8   8
#     4  10  18  31  53  81 112 146 186 227 274 328
#     4  11  21  36  59  86 117 151 190 234 280 330
#     4  10  22  38  56  80 109 142 181 225 273 327
#     4  10  19  33  54  81 111 143 183 226 272 325
#     4  11  24  41  61  86 116 150 189 232 281 335
#
# _framework density 18.750357000000001
#
# number of rings (size 3 to 8) (size 9 to 14) (size 15 to 20)
#    0.000    1.600    0.000    8.400    0.000    5.200 
#    0.000    1.000    0.000    2.400    0.000    0.000 
#    0.000    0.000    0.000    0.000    0.000    0.000 
#
# Total GULP energy -223473.556002 kJ/mol
# GULP energy per Si atom -5586.838900 kJ/mol
# Density = 1.870768 g / cm^3
# Si number density = 18.750357 Si / 1000 Ang^3
#
#
#
# Elastic Constant Matrix: (Units=GPa)
#
#
# Indices 1 2 3 4 5 6 
#
# 1 115.6957 85.0496 43.1968 0.0000 0.0000 0.0000
# 2 85.0496 230.9871 92.4829 0.0000 0.0000 0.0000
# 3 43.1968 92.4829 105.2387 0.0000 0.0000 0.0000
# 4 0.0000 0.0000 0.0000 27.5484 0.0000 0.0000
# 5 0.0000 0.0000 0.0000 0.0000 28.4281 0.0000
# 6 0.0000 0.0000 0.0000 0.0000 0.0000 30.4624
#
#
#
# Elastic Compliance Matrix: (Units=1/GPa)
#
#
# Indices 1 2 3 4 5 6 
#
# 1 0.012026 -0.003782 -0.001612 0.000000 0.000000 0.000000
# 2 -0.003782 0.007869 -0.005363 0.000000 0.000000 0.000000
# 3 -0.001612 -0.005363 0.014877 0.000000 0.000000 0.000000
# 4 0.000000 0.000000 0.000000 0.036300 0.000000 0.000000
# 5 0.000000 0.000000 0.000000 0.000000 0.035177 0.000000
# 6 0.000000 0.000000 0.000000 0.000000 0.000000 0.032827
#
#
# Mechanical properties :
#
#
# Convention : Reuss Voigt Hill
#
# Bulk Modulus (GPa) = 75.43268 99.26445 87.34857
# Shear Modulus (GPa) = 30.30140 32.70058 31.50099
#
# Velocity S-wave (km/s) = 4.02437 4.18065 4.10325
# Velocity P-wave (km/s) = 7.86838 8.73835 8.31475
#
# Compressibility (1/GPa) = 0.01325685
#
# Stress axis : x y z
#
# Youngs Moduli (GPa) = 83.15441 127.07984 67.21919
#
# Poissons Ratio (x) = 0.48067 0.10837
# Poissons Ratio (y) = 0.31452 0.36048
# Poissons Ratio (z) = 0.13406 0.68149
#
# Static dielectric constant tensor:
#      x y z
#    x 1.630170 0.000000 0.000000 
#    y 0.000000 1.680220 0.000000 
#    z 0.000000 0.000000 1.625810 
# 
# From -- ./inp_files/6297.got.cif
#   From: 2010.05.17/outbox.cif.g08.bks.cpg/sg53_4_cif.got.tgz:6297.got - 2010.06.03 12:45:16.
