data_PCOD9414483
_publ_section_title
;
Structure prediction by ZEFSAII (Michael W. Deem and Ramdas Pophale) SiO2 
 PCOD9414483
Probable space group: P M N A
;
_chemical_formula_sum "Si O2"
_cell_formula_units_Z 56
_cell_length_a 9.110728
_cell_length_b 20.706453
_cell_length_c 18.398920
_cell_angle_alpha 90.000000
_cell_angle_beta 90.000000
_cell_angle_gamma 90.000000
_cell_volume 3470.972102
_symmetry_space_group_name_H-M "P M N A"
_symmetry_group_IT_number 53
_symmetry_cell_setting 'orthorhombic'
loop_
_space_group_symop_operation_xyz
x,y,z
1/2-x,-y,1/2+z
x,-y,-z
1/2-x,y,1/2-z
-x,-y,-z
1/2+x,y,1/2-z
-x,y,z
1/2+x,-y,1/2+z
loop_
_atom_site_type_symbol
_atom_site_label
_atom_site_fract_x
_atom_site_fract_y
_atom_site_fract_z
Si Si1 0.669183 0.565605 0.548479
Si Si2 0.331147 0.072224 0.034496
Si Si3 0.175360 0.744806 0.172851
Si Si4 0.325536 0.117054 0.604529
Si Si5 0.173137 0.361761 0.576197
Si Si6 0.324386 0.022180 0.327072
Si Si7 0.673045 0.491699 0.827661
O O1 0.668781 0.500000 0.500000
O O2 0.500000 0.583990 0.560808
O O3 0.755306 0.617544 0.500146
O O4 0.751177 0.545804 0.622089
O O5 0.500000 0.089635 0.048271
O O6 0.239981 0.066680 0.108675
O O7 0.259054 0.115578 0.971905
O O8 0.328653 0.000000 0.000000
O O9 0.250000 0.730832 0.250000
O O10 0.206151 0.818640 0.149712
O O11 0.242969 0.697335 0.113039
O O12 0.000000 0.736033 0.177808
O O13 0.500000 0.114642 0.589782
O O14 0.288956 0.051961 0.649218
O O15 0.189539 0.423614 0.629839
O O16 0.000000 0.348836 0.568515
O O17 0.250000 0.035668 0.250000
O O18 0.500000 0.028133 0.322802
O O19 0.750000 0.487724 0.750000
O O20 0.500000 0.504166 0.820042
#
# Coordination Sequence:
#
# PCOD9414483 Si02
#       7
#     8   8   8   8   8   8   8
#     4   9  17  30  48  68  91 120 154 192 235 281
#     4   9  17  29  46  67  90 118 153 191 232 279
#     4  11  22  34  48  68  95 127 163 197 230 270
#     4   9  19  33  47  65  92 126 159 193 232 274
#     4  10  20  33  48  67  94 127 161 195 232 275
#     4  10  18  29  46  68  95 123 153 191 235 279
#     4  10  19  30  46  69  96 124 155 193 236 280
#
# _framework density 16.133807999999998
#
# number of rings (size 3 to 8) (size 9 to 14) (size 15 to 20)
#    0.000    2.286    0.000    3.429    0.000    8.000 
#    0.000    0.000    0.000    0.000    0.000    1.000 
#    0.000    6.857    0.000    0.000    0.000    0.000 
#
# Total GULP energy -312402.999585 kJ/mol
# GULP energy per Si atom -5578.624993 kJ/mol
# Density = 1.609709 g / cm^3
# Si number density = 16.133808 Si / 1000 Ang^3
#
#
#
# Elastic Constant Matrix: (Units=GPa)
#
#
# Indices 1 2 3 4 5 6 
#
# 1 74.5637 6.2416 37.4010 0.0000 0.0000 0.0000
# 2 6.2416 13.8543 -10.1361 0.0000 0.0000 0.0000
# 3 37.4010 -10.1361 65.5949 0.0000 0.0000 0.0000
# 4 0.0000 0.0000 0.0000 20.6036 0.0000 0.0000
# 5 0.0000 0.0000 0.0000 0.0000 34.8789 0.0000
# 6 0.0000 0.0000 0.0000 0.0000 0.0000 18.6878
#
#
#
# Elastic Compliance Matrix: (Units=1/GPa)
#
#
# Indices 1 2 3 4 5 6 
#
# 1 0.024109 -0.023585 -0.017391 0.000000 0.000000 0.000000
# 2 -0.023585 0.104453 0.029589 0.000000 0.000000 0.000000
# 3 -0.017391 0.029589 0.029733 0.000000 0.000000 0.000000
# 4 0.000000 0.000000 0.000000 0.048535 0.000000 0.000000
# 5 0.000000 0.000000 0.000000 0.000000 0.028671 0.000000
# 6 0.000000 0.000000 0.000000 0.000000 0.000000 0.053511
#
#
# Mechanical properties :
#
#
# Convention : Reuss Voigt Hill
#
# Bulk Modulus (GPa) = 7.37897 24.55843 15.96870
# Shear Modulus (GPa) = 14.00713 22.86781 18.43747
#
# Velocity S-wave (km/s) = 2.94969 3.76890 3.38418
# Velocity P-wave (km/s) = 4.02299 5.84759 5.01890
#
# Compressibility (1/GPa) = 0.13552030
#
# Stress axis : x y z
#
# Youngs Moduli (GPa) = 41.47839 9.57366 33.63228
#
# Poissons Ratio (x) = 0.22580 0.58490
# Poissons Ratio (y) = 0.97828 -0.99513
# Poissons Ratio (z) = 0.72135 -0.28327
#
# Static dielectric constant tensor:
#      x y z
#    x 1.538240 0.000000 0.000000 
#    y 0.000000 1.524920 0.000000 
#    z 0.000000 0.000000 1.522180 
# 
# From -- ./inp_files/26661.got.cif
#   From: 2010.05.17/outbox.cif.g08.bks.cpg/sg53_14_cif.got.tgz:26661.got - 2010.06.03 12:45:16.
