data_PCOD9414504
_publ_section_title
;
Structure prediction by ZEFSAII (Michael W. Deem and Ramdas Pophale) SiO2 
 PCOD9414504
Probable space group: P M N A
;
_chemical_formula_sum "Si O2"
_cell_formula_units_Z 56
_cell_length_a 8.763823
_cell_length_b 15.984271
_cell_length_c 23.425890
_cell_angle_alpha 90.000000
_cell_angle_beta 90.000000
_cell_angle_gamma 90.000000
_cell_volume 3281.576488
_symmetry_space_group_name_H-M "P M N A"
_symmetry_group_IT_number 53
_symmetry_cell_setting 'orthorhombic'
loop_
_space_group_symop_operation_xyz
x,y,z
1/2-x,-y,1/2+z
x,-y,-z
1/2-x,y,1/2-z
-x,-y,-z
1/2+x,y,1/2-z
-x,y,z
1/2+x,-y,1/2+z
loop_
_atom_site_type_symbol
_atom_site_label
_atom_site_fract_x
_atom_site_fract_y
_atom_site_fract_z
Si Si1 0.322990 0.653005 0.613709
Si Si2 0.682221 0.823684 0.430323
Si Si3 0.815273 0.821890 0.935530
Si Si4 0.825363 0.000933 0.430886
Si Si5 0.184358 0.506687 0.186548
Si Si6 0.676333 0.665160 0.121278
Si Si7 0.166466 0.401379 0.493185
O O1 0.500000 0.660792 0.629337
O O2 0.260476 0.747444 0.606487
O O3 0.260588 0.577055 0.652383
O O4 0.301348 0.622254 0.548816
O O5 0.500000 0.819270 0.430342
O O6 0.732152 0.808410 0.497346
O O7 0.738043 0.916521 0.414325
O O8 0.747293 0.755847 0.385947
O O9 0.000000 0.821882 0.935698
O O10 0.754989 0.911895 0.915966
O O11 0.000000 0.998884 0.410932
O O12 0.826850 0.000000 0.500000
O O13 0.250000 0.502916 0.250000
O O14 0.241503 0.592611 0.157245
O O15 0.000000 0.506917 0.186441
O O16 0.500000 0.671805 0.139772
O O17 0.679901 0.634465 0.055887
O O18 0.165198 0.500000 0.500000
O O19 0.000000 0.375216 0.468720
#
# Coordination Sequence:
#
# PCOD9414504 Si02
#       7
#     8   8   8   8   8   8   8
#     4  10  20  33  51  74 100 133 171 210 251 302
#     4  10  18  29  47  71 102 138 172 205 248 301
#     4   9  17  29  45  69 101 135 170 205 247 301
#     4   9  17  28  42  65 100 138 172 204 244 297
#     4  11  24  40  56  73  98 133 174 217 260 304
#     4  11  21  33  51  75 104 135 170 210 253 303
#     4  10  19  30  46  72 103 133 163 202 252 302
#
# _framework density 17.064968
#
# number of rings (size 3 to 8) (size 9 to 14) (size 15 to 20)
#    0.000    2.000    2.857    1.714    0.000    4.286 
#    0.000    0.000    0.000    0.000    0.000    1.000 
#    0.000    2.286    0.000    0.000    0.000    0.000 
#
# Total GULP energy -311808.008761 kJ/mol
# GULP energy per Si atom -5568.000156 kJ/mol
# Density = 1.702613 g / cm^3
# Si number density = 17.064968 Si / 1000 Ang^3
#
#
#
# Elastic Constant Matrix: (Units=GPa)
#
#
# Indices 1 2 3 4 5 6 
#
# 1 49.6573 45.4472 20.2887 0.0000 0.0000 0.0000
# 2 45.4472 168.3583 46.8998 0.0000 0.0000 0.0000
# 3 20.2887 46.8998 46.6870 0.0000 0.0000 0.0000
# 4 0.0000 0.0000 0.0000 5.8917 0.0000 0.0000
# 5 0.0000 0.0000 0.0000 0.0000 10.2298 0.0000
# 6 0.0000 0.0000 0.0000 0.0000 0.0000 48.3142
#
#
#
# Elastic Compliance Matrix: (Units=1/GPa)
#
#
# Indices 1 2 3 4 5 6 
#
# 1 0.028044 -0.005798 -0.006363 0.000000 0.000000 0.000000
# 2 -0.005798 0.009446 -0.006970 0.000000 0.000000 0.000000
# 3 -0.006363 -0.006970 0.031186 0.000000 0.000000 0.000000
# 4 0.000000 0.000000 0.000000 0.169732 0.000000 0.000000
# 5 0.000000 0.000000 0.000000 0.000000 0.097754 0.000000
# 6 0.000000 0.000000 0.000000 0.000000 0.000000 0.020698
#
#
# Mechanical properties :
#
#
# Convention : Reuss Voigt Hill
#
# Bulk Modulus (GPa) = 32.87815 54.44154 43.65985
# Shear Modulus (GPa) = 12.33779 23.02493 17.68136
#
# Velocity S-wave (km/s) = 2.69176 3.67720 3.22237
# Velocity P-wave (km/s) = 5.38229 7.07113 6.28371
#
# Compressibility (1/GPa) = 0.03041534
#
# Stress axis : x y z
#
# Youngs Moduli (GPa) = 35.65837 105.86029 32.06563
#
# Poissons Ratio (x) = 0.61375 0.20403
# Poissons Ratio (y) = 0.20674 0.22350
# Poissons Ratio (z) = 0.22689 0.73784
#
# Static dielectric constant tensor:
#      x y z
#    x 1.622170 0.000000 0.000000 
#    y 0.000000 1.628900 0.000000 
#    z 0.000000 0.000000 1.559300 
# 
# From -- ./inp_files/30727.got.cif
#   From: 2010.05.17/outbox.cif.g08.bks.cpg/sg53_16_cif.got.tgz:30727.got - 2010.06.03 12:45:16.
