data_PCOD9414751
_publ_section_title
;
Structure prediction by ZEFSAII (Michael W. Deem and Ramdas Pophale) SiO2 
 PCOD9414751
Probable space group: P M N A
;
_chemical_formula_sum "Si O2"
_cell_formula_units_Z 64
_cell_length_a 8.729085
_cell_length_b 15.388116
_cell_length_c 25.378388
_cell_angle_alpha 90.000000
_cell_angle_beta 90.000000
_cell_angle_gamma 90.000000
_cell_volume 3408.930969
_symmetry_space_group_name_H-M "P M N A"
_symmetry_group_IT_number 53
_symmetry_cell_setting 'orthorhombic'
loop_
_space_group_symop_operation_xyz
x,y,z
1/2-x,-y,1/2+z
x,-y,-z
1/2-x,y,1/2-z
-x,-y,-z
1/2+x,y,1/2-z
-x,y,z
1/2+x,-y,1/2+z
loop_
_atom_site_type_symbol
_atom_site_label
_atom_site_fract_x
_atom_site_fract_y
_atom_site_fract_z
Si Si1 0.316079 0.854866 0.192317
Si Si2 0.687162 0.205420 0.113451
Si Si3 0.684314 0.944631 0.807241
Si Si4 0.182547 0.357228 0.305795
Si Si5 0.183791 0.715754 0.111674
Si Si6 0.176782 0.252280 0.496853
Si Si7 0.667495 0.442892 0.051894
Si Si8 0.322764 0.477119 0.645303
O O1 0.250000 0.833847 0.250000
O O2 0.500000 0.848502 0.193111
O O3 0.248013 0.789726 0.149727
O O4 0.273445 0.955409 0.180876
O O5 0.500000 0.207597 0.110650
O O6 0.734560 0.123559 0.148689
O O7 0.731553 0.292417 0.146453
O O8 0.740147 0.196900 0.052632
O O9 0.750000 0.921946 0.750000
O O10 0.500000 0.940512 0.804279
O O11 0.250000 0.327180 0.250000
O O12 0.236153 0.456211 0.316354
O O13 0.000000 0.353589 0.303056
O O14 0.238510 0.735907 0.052150
O O15 0.235611 0.620797 0.133856
O O16 0.000000 0.714468 0.112228
O O17 0.175911 0.345825 0.468480
O O18 0.000000 0.227208 0.508342
O O19 0.500000 0.454486 0.079028
O O20 0.800547 0.474548 0.089473
O O21 0.668038 0.500000 0.000000
O O22 0.500000 0.472301 0.661010
#
# Coordination Sequence:
#
# PCOD9414751 Si02
#       8
#     8   8   8   8   8   8   8   8
#     4  10  21  39  64  88 110 141 180 229 283 335
#     4   9  18  34  57  84 115 148 183 224 271 332
#     4   9  18  35  60  88 113 140 181 228 277 332
#     4  11  22  37  55  79 112 150 188 230 280 334
#     4  11  24  39  56  82 114 148 189 236 281 328
#     4  10  19  34  56  82 113 151 190 226 273 329
#     4  10  18  31  53  78 105 142 187 230 272 318
#     4  11  23  36  52  76 107 145 187 231 276 323
#
# _framework density 18.774215000000002
#
# number of rings (size 3 to 8) (size 9 to 14) (size 15 to 20)
#    0.000    1.875    2.500    1.875    0.000    3.250 
#    0.000    1.875    0.000    3.750    0.000    0.000 
#    0.000    0.000    0.000    0.000    0.000    0.000 
#
# Total GULP energy -356865.692865 kJ/mol
# GULP energy per Si atom -5576.026451 kJ/mol
# Density = 1.873148 g / cm^3
# Si number density = 18.774215 Si / 1000 Ang^3
#
#
#
# Elastic Constant Matrix: (Units=GPa)
#
#
# Indices 1 2 3 4 5 6 
#
# 1 33.9448 22.3701 24.8181 0.0000 0.0000 0.0000
# 2 22.3701 89.6624 58.8875 0.0000 0.0000 0.0000
# 3 24.8181 58.8875 99.5500 0.0000 0.0000 0.0000
# 4 0.0000 0.0000 0.0000 31.0996 0.0000 0.0000
# 5 0.0000 0.0000 0.0000 0.0000 28.0749 0.0000
# 6 0.0000 0.0000 0.0000 0.0000 0.0000 19.0172
#
#
#
# Elastic Compliance Matrix: (Units=1/GPa)
#
#
# Indices 1 2 3 4 5 6 
#
# 1 0.037482 -0.005257 -0.006235 0.000000 0.000000 0.000000
# 2 -0.005257 0.018976 -0.009915 0.000000 0.000000 0.000000
# 3 -0.006235 -0.009915 0.017464 0.000000 0.000000 0.000000
# 4 0.000000 0.000000 0.000000 0.032155 0.000000 0.000000
# 5 0.000000 0.000000 0.000000 0.000000 0.035619 0.000000
# 6 0.000000 0.000000 0.000000 0.000000 0.000000 0.052584
#
#
# Mechanical properties :
#
#
# Convention : Reuss Voigt Hill
#
# Bulk Modulus (GPa) = 32.14346 48.36764 40.25555
# Shear Modulus (GPa) = 20.20504 23.44376 21.82440
#
# Velocity S-wave (km/s) = 3.28413 3.53756 3.41320
# Velocity P-wave (km/s) = 5.61595 6.51955 6.08455
#
# Compressibility (1/GPa) = 0.03111053
#
# Stress axis : x y z
#
# Youngs Moduli (GPa) = 26.67921 52.69821 57.25936
#
# Poissons Ratio (x) = 0.27702 0.35701
# Poissons Ratio (y) = 0.14024 0.56770
# Poissons Ratio (z) = 0.16634 0.52248
#
# Static dielectric constant tensor:
#      x y z
#    x 1.658750 0.000000 0.000000 
#    y 0.000000 1.683410 0.000000 
#    z 0.000000 0.000000 1.485150 
# 
# From -- ./inp_files/34217.got.cif
#   From: 2010.05.17/outbox.cif.g08.bks.cpg/sg53_18_cif.got.tgz:34217.got - 2010.06.03 12:45:16.
