data_PCOD9414065
_publ_section_title
;
Structure prediction by ZEFSAII (Michael W. Deem and Ramdas Pophale) SiO2 
 PCOD9414065
Probable space group: P M N A
;
_chemical_formula_sum "Si O2"
_cell_formula_units_Z 32
_cell_length_a 15.067635
_cell_length_b 11.436104
_cell_length_c 7.967231
_cell_angle_alpha 90.000000
_cell_angle_beta 90.000000
_cell_angle_gamma 90.000000
_cell_volume 1372.873736
_symmetry_space_group_name_H-M "P M N A"
_symmetry_group_IT_number 53
_symmetry_cell_setting 'orthorhombic'
loop_
_space_group_symop_operation_xyz
x,y,z
1/2-x,-y,1/2+z
x,-y,-z
1/2-x,y,1/2-z
-x,-y,-z
1/2+x,y,1/2-z
-x,y,z
1/2+x,-y,1/2+z
loop_
_atom_site_type_symbol
_atom_site_label
_atom_site_fract_x
_atom_site_fract_y
_atom_site_fract_z
Si Si1 0.811409 0.248601 0.086611
Si Si2 0.500000 0.371417 0.412435
Si Si3 0.895918 0.040612 0.251022
Si Si4 0.853126 0.808400 0.410210
Si Si5 0.000000 0.362667 0.490914
O O1 0.750000 0.288798 0.250000
O O2 0.903037 0.315296 0.047171
O O3 0.838641 0.114920 0.123285
O O4 0.743298 0.243912 0.935700
O O5 0.500000 0.500000 0.500000
O O6 0.500000 0.346819 0.210254
O O7 0.880228 0.114969 0.422749
O O8 0.000000 0.045117 0.211828
O O9 0.867919 0.906880 0.271710
O O10 0.918392 0.699323 0.417532
O O11 0.000000 0.500000 0.500000
#
# Coordination Sequence:
#
# PCOD9414065 Si02
#       5
#     8   4   8   8   4
#     4  10  19  36  65  94 128 171 213 262 347 394
#     4  12  24  43  67  88 133 181 216 271 333 391
#     4  10  15  31  66  91 118 158 219 264 313 391
#     4  10  18  33  62  97 121 157 217 268 316 391
#     4  12  22  38  66  94 124 172 227 279 314 372
#
# _framework density 23.308771
#
# number of rings (size 3 to 8) (size 9 to 14) (size 15 to 20)
#    0.000    1.500    8.750    0.750    0.000    1.000 
#    0.000    0.000   33.000   13.500    0.000    0.000 
#    0.000    0.000    0.000    0.000    0.000    0.000 
#
# Total GULP energy -178742.104570 kJ/mol
# GULP energy per Si atom -5585.690768 kJ/mol
# Density = 2.325572 g / cm^3
# Si number density = 23.308771 Si / 1000 Ang^3
#
#
#
# Elastic Constant Matrix: (Units=GPa)
#
#
# Indices 1 2 3 4 5 6 
#
# 1 242.6320 92.4533 29.0630 0.0000 0.0000 0.0000
# 2 92.4533 181.0548 20.9134 0.0000 0.0000 0.0000
# 3 29.0630 20.9134 70.1381 0.0000 0.0000 0.0000
# 4 0.0000 0.0000 0.0000 28.1768 0.0000 0.0000
# 5 0.0000 0.0000 0.0000 0.0000 1.8720 0.0000
# 6 0.0000 0.0000 0.0000 0.0000 0.0000 -6.6041
#
#
#
# Elastic Compliance Matrix: (Units=1/GPa)
#
#
# Indices 1 2 3 4 5 6 
#
# 1 0.005251 -0.002517 -0.001425 0.000000 0.000000 0.000000
# 2 -0.002517 0.006926 -0.001022 0.000000 0.000000 0.000000
# 3 -0.001425 -0.001022 0.015153 0.000000 0.000000 0.000000
# 4 0.000000 0.000000 0.000000 0.035490 0.000000 0.000000
# 5 0.000000 0.000000 0.000000 0.000000 0.534195 0.000000
# 6 0.000000 0.000000 0.000000 0.000000 0.000000 -0.151422
#
#
# Mechanical properties :
#
#
# Convention : Reuss Voigt Hill
#
# Bulk Modulus (GPa) = 57.46669 86.52049 71.99359
# Shear Modulus (GPa) = 10.83837 28.11528 19.47682
#
# Velocity S-wave (km/s) = 2.15870 3.47682 2.89381
# Velocity P-wave (km/s) = 5.56070 7.30189 6.48995
#
# Compressibility (1/GPa) = 0.01740139
#
# Stress axis : x y z
#
# Youngs Moduli (GPa) = 190.43141 144.37371 65.99298
#
# Poissons Ratio (x) = 0.36336 0.09407
# Poissons Ratio (y) = 0.47928 0.06747
# Poissons Ratio (z) = 0.27146 0.14761
#
# Static dielectric constant tensor:
#      x y z
#    x 1.903870 0.000000 0.000000 
#    y 0.000000 1.873620 0.000000 
#    z 0.000000 0.000000 2.259530 
# 
# From -- ./inp_files/8185.got.cif
#   From: 2010.05.17/outbox.cif.g08.bks.cpg/sg53_5_cif.got.tgz:8185.got - 2010.06.03 12:45:16.
