data_PCOD9414945
_publ_section_title
;
Structure prediction by ZEFSAII (Michael W. Deem and Ramdas Pophale) SiO2 
 PCOD9414945
Probable space group: P M N A
;
_chemical_formula_sum "Si O2"
_cell_formula_units_Z 32
_cell_length_a 16.233964
_cell_length_b 8.146141
_cell_length_c 13.155028
_cell_angle_alpha 90.000000
_cell_angle_beta 90.000000
_cell_angle_gamma 90.000000
_cell_volume 1739.675624
_symmetry_space_group_name_H-M "P M N A"
_symmetry_group_IT_number 53
_symmetry_cell_setting 'orthorhombic'
loop_
_space_group_symop_operation_xyz
x,y,z
1/2-x,-y,1/2+z
x,-y,-z
1/2-x,y,1/2-z
-x,-y,-z
1/2+x,y,1/2-z
-x,y,z
1/2+x,-y,1/2+z
loop_
_atom_site_type_symbol
_atom_site_label
_atom_site_fract_x
_atom_site_fract_y
_atom_site_fract_z
Si Si1 0.091571 0.984705 0.225732
Si Si2 0.748659 0.671754 0.028902
Si Si3 0.250000 0.245363 0.750000
Si Si4 0.143066 0.000000 0.000000
Si Si5 0.094425 0.832025 0.566942
O O1 0.168535 0.865147 0.239937
O O2 0.000000 0.914526 0.246501
O O3 0.103331 0.121978 0.313549
O O4 0.095265 0.028138 0.106055
O O5 0.735528 0.655415 0.148592
O O6 0.801644 0.836403 0.011856
O O7 0.789403 0.500000 0.000000
O O8 0.663246 0.705497 0.970257
O O9 0.000000 0.778786 0.549701
O O10 0.106357 0.000000 0.500000
#
# Coordination Sequence:
#
# PCOD9414945 Si02
#       5
#     8   8   4   4   8
#     4  10  19  34  62  86 113 155 191 233 288 340
#     4  11  22  36  57  83 113 152 190 235 287 341
#     4  10  20  36  54  84 118 146 190 236 286 344
#     4  10  21  38  55  84 114 150 195 232 274 342
#     4  10  18  33  56  82 111 144 186 237 285 332
#
# _framework density 18.394231999999999
#
# number of rings (size 3 to 8) (size 9 to 14) (size 15 to 20)
#    0.000    1.750    3.750    1.875    0.000    2.500 
#    0.000    0.000    0.000   21.750    0.000    0.000 
#    0.000    0.000    0.000    0.000    0.000    0.000 
#
# Total GULP energy -178169.908938 kJ/mol
# GULP energy per Si atom -5567.809654 kJ/mol
# Density = 1.835237 g / cm^3
# Si number density = 18.394232 Si / 1000 Ang^3
#
#
#
# Elastic Constant Matrix: (Units=GPa)
#
#
# Indices 1 2 3 4 5 6 
#
# 1 88.4054 22.8635 30.2578 0.0000 0.0000 0.0000
# 2 22.8635 74.4183 23.7528 0.0000 0.0000 0.0000
# 3 30.2578 23.7528 142.3536 0.0000 0.0000 0.0000
# 4 0.0000 0.0000 0.0000 13.8484 0.0000 0.0000
# 5 0.0000 0.0000 0.0000 0.0000 25.8186 0.0000
# 6 0.0000 0.0000 0.0000 0.0000 0.0000 -0.1121
#
#
#
# Elastic Compliance Matrix: (Units=1/GPa)
#
#
# Indices 1 2 3 4 5 6 
#
# 1 0.012908 -0.003264 -0.002199 0.000000 0.000000 0.000000
# 2 -0.003264 0.015019 -0.001812 0.000000 0.000000 0.000000
# 3 -0.002199 -0.001812 0.007795 0.000000 0.000000 0.000000
# 4 0.000000 0.000000 0.000000 0.072210 0.000000 0.000000
# 5 0.000000 0.000000 0.000000 0.000000 0.038732 0.000000
# 6 0.000000 0.000000 0.000000 0.000000 0.000000 -8.922599
#
#
# Mechanical properties :
#
#
# Convention : Reuss Voigt Hill
#
# Bulk Modulus (GPa) = 47.23408 50.99170 49.11289
# Shear Modulus (GPa) = -0.57115 23.13121 11.28003
#
# Velocity S-wave (km/s) = -0.55783 3.55001 2.47905
# Velocity P-wave (km/s) = 5.03186 6.67721 5.91205
#
# Compressibility (1/GPa) = 0.02117116
#
# Stress axis : x y z
#
# Youngs Moduli (GPa) = 77.46946 66.58341 128.29434
#
# Poissons Ratio (x) = 0.21732 0.28213
# Poissons Ratio (y) = 0.25285 0.23250
# Poissons Ratio (z) = 0.17036 0.12067
#
# Static dielectric constant tensor:
#      x y z
#    x 1.654110 0.000000 0.000000 
#    y 0.000000 1.637800 0.000000 
#    z 0.000000 0.000000 0.203470 
# 
# From -- ./inp_files/15440.got.cif
#   From: 2010.05.17/outbox.cif.g08.bks.cpg/sg53_8_cif.got.tgz:15440.got - 2010.06.03 12:45:16.
