data_PCOD9414731
_publ_section_title
;
Structure prediction by ZEFSAII (Michael W. Deem and Ramdas Pophale) SiO2 
 PCOD9414731
Probable space group: P M N A
;
_chemical_formula_sum "Si O2"
_cell_formula_units_Z 64
_cell_length_a 8.852113
_cell_length_b 12.691510
_cell_length_c 28.417912
_cell_angle_alpha 90.000000
_cell_angle_beta 90.000000
_cell_angle_gamma 90.000000
_cell_volume 3192.658085
_symmetry_space_group_name_H-M "P M N A"
_symmetry_group_IT_number 53
_symmetry_cell_setting 'orthorhombic'
loop_
_space_group_symop_operation_xyz
x,y,z
1/2-x,-y,1/2+z
x,-y,-z
1/2-x,y,1/2-z
-x,-y,-z
1/2+x,y,1/2-z
-x,y,z
1/2+x,-y,1/2+z
loop_
_atom_site_type_symbol
_atom_site_label
_atom_site_fract_x
_atom_site_fract_y
_atom_site_fract_z
Si Si1 0.173740 0.463343 0.432401
Si Si2 0.173662 0.515931 0.321140
Si Si3 0.319735 0.878472 0.873736
Si Si4 0.819888 0.760333 0.956831
Si Si5 0.680966 0.730384 0.337829
Si Si6 0.181961 0.957842 0.199146
Si Si7 0.318401 0.683820 0.444520
Si Si8 0.680764 0.708446 0.796055
O O1 0.173073 0.489821 0.376801
O O2 0.264207 0.355891 0.440750
O O3 0.244698 0.569539 0.454002
O O4 0.000000 0.447878 0.447127
O O5 0.258585 0.624677 0.313758
O O6 0.242746 0.409985 0.299858
O O7 0.000000 0.527805 0.305821
O O8 0.500000 0.894061 0.875261
O O9 0.256630 0.849841 0.925029
O O10 0.242754 0.970960 0.843765
O O11 0.286733 0.774457 0.842424
O O12 0.000000 0.767064 0.951248
O O13 0.782308 0.761440 0.012452
O O14 0.500000 0.727925 0.337527
O O15 0.729018 0.724973 0.392989
O O16 0.728622 0.837702 0.312865
O O17 0.250000 0.987077 0.250000
O O18 0.000000 0.965166 0.201045
O O19 0.500000 0.669307 0.443735
O O20 0.750000 0.760550 0.750000
O O21 0.500000 0.703287 0.791796
#
# Coordination Sequence:
#
# PCOD9414731 Si02
#       8
#     8   8   8   8   8   8   8   8
#     4  10  18  31  51  78 116 158 196 236 282 338
#     4   9  18  34  53  78 114 150 185 228 282 341
#     4  11  23  41  61  83 116 151 193 244 292 347
#     4  11  21  33  54  83 117 155 196 239 288 348
#     4   9  20  39  61  84 114 150 193 241 287 342
#     4  11  24  43  66  90 113 145 193 243 295 349
#     4   9  19  35  54  82 117 155 198 241 286 342
#     4  10  21  36  53  78 111 145 181 228 284 345
#
# _framework density 20.045994
#
# number of rings (size 3 to 8) (size 9 to 14) (size 15 to 20)
#    0.000    2.000    1.250    2.250    0.000    7.000 
#    0.000    3.125    0.000    3.750    0.000    0.000 
#    0.000    0.000    0.000    0.000    0.000    0.000 
#
# Total GULP energy -357294.253050 kJ/mol
# GULP energy per Si atom -5582.722704 kJ/mol
# Density = 2.000037 g / cm^3
# Si number density = 20.045994 Si / 1000 Ang^3
#
#
#
# Elastic Constant Matrix: (Units=GPa)
#
#
# Indices 1 2 3 4 5 6 
#
# 1 27.5526 18.9740 11.8944 0.0000 0.0000 0.0000
# 2 18.9740 88.3338 7.2907 0.0000 0.0000 0.0000
# 3 11.8944 7.2907 45.9141 0.0000 0.0000 0.0000
# 4 0.0000 0.0000 0.0000 98.0709 0.0000 0.0000
# 5 0.0000 0.0000 0.0000 0.0000 21.0273 0.0000
# 6 0.0000 0.0000 0.0000 0.0000 0.0000 22.8615
#
#
#
# Elastic Compliance Matrix: (Units=1/GPa)
#
#
# Indices 1 2 3 4 5 6 
#
# 1 0.047342 -0.009278 -0.010791 0.000000 0.000000 0.000000
# 2 -0.009278 0.013289 0.000293 0.000000 0.000000 0.000000
# 3 -0.010791 0.000293 0.024529 0.000000 0.000000 0.000000
# 4 0.000000 0.000000 0.000000 0.010197 0.000000 0.000000
# 5 0.000000 0.000000 0.000000 0.000000 0.047557 0.000000
# 6 0.000000 0.000000 0.000000 0.000000 0.000000 0.043742
#
#
# Mechanical properties :
#
#
# Convention : Reuss Voigt Hill
#
# Bulk Modulus (GPa) = 21.92583 26.45762 24.19172
# Shear Modulus (GPa) = 20.71158 36.63471 28.67314
#
# Velocity S-wave (km/s) = 3.21783 4.27960 3.78612
# Velocity P-wave (km/s) = 4.97669 6.13572 5.58635
#
# Compressibility (1/GPa) = 0.04560832
#
# Stress axis : x y z
#
# Youngs Moduli (GPa) = 21.12280 75.24764 40.76851
#
# Poissons Ratio (x) = 0.69818 0.43994
# Poissons Ratio (y) = 0.19599 -0.01196
# Poissons Ratio (z) = 0.22794 -0.02208
#
# Static dielectric constant tensor:
#      x y z
#    x 1.680010 0.000000 0.000000 
#    y 0.000000 1.698610 0.000000 
#    z 0.000000 0.000000 1.623400 
# 
# From -- ./inp_files/38232.got.cif
#   From: 2010.05.17/outbox.cif.g08.bks.cpg/sg53_20_cif.got.tgz:38232.got - 2010.06.03 12:45:16.
