data_PCOD9414727
_publ_section_title
;
Structure prediction by ZEFSAII (Michael W. Deem and Ramdas Pophale) SiO2 
 PCOD9414727
Probable space group: P M N A
;
_chemical_formula_sum "Si O2"
_cell_formula_units_Z 64
_cell_length_a 14.605935
_cell_length_b 12.384942
_cell_length_c 19.287072
_cell_angle_alpha 90.000000
_cell_angle_beta 90.000000
_cell_angle_gamma 90.000000
_cell_volume 3488.909003
_symmetry_space_group_name_H-M "P M N A"
_symmetry_group_IT_number 53
_symmetry_cell_setting 'orthorhombic'
loop_
_space_group_symop_operation_xyz
x,y,z
1/2-x,-y,1/2+z
x,-y,-z
1/2-x,y,1/2-z
-x,-y,-z
1/2+x,y,1/2-z
-x,y,z
1/2+x,-y,1/2+z
loop_
_atom_site_type_symbol
_atom_site_label
_atom_site_fract_x
_atom_site_fract_y
_atom_site_fract_z
Si Si1 0.602811 0.262032 0.651271
Si Si2 0.392271 0.635700 0.812127
Si Si3 0.284928 0.006310 0.917341
Si Si4 0.110501 0.874696 0.697260
Si Si5 0.894950 0.008631 0.835129
Si Si6 0.109262 0.602721 0.290080
Si Si7 0.207399 0.256480 0.591835
Si Si8 0.606714 0.378426 0.022582
O O1 0.500000 0.281928 0.624861
O O2 0.606819 0.137676 0.676392
O O3 0.620188 0.338055 0.717002
O O4 0.683995 0.275776 0.596920
O O5 0.500000 0.635845 0.793051
O O6 0.356039 0.752274 0.789716
O O7 0.356054 0.520507 0.786517
O O8 0.385126 0.632427 0.895377
O O9 0.179867 0.985483 0.894008
O O10 0.308752 0.129591 0.896021
O O11 0.345820 0.925532 0.871658
O O12 0.296000 0.000000 0.000000
O O13 0.000000 0.872495 0.688578
O O14 0.130728 0.947994 0.764237
O O15 0.000000 0.979186 0.853319
O O16 0.159193 0.671109 0.349389
O O17 0.000000 0.600321 0.306738
O O18 0.166993 0.293749 0.518965
O O19 0.500000 0.362621 0.003602
O O20 0.631757 0.500000 0.000000
#
# Coordination Sequence:
#
# PCOD9414727 Si02
#       8
#     8   8   8   8   8   8   8   8
#     4   9  19  34  52  76 103 129 170 223 266 303
#     4   9  18  32  51  77 108 139 171 207 254 317
#     4  11  23  36  53  80 112 142 179 226 272 322
#     4  10  20  35  55  79 112 147 176 213 271 333
#     4   9  19  38  60  78 100 141 187 228 273 317
#     4  10  18  31  53  80 106 132 169 214 259 311
#     4  11  20  32  53  76 103 135 172 213 259 313
#     4  10  18  31  51  77 107 138 168 205 257 319
#
# _framework density 18.343843
#
# number of rings (size 3 to 8) (size 9 to 14) (size 15 to 20)
#    0.000    2.125    1.250    2.625    0.000    4.500 
#    0.000    2.500    0.000    0.375    0.000    0.000 
#    0.000    0.000    0.000    0.000    0.000    0.000 
#
# Total GULP energy -357093.360969 kJ/mol
# GULP energy per Si atom -5579.583765 kJ/mol
# Density = 1.830209 g / cm^3
# Si number density = 18.343843 Si / 1000 Ang^3
#
#
#
# Elastic Constant Matrix: (Units=GPa)
#
#
# Indices 1 2 3 4 5 6 
#
# 1 51.8354 31.3336 19.0060 0.0000 0.0000 0.0000
# 2 31.3336 67.7090 8.7363 0.0000 0.0000 0.0000
# 3 19.0060 8.7363 27.5184 0.0000 0.0000 0.0000
# 4 0.0000 0.0000 0.0000 23.6995 0.0000 0.0000
# 5 0.0000 0.0000 0.0000 0.0000 24.8339 0.0000
# 6 0.0000 0.0000 0.0000 0.0000 0.0000 7.5340
#
#
#
# Elastic Compliance Matrix: (Units=1/GPa)
#
#
# Indices 1 2 3 4 5 6 
#
# 1 0.034660 -0.013504 -0.019652 0.000000 0.000000 0.000000
# 2 -0.013504 0.020661 0.002768 0.000000 0.000000 0.000000
# 3 -0.019652 0.002768 0.049033 0.000000 0.000000 0.000000
# 4 0.000000 0.000000 0.000000 0.042195 0.000000 0.000000
# 5 0.000000 0.000000 0.000000 0.000000 0.040267 0.000000
# 6 0.000000 0.000000 0.000000 0.000000 0.000000 0.132732
#
#
# Mechanical properties :
#
#
# Convention : Reuss Voigt Hill
#
# Bulk Modulus (GPa) = 22.94701 29.46830 26.20766
# Shear Modulus (GPa) = 12.66295 17.07926 14.87111
#
# Velocity S-wave (km/s) = 2.63023 3.05464 2.85034
# Velocity P-wave (km/s) = 4.66483 5.34232 5.01503
#
# Compressibility (1/GPa) = 0.04357866
#
# Stress axis : x y z
#
# Youngs Moduli (GPa) = 28.85142 48.39968 20.39424
#
# Poissons Ratio (x) = 0.65360 0.40078
# Poissons Ratio (y) = 0.38961 -0.05644
# Poissons Ratio (z) = 0.56698 -0.13395
#
# Static dielectric constant tensor:
#      x y z
#    x 1.655880 0.000000 0.000000 
#    y 0.000000 1.649650 0.000000 
#    z 0.000000 0.000000 1.589500 
# 
# From -- ./inp_files/28557.got.cif
#   From: 2010.05.17/outbox.cif.g08.bks.cpg/sg53_15_cif.got.tgz:28557.got - 2010.06.03 12:45:16.
