data_PCOD9414098
_publ_section_title
;
Structure prediction by ZEFSAII (Michael W. Deem and Ramdas Pophale) SiO2 
 PCOD9414098
Probable space group: P M N A
;
_chemical_formula_sum "Si O2"
_cell_formula_units_Z 40
_cell_length_a 13.744794
_cell_length_b 5.605912
_cell_length_c 18.806114
_cell_angle_alpha 90.000000
_cell_angle_beta 90.000000
_cell_angle_gamma 90.000000
_cell_volume 1449.050682
_symmetry_space_group_name_H-M "P M N A"
_symmetry_group_IT_number 53
_symmetry_cell_setting 'orthorhombic'
loop_
_space_group_symop_operation_xyz
x,y,z
1/2-x,-y,1/2+z
x,-y,-z
1/2-x,y,1/2-z
-x,-y,-z
1/2+x,y,1/2-z
-x,y,z
1/2+x,-y,1/2+z
loop_
_atom_site_type_symbol
_atom_site_label
_atom_site_fract_x
_atom_site_fract_y
_atom_site_fract_z
Si Si1 0.386232 0.250000 0.958131
Si Si2 0.837606 0.749999 0.305136
Si Si3 0.607668 0.750000 0.746304
Si Si4 0.392387 0.250000 0.551779
Si Si5 0.154214 0.750000 0.899002
O O1 0.500000 0.250000 0.932794
O O2 0.316913 0.250000 0.889338
O O3 0.375726 0.500000 0.000000
O O4 0.375726 0.000000 0.000000
O O5 0.750000 0.749999 0.250000
O O6 0.888366 0.495492 0.290146
O O7 0.888366 0.004507 0.290146
O O8 0.500000 0.750000 0.710496
O O9 0.689191 0.750000 0.683139
O O10 0.500000 0.250000 0.516395
O O11 0.318359 0.250000 0.484398
O O12 0.387624 0.483409 0.598821
O O13 0.387624 0.016591 0.598821
#
# Coordination Sequence:
#
# PCOD9414098 Si02
#       5
#     8   8   8   8   8
#     4  10  21  42  77 112 140 181 249 326 380 431
#     4  12  27  46  70 103 155 194 229 294 402 485
#     4  12  23  40  68 100 136 181 245 298 351 437
#     4  10  16  27  45  71 112 159 209 260 317 361
#     4  10  19  29  49  78 113 159 212 279 330 371
#
# _framework density 27.604278999999998
#
# number of rings (size 3 to 8) (size 9 to 14) (size 15 to 20)
#    0.000    1.200    0.000    9.600    0.000    1.600 
#    0.000    0.000   26.400    0.000    0.000    0.000 
#    0.000    0.000    0.000    0.000    0.000    0.000 
#
# Total GULP energy -223116.974174 kJ/mol
# GULP energy per Si atom -5577.924354 kJ/mol
# Density = 2.754145 g / cm^3
# Si number density = 27.604279 Si / 1000 Ang^3
#
#
#
# Elastic Constant Matrix: (Units=GPa)
#
#
# Indices 1 2 3 4 5 6 
#
# 1 95.6806 43.3682 11.9877 0.0000 0.0000 0.0000
# 2 43.3682 337.7773 92.8182 0.0000 0.0000 0.0000
# 3 11.9877 92.8182 213.8838 0.0000 0.0000 0.0000
# 4 0.0000 0.0000 0.0000 64.8353 0.0000 0.0000
# 5 0.0000 0.0000 0.0000 0.0000 36.3358 0.0000
# 6 0.0000 0.0000 0.0000 0.0000 0.0000 4.3661
#
#
#
# Elastic Compliance Matrix: (Units=1/GPa)
#
#
# Indices 1 2 3 4 5 6 
#
# 1 0.011097 -0.001424 -0.000004 0.000000 0.000000 0.000000
# 2 -0.001424 0.003544 -0.001458 0.000000 0.000000 0.000000
# 3 -0.000004 -0.001458 0.005308 0.000000 0.000000 0.000000
# 4 0.000000 0.000000 0.000000 0.015424 0.000000 0.000000
# 5 0.000000 0.000000 0.000000 0.000000 0.027521 0.000000
# 6 0.000000 0.000000 0.000000 0.000000 0.000000 0.229038
#
#
# Mechanical properties :
#
#
# Convention : Reuss Voigt Hill
#
# Bulk Modulus (GPa) = 70.53316 104.85443 87.69380
# Shear Modulus (GPa) = 16.53272 54.38526 35.45899
#
# Velocity S-wave (km/s) = 2.44994 4.44348 3.58795
# Velocity P-wave (km/s) = 5.79741 8.02455 7.00012
#
# Compressibility (1/GPa) = 0.01417773
#
# Stress axis : x y z
#
# Youngs Moduli (GPa) = 90.11238 282.16580 188.37814
#
# Poissons Ratio (x) = 0.40171 0.00078
# Poissons Ratio (y) = 0.12829 0.27469
# Poissons Ratio (z) = 0.00037 0.41145
#
# Static dielectric constant tensor:
#      x y z
#    x 2.284280 0.000000 0.000000 
#    y 0.000000 2.039640 0.000000 
#    z 0.000000 0.000000 2.110680 
# 
# From -- ./inp_files/28743.got.cif
#   From: 2010.05.17/outbox.cif.g08.bks.cpg/sg53_15_cif.got.tgz:28743.got - 2010.06.03 12:45:16.
