data_PCOD9414158
_publ_section_title
;
Structure prediction by ZEFSAII (Michael W. Deem and Ramdas Pophale) SiO2 
 PCOD9414158
Probable space group: P M N A
;
_chemical_formula_sum "Si O2"
_cell_formula_units_Z 56
_cell_length_a 14.061323
_cell_length_b 15.378064
_cell_length_c 11.312402
_cell_angle_alpha 90.000000
_cell_angle_beta 90.000000
_cell_angle_gamma 90.000000
_cell_volume 2446.147711
_symmetry_space_group_name_H-M "P M N A"
_symmetry_group_IT_number 53
_symmetry_cell_setting 'orthorhombic'
loop_
_space_group_symop_operation_xyz
x,y,z
1/2-x,-y,1/2+z
x,-y,-z
1/2-x,y,1/2-z
-x,-y,-z
1/2+x,y,1/2-z
-x,y,z
1/2+x,-y,1/2+z
loop_
_atom_site_type_symbol
_atom_site_label
_atom_site_fract_x
_atom_site_fract_y
_atom_site_fract_z
Si Si1 0.614833 0.068090 0.341828
Si Si2 0.889581 0.486599 0.762827
Si Si3 0.685777 0.373790 0.440591
Si Si4 0.894873 0.620223 0.547488
Si Si5 0.608226 0.306871 0.673336
Si Si6 0.116390 0.119982 0.891165
Si Si7 0.890385 0.243753 0.247937
O O1 0.500000 0.061281 0.343926
O O2 0.642696 0.105280 0.471121
O O3 0.638371 0.143168 0.248766
O O4 0.647598 0.969025 0.327192
O O5 0.834590 0.540010 0.863957
O O6 0.889156 0.540902 0.641853
O O7 0.856683 0.387677 0.749248
O O8 0.000000 0.485776 0.800504
O O9 0.788588 0.377907 0.501925
O O10 0.612602 0.349000 0.542519
O O11 0.673994 0.297902 0.342776
O O12 0.894729 0.707094 0.628279
O O13 0.000000 0.615119 0.488657
O O14 0.500000 0.291860 0.711861
O O15 0.652797 0.211225 0.660774
O O16 0.000000 0.124341 0.889910
O O17 0.000000 0.248253 0.201079
#
# Coordination Sequence:
#
# PCOD9414158 Si02
#       7
#     8   8   8   8   8   8   8
#     4   8  12  19  32  51  82 114 127 139 176 236
#     4   9  17  27  40  60  86 109 130 165 210 256
#     4  11  17  25  40  59  81 110 141 170 209 256
#     4   9  19  31  41  56  79 110 147 179 209 244
#     4  10  17  25  40  65  93 112 131 165 212 261
#     4   8  13  20  31  53  85 114 129 142 181 243
#     4   9  14  22  37  57  81 106 131 160 197 246
#
# _framework density 22.893139000000001
#
# number of rings (size 3 to 8) (size 9 to 14) (size 15 to 20)
#    0.000    2.857    1.429    5.143    0.000    1.143 
#    0.000    0.000    0.000    1.714    0.000    4.000 
#    0.000    2.286    0.000    0.000    0.000    0.000 
#
# Total GULP energy -312323.395012 kJ/mol
# GULP energy per Si atom -5577.203482 kJ/mol
# Density = 2.284103 g / cm^3
# Si number density = 22.893139 Si / 1000 Ang^3
#
#
#
# Elastic Constant Matrix: (Units=GPa)
#
#
# Indices 1 2 3 4 5 6 
#
# 1 112.0205 2.8974 11.2420 0.0000 0.0000 0.0000
# 2 2.8974 225.5440 19.1113 0.0000 0.0000 0.0000
# 3 11.2420 19.1113 38.3930 0.0000 0.0000 0.0000
# 4 0.0000 0.0000 0.0000 11.7672 0.0000 0.0000
# 5 0.0000 0.0000 0.0000 0.0000 18.0533 0.0000
# 6 0.0000 0.0000 0.0000 0.0000 0.0000 -15.3177
#
#
#
# Elastic Compliance Matrix: (Units=1/GPa)
#
#
# Indices 1 2 3 4 5 6 
#
# 1 0.009200 0.000115 -0.002751 0.000000 0.000000 0.000000
# 2 0.000115 0.004630 -0.002339 0.000000 0.000000 0.000000
# 3 -0.002751 -0.002339 0.028016 0.000000 0.000000 0.000000
# 4 0.000000 0.000000 0.000000 0.084982 0.000000 0.000000
# 5 0.000000 0.000000 0.000000 0.000000 0.055392 0.000000
# 6 0.000000 0.000000 0.000000 0.000000 0.000000 -0.065284
#
#
# Mechanical properties :
#
#
# Convention : Reuss Voigt Hill
#
# Bulk Modulus (GPa) = 31.35090 49.16209 40.25650
# Shear Modulus (GPa) = 36.35875 25.74766 31.05320
#
# Velocity S-wave (km/s) = 3.98954 3.35728 3.68699
# Velocity P-wave (km/s) = 5.91152 6.04563 5.97895
#
# Compressibility (1/GPa) = 0.03189701
#
# Stress axis : x y z
#
# Youngs Moduli (GPa) = 108.69503 215.96376 35.69384
#
# Poissons Ratio (x) = -0.02482 0.09820
# Poissons Ratio (y) = -0.01249 0.08347
# Poissons Ratio (z) = 0.29903 0.50505
#
# Static dielectric constant tensor:
#      x y z
#    x 1.909640 0.000000 0.000000 
#    y 0.000000 1.902500 0.000000 
#    z 0.000000 0.000000 1.849550 
# 
# From -- ./inp_files/22933.got.cif
#   From: 2010.05.17/outbox.cif.g08.bks.cpg/sg53_12_cif.got.tgz:22933.got - 2010.06.03 12:45:16.
