data_PCOD9414598
_publ_section_title
;
Structure prediction by ZEFSAII (Michael W. Deem and Ramdas Pophale) SiO2 
 PCOD9414598
Probable space group: P M N A
;
_chemical_formula_sum "Si O2"
_cell_formula_units_Z 64
_cell_length_a 8.578010
_cell_length_b 25.968720
_cell_length_c 14.636689
_cell_angle_alpha 90.000000
_cell_angle_beta 90.000000
_cell_angle_gamma 90.000000
_cell_volume 3260.467961
_symmetry_space_group_name_H-M "P M N A"
_symmetry_group_IT_number 53
_symmetry_cell_setting 'orthorhombic'
loop_
_space_group_symop_operation_xyz
x,y,z
1/2-x,-y,1/2+z
x,-y,-z
1/2-x,y,1/2-z
-x,-y,-z
1/2+x,y,1/2-z
-x,y,z
1/2+x,-y,1/2+z
loop_
_atom_site_type_symbol
_atom_site_label
_atom_site_fract_x
_atom_site_fract_y
_atom_site_fract_z
Si Si1 0.812404 0.917157 0.646317
Si Si2 0.813127 0.866118 0.352328
Si Si3 0.310506 0.816031 0.967266
Si Si4 0.186275 0.617164 0.536398
Si Si5 0.688753 0.717470 0.852408
Si Si6 0.313471 0.525250 0.651481
Si Si7 0.686459 0.594475 0.347983
Si Si8 0.686417 0.024382 0.645653
O O1 0.750000 0.911788 0.750000
O O2 0.765563 0.866751 0.589904
O O3 0.000000 0.920901 0.648468
O O4 0.744984 0.970367 0.605385
O O5 0.750000 0.857976 0.250000
O O6 0.762695 0.824339 0.427645
O O7 0.755171 0.921785 0.388667
O O8 0.000000 0.867673 0.347507
O O9 0.500000 0.814747 0.967252
O O10 0.257113 0.764798 0.915911
O O11 0.237739 0.663570 0.602187
O O12 0.250656 0.563532 0.575330
O O13 0.246802 0.624698 0.433964
O O14 0.000000 0.615428 0.536100
O O15 0.750000 0.722717 0.750000
O O16 0.500000 0.718268 0.849961
O O17 0.250000 0.542650 0.750000
O O18 0.500000 0.526778 0.651254
O O19 0.264425 0.465716 0.640087
O O20 0.750000 0.611748 0.250000
O O21 0.500000 0.596158 0.348046
O O22 0.750000 0.022704 0.750000
O O23 0.500000 0.026110 0.644885
#
# Coordination Sequence:
#
# PCOD9414598 Si02
#       8
#     8   8   8   8   8   8   8   8
#     4  10  18  31  51  76 104 138 175 212 258 314
#     4  10  19  35  56  77 102 135 173 215 260 312
#     4   9  20  37  57  77 103 139 177 217 267 321
#     4  11  22  35  56  83 114 151 190 231 277 331
#     4  10  22  41  61  84 111 142 179 223 273 321
#     4  10  20  34  54  82 116 152 190 233 280 332
#     4  10  21  37  57  82 115 152 190 232 278 328
#     4  10  18  30  48  74 107 139 169 209 258 311
#
# _framework density 19.629083000000001
#
# number of rings (size 3 to 8) (size 9 to 14) (size 15 to 20)
#    0.000    2.000    0.000    5.625    0.000    5.500 
#    0.000    7.500    0.000    1.500    0.000    0.000 
#    0.000    0.000    0.000    0.000    0.000    0.000 
#
# Total GULP energy -357466.276096 kJ/mol
# GULP energy per Si atom -5585.410564 kJ/mol
# Density = 1.958441 g / cm^3
# Si number density = 19.629083 Si / 1000 Ang^3
#
#
#
# Elastic Constant Matrix: (Units=GPa)
#
#
# Indices 1 2 3 4 5 6 
#
# 1 56.9320 13.3834 19.1935 0.0000 0.0000 0.0000
# 2 13.3834 47.5498 35.3272 0.0000 0.0000 0.0000
# 3 19.1935 35.3272 118.5919 0.0000 0.0000 0.0000
# 4 0.0000 0.0000 0.0000 35.5833 0.0000 0.0000
# 5 0.0000 0.0000 0.0000 0.0000 27.1873 0.0000
# 6 0.0000 0.0000 0.0000 0.0000 0.0000 13.1142
#
#
#
# Elastic Compliance Matrix: (Units=1/GPa)
#
#
# Indices 1 2 3 4 5 6 
#
# 1 0.019143 -0.003963 -0.001918 0.000000 0.000000 0.000000
# 2 -0.003963 0.027828 -0.007648 0.000000 0.000000 0.000000
# 3 -0.001918 -0.007648 0.011021 0.000000 0.000000 0.000000
# 4 0.000000 0.000000 0.000000 0.028103 0.000000 0.000000
# 5 0.000000 0.000000 0.000000 0.000000 0.036782 0.000000
# 6 0.000000 0.000000 0.000000 0.000000 0.000000 0.076253
#
#
# Mechanical properties :
#
#
# Convention : Reuss Voigt Hill
#
# Bulk Modulus (GPa) = 32.32695 39.87575 36.10135
# Shear Modulus (GPa) = 21.14164 25.52161 23.33162
#
# Velocity S-wave (km/s) = 3.28541 3.60973 3.45138
# Velocity P-wave (km/s) = 5.55847 6.14266 5.85785
#
# Compressibility (1/GPa) = 0.03093394
#
# Stress axis : x y z
#
# Youngs Moduli (GPa) = 52.23846 35.93445 90.73610
#
# Poissons Ratio (x) = 0.14242 0.17399
# Poissons Ratio (y) = 0.20704 0.69398
# Poissons Ratio (z) = 0.10017 0.27484
#
# Static dielectric constant tensor:
#      x y z
#    x 1.662540 0.000000 0.000000 
#    y 0.000000 1.696460 0.000000 
#    z 0.000000 0.000000 1.664300 
# 
# From -- ./inp_files/20807.got.cif
#   From: 2010.05.17/outbox.cif.g08.bks.cpg/sg53_11_cif.got.tgz:20807.got - 2010.06.03 12:45:16.
