data_PCOD9414498
_publ_section_title
;
Structure prediction by ZEFSAII (Michael W. Deem and Ramdas Pophale) SiO2 
 PCOD9414498
Probable space group: P M N A
;
_chemical_formula_sum "Si O2"
_cell_formula_units_Z 64
_cell_length_a 7.589349
_cell_length_b 15.145326
_cell_length_c 31.623510
_cell_angle_alpha 90.000000
_cell_angle_beta 90.000000
_cell_angle_gamma 90.000000
_cell_volume 3634.906319
_symmetry_space_group_name_H-M "P M N A"
_symmetry_group_IT_number 53
_symmetry_cell_setting 'orthorhombic'
loop_
_space_group_symop_operation_xyz
x,y,z
1/2-x,-y,1/2+z
x,-y,-z
1/2-x,y,1/2-z
-x,-y,-z
1/2+x,y,1/2-z
-x,y,z
1/2+x,-y,1/2+z
loop_
_atom_site_type_symbol
_atom_site_label
_atom_site_fract_x
_atom_site_fract_y
_atom_site_fract_z
Si Si1 0.785461 0.926169 0.117938
Si Si2 0.211320 0.156193 0.798168
Si Si3 0.213111 0.435686 0.883391
Si Si4 0.788731 0.641227 0.201797
Si Si5 0.204932 0.440681 0.460629
Si Si6 0.208077 0.244695 0.022291
Si Si7 0.284278 0.948414 0.543377
Si Si8 0.785306 0.744842 0.072629
O O1 0.725368 0.912500 0.166278
O O2 0.736603 0.833768 0.096122
O O3 0.000000 0.932516 0.118611
O O4 0.724161 0.002025 0.085944
O O5 0.250000 0.131092 0.750000
O O6 0.277533 0.257491 0.804649
O O7 0.000000 0.161252 0.802726
O O8 0.272572 0.426020 0.834663
O O9 0.273639 0.509994 0.916022
O O10 0.270587 0.343113 0.903951
O O11 0.000000 0.440543 0.883674
O O12 0.750000 0.615643 0.250000
O O13 0.000000 0.646156 0.197523
O O14 0.281319 0.500000 0.500000
O O15 0.273635 0.340833 0.457349
O O16 0.000000 0.431010 0.470289
O O17 0.275184 0.153616 0.042363
O O18 0.000000 0.229165 0.017787
O O19 0.281001 0.253666 0.975006
O O20 0.500000 0.951578 0.543649
O O21 0.232589 0.000000 0.500000
O O22 0.000000 0.742509 0.072309
#
# Coordination Sequence:
#
# PCOD9414498 Si02
#       8
#     8   8   8   8   8   8   8   8
#     4   9  14  23  40  66  96 121 145 181 226 263
#     4   9  16  26  41  62  91 123 150 179 217 261
#     4  10  18  30  48  68  89 121 161 190 219 267
#     4   9  17  28  44  67  93 121 151 184 223 270
#     4  11  23  34  44  63  92 124 156 191 233 276
#     4  10  18  29  47  68  90 119 154 191 226 265
#     4   9  15  23  41  72  97 112 143 189 228 263
#     4   9  14  22  41  66  92 118 147 183 221 260
#
# _framework density 17.607054999999999
#
# number of rings (size 3 to 8) (size 9 to 14) (size 15 to 20)
#    0.000    2.500    3.750    0.375    0.000    1.000 
#    0.000    0.000    0.000    1.875    0.000    0.875 
#    0.000    2.000    0.000    0.000    0.000    0.000 
#
# Total GULP energy -356572.758631 kJ/mol
# GULP energy per Si atom -5571.449354 kJ/mol
# Density = 1.756698 g / cm^3
# Si number density = 17.607055 Si / 1000 Ang^3
#
#
#
# Elastic Constant Matrix: (Units=GPa)
#
#
# Indices 1 2 3 4 5 6 
#
# 1 32.4838 -4.1657 -4.8400 0.0000 0.0000 0.0000
# 2 -4.1657 114.0778 69.6919 0.0000 0.0000 0.0000
# 3 -4.8400 69.6919 144.0785 0.0000 0.0000 0.0000
# 4 0.0000 0.0000 0.0000 19.8272 0.0000 0.0000
# 5 0.0000 0.0000 0.0000 0.0000 -43.9505 0.0000
# 6 0.0000 0.0000 0.0000 0.0000 0.0000 -1.0785
#
#
#
# Elastic Compliance Matrix: (Units=1/GPa)
#
#
# Indices 1 2 3 4 5 6 
#
# 1 0.030979 0.000703 0.000700 0.000000 0.000000 0.000000
# 2 0.000703 0.012459 -0.006003 0.000000 0.000000 0.000000
# 3 0.000700 -0.006003 0.009868 0.000000 0.000000 0.000000
# 4 0.000000 0.000000 0.000000 0.050436 0.000000 0.000000
# 5 0.000000 0.000000 0.000000 0.000000 -0.022753 0.000000
# 6 0.000000 0.000000 0.000000 0.000000 0.000000 -0.927254
#
#
# Mechanical properties :
#
#
# Convention : Reuss Voigt Hill
#
# Bulk Modulus (GPa) = 22.67175 45.77915 34.22545
# Shear Modulus (GPa) = -6.08003 10.28990 2.10494
#
# Velocity S-wave (km/s) = -1.86029 2.42010 1.09458
# Velocity P-wave (km/s) = 2.87928 5.81946 4.59110
#
# Compressibility (1/GPa) = 0.04410775
#
# Stress axis : x y z
#
# Youngs Moduli (GPa) = 32.27977 80.26428 101.33971
#
# Poissons Ratio (x) = -0.05645 -0.07099
# Poissons Ratio (y) = -0.02270 0.60832
# Poissons Ratio (z) = -0.02261 0.48181
#
# Static dielectric constant tensor:
#      x y z
#    x 1.691360 0.000000 0.000000 
#    y 0.000000 1.597170 0.000000 
#    z 0.000000 0.000000 1.626920 
# 
# From -- ./inp_files/38434.got.cif
#   From: 2010.05.17/outbox.cif.g08.bks.cpg/sg53_20_cif.got.tgz:38434.got - 2010.06.03 12:45:16.
