data_PCOD9414396
_publ_section_title
;
Structure prediction by ZEFSAII (Michael W. Deem and Ramdas Pophale) SiO2 
 PCOD9414396
Probable space group: P M N A
;
_chemical_formula_sum "Si O2"
_cell_formula_units_Z 64
_cell_length_a 14.852767
_cell_length_b 9.782423
_cell_length_c 28.356551
_cell_angle_alpha 90.000000
_cell_angle_beta 90.000000
_cell_angle_gamma 90.000000
_cell_volume 4120.094838
_symmetry_space_group_name_H-M "P M N A"
_symmetry_group_IT_number 53
_symmetry_cell_setting 'orthorhombic'
loop_
_space_group_symop_operation_xyz
x,y,z
1/2-x,-y,1/2+z
x,-y,-z
1/2-x,y,1/2-z
-x,-y,-z
1/2+x,y,1/2-z
-x,y,z
1/2+x,-y,1/2+z
loop_
_atom_site_type_symbol
_atom_site_label
_atom_site_fract_x
_atom_site_fract_y
_atom_site_fract_z
Si Si1 0.099550 0.776495 0.226415
Si Si2 0.394051 0.272016 0.574793
Si Si3 0.602619 0.619076 0.720074
Si Si4 0.706470 0.413470 0.656554
Si Si5 0.890868 0.148054 0.019145
Si Si6 0.661766 0.075592 0.282078
Si Si7 0.106771 0.038169 0.116115
Si Si8 0.897930 0.432215 0.690444
O O1 0.173338 0.706840 0.192673
O O2 0.103921 0.702376 0.276573
O O3 0.000000 0.748633 0.205560
O O4 0.111087 0.937039 0.231884
O O5 0.500000 0.308145 0.576137
O O6 0.337603 0.374199 0.606985
O O7 0.363549 0.258030 0.520130
O O8 0.387064 0.117549 0.596622
O O9 0.500000 0.582844 0.707767
O O10 0.666040 0.549083 0.681190
O O11 0.613004 0.780266 0.723914
O O12 0.620853 0.550944 0.770933
O O13 0.814086 0.423844 0.655636
O O14 0.868498 0.143811 0.074316
O O15 0.000000 0.147040 0.017493
O O16 0.860641 0.000000 0.000000
O O17 0.750000 0.080631 0.250000
O O18 0.668968 0.057962 0.338625
O O19 0.000000 0.058296 0.128502
O O20 0.000000 0.448719 0.671990
#
# Coordination Sequence:
#
# PCOD9414396 Si02
#       8
#     8   8   8   8   8   8   8   8
#     4  10  18  28  42  61  84 112 146 184 221 255
#     4   9  15  24  43  68  89 110 143 181 218 261
#     4  10  20  32  44  59  84 119 154 183 218 264
#     4  11  17  28  46  64  84 112 146 183 221 261
#     4   7  12  23  39  61  87 112 138 174 216 263
#     4  12  21  28  40  62  90 121 153 181 208 253
#     4   9  16  27  42  61  88 118 146 177 219 261
#     4   9  19  32  43  57  84 118 148 181 218 259
#
# _framework density 15.533623
#
# number of rings (size 3 to 8) (size 9 to 14) (size 15 to 20)
#    0.000    2.375    1.250    7.500    0.000    0.000 
#    0.000    0.000    0.000    0.750    0.000    3.500 
#    0.000    7.500    0.000    4.500    0.000    0.125 
#
# Total GULP energy -356331.742261 kJ/mol
# GULP energy per Si atom -5567.683473 kJ/mol
# Density = 1.549827 g / cm^3
# Si number density = 15.533623 Si / 1000 Ang^3
#
#
#
# Elastic Constant Matrix: (Units=GPa)
#
#
# Indices 1 2 3 4 5 6 
#
# 1 47.7828 -2.5564 16.4047 0.0000 0.0000 0.0000
# 2 -2.5564 71.5534 -3.7813 0.0000 0.0000 0.0000
# 3 16.4047 -3.7813 53.7162 0.0000 0.0000 0.0000
# 4 0.0000 0.0000 0.0000 5.3655 0.0000 0.0000
# 5 0.0000 0.0000 0.0000 0.0000 -246.9253 0.0000
# 6 0.0000 0.0000 0.0000 0.0000 0.0000 15.1103
#
#
#
# Elastic Compliance Matrix: (Units=1/GPa)
#
#
# Indices 1 2 3 4 5 6 
#
# 1 0.023394 0.000460 -0.007112 0.000000 0.000000 0.000000
# 2 0.000460 0.014037 0.000848 0.000000 0.000000 0.000000
# 3 -0.007112 0.000848 0.020848 0.000000 0.000000 0.000000
# 4 0.000000 0.000000 0.000000 0.186376 0.000000 0.000000
# 5 0.000000 0.000000 0.000000 0.000000 -0.004050 0.000000
# 6 0.000000 0.000000 0.000000 0.000000 0.000000 0.066180
#
#
# Mechanical properties :
#
#
# Convention : Reuss Voigt Hill
#
# Bulk Modulus (GPa) = 21.42700 21.46516 21.44608
# Shear Modulus (GPa) = 14.97224 -34.42421 -9.72598
#
# Velocity S-wave (km/s) = 3.10798 -4.71266 -2.50496
# Velocity P-wave (km/s) = 5.16752 3.97036 2.33875
#
# Compressibility (1/GPa) = 0.04667010
#
# Stress axis : x y z
#
# Youngs Moduli (GPa) = 42.74536 71.24130 47.96615
#
# Poissons Ratio (x) = -0.03277 0.34114
# Poissons Ratio (y) = -0.01966 -0.04066
# Poissons Ratio (z) = 0.30401 -0.06039
#
# Static dielectric constant tensor:
#      x y z
#    x 1.529660 0.000000 0.000000 
#    y 0.000000 1.546930 0.000000 
#    z 0.000000 0.000000 1.544320 
# 
# From -- ./inp_files/38979.got.cif
#   From: 2010.05.17/outbox.cif.g08.bks.cpg/sg53_20_cif.got.tgz:38979.got - 2010.06.03 12:45:16.
