data_PCOD9414903
_publ_section_title
;
Structure prediction by ZEFSAII (Michael W. Deem and Ramdas Pophale) SiO2 
 PCOD9414903
Probable space group: P M N A
;
_chemical_formula_sum "Si O2"
_cell_formula_units_Z 64
_cell_length_a 17.848652
_cell_length_b 17.358051
_cell_length_c 11.194228
_cell_angle_alpha 90.000000
_cell_angle_beta 90.000000
_cell_angle_gamma 90.000000
_cell_volume 3468.171223
_symmetry_space_group_name_H-M "P M N A"
_symmetry_group_IT_number 53
_symmetry_cell_setting 'orthorhombic'
loop_
_space_group_symop_operation_xyz
x,y,z
1/2-x,-y,1/2+z
x,-y,-z
1/2-x,y,1/2-z
-x,-y,-z
1/2+x,y,1/2-z
-x,y,z
1/2+x,-y,1/2+z
loop_
_atom_site_type_symbol
_atom_site_label
_atom_site_fract_x
_atom_site_fract_y
_atom_site_fract_z
Si Si1 0.090279 0.598281 0.879496
Si Si2 0.145169 0.146791 0.582946
Si Si3 0.911423 0.731420 0.253047
Si Si4 0.678610 0.835324 0.436470
Si Si5 0.912026 0.882809 0.675500
Si Si6 0.162437 0.974272 0.216364
Si Si7 0.167467 0.245207 0.191836
Si Si8 0.589568 0.571146 0.338255
O O1 0.136820 0.669811 0.831885
O O2 0.115858 0.516665 0.822761
O O3 0.000000 0.608011 0.862101
O O4 0.102205 0.592526 0.022720
O O5 0.102231 0.224164 0.622636
O O6 0.232925 0.166622 0.590315
O O7 0.125349 0.112495 0.454788
O O8 0.129250 0.081869 0.681597
O O9 0.866380 0.780268 0.154027
O O10 0.884904 0.642638 0.243074
O O11 0.000000 0.733395 0.225317
O O12 0.656537 0.923736 0.404375
O O13 0.668128 0.803029 0.568490
O O14 0.889628 0.799120 0.722563
O O15 0.000000 0.893408 0.665137
O O16 0.878238 0.945166 0.767114
O O17 0.250000 0.985844 0.250000
O O18 0.250000 0.244448 0.250000
O O19 0.500000 0.566287 0.323147
#
# Coordination Sequence:
#
# PCOD9414903 Si02
#       8
#     8   8   8   8   8   8   8   8
#     4   9  17  33  56  84 114 146 189 244 292 341
#     4  10  21  39  58  85 116 155 193 231 285 354
#     4  10  18  32  60  91 116 147 189 245 295 339
#     4  10  21  39  59  82 114 151 195 240 291 345
#     4  12  25  39  57  86 117 152 192 238 287 343
#     4   9  21  39  61  81 106 146 191 237 289 337
#     4  12  23  38  58  80 116 158 195 234 290 357
#     4   8  15  29  56  87 112 143 186 237 298 346
#
# _framework density 18.453530000000001
#
# number of rings (size 3 to 8) (size 9 to 14) (size 15 to 20)
#    0.000    2.000    2.500    3.375    0.000    4.000 
#    0.000    1.875    0.000    0.750    0.000    3.500 
#    0.000    0.000    0.000    0.000    0.000    0.000 
#
# Total GULP energy -356882.792151 kJ/mol
# GULP energy per Si atom -5576.293627 kJ/mol
# Density = 1.841153 g / cm^3
# Si number density = 18.453530 Si / 1000 Ang^3
#
#
#
# Elastic Constant Matrix: (Units=GPa)
#
#
# Indices 1 2 3 4 5 6 
#
# 1 61.6871 38.3693 18.2894 0.0000 0.0000 0.0000
# 2 38.3693 136.1757 35.3091 0.0000 0.0000 0.0000
# 3 18.2894 35.3091 47.8735 0.0000 0.0000 0.0000
# 4 0.0000 0.0000 0.0000 23.4277 0.0000 0.0000
# 5 0.0000 0.0000 0.0000 0.0000 16.9040 0.0000
# 6 0.0000 0.0000 0.0000 0.0000 0.0000 29.9711
#
#
#
# Elastic Compliance Matrix: (Units=1/GPa)
#
#
# Indices 1 2 3 4 5 6 
#
# 1 0.020375 -0.004603 -0.004389 0.000000 0.000000 0.000000
# 2 -0.004603 0.010120 -0.005705 0.000000 0.000000 0.000000
# 3 -0.004389 -0.005705 0.026773 0.000000 0.000000 0.000000
# 4 0.000000 0.000000 0.000000 0.042685 0.000000 0.000000
# 5 0.000000 0.000000 0.000000 0.000000 0.059158 0.000000
# 6 0.000000 0.000000 0.000000 0.000000 0.000000 0.033365
#
#
# Mechanical properties :
#
#
# Convention : Reuss Voigt Hill
#
# Bulk Modulus (GPa) = 35.87669 47.74134 41.80901
# Shear Modulus (GPa) = 21.62988 24.31178 22.97083
#
# Velocity S-wave (km/s) = 3.42735 3.63362 3.53199
# Velocity P-wave (km/s) = 5.92842 6.59784 6.27207
#
# Compressibility (1/GPa) = 0.02787325
#
# Stress axis : x y z
#
# Youngs Moduli (GPa) = 49.07934 98.81690 37.35078
#
# Poissons Ratio (x) = 0.45484 0.16394
# Poissons Ratio (y) = 0.22591 0.21310
# Poissons Ratio (z) = 0.21542 0.56378
#
# Static dielectric constant tensor:
#      x y z
#    x 1.612550 0.000000 0.000000 
#    y 0.000000 1.667310 0.000000 
#    z 0.000000 0.000000 1.641120 
# 
# From -- ./inp_files/16246.got.cif
#   From: 2010.05.17/outbox.cif.g08.bks.cpg/sg53_9_cif.got.tgz:16246.got - 2010.06.03 12:45:16.
