data_PCOD9414690
_publ_section_title
;
Structure prediction by ZEFSAII (Michael W. Deem and Ramdas Pophale) SiO2 
 PCOD9414690
Probable space group: P M N A
;
_chemical_formula_sum "Si O2"
_cell_formula_units_Z 64
_cell_length_a 9.079448
_cell_length_b 19.248121
_cell_length_c 21.754669
_cell_angle_alpha 90.000000
_cell_angle_beta 90.000000
_cell_angle_gamma 90.000000
_cell_volume 3801.896289
_symmetry_space_group_name_H-M "P M N A"
_symmetry_group_IT_number 53
_symmetry_cell_setting 'orthorhombic'
loop_
_space_group_symop_operation_xyz
x,y,z
1/2-x,-y,1/2+z
x,-y,-z
1/2-x,y,1/2-z
-x,-y,-z
1/2+x,y,1/2-z
-x,y,z
1/2+x,-y,1/2+z
loop_
_atom_site_type_symbol
_atom_site_label
_atom_site_fract_x
_atom_site_fract_y
_atom_site_fract_z
Si Si1 0.171507 0.820686 0.017920
Si Si2 0.824846 0.975968 0.816168
Si Si3 0.827066 0.713946 0.688933
Si Si4 0.822917 0.043458 0.562856
Si Si5 0.170521 0.540919 0.065516
Si Si6 0.675538 0.412422 0.114946
Si Si7 0.175248 0.329578 0.513086
Si Si8 0.165736 0.827752 0.875312
O O1 0.263198 0.878348 0.054268
O O2 0.241961 0.743745 0.019469
O O3 0.000000 0.818120 0.037207
O O4 0.173441 0.845927 0.946908
O O5 0.750000 0.990624 0.750000
O O6 0.809881 0.894190 0.832652
O O7 0.000000 0.991597 0.813955
O O8 0.749933 0.013038 0.875036
O O9 0.750000 0.738834 0.750000
O O10 0.775510 0.637376 0.669927
O O11 0.783494 0.768651 0.637260
O O12 0.000000 0.711818 0.696517
O O13 0.000000 0.041777 0.568401
O O14 0.785000 0.000000 0.500000
O O15 0.240913 0.484805 0.111017
O O16 0.260915 0.611967 0.059059
O O17 0.000000 0.555133 0.078511
O O18 0.178019 0.500000 0.000000
O O19 0.500000 0.424674 0.117689
O O20 0.700716 0.365499 0.053703
O O21 0.000000 0.320364 0.520337
O O22 0.000000 0.800373 0.863474
#
# Coordination Sequence:
#
# PCOD9414690 Si02
#       8
#     8   8   8   8   8   8   8   8
#     4  11  21  34  54  80 110 143 180 223 274 327
#     4  11  23  40  59  82 110 145 187 232 281 331
#     4  11  22  34  48  69 100 139 183 224 265 313
#     4  11  23  38  58  83 111 145 185 229 279 336
#     4   9  17  28  45  70  96 126 163 204 250 301
#     4   9  18  31  46  66  95 133 171 212 259 307
#     4  10  18  31  49  72 102 134 169 209 258 314
#     4  10  21  35  53  76 105 143 182 223 270 321
#
# _framework density 16.833704000000001
#
# number of rings (size 3 to 8) (size 9 to 14) (size 15 to 20)
#    0.000    1.750    2.500    2.625    0.000    6.000 
#    0.000    0.000    0.000    0.000    0.000    0.875 
#    0.000    2.000    0.000    0.000    0.000    0.000 
#
# Total GULP energy -356893.845580 kJ/mol
# GULP energy per Si atom -5576.466337 kJ/mol
# Density = 1.679539 g / cm^3
# Si number density = 16.833704 Si / 1000 Ang^3
#
#
#
# Elastic Constant Matrix: (Units=GPa)
#
#
# Indices 1 2 3 4 5 6 
#
# 1 83.4236 51.4170 39.2238 0.0000 0.0000 0.0000
# 2 51.4170 87.1542 30.1913 0.0000 0.0000 0.0000
# 3 39.2238 30.1913 64.7112 0.0000 0.0000 0.0000
# 4 0.0000 0.0000 0.0000 19.4429 0.0000 0.0000
# 5 0.0000 0.0000 0.0000 0.0000 18.5926 0.0000
# 6 0.0000 0.0000 0.0000 0.0000 0.0000 30.3708
#
#
#
# Elastic Compliance Matrix: (Units=1/GPa)
#
#
# Indices 1 2 3 4 5 6 
#
# 1 0.022402 -0.010153 -0.008842 0.000000 0.000000 0.000000
# 2 -0.010153 0.018288 -0.002378 0.000000 0.000000 0.000000
# 3 -0.008842 -0.002378 0.021922 0.000000 0.000000 0.000000
# 4 0.000000 0.000000 0.000000 0.051433 0.000000 0.000000
# 5 0.000000 0.000000 0.000000 0.000000 0.053785 0.000000
# 6 0.000000 0.000000 0.000000 0.000000 0.000000 0.032926
#
#
# Mechanical properties :
#
#
# Convention : Reuss Voigt Hill
#
# Bulk Modulus (GPa) = 50.33739 52.99480 51.66609
# Shear Modulus (GPa) = 19.99018 21.31172 20.65095
#
# Velocity S-wave (km/s) = 3.44976 3.56197 3.50632
# Velocity P-wave (km/s) = 6.77019 6.96179 6.86666
#
# Compressibility (1/GPa) = 0.01986595
#
# Stress axis : x y z
#
# Youngs Moduli (GPa) = 44.63900 54.68183 45.61653
#
# Poissons Ratio (x) = 0.55520 0.40332
# Poissons Ratio (y) = 0.45323 0.10847
# Poissons Ratio (z) = 0.39468 0.13003
#
# Static dielectric constant tensor:
#      x y z
#    x 1.566590 0.000000 0.000000 
#    y 0.000000 1.560760 0.000000 
#    z 0.000000 0.000000 1.579130 
# 
# From -- ./inp_files/31140.got.cif
#   From: 2010.05.17/outbox.cif.g08.bks.cpg/sg53_16_cif.got.tgz:31140.got - 2010.06.03 12:45:16.
