data_PCOD9414165
_publ_section_title
;
Structure prediction by ZEFSAII (Michael W. Deem and Ramdas Pophale) SiO2 
 PCOD9414165
Probable space group: P M N A
;
_chemical_formula_sum "Si O2"
_cell_formula_units_Z 64
_cell_length_a 15.376268
_cell_length_b 11.284219
_cell_length_c 22.191595
_cell_angle_alpha 90.000000
_cell_angle_beta 90.000000
_cell_angle_gamma 90.000000
_cell_volume 3850.445352
_symmetry_space_group_name_H-M "P M N A"
_symmetry_group_IT_number 53
_symmetry_cell_setting 'orthorhombic'
loop_
_space_group_symop_operation_xyz
x,y,z
1/2-x,-y,1/2+z
x,-y,-z
1/2-x,y,1/2-z
-x,-y,-z
1/2+x,y,1/2-z
-x,y,z
1/2+x,-y,1/2+z
loop_
_atom_site_type_symbol
_atom_site_label
_atom_site_fract_x
_atom_site_fract_y
_atom_site_fract_z
Si Si1 0.598001 0.265729 0.151693
Si Si2 0.100221 0.141268 0.998113
Si Si3 0.752129 0.480890 0.933764
Si Si4 0.906884 0.553310 0.358806
Si Si5 0.601806 0.316992 0.604861
Si Si6 0.398305 0.298516 0.291539
Si Si7 0.220940 0.751071 0.898731
Si Si8 0.650191 0.572677 0.271200
O O1 0.500000 0.222982 0.137426
O O2 0.596283 0.409109 0.142774
O O3 0.614490 0.253001 0.223272
O O4 0.678826 0.213439 0.114389
O O5 0.113562 0.193261 0.930563
O O6 0.000000 0.175195 0.015197
O O7 0.170670 0.193772 0.044595
O O8 0.105839 0.000000 0.000000
O O9 0.679581 0.413833 0.894640
O O10 0.840450 0.407437 0.933907
O O11 0.773410 0.609589 0.908104
O O12 0.715713 0.500000 0.000000
O O13 0.901467 0.597208 0.290220
O O14 0.000000 0.588405 0.385590
O O15 0.500000 0.346288 0.603684
O O16 0.632925 0.338355 0.673626
O O17 0.500000 0.286138 0.306856
O O18 0.337118 0.233151 0.339003
O O19 0.375762 0.439230 0.291137
O O20 0.750000 0.570147 0.250000
#
# Coordination Sequence:
#
# PCOD9414165 Si02
#       8
#     8   8   8   8   8   8   8   8
#     4   8  16  28  43  70 105 136 164 196 239 295
#     4  10  23  40  54  70  94 129 171 213 260 311
#     4  11  20  30  45  76 108 133 167 205 249 297
#     4   9  17  29  44  67 106 146 170 191 232 299
#     4  11  21  33  51  74 103 134 166 208 256 303
#     4  10  17  25  42  74 110 138 165 193 240 302
#     4  11  18  29  51  71 100 135 167 204 246 297
#     4  11  17  28  47  72 108 140 164 198 244 306
#
# _framework density 16.621454
#
# number of rings (size 3 to 8) (size 9 to 14) (size 15 to 20)
#    0.000    1.875    3.750    4.125    0.000    1.000 
#    0.000    0.000    0.000    1.875    0.000    0.000 
#    0.000    0.000    0.000    0.000    0.000    0.000 
#
# Total GULP energy -356400.128047 kJ/mol
# GULP energy per Si atom -5568.752001 kJ/mol
# Density = 1.658362 g / cm^3
# Si number density = 16.621454 Si / 1000 Ang^3
#
#
#
# Elastic Constant Matrix: (Units=GPa)
#
#
# Indices 1 2 3 4 5 6 
#
# 1 125.9094 22.4473 43.9181 0.0000 0.0000 0.0000
# 2 22.4473 27.1454 13.6210 0.0000 0.0000 0.0000
# 3 43.9181 13.6210 75.5878 0.0000 0.0000 0.0000
# 4 0.0000 0.0000 0.0000 9.6179 0.0000 0.0000
# 5 0.0000 0.0000 0.0000 0.0000 19.8951 0.0000
# 6 0.0000 0.0000 0.0000 0.0000 0.0000 5.3487
#
#
#
# Elastic Compliance Matrix: (Units=1/GPa)
#
#
# Indices 1 2 3 4 5 6 
#
# 1 0.010889 -0.006409 -0.005172 0.000000 0.000000 0.000000
# 2 -0.006409 0.044273 -0.004254 0.000000 0.000000 0.000000
# 3 -0.005172 -0.004254 0.017001 0.000000 0.000000 0.000000
# 4 0.000000 0.000000 0.000000 0.103973 0.000000 0.000000
# 5 0.000000 0.000000 0.000000 0.000000 0.050264 0.000000
# 6 0.000000 0.000000 0.000000 0.000000 0.000000 0.186963
#
#
# Mechanical properties :
#
#
# Convention : Reuss Voigt Hill
#
# Bulk Modulus (GPa) = 24.69564 43.17947 33.93756
# Shear Modulus (GPa) = 10.90441 16.88274 13.89358
#
# Velocity S-wave (km/s) = 2.56411 3.19049 2.89430
# Velocity P-wave (km/s) = 4.86376 6.29340 5.62419
#
# Compressibility (1/GPa) = 0.04049298
#
# Stress axis : x y z
#
# Youngs Moduli (GPa) = 91.83776 22.58700 58.81968
#
# Poissons Ratio (x) = 0.14476 0.30420
# Poissons Ratio (y) = 0.58860 0.25023
# Poissons Ratio (z) = 0.47495 0.09609
#
# Static dielectric constant tensor:
#      x y z
#    x 1.605200 0.000000 0.000000 
#    y 0.000000 1.523910 0.000000 
#    z 0.000000 0.000000 1.602850 
# 
# From -- ./inp_files/35334.got.cif
#   From: 2010.05.17/outbox.cif.g08.bks.cpg/sg53_18_cif.got.tgz:35334.got - 2010.06.03 12:45:16.
