data_PCOD9414900
_publ_section_title
;
Structure prediction by ZEFSAII (Michael W. Deem and Ramdas Pophale) SiO2 
 PCOD9414900
Probable space group: P M N A
;
_chemical_formula_sum "Si O2"
_cell_formula_units_Z 40
_cell_length_a 27.168088
_cell_length_b 4.961919
_cell_length_c 14.019876
_cell_angle_alpha 90.000000
_cell_angle_beta 90.000000
_cell_angle_gamma 90.000000
_cell_volume 1889.961330
_symmetry_space_group_name_H-M "P M N A"
_symmetry_group_IT_number 53
_symmetry_cell_setting 'orthorhombic'
loop_
_space_group_symop_operation_xyz
x,y,z
1/2-x,-y,1/2+z
x,-y,-z
1/2-x,y,1/2-z
-x,-y,-z
1/2+x,y,1/2-z
-x,y,z
1/2+x,-y,1/2+z
loop_
_atom_site_type_symbol
_atom_site_label
_atom_site_fract_x
_atom_site_fract_y
_atom_site_fract_z
Si Si1 0.074749 0.739547 0.066422
Si Si2 0.688273 0.355695 0.591945
Si Si3 0.591177 0.951994 0.229581
Si Si4 0.199175 0.862366 0.798734
Si Si5 0.057424 0.471143 0.386434
O O1 0.129298 0.629160 0.086090
O O2 0.062502 0.860191 0.172428
O O3 0.051848 0.500000 0.000000
O O4 0.075312 0.000000 0.000000
O O5 0.710196 0.500000 0.500000
O O6 0.701018 0.546179 0.680331
O O7 0.699643 0.045381 0.606476
O O8 0.646469 0.056246 0.253433
O O9 0.566083 0.183636 0.164912
O O10 0.591769 0.683654 0.166987
O O11 0.250000 0.939481 0.750000
O O12 0.066268 0.500000 0.500000
O O13 0.000000 0.544884 0.371527
#
# Coordination Sequence:
#
# PCOD9414900 Si02
#       5
#     8   8   8   8   8
#     4  10  18  32  58  90 117 149 192 235 286 356
#     4  10  18  33  53  76 107 149 199 234 268 338
#     4  11  21  39  64  88 119 159 199 250 309 363
#     4  11  22  36  54  84 121 154 190 238 300 364
#     4  11  24  43  66  90 116 156 213 266 313 363
#
# _framework density 21.164455
#
# number of rings (size 3 to 8) (size 9 to 14) (size 15 to 20)
#    0.000    1.400    0.000   10.800    0.000    1.600 
#    0.000    6.000    0.000   12.000    0.000    0.000 
#    0.000    0.000    0.000    0.000    0.000    0.000 
#
# Total GULP energy -222731.870466 kJ/mol
# GULP energy per Si atom -5568.296762 kJ/mol
# Density = 2.111628 g / cm^3
# Si number density = 21.164455 Si / 1000 Ang^3
#
#
#
# Elastic Constant Matrix: (Units=GPa)
#
#
# Indices 1 2 3 4 5 6 
#
# 1 67.8615 15.7353 31.2541 0.0000 0.0000 0.0000
# 2 15.7353 100.5144 38.7405 0.0000 0.0000 0.0000
# 3 31.2541 38.7405 134.9113 0.0000 0.0000 0.0000
# 4 0.0000 0.0000 0.0000 44.5847 0.0000 0.0000
# 5 0.0000 0.0000 0.0000 0.0000 -40.6486 0.0000
# 6 0.0000 0.0000 0.0000 0.0000 0.0000 -47.8049
#
#
#
# Elastic Compliance Matrix: (Units=1/GPa)
#
#
# Indices 1 2 3 4 5 6 
#
# 1 0.016636 -0.001258 -0.003493 0.000000 0.000000 0.000000
# 2 -0.001258 0.011282 -0.002948 0.000000 0.000000 0.000000
# 3 -0.003493 -0.002948 0.009068 0.000000 0.000000 0.000000
# 4 0.000000 0.000000 0.000000 0.022429 0.000000 0.000000
# 5 0.000000 0.000000 0.000000 0.000000 -0.024601 0.000000
# 6 0.000000 0.000000 0.000000 0.000000 0.000000 -0.020918
#
#
# Mechanical properties :
#
#
# Convention : Reuss Voigt Hill
#
# Bulk Modulus (GPa) = 46.32191 52.74967 49.53579
# Shear Modulus (GPa) = 137.02214 5.73007 71.37611
#
# Velocity S-wave (km/s) = 8.05495 1.64720 5.81358
# Velocity P-wave (km/s) = 10.41363 5.34748 8.27766
#
# Compressibility (1/GPa) = 0.02158806
#
# Stress axis : x y z
#
# Youngs Moduli (GPa) = 60.10970 88.63597 110.27766
#
# Poissons Ratio (x) = 0.11152 0.38517
# Poissons Ratio (y) = 0.07563 0.32512
# Poissons Ratio (z) = 0.20995 0.26132
#
# Static dielectric constant tensor:
#      x y z
#    x 1.750210 0.000000 0.000000 
#    y 0.000000 1.794540 0.000000 
#    z 0.000000 0.000000 1.906730 
# 
# From -- ./inp_files/18927.got.cif
#   From: 2010.05.17/outbox.cif.g08.bks.cpg/sg53_10_cif.got.tgz:18927.got - 2010.06.03 12:45:16.
