data_PCOD9414977
_publ_section_title
;
Structure prediction by ZEFSAII (Michael W. Deem and Ramdas Pophale) SiO2 
 PCOD9414977
Probable space group: P M N A
;
_chemical_formula_sum "Si O2"
_cell_formula_units_Z 60
_cell_length_a 23.838752
_cell_length_b 14.369383
_cell_length_c 9.581128
_cell_angle_alpha 90.000000
_cell_angle_beta 90.000000
_cell_angle_gamma 90.000000
_cell_volume 3281.997745
_symmetry_space_group_name_H-M "P M N A"
_symmetry_group_IT_number 53
_symmetry_cell_setting 'orthorhombic'
loop_
_space_group_symop_operation_xyz
x,y,z
1/2-x,-y,1/2+z
x,-y,-z
1/2-x,y,1/2-z
-x,-y,-z
1/2+x,y,1/2-z
-x,y,z
1/2+x,-y,1/2+z
loop_
_atom_site_type_symbol
_atom_site_label
_atom_site_fract_x
_atom_site_fract_y
_atom_site_fract_z
Si Si1 0.935132 0.477591 0.346783
Si Si2 0.864778 0.999005 0.701213
Si Si3 0.434805 0.172133 0.173015
Si Si4 0.434173 0.323230 0.698601
Si Si5 0.863268 0.205927 0.584895
Si Si6 0.681095 0.000000 0.500000
Si Si7 0.568041 0.324785 0.375394
Si Si8 0.269581 0.147470 0.100606
O O1 0.909753 0.500000 0.500000
O O2 0.935765 0.574455 0.264720
O O3 0.911489 0.400804 0.238438
O O4 0.000000 0.447552 0.374391
O O5 0.866189 0.097629 0.627948
O O6 0.918481 0.935350 0.675978
O O7 0.813593 0.933627 0.648319
O O8 0.855283 0.015300 0.863623
O O9 0.500000 0.184624 0.158512
O O10 0.415940 0.224261 0.313507
O O11 0.405136 0.221220 0.043688
O O12 0.500000 0.287562 0.705332
O O13 0.388840 0.264331 0.787455
O O14 0.416070 0.332016 0.536877
O O15 0.801897 0.212971 0.510674
O O16 0.719880 0.909596 0.527302
O O17 0.500000 0.333489 0.377351
O O18 0.250000 0.189851 0.250000
#
# Coordination Sequence:
#
# PCOD9414977 Si02
#       8
#     8   8   8   8   8   4   8   8
#     4   9  16  29  50  73  95 136 188 221 253 295
#     4  10  21  31  51  75  98 136 176 215 260 316
#     4  10  20  34  48  67 102 146 182 216 251 301
#     4  10  20  31  47  73 108 145 178 219 260 305
#     4  11  20  32  49  75 100 135 180 216 256 321
#     4  10  18  34  53  70  97 130 158 222 284 306
#     4   9  18  32  48  68 101 143 186 221 256 297
#     4   9  17  33  52  72  94 128 168 212 273 313
#
# _framework density 18.281548000000001
#
# number of rings (size 3 to 8) (size 9 to 14) (size 15 to 20)
#    0.000    2.267    1.333    2.800    1.867    5.333 
#    0.000    0.333    0.000    0.000    0.000    0.000 
#    0.000    0.000  131.467    0.000    1.067    0.000 
#
# Total GULP energy -334124.637947 kJ/mol
# GULP energy per Si atom -5568.743966 kJ/mol
# Density = 1.823994 g / cm^3
# Si number density = 18.281548 Si / 1000 Ang^3
#
#
#
# Elastic Constant Matrix: (Units=GPa)
#
#
# Indices 1 2 3 4 5 6 
#
# 1 25.8061 10.4309 25.8447 0.0000 0.0000 0.0000
# 2 10.4309 37.8176 21.4888 0.0000 0.0000 0.0000
# 3 25.8447 21.4888 157.5761 0.0000 0.0000 0.0000
# 4 0.0000 0.0000 0.0000 30.6050 0.0000 0.0000
# 5 0.0000 0.0000 0.0000 0.0000 28.2156 0.0000
# 6 0.0000 0.0000 0.0000 0.0000 0.0000 8.7926
#
#
#
# Elastic Compliance Matrix: (Units=1/GPa)
#
#
# Indices 1 2 3 4 5 6 
#
# 1 0.049505 -0.009800 -0.006783 0.000000 0.000000 0.000000
# 2 -0.009800 0.030604 -0.002566 0.000000 0.000000 0.000000
# 3 -0.006783 -0.002566 0.007809 0.000000 0.000000 0.000000
# 4 0.000000 0.000000 0.000000 0.032674 0.000000 0.000000
# 5 0.000000 0.000000 0.000000 0.000000 0.035441 0.000000
# 6 0.000000 0.000000 0.000000 0.000000 0.000000 0.113731
#
#
# Mechanical properties :
#
#
# Convention : Reuss Voigt Hill
#
# Bulk Modulus (GPa) = 20.15370 37.41429 28.78399
# Shear Modulus (GPa) = 15.40342 24.41835 19.91089
#
# Velocity S-wave (km/s) = 2.90585 3.65866 3.30377
# Velocity P-wave (km/s) = 4.72299 6.19337 5.50747
#
# Compressibility (1/GPa) = 0.04961869
#
# Stress axis : x y z
#
# Youngs Moduli (GPa) = 20.19999 32.67552 128.06399
#
# Poissons Ratio (x) = 0.32023 0.86866
# Poissons Ratio (y) = 0.19797 0.32862
# Poissons Ratio (z) = 0.13702 0.08385
#
# Static dielectric constant tensor:
#      x y z
#    x 1.649370 0.000000 0.000000 
#    y 0.000000 1.635570 0.000000 
#    z 0.000000 0.000000 1.685260 
# 
# From -- ./inp_files/12596.got.cif
#   From: 2010.05.17/outbox.cif.g08.bks.cpg/sg53_7_cif.got.tgz:12596.got - 2010.06.03 12:45:16.
