data_PCOD9414604
_publ_section_title
;
Structure prediction by ZEFSAII (Michael W. Deem and Ramdas Pophale) SiO2 
 PCOD9414604
Probable space group: P M N A
;
_chemical_formula_sum "Si O2"
_cell_formula_units_Z 56
_cell_length_a 8.685295
_cell_length_b 17.164502
_cell_length_c 23.224602
_cell_angle_alpha 90.000000
_cell_angle_beta 90.000000
_cell_angle_gamma 90.000000
_cell_volume 3462.294947
_symmetry_space_group_name_H-M "P M N A"
_symmetry_group_IT_number 53
_symmetry_cell_setting 'orthorhombic'
loop_
_space_group_symop_operation_xyz
x,y,z
1/2-x,-y,1/2+z
x,-y,-z
1/2-x,y,1/2-z
-x,-y,-z
1/2+x,y,1/2-z
-x,y,z
1/2+x,-y,1/2+z
loop_
_atom_site_type_symbol
_atom_site_label
_atom_site_fract_x
_atom_site_fract_y
_atom_site_fract_z
Si Si1 0.816900 0.372913 0.517890
Si Si2 0.817080 0.950037 0.945341
Si Si3 0.818101 0.490311 0.077752
Si Si4 0.680602 0.767046 0.540360
Si Si5 0.316375 0.924334 0.687223
Si Si6 0.179480 0.596781 0.804032
Si Si7 0.321289 0.758003 0.837343
O O1 0.759289 0.425561 0.570699
O O2 0.759593 0.427801 0.465172
O O3 0.736979 0.289177 0.510349
O O4 0.000000 0.365421 0.517155
O O5 0.802017 0.859870 0.964892
O O6 0.762085 0.955743 0.877365
O O7 0.000000 0.967626 0.941567
O O8 0.754206 0.000000 0.000000
O O9 0.800433 0.454615 0.140048
O O10 0.000000 0.495861 0.064769
O O11 0.500000 0.750956 0.552648
O O12 0.783747 0.746540 0.595389
O O13 0.250000 0.951819 0.750000
O O14 0.500000 0.934623 0.688966
O O15 0.276133 0.832385 0.683057
O O16 0.250000 0.553285 0.750000
O O17 0.270994 0.677323 0.809969
O O18 0.000000 0.614684 0.797070
O O19 0.500000 0.774685 0.827517
#
# Coordination Sequence:
#
# PCOD9414604 Si02
#       7
#     8   8   8   8   8   8   8
#     4  11  20  30  48  70  94 122 156 198 240 281
#     4   8  16  31  51  74  98 127 163 204 245 289
#     4  10  20  33  48  65  91 123 159 200 240 280
#     4  10  18  30  49  71  97 126 159 197 242 293
#     4  10  19  31  48  69  97 129 163 198 237 290
#     4  11  22  33  46  63  90 125 161 198 239 284
#     4  11  20  30  45  65  94 126 163 199 231 278
#
# _framework density 16.174244000000002
#
# number of rings (size 3 to 8) (size 9 to 14) (size 15 to 20)
#    0.000    1.857    1.429    6.429    0.000    1.714 
#    0.000    0.000    0.000   15.429    0.000    1.000 
#    0.000    2.286    0.000    0.000    0.000    0.000 
#
# Total GULP energy -311872.892992 kJ/mol
# GULP energy per Si atom -5569.158803 kJ/mol
# Density = 1.613743 g / cm^3
# Si number density = 16.174244 Si / 1000 Ang^3
#
#
#
# Elastic Constant Matrix: (Units=GPa)
#
#
# Indices 1 2 3 4 5 6 
#
# 1 55.8594 14.4008 25.6750 0.0000 0.0000 0.0000
# 2 14.4008 35.7440 35.4350 0.0000 0.0000 0.0000
# 3 25.6750 35.4350 93.9338 0.0000 0.0000 0.0000
# 4 0.0000 0.0000 0.0000 7.2041 0.0000 0.0000
# 5 0.0000 0.0000 0.0000 0.0000 23.1707 0.0000
# 6 0.0000 0.0000 0.0000 0.0000 0.0000 13.7640
#
#
#
# Elastic Compliance Matrix: (Units=1/GPa)
#
#
# Indices 1 2 3 4 5 6 
#
# 1 0.020900 -0.004404 -0.004051 0.000000 0.000000 0.000000
# 2 -0.004404 0.045617 -0.016005 0.000000 0.000000 0.000000
# 3 -0.004051 -0.016005 0.017791 0.000000 0.000000 0.000000
# 4 0.000000 0.000000 0.000000 0.138810 0.000000 0.000000
# 5 0.000000 0.000000 0.000000 0.000000 0.043158 0.000000
# 6 0.000000 0.000000 0.000000 0.000000 0.000000 0.072653
#
#
# Mechanical properties :
#
#
# Convention : Reuss Voigt Hill
#
# Bulk Modulus (GPa) = 28.25831 37.39542 32.82687
# Shear Modulus (GPa) = 12.51113 16.16287 14.33700
#
# Velocity S-wave (km/s) = 2.78424 3.16459 2.98049
# Velocity P-wave (km/s) = 5.27685 6.04346 5.67312
#
# Compressibility (1/GPa) = 0.03538782
#
# Stress axis : x y z
#
# Youngs Moduli (GPa) = 47.84803 21.92146 56.20951
#
# Poissons Ratio (x) = 0.09654 0.22771
# Poissons Ratio (y) = 0.21073 0.89961
# Poissons Ratio (z) = 0.19384 0.35085
#
# Static dielectric constant tensor:
#      x y z
#    x 1.550550 0.000000 0.000000 
#    y 0.000000 1.538190 0.000000 
#    z 0.000000 0.000000 1.575330 
# 
# From -- ./inp_files/30996.got.cif
#   From: 2010.05.17/outbox.cif.g08.bks.cpg/sg53_16_cif.got.tgz:30996.got - 2010.06.03 12:45:16.
