data_PCOD9414887
_publ_section_title
;
Structure prediction by ZEFSAII (Michael W. Deem and Ramdas Pophale) SiO2 
 PCOD9414887
Probable space group: P M N A
;
_chemical_formula_sum "Si O2"
_cell_formula_units_Z 40
_cell_length_a 25.988279
_cell_length_b 7.104401
_cell_length_c 9.246424
_cell_angle_alpha 90.000000
_cell_angle_beta 90.000000
_cell_angle_gamma 90.000000
_cell_volume 1707.177946
_symmetry_space_group_name_H-M "P M N A"
_symmetry_group_IT_number 53
_symmetry_cell_setting 'orthorhombic'
loop_
_space_group_symop_operation_xyz
x,y,z
1/2-x,-y,1/2+z
x,-y,-z
1/2-x,y,1/2-z
-x,-y,-z
1/2+x,y,1/2-z
-x,y,z
1/2+x,-y,1/2+z
loop_
_atom_site_type_symbol
_atom_site_label
_atom_site_fract_x
_atom_site_fract_y
_atom_site_fract_z
Si Si1 0.214874 0.783970 0.017570
Si Si2 0.115870 0.366727 0.135545
Si Si3 0.443003 0.988972 0.673216
Si Si4 0.181559 0.721018 0.612209
Si Si5 0.340661 0.148882 0.798222
O O1 0.199246 0.759128 0.184918
O O2 0.160113 0.751056 0.945245
O O3 0.258880 0.676301 0.927003
O O4 0.229914 0.000000 0.000000
O O5 0.071913 0.229781 0.195679
O O6 0.148729 0.413966 0.281727
O O7 0.098729 0.500000 0.000000
O O8 0.500000 0.034603 0.727817
O O9 0.442971 0.000000 0.500000
O O10 0.398093 0.121484 0.735116
O O11 0.158222 0.752307 0.453024
O O12 0.178309 0.932342 0.678935
#
# Coordination Sequence:
#
# PCOD9414887 Si02
#       5
#     8   8   8   8   8
#     4  12  18  34  61  86 114 156 205 249 302 355
#     4  11  23  39  54  80 127 165 200 245 298 383
#     4  10  19  36  63  89 109 146 209 266 315 362
#     4  10  21  31  58  88 118 153 200 249 305 364
#     4  10  18  32  56  93 113 145 192 265 313 348
#
# _framework density 23.430481
#
# number of rings (size 3 to 8) (size 9 to 14) (size 15 to 20)
#    0.000    1.400    8.000    1.200    0.000    0.400 
#    0.000   13.000    0.000    0.000    0.000    2.800 
#    0.000    0.000    0.000    0.000    0.000    0.400 
#
# Total GULP energy -222945.949872 kJ/mol
# GULP energy per Si atom -5573.648747 kJ/mol
# Density = 2.337715 g / cm^3
# Si number density = 23.430481 Si / 1000 Ang^3
#
#
#
# Elastic Constant Matrix: (Units=GPa)
#
#
# Indices 1 2 3 4 5 6 
#
# 1 147.9410 -15.9784 28.3941 0.0000 0.0000 0.0000
# 2 -15.9784 22.4943 12.7183 0.0000 0.0000 0.0000
# 3 28.3941 12.7183 158.6890 0.0000 0.0000 0.0000
# 4 0.0000 0.0000 0.0000 40.9932 0.0000 0.0000
# 5 0.0000 0.0000 0.0000 0.0000 -5.7785 0.0000
# 6 0.0000 0.0000 0.0000 0.0000 0.0000 -1.5836
#
#
#
# Elastic Compliance Matrix: (Units=1/GPa)
#
#
# Indices 1 2 3 4 5 6 
#
# 1 0.007853 0.006675 -0.001940 0.000000 0.000000 0.000000
# 2 0.006675 0.052240 -0.005381 0.000000 0.000000 0.000000
# 3 -0.001940 -0.005381 0.007080 0.000000 0.000000 0.000000
# 4 0.000000 0.000000 0.000000 0.024394 0.000000 0.000000
# 5 0.000000 0.000000 0.000000 0.000000 -0.173055 0.000000
# 6 0.000000 0.000000 0.000000 0.000000 0.000000 -0.631457
#
#
# Mechanical properties :
#
#
# Convention : Reuss Voigt Hill
#
# Bulk Modulus (GPa) = 15.17913 42.15470 28.66692
# Shear Modulus (GPa) = -7.24960 26.99223 9.87131
#
# Velocity S-wave (km/s) = -1.76091 3.39781 2.05479
# Velocity P-wave (km/s) = 1.53558 5.78135 4.22978
#
# Compressibility (1/GPa) = 0.06587995
#
# Stress axis : x y z
#
# Youngs Moduli (GPa) = 127.34421 19.14254 141.24214
#
# Poissons Ratio (x) = -0.12778 0.27402
# Poissons Ratio (y) = -0.85001 0.76004
# Poissons Ratio (z) = 0.24705 0.10301
#
# Static dielectric constant tensor:
#      x y z
#    x 1.878280 0.000000 0.000000 
#    y 0.000000 2.070230 0.000000 
#    z 0.000000 0.000000 2.047950 
# 
# From -- ./inp_files/12233.got.cif
#   From: 2010.05.17/outbox.cif.g08.bks.cpg/sg53_7_cif.got.tgz:12233.got - 2010.06.03 12:45:16.
