data_PCOD9414790
_publ_section_title
;
Structure prediction by ZEFSAII (Michael W. Deem and Ramdas Pophale) SiO2 
 PCOD9414790
Probable space group: P M N A
;
_chemical_formula_sum "Si O2"
_cell_formula_units_Z 64
_cell_length_a 17.181424
_cell_length_b 22.347212
_cell_length_c 8.926066
_cell_angle_alpha 90.000000
_cell_angle_beta 90.000000
_cell_angle_gamma 90.000000
_cell_volume 3427.224850
_symmetry_space_group_name_H-M "P M N A"
_symmetry_group_IT_number 53
_symmetry_cell_setting 'orthorhombic'
loop_
_space_group_symop_operation_xyz
x,y,z
1/2-x,-y,1/2+z
x,-y,-z
1/2-x,y,1/2-z
-x,-y,-z
1/2+x,y,1/2-z
-x,y,z
1/2+x,-y,1/2+z
loop_
_atom_site_type_symbol
_atom_site_label
_atom_site_fract_x
_atom_site_fract_y
_atom_site_fract_z
Si Si1 0.251298 0.725186 0.421961
Si Si2 0.587971 0.934416 0.574904
Si Si3 0.771476 0.865088 0.076633
Si Si4 0.165748 0.649473 0.831757
Si Si5 0.319237 0.049005 0.131926
Si Si6 0.168569 0.514727 0.832283
Si Si7 0.091575 0.685781 0.545555
Si Si8 0.092483 0.443184 0.595031
O O1 0.250000 0.705559 0.250000
O O2 0.278030 0.793761 0.433386
O O3 0.309447 0.682442 0.515788
O O4 0.161448 0.725010 0.478481
O O5 0.500000 0.912253 0.560926
O O6 0.649109 0.894819 0.482414
O O7 0.611605 0.939343 0.750527
O O8 0.592541 0.000000 0.500000
O O9 0.750000 0.879989 0.250000
O O10 0.708270 0.892497 0.960568
O O11 0.250000 0.647326 0.750000
O O12 0.133706 0.581651 0.833473
O O13 0.107159 0.684705 0.723496
O O14 0.250000 0.031387 0.250000
O O15 0.330947 0.000000 0.000000
O O16 0.250000 0.517215 0.750000
O O17 0.120155 0.460922 0.759231
O O18 0.185389 0.500000 0.000000
O O19 0.113585 0.619755 0.478604
O O20 0.000000 0.697819 0.512706
O O21 0.121894 0.500000 0.500000
O O22 0.000000 0.444395 0.591616
#
# Coordination Sequence:
#
# PCOD9414790 Si02
#       8
#     8   8   8   8   8   8   8   8
#     4  10  23  40  61  84 114 154 201 249 297 351
#     4  10  21  36  58  92 130 161 193 244 301 344
#     4  10  20  39  60  83 115 161 207 247 293 348
#     4   9  20  36  53  78 108 146 188 236 288 349
#     4  10  18  31  56  87 120 159 208 246 287 349
#     4  11  23  32  53  83 111 142 188 234 284 345
#     4  10  21  39  61  83 112 149 190 241 298 355
#     4  10  20  36  56  78 110 144 176 223 293 359
#
# _framework density 18.673999999999999
#
# number of rings (size 3 to 8) (size 9 to 14) (size 15 to 20)
#    0.000    2.000    1.250    3.000    5.250    5.000 
#    0.000    6.250    0.000    0.000    0.000    0.000 
#    0.000    0.000    0.000    0.000    0.000    0.000 
#
# Total GULP energy -356521.116203 kJ/mol
# GULP energy per Si atom -5570.642441 kJ/mol
# Density = 1.863150 g / cm^3
# Si number density = 18.674000 Si / 1000 Ang^3
#
#
#
# Elastic Constant Matrix: (Units=GPa)
#
#
# Indices 1 2 3 4 5 6 
#
# 1 67.6779 17.0048 26.9291 0.0000 0.0000 0.0000
# 2 17.0048 50.8294 31.1199 0.0000 0.0000 0.0000
# 3 26.9291 31.1199 139.9351 0.0000 0.0000 0.0000
# 4 0.0000 0.0000 0.0000 -22.1621 0.0000 0.0000
# 5 0.0000 0.0000 0.0000 0.0000 17.2814 0.0000
# 6 0.0000 0.0000 0.0000 0.0000 0.0000 11.8635
#
#
#
# Elastic Compliance Matrix: (Units=1/GPa)
#
#
# Indices 1 2 3 4 5 6 
#
# 1 0.016741 -0.004200 -0.002288 0.000000 0.000000 0.000000
# 2 -0.004200 0.023828 -0.004491 0.000000 0.000000 0.000000
# 3 -0.002288 -0.004491 0.008585 0.000000 0.000000 0.000000
# 4 0.000000 0.000000 0.000000 -0.045122 0.000000 0.000000
# 5 0.000000 0.000000 0.000000 0.000000 0.057866 0.000000
# 6 0.000000 0.000000 0.000000 0.000000 0.000000 0.084292
#
#
# Mechanical properties :
#
#
# Convention : Reuss Voigt Hill
#
# Bulk Modulus (GPa) = 36.76807 45.39442 41.08125
# Shear Modulus (GPa) = 28.21457 13.62249 20.91853
#
# Velocity S-wave (km/s) = 3.89125 2.70384 3.35056
# Velocity P-wave (km/s) = 6.31833 5.84032 6.08402
#
# Compressibility (1/GPa) = 0.02719751
#
# Stress axis : x y z
#
# Youngs Moduli (GPa) = 59.73186 41.96689 116.48063
#
# Poissons Ratio (x) = 0.17627 0.26647
# Poissons Ratio (y) = 0.25089 0.52310
# Poissons Ratio (z) = 0.13665 0.18847
#
# Static dielectric constant tensor:
#      x y z
#    x 1.644390 0.000000 0.000000 
#    y 0.000000 1.113160 0.000000 
#    z 0.000000 0.000000 1.644540 
# 
# From -- ./inp_files/10235.got.cif
#   From: 2010.05.17/outbox.cif.g08.bks.cpg/sg53_6_cif.got.tgz:10235.got - 2010.06.03 12:45:16.
