data_PCOD9414167
_publ_section_title
;
Structure prediction by ZEFSAII (Michael W. Deem and Ramdas Pophale) SiO2 
 PCOD9414167
Probable space group: P M N A
;
_chemical_formula_sum "Si O2"
_cell_formula_units_Z 64
_cell_length_a 9.325282
_cell_length_b 20.579704
_cell_length_c 22.110743
_cell_angle_alpha 90.000000
_cell_angle_beta 90.000000
_cell_angle_gamma 90.000000
_cell_volume 4243.306812
_symmetry_space_group_name_H-M "P M N A"
_symmetry_group_IT_number 53
_symmetry_cell_setting 'orthorhombic'
loop_
_space_group_symop_operation_xyz
x,y,z
1/2-x,-y,1/2+z
x,-y,-z
1/2-x,y,1/2-z
-x,-y,-z
1/2+x,y,1/2-z
-x,y,z
1/2+x,-y,1/2+z
loop_
_atom_site_type_symbol
_atom_site_label
_atom_site_fract_x
_atom_site_fract_y
_atom_site_fract_z
Si Si1 0.334444 0.512858 0.427212
Si Si2 0.171449 0.870339 0.813957
Si Si3 0.169445 0.099198 0.540607
Si Si4 0.831590 0.258396 0.109306
Si Si5 0.335120 0.385855 0.092155
Si Si6 0.169560 0.769474 0.033271
Si Si7 0.830215 0.960343 0.592984
Si Si8 0.334273 0.359698 0.946851
O O1 0.333966 0.500000 0.500000
O O2 0.500000 0.517893 0.408646
O O3 0.255360 0.451186 0.398069
O O4 0.248323 0.579519 0.417776
O O5 0.250000 0.872104 0.750000
O O6 0.201941 0.801784 0.847375
O O7 0.234446 0.926504 0.856785
O O8 0.000000 0.876408 0.807683
O O9 0.262825 0.162421 0.553208
O O10 0.193122 0.075461 0.471453
O O11 0.000000 0.114214 0.546201
O O12 0.201054 0.036347 0.581711
O O13 0.737475 0.322211 0.120425
O O14 0.000000 0.274846 0.115248
O O15 0.809528 0.236323 0.039616
O O16 0.500000 0.393565 0.110597
O O17 0.333684 0.373254 0.019435
O O18 0.251171 0.707859 0.061526
O O19 0.000000 0.766232 0.044901
O O20 0.000000 0.953975 0.607100
O O21 0.500000 0.356108 0.927945
#
# Coordination Sequence:
#
# PCOD9414167 Si02
#       8
#     8   8   8   8   8   8   8   8
#     4   9  15  23  34  49  72 103 136 171 208 244
#     4  11  22  35  49  66  87 115 148 186 228 271
#     4   9  17  29  46  66  88 113 142 179 223 267
#     4   9  18  30  41  57  81 107 140 179 218 260
#     4   9  16  24  37  54  72 100 137 175 210 246
#     4  10  17  26  40  60  84 111 143 179 218 260
#     4   9  18  32  48  66  87 112 143 180 222 270
#     4   9  16  24  34  51  76 106 140 174 208 249
#
# _framework density 15.082577000000001
#
# number of rings (size 3 to 8) (size 9 to 14) (size 15 to 20)
#    0.000    2.625    1.250    2.625    0.000    6.500 
#    0.000    1.250    0.000    0.000    0.000    0.000 
#    0.000    0.000    0.000    1.125    0.000   17.375 
#
# Total GULP energy -356662.663751 kJ/mol
# GULP energy per Si atom -5572.854121 kJ/mol
# Density = 1.504825 g / cm^3
# Si number density = 15.082577 Si / 1000 Ang^3
#
#
#
# Elastic Constant Matrix: (Units=GPa)
#
#
# Indices 1 2 3 4 5 6 
#
# 1 123.2199 104.4404 36.2013 0.0000 0.0000 0.0000
# 2 104.4404 152.2718 31.2694 0.0000 0.0000 0.0000
# 3 36.2013 31.2694 35.9752 0.0000 0.0000 0.0000
# 4 0.0000 0.0000 0.0000 6.2360 0.0000 0.0000
# 5 0.0000 0.0000 0.0000 0.0000 8.3172 0.0000
# 6 0.0000 0.0000 0.0000 0.0000 0.0000 34.2334
#
#
#
# Elastic Compliance Matrix: (Units=1/GPa)
#
#
# Indices 1 2 3 4 5 6 
#
# 1 0.022614 -0.013192 -0.011290 0.000000 0.000000 0.000000
# 2 -0.013192 0.015690 -0.000362 0.000000 0.000000 0.000000
# 3 -0.011290 -0.000362 0.039473 0.000000 0.000000 0.000000
# 4 0.000000 0.000000 0.000000 0.160359 0.000000 0.000000
# 5 0.000000 0.000000 0.000000 0.000000 0.120233 0.000000
# 6 0.000000 0.000000 0.000000 0.000000 0.000000 0.029211
#
#
# Mechanical properties :
#
#
# Convention : Reuss Voigt Hill
#
# Bulk Modulus (GPa) = 35.60243 72.80991 54.20617
# Shear Modulus (GPa) = 11.19491 19.06104 15.12797
#
# Velocity S-wave (km/s) = 2.72737 3.55882 3.17047
# Velocity P-wave (km/s) = 5.79433 8.07873 7.02994
#
# Compressibility (1/GPa) = 0.02808797
#
# Stress axis : x y z
#
# Youngs Moduli (GPa) = 44.22034 63.73518 25.33408
#
# Poissons Ratio (x) = 0.84081 0.28601
# Poissons Ratio (y) = 0.58336 0.00918
# Poissons Ratio (z) = 0.49923 0.02310
#
# Static dielectric constant tensor:
#      x y z
#    x 1.501740 0.000000 0.000000 
#    y 0.000000 1.498000 0.000000 
#    z 0.000000 0.000000 1.461880 
# 
# From -- ./inp_files/34568.got.cif
#   From: 2010.05.17/outbox.cif.g08.bks.cpg/sg53_18_cif.got.tgz:34568.got - 2010.06.03 12:45:16.
