data_PCOD9414832
_publ_section_title
;
Structure prediction by ZEFSAII (Michael W. Deem and Ramdas Pophale) SiO2 
 PCOD9414832
Probable space group: P M N A
;
_chemical_formula_sum "Si O2"
_cell_formula_units_Z 56
_cell_length_a 15.052873
_cell_length_b 9.208131
_cell_length_c 22.180150
_cell_angle_alpha 90.000000
_cell_angle_beta 90.000000
_cell_angle_gamma 90.000000
_cell_volume 3074.364563
_symmetry_space_group_name_H-M "P M N A"
_symmetry_group_IT_number 53
_symmetry_cell_setting 'orthorhombic'
loop_
_space_group_symop_operation_xyz
x,y,z
1/2-x,-y,1/2+z
x,-y,-z
1/2-x,y,1/2-z
-x,-y,-z
1/2+x,y,1/2-z
-x,y,z
1/2+x,-y,1/2+z
loop_
_atom_site_type_symbol
_atom_site_label
_atom_site_fract_x
_atom_site_fract_y
_atom_site_fract_z
Si Si1 0.602393 0.811867 0.651758
Si Si2 0.173028 0.702189 0.380702
Si Si3 0.731582 0.629921 0.885394
Si Si4 0.399832 0.659561 0.248003
Si Si5 0.705926 0.917122 0.310848
Si Si6 0.897115 0.653878 0.725389
Si Si7 0.401328 0.673858 0.990943
O O1 0.500000 0.804106 0.630341
O O2 0.671269 0.701090 0.619945
O O3 0.601313 0.771479 0.722706
O O4 0.644279 0.971877 0.653246
O O5 0.226557 0.547681 0.387405
O O6 0.107662 0.674869 0.324256
O O7 0.228097 0.840344 0.357804
O O8 0.125240 0.732684 0.443570
O O9 0.672546 0.676930 0.827518
O O10 0.676315 0.691941 0.942220
O O11 0.500000 0.673421 0.268296
O O12 0.344402 0.780504 0.281225
O O13 0.369210 0.495600 0.258793
O O14 0.750000 0.986265 0.250000
O O15 0.000000 0.634616 0.703321
O O16 0.500000 0.724292 0.971820
O O17 0.407196 0.500000 0.000000
#
# Coordination Sequence:
#
# PCOD9414832 Si02
#       7
#     8   8   8   8   8   8   8
#     4  11  22  34  49  69  97 134 174 212 250 292
#     4   9  18  31  51  76 102 131 162 199 248 297
#     4  10  18  32  53  76 104 132 163 203 247 296
#     4   9  16  28  48  75 105 131 160 198 242 298
#     4  10  19  31  48  70  98 134 169 206 249 291
#     4   9  17  29  49  78 106 132 161 198 248 302
#     4   9  17  31  55  84 107 128 158 198 246 300
#
# _framework density 18.215146000000001
#
# number of rings (size 3 to 8) (size 9 to 14) (size 15 to 20)
#    0.000    2.429    0.000    3.429    0.000    5.714 
#    0.000    1.429    0.000    9.857    0.000    0.000 
#    0.000    0.000    0.000    0.000    0.000    0.000 
#
# Total GULP energy -311937.751781 kJ/mol
# GULP energy per Si atom -5570.316996 kJ/mol
# Density = 1.817369 g / cm^3
# Si number density = 18.215146 Si / 1000 Ang^3
#
#
#
# Elastic Constant Matrix: (Units=GPa)
#
#
# Indices 1 2 3 4 5 6 
#
# 1 113.1594 30.1129 26.6446 0.0000 0.0000 0.0000
# 2 30.1129 43.4499 4.7086 0.0000 0.0000 0.0000
# 3 26.6446 4.7086 39.5210 0.0000 0.0000 0.0000
# 4 0.0000 0.0000 0.0000 9.9143 0.0000 0.0000
# 5 0.0000 0.0000 0.0000 0.0000 18.6287 0.0000
# 6 0.0000 0.0000 0.0000 0.0000 0.0000 20.4469
#
#
#
# Elastic Compliance Matrix: (Units=1/GPa)
#
#
# Indices 1 2 3 4 5 6 
#
# 1 0.012775 -0.008024 -0.007657 0.000000 0.000000 0.000000
# 2 -0.008024 0.028356 0.002031 0.000000 0.000000 0.000000
# 3 -0.007657 0.002031 0.030223 0.000000 0.000000 0.000000
# 4 0.000000 0.000000 0.000000 0.100865 0.000000 0.000000
# 5 0.000000 0.000000 0.000000 0.000000 0.053681 0.000000
# 6 0.000000 0.000000 0.000000 0.000000 0.000000 0.048907
#
#
# Mechanical properties :
#
#
# Convention : Reuss Voigt Hill
#
# Bulk Modulus (GPa) = 22.69885 35.45140 29.07513
# Shear Modulus (GPa) = 15.78326 18.77559 17.27942
#
# Velocity S-wave (km/s) = 2.94682 3.21404 3.08332
# Velocity P-wave (km/s) = 4.90580 5.76873 5.35468
#
# Compressibility (1/GPa) = 0.04405510
#
# Stress axis : x y z
#
# Youngs Moduli (GPa) = 78.27594 35.26595 33.08718
#
# Poissons Ratio (x) = 0.28298 0.25335
# Poissons Ratio (y) = 0.62810 -0.06721
# Poissons Ratio (z) = 0.59936 -0.07164
#
# Static dielectric constant tensor:
#      x y z
#    x 1.659500 0.000000 0.000000 
#    y 0.000000 1.653180 0.000000 
#    z 0.000000 0.000000 1.616810 
# 
# From -- ./inp_files/32450.got.cif
#   From: 2010.05.17/outbox.cif.g08.bks.cpg/sg53_17_cif.got.tgz:32450.got - 2010.06.03 12:45:16.
