data_PCOD9414479
_publ_section_title
;
Structure prediction by ZEFSAII (Michael W. Deem and Ramdas Pophale) SiO2 
 PCOD9414479
Probable space group: P M N A
;
_chemical_formula_sum "Si O2"
_cell_formula_units_Z 64
_cell_length_a 8.948992
_cell_length_b 16.821175
_cell_length_c 23.903242
_cell_angle_alpha 90.000000
_cell_angle_beta 90.000000
_cell_angle_gamma 90.000000
_cell_volume 3598.216223
_symmetry_space_group_name_H-M "P M N A"
_symmetry_group_IT_number 53
_symmetry_cell_setting 'orthorhombic'
loop_
_space_group_symop_operation_xyz
x,y,z
1/2-x,-y,1/2+z
x,-y,-z
1/2-x,y,1/2-z
-x,-y,-z
1/2+x,y,1/2-z
-x,y,z
1/2+x,-y,1/2+z
loop_
_atom_site_type_symbol
_atom_site_label
_atom_site_fract_x
_atom_site_fract_y
_atom_site_fract_z
Si Si1 0.675953 0.705552 0.091844
Si Si2 0.179408 0.275063 0.075792
Si Si3 0.173983 0.934324 0.691664
Si Si4 0.820128 0.158493 0.984828
Si Si5 0.820260 0.050428 0.889146
Si Si6 0.177151 0.185552 0.689671
Si Si7 0.320930 0.410324 0.515601
Si Si8 0.326811 0.742841 0.807404
O O1 0.500000 0.712305 0.078756
O O2 0.766631 0.771437 0.056509
O O3 0.695975 0.731916 0.155788
O O4 0.738903 0.622245 0.070648
O O5 0.215768 0.348371 0.034381
O O6 0.250213 0.286189 0.136051
O O7 0.000000 0.271625 0.081176
O O8 0.230071 0.192608 0.044986
O O9 0.250000 0.962181 0.750000
O O10 0.184636 0.839080 0.690983
O O11 0.000000 0.957191 0.692122
O O12 0.253702 0.970922 0.637448
O O13 0.774076 0.078193 0.952011
O O14 0.000000 0.156396 0.986924
O O15 0.757583 0.117941 0.847233
O O16 0.000000 0.047374 0.887403
O O17 0.250000 0.188319 0.750000
O O18 0.000000 0.168455 0.692663
O O19 0.280448 0.500000 0.500000
O O20 0.500000 0.406434 0.523900
O O21 0.250000 0.715966 0.750000
O O22 0.500000 0.721364 0.806707
#
# Coordination Sequence:
#
# PCOD9414479 Si02
#       8
#     8   8   8   8   8   8   8   8
#     4   9  17  28  44  68  96 124 157 197 233 268
#     4   9  17  32  54  77 101 127 159 198 236 283
#     4  10  20  33  47  65  91 124 164 210 257 299
#     4   8  16  30  47  68  95 129 163 194 236 289
#     4  10  18  29  46  67  93 126 165 207 248 289
#     4  10  19  29  42  63  92 127 165 201 238 280
#     4   9  18  33  54  79 104 129 154 182 225 282
#     4  10  21  36  54  74  96 126 164 205 249 294
#
# _framework density 17.786591000000001
#
# number of rings (size 3 to 8) (size 9 to 14) (size 15 to 20)
#    0.000    2.625    0.000    3.000    0.000    5.750 
#    0.000    0.625    0.000    4.500    0.000    1.750 
#    0.000    0.000    0.000    0.000    0.000    0.000 
#
# Total GULP energy -356596.685792 kJ/mol
# GULP energy per Si atom -5571.823216 kJ/mol
# Density = 1.774611 g / cm^3
# Si number density = 17.786591 Si / 1000 Ang^3
#
#
#
# Elastic Constant Matrix: (Units=GPa)
#
#
# Indices 1 2 3 4 5 6 
#
# 1 24.1746 13.1959 27.9532 0.0000 0.0000 0.0000
# 2 13.1959 27.5340 17.2341 0.0000 0.0000 0.0000
# 3 27.9532 17.2341 93.1520 0.0000 0.0000 0.0000
# 4 0.0000 0.0000 0.0000 11.3250 0.0000 0.0000
# 5 0.0000 0.0000 0.0000 0.0000 26.0899 0.0000
# 6 0.0000 0.0000 0.0000 0.0000 0.0000 -32.1738
#
#
#
# Elastic Compliance Matrix: (Units=1/GPa)
#
#
# Indices 1 2 3 4 5 6 
#
# 1 0.076094 -0.025081 -0.018194 0.000000 0.000000 0.000000
# 2 -0.025081 0.049342 -0.001603 0.000000 0.000000 0.000000
# 3 -0.018194 -0.001603 0.016491 0.000000 0.000000 0.000000
# 4 0.000000 0.000000 0.000000 0.088301 0.000000 0.000000
# 5 0.000000 0.000000 0.000000 0.000000 0.038329 0.000000
# 6 0.000000 0.000000 0.000000 0.000000 0.000000 -0.031081
#
#
# Mechanical properties :
#
#
# Convention : Reuss Voigt Hill
#
# Bulk Modulus (GPa) = 19.16715 29.06969 24.11842
# Shear Modulus (GPa) = 14.50867 6.81337 10.66102
#
# Velocity S-wave (km/s) = 2.85916 1.95932 2.45089
# Velocity P-wave (km/s) = 4.65825 4.63656 4.64742
#
# Compressibility (1/GPa) = 0.05217260
#
# Stress axis : x y z
#
# Youngs Moduli (GPa) = 13.14160 20.26678 60.63756
#
# Poissons Ratio (x) = 0.50830 1.10326
# Poissons Ratio (y) = 0.32960 0.09718
# Poissons Ratio (z) = 0.23910 0.03248
#
# Static dielectric constant tensor:
#      x y z
#    x 1.600500 0.000000 0.000000 
#    y 0.000000 1.628760 0.000000 
#    z 0.000000 0.000000 1.627520 
# 
# From -- ./inp_files/31132.got.cif
#   From: 2010.05.17/outbox.cif.g08.bks.cpg/sg53_16_cif.got.tgz:31132.got - 2010.06.03 12:45:16.
