data_PCOD9414343
_publ_section_title
;
Structure prediction by ZEFSAII (Michael W. Deem and Ramdas Pophale) SiO2 
 PCOD9414343
Probable space group: P M N A
;
_chemical_formula_sum "Si O2"
_cell_formula_units_Z 64
_cell_length_a 9.071111
_cell_length_b 20.894547
_cell_length_c 22.229878
_cell_angle_alpha 90.000000
_cell_angle_beta 90.000000
_cell_angle_gamma 90.000000
_cell_volume 4213.378943
_symmetry_space_group_name_H-M "P M N A"
_symmetry_group_IT_number 53
_symmetry_cell_setting 'orthorhombic'
loop_
_space_group_symop_operation_xyz
x,y,z
1/2-x,-y,1/2+z
x,-y,-z
1/2-x,y,1/2-z
-x,-y,-z
1/2+x,y,1/2-z
-x,y,z
1/2+x,-y,1/2+z
loop_
_atom_site_type_symbol
_atom_site_label
_atom_site_fract_x
_atom_site_fract_y
_atom_site_fract_z
Si Si1 0.329678 0.511576 0.427446
Si Si2 0.322133 0.859098 0.815251
Si Si3 0.178240 0.096302 0.541209
Si Si4 0.825571 0.252667 0.108517
Si Si5 0.330037 0.382938 0.090495
Si Si6 0.174078 0.770386 0.034566
Si Si7 0.821718 0.962221 0.588276
Si Si8 0.330165 0.359730 0.945694
O O1 0.327330 0.500000 0.500000
O O2 0.500000 0.512229 0.408968
O O3 0.243228 0.451855 0.399149
O O4 0.252600 0.579698 0.417180
O O5 0.250000 0.860863 0.750000
O O6 0.500000 0.857277 0.811700
O O7 0.263086 0.797566 0.851363
O O8 0.275698 0.921166 0.854490
O O9 0.252428 0.163586 0.555128
O O10 0.220090 0.074437 0.473276
O O11 0.000000 0.102609 0.543013
O O12 0.224251 0.036156 0.582637
O O13 0.762705 0.324126 0.116905
O O14 0.000000 0.250042 0.121272
O O15 0.804344 0.235212 0.037935
O O16 0.500000 0.381092 0.110067
O O17 0.328995 0.372268 0.017981
O O18 0.249107 0.707695 0.062887
O O19 0.000000 0.770070 0.045878
O O20 0.000000 0.963187 0.587871
O O21 0.500000 0.356851 0.926694
#
# Coordination Sequence:
#
# PCOD9414343 Si02
#       8
#     8   8   8   8   8   8   8   8
#     4   9  15  23  34  50  74 103 135 173 211 244
#     4  11  21  34  49  65  85 112 143 180 221 264
#     4   9  15  28  47  64  81 108 142 177 214 260
#     4  10  19  30  42  59  82 108 141 178 216 258
#     4   9  16  25  38  54  73 102 139 176 209 245
#     4  10  18  26  38  60  86 110 137 176 220 257
#     4   8  16  29  47  65  82 106 141 177 214 261
#     4   9  16  24  35  51  74 107 143 173 203 247
#
# _framework density 15.189708
#
# number of rings (size 3 to 8) (size 9 to 14) (size 15 to 20)
#    0.000    2.625    1.250    3.000    0.000    5.500 
#    0.000    2.500    0.000    0.000    0.000    0.000 
#    0.000    0.000    0.000    1.125    0.000   16.875 
#
# Total GULP energy -356557.575885 kJ/mol
# GULP energy per Si atom -5571.212123 kJ/mol
# Density = 1.515514 g / cm^3
# Si number density = 15.189708 Si / 1000 Ang^3
#
#
#
# Elastic Constant Matrix: (Units=GPa)
#
#
# Indices 1 2 3 4 5 6 
#
# 1 88.0157 68.8825 22.6114 0.0000 0.0000 0.0000
# 2 68.8825 168.9652 27.8559 0.0000 0.0000 0.0000
# 3 22.6114 27.8559 28.2741 0.0000 0.0000 0.0000
# 4 0.0000 0.0000 0.0000 5.5288 0.0000 0.0000
# 5 0.0000 0.0000 0.0000 0.0000 8.7481 0.0000
# 6 0.0000 0.0000 0.0000 0.0000 0.0000 18.0840
#
#
#
# Elastic Compliance Matrix: (Units=1/GPa)
#
#
# Indices 1 2 3 4 5 6 
#
# 1 0.018320 -0.006033 -0.008707 0.000000 0.000000 0.000000
# 2 -0.006033 0.009053 -0.004094 0.000000 0.000000 0.000000
# 3 -0.008707 -0.004094 0.046365 0.000000 0.000000 0.000000
# 4 0.000000 0.000000 0.000000 0.180872 0.000000 0.000000
# 5 0.000000 0.000000 0.000000 0.000000 0.114310 0.000000
# 6 0.000000 0.000000 0.000000 0.000000 0.000000 0.055298
#
#
# Mechanical properties :
#
#
# Convention : Reuss Voigt Hill
#
# Bulk Modulus (GPa) = 27.72451 58.21719 42.97085
# Shear Modulus (GPa) = 10.55054 17.53252 14.04153
#
# Velocity S-wave (km/s) = 2.63836 3.40109 3.04371
# Velocity P-wave (km/s) = 5.25100 7.33711 6.37990
#
# Compressibility (1/GPa) = 0.03606917
#
# Stress axis : x y z
#
# Youngs Moduli (GPa) = 54.58478 110.46182 21.56799
#
# Poissons Ratio (x) = 0.66643 0.18779
# Poissons Ratio (y) = 0.32932 0.08830
# Poissons Ratio (z) = 0.47528 0.45225
#
# Static dielectric constant tensor:
#      x y z
#    x 1.504590 0.000000 0.000000 
#    y 0.000000 1.510120 0.000000 
#    z 0.000000 0.000000 1.473010 
# 
# From -- ./inp_files/34501.got.cif
#   From: 2010.05.17/outbox.cif.g08.bks.cpg/sg53_18_cif.got.tgz:34501.got - 2010.06.03 12:45:16.
