data_PCOD9414003
_publ_section_title
;
Structure prediction by ZEFSAII (Michael W. Deem and Ramdas Pophale) SiO2 
 PCOD9414003
Probable space group: P N N A
;
_chemical_formula_sum "Si O2"
_cell_formula_units_Z 36
_cell_length_a 24.000000
_cell_length_b 6.000000
_cell_length_c 12.000000
_cell_angle_alpha 90.000000
_cell_angle_beta 90.000000
_cell_angle_gamma 90.000000
_cell_volume 1728.000000
_symmetry_space_group_name_H-M "P N N A"
_symmetry_group_IT_number 52
_symmetry_cell_setting 'orthorhombic'
loop_
_space_group_symop_operation_xyz
x,y,z
1/2-x,-y,z
x,1/2-y,1/2-z
1/2-x,1/2+y,1/2-z
-x,-y,-z
1/2+x,y,-z
-x,1/2+y,1/2+z
1/2+x,1/2-y,1/2+z
loop_
_atom_site_type_symbol
_atom_site_label
_atom_site_fract_x
_atom_site_fract_y
_atom_site_fract_z
Si Si1 0.944105 0.750000 0.250000
Si Si2 0.858975 0.072704 0.938342
Si Si3 0.279070 0.250000 0.250000
Si Si4 0.908156 0.750000 0.750000
Si Si5 0.465636 0.376621 0.094632
Si Si6 0.339331 0.500552 0.703685
O O1 0.902311 0.540416 0.251102
O O2 0.985927 0.772352 0.148259
O O3 0.814778 0.214266 0.864044
O O4 0.914177 0.226886 0.946152
O O5 0.873926 0.868136 0.852301
O O6 0.840122 0.007264 0.065996
O O7 0.250000 0.500000 0.238852
O O8 0.942764 0.554316 0.813021
O O9 0.500000 0.500000 0.000000
O O10 0.321353 0.250000 0.750000
O O11 0.314634 0.750000 0.750000
#
# Coordination Sequence:
#
# PCOD9414003 Si02
#       6
#     4   8   4   4   8   8
#     4  10  21  38  50  99 136 193 242 273 328 418
#     4  12  25  46  70 103 148 191 242 322 366 448
#     4  12  28  50  82 114 140 182 246 320 404 444
#     4  12  23  40  64 101 150 195 254 295 384 422
#     4  12  24  36  62  97 147 197 242 292 355 444
#     4  10  25  41  66 100 143 196 241 286 357 429
#
# _framework density 20.833333
#
# number of rings (size 3 to 8) (size 9 to 14) (size 15 to 20)
#    0.667    0.000    4.444    3.333    7.778    1.778 
#    0.000    0.000    0.000    2.667    0.000    0.000 
#    0.000    0.000    0.000    0.000    0.000    0.000 
#
# Total GULP energy -200424.952321 kJ/mol
# GULP energy per Si atom -5567.359787 kJ/mol
# Density = 2.078592 g / cm^3
# Si number density = 20.833333 Si / 1000 Ang^3
#
#
#
# Elastic Constant Matrix: (Units=GPa)
#
#
# Indices 1 2 3 4 5 6 
#
# 1 75.3352 32.7147 23.0204 0.0000 0.0000 0.0000
# 2 32.7147 137.8348 38.7353 0.0000 0.0000 0.0000
# 3 23.0204 38.7353 156.7323 0.0000 0.0000 0.0000
# 4 0.0000 0.0000 0.0000 55.5220 0.0000 0.0000
# 5 0.0000 0.0000 0.0000 0.0000 12.6045 0.0000
# 6 0.0000 0.0000 0.0000 0.0000 0.0000 24.3343
#
#
#
# Elastic Compliance Matrix: (Units=1/GPa)
#
#
# Indices 1 2 3 4 5 6 
#
# 1 0.015092 -0.003180 -0.001431 0.000000 0.000000 0.000000
# 2 -0.003180 0.008467 -0.001625 0.000000 0.000000 0.000000
# 3 -0.001431 -0.001625 0.006992 0.000000 0.000000 0.000000
# 4 0.000000 0.000000 0.000000 0.018011 0.000000 0.000000
# 5 0.000000 0.000000 0.000000 0.000000 0.079337 0.000000
# 6 0.000000 0.000000 0.000000 0.000000 0.000000 0.041094
#
#
# Mechanical properties :
#
#
# Convention : Reuss Voigt Hill
#
# Bulk Modulus (GPa) = 55.31409 62.09368 58.70388
# Shear Modulus (GPa) = 26.66793 36.85429 31.76111
#
# Velocity S-wave (km/s) = 3.58167 4.21052 3.90876
# Velocity P-wave (km/s) = 6.61158 7.31489 6.97211
#
# Compressibility (1/GPa) = 0.01807858
#
# Stress axis : x y z
#
# Youngs Moduli (GPa) = 66.25970 118.11121 143.01733
#
# Poissons Ratio (x) = 0.37559 0.20463
# Poissons Ratio (y) = 0.21070 0.23246
# Poissons Ratio (z) = 0.09480 0.19198
#
# Static dielectric constant tensor:
#      x y z
#    x 1.789600 0.000000 0.000000 
#    y 0.000000 1.890250 0.000000 
#    z 0.000000 0.000000 1.974110 
# 
# From -- ./inp_files/22134.got.cif
#   From: 2010.05.17/outbox.ucp.g08.bks.cvg/sg52_12_cif.got.tgz:22134.got - 2010.06.11 16:30:12.
