data_PCOD9414834
_publ_section_title
;
Structure prediction by ZEFSAII (Michael W. Deem and Ramdas Pophale) SiO2 
 PCOD9414834
Probable space group: P M N A
;
_chemical_formula_sum "Si O2"
_cell_formula_units_Z 48
_cell_length_a 16.008576
_cell_length_b 9.541738
_cell_length_c 15.266586
_cell_angle_alpha 90.000000
_cell_angle_beta 90.000000
_cell_angle_gamma 90.000000
_cell_volume 2331.965484
_symmetry_space_group_name_H-M "P M N A"
_symmetry_group_IT_number 53
_symmetry_cell_setting 'orthorhombic'
loop_
_space_group_symop_operation_xyz
x,y,z
1/2-x,-y,1/2+z
x,-y,-z
1/2-x,y,1/2-z
-x,-y,-z
1/2+x,y,1/2-z
-x,y,z
1/2+x,-y,1/2+z
loop_
_atom_site_type_symbol
_atom_site_label
_atom_site_fract_x
_atom_site_fract_y
_atom_site_fract_z
Si Si1 0.093544 0.738254 0.613321
Si Si2 0.093090 0.935262 0.374576
Si Si3 0.749490 0.453100 0.407536
Si Si4 0.905596 0.934640 0.159762
Si Si5 0.336167 0.218349 0.298055
Si Si6 0.249631 0.764572 0.352393
O O1 0.165294 0.635709 0.578806
O O2 0.103415 0.736629 0.719298
O O3 0.000000 0.697023 0.587899
O O4 0.105287 0.904268 0.594713
O O5 0.091568 0.930526 0.267400
O O6 0.172154 0.841246 0.398915
O O7 0.000000 0.889052 0.403022
O O8 0.713727 0.500000 0.500000
O O9 0.689809 0.351493 0.353994
O O10 0.763428 0.599155 0.358720
O O11 0.839740 0.824756 0.119881
O O12 0.000000 0.913928 0.129025
O O13 0.872146 0.091996 0.145289
O O14 0.250000 0.168425 0.250000
O O15 0.250000 0.802745 0.250000
#
# Coordination Sequence:
#
# PCOD9414834 Si02
#       6
#     8   8   8   8   8   8
#     4   9  17  33  57  80 101 130 174 220 260 313
#     4   8  15  29  53  83 105 124 161 217 271 311
#     4  11  23  35  48  72 110 150 178 207 255 311
#     4   9  16  29  54  81  99 121 165 226 275 307
#     4   9  16  32  55  76  99 134 178 215 256 311
#     4  10  18  32  53  77 104 131 168 217 264 310
#
# _framework density 20.583494000000002
#
# number of rings (size 3 to 8) (size 9 to 14) (size 15 to 20)
#    0.000    2.667    0.000    6.500    0.000    1.000 
#    0.000    8.333    0.000    7.500    0.000    0.000 
#    0.000    0.000    0.000    0.000    0.000    0.000 
#
# Total GULP energy -267772.828964 kJ/mol
# GULP energy per Si atom -5578.600603 kJ/mol
# Density = 2.053664 g / cm^3
# Si number density = 20.583494 Si / 1000 Ang^3
#
#
#
# Elastic Constant Matrix: (Units=GPa)
#
#
# Indices 1 2 3 4 5 6 
#
# 1 141.8249 80.1124 13.2852 0.0000 0.0000 0.0000
# 2 80.1124 106.8191 8.4331 0.0000 0.0000 0.0000
# 3 13.2852 8.4331 30.7503 0.0000 0.0000 0.0000
# 4 0.0000 0.0000 0.0000 9.5585 0.0000 0.0000
# 5 0.0000 0.0000 0.0000 0.0000 0.2671 0.0000
# 6 0.0000 0.0000 0.0000 0.0000 0.0000 -5.0823
#
#
#
# Elastic Compliance Matrix: (Units=1/GPa)
#
#
# Indices 1 2 3 4 5 6 
#
# 1 0.012479 -0.009131 -0.002887 0.000000 0.000000 0.000000
# 2 -0.009131 0.016250 -0.000512 0.000000 0.000000 0.000000
# 3 -0.002887 -0.000512 0.033908 0.000000 0.000000 0.000000
# 4 0.000000 0.000000 0.000000 0.104619 0.000000 0.000000
# 5 0.000000 0.000000 0.000000 0.000000 3.743511 0.000000
# 6 0.000000 0.000000 0.000000 0.000000 0.000000 -0.196762
#
#
# Mechanical properties :
#
#
# Convention : Reuss Voigt Hill
#
# Bulk Modulus (GPa) = 26.61194 53.67286 40.14240
# Shear Modulus (GPa) = 1.33277 12.78624 7.05950
#
# Velocity S-wave (km/s) = 0.80554 2.49507 1.85395
# Velocity P-wave (km/s) = 3.71780 5.86795 4.91197
#
# Compressibility (1/GPa) = 0.03757711
#
# Stress axis : x y z
#
# Youngs Moduli (GPa) = 80.13172 61.53698 29.49179
#
# Poissons Ratio (x) = 0.56192 0.08515
# Poissons Ratio (y) = 0.73172 0.01509
# Poissons Ratio (z) = 0.23136 0.03148
#
# Static dielectric constant tensor:
#      x y z
#    x 1.754780 0.000000 0.000000 
#    y 0.000000 1.717050 0.000000 
#    z 0.000000 0.000000 1.861710 
# 
# From -- ./inp_files/28901.got.cif
#   From: 2010.05.17/outbox.cif.g08.bks.cpg/sg53_15_cif.got.tgz:28901.got - 2010.06.03 12:45:16.
