data_PCOD9414656
_publ_section_title
;
Structure prediction by ZEFSAII (Michael W. Deem and Ramdas Pophale) SiO2 
 PCOD9414656
Probable space group: P M N A
;
_chemical_formula_sum "Si O2"
_cell_formula_units_Z 64
_cell_length_a 7.719298
_cell_length_b 14.814195
_cell_length_c 26.122335
_cell_angle_alpha 90.000000
_cell_angle_beta 90.000000
_cell_angle_gamma 90.000000
_cell_volume 2987.224473
_symmetry_space_group_name_H-M "P M N A"
_symmetry_group_IT_number 53
_symmetry_cell_setting 'orthorhombic'
loop_
_space_group_symop_operation_xyz
x,y,z
1/2-x,-y,1/2+z
x,-y,-z
1/2-x,y,1/2-z
-x,-y,-z
1/2+x,y,1/2-z
-x,y,z
1/2+x,-y,1/2+z
loop_
_atom_site_type_symbol
_atom_site_label
_atom_site_fract_x
_atom_site_fract_y
_atom_site_fract_z
Si Si1 0.794751 0.181402 0.694672
Si Si2 0.211684 0.732008 0.411267
Si Si3 0.795644 0.788012 0.807464
Si Si4 0.287892 0.469297 0.942613
Si Si5 0.206932 0.350142 0.397897
Si Si6 0.301638 0.021361 0.446178
Si Si7 0.709459 0.792203 0.979524
Si Si8 0.207750 0.986564 0.836672
O O1 0.750000 0.222375 0.750000
O O2 0.725475 0.230267 0.643297
O O3 0.000000 0.182649 0.690271
O O4 0.738603 0.076719 0.694695
O O5 0.267590 0.629981 0.424707
O O6 0.261826 0.791299 0.461046
O O7 0.000000 0.732123 0.410572
O O8 0.750000 0.759360 0.750000
O O9 0.749996 0.713926 0.850156
O O10 0.722578 0.889799 0.817498
O O11 0.000000 0.797568 0.809496
O O12 0.500000 0.466270 0.943600
O O13 0.229789 0.547409 0.903117
O O14 0.235928 0.500000 0.000000
O O15 0.256062 0.299610 0.450564
O O16 0.000000 0.355513 0.398055
O O17 0.500000 0.987655 0.448245
O O18 0.298069 0.129495 0.447032
O O19 0.219236 0.992302 0.393323
O O20 0.213023 0.000000 0.500000
O O21 0.500000 0.802377 0.976740
O O22 0.000000 0.976767 0.842031
#
# Coordination Sequence:
#
# PCOD9414656 Si02
#       8
#     8   8   8   8   8   8   8   8
#     4  11  23  38  57  79 108 145 186 233 277 319
#     4   9  18  33  54  84 115 144 182 228 276 325
#     4  11  23  39  58  79 110 148 188 232 276 327
#     4   9  15  29  56  87 116 144 179 224 271 326
#     4  10  19  32  56  87 114 143 180 225 275 325
#     4  10  20  33  49  74 111 151 183 215 269 333
#     4  10  18  30  52  82 113 141 177 222 270 324
#     4  10  21  37  56  80 108 144 188 228 270 324
#
# _framework density 21.424569000000002
#
# number of rings (size 3 to 8) (size 9 to 14) (size 15 to 20)
#    0.000    2.000    2.500    1.875    0.000    2.750 
#    0.000    1.250    0.000    4.125    0.000    0.000 
#    0.000    0.000    0.000    0.000    0.000    0.000 
#
# Total GULP energy -357116.509479 kJ/mol
# GULP energy per Si atom -5579.945461 kJ/mol
# Density = 2.137581 g / cm^3
# Si number density = 21.424569 Si / 1000 Ang^3
#
#
#
# Elastic Constant Matrix: (Units=GPa)
#
#
# Indices 1 2 3 4 5 6 
#
# 1 29.7276 0.1780 0.8464 0.0000 0.0000 0.0000
# 2 0.1780 85.7004 45.5703 0.0000 0.0000 0.0000
# 3 0.8464 45.5703 170.0870 0.0000 0.0000 0.0000
# 4 0.0000 0.0000 0.0000 22.6278 0.0000 0.0000
# 5 0.0000 0.0000 0.0000 0.0000 12.4851 0.0000
# 6 0.0000 0.0000 0.0000 0.0000 0.0000 29.7637
#
#
#
# Elastic Compliance Matrix: (Units=1/GPa)
#
#
# Indices 1 2 3 4 5 6 
#
# 1 0.033644 0.000022 -0.000173 0.000000 0.000000 0.000000
# 2 0.000022 0.013607 -0.003646 0.000000 0.000000 0.000000
# 3 -0.000173 -0.003646 0.006857 0.000000 0.000000 0.000000
# 4 0.000000 0.000000 0.000000 0.044193 0.000000 0.000000
# 5 0.000000 0.000000 0.000000 0.000000 0.080096 0.000000
# 6 0.000000 0.000000 0.000000 0.000000 0.000000 0.033598
#
#
# Mechanical properties :
#
#
# Convention : Reuss Voigt Hill
#
# Bulk Modulus (GPa) = 21.49890 42.07827 31.78859
# Shear Modulus (GPa) = 21.26817 28.90333 25.08575
#
# Velocity S-wave (km/s) = 3.15413 3.67696 3.42553
# Velocity P-wave (km/s) = 4.82920 6.14081 5.52407
#
# Compressibility (1/GPa) = 0.04651400
#
# Stress axis : x y z
#
# Youngs Moduli (GPa) = 29.72332 73.49096 145.83645
#
# Poissons Ratio (x) = -0.00164 0.02529
# Poissons Ratio (y) = -0.00066 0.53169
# Poissons Ratio (z) = 0.00515 0.26793
#
# Static dielectric constant tensor:
#      x y z
#    x 1.790980 0.000000 0.000000 
#    y 0.000000 1.827980 0.000000 
#    z 0.000000 0.000000 1.828440 
# 
# From -- ./inp_files/34304.got.cif
#   From: 2010.05.17/outbox.cif.g08.bks.cpg/sg53_18_cif.got.tgz:34304.got - 2010.06.03 12:45:16.
