data_PCOD9414527
_publ_section_title
;
Structure prediction by ZEFSAII (Michael W. Deem and Ramdas Pophale) SiO2 
 PCOD9414527
Probable space group: P M N A
;
_chemical_formula_sum "Si O2"
_cell_formula_units_Z 48
_cell_length_a 20.116769
_cell_length_b 5.411624
_cell_length_c 16.709764
_cell_angle_alpha 90.000000
_cell_angle_beta 90.000000
_cell_angle_gamma 90.000000
_cell_volume 1819.098264
_symmetry_space_group_name_H-M "P M N A"
_symmetry_group_IT_number 53
_symmetry_cell_setting 'orthorhombic'
loop_
_space_group_symop_operation_xyz
x,y,z
1/2-x,-y,1/2+z
x,-y,-z
1/2-x,y,1/2-z
-x,-y,-z
1/2+x,y,1/2-z
-x,y,z
1/2+x,-y,1/2+z
loop_
_atom_site_type_symbol
_atom_site_label
_atom_site_fract_x
_atom_site_fract_y
_atom_site_fract_z
Si Si1 0.258182 0.086330 0.409196
Si Si2 0.893424 0.920163 0.652009
Si Si3 0.746603 0.412928 0.656941
Si Si4 0.080468 0.898842 0.172910
Si Si5 0.602765 0.579589 0.091700
Si Si6 0.080774 0.602039 0.913841
O O1 0.180029 0.113445 0.386181
O O2 0.285258 0.358542 0.390424
O O3 0.264560 0.000000 0.500000
O O4 0.282845 0.859326 0.355258
O O5 0.924729 0.649825 0.642549
O O6 0.890547 0.006235 0.743176
O O7 0.926132 0.149302 0.605777
O O8 0.750000 0.477709 0.750000
O O9 0.820708 0.387962 0.620426
O O10 0.096469 0.614750 0.150600
O O11 0.000000 0.905341 0.182513
O O12 0.096266 0.111735 0.107152
O O13 0.599806 0.500000 0.000000
O O14 0.000000 0.601779 0.917307
O O15 0.103468 0.500000 0.000000
#
# Coordination Sequence:
#
# PCOD9414527 Si02
#       6
#     8   8   8   8   8   8
#     4  10  19  33  51  72  96 127 165 196 228 275
#     4  10  18  30  49  71  96 127 158 200 240 278
#     4  10  18  29  48  77  99 115 146 199 245 274
#     4  10  19  30  47  73  99 123 158 205 248 279
#     4  10  19  33  52  72  93 124 165 198 229 276
#     4   9  17  30  47  68  92 118 152 195 242 288
#
# _framework density 26.386702
#
# number of rings (size 3 to 8) (size 9 to 14) (size 15 to 20)
#    0.000    2.167    0.000    7.000    0.000    2.000 
#    0.000    0.000    0.000    5.500    0.000  121.333 
#    0.000    0.000    0.000    0.000    0.000    0.000 
#
# Total GULP energy -268822.070651 kJ/mol
# GULP energy per Si atom -5600.459805 kJ/mol
# Density = 2.632664 g / cm^3
# Si number density = 26.386702 Si / 1000 Ang^3
#
#
#
# Elastic Constant Matrix: (Units=GPa)
#
#
# Indices 1 2 3 4 5 6 
#
# 1 77.4631 23.2851 -7.6697 0.0000 0.0000 0.0000
# 2 23.2851 232.6692 36.7420 0.0000 0.0000 0.0000
# 3 -7.6697 36.7420 135.9702 0.0000 0.0000 0.0000
# 4 0.0000 0.0000 0.0000 53.2483 0.0000 0.0000
# 5 0.0000 0.0000 0.0000 0.0000 12.1184 0.0000
# 6 0.0000 0.0000 0.0000 0.0000 0.0000 42.4131
#
#
#
# Elastic Compliance Matrix: (Units=1/GPa)
#
#
# Indices 1 2 3 4 5 6 
#
# 1 0.013487 -0.001535 0.001176 0.000000 0.000000 0.000000
# 2 -0.001535 0.004664 -0.001347 0.000000 0.000000 0.000000
# 3 0.001176 -0.001347 0.007785 0.000000 0.000000 0.000000
# 4 0.000000 0.000000 0.000000 0.018780 0.000000 0.000000
# 5 0.000000 0.000000 0.000000 0.000000 0.082519 0.000000
# 6 0.000000 0.000000 0.000000 0.000000 0.000000 0.023578
#
#
# Mechanical properties :
#
#
# Convention : Reuss Voigt Hill
#
# Bulk Modulus (GPa) = 44.39908 61.20192 52.80050
# Shear Modulus (GPa) = 30.91482 47.80563 39.36023
#
# Velocity S-wave (km/s) = 3.42659 4.26106 3.86640
# Velocity P-wave (km/s) = 5.70247 6.88865 6.32343
#
# Compressibility (1/GPa) = 0.02252299
#
# Stress axis : x y z
#
# Youngs Moduli (GPa) = 74.14370 214.39325 128.45444
#
# Poissons Ratio (x) = 0.32919 -0.15102
# Poissons Ratio (y) = 0.11384 0.17303
# Poissons Ratio (z) = -0.08717 0.28879
#
# Static dielectric constant tensor:
#      x y z
#    x 2.189180 0.000000 0.000000 
#    y 0.000000 2.087810 0.000000 
#    z 0.000000 0.000000 1.967990 
# 
# From -- ./inp_files/24922.got.cif
#   From: 2010.05.17/outbox.cif.g08.bks.cpg/sg53_13_cif.got.tgz:24922.got - 2010.06.03 12:45:16.
