data_PCOD9414978
_publ_section_title
;
Structure prediction by ZEFSAII (Michael W. Deem and Ramdas Pophale) SiO2 
 PCOD9414978
Probable space group: P M N A
;
_chemical_formula_sum "Si O2"
_cell_formula_units_Z 48
_cell_length_a 9.673352
_cell_length_b 29.852846
_cell_length_c 9.424506
_cell_angle_alpha 90.000000
_cell_angle_beta 90.000000
_cell_angle_gamma 90.000000
_cell_volume 2721.581394
_symmetry_space_group_name_H-M "P M N A"
_symmetry_group_IT_number 53
_symmetry_cell_setting 'orthorhombic'
loop_
_space_group_symop_operation_xyz
x,y,z
1/2-x,-y,1/2+z
x,-y,-z
1/2-x,y,1/2-z
-x,-y,-z
1/2+x,y,1/2-z
-x,y,z
1/2+x,-y,1/2+z
loop_
_atom_site_type_symbol
_atom_site_label
_atom_site_fract_x
_atom_site_fract_y
_atom_site_fract_z
Si Si1 0.661556 0.118578 0.390985
Si Si2 0.500000 0.450969 0.571049
Si Si3 0.755976 0.610210 0.421557
Si Si4 0.166264 0.775827 0.896621
Si Si5 0.500000 0.454808 0.913535
Si Si6 0.835535 0.041351 0.893682
Si Si7 0.669890 0.290983 0.900892
O O1 0.750000 0.109739 0.250000
O O2 0.500000 0.109523 0.359524
O O3 0.674183 0.171029 0.428568
O O4 0.702014 0.086346 0.519891
O O5 0.500000 0.500000 0.500000
O O6 0.624063 0.417699 0.532321
O O7 0.500000 0.459781 0.741988
O O8 0.750000 0.613661 0.250000
O O9 0.873995 0.575769 0.456934
O O10 0.790575 0.660516 0.468578
O O11 0.250000 0.769175 0.750000
O O12 0.000000 0.764450 0.889756
O O13 0.254520 0.747252 0.008416
O O14 0.500000 0.500000 0.000000
O O15 0.750000 0.036922 0.750000
O O16 0.000000 0.042389 0.862707
O O17 0.810153 0.000000 0.000000
O O18 0.750000 0.289529 0.750000
O O19 0.500000 0.287521 0.889437
#
# Coordination Sequence:
#
# PCOD9414978 Si02
#       7
#     8   4   8   8   4   8   8
#     4   9  19  36  57  82 111 148 191 231 280 338
#     4  10  20  34  52  78 104 136 174 216 267 324
#     4   9  19  33  54  76 102 137 177 218 266 325
#     4  10  21  38  59  83 116 152 186 232 287 342
#     4  10  18  34  54  74 102 134 172 216 265 320
#     4  10  21  36  55  82 116 151 192 239 285 336
#     4  11  22  37  59  85 110 144 191 235 281 337
#
# _framework density 17.636804000000001
#
# number of rings (size 3 to 8) (size 9 to 14) (size 15 to 20)
#    0.000    2.167    0.833    2.000    4.667    2.333 
#    0.000    3.333    0.000    0.000    0.000    0.000 
#    0.000    0.000    0.000    0.000    0.000    0.000 
#
# Total GULP energy -267253.340688 kJ/mol
# GULP energy per Si atom -5567.777931 kJ/mol
# Density = 1.759666 g / cm^3
# Si number density = 17.636804 Si / 1000 Ang^3
#
#
#
# Elastic Constant Matrix: (Units=GPa)
#
#
# Indices 1 2 3 4 5 6 
#
# 1 160.4253 71.6378 63.3769 0.0000 0.0000 0.0000
# 2 71.6378 100.2785 76.2544 0.0000 0.0000 0.0000
# 3 63.3769 76.2544 91.3111 0.0000 0.0000 0.0000
# 4 0.0000 0.0000 0.0000 34.7295 0.0000 0.0000
# 5 0.0000 0.0000 0.0000 0.0000 29.4842 0.0000
# 6 0.0000 0.0000 0.0000 0.0000 0.0000 29.5577
#
#
#
# Elastic Compliance Matrix: (Units=1/GPa)
#
#
# Indices 1 2 3 4 5 6 
#
# 1 0.009357 -0.004784 -0.002499 0.000000 0.000000 0.000000
# 2 -0.004784 0.029770 -0.021541 0.000000 0.000000 0.000000
# 3 -0.002499 -0.021541 0.030675 0.000000 0.000000 0.000000
# 4 0.000000 0.000000 0.000000 0.028794 0.000000 0.000000
# 5 0.000000 0.000000 0.000000 0.000000 0.033916 0.000000
# 6 0.000000 0.000000 0.000000 0.000000 0.000000 0.033832
#
#
# Mechanical properties :
#
#
# Convention : Reuss Voigt Hill
#
# Bulk Modulus (GPa) = 82.27685 86.06144 84.16915
# Shear Modulus (GPa) = 21.92561 28.13733 25.03147
#
# Velocity S-wave (km/s) = 3.52969 3.99855 3.77141
# Velocity P-wave (km/s) = 7.96012 8.37976 8.17263
#
# Compressibility (1/GPa) = 0.01215409
#
# Stress axis : x y z
#
# Youngs Moduli (GPa) = 106.87033 33.59100 32.59985
#
# Poissons Ratio (x) = 0.16070 0.08148
# Poissons Ratio (y) = 0.51127 0.70222
# Poissons Ratio (z) = 0.26711 0.72357
#
# Static dielectric constant tensor:
#      x y z
#    x 1.590770 0.000000 0.000000 
#    y 0.000000 6.124540 0.000000 
#    z 0.000000 0.000000 1.574010 
# 
# From -- ./inp_files/6816.got.cif
#   From: 2010.05.17/outbox.cif.g08.bks.cpg/sg53_4_cif.got.tgz:6816.got - 2010.06.03 12:45:16.
