data_PCOD9414764
_publ_section_title
;
Structure prediction by ZEFSAII (Michael W. Deem and Ramdas Pophale) SiO2 
 PCOD9414764
Probable space group: P M N A
;
_chemical_formula_sum "Si O2"
_cell_formula_units_Z 48
_cell_length_a 18.476552
_cell_length_b 10.272292
_cell_length_c 14.868351
_cell_angle_alpha 90.000000
_cell_angle_beta 90.000000
_cell_angle_gamma 90.000000
_cell_volume 2821.961535
_symmetry_space_group_name_H-M "P M N A"
_symmetry_group_IT_number 53
_symmetry_cell_setting 'orthorhombic'
loop_
_space_group_symop_operation_xyz
x,y,z
1/2-x,-y,1/2+z
x,-y,-z
1/2-x,y,1/2-z
-x,-y,-z
1/2+x,y,1/2-z
-x,y,z
1/2+x,-y,1/2+z
loop_
_atom_site_type_symbol
_atom_site_label
_atom_site_fract_x
_atom_site_fract_y
_atom_site_fract_z
Si Si1 0.773159 0.344996 0.489958
Si Si2 0.195890 0.744492 0.171744
Si Si3 0.879655 0.368767 0.061519
Si Si4 0.081252 0.874181 0.059743
Si Si5 0.919943 0.612299 0.575541
Si Si6 0.082436 0.479406 0.768630
O O1 0.780198 0.500000 0.500000
O O2 0.745352 0.293906 0.585942
O O3 0.704075 0.327092 0.425494
O O4 0.850987 0.300993 0.453385
O O5 0.250000 0.783098 0.250000
O O6 0.140314 0.852189 0.136310
O O7 0.144365 0.624762 0.204621
O O8 0.913771 0.408906 0.155462
O O9 0.881807 0.500000 0.000000
O O10 0.915043 0.253552 0.004259
O O11 0.000000 0.886142 0.095748
O O12 0.097263 0.000000 0.000000
O O13 0.925805 0.500000 0.500000
O O14 0.904904 0.541375 0.670677
O O15 0.000000 0.674961 0.581256
O O16 0.000000 0.424253 0.770101
#
# Coordination Sequence:
#
# PCOD9414764 Si02
#       6
#     8   8   8   8   8   8
#     4   9  15  29  43  67 102 135 165 208 266 301
#     4  11  20  31  53  78 105 139 180 223 261 322
#     4  10  18  31  53  82 111 135 167 225 272 325
#     4  10  21  37  57  79 111 145 177 222 280 332
#     4   9  18  29  41  63 106 146 176 212 259 318
#     4  11  20  29  50  80 107 138 175 222 274 317
#
# _framework density 17.009444999999999
#
# number of rings (size 3 to 8) (size 9 to 14) (size 15 to 20)
#    0.000    2.000    5.000    3.000    0.000    0.667 
#    0.000    0.833    7.333    0.000    0.000    0.000 
#    0.000   12.000    0.000    0.000    0.000    0.000 
#
# Total GULP energy -267247.879540 kJ/mol
# GULP energy per Si atom -5567.664157 kJ/mol
# Density = 1.697073 g / cm^3
# Si number density = 17.009445 Si / 1000 Ang^3
#
#
#
# Elastic Constant Matrix: (Units=GPa)
#
#
# Indices 1 2 3 4 5 6 
#
# 1 158.6172 24.3041 57.7086 0.0000 0.0000 0.0000
# 2 24.3041 46.9464 21.5192 0.0000 0.0000 0.0000
# 3 57.7086 21.5192 112.7183 0.0000 0.0000 0.0000
# 4 0.0000 0.0000 0.0000 9.7129 0.0000 0.0000
# 5 0.0000 0.0000 0.0000 0.0000 33.2314 0.0000
# 6 0.0000 0.0000 0.0000 0.0000 0.0000 8.9133
#
#
#
# Elastic Compliance Matrix: (Units=1/GPa)
#
#
# Indices 1 2 3 4 5 6 
#
# 1 0.008003 -0.002482 -0.003623 0.000000 0.000000 0.000000
# 2 -0.002482 0.024114 -0.003333 0.000000 0.000000 0.000000
# 3 -0.003623 -0.003333 0.011363 0.000000 0.000000 0.000000
# 4 0.000000 0.000000 0.000000 0.102956 0.000000 0.000000
# 5 0.000000 0.000000 0.000000 0.000000 0.030092 0.000000
# 6 0.000000 0.000000 0.000000 0.000000 0.000000 0.112191
#
#
# Mechanical properties :
#
#
# Convention : Reuss Voigt Hill
#
# Bulk Modulus (GPa) = 40.64572 58.37174 49.50873
# Shear Modulus (GPa) = 15.83296 24.68820 20.26058
#
# Velocity S-wave (km/s) = 3.05427 3.81391 3.45503
# Velocity P-wave (km/s) = 6.03207 7.33391 6.71462
#
# Compressibility (1/GPa) = 0.02460284
#
# Stress axis : x y z
#
# Youngs Moduli (GPa) = 124.95092 41.47040 88.00452
#
# Poissons Ratio (x) = 0.10294 0.31888
# Poissons Ratio (y) = 0.31016 0.29329
# Poissons Ratio (z) = 0.45276 0.13821
#
# Static dielectric constant tensor:
#      x y z
#    x 1.678130 0.000000 0.000000 
#    y 0.000000 1.541040 0.000000 
#    z 0.000000 0.000000 1.548930 
# 
# From -- ./inp_files/23753.got.cif
#   From: 2010.05.17/outbox.cif.g08.bks.cpg/sg53_12_cif.got.tgz:23753.got - 2010.06.03 12:45:16.
