data_PCOD9414784
_publ_section_title
;
Structure prediction by ZEFSAII (Michael W. Deem and Ramdas Pophale) SiO2 
 PCOD9414784
Probable space group: P M N A
;
_chemical_formula_sum "Si O2"
_cell_formula_units_Z 48
_cell_length_a 19.806300
_cell_length_b 9.540848
_cell_length_c 14.843322
_cell_angle_alpha 90.000000
_cell_angle_beta 90.000000
_cell_angle_gamma 90.000000
_cell_volume 2804.926197
_symmetry_space_group_name_H-M "P M N A"
_symmetry_group_IT_number 53
_symmetry_cell_setting 'orthorhombic'
loop_
_space_group_symop_operation_xyz
x,y,z
1/2-x,-y,1/2+z
x,-y,-z
1/2-x,y,1/2-z
-x,-y,-z
1/2+x,y,1/2-z
-x,y,z
1/2+x,-y,1/2+z
loop_
_atom_site_type_symbol
_atom_site_label
_atom_site_fract_x
_atom_site_fract_y
_atom_site_fract_z
Si Si1 0.723067 0.842802 0.147965
Si Si2 0.074765 0.934515 0.790032
Si Si3 0.423224 0.141656 0.558759
Si Si4 0.718008 0.148050 0.347540
Si Si5 0.799322 0.335379 0.989144
Si Si6 0.577162 0.939526 0.101063
O O1 0.750000 0.830845 0.250000
O O2 0.642943 0.850169 0.128957
O O3 0.755108 0.995081 0.119431
O O4 0.752481 0.715001 0.092127
O O5 0.137929 0.853125 0.828924
O O6 0.000000 0.883492 0.815994
O O7 0.082075 0.087474 0.837832
O O8 0.078276 0.946579 0.682319
O O9 0.500000 0.186473 0.543100
O O10 0.370042 0.258003 0.532015
O O11 0.411544 0.000000 0.500000
O O12 0.750000 0.172196 0.250000
O O13 0.731648 0.263903 0.421676
O O14 0.806064 0.500000 0.000000
O O15 0.500000 0.879445 0.104471
O O16 0.586344 0.000000 0.000000
#
# Coordination Sequence:
#
# PCOD9414784 Si02
#       6
#     8   8   8   8   8   8
#     4  11  20  37  60  81 108 147 189 241 288 335
#     4  10  18  31  54  85 111 136 175 227 287 331
#     4  10  18  33  57  81 109 145 186 231 273 330
#     4  11  20  35  56  82 105 144 186 236 278 325
#     4  12  24  35  52  80 118 153 186 227 280 354
#     4  10  19  31  53  87 115 134 174 241 294 330
#
# _framework density 17.112749999999998
#
# number of rings (size 3 to 8) (size 9 to 14) (size 15 to 20)
#    0.000    1.333    6.667    1.500    0.000    1.000 
#    0.000    0.000    0.000    0.500    0.000    2.333 
#    0.000    0.000    0.000    0.000    0.000    0.000 
#
# Total GULP energy -267387.656700 kJ/mol
# GULP energy per Si atom -5570.576181 kJ/mol
# Density = 1.707380 g / cm^3
# Si number density = 17.112750 Si / 1000 Ang^3
#
#
#
# Elastic Constant Matrix: (Units=GPa)
#
#
# Indices 1 2 3 4 5 6 
#
# 1 137.8402 31.8348 27.3681 0.0000 0.0000 0.0000
# 2 31.8348 72.4143 25.7432 0.0000 0.0000 0.0000
# 3 27.3681 25.7432 103.0257 0.0000 0.0000 0.0000
# 4 0.0000 0.0000 0.0000 4.6555 0.0000 0.0000
# 5 0.0000 0.0000 0.0000 0.0000 22.1473 0.0000
# 6 0.0000 0.0000 0.0000 0.0000 0.0000 10.7563
#
#
#
# Elastic Compliance Matrix: (Units=1/GPa)
#
#
# Indices 1 2 3 4 5 6 
#
# 1 0.008258 -0.003128 -0.001412 0.000000 0.000000 0.000000
# 2 -0.003128 0.016341 -0.003252 0.000000 0.000000 0.000000
# 3 -0.001412 -0.003252 0.010894 0.000000 0.000000 0.000000
# 4 0.000000 0.000000 0.000000 0.214799 0.000000 0.000000
# 5 0.000000 0.000000 0.000000 0.000000 0.045152 0.000000
# 6 0.000000 0.000000 0.000000 0.000000 0.000000 0.092968
#
#
# Mechanical properties :
#
#
# Convention : Reuss Voigt Hill
#
# Bulk Modulus (GPa) = 50.23150 53.68582 51.95866
# Shear Modulus (GPa) = 12.17635 22.73412 17.45523
#
# Velocity S-wave (km/s) = 2.67036 3.64880 3.19723
# Velocity P-wave (km/s) = 6.23897 7.01367 6.63763
#
# Compressibility (1/GPa) = 0.01990783
#
# Stress axis : x y z
#
# Youngs Moduli (GPa) = 121.10055 61.19653 91.79380
#
# Poissons Ratio (x) = 0.19144 0.12960
# Poissons Ratio (y) = 0.37884 0.29852
# Poissons Ratio (z) = 0.17098 0.19902
#
# Static dielectric constant tensor:
#      x y z
#    x 1.644330 0.000000 0.000000 
#    y 0.000000 1.528490 0.000000 
#    z 0.000000 0.000000 1.653310 
# 
# From -- ./inp_files/29265.got.cif
#   From: 2010.05.17/outbox.cif.g08.bks.cpg/sg53_15_cif.got.tgz:29265.got - 2010.06.03 12:45:16.
