data_PCOD9414670
_publ_section_title
;
Structure prediction by ZEFSAII (Michael W. Deem and Ramdas Pophale) SiO2 
 PCOD9414670
Probable space group: P M N A
;
_chemical_formula_sum "Si O2"
_cell_formula_units_Z 52
_cell_length_a 32.620864
_cell_length_b 5.561680
_cell_length_c 20.632824
_cell_angle_alpha 90.000000
_cell_angle_beta 90.000000
_cell_angle_gamma 90.000000
_cell_volume 3743.347375
_symmetry_space_group_name_H-M "P M N A"
_symmetry_group_IT_number 53
_symmetry_cell_setting 'orthorhombic'
loop_
_space_group_symop_operation_xyz
x,y,z
1/2-x,-y,1/2+z
x,-y,-z
1/2-x,y,1/2-z
-x,-y,-z
1/2+x,y,1/2-z
-x,y,z
1/2+x,-y,1/2+z
loop_
_atom_site_type_symbol
_atom_site_label
_atom_site_fract_x
_atom_site_fract_y
_atom_site_fract_z
Si Si1 0.699819 0.151712 0.247703
Si Si2 0.547328 0.008872 0.421538
Si Si3 0.828090 0.698933 0.886305
Si Si4 0.091842 0.489255 0.921257
Si Si5 0.288777 0.656112 0.199304
Si Si6 0.753169 0.609260 0.064640
Si Si7 0.311835 0.000000 0.500000
O O1 0.750000 0.144448 0.250000
O O2 0.680234 0.176245 0.318507
O O3 0.690059 0.398289 0.209850
O O4 0.687284 0.897727 0.217435
O O5 0.500000 0.006803 0.399955
O O6 0.569591 0.759412 0.402549
O O7 0.547189 0.000000 0.500000
O O8 0.568268 0.262908 0.402543
O O9 0.863588 0.502278 0.887907
O O10 0.784694 0.586974 0.907131
O O11 0.839037 0.873716 0.945767
O O12 0.095959 0.500000 0.000000
O O13 0.250000 0.648677 0.250000
O O14 0.273960 0.680854 0.125476
O O15 0.732474 0.500000 0.000000
O O16 0.782159 0.821681 0.039075
#
# Coordination Sequence:
#
# PCOD9414670 Si02
#       7
#     8   8   8   8   8   8   4
#     4  10  19  31  46  56  77 108 141 164 199 267
#     4   9  18  32  46  59  78 107 137 165 206 268
#     4  11  21  30  42  64  83 109 135 176 225 268
#     4  10  20  29  44  63  84 104 133 174 223 263
#     4  10  18  31  45  57  74 106 139 164 203 263
#     4  10  20  30  42  62  80 106 135 179 222 266
#     4  10  20  28  42  54  87 102 126 168 228 270
#
# _framework density 13.891310000000001
#
# number of rings (size 3 to 8) (size 9 to 14) (size 15 to 20)
#    0.000    2.000    3.077    3.692    7.538    1.846 
#    0.000    0.000    0.000    0.000    0.000    0.000 
#    0.000    0.000    0.000    0.000    0.000    0.000 
#
# Total GULP energy -289639.461164 kJ/mol
# GULP energy per Si atom -5569.989638 kJ/mol
# Density = 1.385969 g / cm^3
# Si number density = 13.891310 Si / 1000 Ang^3
#
#
#
# Elastic Constant Matrix: (Units=GPa)
#
#
# Indices 1 2 3 4 5 6 
#
# 1 28.9473 12.9623 20.1264 0.0000 0.0000 0.0000
# 2 12.9623 95.6037 24.4487 0.0000 0.0000 0.0000
# 3 20.1264 24.4487 70.1917 0.0000 0.0000 0.0000
# 4 0.0000 0.0000 0.0000 28.9170 0.0000 0.0000
# 5 0.0000 0.0000 0.0000 0.0000 1.7996 0.0000
# 6 0.0000 0.0000 0.0000 0.0000 0.0000 5.8764
#
#
#
# Elastic Compliance Matrix: (Units=1/GPa)
#
#
# Indices 1 2 3 4 5 6 
#
# 1 0.043918 -0.003002 -0.011547 0.000000 0.000000 0.000000
# 2 -0.003002 0.011688 -0.003210 0.000000 0.000000 0.000000
# 3 -0.011547 -0.003210 0.018676 0.000000 0.000000 0.000000
# 4 0.000000 0.000000 0.000000 0.034582 0.000000 0.000000
# 5 0.000000 0.000000 0.000000 0.000000 0.555694 0.000000
# 6 0.000000 0.000000 0.000000 0.000000 0.000000 0.170173
#
#
# Mechanical properties :
#
#
# Convention : Reuss Voigt Hill
#
# Bulk Modulus (GPa) = 25.79760 34.42416 30.11088
# Shear Modulus (GPa) = 5.66142 16.46561 11.06351
#
# Velocity S-wave (km/s) = 2.02098 3.44658 2.82518
# Velocity P-wave (km/s) = 4.90481 6.37757 5.68905
#
# Compressibility (1/GPa) = 0.03876329
#
# Stress axis : x y z
#
# Youngs Moduli (GPa) = 22.76963 85.55935 53.54485
#
# Poissons Ratio (x) = 0.25681 0.61830
# Poissons Ratio (y) = 0.06834 0.17190
# Poissons Ratio (z) = 0.26293 0.27468
#
# Static dielectric constant tensor:
#      x y z
#    x 1.439370 0.000000 0.000000 
#    y 0.000000 1.549660 0.000000 
#    z 0.000000 0.000000 1.458870 
# 
# From -- ./inp_files/33330.got.cif
#   From: 2010.05.17/outbox.cif.g08.bks.cpg/sg53_17_cif.got.tgz:33330.got - 2010.06.03 12:45:16.
