data_PCOD9414816
_publ_section_title
;
Structure prediction by ZEFSAII (Michael W. Deem and Ramdas Pophale) SiO2 
 PCOD9414816
Probable space group: P M N A
;
_chemical_formula_sum "Si O2"
_cell_formula_units_Z 64
_cell_length_a 7.575587
_cell_length_b 10.088429
_cell_length_c 38.004751
_cell_angle_alpha 90.000000
_cell_angle_beta 90.000000
_cell_angle_gamma 90.000000
_cell_volume 2904.542419
_symmetry_space_group_name_H-M "P M N A"
_symmetry_group_IT_number 53
_symmetry_cell_setting 'orthorhombic'
loop_
_space_group_symop_operation_xyz
x,y,z
1/2-x,-y,1/2+z
x,-y,-z
1/2-x,y,1/2-z
-x,-y,-z
1/2+x,y,1/2-z
-x,y,z
1/2+x,-y,1/2+z
loop_
_atom_site_type_symbol
_atom_site_label
_atom_site_fract_x
_atom_site_fract_y
_atom_site_fract_z
Si Si1 0.783407 0.253441 0.313710
Si Si2 0.710257 0.470895 0.788017
Si Si3 0.208724 0.676077 0.607782
Si Si4 0.211749 0.032402 0.709965
Si Si5 0.288880 0.178138 0.529374
Si Si6 0.788562 0.384589 0.586374
Si Si7 0.713301 0.109771 0.451235
Si Si8 0.716060 0.744178 0.156831
O O1 0.722640 0.379999 0.291515
O O2 0.724647 0.279908 0.353854
O O3 0.000000 0.249670 0.313469
O O4 0.721713 0.115520 0.297585
O O5 0.750000 0.412745 0.750000
O O6 0.500000 0.475649 0.791592
O O7 0.773356 0.381187 0.819844
O O8 0.278783 0.534294 0.593394
O O9 0.231074 0.794411 0.580079
O O10 0.000000 0.655409 0.612910
O O11 0.250000 0.074181 0.750000
O O12 0.276675 0.129131 0.679004
O O13 0.000000 0.031374 0.707067
O O14 0.500000 0.167783 0.527838
O O15 0.248221 0.313072 0.549595
O O16 0.226532 0.167592 0.489057
O O17 0.226255 0.044106 0.549432
O O18 0.724475 0.285555 0.617310
O O19 0.000000 0.391256 0.589268
O O20 0.500000 0.109009 0.450933
O O21 0.500000 0.748864 0.156229
#
# Coordination Sequence:
#
# PCOD9414816 Si02
#       8
#     8   8   8   8   8   8   8   8
#     4   9  18  33  52  74 102 137 173 213 263 317
#     4  10  18  32  52  72  99 134 171 211 258 309
#     4  10  20  35  56  83 112 142 181 226 268 315
#     4  10  20  34  52  74 101 134 175 219 266 317
#     4   9  20  39  59  80 110 146 180 217 266 321
#     4  10  20  35  56  83 112 142 181 226 268 315
#     4   9  20  39  59  80 110 146 180 217 266 321
#     4   9  18  33  52  74 102 137 173 213 263 317
#
# _framework density 22.034451000000001
#
# number of rings (size 3 to 8) (size 9 to 14) (size 15 to 20)
#    0.000    2.500    1.250    1.500    1.750    2.000 
#    0.000    6.250    0.000    0.000    0.000    0.000 
#    0.000    0.000    0.000    0.000    0.000    0.000 
#
# Total GULP energy -357244.116298 kJ/mol
# GULP energy per Si atom -5581.939317 kJ/mol
# Density = 2.198430 g / cm^3
# Si number density = 22.034451 Si / 1000 Ang^3
#
#
#
# Elastic Constant Matrix: (Units=GPa)
#
#
# Indices 1 2 3 4 5 6 
#
# 1 45.3744 -0.4568 -7.6899 0.0000 0.0000 0.0000
# 2 -0.4568 63.7903 2.9466 0.0000 0.0000 0.0000
# 3 -7.6899 2.9466 71.5218 0.0000 0.0000 0.0000
# 4 0.0000 0.0000 0.0000 39.2169 0.0000 0.0000
# 5 0.0000 0.0000 0.0000 0.0000 11.0719 0.0000
# 6 0.0000 0.0000 0.0000 0.0000 0.0000 3.8779
#
#
#
# Elastic Compliance Matrix: (Units=1/GPa)
#
#
# Indices 1 2 3 4 5 6 
#
# 1 0.022448 0.000049 0.002412 0.000000 0.000000 0.000000
# 2 0.000049 0.015706 -0.000642 0.000000 0.000000 0.000000
# 3 0.002412 -0.000642 0.014267 0.000000 0.000000 0.000000
# 4 0.000000 0.000000 0.000000 0.025499 0.000000 0.000000
# 5 0.000000 0.000000 0.000000 0.000000 0.090319 0.000000
# 6 0.000000 0.000000 0.000000 0.000000 0.000000 0.257869
#
#
# Mechanical properties :
#
#
# Convention : Reuss Voigt Hill
#
# Bulk Modulus (GPa) = 17.83800 18.92072 18.37936
# Shear Modulus (GPa) = 11.33384 23.22580 17.27982
#
# Velocity S-wave (km/s) = 2.27043 3.25016 2.80343
# Velocity P-wave (km/s) = 3.87120 4.76343 4.34030
#
# Compressibility (1/GPa) = 0.05606009
#
# Stress axis : x y z
#
# Youngs Moduli (GPa) = 44.54731 63.66846 70.08952
#
# Poissons Ratio (x) = -0.00314 -0.16902
# Poissons Ratio (y) = -0.00220 0.04498
# Poissons Ratio (z) = -0.10743 0.04086
#
# Static dielectric constant tensor:
#      x y z
#    x 1.840860 0.000000 0.000000 
#    y 0.000000 1.811750 0.000000 
#    z 0.000000 0.000000 1.708090 
# 
# From -- ./inp_files/38735.got.cif
#   From: 2010.05.17/outbox.cif.g08.bks.cpg/sg53_20_cif.got.tgz:38735.got - 2010.06.03 12:45:16.
