data_PCOD9414230
_publ_section_title
;
Structure prediction by ZEFSAII (Michael W. Deem and Ramdas Pophale) SiO2 
 PCOD9414230
Probable space group: P M N A
;
_chemical_formula_sum "Si O2"
_cell_formula_units_Z 60
_cell_length_a 15.197059
_cell_length_b 14.913679
_cell_length_c 11.836289
_cell_angle_alpha 90.000000
_cell_angle_beta 90.000000
_cell_angle_gamma 90.000000
_cell_volume 2682.624590
_symmetry_space_group_name_H-M "P M N A"
_symmetry_group_IT_number 53
_symmetry_cell_setting 'orthorhombic'
loop_
_space_group_symop_operation_xyz
x,y,z
1/2-x,-y,1/2+z
x,-y,-z
1/2-x,y,1/2-z
-x,-y,-z
1/2+x,y,1/2-z
-x,y,z
1/2+x,-y,1/2+z
loop_
_atom_site_type_symbol
_atom_site_label
_atom_site_fract_x
_atom_site_fract_y
_atom_site_fract_z
Si Si1 0.102301 0.812866 0.705012
Si Si2 0.344260 0.182095 0.806275
Si Si3 0.808949 0.992956 0.633010
Si Si4 0.904382 0.701132 0.490699
Si Si5 0.139208 0.500000 0.500000
Si Si6 0.108990 0.488057 0.260078
Si Si7 0.607220 0.687090 0.610681
Si Si8 0.398748 0.670477 0.360678
O O1 0.143585 0.898003 0.645014
O O2 0.105745 0.729020 0.619556
O O3 0.142041 0.773461 0.820583
O O4 0.000000 0.835062 0.724571
O O5 0.250000 0.173195 0.750000
O O6 0.396606 0.239690 0.713679
O O7 0.368661 0.082260 0.846935
O O8 0.336941 0.247174 0.913235
O O9 0.750000 0.991462 0.750000
O O10 0.774912 0.000000 0.500000
O O11 0.904986 0.595707 0.474161
O O12 0.000000 0.737024 0.453229
O O13 0.168601 0.477737 0.372446
O O14 0.123571 0.406082 0.174826
O O15 0.134026 0.583503 0.205761
O O16 0.000000 0.486529 0.285664
O O17 0.500000 0.697211 0.609499
O O18 0.642369 0.682801 0.483781
O O19 0.500000 0.646825 0.382556
#
# Coordination Sequence:
#
# PCOD9414230 Si02
#       8
#     8   8   8   8   4   8   8   8
#     4  10  21  37  62  93 123 154 200 264 318 359
#     4  11  24  40  60  83 119 157 199 254 312 368
#     4  11  25  45  67  92 121 162 212 257 316 384
#     4  11  20  35  62  93 125 159 201 254 308 359
#     4  12  19  28  58  98 128 154 197 248 297 360
#     4  10  17  27  50  85 119 154 194 243 291 349
#     4   9  18  33  53  85 124 156 191 242 303 364
#     4  10  20  35  58  85 117 161 206 245 297 368
#
# _framework density 22.366154000000002
#
# number of rings (size 3 to 8) (size 9 to 14) (size 15 to 20)
#    0.000    1.600    4.000    2.000    0.000    5.067 
#    0.000    0.000    2.933    4.400    0.000    0.000 
#    0.000    0.000    0.000    0.000    0.000    0.000 
#
# Total GULP energy -334089.769962 kJ/mol
# GULP energy per Si atom -5568.162833 kJ/mol
# Density = 2.231525 g / cm^3
# Si number density = 22.366154 Si / 1000 Ang^3
#
#
#
# Elastic Constant Matrix: (Units=GPa)
#
#
# Indices 1 2 3 4 5 6 
#
# 1 22.8881 12.0196 10.8521 0.0000 0.0000 0.0000
# 2 12.0196 129.7221 36.6796 0.0000 0.0000 0.0000
# 3 10.8521 36.6796 162.2189 0.0000 0.0000 0.0000
# 4 0.0000 0.0000 0.0000 31.6447 0.0000 0.0000
# 5 0.0000 0.0000 0.0000 0.0000 2.1108 0.0000
# 6 0.0000 0.0000 0.0000 0.0000 0.0000 -16.1096
#
#
#
# Elastic Compliance Matrix: (Units=1/GPa)
#
#
# Indices 1 2 3 4 5 6 
#
# 1 0.046710 -0.003680 -0.002293 0.000000 0.000000 0.000000
# 2 -0.003680 0.008525 -0.001681 0.000000 0.000000 0.000000
# 3 -0.002293 -0.001681 0.006698 0.000000 0.000000 0.000000
# 4 0.000000 0.000000 0.000000 0.031601 0.000000 0.000000
# 5 0.000000 0.000000 0.000000 0.000000 0.473744 0.000000
# 6 0.000000 0.000000 0.000000 0.000000 0.000000 -0.062075
#
#
# Mechanical properties :
#
#
# Convention : Reuss Voigt Hill
#
# Bulk Modulus (GPa) = 21.44741 48.21464 34.83102
# Shear Modulus (GPa) = 9.32742 20.54771 14.93756
#
# Velocity S-wave (km/s) = 2.04435 3.03429 2.58711
# Velocity P-wave (km/s) = 3.89648 5.82062 4.95289
#
# Compressibility (1/GPa) = 0.04662568
#
# Stress axis : x y z
#
# Youngs Moduli (GPa) = 21.40851 117.29957 149.29612
#
# Poissons Ratio (x) = 0.43163 0.34231
# Poissons Ratio (y) = 0.07878 0.25104
# Poissons Ratio (z) = 0.04909 0.19724
#
# Static dielectric constant tensor:
#      x y z
#    x 1.804420 0.000000 0.000000 
#    y 0.000000 1.807690 0.000000 
#    z 0.000000 0.000000 1.913780 
# 
# From -- ./inp_files/17905.got.cif
#   From: 2010.05.17/outbox.cif.g08.bks.cpg/sg53_9_cif.got.tgz:17905.got - 2010.06.03 12:45:16.
