data_PCOD9414334
_publ_section_title
;
Structure prediction by ZEFSAII (Michael W. Deem and Ramdas Pophale) SiO2 
 PCOD9414334
Probable space group: P M N A
;
_chemical_formula_sum "Si O2"
_cell_formula_units_Z 40
_cell_length_a 14.988778
_cell_length_b 8.432284
_cell_length_c 16.441273
_cell_angle_alpha 90.000000
_cell_angle_beta 90.000000
_cell_angle_gamma 90.000000
_cell_volume 2078.006459
_symmetry_space_group_name_H-M "P M N A"
_symmetry_group_IT_number 53
_symmetry_cell_setting 'orthorhombic'
loop_
_space_group_symop_operation_xyz
x,y,z
1/2-x,-y,1/2+z
x,-y,-z
1/2-x,y,1/2-z
-x,-y,-z
1/2+x,y,1/2-z
-x,y,z
1/2+x,-y,1/2+z
loop_
_atom_site_type_symbol
_atom_site_label
_atom_site_fract_x
_atom_site_fract_y
_atom_site_fract_z
Si Si1 0.733366 0.042675 0.594880
Si Si2 0.289450 0.302064 0.104584
Si Si3 0.597811 0.180676 0.965642
Si Si4 0.350214 0.500000 0.500000
Si Si5 0.899284 0.708614 0.150922
Si Si6 0.750000 0.476038 0.750000
O O1 0.816999 0.167043 0.594359
O O2 0.646495 0.123214 0.630933
O O3 0.717129 0.000000 0.500000
O O4 0.763600 0.875860 0.632092
O O5 0.295725 0.414839 0.181303
O O6 0.372824 0.285623 0.043026
O O7 0.211478 0.376507 0.049112
O O8 0.500000 0.223648 0.933610
O O9 0.592450 0.000000 0.000000
O O10 0.399877 0.603197 0.431934
O O11 0.829024 0.624618 0.210157
O O12 0.000000 0.721980 0.181622
#
# Coordination Sequence:
#
# PCOD9414334 Si02
#       6
#     8   8   8   4   8   4
#     4   9  17  35  58  87 111 142 195 248 291 330
#     4   9  18  34  57  80 115 152 184 236 290 341
#     4   8  14  28  54  83 108 138 183 234 281 327
#     4  10  17  36  57  84 112 150 189 250 291 328
#     4  11  22  38  60  85 117 155 196 241 292 351
#     4  10  24  38  54  80 124 156 186 228 294 356
#
# _framework density 19.249217999999999
#
# number of rings (size 3 to 8) (size 9 to 14) (size 15 to 20)
#    0.000    3.000    4.000    0.300    0.000    2.000 
#    0.000    2.500    0.000    7.200    0.000    0.000 
#    0.000    0.000    0.000    0.000    0.000    0.000 
#
# Total GULP energy -222831.465117 kJ/mol
# GULP energy per Si atom -5570.786628 kJ/mol
# Density = 1.920541 g / cm^3
# Si number density = 19.249218 Si / 1000 Ang^3
#
#
#
# Elastic Constant Matrix: (Units=GPa)
#
#
# Indices 1 2 3 4 5 6 
#
# 1 127.9077 39.0011 34.3294 0.0000 0.0000 0.0000
# 2 39.0011 65.9089 26.6570 0.0000 0.0000 0.0000
# 3 34.3294 26.6570 54.7685 0.0000 0.0000 0.0000
# 4 0.0000 0.0000 0.0000 22.7693 0.0000 0.0000
# 5 0.0000 0.0000 0.0000 0.0000 9.5707 0.0000
# 6 0.0000 0.0000 0.0000 0.0000 0.0000 5.1438
#
#
#
# Elastic Compliance Matrix: (Units=1/GPa)
#
#
# Indices 1 2 3 4 5 6 
#
# 1 0.010309 -0.004341 -0.004349 0.000000 0.000000 0.000000
# 2 -0.004341 0.020720 -0.007363 0.000000 0.000000 0.000000
# 3 -0.004349 -0.007363 0.024568 0.000000 0.000000 0.000000
# 4 0.000000 0.000000 0.000000 0.043919 0.000000 0.000000
# 5 0.000000 0.000000 0.000000 0.000000 0.104486 0.000000
# 6 0.000000 0.000000 0.000000 0.000000 0.000000 0.194409
#
#
# Mechanical properties :
#
#
# Convention : Reuss Voigt Hill
#
# Bulk Modulus (GPa) = 42.57148 49.84002 46.20575
# Shear Modulus (GPa) = 11.40646 17.40325 14.40485
#
# Velocity S-wave (km/s) = 2.43691 3.01009 2.73854
# Velocity P-wave (km/s) = 5.48471 6.16677 5.83571
#
# Compressibility (1/GPa) = 0.02348990
#
# Stress axis : x y z
#
# Youngs Moduli (GPa) = 97.00178 48.26333 40.70259
#
# Poissons Ratio (x) = 0.20953 0.17701
# Poissons Ratio (y) = 0.42113 0.29971
# Poissons Ratio (z) = 0.42184 0.35538
#
# Static dielectric constant tensor:
#      x y z
#    x 1.678760 0.000000 0.000000 
#    y 0.000000 1.708050 0.000000 
#    z 0.000000 0.000000 1.698250 
# 
# From -- ./inp_files/28098.got.cif
#   From: 2010.05.17/outbox.cif.g08.bks.cpg/sg53_15_cif.got.tgz:28098.got - 2010.06.03 12:45:16.
