data_PCOD9414371
_publ_section_title
;
Structure prediction by ZEFSAII (Michael W. Deem and Ramdas Pophale) SiO2 
 PCOD9414371
Probable space group: P M N A
;
_chemical_formula_sum "Si O2"
_cell_formula_units_Z 64
_cell_length_a 8.990658
_cell_length_b 20.870843
_cell_length_c 21.898012
_cell_angle_alpha 90.000000
_cell_angle_beta 90.000000
_cell_angle_gamma 90.000000
_cell_volume 4109.000160
_symmetry_space_group_name_H-M "P M N A"
_symmetry_group_IT_number 53
_symmetry_cell_setting 'orthorhombic'
loop_
_space_group_symop_operation_xyz
x,y,z
1/2-x,-y,1/2+z
x,-y,-z
1/2-x,y,1/2-z
-x,-y,-z
1/2+x,y,1/2-z
-x,y,z
1/2+x,-y,1/2+z
loop_
_atom_site_type_symbol
_atom_site_label
_atom_site_fract_x
_atom_site_fract_y
_atom_site_fract_z
Si Si1 0.329535 0.509041 0.426042
Si Si2 0.322280 0.860507 0.816249
Si Si3 0.323805 0.095420 0.545106
Si Si4 0.822297 0.249914 0.103661
Si Si5 0.329306 0.380618 0.089148
Si Si6 0.321672 0.774799 0.028711
Si Si7 0.676813 0.957299 0.592163
Si Si8 0.329296 0.363145 0.941390
O O1 0.324208 0.500000 0.500000
O O2 0.500000 0.502594 0.407236
O O3 0.232786 0.451395 0.398642
O O4 0.268096 0.580018 0.413917
O O5 0.250000 0.867530 0.750000
O O6 0.500000 0.855891 0.812903
O O7 0.253681 0.797716 0.848584
O O8 0.272378 0.919905 0.858523
O O9 0.500000 0.108659 0.551227
O O10 0.230184 0.158778 0.557904
O O11 0.298798 0.074303 0.474577
O O12 0.288645 0.032573 0.584929
O O13 0.771215 0.323115 0.114264
O O14 0.760412 0.230881 0.036616
O O15 0.000000 0.243669 0.104792
O O16 0.500000 0.373365 0.108780
O O17 0.326976 0.372398 0.015207
O O18 0.500000 0.773487 0.018892
O O19 0.282234 0.710641 0.066644
O O20 0.500000 0.950621 0.605364
O O21 0.500000 0.370940 0.921660
#
# Coordination Sequence:
#
# PCOD9414371 Si02
#       8
#     8   8   8   8   8   8   8   8
#     4   9  15  22  33  51  73 102 141 178 211 250
#     4  12  24  37  52  69  89 117 150 188 231 276
#     4   9  17  29  48  68  92 119 146 183 229 272
#     4  11  20  31  45  62  85 111 145 186 224 266
#     4   9  16  26  39  54  75 105 140 178 217 255
#     4  10  18  27  41  63  88 115 149 185 223 266
#     4   9  18  33  49  69  91 116 147 184 227 274
#     4   8  15  24  33  49  77 110 141 176 214 253
#
# _framework density 15.575566
#
# number of rings (size 3 to 8) (size 9 to 14) (size 15 to 20)
#    0.000    2.375    1.250    4.875    0.000    5.500 
#    0.000    1.250    0.000    0.000    0.000    0.000 
#    0.000    0.000    0.000    1.125    0.000   17.625 
#
# Total GULP energy -356695.677732 kJ/mol
# GULP energy per Si atom -5573.369965 kJ/mol
# Density = 1.554012 g / cm^3
# Si number density = 15.575566 Si / 1000 Ang^3
#
#
#
# Elastic Constant Matrix: (Units=GPa)
#
#
# Indices 1 2 3 4 5 6 
#
# 1 105.4506 67.6410 28.3918 0.0000 0.0000 0.0000
# 2 67.6410 139.4961 22.2682 0.0000 0.0000 0.0000
# 3 28.3918 22.2682 32.6577 0.0000 0.0000 0.0000
# 4 0.0000 0.0000 0.0000 5.9160 0.0000 0.0000
# 5 0.0000 0.0000 0.0000 0.0000 10.0808 0.0000
# 6 0.0000 0.0000 0.0000 0.0000 0.0000 32.7633
#
#
#
# Elastic Compliance Matrix: (Units=1/GPa)
#
#
# Indices 1 2 3 4 5 6 
#
# 1 0.016125 -0.006263 -0.009748 0.000000 0.000000 0.000000
# 2 -0.006263 0.010477 -0.001699 0.000000 0.000000 0.000000
# 3 -0.009748 -0.001699 0.040254 0.000000 0.000000 0.000000
# 4 0.000000 0.000000 0.000000 0.169033 0.000000 0.000000
# 5 0.000000 0.000000 0.000000 0.000000 0.099199 0.000000
# 6 0.000000 0.000000 0.000000 0.000000 0.000000 0.030522
#
#
# Mechanical properties :
#
#
# Convention : Reuss Voigt Hill
#
# Bulk Modulus (GPa) = 31.81108 57.13404 44.47256
# Shear Modulus (GPa) = 12.15043 20.37225 16.26134
#
# Velocity S-wave (km/s) = 2.79605 3.62050 3.23465
# Velocity P-wave (km/s) = 5.55805 7.36470 6.52421
#
# Compressibility (1/GPa) = 0.03143558
#
# Stress axis : x y z
#
# Youngs Moduli (GPa) = 62.01548 95.45012 24.84225
#
# Poissons Ratio (x) = 0.59778 0.24217
# Poissons Ratio (y) = 0.38839 0.04221
# Poissons Ratio (z) = 0.60454 0.16217
#
# Static dielectric constant tensor:
#      x y z
#    x 1.520180 0.000000 0.000000 
#    y 0.000000 1.551100 0.000000 
#    z 0.000000 0.000000 1.483480 
# 
# From -- ./inp_files/34567.got.cif
#   From: 2010.05.17/outbox.cif.g08.bks.cpg/sg53_18_cif.got.tgz:34567.got - 2010.06.03 12:45:16.
