data_PCOD9414607
_publ_section_title
;
Structure prediction by ZEFSAII (Michael W. Deem and Ramdas Pophale) SiO2 
 PCOD9414607
Probable space group: P M N A
;
_chemical_formula_sum "Si O2"
_cell_formula_units_Z 56
_cell_length_a 7.715624
_cell_length_b 23.850688
_cell_length_c 14.726482
_cell_angle_alpha 90.000000
_cell_angle_beta 90.000000
_cell_angle_gamma 90.000000
_cell_volume 2710.010525
_symmetry_space_group_name_H-M "P M N A"
_symmetry_group_IT_number 53
_symmetry_cell_setting 'orthorhombic'
loop_
_space_group_symop_operation_xyz
x,y,z
1/2-x,-y,1/2+z
x,-y,-z
1/2-x,y,1/2-z
-x,-y,-z
1/2+x,y,1/2-z
-x,y,z
1/2+x,-y,1/2+z
loop_
_atom_site_type_symbol
_atom_site_label
_atom_site_fract_x
_atom_site_fract_y
_atom_site_fract_z
Si Si1 0.208078 0.643484 0.647556
Si Si2 0.793735 0.518758 0.604440
Si Si3 0.791907 0.918562 0.043703
Si Si4 0.295076 0.803115 0.143472
Si Si5 0.712454 0.302337 0.970957
Si Si6 0.792699 0.598453 0.345457
Si Si7 0.791740 0.968745 0.856093
O O1 0.250000 0.658097 0.750000
O O2 0.276648 0.580279 0.626629
O O3 0.268182 0.689453 0.574734
O O4 0.000000 0.640373 0.637533
O O5 0.778283 0.500000 0.500000
O O6 0.717099 0.464225 0.653680
O O7 0.000000 0.522026 0.624649
O O8 0.749119 0.860202 0.090993
O O9 0.000000 0.922931 0.041102
O O10 0.730384 0.970086 0.107759
O O11 0.731957 0.927639 0.938807
O O12 0.250000 0.804308 0.250000
O O13 0.500000 0.797229 0.140830
O O14 0.222047 0.750150 0.086985
O O15 0.500000 0.300503 0.968659
O O16 0.767250 0.360486 0.923772
O O17 0.750000 0.626095 0.250000
O O18 0.000000 0.593629 0.355785
O O19 0.750000 0.958055 0.750000
O O20 0.000000 0.968733 0.859055
#
# Coordination Sequence:
#
# PCOD9414607 Si02
#       7
#     8   8   8   8   8   8   8
#     4  10  19  34  54  74  97 128 168 211 255 308
#     4   9  15  27  50  73  93 125 164 198 244 309
#     4   9  19  36  55  80 113 147 180 218 262 310
#     4  11  22  36  55  79 105 138 177 217 260 309
#     4   9  19  35  53  71  97 133 172 207 246 304
#     4  10  18  30  49  72  96 125 159 199 248 301
#     4   9  18  33  55  82 114 147 180 218 263 310
#
# _framework density 20.664124999999999
#
# number of rings (size 3 to 8) (size 9 to 14) (size 15 to 20)
#    0.000    2.429    1.429    2.571    0.000    2.286 
#    0.000    5.000    0.000    4.286    0.000    0.000 
#    0.000    0.000    0.000    0.000    0.000    0.000 
#
# Total GULP energy -312155.434037 kJ/mol
# GULP energy per Si atom -5574.204179 kJ/mol
# Density = 2.061709 g / cm^3
# Si number density = 20.664125 Si / 1000 Ang^3
#
#
#
# Elastic Constant Matrix: (Units=GPa)
#
#
# Indices 1 2 3 4 5 6 
#
# 1 34.4562 9.6645 8.6398 0.0000 0.0000 0.0000
# 2 9.6645 122.0620 104.0724 0.0000 0.0000 0.0000
# 3 8.6398 104.0724 191.5988 0.0000 0.0000 0.0000
# 4 0.0000 0.0000 0.0000 35.9526 0.0000 0.0000
# 5 0.0000 0.0000 0.0000 0.0000 24.8571 0.0000
# 6 0.0000 0.0000 0.0000 0.0000 0.0000 45.2797
#
#
#
# Elastic Compliance Matrix: (Units=1/GPa)
#
#
# Indices 1 2 3 4 5 6 
#
# 1 0.029683 -0.002252 -0.000115 0.000000 0.000000 0.000000
# 2 -0.002252 0.015431 -0.008280 0.000000 0.000000 0.000000
# 3 -0.000115 -0.008280 0.009722 0.000000 0.000000 0.000000
# 4 0.000000 0.000000 0.000000 0.027814 0.000000 0.000000
# 5 0.000000 0.000000 0.000000 0.000000 0.040230 0.000000
# 6 0.000000 0.000000 0.000000 0.000000 0.000000 0.022085
#
#
# Mechanical properties :
#
#
# Convention : Reuss Voigt Hill
#
# Bulk Modulus (GPa) = 29.81430 65.87449 47.84440
# Shear Modulus (GPa) = 28.17865 36.26723 32.22294
#
# Velocity S-wave (km/s) = 3.69677 4.19391 3.95317
# Velocity P-wave (km/s) = 5.71672 7.44310 6.63629
#
# Compressibility (1/GPa) = 0.03354096
#
# Stress axis : x y z
#
# Youngs Moduli (GPa) = 33.68949 64.80658 102.85995
#
# Poissons Ratio (x) = 0.14594 0.01186
# Poissons Ratio (y) = 0.07586 0.85168
# Poissons Ratio (z) = 0.00389 0.53660
#
# Static dielectric constant tensor:
#      x y z
#    x 1.776640 0.000000 0.000000 
#    y 0.000000 1.756470 0.000000 
#    z 0.000000 0.000000 1.761930 
# 
# From -- ./inp_files/20638.got.cif
#   From: 2010.05.17/outbox.cif.g08.bks.cpg/sg53_11_cif.got.tgz:20638.got - 2010.06.03 12:45:16.
