data_PCOD9414347
_publ_section_title
;
Structure prediction by ZEFSAII (Michael W. Deem and Ramdas Pophale) SiO2 
 PCOD9414347
Probable space group: P M N A
;
_chemical_formula_sum "Si O2"
_cell_formula_units_Z 64
_cell_length_a 9.032960
_cell_length_b 18.781412
_cell_length_c 27.035967
_cell_angle_alpha 90.000000
_cell_angle_beta 90.000000
_cell_angle_gamma 90.000000
_cell_volume 4586.698934
_symmetry_space_group_name_H-M "P M N A"
_symmetry_group_IT_number 53
_symmetry_cell_setting 'orthorhombic'
loop_
_space_group_symop_operation_xyz
x,y,z
1/2-x,-y,1/2+z
x,-y,-z
1/2-x,y,1/2-z
-x,-y,-z
1/2+x,y,1/2-z
-x,y,z
1/2+x,-y,1/2+z
loop_
_atom_site_type_symbol
_atom_site_label
_atom_site_fract_x
_atom_site_fract_y
_atom_site_fract_z
Si Si1 0.322321 0.160191 0.697214
Si Si2 0.323142 0.332048 0.994323
Si Si3 0.670694 0.547845 0.550154
Si Si4 0.322955 0.915219 0.103795
Si Si5 0.329879 0.042622 0.447787
Si Si6 0.322881 0.672823 0.301776
Si Si7 0.820571 0.591611 0.099745
Si Si8 0.822758 0.166903 0.501826
O O1 0.250000 0.141129 0.750000
O O2 0.500000 0.152529 0.699255
O O3 0.254655 0.115242 0.652458
O O4 0.287314 0.244021 0.688381
O O5 0.500000 0.336717 0.990017
O O6 0.266999 0.383274 0.038254
O O7 0.281878 0.249643 0.001330
O O8 0.249772 0.362182 0.944248
O O9 0.673309 0.500000 0.500000
O O10 0.500000 0.568383 0.558868
O O11 0.720767 0.491156 0.591386
O O12 0.500000 0.916307 0.109674
O O13 0.262289 0.993137 0.089339
O O14 0.287798 0.864374 0.056506
O O15 0.500000 0.049601 0.431859
O O16 0.257294 0.117880 0.461420
O O17 0.328451 0.000000 0.500000
O O18 0.250000 0.652321 0.250000
O O19 0.500000 0.667889 0.297126
O O20 0.276514 0.624493 0.347882
O O21 0.000000 0.595260 0.095017
O O22 0.000000 0.160026 0.495690
#
# Coordination Sequence:
#
# PCOD9414347 Si02
#       8
#     8   8   8   8   8   8   8   8
#     4  10  19  30  43  60  82 107 138 173 206 239
#     4  10  18  26  39  60  83 106 136 171 202 236
#     4   8  15  27  40  54  76 106 136 165 199 241
#     4  10  18  29  44  59  80 110 139 167 203 242
#     4   9  17  28  42  60  80 104 136 170 200 236
#     4   9  18  30  43  59  80 106 136 172 207 238
#     4   9  17  29  42  56  78 109 140 167 201 243
#     4   9  18  29  40  58  84 111 136 165 203 244
#
# _framework density 13.953390000000001
#
# number of rings (size 3 to 8) (size 9 to 14) (size 15 to 20)
#    0.000    2.750    0.000    3.000    0.000    6.250 
#    0.000    0.000    0.000    0.000    0.000    0.000 
#    0.000    1.000    0.000    5.250    0.000    4.875 
#
# Total GULP energy -356552.268513 kJ/mol
# GULP energy per Si atom -5571.129196 kJ/mol
# Density = 1.392163 g / cm^3
# Si number density = 13.953390 Si / 1000 Ang^3
#
#
#
# Elastic Constant Matrix: (Units=GPa)
#
#
# Indices 1 2 3 4 5 6 
#
# 1 46.9481 48.6129 39.8404 0.0000 0.0000 0.0000
# 2 48.6129 114.7159 61.2635 0.0000 0.0000 0.0000
# 3 39.8404 61.2635 91.4417 0.0000 0.0000 0.0000
# 4 0.0000 0.0000 0.0000 26.2300 0.0000 0.0000
# 5 0.0000 0.0000 0.0000 0.0000 22.1053 0.0000
# 6 0.0000 0.0000 0.0000 0.0000 0.0000 21.1987
#
#
#
# Elastic Compliance Matrix: (Units=1/GPa)
#
#
# Indices 1 2 3 4 5 6 
#
# 1 0.043351 -0.012899 -0.010246 0.000000 0.000000 0.000000
# 2 -0.012899 0.017412 -0.006046 0.000000 0.000000 0.000000
# 3 -0.010246 -0.006046 0.019450 0.000000 0.000000 0.000000
# 4 0.000000 0.000000 0.000000 0.038124 0.000000 0.000000
# 5 0.000000 0.000000 0.000000 0.000000 0.045238 0.000000
# 6 0.000000 0.000000 0.000000 0.000000 0.000000 0.047173
#
#
# Mechanical properties :
#
#
# Convention : Reuss Voigt Hill
#
# Bulk Modulus (GPa) = 45.80280 61.39325 53.59802
# Shear Modulus (GPa) = 18.08927 20.79940 19.44434
#
# Velocity S-wave (km/s) = 3.60447 3.86506 3.73704
# Velocity P-wave (km/s) = 7.08659 8.00079 7.55753
#
# Compressibility (1/GPa) = 0.02183273
#
# Stress axis : x y z
#
# Youngs Moduli (GPa) = 23.06737 57.43153 51.41331
#
# Poissons Ratio (x) = 0.74082 0.52676
# Poissons Ratio (y) = 0.29755 0.31082
# Poissons Ratio (z) = 0.23634 0.34720
#
# Static dielectric constant tensor:
#      x y z
#    x 1.467830 0.000000 0.000000 
#    y 0.000000 1.457730 0.000000 
#    z 0.000000 0.000000 1.439320 
# 
# From -- ./inp_files/34415.got.cif
#   From: 2010.05.17/outbox.cif.g08.bks.cpg/sg53_18_cif.got.tgz:34415.got - 2010.06.03 12:45:16.
