data_PCOD9414986
_publ_section_title
;
Structure prediction by ZEFSAII (Michael W. Deem and Ramdas Pophale) SiO2 
 PCOD9414986
Probable space group: P M N A
;
_chemical_formula_sum "Si O2"
_cell_formula_units_Z 48
_cell_length_a 18.515267
_cell_length_b 9.590443
_cell_length_c 13.660933
_cell_angle_alpha 90.000000
_cell_angle_beta 90.000000
_cell_angle_gamma 90.000000
_cell_volume 2425.766583
_symmetry_space_group_name_H-M "P M N A"
_symmetry_group_IT_number 53
_symmetry_cell_setting 'orthorhombic'
loop_
_space_group_symop_operation_xyz
x,y,z
1/2-x,-y,1/2+z
x,-y,-z
1/2-x,y,1/2-z
-x,-y,-z
1/2+x,y,1/2-z
-x,y,z
1/2+x,-y,1/2+z
loop_
_atom_site_type_symbol
_atom_site_label
_atom_site_fract_x
_atom_site_fract_y
_atom_site_fract_z
Si Si1 0.123630 0.199124 0.084915
Si Si2 0.195056 0.680871 0.170269
Si Si3 0.732289 0.331048 0.021224
Si Si4 0.079921 0.615088 0.586187
Si Si5 0.578312 0.532883 0.689390
Si Si6 0.084917 0.889889 0.136660
O O1 0.204673 0.262673 0.086329
O O2 0.079101 0.315499 0.141794
O O3 0.112242 0.048415 0.132255
O O4 0.097219 0.175834 0.972642
O O5 0.250000 0.626017 0.250000
O O6 0.141062 0.557363 0.141210
O O7 0.139389 0.800476 0.203211
O O8 0.246745 0.732177 0.083829
O O9 0.652757 0.300979 0.062025
O O10 0.736363 0.500000 0.000000
O O11 0.077232 0.500000 0.500000
O O12 0.089649 0.546641 0.693680
O O13 0.000000 0.683799 0.587687
O O14 0.500000 0.466139 0.672537
O O15 0.000000 0.885001 0.160186
#
# Coordination Sequence:
#
# PCOD9414986 Si02
#       6
#     8   8   8   8   8   8
#     4  10  20  35  60  88 114 149 185 236 297 360
#     4  11  22  36  54  82 113 147 193 237 286 347
#     4  10  18  34  54  82 113 144 181 234 288 339
#     4   9  19  34  52  79 116 153 188 234 292 340
#     4  11  21  34  58  88 113 143 193 244 290 350
#     4  10  21  39  58  79 120 156 184 232 297 362
#
# _framework density 19.787559999999999
#
# number of rings (size 3 to 8) (size 9 to 14) (size 15 to 20)
#    0.000    1.833    1.667    4.500    0.000    0.000 
#    3.000    3.333    0.000    0.000    0.000    9.333 
#    0.000    0.667    0.000    0.000    0.000    0.000 
#
# Total GULP energy -267346.365183 kJ/mol
# GULP energy per Si atom -5569.715941 kJ/mol
# Density = 1.974252 g / cm^3
# Si number density = 19.787560 Si / 1000 Ang^3
#
#
#
# Elastic Constant Matrix: (Units=GPa)
#
#
# Indices 1 2 3 4 5 6 
#
# 1 190.6929 30.4754 8.0492 0.0000 0.0000 0.0000
# 2 30.4754 89.4372 -1.4823 0.0000 0.0000 0.0000
# 3 8.0492 -1.4823 10.5479 0.0000 0.0000 0.0000
# 4 0.0000 0.0000 0.0000 11.8830 0.0000 0.0000
# 5 0.0000 0.0000 0.0000 0.0000 17.8258 0.0000
# 6 0.0000 0.0000 0.0000 0.0000 0.0000 21.7680
#
#
#
# Elastic Compliance Matrix: (Units=1/GPa)
#
#
# Indices 1 2 3 4 5 6 
#
# 1 0.005769 -0.002043 -0.004689 0.000000 0.000000 0.000000
# 2 -0.002043 0.011931 0.003236 0.000000 0.000000 0.000000
# 3 -0.004689 0.003236 0.098838 0.000000 0.000000 0.000000
# 4 0.000000 0.000000 0.000000 0.084154 0.000000 0.000000
# 5 0.000000 0.000000 0.000000 0.000000 0.056098 0.000000
# 6 0.000000 0.000000 0.000000 0.000000 0.000000 0.045939
#
#
# Mechanical properties :
#
#
# Convention : Reuss Voigt Hill
#
# Bulk Modulus (GPa) = 9.12869 40.52917 24.82893
# Shear Modulus (GPa) = 14.44097 27.20441 20.82269
#
# Velocity S-wave (km/s) = 2.70441 3.71188 3.24746
# Velocity P-wave (km/s) = 3.79146 6.23678 5.16103
#
# Compressibility (1/GPa) = 0.10954479
#
# Stress axis : x y z
#
# Youngs Moduli (GPa) = 173.35497 83.81587 10.11752
#
# Poissons Ratio (x) = 0.17126 0.04744
# Poissons Ratio (y) = 0.35422 -0.03274
# Poissons Ratio (z) = 0.81288 -0.27122
#
# Static dielectric constant tensor:
#      x y z
#    x 1.735380 0.000000 0.000000 
#    y 0.000000 1.716750 0.000000 
#    z 0.000000 0.000000 1.727770 
# 
# From -- ./inp_files/23670.got.cif
#   From: 2010.05.17/outbox.cif.g08.bks.cpg/sg53_12_cif.got.tgz:23670.got - 2010.06.03 12:45:16.
