data_PCOD9414803
_publ_section_title
;
Structure prediction by ZEFSAII (Michael W. Deem and Ramdas Pophale) SiO2 
 PCOD9414803
Probable space group: P M N A
;
_chemical_formula_sum "Si O2"
_cell_formula_units_Z 64
_cell_length_a 8.791914
_cell_length_b 17.417348
_cell_length_c 25.796214
_cell_angle_alpha 90.000000
_cell_angle_beta 90.000000
_cell_angle_gamma 90.000000
_cell_volume 3950.221347
_symmetry_space_group_name_H-M "P M N A"
_symmetry_group_IT_number 53
_symmetry_cell_setting 'orthorhombic'
loop_
_space_group_symop_operation_xyz
x,y,z
1/2-x,-y,1/2+z
x,-y,-z
1/2-x,y,1/2-z
-x,-y,-z
1/2+x,y,1/2-z
-x,y,z
1/2+x,-y,1/2+z
loop_
_atom_site_type_symbol
_atom_site_label
_atom_site_fract_x
_atom_site_fract_y
_atom_site_fract_z
Si Si1 0.675406 0.504210 0.937126
Si Si2 0.181931 0.912270 0.806503
Si Si3 0.181574 0.920825 0.306320
Si Si4 0.682170 0.344151 0.562786
Si Si5 0.681945 0.909695 0.503975
Si Si6 0.680325 0.818530 0.899676
Si Si7 0.317202 0.821227 0.396836
Si Si8 0.819219 0.664210 0.940349
O O1 0.500000 0.513615 0.922330
O O2 0.740417 0.422658 0.918931
O O3 0.770166 0.579455 0.922176
O O4 0.683250 0.500000 0.000000
O O5 0.250000 0.893679 0.750000
O O6 0.236427 0.852741 0.849562
O O7 0.000000 0.916131 0.803939
O O8 0.247638 0.996319 0.820735
O O9 0.250000 0.901120 0.250000
O O10 0.232015 0.859992 0.349233
O O11 0.000000 0.927267 0.302964
O O12 0.500000 0.353749 0.565335
O O13 0.724278 0.267539 0.593677
O O14 0.718987 0.330757 0.501879
O O15 0.500000 0.901518 0.513346
O O16 0.768567 0.869127 0.550845
O O17 0.716145 0.867627 0.449789
O O18 0.716596 0.000000 0.500000
O O19 0.500000 0.822895 0.892938
O O20 0.732829 0.731903 0.911246
O O21 0.500000 0.825795 0.388747
O O22 0.000000 0.674637 0.935355
#
# Coordination Sequence:
#
# PCOD9414803 Si02
#       8
#     8   8   8   8   8   8   8   8
#     4   9  17  28  44  69 100 133 169 211 256 298
#     4  11  22  39  59  77 100 132 173 219 264 307
#     4  11  22  37  56  78 102 132 173 219 266 308
#     4   9  17  30  48  70 100 138 175 208 250 308
#     4  10  20  34  51  71 100 140 176 207 252 309
#     4  12  23  34  51  77 107 136 171 213 258 305
#     4  10  19  33  51  75 105 138 175 214 258 307
#     4  10  18  32  50  71 100 138 176 208 251 306
#
# _framework density 16.201623999999999
#
# number of rings (size 3 to 8) (size 9 to 14) (size 15 to 20)
#    0.000    1.750    1.250    5.625    0.000    4.250 
#    0.000    0.000    0.000    0.000    0.000    0.875 
#    0.000    4.000    0.000    0.000    0.000    0.000 
#
# Total GULP energy -357375.342572 kJ/mol
# GULP energy per Si atom -5583.989728 kJ/mol
# Density = 1.616475 g / cm^3
# Si number density = 16.201624 Si / 1000 Ang^3
#
#
#
# Elastic Constant Matrix: (Units=GPa)
#
#
# Indices 1 2 3 4 5 6 
#
# 1 97.8891 56.3985 42.6437 0.0000 0.0000 0.0000
# 2 56.3985 118.5185 53.4965 0.0000 0.0000 0.0000
# 3 42.6437 53.4965 56.2545 0.0000 0.0000 0.0000
# 4 0.0000 0.0000 0.0000 12.9982 0.0000 0.0000
# 5 0.0000 0.0000 0.0000 0.0000 23.3384 0.0000
# 6 0.0000 0.0000 0.0000 0.0000 0.0000 28.7727
#
#
#
# Elastic Compliance Matrix: (Units=1/GPa)
#
#
# Indices 1 2 3 4 5 6 
#
# 1 0.016168 -0.003787 -0.008654 0.000000 0.000000 0.000000
# 2 -0.003787 0.015670 -0.012031 0.000000 0.000000 0.000000
# 3 -0.008654 -0.012031 0.035778 0.000000 0.000000 0.000000
# 4 0.000000 0.000000 0.000000 0.076934 0.000000 0.000000
# 5 0.000000 0.000000 0.000000 0.000000 0.042848 0.000000
# 6 0.000000 0.000000 0.000000 0.000000 0.000000 0.034755
#
#
# Mechanical properties :
#
#
# Convention : Reuss Voigt Hill
#
# Bulk Modulus (GPa) = 53.56005 64.19327 58.87666
# Shear Modulus (GPa) = 18.02962 21.03009 19.52985
#
# Velocity S-wave (km/s) = 3.33953 3.60672 3.47569
# Velocity P-wave (km/s) = 6.92821 7.55328 7.24749
#
# Compressibility (1/GPa) = 0.01867063
#
# Stress axis : x y z
#
# Youngs Moduli (GPa) = 61.85139 63.81527 27.95018
#
# Poissons Ratio (x) = 0.24168 0.24189
# Poissons Ratio (y) = 0.23425 0.33627
# Poissons Ratio (z) = 0.53529 0.76776
#
# Static dielectric constant tensor:
#      x y z
#    x 1.542940 0.000000 0.000000 
#    y 0.000000 1.540180 0.000000 
#    z 0.000000 0.000000 1.516260 
# 
# From -- ./inp_files/34477.got.cif
#   From: 2010.05.17/outbox.cif.g08.bks.cpg/sg53_18_cif.got.tgz:34477.got - 2010.06.03 12:45:16.
