data_PCOD9414253
_publ_section_title
;
Structure prediction by ZEFSAII (Michael W. Deem and Ramdas Pophale) SiO2 
 PCOD9414253
Probable space group: P M N A
;
_chemical_formula_sum "Si O2"
_cell_formula_units_Z 64
_cell_length_a 7.787886
_cell_length_b 15.305042
_cell_length_c 30.994517
_cell_angle_alpha 90.000000
_cell_angle_beta 90.000000
_cell_angle_gamma 90.000000
_cell_volume 3694.358052
_symmetry_space_group_name_H-M "P M N A"
_symmetry_group_IT_number 53
_symmetry_cell_setting 'orthorhombic'
loop_
_space_group_symop_operation_xyz
x,y,z
1/2-x,-y,1/2+z
x,-y,-z
1/2-x,y,1/2-z
-x,-y,-z
1/2+x,y,1/2-z
-x,y,z
1/2+x,-y,1/2+z
loop_
_atom_site_type_symbol
_atom_site_label
_atom_site_fract_x
_atom_site_fract_y
_atom_site_fract_z
Si Si1 0.793785 0.539463 0.891797
Si Si2 0.295506 0.200131 0.879601
Si Si3 0.795765 0.331280 0.034920
Si Si4 0.709908 0.048672 0.936340
Si Si5 0.291557 0.362677 0.561452
Si Si6 0.703230 0.500633 0.797574
Si Si7 0.292840 0.130685 0.028280
Si Si8 0.206805 0.301615 0.702383
O O1 0.728258 0.614258 0.924288
O O2 0.732222 0.445892 0.910571
O O3 0.752602 0.549746 0.841363
O O4 0.000000 0.537920 0.894520
O O5 0.500000 0.189479 0.873997
O O6 0.227820 0.107918 0.896972
O O7 0.267394 0.273753 0.915962
O O8 0.224571 0.240510 0.835536
O O9 0.767595 0.227735 0.038259
O O10 0.000000 0.346435 0.033754
O O11 0.730498 0.363913 0.988184
O O12 0.500000 0.048252 0.935967
O O13 0.764220 0.947998 0.940262
O O14 0.760115 0.098671 0.980471
O O15 0.500000 0.363036 0.561306
O O16 0.750000 0.535530 0.750000
O O17 0.500000 0.493753 0.797883
O O18 0.775222 0.401199 0.801172
O O19 0.500000 0.132694 0.028494
O O20 0.250000 0.269362 0.750000
O O21 0.000000 0.305845 0.698212
#
# Coordination Sequence:
#
# PCOD9414253 Si02
#       8
#     8   8   8   8   8   8   8   8
#     4  10  20  33  47  64  92 129 161 191 230 275
#     4  10  17  29  47  67  91 120 153 189 226 270
#     4  10  20  32  45  65  94 127 160 195 234 270
#     4   8  15  27  46  67  89 116 149 187 230 274
#     4  10  19  30  44  64  92 127 161 189 222 271
#     4  10  19  32  49  70  93 118 153 193 234 277
#     4   9  16  29  47  66  87 118 154 190 229 271
#     4   9  18  29  44  65  90 118 147 183 225 269
#
# _framework density 17.323713999999999
#
# number of rings (size 3 to 8) (size 9 to 14) (size 15 to 20)
#    0.000    2.500    2.500    1.500    0.000    3.000 
#    0.000    1.875    0.000    2.250    0.000    0.875 
#    0.000    4.000    0.000    0.000    0.000    0.000 
#
# Total GULP energy -356758.621063 kJ/mol
# GULP energy per Si atom -5574.353454 kJ/mol
# Density = 1.728428 g / cm^3
# Si number density = 17.323714 Si / 1000 Ang^3
#
#
#
# Elastic Constant Matrix: (Units=GPa)
#
#
# Indices 1 2 3 4 5 6 
#
# 1 18.6902 -6.9079 -0.5181 0.0000 0.0000 0.0000
# 2 -6.9079 51.2767 40.2319 0.0000 0.0000 0.0000
# 3 -0.5181 40.2319 135.1165 0.0000 0.0000 0.0000
# 4 0.0000 0.0000 0.0000 19.6640 0.0000 0.0000
# 5 0.0000 0.0000 0.0000 0.0000 14.2590 0.0000
# 6 0.0000 0.0000 0.0000 0.0000 0.0000 15.0259
#
#
#
# Elastic Compliance Matrix: (Units=1/GPa)
#
#
# Indices 1 2 3 4 5 6 
#
# 1 0.057053 0.009805 -0.002701 0.000000 0.000000 0.000000
# 2 0.009805 0.027132 -0.008041 0.000000 0.000000 0.000000
# 3 -0.002701 -0.008041 0.009785 0.000000 0.000000 0.000000
# 4 0.000000 0.000000 0.000000 0.050854 0.000000 0.000000
# 5 0.000000 0.000000 0.000000 0.000000 0.070131 0.000000
# 6 0.000000 0.000000 0.000000 0.000000 0.000000 0.066552
#
#
# Mechanical properties :
#
#
# Convention : Reuss Voigt Hill
#
# Bulk Modulus (GPa) = 10.85817 30.07726 20.46771
# Shear Modulus (GPa) = 15.91952 21.27495 18.59724
#
# Velocity S-wave (km/s) = 3.03470 3.50820 3.28001
# Velocity P-wave (km/s) = 4.30820 5.81460 5.11714
#
# Compressibility (1/GPa) = 0.09209655
#
# Stress axis : x y z
#
# Youngs Moduli (GPa) = 17.52751 36.85672 102.19746
#
# Poissons Ratio (x) = -0.36138 0.27601
# Poissons Ratio (y) = -0.17186 0.82179
# Poissons Ratio (z) = 0.04734 0.29637
#
# Static dielectric constant tensor:
#      x y z
#    x 1.628220 0.000000 0.000000 
#    y 0.000000 1.585580 0.000000 
#    z 0.000000 0.000000 1.617360 
# 
# From -- ./inp_files/38410.got.cif
#   From: 2010.05.17/outbox.cif.g08.bks.cpg/sg53_20_cif.got.tgz:38410.got - 2010.06.03 12:45:16.
