data_PCOD9414274
_publ_section_title
;
Structure prediction by ZEFSAII (Michael W. Deem and Ramdas Pophale) SiO2 
 PCOD9414274
Probable space group: P M N A
;
_chemical_formula_sum "Si O2"
_cell_formula_units_Z 60
_cell_length_a 14.274371
_cell_length_b 12.868269
_cell_length_c 19.757677
_cell_angle_alpha 90.000000
_cell_angle_beta 90.000000
_cell_angle_gamma 90.000000
_cell_volume 3629.217466
_symmetry_space_group_name_H-M "P M N A"
_symmetry_group_IT_number 53
_symmetry_cell_setting 'orthorhombic'
loop_
_space_group_symop_operation_xyz
x,y,z
1/2-x,-y,1/2+z
x,-y,-z
1/2-x,y,1/2-z
-x,-y,-z
1/2+x,y,1/2-z
-x,y,z
1/2+x,-y,1/2+z
loop_
_atom_site_type_symbol
_atom_site_label
_atom_site_fract_x
_atom_site_fract_y
_atom_site_fract_z
Si Si1 0.750000 0.867809 0.750000
Si Si2 0.107980 0.212512 0.604701
Si Si3 0.609386 0.409539 0.187849
Si Si4 0.271262 0.267562 0.371904
Si Si5 0.231095 0.388973 0.670494
Si Si6 0.397767 0.013982 0.161155
Si Si7 0.184066 0.108467 0.470535
Si Si8 0.390751 0.454936 0.348451
O O1 0.698231 0.797319 0.694214
O O2 0.679308 0.938419 0.791089
O O3 0.185111 0.293643 0.630853
O O4 0.132902 0.171160 0.529887
O O5 0.000000 0.251666 0.607060
O O6 0.112188 0.108889 0.650553
O O7 0.500000 0.398259 0.171227
O O8 0.673697 0.321185 0.153659
O O9 0.654654 0.518554 0.165341
O O10 0.618454 0.417927 0.269571
O O11 0.253276 0.187462 0.432390
O O12 0.342231 0.360401 0.388371
O O13 0.250000 0.364338 0.750000
O O14 0.327494 0.441733 0.644292
O O15 0.500000 0.037694 0.188426
O O16 0.385577 0.067427 0.087775
O O17 0.225893 0.000000 0.500000
O O18 0.500000 0.470330 0.363089
#
# Coordination Sequence:
#
# PCOD9414274 Si02
#       8
#     4   8   8   8   8   8   8   8
#     4  10  18  28  46  74 102 126 162 216 254 288
#     4  10  19  33  52  73 100 137 171 199 245 306
#     4   9  16  28  47  74 105 131 159 206 261 307
#     4  10  17  30  49  76 103 130 170 207 253 300
#     4   9  18  31  50  74 103 132 166 206 252 303
#     4   9  19  32  49  73 104 134 166 207 249 294
#     4   9  19  34  51  71 101 139 171 201 246 306
#     4   9  17  31  50  74 101 130 167 210 257 302
#
# _framework density 16.532489000000002
#
# number of rings (size 3 to 8) (size 9 to 14) (size 15 to 20)
#    0.000    2.667    1.333    1.600    0.933    5.333 
#    0.000    2.667    0.000    6.000    0.000    1.867 
#    0.000    0.000    0.000    0.000    0.000    0.000 
#
# Total GULP energy -334079.514750 kJ/mol
# GULP energy per Si atom -5567.991912 kJ/mol
# Density = 1.649486 g / cm^3
# Si number density = 16.532489 Si / 1000 Ang^3
#
#
#
# Elastic Constant Matrix: (Units=GPa)
#
#
# Indices 1 2 3 4 5 6 
#
# 1 110.4591 63.0953 34.5699 0.0000 0.0000 0.0000
# 2 63.0953 93.5723 39.8644 0.0000 0.0000 0.0000
# 3 34.5699 39.8644 52.0619 0.0000 0.0000 0.0000
# 4 0.0000 0.0000 0.0000 16.4481 0.0000 0.0000
# 5 0.0000 0.0000 0.0000 0.0000 8.0061 0.0000
# 6 0.0000 0.0000 0.0000 0.0000 0.0000 15.0177
#
#
#
# Elastic Compliance Matrix: (Units=1/GPa)
#
#
# Indices 1 2 3 4 5 6 
#
# 1 0.015099 -0.008771 -0.003310 0.000000 0.000000 0.000000
# 2 -0.008771 0.020956 -0.010222 0.000000 0.000000 0.000000
# 3 -0.003310 -0.010222 0.029233 0.000000 0.000000 0.000000
# 4 0.000000 0.000000 0.000000 0.060797 0.000000 0.000000
# 5 0.000000 0.000000 0.000000 0.000000 0.124905 0.000000
# 6 0.000000 0.000000 0.000000 0.000000 0.000000 0.066588
#
#
# Mechanical properties :
#
#
# Convention : Reuss Voigt Hill
#
# Bulk Modulus (GPa) = 48.35168 59.01697 53.68432
# Shear Modulus (GPa) = 13.54722 15.79861 14.67292
#
# Velocity S-wave (km/s) = 2.86567 3.09465 2.98236
# Velocity P-wave (km/s) = 6.34503 6.96737 6.66347
#
# Compressibility (1/GPa) = 0.02068180
#
# Stress axis : x y z
#
# Youngs Moduli (GPa) = 66.22861 47.71835 34.20786
#
# Poissons Ratio (x) = 0.41855 0.11322
# Poissons Ratio (y) = 0.58091 0.34968
# Poissons Ratio (z) = 0.21921 0.48779
#
# Static dielectric constant tensor:
#      x y z
#    x 1.550160 0.000000 0.000000 
#    y 0.000000 1.572100 0.000000 
#    z 0.000000 0.000000 1.556690 
# 
# From -- ./inp_files/28492.got.cif
#   From: 2010.05.17/outbox.cif.g08.bks.cpg/sg53_15_cif.got.tgz:28492.got - 2010.06.03 12:45:16.
