data_PCOD9414373
_publ_section_title
;
Structure prediction by ZEFSAII (Michael W. Deem and Ramdas Pophale) SiO2 
 PCOD9414373
Probable space group: P M N A
;
_chemical_formula_sum "Si O2"
_cell_formula_units_Z 48
_cell_length_a 8.843731
_cell_length_b 15.725519
_cell_length_c 22.062974
_cell_angle_alpha 90.000000
_cell_angle_beta 90.000000
_cell_angle_gamma 90.000000
_cell_volume 3068.347654
_symmetry_space_group_name_H-M "P M N A"
_symmetry_group_IT_number 53
_symmetry_cell_setting 'orthorhombic'
loop_
_space_group_symop_operation_xyz
x,y,z
1/2-x,-y,1/2+z
x,-y,-z
1/2-x,y,1/2-z
-x,-y,-z
1/2+x,y,1/2-z
-x,y,z
1/2+x,-y,1/2+z
loop_
_atom_site_type_symbol
_atom_site_label
_atom_site_fract_x
_atom_site_fract_y
_atom_site_fract_z
Si Si1 0.817393 0.803558 0.683368
Si Si2 0.182616 0.123647 0.546520
Si Si3 0.816570 0.941807 0.587443
Si Si4 0.325093 0.482968 0.572710
Si Si5 0.318429 0.698544 0.459927
Si Si6 0.180143 0.655921 0.590942
O O1 0.750000 0.803198 0.750000
O O2 0.765629 0.884692 0.643447
O O3 0.776124 0.719669 0.644743
O O4 0.000000 0.806113 0.687001
O O5 0.225056 0.101653 0.476673
O O6 0.256534 0.212422 0.564251
O O7 0.000000 0.131068 0.548631
O O8 0.229596 0.040463 0.584709
O O9 0.000000 0.941808 0.587944
O O10 0.321727 0.500000 0.500000
O O11 0.500000 0.489737 0.591910
O O12 0.271847 0.385555 0.577944
O O13 0.230208 0.558796 0.601753
O O14 0.500000 0.698325 0.462367
O O15 0.255569 0.686387 0.528131
O O16 0.000000 0.660747 0.583021
#
# Coordination Sequence:
#
# PCOD9414373 Si02
#       6
#     8   8   8   8   8   8
#     4  10  20  33  47  66  90 119 154 188 224 268
#     4   9  15  27  48  66  86 119 151 185 226 268
#     4   8  15  29  46  64  88 117 150 187 228 266
#     4   8  16  28  40  59  90 121 143 172 221 266
#     4  10  18  27  41  65  96 122 143 176 224 274
#     4  10  18  29  45  63  86 117 155 190 215 258
#
# _framework density 15.643598000000001
#
# number of rings (size 3 to 8) (size 9 to 14) (size 15 to 20)
#    0.000    2.833    1.667    3.000    0.000    5.000 
#    0.000    2.500    0.000    0.000    0.000    1.167 
#    0.000    2.667    0.000    0.000    0.000    0.000 
#
# Total GULP energy -267286.524343 kJ/mol
# GULP energy per Si atom -5568.469257 kJ/mol
# Density = 1.560799 g / cm^3
# Si number density = 15.643598 Si / 1000 Ang^3
#
#
#
# Elastic Constant Matrix: (Units=GPa)
#
#
# Indices 1 2 3 4 5 6 
#
# 1 25.9122 38.6904 20.4828 0.0000 0.0000 0.0000
# 2 38.6904 174.8228 52.6832 0.0000 0.0000 0.0000
# 3 20.4828 52.6832 66.2239 0.0000 0.0000 0.0000
# 4 0.0000 0.0000 0.0000 15.0706 0.0000 0.0000
# 5 0.0000 0.0000 0.0000 0.0000 16.6446 0.0000
# 6 0.0000 0.0000 0.0000 0.0000 0.0000 39.1338
#
#
#
# Elastic Compliance Matrix: (Units=1/GPa)
#
#
# Indices 1 2 3 4 5 6 
#
# 1 0.063278 -0.010662 -0.011089 0.000000 0.000000 0.000000
# 2 -0.010662 0.009320 -0.004117 0.000000 0.000000 0.000000
# 3 -0.011089 -0.004117 0.021805 0.000000 0.000000 0.000000
# 4 0.000000 0.000000 0.000000 0.066354 0.000000 0.000000
# 5 0.000000 0.000000 0.000000 0.000000 0.060079 0.000000
# 6 0.000000 0.000000 0.000000 0.000000 0.000000 0.025553
#
#
# Mechanical properties :
#
#
# Convention : Reuss Voigt Hill
#
# Bulk Modulus (GPa) = 23.43760 54.51908 38.97834
# Shear Modulus (GPa) = 16.00767 24.50997 20.25882
#
# Velocity S-wave (km/s) = 3.20233 3.96254 3.60255
# Velocity P-wave (km/s) = 5.35612 7.47409 6.50193
#
# Compressibility (1/GPa) = 0.04266649
#
# Stress axis : x y z
#
# Youngs Moduli (GPa) = 15.80326 107.29125 45.86046
#
# Poissons Ratio (x) = 1.14398 0.50856
# Poissons Ratio (y) = 0.16850 0.18880
# Poissons Ratio (z) = 0.17525 0.44170
#
# Static dielectric constant tensor:
#      x y z
#    x 1.526940 0.000000 0.000000 
#    y 0.000000 1.570170 0.000000 
#    z 0.000000 0.000000 1.482560 
# 
# From -- ./inp_files/30476.got.cif
#   From: 2010.05.17/outbox.cif.g08.bks.cpg/sg53_16_cif.got.tgz:30476.got - 2010.06.03 12:45:16.
