data_PCOD9414985
_publ_section_title
;
Structure prediction by ZEFSAII (Michael W. Deem and Ramdas Pophale) SiO2 
 PCOD9414985
Probable space group: P M N A
;
_chemical_formula_sum "Si O2"
_cell_formula_units_Z 56
_cell_length_a 17.459879
_cell_length_b 8.424209
_cell_length_c 19.328495
_cell_angle_alpha 90.000000
_cell_angle_beta 90.000000
_cell_angle_gamma 90.000000
_cell_volume 2842.944634
_symmetry_space_group_name_H-M "P M N A"
_symmetry_group_IT_number 53
_symmetry_cell_setting 'orthorhombic'
loop_
_space_group_symop_operation_xyz
x,y,z
1/2-x,-y,1/2+z
x,-y,-z
1/2-x,y,1/2-z
-x,-y,-z
1/2+x,y,1/2-z
-x,y,z
1/2+x,-y,1/2+z
loop_
_atom_site_type_symbol
_atom_site_label
_atom_site_fract_x
_atom_site_fract_y
_atom_site_fract_z
Si Si1 0.692272 0.211205 0.681429
Si Si2 0.414251 0.122219 0.139859
Si Si3 0.203107 0.099712 0.561046
Si Si4 0.165454 0.559783 0.655036
Si Si5 0.086748 0.100477 0.193512
Si Si6 0.662475 0.435407 0.321034
Si Si7 0.587573 0.351406 0.948682
O O1 0.750000 0.222116 0.750000
O O2 0.741123 0.191988 0.611685
O O3 0.644028 0.375286 0.672292
O O4 0.642319 0.050221 0.682877
O O5 0.500000 0.092556 0.112865
O O6 0.386980 0.300133 0.126691
O O7 0.416204 0.110912 0.222990
O O8 0.350178 0.007666 0.110059
O O9 0.142399 0.214802 0.524322
O O10 0.242113 0.000000 0.500000
O O11 0.255622 0.578021 0.639764
O O12 0.166554 0.571107 0.737601
O O13 0.125285 0.404746 0.624199
O O14 0.115744 0.272245 0.164068
O O15 0.000000 0.071344 0.168732
O O16 0.500000 0.302055 0.939561
O O17 0.590224 0.500000 0.000000
#
# Coordination Sequence:
#
# PCOD9414985 Si02
#       7
#     8   8   8   8   8   8   8
#     4  12  21  40  66  89 122 166 209 256 313 367
#     4  10  20  34  54  83 123 166 200 241 299 360
#     4  12  24  38  57  87 120 163 214 253 300 369
#     4  10  18  34  54  82 109 154 209 251 290 351
#     4  10  23  38  61  96 126 158 201 258 319 373
#     4  10  20  36  60  85 115 155 206 257 310 355
#     4  11  23  37  53  79 122 169 207 243 289 356
#
# _framework density 19.697887000000001
#
# number of rings (size 3 to 8) (size 9 to 14) (size 15 to 20)
#    0.000    1.286    4.286    2.571    2.000    3.429 
#    0.000    0.000    0.000    0.429    0.000    1.000 
#    0.000    0.000    0.000    0.000    0.000    0.000 
#
# Total GULP energy -311890.343207 kJ/mol
# GULP energy per Si atom -5569.470414 kJ/mol
# Density = 1.965305 g / cm^3
# Si number density = 19.697887 Si / 1000 Ang^3
#
#
#
# Elastic Constant Matrix: (Units=GPa)
#
#
# Indices 1 2 3 4 5 6 
#
# 1 63.5404 38.6607 12.5493 0.0000 0.0000 0.0000
# 2 38.6607 126.2263 2.3282 0.0000 0.0000 0.0000
# 3 12.5493 2.3282 32.3505 0.0000 0.0000 0.0000
# 4 0.0000 0.0000 0.0000 12.5889 0.0000 0.0000
# 5 0.0000 0.0000 0.0000 0.0000 120.7362 0.0000
# 6 0.0000 0.0000 0.0000 0.0000 0.0000 41.2571
#
#
#
# Elastic Compliance Matrix: (Units=1/GPa)
#
#
# Indices 1 2 3 4 5 6 
#
# 1 0.021114 -0.006324 -0.007735 0.000000 0.000000 0.000000
# 2 -0.006324 0.009827 0.001746 0.000000 0.000000 0.000000
# 3 -0.007735 0.001746 0.033786 0.000000 0.000000 0.000000
# 4 0.000000 0.000000 0.000000 0.079435 0.000000 0.000000
# 5 0.000000 0.000000 0.000000 0.000000 0.008283 0.000000
# 6 0.000000 0.000000 0.000000 0.000000 0.000000 0.024238
#
#
# Mechanical properties :
#
#
# Convention : Reuss Voigt Hill
#
# Bulk Modulus (GPa) = 24.93738 36.57708 30.75723
# Shear Modulus (GPa) = 23.29092 46.15504 34.72298
#
# Velocity S-wave (km/s) = 3.44235 4.84586 4.20310
# Velocity P-wave (km/s) = 5.33733 7.06535 6.26124
#
# Compressibility (1/GPa) = 0.04010044
#
# Stress axis : x y z
#
# Youngs Moduli (GPa) = 47.36304 101.76049 29.59777
#
# Poissons Ratio (x) = 0.64353 0.22894
# Poissons Ratio (y) = 0.29952 -0.05168
# Poissons Ratio (z) = 0.36636 -0.17767
#
# Static dielectric constant tensor:
#      x y z
#    x 1.692460 0.000000 0.000000 
#    y 0.000000 1.850980 0.000000 
#    z 0.000000 0.000000 1.701000 
# 
# From -- ./inp_files/32499.got.cif
#   From: 2010.05.17/outbox.cif.g08.bks.cpg/sg53_17_cif.got.tgz:32499.got - 2010.06.03 12:45:16.
