data_PCOD9414869
_publ_section_title
;
Structure prediction by ZEFSAII (Michael W. Deem and Ramdas Pophale) SiO2 
 PCOD9414869
Probable space group: P M N A
;
_chemical_formula_sum "Si O2"
_cell_formula_units_Z 64
_cell_length_a 20.081209
_cell_length_b 20.714441
_cell_length_c 9.028236
_cell_angle_alpha 90.000000
_cell_angle_beta 90.000000
_cell_angle_gamma 90.000000
_cell_volume 3755.484529
_symmetry_space_group_name_H-M "P M N A"
_symmetry_group_IT_number 53
_symmetry_cell_setting 'orthorhombic'
loop_
_space_group_symop_operation_xyz
x,y,z
1/2-x,-y,1/2+z
x,-y,-z
1/2-x,y,1/2-z
-x,-y,-z
1/2+x,y,1/2-z
-x,y,z
1/2+x,-y,1/2+z
loop_
_atom_site_type_symbol
_atom_site_label
_atom_site_fract_x
_atom_site_fract_y
_atom_site_fract_z
Si Si1 0.672392 0.842432 0.258538
Si Si2 0.925934 0.818463 0.806634
Si Si3 0.800775 0.443762 0.618653
Si Si4 0.116369 0.726372 0.054081
Si Si5 0.238212 0.334152 0.082239
Si Si6 0.854635 0.761442 0.524641
Si Si7 0.920345 0.924956 0.033881
Si Si8 0.576246 0.648740 0.162194
O O1 0.750000 0.861100 0.250000
O O2 0.662920 0.778029 0.359045
O O3 0.624812 0.895787 0.334264
O O4 0.649315 0.817681 0.097607
O O5 0.881457 0.790190 0.676946
O O6 0.000000 0.828219 0.746824
O O7 0.927201 0.768099 0.942712
O O8 0.902989 0.884032 0.886264
O O9 0.813158 0.500000 0.500000
O O10 0.750000 0.464238 0.750000
O O11 0.762311 0.387056 0.532980
O O12 0.870388 0.409849 0.666288
O O13 0.080484 0.685392 0.180121
O O14 0.162555 0.681737 0.953386
O O15 0.250000 0.355360 0.250000
O O16 0.283081 0.270770 0.054500
O O17 0.899181 0.702486 0.457988
O O18 0.000000 0.914623 0.062824
O O19 0.909806 0.000000 0.000000
O O20 0.500000 0.629340 0.132513
#
# Coordination Sequence:
#
# PCOD9414869 Si02
#       8
#     8   8   8   8   8   8   8   8
#     4  10  19  32  55  81 108 139 179 227 277 326
#     4  10  19  32  52  80 110 139 176 226 274 322
#     4  11  23  39  59  82 109 147 192 229 265 322
#     4  10  18  32  55  80 110 142 177 214 271 337
#     4  11  19  33  56  84 109 143 178 221 270 328
#     4  10  20  30  53  84 116 137 171 227 287 333
#     4   9  20  39  57  72 102 152 196 224 265 333
#     4  10  21  36  57  82 113 149 181 224 277 329
#
# _framework density 17.041741999999999
#
# number of rings (size 3 to 8) (size 9 to 14) (size 15 to 20)
#    0.000    1.875    3.750    1.125    0.000    3.750 
#    0.000    1.875    0.000    2.625    0.000    0.000 
#    0.000    0.000    0.000    0.000    0.000    0.000 
#
# Total GULP energy -356707.793589 kJ/mol
# GULP energy per Si atom -5573.559275 kJ/mol
# Density = 1.700295 g / cm^3
# Si number density = 17.041742 Si / 1000 Ang^3
#
#
#
# Elastic Constant Matrix: (Units=GPa)
#
#
# Indices 1 2 3 4 5 6 
#
# 1 89.7116 33.9043 29.3738 0.0000 0.0000 0.0000
# 2 33.9043 81.3984 33.1367 0.0000 0.0000 0.0000
# 3 29.3738 33.1367 93.6959 0.0000 0.0000 0.0000
# 4 0.0000 0.0000 0.0000 23.8186 0.0000 0.0000
# 5 0.0000 0.0000 0.0000 0.0000 20.4453 0.0000
# 6 0.0000 0.0000 0.0000 0.0000 0.0000 4.2211
#
#
#
# Elastic Compliance Matrix: (Units=1/GPa)
#
#
# Indices 1 2 3 4 5 6 
#
# 1 0.013780 -0.004651 -0.002675 0.000000 0.000000 0.000000
# 2 -0.004651 0.015921 -0.004173 0.000000 0.000000 0.000000
# 3 -0.002675 -0.004173 0.012987 0.000000 0.000000 0.000000
# 4 0.000000 0.000000 0.000000 0.041984 0.000000 0.000000
# 5 0.000000 0.000000 0.000000 0.000000 0.048911 0.000000
# 6 0.000000 0.000000 0.000000 0.000000 0.000000 0.236907
#
#
# Mechanical properties :
#
#
# Convention : Reuss Voigt Hill
#
# Bulk Modulus (GPa) = 50.78415 50.84840 50.81627
# Shear Modulus (GPa) = 12.49836 20.92306 16.71071
#
# Velocity S-wave (km/s) = 2.71107 3.50773 3.13481
# Velocity P-wave (km/s) = 6.29797 6.80499 6.55638
#
# Compressibility (1/GPa) = 0.01969118
#
# Stress axis : x y z
#
# Youngs Moduli (GPa) = 72.56651 62.80983 76.99844
#
# Poissons Ratio (x) = 0.29211 0.20600
# Poissons Ratio (y) = 0.33749 0.32129
# Poissons Ratio (z) = 0.19414 0.26208
#
# Static dielectric constant tensor:
#      x y z
#    x 1.617440 0.000000 0.000000 
#    y 0.000000 1.567010 0.000000 
#    z 0.000000 0.000000 1.576330 
# 
# From -- ./inp_files/11245.got.cif
#   From: 2010.05.17/outbox.cif.g08.bks.cpg/sg53_6_cif.got.tgz:11245.got - 2010.06.03 12:45:16.
