data_PCOD9414206
_publ_section_title
;
Structure prediction by ZEFSAII (Michael W. Deem and Ramdas Pophale) SiO2 
 PCOD9414206
Probable space group: P M N A
;
_chemical_formula_sum "Si O2"
_cell_formula_units_Z 48
_cell_length_a 8.595449
_cell_length_b 16.133472
_cell_length_c 19.535314
_cell_angle_alpha 90.000000
_cell_angle_beta 90.000000
_cell_angle_gamma 90.000000
_cell_volume 2709.048647
_symmetry_space_group_name_H-M "P M N A"
_symmetry_group_IT_number 53
_symmetry_cell_setting 'orthorhombic'
loop_
_space_group_symop_operation_xyz
x,y,z
1/2-x,-y,1/2+z
x,-y,-z
1/2-x,y,1/2-z
-x,-y,-z
1/2+x,y,1/2-z
-x,y,z
1/2+x,-y,1/2+z
loop_
_atom_site_type_symbol
_atom_site_label
_atom_site_fract_x
_atom_site_fract_y
_atom_site_fract_z
Si Si1 0.187202 0.408550 0.326041
Si Si2 0.185801 0.914188 0.921727
Si Si3 0.685830 0.085075 0.922090
Si Si4 0.812676 0.596918 0.326749
Si Si5 0.314439 0.258218 0.578419
Si Si6 0.312613 0.259269 0.076107
O O1 0.250000 0.393068 0.250000
O O2 0.231930 0.502386 0.346492
O O3 0.237221 0.337623 0.378590
O O4 0.000000 0.406639 0.323376
O O5 0.248933 0.827291 0.893350
O O6 0.000000 0.915517 0.921857
O O7 0.251079 0.999503 0.890292
O O8 0.247486 0.913762 0.000244
O O9 0.500000 0.083511 0.924560
O O10 0.745697 0.171794 0.892144
O O11 0.750000 0.610101 0.250000
O O12 0.741024 0.664605 0.376848
O O13 0.000000 0.603185 0.327428
O O14 0.500000 0.252255 0.576476
O O15 0.250801 0.267834 0.501056
O O16 0.500000 0.255306 0.073300
#
# Coordination Sequence:
#
# PCOD9414206 Si02
#       6
#     8   8   8   8   8   8
#     4   9  20  36  56  76 100 133 172 211 253 303
#     4  10  17  27  44  70 101 133 166 206 249 298
#     4  10  17  28  46  69  98 134 168 205 249 300
#     4  10  20  37  56  76 100 133 171 210 253 305
#     4  11  21  33  50  77 106 135 169 212 256 299
#     4  10  19  33  51  76 105 136 170 210 255 301
#
# _framework density 17.718397
#
# number of rings (size 3 to 8) (size 9 to 14) (size 15 to 20)
#    0.000    2.000    0.000    8.500    0.000    2.667 
#    0.000    3.333    0.000    1.000    0.000    4.667 
#    0.000    0.000    0.000    0.000    0.000    0.000 
#
# Total GULP energy -267742.057752 kJ/mol
# GULP energy per Si atom -5577.959536 kJ/mol
# Density = 1.767807 g / cm^3
# Si number density = 17.718397 Si / 1000 Ang^3
#
#
#
# Elastic Constant Matrix: (Units=GPa)
#
#
# Indices 1 2 3 4 5 6 
#
# 1 127.5811 68.1040 27.4573 0.0000 0.0000 0.0000
# 2 68.1040 206.5669 76.5897 0.0000 0.0000 0.0000
# 3 27.4573 76.5897 43.3040 0.0000 0.0000 0.0000
# 4 0.0000 0.0000 0.0000 -12.0892 0.0000 0.0000
# 5 0.0000 0.0000 0.0000 0.0000 16.4146 0.0000
# 6 0.0000 0.0000 0.0000 0.0000 0.0000 25.3864
#
#
#
# Elastic Compliance Matrix: (Units=1/GPa)
#
#
# Indices 1 2 3 4 5 6 
#
# 1 0.009542 -0.002622 -0.001412 0.000000 0.000000 0.000000
# 2 -0.002622 0.014784 -0.024485 0.000000 0.000000 0.000000
# 3 -0.001412 -0.024485 0.067294 0.000000 0.000000 0.000000
# 4 0.000000 0.000000 0.000000 -0.082719 0.000000 0.000000
# 5 0.000000 0.000000 0.000000 0.000000 0.060922 0.000000
# 6 0.000000 0.000000 0.000000 0.000000 0.000000 0.039391
#
#
# Mechanical properties :
#
#
# Convention : Reuss Voigt Hill
#
# Bulk Modulus (GPa) = 28.91812 80.19491 54.55652
# Shear Modulus (GPa) = 28.12464 19.62909 23.87686
#
# Velocity S-wave (km/s) = 3.98843 3.33203 3.67492
# Velocity P-wave (km/s) = 6.12915 7.75644 6.99031
#
# Compressibility (1/GPa) = 0.03458039
#
# Stress axis : x y z
#
# Youngs Moduli (GPa) = 104.80105 67.64017 14.86020
#
# Poissons Ratio (x) = 0.17737 0.02098
# Poissons Ratio (y) = 0.27482 0.36386
# Poissons Ratio (z) = 0.14800 1.65619
#
# Static dielectric constant tensor:
#      x y z
#    x 1.591570 0.000000 0.000000 
#    y 0.000000 1.664750 0.000000 
#    z 0.000000 0.000000 1.573690 
# 
# From -- ./inp_files/30521.got.cif
#   From: 2010.05.17/outbox.cif.g08.bks.cpg/sg53_16_cif.got.tgz:30521.got - 2010.06.03 12:45:16.
