data_PCOD9414584
_publ_section_title
;
Structure prediction by ZEFSAII (Michael W. Deem and Ramdas Pophale) SiO2 
 PCOD9414584
Probable space group: P M N A
;
_chemical_formula_sum "Si O2"
_cell_formula_units_Z 64
_cell_length_a 8.236363
_cell_length_b 16.259409
_cell_length_c 29.557314
_cell_angle_alpha 90.000000
_cell_angle_beta 90.000000
_cell_angle_gamma 90.000000
_cell_volume 3958.268042
_symmetry_space_group_name_H-M "P M N A"
_symmetry_group_IT_number 53
_symmetry_cell_setting 'orthorhombic'
loop_
_space_group_symop_operation_xyz
x,y,z
1/2-x,-y,1/2+z
x,-y,-z
1/2-x,y,1/2-z
-x,-y,-z
1/2+x,y,1/2-z
-x,y,z
1/2+x,-y,1/2+z
loop_
_atom_site_type_symbol
_atom_site_label
_atom_site_fract_x
_atom_site_fract_y
_atom_site_fract_z
Si Si1 0.696095 0.662625 0.645246
Si Si2 0.195795 0.997099 0.197758
Si Si3 0.302023 0.593676 0.551211
Si Si4 0.306871 0.659587 0.143243
Si Si5 0.194180 0.817610 0.197951
Si Si6 0.804276 0.402889 0.950201
Si Si7 0.805041 0.500478 0.698198
Si Si8 0.696735 0.176653 0.302229
O O1 0.500000 0.666527 0.643996
O O2 0.754191 0.646088 0.594042
O O3 0.742988 0.583896 0.675176
O O4 0.755747 0.746627 0.668198
O O5 0.250000 0.997408 0.250000
O O6 0.252333 0.907771 0.180519
O O7 0.000000 0.997135 0.195386
O O8 0.251076 0.086373 0.180101
O O9 0.500000 0.594428 0.551258
O O10 0.253369 0.498112 0.557432
O O11 0.250231 0.620571 0.500954
O O12 0.500000 0.657056 0.145754
O O13 0.250002 0.742301 0.167448
O O14 0.255907 0.651272 0.091174
O O15 0.243942 0.579039 0.170278
O O16 0.250000 0.806899 0.250000
O O17 0.000000 0.818560 0.198379
O O18 0.000000 0.401906 0.949828
O O19 0.750000 0.495306 0.750000
O O20 0.000000 0.501203 0.696822
O O21 0.750000 0.185907 0.250000
O O22 0.500000 0.177580 0.302626
#
# Coordination Sequence:
#
# PCOD9414584 Si02
#       8
#     8   8   8   8   8   8   8   8
#     4  10  18  30  48  68  91 120 152 184 220 264
#     4   8  15  28  44  64  88 114 146 182 223 263
#     4   8  15  28  48  70  88 114 151 189 227 269
#     4  11  22  33  45  66  92 119 153 189 228 269
#     4  10  19  31  48  67  90 120 151 186 224 267
#     4   9  16  30  50  67  87 116 152 190 228 271
#     4  11  23  34  43  59  88 124 155 183 215 256
#     4   9  17  28  44  66  92 120 148 182 219 260
#
# _framework density 16.168688
#
# number of rings (size 3 to 8) (size 9 to 14) (size 15 to 20)
#    0.000    2.500    1.250    2.625    0.000    4.500 
#    0.000    1.875    0.000    0.000    0.000    0.875 
#    0.000    7.000    0.000    0.000    0.000    0.000 
#
# Total GULP energy -356605.846864 kJ/mol
# GULP energy per Si atom -5571.966357 kJ/mol
# Density = 1.613189 g / cm^3
# Si number density = 16.168688 Si / 1000 Ang^3
#
#
#
# Elastic Constant Matrix: (Units=GPa)
#
#
# Indices 1 2 3 4 5 6 
#
# 1 12.2800 14.6980 10.7284 0.0000 0.0000 0.0000
# 2 14.6980 153.3920 77.2824 0.0000 0.0000 0.0000
# 3 10.7284 77.2824 118.0341 0.0000 0.0000 0.0000
# 4 0.0000 0.0000 0.0000 4.9043 0.0000 0.0000
# 5 0.0000 0.0000 0.0000 0.0000 16.2877 0.0000
# 6 0.0000 0.0000 0.0000 0.0000 0.0000 9.2820
#
#
#
# Elastic Compliance Matrix: (Units=1/GPa)
#
#
# Indices 1 2 3 4 5 6 
#
# 1 0.093179 -0.006956 -0.003915 0.000000 0.000000 0.000000
# 2 -0.006956 0.010248 -0.006077 0.000000 0.000000 0.000000
# 3 -0.003915 -0.006077 0.012807 0.000000 0.000000 0.000000
# 4 0.000000 0.000000 0.000000 0.203903 0.000000 0.000000
# 5 0.000000 0.000000 0.000000 0.000000 0.061396 0.000000
# 6 0.000000 0.000000 0.000000 0.000000 0.000000 0.107735
#
#
# Mechanical properties :
#
#
# Convention : Reuss Voigt Hill
#
# Bulk Modulus (GPa) = 12.14512 54.34705 33.24608
# Shear Modulus (GPa) = 9.08082 18.16129 13.62105
#
# Velocity S-wave (km/s) = 2.37244 3.35511 2.90562
# Velocity P-wave (km/s) = 3.87717 6.97815 5.64478
#
# Compressibility (1/GPa) = 0.08233762
#
# Stress axis : x y z
#
# Youngs Moduli (GPa) = 10.73200 97.58292 78.08163
#
# Poissons Ratio (x) = 0.67879 0.30568
# Poissons Ratio (y) = 0.07465 0.47453
# Poissons Ratio (z) = 0.04201 0.59305
#
# Static dielectric constant tensor:
#      x y z
#    x 1.564990 0.000000 0.000000 
#    y 0.000000 1.571480 0.000000 
#    z 0.000000 0.000000 1.528540 
# 
# From -- ./inp_files/38394.got.cif
#   From: 2010.05.17/outbox.cif.g08.bks.cpg/sg53_20_cif.got.tgz:38394.got - 2010.06.03 12:45:16.
