data_PCOD9414323
_publ_section_title
;
Structure prediction by ZEFSAII (Michael W. Deem and Ramdas Pophale) SiO2 
 PCOD9414323
Probable space group: P M N A
;
_chemical_formula_sum "Si O2"
_cell_formula_units_Z 48
_cell_length_a 13.677288
_cell_length_b 8.995701
_cell_length_c 17.861154
_cell_angle_alpha 90.000000
_cell_angle_beta 90.000000
_cell_angle_gamma 90.000000
_cell_volume 2197.579113
_symmetry_space_group_name_H-M "P M N A"
_symmetry_group_IT_number 53
_symmetry_cell_setting 'orthorhombic'
loop_
_space_group_symop_operation_xyz
x,y,z
1/2-x,-y,1/2+z
x,-y,-z
1/2-x,y,1/2-z
-x,-y,-z
1/2+x,y,1/2-z
-x,y,z
1/2+x,-y,1/2+z
loop_
_atom_site_type_symbol
_atom_site_label
_atom_site_fract_x
_atom_site_fract_y
_atom_site_fract_z
Si Si1 0.610245 0.650737 0.949790
Si Si2 0.388145 0.019034 0.226443
Si Si3 0.796472 0.929646 0.875098
Si Si4 0.886176 0.330789 0.742376
Si Si5 0.747176 0.539845 0.368420
Si Si6 0.274582 0.215077 0.524347
O O1 0.500000 0.681033 0.923367
O O2 0.695217 0.610064 0.889311
O O3 0.605218 0.500000 0.000000
O O4 0.659333 0.778068 0.000912
O O5 0.500000 0.033776 0.202644
O O6 0.311438 0.069107 0.163451
O O7 0.366259 0.100218 0.304802
O O8 0.370298 0.846029 0.250285
O O9 0.800414 0.092461 0.914219
O O10 0.822764 0.826538 0.945647
O O11 0.831948 0.435924 0.802928
O O12 0.838158 0.364466 0.662849
O O13 0.000000 0.361026 0.743594
O O14 0.704443 0.625070 0.440082
#
# Coordination Sequence:
#
# PCOD9414323 Si02
#       6
#     8   8   8   8   8   8
#     4   9  19  32  50  74 101 131 162 202 259 318
#     4  10  19  34  53  74 103 141 180 214 251 305
#     4  10  19  35  53  77 107 136 172 217 261 308
#     4  10  18  30  53  78 101 136 184 220 249 299
#     4  10  17  34  53  75 106 136 172 218 263 304
#     4  10  19  32  53  77 109 137 165 211 268 312
#
# _framework density 21.842217000000002
#
# number of rings (size 3 to 8) (size 9 to 14) (size 15 to 20)
#    0.000    2.167    3.333    1.500    0.000    2.000 
#    0.000    7.500    0.000    8.500    0.000    0.000 
#    0.000    0.000    0.000    0.000    0.000    0.000 
#
# Total GULP energy -267235.056924 kJ/mol
# GULP energy per Si atom -5567.397019 kJ/mol
# Density = 2.179250 g / cm^3
# Si number density = 21.842217 Si / 1000 Ang^3
#
#
#
# Elastic Constant Matrix: (Units=GPa)
#
#
# Indices 1 2 3 4 5 6 
#
# 1 59.4636 -6.5906 -5.3650 0.0000 0.0000 0.0000
# 2 -6.5906 21.3326 10.3312 0.0000 0.0000 0.0000
# 3 -5.3650 10.3312 107.1927 0.0000 0.0000 0.0000
# 4 0.0000 0.0000 0.0000 36.9431 0.0000 0.0000
# 5 0.0000 0.0000 0.0000 0.0000 13.7373 0.0000
# 6 0.0000 0.0000 0.0000 0.0000 0.0000 14.8222
#
#
#
# Elastic Compliance Matrix: (Units=1/GPa)
#
#
# Indices 1 2 3 4 5 6 
#
# 1 0.017427 0.005205 0.000371 0.000000 0.000000 0.000000
# 2 0.005205 0.050726 -0.004628 0.000000 0.000000 0.000000
# 3 0.000371 -0.004628 0.009794 0.000000 0.000000 0.000000
# 4 0.000000 0.000000 0.000000 0.027069 0.000000 0.000000
# 5 0.000000 0.000000 0.000000 0.000000 0.072794 0.000000
# 6 0.000000 0.000000 0.000000 0.000000 0.000000 0.067466
#
#
# Mechanical properties :
#
#
# Convention : Reuss Voigt Hill
#
# Bulk Modulus (GPa) = 12.52498 20.52666 16.52582
# Shear Modulus (GPa) = 18.51878 25.74141 22.13009
#
# Velocity S-wave (km/s) = 2.91493 3.43668 3.18650
# Velocity P-wave (km/s) = 4.13230 5.01655 4.59574
#
# Compressibility (1/GPa) = 0.07984046
#
# Stress axis : x y z
#
# Youngs Moduli (GPa) = 57.38122 19.71375 102.10717
#
# Poissons Ratio (x) = -0.10260 -0.03784
# Poissons Ratio (y) = -0.29864 0.47260
# Poissons Ratio (z) = -0.02127 0.09124
#
# Static dielectric constant tensor:
#      x y z
#    x 1.791460 0.000000 0.000000 
#    y 0.000000 1.985240 0.000000 
#    z 0.000000 0.000000 1.850600 
# 
# From -- ./inp_files/28374.got.cif
#   From: 2010.05.17/outbox.cif.g08.bks.cpg/sg53_15_cif.got.tgz:28374.got - 2010.06.03 12:45:16.
