data_PCOD9414919
_publ_section_title
;
Structure prediction by ZEFSAII (Michael W. Deem and Ramdas Pophale) SiO2 
 PCOD9414919
Probable space group: P M N A
;
_chemical_formula_sum "Si O2"
_cell_formula_units_Z 64
_cell_length_a 8.760737
_cell_length_b 15.376544
_cell_length_c 25.405527
_cell_angle_alpha 90.000000
_cell_angle_beta 90.000000
_cell_angle_gamma 90.000000
_cell_volume 3422.374933
_symmetry_space_group_name_H-M "P M N A"
_symmetry_group_IT_number 53
_symmetry_cell_setting 'orthorhombic'
loop_
_space_group_symop_operation_xyz
x,y,z
1/2-x,-y,1/2+z
x,-y,-z
1/2-x,y,1/2-z
-x,-y,-z
1/2+x,y,1/2-z
-x,y,z
1/2+x,-y,1/2+z
loop_
_atom_site_type_symbol
_atom_site_label
_atom_site_fract_x
_atom_site_fract_y
_atom_site_fract_z
Si Si1 0.832978 0.944375 0.947410
Si Si2 0.183379 0.783413 0.111343
Si Si3 0.816450 0.555700 0.692954
Si Si4 0.683565 0.294092 0.114069
Si Si5 0.176567 0.967933 0.357246
Si Si6 0.683417 0.354609 0.807591
Si Si7 0.323799 0.249199 0.491683
Si Si8 0.315173 0.857985 0.805950
O O1 0.820544 0.846708 0.966523
O O2 0.000000 0.957165 0.920772
O O3 0.698505 0.978188 0.911171
O O4 0.834269 0.000000 0.000000
O O5 0.238512 0.877244 0.132823
O O6 0.246141 0.709724 0.149842
O O7 0.000000 0.784599 0.110345
O O8 0.236041 0.762027 0.051322
O O9 0.750000 0.578390 0.750000
O O10 0.765749 0.623629 0.648836
O O11 0.775760 0.455480 0.681135
O O12 0.000000 0.560328 0.696227
O O13 0.500000 0.291154 0.113192
O O14 0.739017 0.301929 0.054001
O O15 0.733615 0.207422 0.146888
O O16 0.000000 0.949009 0.346259
O O17 0.233325 0.041604 0.316346
O O18 0.750000 0.333777 0.750000
O O19 0.500000 0.346890 0.806882
O O20 0.500000 0.278173 0.495217
O O21 0.250000 0.828220 0.750000
O O22 0.500000 0.856826 0.804676
#
# Coordination Sequence:
#
# PCOD9414919 Si02
#       8
#     8   8   8   8   8   8   8   8
#     4  10  18  33  53  75 105 144 189 234 276 323
#     4  11  23  40  59  83 114 151 191 237 283 333
#     4   9  19  36  61  88 115 144 184 233 283 338
#     4  10  20  36  56  83 116 148 183 230 281 334
#     4  11  22  35  52  79 110 144 188 235 279 332
#     4  10  21  40  64  90 113 143 184 232 286 339
#     4  10  21  35  54  81 113 150 192 231 278 335
#     4  10  22  36  51  76 110 146 186 228 276 331
#
# _framework density 18.700464
#
# number of rings (size 3 to 8) (size 9 to 14) (size 15 to 20)
#    0.000    1.875    2.500    1.500    0.000    4.250 
#    0.000    1.875    0.000    3.750    0.000    0.000 
#    0.000    0.000    0.000    0.000    0.000    0.000 
#
# Total GULP energy -356846.529394 kJ/mol
# GULP energy per Si atom -5575.727022 kJ/mol
# Density = 1.865790 g / cm^3
# Si number density = 18.700464 Si / 1000 Ang^3
#
#
#
# Elastic Constant Matrix: (Units=GPa)
#
#
# Indices 1 2 3 4 5 6 
#
# 1 23.9362 27.0872 27.9078 0.0000 0.0000 0.0000
# 2 27.0872 91.5627 66.0344 0.0000 0.0000 0.0000
# 3 27.9078 66.0344 107.1840 0.0000 0.0000 0.0000
# 4 0.0000 0.0000 0.0000 30.8208 0.0000 0.0000
# 5 0.0000 0.0000 0.0000 0.0000 29.4497 0.0000
# 6 0.0000 0.0000 0.0000 0.0000 0.0000 65.1729
#
#
#
# Elastic Compliance Matrix: (Units=1/GPa)
#
#
# Indices 1 2 3 4 5 6 
#
# 1 0.067815 -0.013187 -0.009533 0.000000 0.000000 0.000000
# 2 -0.013187 0.022218 -0.010255 0.000000 0.000000 0.000000
# 3 -0.009533 -0.010255 0.018130 0.000000 0.000000 0.000000
# 4 0.000000 0.000000 0.000000 0.032446 0.000000 0.000000
# 5 0.000000 0.000000 0.000000 0.000000 0.033956 0.000000
# 6 0.000000 0.000000 0.000000 0.000000 0.000000 0.015344
#
#
# Mechanical properties :
#
#
# Convention : Reuss Voigt Hill
#
# Bulk Modulus (GPa) = 23.68892 51.63797 37.66345
# Shear Modulus (GPa) = 18.52336 31.86560 25.19448
#
# Velocity S-wave (km/s) = 3.15068 4.13243 3.67449
# Velocity P-wave (km/s) = 5.09223 7.10229 6.17953
#
# Compressibility (1/GPa) = 0.04221382
#
# Stress axis : x y z
#
# Youngs Moduli (GPa) = 14.74596 45.00800 55.15784
#
# Poissons Ratio (x) = 0.59351 0.52583
# Poissons Ratio (y) = 0.19445 0.56564
# Poissons Ratio (z) = 0.14058 0.46155
#
# Static dielectric constant tensor:
#      x y z
#    x 1.681780 0.000000 0.000000 
#    y 0.000000 1.659230 0.000000 
#    z 0.000000 0.000000 1.647230 
# 
# From -- ./inp_files/34323.got.cif
#   From: 2010.05.17/outbox.cif.g08.bks.cpg/sg53_18_cif.got.tgz:34323.got - 2010.06.03 12:45:16.
