data_PCOD9414592
_publ_section_title
;
Structure prediction by ZEFSAII (Michael W. Deem and Ramdas Pophale) SiO2 
 PCOD9414592
Probable space group: P M N A
;
_chemical_formula_sum "Si O2"
_cell_formula_units_Z 64
_cell_length_a 8.846725
_cell_length_b 15.313634
_cell_length_c 30.578351
_cell_angle_alpha 90.000000
_cell_angle_beta 90.000000
_cell_angle_gamma 90.000000
_cell_volume 4142.617658
_symmetry_space_group_name_H-M "P M N A"
_symmetry_group_IT_number 53
_symmetry_cell_setting 'orthorhombic'
loop_
_space_group_symop_operation_xyz
x,y,z
1/2-x,-y,1/2+z
x,-y,-z
1/2-x,y,1/2-z
-x,-y,-z
1/2+x,y,1/2-z
-x,y,z
1/2+x,-y,1/2+z
loop_
_atom_site_type_symbol
_atom_site_label
_atom_site_fract_x
_atom_site_fract_y
_atom_site_fract_z
Si Si1 0.819399 0.129129 0.943847
Si Si2 0.180195 0.792518 0.295631
Si Si3 0.316755 0.550729 0.436273
Si Si4 0.818601 0.997572 0.295973
Si Si5 0.319070 0.178234 0.036036
Si Si6 0.182520 0.035478 0.392689
Si Si7 0.681642 0.291505 0.619340
Si Si8 0.817304 0.368838 0.031002
O O1 0.786250 0.218933 0.917849
O O2 0.000000 0.120602 0.947531
O O3 0.753562 0.049269 0.915838
O O4 0.748427 0.135743 0.991948
O O5 0.250000 0.761927 0.250000
O O6 0.223029 0.894921 0.300842
O O7 0.242494 0.739231 0.336316
O O8 0.000000 0.788057 0.294016
O O9 0.500000 0.549122 0.435263
O O10 0.265623 0.614122 0.397732
O O11 0.268971 0.449877 0.438220
O O12 0.278262 0.597938 0.482092
O O13 0.750000 0.029181 0.250000
O O14 0.000000 0.003095 0.292595
O O15 0.771117 0.041512 0.341741
O O16 0.500000 0.179946 0.032233
O O17 0.278311 0.118837 0.077755
O O18 0.256437 0.276151 0.040163
O O19 0.000000 0.024999 0.393274
O O20 0.500000 0.293123 0.624868
O O21 0.000000 0.359865 0.032734
#
# Coordination Sequence:
#
# PCOD9414592 Si02
#       8
#     8   8   8   8   8   8   8   8
#     4  11  21  32  48  69  95 128 168 203 228 270
#     4  10  19  31  48  69  94 125 157 194 236 283
#     4   8  15  29  50  70  92 123 155 194 240 279
#     4   9  18  32  49  67  90 119 155 194 235 280
#     4  11  22  33  47  66  97 134 164 198 242 282
#     4  10  21  36  48  65  96 133 162 192 240 289
#     4  10  18  30  48  71  96 125 159 194 237 285
#     4   9  16  31  51  69  91 122 161 198 234 277
#
# _framework density 15.449168
#
# number of rings (size 3 to 8) (size 9 to 14) (size 15 to 20)
#    0.000    2.250    2.500    2.250    0.000    4.000 
#    0.000    1.875    0.000    0.000    0.000    0.875 
#    0.000    4.000    0.000    0.000    0.000    0.000 
#
# Total GULP energy -356846.552001 kJ/mol
# GULP energy per Si atom -5575.727375 kJ/mol
# Density = 1.541401 g / cm^3
# Si number density = 15.449168 Si / 1000 Ang^3
#
#
#
# Elastic Constant Matrix: (Units=GPa)
#
#
# Indices 1 2 3 4 5 6 
#
# 1 18.4226 25.3203 36.6659 0.0000 0.0000 0.0000
# 2 25.3203 77.3436 55.8974 0.0000 0.0000 0.0000
# 3 36.6659 55.8974 142.1203 0.0000 0.0000 0.0000
# 4 0.0000 0.0000 0.0000 21.8239 0.0000 0.0000
# 5 0.0000 0.0000 0.0000 0.0000 24.6570 0.0000
# 6 0.0000 0.0000 0.0000 0.0000 0.0000 11.0085
#
#
#
# Elastic Compliance Matrix: (Units=1/GPa)
#
#
# Indices 1 2 3 4 5 6 
#
# 1 0.146688 -0.028881 -0.026485 0.000000 0.000000 0.000000
# 2 -0.028881 0.023750 -0.001890 0.000000 0.000000 0.000000
# 3 -0.026485 -0.001890 0.014613 0.000000 0.000000 0.000000
# 4 0.000000 0.000000 0.000000 0.045821 0.000000 0.000000
# 5 0.000000 0.000000 0.000000 0.000000 0.040556 0.000000
# 6 0.000000 0.000000 0.000000 0.000000 0.000000 0.090839
#
#
# Mechanical properties :
#
#
# Convention : Reuss Voigt Hill
#
# Bulk Modulus (GPa) = 14.17665 52.62817 33.40241
# Shear Modulus (GPa) = 9.99416 19.49807 14.74611
#
# Velocity S-wave (km/s) = 2.54619 3.55643 3.09284
# Velocity P-wave (km/s) = 4.22379 7.14168 5.86702
#
# Compressibility (1/GPa) = 0.07053853
#
# Stress axis : x y z
#
# Youngs Moduli (GPa) = 6.81721 42.10491 68.43360
#
# Poissons Ratio (x) = 1.21601 1.81248
# Poissons Ratio (y) = 0.19688 0.12936
# Poissons Ratio (z) = 0.18055 0.07959
#
# Static dielectric constant tensor:
#      x y z
#    x 1.518440 0.000000 0.000000 
#    y 0.000000 1.509360 0.000000 
#    z 0.000000 0.000000 1.509580 
# 
# From -- ./inp_files/38398.got.cif
#   From: 2010.05.17/outbox.cif.g08.bks.cpg/sg53_20_cif.got.tgz:38398.got - 2010.06.03 12:45:16.
