data_PCOD9414300
_publ_section_title
;
Structure prediction by ZEFSAII (Michael W. Deem and Ramdas Pophale) SiO2 
 PCOD9414300
Probable space group: P M N A
;
_chemical_formula_sum "Si O2"
_cell_formula_units_Z 48
_cell_length_a 17.243781
_cell_length_b 7.847477
_cell_length_c 20.487430
_cell_angle_alpha 90.000000
_cell_angle_beta 90.000000
_cell_angle_gamma 90.000000
_cell_volume 2772.362609
_symmetry_space_group_name_H-M "P M N A"
_symmetry_group_IT_number 53
_symmetry_cell_setting 'orthorhombic'
loop_
_space_group_symop_operation_xyz
x,y,z
1/2-x,-y,1/2+z
x,-y,-z
1/2-x,y,1/2-z
-x,-y,-z
1/2+x,y,1/2-z
-x,y,z
1/2+x,-y,1/2+z
loop_
_atom_site_type_symbol
_atom_site_label
_atom_site_fract_x
_atom_site_fract_y
_atom_site_fract_z
Si Si1 0.585424 0.800127 0.017009
Si Si2 0.303655 0.901492 0.684095
Si Si3 0.413728 0.697288 0.869282
Si Si4 0.411907 0.956593 0.215603
Si Si5 0.247251 0.543166 0.673362
Si Si6 0.210992 0.201276 0.628164
O O1 0.500000 0.755445 0.045332
O O2 0.656578 0.776371 0.065452
O O3 0.593234 0.708547 0.947443
O O4 0.583371 0.000000 0.000000
O O5 0.250000 0.897623 0.750000
O O6 0.383245 0.970248 0.714841
O O7 0.299956 0.708447 0.658679
O O8 0.263642 0.032279 0.634108
O O9 0.500000 0.631598 0.853280
O O10 0.408959 0.885899 0.836545
O O11 0.341067 0.594530 0.843339
O O12 0.500000 0.895208 0.217697
O O13 0.350325 0.820908 0.188161
O O14 0.250000 0.510622 0.750000
O O15 0.263221 0.367409 0.637246
#
# Coordination Sequence:
#
# PCOD9414300 Si02
#       6
#     8   8   8   8   8   8
#     4  10  18  31  49  71 103 142 173 198 235 295
#     4   9  17  33  47  67  94 128 167 210 253 300
#     4  10  19  31  49  70  98 135 170 199 237 292
#     4  10  17  31  51  70  96 132 169 207 250 297
#     4  11  19  33  49  67  95 133 170 211 252 289
#     4  11  20  30  50  72  99 136 171 203 252 297
#
# _framework density 17.313752000000001
#
# number of rings (size 3 to 8) (size 9 to 14) (size 15 to 20)
#    0.000    1.833    6.667    2.000    0.000    2.000 
#    0.000    1.667    0.000    0.000    0.000    0.000 
#    0.000    7.333    0.000   17.167    0.000    0.000 
#
# Total GULP energy -267559.445782 kJ/mol
# GULP energy per Si atom -5574.155120 kJ/mol
# Density = 1.727434 g / cm^3
# Si number density = 17.313752 Si / 1000 Ang^3
#
#
#
# Elastic Constant Matrix: (Units=GPa)
#
#
# Indices 1 2 3 4 5 6 
#
# 1 36.4149 11.6852 25.4683 0.0000 0.0000 0.0000
# 2 11.6852 57.9719 19.9701 0.0000 0.0000 0.0000
# 3 25.4683 19.9701 60.0575 0.0000 0.0000 0.0000
# 4 0.0000 0.0000 0.0000 5.7914 0.0000 0.0000
# 5 0.0000 0.0000 0.0000 0.0000 31.8769 0.0000
# 6 0.0000 0.0000 0.0000 0.0000 0.0000 11.5085
#
#
#
# Elastic Compliance Matrix: (Units=1/GPa)
#
#
# Indices 1 2 3 4 5 6 
#
# 1 0.039350 -0.002466 -0.015867 0.000000 0.000000 0.000000
# 2 -0.002466 0.019636 -0.005484 0.000000 0.000000 0.000000
# 3 -0.015867 -0.005484 0.025203 0.000000 0.000000 0.000000
# 4 0.000000 0.000000 0.000000 0.172669 0.000000 0.000000
# 5 0.000000 0.000000 0.000000 0.000000 0.031371 0.000000
# 6 0.000000 0.000000 0.000000 0.000000 0.000000 0.086892
#
#
# Mechanical properties :
#
#
# Convention : Reuss Voigt Hill
#
# Bulk Modulus (GPa) = 27.35559 29.85462 28.60511
# Shear Modulus (GPa) = 11.49590 16.32341 13.90965
#
# Velocity S-wave (km/s) = 2.57957 3.07384 2.83748
# Velocity P-wave (km/s) = 4.97056 5.46614 5.22423
#
# Compressibility (1/GPa) = 0.03655560
#
# Stress axis : x y z
#
# Youngs Moduli (GPa) = 25.41315 50.92756 39.67831
#
# Poissons Ratio (x) = 0.12558 0.62957
# Poissons Ratio (y) = 0.06266 0.21758
# Poissons Ratio (z) = 0.40323 0.27926
#
# Static dielectric constant tensor:
#      x y z
#    x 1.596470 0.000000 0.000000 
#    y 0.000000 1.676490 0.000000 
#    z 0.000000 0.000000 1.593500 
# 
# From -- ./inp_files/32732.got.cif
#   From: 2010.05.17/outbox.cif.g08.bks.cpg/sg53_17_cif.got.tgz:32732.got - 2010.06.03 12:45:16.
