data_PCOD9414542
_publ_section_title
;
Structure prediction by ZEFSAII (Michael W. Deem and Ramdas Pophale) SiO2 
 PCOD9414542
Probable space group: P M N A
;
_chemical_formula_sum "Si O2"
_cell_formula_units_Z 64
_cell_length_a 8.888757
_cell_length_b 20.476484
_cell_length_c 19.750000
_cell_angle_alpha 90.000000
_cell_angle_beta 90.000000
_cell_angle_gamma 90.000000
_cell_volume 3594.707187
_symmetry_space_group_name_H-M "P M N A"
_symmetry_group_IT_number 53
_symmetry_cell_setting 'orthorhombic'
loop_
_space_group_symop_operation_xyz
x,y,z
1/2-x,-y,1/2+z
x,-y,-z
1/2-x,y,1/2-z
-x,-y,-z
1/2+x,y,1/2-z
-x,y,z
1/2+x,-y,1/2+z
loop_
_atom_site_type_symbol
_atom_site_label
_atom_site_fract_x
_atom_site_fract_y
_atom_site_fract_z
Si Si1 0.178142 0.836910 0.427999
Si Si2 0.820643 0.988319 0.422123
Si Si3 0.318840 0.620305 0.107428
Si Si4 0.821471 0.649119 0.960809
Si Si5 0.826025 0.521683 0.579236
Si Si6 0.679552 0.095354 0.324169
Si Si7 0.180197 0.203336 0.068946
Si Si8 0.178959 0.739837 0.179355
O O1 0.233639 0.826159 0.504549
O O2 0.268050 0.788270 0.379761
O O3 0.000000 0.823044 0.423639
O O4 0.203581 0.911973 0.407351
O O5 0.737850 0.035956 0.370618
O O6 0.000000 0.001535 0.418747
O O7 0.772710 0.000000 0.500000
O O8 0.500000 0.624326 0.108966
O O9 0.275906 0.544202 0.116991
O O10 0.245253 0.668998 0.160531
O O11 0.262326 0.642774 0.033044
O O12 0.769841 0.587266 0.916399
O O13 0.786660 0.719452 0.928599
O O14 0.000000 0.645543 0.973223
O O15 0.822047 0.500000 0.500000
O O16 0.000000 0.535584 0.595852
O O17 0.750000 0.093325 0.250000
O O18 0.500000 0.091741 0.318703
O O19 0.719220 0.161797 0.364748
O O20 0.000000 0.196476 0.057614
O O21 0.250000 0.761908 0.250000
O O22 0.000000 0.737522 0.183228
#
# Coordination Sequence:
#
# PCOD9414542 Si02
#       8
#     8   8   8   8   8   8   8   8
#     4  11  22  37  61  87 114 149 189 236 286 343
#     4  10  21  39  62  90 119 150 191 236 284 342
#     4  10  19  33  52  76 109 147 188 233 287 341
#     4  10  18  29  50  81 112 144 186 236 286 336
#     4   8  16  29  46  73 109 143 179 228 279 334
#     4  11  24  41  62  87 119 156 194 237 288 341
#     4  10  21  36  56  85 118 152 190 237 289 342
#     4  12  25  40  57  80 113 151 195 240 289 348
#
# _framework density 17.803954000000001
#
# number of rings (size 3 to 8) (size 9 to 14) (size 15 to 20)
#    0.000    1.750    2.500    3.375    0.000    5.500 
#    0.000    0.000    0.000    0.750    0.000    3.500 
#    0.000    0.000    0.000    0.000    0.000    0.000 
#
# Total GULP energy -357297.814806 kJ/mol
# GULP energy per Si atom -5582.778356 kJ/mol
# Density = 1.776343 g / cm^3
# Si number density = 17.803954 Si / 1000 Ang^3
#
#
#
# Elastic Constant Matrix: (Units=GPa)
#
#
# Indices 1 2 3 4 5 6 
#
# 1 78.0282 61.0812 43.9664 0.0000 0.0000 0.0000
# 2 61.0812 114.1846 49.0073 0.0000 0.0000 0.0000
# 3 43.9664 49.0073 99.3407 0.0000 0.0000 0.0000
# 4 0.0000 0.0000 0.0000 18.2918 0.0000 0.0000
# 5 0.0000 0.0000 0.0000 0.0000 21.6601 0.0000
# 6 0.0000 0.0000 0.0000 0.0000 0.0000 -6.5839
#
#
#
# Elastic Compliance Matrix: (Units=1/GPa)
#
#
# Indices 1 2 3 4 5 6 
#
# 1 0.024195 -0.010589 -0.005485 0.000000 0.000000 0.000000
# 2 -0.010589 0.015744 -0.003081 0.000000 0.000000 0.000000
# 3 -0.005485 -0.003081 0.014014 0.000000 0.000000 0.000000
# 4 0.000000 0.000000 0.000000 0.054669 0.000000 0.000000
# 5 0.000000 0.000000 0.000000 0.000000 0.046168 0.000000
# 6 0.000000 0.000000 0.000000 0.000000 0.000000 -0.151885
#
#
# Mechanical properties :
#
#
# Convention : Reuss Voigt Hill
#
# Bulk Modulus (GPa) = 63.91882 66.62925 65.27404
# Shear Modulus (GPa) = 107.69178 15.84018 61.76598
#
# Velocity S-wave (km/s) = 7.78581 2.98602 5.89641
# Velocity P-wave (km/s) = 10.80762 7.02805 9.11587
#
# Compressibility (1/GPa) = 0.01564484
#
# Stress axis : x y z
#
# Youngs Moduli (GPa) = 41.33006 63.51501 71.35967
#
# Poissons Ratio (x) = 0.67256 0.39138
# Poissons Ratio (y) = 0.43764 0.21983
# Poissons Ratio (z) = 0.22668 0.19566
#
# Static dielectric constant tensor:
#      x y z
#    x 1.593910 0.000000 0.000000 
#    y 0.000000 1.629580 0.000000 
#    z 0.000000 0.000000 1.591600 
# 
# From -- ./inp_files/26946.got.cif
#   From: 2010.05.17/outbox.cif.g08.bks.cpg/sg53_14_cif.got.tgz:26946.got - 2010.06.03 12:45:16.
