data_PCOD9414675
_publ_section_title
;
Structure prediction by ZEFSAII (Michael W. Deem and Ramdas Pophale) SiO2 
 PCOD9414675
Probable space group: P M N A
;
_chemical_formula_sum "Si O2"
_cell_formula_units_Z 56
_cell_length_a 9.030524
_cell_length_b 18.621543
_cell_length_c 20.050814
_cell_angle_alpha 90.000000
_cell_angle_beta 90.000000
_cell_angle_gamma 90.000000
_cell_volume 3371.790818
_symmetry_space_group_name_H-M "P M N A"
_symmetry_group_IT_number 53
_symmetry_cell_setting 'orthorhombic'
loop_
_space_group_symop_operation_xyz
x,y,z
1/2-x,-y,1/2+z
x,-y,-z
1/2-x,y,1/2-z
-x,-y,-z
1/2+x,y,1/2-z
-x,y,z
1/2+x,-y,1/2+z
loop_
_atom_site_type_symbol
_atom_site_label
_atom_site_fract_x
_atom_site_fract_y
_atom_site_fract_z
Si Si1 0.827650 0.164965 0.437377
Si Si2 0.173136 0.144535 0.598854
Si Si3 0.680648 0.989763 0.922954
Si Si4 0.323021 0.690036 0.542294
Si Si5 0.823353 0.709296 0.114593
Si Si6 0.823587 0.573619 0.319896
Si Si7 0.175514 0.469236 0.074802
O O1 0.820357 0.151952 0.517799
O O2 0.771618 0.090779 0.403947
O O3 0.743673 0.238827 0.424774
O O4 0.000000 0.173946 0.420537
O O5 0.268922 0.209589 0.627201
O O6 0.000000 0.152731 0.617225
O O7 0.224137 0.063011 0.614395
O O8 0.500000 0.989250 0.922798
O O9 0.727063 0.000000 0.000000
O O10 0.500000 0.693493 0.546284
O O11 0.286691 0.691744 0.463147
O O12 0.276655 0.613977 0.572872
O O13 0.739114 0.651460 0.158960
O O14 0.000000 0.702762 0.122944
O O15 0.750000 0.553365 0.250000
O O16 0.768811 0.517574 0.375438
O O17 0.000000 0.575295 0.315304
O O18 0.000000 0.473536 0.092028
O O19 0.189341 0.500000 0.000000
#
# Coordination Sequence:
#
# PCOD9414675 Si02
#       7
#     8   8   8   8   8   8   8
#     4   8  13  21  35  56  85 120 157 197 236 278
#     4   8  13  22  37  58  83 117 160 198 232 277
#     4   7  10  18  32  51  80 118 155 191 234 277
#     4   9  17  28  45  67  94 127 159 197 246 294
#     4  10  18  31  47  67  95 127 161 198 245 293
#     4  12  25  39  55  75  99 129 166 208 254 303
#     4  10  19  36  56  74 100 133 165 204 255 304
#
# _framework density 16.608384999999998
#
# number of rings (size 3 to 8) (size 9 to 14) (size 15 to 20)
#    0.000    2.857    1.429    3.429    0.000    1.429 
#    0.000    0.714    0.000    4.286    0.000    0.000 
#    0.000    1.143    0.000    6.000    0.000    6.857 
#
# Total GULP energy -311770.042893 kJ/mol
# GULP energy per Si atom -5567.322195 kJ/mol
# Density = 1.657058 g / cm^3
# Si number density = 16.608385 Si / 1000 Ang^3
#
#
#
# Elastic Constant Matrix: (Units=GPa)
#
#
# Indices 1 2 3 4 5 6 
#
# 1 54.1765 39.9716 26.8485 0.0000 0.0000 0.0000
# 2 39.9716 142.1219 22.0677 0.0000 0.0000 0.0000
# 3 26.8485 22.0677 31.1080 0.0000 0.0000 0.0000
# 4 0.0000 0.0000 0.0000 6.0757 0.0000 0.0000
# 5 0.0000 0.0000 0.0000 0.0000 8.6403 0.0000
# 6 0.0000 0.0000 0.0000 0.0000 0.0000 26.9812
#
#
#
# Elastic Compliance Matrix: (Units=1/GPa)
#
#
# Indices 1 2 3 4 5 6 
#
# 1 0.036308 -0.006008 -0.027075 0.000000 0.000000 0.000000
# 2 -0.006008 0.008901 -0.001129 0.000000 0.000000 0.000000
# 3 -0.027075 -0.001129 0.056315 0.000000 0.000000 0.000000
# 4 0.000000 0.000000 0.000000 0.164589 0.000000 0.000000
# 5 0.000000 0.000000 0.000000 0.000000 0.115737 0.000000
# 6 0.000000 0.000000 0.000000 0.000000 0.000000 0.037063
#
#
# Mechanical properties :
#
#
# Convention : Reuss Voigt Hill
#
# Bulk Modulus (GPa) = 30.21107 45.02021 37.61564
# Shear Modulus (GPa) = 10.03269 17.57403 13.80336
#
# Velocity S-wave (km/s) = 2.46046 3.25644 2.88602
# Velocity P-wave (km/s) = 5.12850 6.42689 5.81406
#
# Compressibility (1/GPa) = 0.03310045
#
# Stress axis : x y z
#
# Youngs Moduli (GPa) = 27.54197 112.34420 17.75730
#
# Poissons Ratio (x) = 0.67492 0.48078
# Poissons Ratio (y) = 0.16546 0.02006
# Poissons Ratio (z) = 0.74570 0.12688
#
# Static dielectric constant tensor:
#      x y z
#    x 1.551510 0.000000 0.000000 
#    y 0.000000 2.132740 0.000000 
#    z 0.000000 0.000000 1.539950 
# 
# From -- ./inp_files/30976.got.cif
#   From: 2010.05.17/outbox.cif.g08.bks.cpg/sg53_16_cif.got.tgz:30976.got - 2010.06.03 12:45:16.
