data_PCOD9414748
_publ_section_title
;
Structure prediction by ZEFSAII (Michael W. Deem and Ramdas Pophale) SiO2 
 PCOD9414748
Probable space group: P M N A
;
_chemical_formula_sum "Si O2"
_cell_formula_units_Z 24
_cell_length_a 26.884754
_cell_length_b 6.899412
_cell_length_c 5.136162
_cell_angle_alpha 90.000000
_cell_angle_beta 90.000000
_cell_angle_gamma 90.000000
_cell_volume 952.701524
_symmetry_space_group_name_H-M "P M N A"
_symmetry_group_IT_number 53
_symmetry_cell_setting 'orthorhombic'
loop_
_space_group_symop_operation_xyz
x,y,z
1/2-x,-y,1/2+z
x,-y,-z
1/2-x,y,1/2-z
-x,-y,-z
1/2+x,y,1/2-z
-x,y,z
1/2+x,-y,1/2+z
loop_
_atom_site_type_symbol
_atom_site_label
_atom_site_fract_x
_atom_site_fract_y
_atom_site_fract_z
Si Si1 0.945475 0.638368 0.251439
Si Si2 0.799645 0.228915 0.418932
Si Si3 0.844480 0.780974 0.075548
O O1 0.940009 0.500000 0.500000
O O2 0.898494 0.776541 0.206064
O O3 0.000000 0.735542 0.269498
O O4 0.945808 0.500000 0.000000
O O5 0.750000 0.258836 0.250000
O O6 0.807685 0.310371 0.709274
O O7 0.802226 0.000000 0.500000
O O8 0.842050 0.301295 0.216915
O O9 0.829617 0.000000 0.000000
#
# Coordination Sequence:
#
# PCOD9414748 Si02
#       3
#     8   8   8
#     4  10  21  38  58  78 106 147 186 223 280 346
#     4  10  18  31  52  80 112 143 178 221 272 330
#     4  10  20  33  55  84 109 139 183 232 273 317
#
# _framework density 25.191524000000001
#
# number of rings (size 3 to 8) (size 9 to 14) (size 15 to 20)
#    0.000    2.000    0.000    6.000    0.000    0.667 
#    0.000    0.000    0.000   32.000    0.000    0.000 
#    0.000    0.000    0.000    0.000    0.000    0.000 
#
# Total GULP energy -133874.303785 kJ/mol
# GULP energy per Si atom -5578.095991 kJ/mol
# Density = 2.513419 g / cm^3
# Si number density = 25.191524 Si / 1000 Ang^3
#
#
#
# Elastic Constant Matrix: (Units=GPa)
#
#
# Indices 1 2 3 4 5 6 
#
# 1 174.8845 -4.2868 75.6485 0.0000 0.0000 0.0000
# 2 -4.2868 53.7175 34.2093 0.0000 0.0000 0.0000
# 3 75.6485 34.2093 248.3399 0.0000 0.0000 0.0000
# 4 0.0000 0.0000 0.0000 11.5940 0.0000 0.0000
# 5 0.0000 0.0000 0.0000 0.0000 50.1159 0.0000
# 6 0.0000 0.0000 0.0000 0.0000 0.0000 27.3879
#
#
#
# Elastic Compliance Matrix: (Units=1/GPa)
#
#
# Indices 1 2 3 4 5 6 
#
# 1 0.006783 0.002036 -0.002347 0.000000 0.000000 0.000000
# 2 0.002036 0.021017 -0.003515 0.000000 0.000000 0.000000
# 3 -0.002347 -0.003515 0.005226 0.000000 0.000000 0.000000
# 4 0.000000 0.000000 0.000000 0.086252 0.000000 0.000000
# 5 0.000000 0.000000 0.000000 0.000000 0.019954 0.000000
# 6 0.000000 0.000000 0.000000 0.000000 0.000000 0.036513
#
#
# Mechanical properties :
#
#
# Convention : Reuss Voigt Hill
#
# Bulk Modulus (GPa) = 39.41116 76.45376 57.93246
# Shear Modulus (GPa) = 26.06148 42.57761 34.31955
#
# Velocity S-wave (km/s) = 3.21991 4.11561 3.69500
# Velocity P-wave (km/s) = 5.43160 7.28006 6.42268
#
# Compressibility (1/GPa) = 0.02537352
#
# Stress axis : x y z
#
# Youngs Moduli (GPa) = 147.42662 47.58049 191.35818
#
# Poissons Ratio (x) = -0.09686 0.44905
# Poissons Ratio (y) = -0.30012 0.67267
# Poissons Ratio (z) = 0.34596 0.16726
#
# Static dielectric constant tensor:
#      x y z
#    x 2.083630 0.000000 0.000000 
#    y 0.000000 2.128900 0.000000 
#    z 0.000000 0.000000 2.048810 
# 
# From -- ./inp_files/3247.got.cif
#   From: 2010.05.17/outbox.cif.g08.bks.cpg/sg53_2_cif.got.tgz:3247.got - 2010.06.03 12:45:16.
