data_PCOD9414580
_publ_section_title
;
Structure prediction by ZEFSAII (Michael W. Deem and Ramdas Pophale) SiO2 
 PCOD9414580
Probable space group: P M N A
;
_chemical_formula_sum "Si O2"
_cell_formula_units_Z 56
_cell_length_a 27.591429
_cell_length_b 13.707340
_cell_length_c 5.314954
_cell_angle_alpha 90.000000
_cell_angle_beta 90.000000
_cell_angle_gamma 90.000000
_cell_volume 2010.142701
_symmetry_space_group_name_H-M "P M N A"
_symmetry_group_IT_number 53
_symmetry_cell_setting 'orthorhombic'
loop_
_space_group_symop_operation_xyz
x,y,z
1/2-x,-y,1/2+z
x,-y,-z
1/2-x,y,1/2-z
-x,-y,-z
1/2+x,y,1/2-z
-x,y,z
1/2+x,-y,1/2+z
loop_
_atom_site_type_symbol
_atom_site_label
_atom_site_fract_x
_atom_site_fract_y
_atom_site_fract_z
Si Si1 0.154403 0.636487 0.642176
Si Si2 0.554519 0.810235 0.284914
Si Si3 0.838386 0.824135 0.155667
Si Si4 0.804892 0.143777 0.339938
Si Si5 0.301836 0.387097 0.645276
Si Si6 0.945756 0.071921 0.295576
Si Si7 0.946415 0.433784 0.249737
O O1 0.178975 0.742510 0.624378
O O2 0.160017 0.592151 0.366392
O O3 0.099048 0.637388 0.729873
O O4 0.184147 0.583413 0.864020
O O5 0.500000 0.768308 0.335624
O O6 0.609590 0.771476 0.302740
O O7 0.552534 0.837160 0.988699
O O8 0.561453 0.892250 0.508025
O O9 0.819098 0.890956 0.382704
O O10 0.801949 0.732617 0.121445
O O11 0.837683 0.884548 0.896844
O O12 0.750000 0.129697 0.250000
O O13 0.250000 0.415882 0.750000
O O14 0.000000 0.029246 0.276401
O O15 0.918882 0.000000 0.500000
O O16 0.944831 0.500000 0.500000
O O17 0.000000 0.388190 0.244198
O O18 0.941563 0.500000 0.000000
#
# Coordination Sequence:
#
# PCOD9414580 Si02
#       7
#     8   8   8   8   8   8   8
#     4  10  18  32  54  75  94 127 165 199 240 287
#     4  10  19  30  45  69 103 133 159 200 244 286
#     4  10  18  30  47  72 100 131 161 192 244 295
#     4  10  19  33  52  72  98 128 161 202 242 290
#     4  10  19  33  53  74 100 130 161 200 242 292
#     4   9  17  30  47  65  90 131 174 204 237 282
#     4  10  21  37  55  74  98 128 163 204 244 285
#
# _framework density 27.858718
#
# number of rings (size 3 to 8) (size 9 to 14) (size 15 to 20)
#    0.000    2.143    0.000    6.429    0.000    1.714 
#    0.000    5.714    0.000   14.571    0.000    0.000 
#    0.000   51.429    0.000    0.000    0.000    0.000 
#
# Total GULP energy -312430.599737 kJ/mol
# GULP energy per Si atom -5579.117852 kJ/mol
# Density = 2.779531 g / cm^3
# Si number density = 27.858718 Si / 1000 Ang^3
#
#
#
# Elastic Constant Matrix: (Units=GPa)
#
#
# Indices 1 2 3 4 5 6 
#
# 1 180.8751 -5.0632 -0.0416 0.0000 0.0000 0.0000
# 2 -5.0632 37.3862 22.0293 0.0000 0.0000 0.0000
# 3 -0.0416 22.0293 211.9193 0.0000 0.0000 0.0000
# 4 0.0000 0.0000 0.0000 34.4138 0.0000 0.0000
# 5 0.0000 0.0000 0.0000 0.0000 3.3903 0.0000
# 6 0.0000 0.0000 0.0000 0.0000 0.0000 25.9663
#
#
#
# Elastic Compliance Matrix: (Units=1/GPa)
#
#
# Indices 1 2 3 4 5 6 
#
# 1 0.005551 0.000800 -0.000082 0.000000 0.000000 0.000000
# 2 0.000800 0.028608 -0.002974 0.000000 0.000000 0.000000
# 3 -0.000082 -0.002974 0.005028 0.000000 0.000000 0.000000
# 4 0.000000 0.000000 0.000000 0.029058 0.000000 0.000000
# 5 0.000000 0.000000 0.000000 0.000000 0.294958 0.000000
# 6 0.000000 0.000000 0.000000 0.000000 0.000000 0.038512
#
#
# Mechanical properties :
#
#
# Convention : Reuss Voigt Hill
#
# Bulk Modulus (GPa) = 28.83838 51.55885 40.19862
# Shear Modulus (GPa) = 11.96787 40.30448 26.13618
#
# Velocity S-wave (km/s) = 2.07491 3.80774 3.06628
# Velocity P-wave (km/s) = 4.01428 6.15461 5.19585
#
# Compressibility (1/GPa) = 0.03467601
#
# Stress axis : x y z
#
# Youngs Moduli (GPa) = 180.14593 34.95476 198.89081
#
# Poissons Ratio (x) = -0.02797 0.01633
# Poissons Ratio (y) = -0.14414 0.59145
# Poissons Ratio (z) = 0.01479 0.10395
#
# Static dielectric constant tensor:
#      x y z
#    x 2.138190 0.000000 0.000000 
#    y 0.000000 2.604340 0.000000 
#    z 0.000000 0.000000 2.179660 
# 
# From -- ./inp_files/3810.got.cif
#   From: 2010.05.17/outbox.cif.g08.bks.cpg/sg53_2_cif.got.tgz:3810.got - 2010.06.03 12:45:16.
