data_PCOD9414137
_publ_section_title
;
Structure prediction by ZEFSAII (Michael W. Deem and Ramdas Pophale) SiO2 
 PCOD9414137
Probable space group: P M N A
;
_chemical_formula_sum "Si O2"
_cell_formula_units_Z 48
_cell_length_a 8.834589
_cell_length_b 7.375236
_cell_length_c 33.715703
_cell_angle_alpha 90.000000
_cell_angle_beta 90.000000
_cell_angle_gamma 90.000000
_cell_volume 2196.820090
_symmetry_space_group_name_H-M "P M N A"
_symmetry_group_IT_number 53
_symmetry_cell_setting 'orthorhombic'
loop_
_space_group_symop_operation_xyz
x,y,z
1/2-x,-y,1/2+z
x,-y,-z
1/2-x,y,1/2-z
-x,-y,-z
1/2+x,y,1/2-z
-x,y,z
1/2+x,-y,1/2+z
loop_
_atom_site_type_symbol
_atom_site_label
_atom_site_fract_x
_atom_site_fract_y
_atom_site_fract_z
Si Si1 0.827284 0.531326 0.957867
Si Si2 0.326770 0.034631 0.455910
Si Si3 0.674573 0.474227 0.290066
Si Si4 0.823761 0.031319 0.208468
Si Si5 0.319815 0.960771 0.874118
Si Si6 0.186403 0.553839 0.874407
O O1 0.834431 0.747632 0.953231
O O2 0.766701 0.462752 0.915803
O O3 0.000000 0.460184 0.961134
O O4 0.748986 0.500000 0.000000
O O5 0.500000 0.965559 0.455601
O O6 0.243351 0.967269 0.416330
O O7 0.261552 0.000000 0.500000
O O8 0.750000 0.538698 0.250000
O O9 0.500000 0.522383 0.287780
O O10 0.685480 0.253224 0.291018
O O11 0.732263 0.536588 0.333017
O O12 0.750000 0.971595 0.250000
O O13 0.746427 0.967253 0.167620
O O14 0.000000 0.983488 0.207482
O O15 0.500000 0.969884 0.873636
O O16 0.262407 0.751489 0.873959
O O17 0.000000 0.572542 0.874561
#
# Coordination Sequence:
#
# PCOD9414137 Si02
#       6
#     8   8   8   8   8   8
#     4   8  13  23  41  61  77  97 129 166 200 238
#     4   9  17  29  43  58  79 107 135 166 207 249
#     4   8  13  19  28  43  65  93 122 150 180 219
#     4   9  15  23  34  50  74 103 134 165 199 241
#     4  10  17  24  36  54  76 103 134 166 201 241
#     4   8  14  24  35  49  72 100 127 157 196 237
#
# _framework density 21.849761999999998
#
# number of rings (size 3 to 8) (size 9 to 14) (size 15 to 20)
#    0.000    3.333    0.000    4.000    0.000    4.333 
#    0.000    0.000    0.000    8.000    0.000    0.000 
#    0.000    1.333    0.000    5.333    0.000    3.833 
#
# Total GULP energy -267303.762374 kJ/mol
# GULP energy per Si atom -5568.828383 kJ/mol
# Density = 2.180003 g / cm^3
# Si number density = 21.849762 Si / 1000 Ang^3
#
#
#
# Elastic Constant Matrix: (Units=GPa)
#
#
# Indices 1 2 3 4 5 6 
#
# 1 71.9949 6.9141 83.8872 0.0000 0.0000 0.0000
# 2 6.9141 72.4240 11.1318 0.0000 0.0000 0.0000
# 3 83.8872 11.1318 325.7361 0.0000 0.0000 0.0000
# 4 0.0000 0.0000 0.0000 6.3373 0.0000 0.0000
# 5 0.0000 0.0000 0.0000 0.0000 34.9098 0.0000
# 6 0.0000 0.0000 0.0000 0.0000 0.0000 -11.8317
#
#
#
# Elastic Compliance Matrix: (Units=1/GPa)
#
#
# Indices 1 2 3 4 5 6 
#
# 1 0.019935 -0.001120 -0.005096 0.000000 0.000000 0.000000
# 2 -0.001120 0.013943 -0.000188 0.000000 0.000000 0.000000
# 3 -0.005096 -0.000188 0.004389 0.000000 0.000000 0.000000
# 4 0.000000 0.000000 0.000000 0.157796 0.000000 0.000000
# 5 0.000000 0.000000 0.000000 0.000000 0.028645 0.000000
# 6 0.000000 0.000000 0.000000 0.000000 0.000000 -0.084519
#
#
# Mechanical properties :
#
#
# Convention : Reuss Voigt Hill
#
# Bulk Modulus (GPa) = 39.27782 74.89125 57.08453
# Shear Modulus (GPa) = 30.96305 30.43120 30.69713
#
# Velocity S-wave (km/s) = 3.76851 3.73600 3.75229
# Velocity P-wave (km/s) = 6.07872 7.27738 6.70489
#
# Compressibility (1/GPa) = 0.02545966
#
# Stress axis : x y z
#
# Youngs Moduli (GPa) = 50.16396 71.71856 227.86027
#
# Poissons Ratio (x) = 0.08032 1.16107
# Poissons Ratio (y) = 0.05618 0.04286
# Poissons Ratio (z) = 0.25561 0.01349
#
# Static dielectric constant tensor:
#      x y z
#    x 1.741250 0.000000 0.000000 
#    y 0.000000 1.950990 0.000000 
#    z 0.000000 0.000000 1.903550 
# 
# From -- ./inp_files/37911.got.cif
#   From: 2010.05.17/outbox.cif.g08.bks.cpg/sg53_19_cif.got.tgz:37911.got - 2010.06.03 12:45:16.
