data_PCOD9414669
_publ_section_title
;
Structure prediction by ZEFSAII (Michael W. Deem and Ramdas Pophale) SiO2 
 PCOD9414669
Probable space group: P M N A
;
_chemical_formula_sum "Si O2"
_cell_formula_units_Z 48
_cell_length_a 16.351458
_cell_length_b 9.212703
_cell_length_c 16.452147
_cell_angle_alpha 90.000000
_cell_angle_beta 90.000000
_cell_angle_gamma 90.000000
_cell_volume 2478.369952
_symmetry_space_group_name_H-M "P M N A"
_symmetry_group_IT_number 53
_symmetry_cell_setting 'orthorhombic'
loop_
_space_group_symop_operation_xyz
x,y,z
1/2-x,-y,1/2+z
x,-y,-z
1/2-x,y,1/2-z
-x,-y,-z
1/2+x,y,1/2-z
-x,y,z
1/2+x,-y,1/2+z
loop_
_atom_site_type_symbol
_atom_site_label
_atom_site_fract_x
_atom_site_fract_y
_atom_site_fract_z
Si Si1 0.811601 0.430654 0.417902
Si Si2 0.666512 0.637053 0.400841
Si Si3 0.094624 0.402685 0.720470
Si Si4 0.800465 0.840042 0.332052
Si Si5 0.409964 0.836467 0.537018
Si Si6 0.232812 0.107625 0.422219
O O1 0.848999 0.500000 0.500000
O O2 0.717640 0.490045 0.416214
O O3 0.852887 0.486136 0.334662
O O4 0.812920 0.259049 0.427856
O O5 0.622101 0.612283 0.314562
O O6 0.740803 0.753926 0.393642
O O7 0.609024 0.713247 0.468234
O O8 0.116421 0.247425 0.679365
O O9 0.000000 0.437753 0.716101
O O10 0.750000 0.822790 0.250000
O O11 0.804728 0.007119 0.352867
O O12 0.500000 0.805681 0.573153
O O13 0.328440 0.851222 0.591267
O O14 0.414862 0.000000 0.500000
O O15 0.227636 0.000000 0.500000
#
# Coordination Sequence:
#
# PCOD9414669 Si02
#       6
#     8   8   8   8   8   8
#     4  11  21  36  62  86 114 156 207 250 298 367
#     4  10  18  37  58  89 117 157 200 238 303 372
#     4  10  22  39  60  86 121 160 203 258 311 358
#     4   9  18  33  56  80 111 153 201 237 287 362
#     4  10  18  30  56  91 125 154 189 242 300 355
#     4  11  19  36  57  84 117 155 200 242 291 365
#
# _framework density 19.367570000000001
#
# number of rings (size 3 to 8) (size 9 to 14) (size 15 to 20)
#    0.000    1.833    5.000    3.000    0.000    1.667 
#    0.000    3.333    0.000    2.000    0.000    0.000 
#    0.000    0.000    0.000    0.000    0.000    0.000 
#
# Total GULP energy -267210.406045 kJ/mol
# GULP energy per Si atom -5566.883459 kJ/mol
# Density = 1.932349 g / cm^3
# Si number density = 19.367570 Si / 1000 Ang^3
#
#
#
# Elastic Constant Matrix: (Units=GPa)
#
#
# Indices 1 2 3 4 5 6 
#
# 1 67.3339 21.2652 23.8940 0.0000 0.0000 0.0000
# 2 21.2652 128.3801 16.9300 0.0000 0.0000 0.0000
# 3 23.8940 16.9300 34.6690 0.0000 0.0000 0.0000
# 4 0.0000 0.0000 0.0000 25.5380 0.0000 0.0000
# 5 0.0000 0.0000 0.0000 0.0000 19.2004 0.0000
# 6 0.0000 0.0000 0.0000 0.0000 0.0000 8.6211
#
#
#
# Elastic Compliance Matrix: (Units=1/GPa)
#
#
# Indices 1 2 3 4 5 6 
#
# 1 0.019960 -0.001595 -0.012978 0.000000 0.000000 0.000000
# 2 -0.001595 0.008453 -0.003029 0.000000 0.000000 0.000000
# 3 -0.012978 -0.003029 0.039268 0.000000 0.000000 0.000000
# 4 0.000000 0.000000 0.000000 0.039157 0.000000 0.000000
# 5 0.000000 0.000000 0.000000 0.000000 0.052082 0.000000
# 6 0.000000 0.000000 0.000000 0.000000 0.000000 0.115994
#
#
# Mechanical properties :
#
#
# Convention : Reuss Voigt Hill
#
# Bulk Modulus (GPa) = 30.79005 39.39573 35.09289
# Shear Modulus (GPa) = 15.57906 21.89149 18.73528
#
# Velocity S-wave (km/s) = 2.83925 3.36567 3.11360
# Velocity P-wave (km/s) = 5.16534 5.95725 5.57537
#
# Compressibility (1/GPa) = 0.03247802
#
# Stress axis : x y z
#
# Youngs Moduli (GPa) = 50.09928 118.30200 25.46628
#
# Poissons Ratio (x) = 0.18867 0.33050
# Poissons Ratio (y) = 0.07990 0.07713
# Poissons Ratio (z) = 0.65019 0.35830
#
# Static dielectric constant tensor:
#      x y z
#    x 1.660720 0.000000 0.000000 
#    y 0.000000 1.711160 0.000000 
#    z 0.000000 0.000000 1.776200 
# 
# From -- ./inp_files/28296.got.cif
#   From: 2010.05.17/outbox.cif.g08.bks.cpg/sg53_15_cif.got.tgz:28296.got - 2010.06.03 12:45:16.
