data_PCOD9414936
_publ_section_title
;
Structure prediction by ZEFSAII (Michael W. Deem and Ramdas Pophale) SiO2 
 PCOD9414936
Probable space group: P M N A
;
_chemical_formula_sum "Si O2"
_cell_formula_units_Z 52
_cell_length_a 20.659314
_cell_length_b 8.466515
_cell_length_c 11.885599
_cell_angle_alpha 90.000000
_cell_angle_beta 90.000000
_cell_angle_gamma 90.000000
_cell_volume 2078.938550
_symmetry_space_group_name_H-M "P M N A"
_symmetry_group_IT_number 53
_symmetry_cell_setting 'orthorhombic'
loop_
_space_group_symop_operation_xyz
x,y,z
1/2-x,-y,1/2+z
x,-y,-z
1/2-x,y,1/2-z
-x,-y,-z
1/2+x,y,1/2-z
-x,y,z
1/2+x,-y,1/2+z
loop_
_atom_site_type_symbol
_atom_site_label
_atom_site_fract_x
_atom_site_fract_y
_atom_site_fract_z
Si Si1 0.288894 0.500000 0.500000
Si Si2 0.568015 0.717489 0.180443
Si Si3 0.817456 0.074485 0.711728
Si Si4 0.430323 0.650214 0.849320
Si Si5 0.787172 0.249009 0.369043
Si Si6 0.424735 0.875176 0.641626
Si Si7 0.407334 0.652304 0.434871
O O1 0.250780 0.647463 0.543869
O O2 0.336865 0.578212 0.408986
O O3 0.500000 0.794105 0.145191
O O4 0.570135 0.537647 0.140855
O O5 0.566262 0.701483 0.315888
O O6 0.632227 0.811422 0.151828
O O7 0.750000 0.154753 0.750000
O O8 0.788462 0.938742 0.632444
O O9 0.866525 0.982713 0.803198
O O10 0.500000 0.705812 0.896058
O O11 0.361682 0.708069 0.889775
O O12 0.428628 0.720882 0.722566
O O13 0.750000 0.287561 0.250000
O O14 0.500000 0.938342 0.639988
O O15 0.407793 0.801326 0.519754
O O16 0.436161 0.500000 0.500000
#
# Coordination Sequence:
#
# PCOD9414936 Si02
#       7
#     4   8   8   8   8   8   8
#     4  10  20  34  60  92 114 156 200 246 304 358
#     4  11  21  33  52  83 114 153 197 238 298 367
#     4  10  22  36  51  72 111 157 197 239 286 347
#     4   9  18  32  54  79 106 143 196 250 301 351
#     4  10  19  37  60  84 114 151 199 255 305 363
#     4  10  18  33  55  81 113 154 190 235 299 362
#     4  10  19  31  52  87 120 148 183 241 294 363
#
# _framework density 25.012765000000002
#
# number of rings (size 3 to 8) (size 9 to 14) (size 15 to 20)
#    0.462    1.538    1.538    4.615    0.000    3.692 
#    0.000    1.923    0.000    4.615    0.000    2.154 
#    0.000    0.000    0.000    0.000    0.000    0.000 
#
# Total GULP energy -289969.488125 kJ/mol
# GULP energy per Si atom -5576.336310 kJ/mol
# Density = 2.495583 g / cm^3
# Si number density = 25.012765 Si / 1000 Ang^3
#
#
#
# Elastic Constant Matrix: (Units=GPa)
#
#
# Indices 1 2 3 4 5 6 
#
# 1 204.7363 33.1551 15.4502 0.0000 0.0000 0.0000
# 2 33.1551 48.4678 16.1955 0.0000 0.0000 0.0000
# 3 15.4502 16.1955 79.3469 0.0000 0.0000 0.0000
# 4 0.0000 0.0000 0.0000 25.1746 0.0000 0.0000
# 5 0.0000 0.0000 0.0000 0.0000 11.7965 0.0000
# 6 0.0000 0.0000 0.0000 0.0000 0.0000 181.6226
#
#
#
# Elastic Compliance Matrix: (Units=1/GPa)
#
#
# Indices 1 2 3 4 5 6 
#
# 1 0.005501 -0.003654 -0.000325 0.000000 0.000000 0.000000
# 2 -0.003654 0.024570 -0.004303 0.000000 0.000000 0.000000
# 3 -0.000325 -0.004303 0.013545 0.000000 0.000000 0.000000
# 4 0.000000 0.000000 0.000000 0.039723 0.000000 0.000000
# 5 0.000000 0.000000 0.000000 0.000000 0.084771 0.000000
# 6 0.000000 0.000000 0.000000 0.000000 0.000000 0.005506
#
#
# Mechanical properties :
#
#
# Convention : Reuss Voigt Hill
#
# Bulk Modulus (GPa) = 36.96919 51.35029 44.15974
# Shear Modulus (GPa) = 25.10088 61.56875 43.33481
#
# Velocity S-wave (km/s) = 3.17128 4.96673 4.16686
# Velocity P-wave (km/s) = 5.31240 7.31200 6.39089
#
# Compressibility (1/GPa) = 0.02704955
#
# Stress axis : x y z
#
# Youngs Moduli (GPa) = 181.79753 40.70024 73.83023
#
# Poissons Ratio (x) = 0.14872 0.02401
# Poissons Ratio (y) = 0.66431 0.31772
# Poissons Ratio (z) = 0.05913 0.17515
#
# Static dielectric constant tensor:
#      x y z
#    x 2.052000 0.000000 0.000000 
#    y 0.000000 1.983360 0.000000 
#    z 0.000000 0.000000 2.116770 
# 
# From -- ./inp_files/28962.got.cif
#   From: 2010.05.17/outbox.cif.g08.bks.cpg/sg53_15_cif.got.tgz:28962.got - 2010.06.03 12:45:16.
