data_PCOD9414308
_publ_section_title
;
Structure prediction by ZEFSAII (Michael W. Deem and Ramdas Pophale) SiO2 
 PCOD9414308
Probable space group: P M N A
;
_chemical_formula_sum "Si O2"
_cell_formula_units_Z 36
_cell_length_a 25.571627
_cell_length_b 13.739147
_cell_length_c 4.941797
_cell_angle_alpha 90.000000
_cell_angle_beta 90.000000
_cell_angle_gamma 90.000000
_cell_volume 1736.213116
_symmetry_space_group_name_H-M "P M N A"
_symmetry_group_IT_number 53
_symmetry_cell_setting 'orthorhombic'
loop_
_space_group_symop_operation_xyz
x,y,z
1/2-x,-y,1/2+z
x,-y,-z
1/2-x,y,1/2-z
-x,-y,-z
1/2+x,y,1/2-z
-x,y,z
1/2+x,-y,1/2+z
loop_
_atom_site_type_symbol
_atom_site_label
_atom_site_fract_x
_atom_site_fract_y
_atom_site_fract_z
Si Si1 0.192007 0.207996 0.713201
Si Si2 0.942298 0.133436 0.143435
Si Si3 0.669836 0.917606 0.706175
Si Si4 0.500000 0.571686 0.249924
Si Si5 0.919748 0.737332 0.366406
O O1 0.250000 0.248431 0.750000
O O2 0.192107 0.115676 0.497967
O O3 0.142998 0.271981 0.619964
O O4 0.177061 0.175224 0.014728
O O5 0.892753 0.068255 0.231765
O O6 0.939103 0.226392 0.342587
O O7 0.000000 0.090034 0.171238
O O8 0.933376 0.174762 0.842027
O O9 0.691210 0.000000 0.500000
O O10 0.500000 0.500000 0.500000
O O11 0.549774 0.643280 0.233075
O O12 0.500000 0.500000 0.000000
#
# Coordination Sequence:
#
# PCOD9414308 Si02
#       5
#     8   8   8   4   8
#     4  10  21  37  57  75 102 151 192 224 271 320
#     4  10  17  32  54  73 107 151 180 215 270 325
#     4  10  21  33  50  80 110 139 186 239 277 313
#     4  12  22  34  58  88 115 136 165 220 290 330
#     4  10  20  35  54  80 110 139 182 221 261 338
#
# _framework density 20.734783
#
# number of rings (size 3 to 8) (size 9 to 14) (size 15 to 20)
#    0.000    1.778    2.222    2.667    0.000    2.222 
#    0.000    0.000    0.000    9.333    0.000    0.000 
#    0.000    0.000    0.000    0.000    0.000    0.000 
#
# Total GULP energy -200752.936936 kJ/mol
# GULP energy per Si atom -5576.470470 kJ/mol
# Density = 2.068759 g / cm^3
# Si number density = 20.734783 Si / 1000 Ang^3
#
#
#
# Elastic Constant Matrix: (Units=GPa)
#
#
# Indices 1 2 3 4 5 6 
#
# 1 182.1726 28.5207 9.4956 0.0000 0.0000 0.0000
# 2 28.5207 66.1540 20.1890 0.0000 0.0000 0.0000
# 3 9.4956 20.1890 126.9764 0.0000 0.0000 0.0000
# 4 0.0000 0.0000 0.0000 34.4269 0.0000 0.0000
# 5 0.0000 0.0000 0.0000 0.0000 17.9237 0.0000
# 6 0.0000 0.0000 0.0000 0.0000 0.0000 102.1360
#
#
#
# Elastic Compliance Matrix: (Units=1/GPa)
#
#
# Indices 1 2 3 4 5 6 
#
# 1 0.005887 -0.002526 -0.000039 0.000000 0.000000 0.000000
# 2 -0.002526 0.016971 -0.002509 0.000000 0.000000 0.000000
# 3 -0.000039 -0.002509 0.008277 0.000000 0.000000 0.000000
# 4 0.000000 0.000000 0.000000 0.029047 0.000000 0.000000
# 5 0.000000 0.000000 0.000000 0.000000 0.055792 0.000000
# 6 0.000000 0.000000 0.000000 0.000000 0.000000 0.009791
#
#
# Mechanical properties :
#
#
# Convention : Reuss Voigt Hill
#
# Bulk Modulus (GPa) = 47.64873 54.63484 51.14178
# Shear Modulus (GPa) = 34.98720 52.03716 43.51218
#
# Velocity S-wave (km/s) = 4.11221 5.01508 4.58592
# Velocity P-wave (km/s) = 6.75108 7.74218 7.26355
#
# Compressibility (1/GPa) = 0.02098692
#
# Stress axis : x y z
#
# Youngs Moduli (GPa) = 169.87146 58.92336 120.81144
#
# Poissons Ratio (x) = 0.14885 0.00466
# Poissons Ratio (y) = 0.42913 0.30317
# Poissons Ratio (z) = 0.00655 0.14787
#
# Static dielectric constant tensor:
#      x y z
#    x 1.846200 0.000000 0.000000 
#    y 0.000000 1.736920 0.000000 
#    z 0.000000 0.000000 1.734150 
# 
# From -- ./inp_files/4366.got.cif
#   From: 2010.05.17/outbox.cif.g08.bks.cpg/sg53_3_cif.got.tgz:4366.got - 2010.06.03 12:45:16.
