data_PCOD9414298
_publ_section_title
;
Structure prediction by ZEFSAII (Michael W. Deem and Ramdas Pophale) SiO2 
 PCOD9414298
Probable space group: P M N A
;
_chemical_formula_sum "Si O2"
_cell_formula_units_Z 40
_cell_length_a 17.136834
_cell_length_b 10.388849
_cell_length_c 15.388721
_cell_angle_alpha 90.000000
_cell_angle_beta 90.000000
_cell_angle_gamma 90.000000
_cell_volume 2739.684481
_symmetry_space_group_name_H-M "P M N A"
_symmetry_group_IT_number 53
_symmetry_cell_setting 'orthorhombic'
loop_
_space_group_symop_operation_xyz
x,y,z
1/2-x,-y,1/2+z
x,-y,-z
1/2-x,y,1/2-z
-x,-y,-z
1/2+x,y,1/2-z
-x,y,z
1/2+x,-y,1/2+z
loop_
_atom_site_type_symbol
_atom_site_label
_atom_site_fract_x
_atom_site_fract_y
_atom_site_fract_z
Si Si1 0.206153 0.006653 0.596350
Si Si2 0.128452 0.887611 0.072081
Si Si3 0.911137 0.641729 0.961079
Si Si4 0.696154 0.768604 0.674269
Si Si5 0.088926 0.011890 0.250367
O O1 0.249883 0.872498 0.622489
O O2 0.144777 0.035898 0.671920
O O3 0.170629 0.000000 0.500000
O O4 0.278340 0.105572 0.588505
O O5 0.091717 0.923028 0.164561
O O6 0.101068 0.753594 0.032631
O O7 0.111437 0.000000 0.000000
O O8 0.846239 0.670537 0.888840
O O9 0.000000 0.654968 0.927103
O O10 0.902834 0.500000 0.000000
O O11 0.750000 0.711894 0.750000
O O12 0.628547 0.855610 0.717868
O O13 0.000000 0.028277 0.278560
#
# Coordination Sequence:
#
# PCOD9414298 Si02
#       5
#     8   8   8   8   8
#     4   9  16  30  48  68  92 127 161 199 226 279
#     4  10  17  31  50  67  94 128 152 188 239 297
#     4  11  21  31  48  75 102 120 151 204 247 275
#     4   9  17  31  48  66  95 130 161 186 230 291
#     4  10  18  26  46  75  98 121 159 198 239 282
#
# _framework density 14.600222
#
# number of rings (size 3 to 8) (size 9 to 14) (size 15 to 20)
#    0.000    2.200    6.000    3.000    0.000    1.200 
#    0.000    2.000    0.000    0.000    0.000    0.000 
#    0.000    5.600    0.000    0.000    0.000    0.000 
#
# Total GULP energy -222719.167326 kJ/mol
# GULP energy per Si atom -5567.979183 kJ/mol
# Density = 1.456699 g / cm^3
# Si number density = 14.600222 Si / 1000 Ang^3
#
#
#
# Elastic Constant Matrix: (Units=GPa)
#
#
# Indices 1 2 3 4 5 6 
#
# 1 87.2144 34.3641 59.8441 0.0000 0.0000 0.0000
# 2 34.3641 66.5764 27.1548 0.0000 0.0000 0.0000
# 3 59.8441 27.1548 91.4736 0.0000 0.0000 0.0000
# 4 0.0000 0.0000 0.0000 12.8485 0.0000 0.0000
# 5 0.0000 0.0000 0.0000 0.0000 14.9624 0.0000
# 6 0.0000 0.0000 0.0000 0.0000 0.0000 11.6420
#
#
#
# Elastic Compliance Matrix: (Units=1/GPa)
#
#
# Indices 1 2 3 4 5 6 
#
# 1 0.023066 -0.006543 -0.013148 0.000000 0.000000 0.000000
# 2 -0.006543 0.018946 -0.001344 0.000000 0.000000 0.000000
# 3 -0.013148 -0.001344 0.019933 0.000000 0.000000 0.000000
# 4 0.000000 0.000000 0.000000 0.077830 0.000000 0.000000
# 5 0.000000 0.000000 0.000000 0.000000 0.066834 0.000000
# 6 0.000000 0.000000 0.000000 0.000000 0.000000 0.085896
#
#
# Mechanical properties :
#
#
# Convention : Reuss Voigt Hill
#
# Bulk Modulus (GPa) = 50.31412 54.22116 52.26764
# Shear Modulus (GPa) = 14.65428 16.15068 15.40248
#
# Velocity S-wave (km/s) = 3.17156 3.32956 3.25152
# Velocity P-wave (km/s) = 6.92443 7.21104 7.06919
#
# Compressibility (1/GPa) = 0.01987514
#
# Stress axis : x y z
#
# Youngs Moduli (GPa) = 43.35457 52.78273 50.16924
#
# Poissons Ratio (x) = 0.34535 0.65961
# Poissons Ratio (y) = 0.28367 0.06741
# Poissons Ratio (z) = 0.57001 0.07092
#
# Static dielectric constant tensor:
#      x y z
#    x 1.493900 0.000000 0.000000 
#    y 0.000000 1.457630 0.000000 
#    z 0.000000 0.000000 1.507470 
# 
# From -- ./inp_files/23439.got.cif
#   From: 2010.05.17/outbox.cif.g08.bks.cpg/sg53_12_cif.got.tgz:23439.got - 2010.06.03 12:45:16.
