data_PCOD9414458
_publ_section_title
;
Structure prediction by ZEFSAII (Michael W. Deem and Ramdas Pophale) SiO2 
 PCOD9414458
Probable space group: P M N A
;
_chemical_formula_sum "Si O2"
_cell_formula_units_Z 52
_cell_length_a 14.650368
_cell_length_b 12.178164
_cell_length_c 13.862958
_cell_angle_alpha 90.000000
_cell_angle_beta 90.000000
_cell_angle_gamma 90.000000
_cell_volume 2473.353887
_symmetry_space_group_name_H-M "P M N A"
_symmetry_group_IT_number 53
_symmetry_cell_setting 'orthorhombic'
loop_
_space_group_symop_operation_xyz
x,y,z
1/2-x,-y,1/2+z
x,-y,-z
1/2-x,y,1/2-z
-x,-y,-z
1/2+x,y,1/2-z
-x,y,z
1/2+x,-y,1/2+z
loop_
_atom_site_type_symbol
_atom_site_label
_atom_site_fract_x
_atom_site_fract_y
_atom_site_fract_z
Si Si1 0.667289 0.268217 0.829903
Si Si2 0.250000 0.875171 0.750000
Si Si3 0.609271 0.697865 0.669377
Si Si4 0.311174 0.680999 0.458802
Si Si5 0.104776 0.083692 0.922933
Si Si6 0.896265 0.538607 0.202413
Si Si7 0.898105 0.972966 0.300581
O O1 0.750000 0.253902 0.750000
O O2 0.705194 0.300019 0.935238
O O3 0.613841 0.371360 0.785889
O O4 0.616688 0.152235 0.833750
O O5 0.172669 0.797183 0.796174
O O6 0.189974 0.951850 0.677802
O O7 0.500000 0.723271 0.668418
O O8 0.646421 0.667179 0.563299
O O9 0.625468 0.586335 0.730511
O O10 0.352338 0.796912 0.422803
O O11 0.338212 0.583496 0.386919
O O12 0.104807 0.034468 0.816277
O O13 0.000000 0.101424 0.953081
O O14 0.146625 0.000000 0.000000
O O15 0.000000 0.537307 0.167677
O O16 0.000000 0.011681 0.328957
#
# Coordination Sequence:
#
# PCOD9414458 Si02
#       7
#     8   4   8   8   8   8   8
#     4  10  19  33  59  90 123 160 203 253 304 362
#     4  12  24  40  58  86 126 170 204 256 304 388
#     4  11  25  41  62  90 124 166 203 250 316 374
#     4  11  20  34  58  91 126 153 201 254 305 360
#     4  10  18  28  50  84 121 155 192 243 300 357
#     4  10  20  37  60  88 121 156 203 249 300 367
#     4  11  20  36  59  85 121 168 211 255 310 372
#
# _framework density 21.024084999999999
#
# number of rings (size 3 to 8) (size 9 to 14) (size 15 to 20)
#    0.000    1.385    3.846    3.692    3.231    2.462 
#    0.000    0.000    0.000    4.615    0.000    2.154 
#    0.000    0.000    0.000    0.000    0.000    0.000 
#
# Total GULP energy -290011.445747 kJ/mol
# GULP energy per Si atom -5577.143187 kJ/mol
# Density = 2.097623 g / cm^3
# Si number density = 21.024085 Si / 1000 Ang^3
#
#
#
# Elastic Constant Matrix: (Units=GPa)
#
#
# Indices 1 2 3 4 5 6 
#
# 1 105.2341 54.1496 17.2473 0.0000 0.0000 0.0000
# 2 54.1496 137.7802 16.0338 0.0000 0.0000 0.0000
# 3 17.2473 16.0338 22.0537 0.0000 0.0000 0.0000
# 4 0.0000 0.0000 0.0000 14.5006 0.0000 0.0000
# 5 0.0000 0.0000 0.0000 0.0000 28.3011 0.0000
# 6 0.0000 0.0000 0.0000 0.0000 0.0000 34.2553
#
#
#
# Elastic Compliance Matrix: (Units=1/GPa)
#
#
# Indices 1 2 3 4 5 6 
#
# 1 0.012818 -0.004229 -0.006950 0.000000 0.000000 0.000000
# 2 -0.004229 0.009324 -0.003472 0.000000 0.000000 0.000000
# 3 -0.006950 -0.003472 0.053303 0.000000 0.000000 0.000000
# 4 0.000000 0.000000 0.000000 0.068963 0.000000 0.000000
# 5 0.000000 0.000000 0.000000 0.000000 0.035334 0.000000
# 6 0.000000 0.000000 0.000000 0.000000 0.000000 0.029193
#
#
# Mechanical properties :
#
#
# Convention : Reuss Voigt Hill
#
# Bulk Modulus (GPa) = 21.67120 48.88106 35.27613
# Shear Modulus (GPa) = 19.71489 27.25388 23.48439
#
# Velocity S-wave (km/s) = 3.06556 3.60435 3.34582
# Velocity P-wave (km/s) = 4.78125 6.37356 5.63394
#
# Compressibility (1/GPa) = 0.04614419
#
# Stress axis : x y z
#
# Youngs Moduli (GPa) = 78.01782 107.25120 18.76073
#
# Poissons Ratio (x) = 0.45354 0.13038
# Poissons Ratio (y) = 0.32992 0.06513
# Poissons Ratio (z) = 0.54220 0.37234
#
# Static dielectric constant tensor:
#      x y z
#    x 1.828890 0.000000 0.000000 
#    y 0.000000 1.825110 0.000000 
#    z 0.000000 0.000000 1.796370 
# 
# From -- ./inp_files/28415.got.cif
#   From: 2010.05.17/outbox.cif.g08.bks.cpg/sg53_15_cif.got.tgz:28415.got - 2010.06.03 12:45:16.
