data_PCOD9414009
_publ_section_title
;
Structure prediction by ZEFSAII (Michael W. Deem and Ramdas Pophale) SiO2 
 PCOD9414009
Probable space group: P N N A
;
_chemical_formula_sum "Si O2"
_cell_formula_units_Z 44
_cell_length_a 15.000000
_cell_length_b 18.000000
_cell_length_c 9.000000
_cell_angle_alpha 90.000000
_cell_angle_beta 90.000000
_cell_angle_gamma 90.000000
_cell_volume 2430.000000
_symmetry_space_group_name_H-M "P N N A"
_symmetry_group_IT_number 52
_symmetry_cell_setting 'orthorhombic'
loop_
_space_group_symop_operation_xyz
x,y,z
1/2-x,-y,z
x,1/2-y,1/2-z
1/2-x,1/2+y,1/2-z
-x,-y,-z
1/2+x,y,-z
-x,1/2+y,1/2+z
1/2+x,1/2-y,1/2+z
loop_
_atom_site_type_symbol
_atom_site_label
_atom_site_fract_x
_atom_site_fract_y
_atom_site_fract_z
Si Si1 0.750000 0.000000 0.371866
Si Si2 0.978130 0.178356 0.349364
Si Si3 0.597402 0.972911 0.814566
Si Si4 0.592506 0.954256 0.158354
Si Si5 0.644522 0.678901 0.854764
Si Si6 0.168096 0.107408 0.383714
O O1 0.827189 0.027046 0.265345
O O2 0.705631 0.061419 0.477145
O O3 0.997355 0.250000 0.250000
O O4 0.941100 0.123257 0.223105
O O5 0.906971 0.186891 0.485745
O O6 0.072030 0.145391 0.409332
O O7 0.613017 0.899552 0.716754
O O8 0.492165 0.991739 0.817986
O O9 0.649365 0.044234 0.744172
O O10 0.620955 0.957170 0.986368
O O11 0.624144 0.750000 0.750000
O O12 0.752255 0.666525 0.857477
#
# Coordination Sequence:
#
# PCOD9414009 Si02
#       6
#     4   8   8   8   8   8
#     4  12  20  36  64  98 122 156 210 268 294 374
#     4  11  23  43  61  88 130 165 204 257 309 371
#     4  10  21  41  62  91 123 162 202 256 309 367
#     4  10  22  37  65  93 122 160 209 254 305 363
#     4  12  23  39  62  89 122 163 203 248 311 371
#     4  11  22  40  65  91 122 163 208 252 313 365
#
# _framework density 18.106995999999999
#
# number of rings (size 3 to 8) (size 9 to 14) (size 15 to 20)
#    0.000    1.091    3.636    2.727    2.545    2.909 
#    0.000    0.909    0.000    0.000    0.000    0.000 
#    0.000    0.000    0.000    0.000    0.000    0.000 
#
# Total GULP energy -245377.345781 kJ/mol
# GULP energy per Si atom -5576.757859 kJ/mol
# Density = 1.806578 g / cm^3
# Si number density = 18.106996 Si / 1000 Ang^3
#
#
#
# Elastic Constant Matrix: (Units=GPa)
#
#
# Indices 1 2 3 4 5 6 
#
# 1 89.5057 28.4223 58.3484 0.0000 0.0000 0.0000
# 2 28.4223 80.5718 42.0499 0.0000 0.0000 0.0000
# 3 58.3484 42.0499 126.0500 0.0000 0.0000 0.0000
# 4 0.0000 0.0000 0.0000 14.6579 0.0000 0.0000
# 5 0.0000 0.0000 0.0000 0.0000 42.6903 0.0000
# 6 0.0000 0.0000 0.0000 0.0000 0.0000 41.6166
#
#
#
# Elastic Compliance Matrix: (Units=1/GPa)
#
#
# Indices 1 2 3 4 5 6 
#
# 1 0.016316 -0.002196 -0.006820 0.000000 0.000000 0.000000
# 2 -0.002196 0.015323 -0.004095 0.000000 0.000000 0.000000
# 3 -0.006820 -0.004095 0.012456 0.000000 0.000000 0.000000
# 4 0.000000 0.000000 0.000000 0.068223 0.000000 0.000000
# 5 0.000000 0.000000 0.000000 0.000000 0.023425 0.000000
# 6 0.000000 0.000000 0.000000 0.000000 0.000000 0.024029
#
#
# Mechanical properties :
#
#
# Convention : Reuss Voigt Hill
#
# Bulk Modulus (GPa) = 55.95078 61.52986 58.74032
# Shear Modulus (GPa) = 26.04821 30.94675 28.49748
#
# Velocity S-wave (km/s) = 3.79697 4.13862 3.97147
# Velocity P-wave (km/s) = 7.08447 7.54272 7.31718
#
# Compressibility (1/GPa) = 0.01787285
#
# Stress axis : x y z
#
# Youngs Moduli (GPa) = 61.29056 65.26019 80.27997
#
# Poissons Ratio (x) = 0.14333 0.54750
# Poissons Ratio (y) = 0.13461 0.32876
# Poissons Ratio (z) = 0.41799 0.26725
#
# Static dielectric constant tensor:
#      x y z
#    x 1.639760 0.000000 0.000000 
#    y 0.000000 1.219630 0.000000 
#    z 0.000000 0.000000 1.607330 
# 
# From -- ./inp_files/10368.got.cif
#   From: 2010.05.17/outbox.ucp.g08.bks.cvg/sg52_6_cif.got.tgz:10368.got - 2010.06.11 16:30:12.
