data_PCOD9414705
_publ_section_title
;
Structure prediction by ZEFSAII (Michael W. Deem and Ramdas Pophale) SiO2 
 PCOD9414705
Probable space group: P M N A
;
_chemical_formula_sum "Si O2"
_cell_formula_units_Z 64
_cell_length_a 8.708774
_cell_length_b 15.230193
_cell_length_c 30.351646
_cell_angle_alpha 90.000000
_cell_angle_beta 90.000000
_cell_angle_gamma 90.000000
_cell_volume 4025.730292
_symmetry_space_group_name_H-M "P M N A"
_symmetry_group_IT_number 53
_symmetry_cell_setting 'orthorhombic'
loop_
_space_group_symop_operation_xyz
x,y,z
1/2-x,-y,1/2+z
x,-y,-z
1/2-x,y,1/2-z
-x,-y,-z
1/2+x,y,1/2-z
-x,y,z
1/2+x,-y,1/2+z
loop_
_atom_site_type_symbol
_atom_site_label
_atom_site_fract_x
_atom_site_fract_y
_atom_site_fract_z
Si Si1 0.182134 0.301775 0.795754
Si Si2 0.686219 0.950236 0.064382
Si Si3 0.817769 0.626791 0.441210
Si Si4 0.316187 0.792465 0.121257
Si Si5 0.683761 0.538608 0.611086
Si Si6 0.683176 0.497898 0.796991
Si Si7 0.814225 0.132239 0.469589
Si Si8 0.816373 0.325733 0.035042
O O1 0.250000 0.266751 0.750000
O O2 0.228706 0.240779 0.836078
O O3 0.258322 0.397485 0.802371
O O4 0.000000 0.312949 0.792647
O O5 0.500000 0.951064 0.064936
O O6 0.735965 0.887204 0.103707
O O7 0.734032 0.051721 0.062148
O O8 0.727442 0.902372 0.018497
O O9 0.791944 0.720202 0.417149
O O10 0.738983 0.551030 0.412457
O O11 0.754669 0.632804 0.490681
O O12 0.000000 0.610792 0.442086
O O13 0.500000 0.794090 0.129813
O O14 0.500000 0.535806 0.615844
O O15 0.757991 0.546428 0.659308
O O16 0.726166 0.616728 0.577646
O O17 0.750000 0.529398 0.750000
O O18 0.500000 0.498488 0.795178
O O19 0.741095 0.226024 0.460766
O O20 0.000000 0.140883 0.468308
O O21 0.000000 0.327514 0.030693
#
# Coordination Sequence:
#
# PCOD9414705 Si02
#       8
#     8   8   8   8   8   8   8   8
#     4  11  21  33  50  72 100 133 165 204 248 298
#     4   8  15  29  51  73  96 126 162 204 246 290
#     4  11  21  33  51  72  98 135 176 211 242 290
#     4  10  18  31  50  74 101 131 167 206 248 297
#     4  11  23  37  50  69 100 138 172 207 251 298
#     4  11  21  35  54  75  98 127 164 208 252 298
#     4   9  16  31  52  72  94 127 169 206 243 290
#     4  11  23  35  48  69 103 139 171 211 255 292
#
# _framework density 15.897736999999999
#
# number of rings (size 3 to 8) (size 9 to 14) (size 15 to 20)
#    0.000    1.750    2.500    5.250    0.000    4.000 
#    0.000    1.875    0.000    0.000    0.000    0.875 
#    0.000    6.000    0.000    0.000    0.000    0.000 
#
# Total GULP energy -357195.275379 kJ/mol
# GULP energy per Si atom -5581.176178 kJ/mol
# Density = 1.586155 g / cm^3
# Si number density = 15.897737 Si / 1000 Ang^3
#
#
#
# Elastic Constant Matrix: (Units=GPa)
#
#
# Indices 1 2 3 4 5 6 
#
# 1 69.9942 25.5368 53.3774 0.0000 0.0000 0.0000
# 2 25.5368 58.9231 40.7206 0.0000 0.0000 0.0000
# 3 53.3774 40.7206 130.1475 0.0000 0.0000 0.0000
# 4 0.0000 0.0000 0.0000 22.2427 0.0000 0.0000
# 5 0.0000 0.0000 0.0000 0.0000 26.5433 0.0000
# 6 0.0000 0.0000 0.0000 0.0000 0.0000 12.2814
#
#
#
# Elastic Compliance Matrix: (Units=1/GPa)
#
#
# Indices 1 2 3 4 5 6 
#
# 1 0.021546 -0.004122 -0.007547 0.000000 0.000000 0.000000
# 2 -0.004122 0.022442 -0.005331 0.000000 0.000000 0.000000
# 3 -0.007547 -0.005331 0.012447 0.000000 0.000000 0.000000
# 4 0.000000 0.000000 0.000000 0.044959 0.000000 0.000000
# 5 0.000000 0.000000 0.000000 0.000000 0.037674 0.000000
# 6 0.000000 0.000000 0.000000 0.000000 0.000000 0.081424
#
#
# Mechanical properties :
#
#
# Convention : Reuss Voigt Hill
#
# Bulk Modulus (GPa) = 44.57437 55.37049 49.97243
# Shear Modulus (GPa) = 19.08611 21.50881 20.29746
#
# Velocity S-wave (km/s) = 3.46866 3.68223 3.57704
# Velocity P-wave (km/s) = 6.64389 7.27896 6.96866
#
# Compressibility (1/GPa) = 0.02243441
#
# Stress axis : x y z
#
# Youngs Moduli (GPa) = 46.41199 44.55927 80.34223
#
# Poissons Ratio (x) = 0.18369 0.60634
# Poissons Ratio (y) = 0.19133 0.42830
# Poissons Ratio (z) = 0.35027 0.23754
#
# Static dielectric constant tensor:
#      x y z
#    x 1.534530 0.000000 0.000000 
#    y 0.000000 1.524270 0.000000 
#    z 0.000000 0.000000 1.537100 
# 
# From -- ./inp_files/38527.got.cif
#   From: 2010.05.17/outbox.cif.g08.bks.cpg/sg53_20_cif.got.tgz:38527.got - 2010.06.03 12:45:16.
