data_PCOD9414692
_publ_section_title
;
Structure prediction by ZEFSAII (Michael W. Deem and Ramdas Pophale) SiO2 
 PCOD9414692
Probable space group: P M N A
;
_chemical_formula_sum "Si O2"
_cell_formula_units_Z 40
_cell_length_a 7.694053
_cell_length_b 14.710884
_cell_length_c 20.810708
_cell_angle_alpha 90.000000
_cell_angle_beta 90.000000
_cell_angle_gamma 90.000000
_cell_volume 2355.487480
_symmetry_space_group_name_H-M "P M N A"
_symmetry_group_IT_number 53
_symmetry_cell_setting 'orthorhombic'
loop_
_space_group_symop_operation_xyz
x,y,z
1/2-x,-y,1/2+z
x,-y,-z
1/2-x,y,1/2-z
-x,-y,-z
1/2+x,y,1/2-z
-x,y,z
1/2+x,-y,1/2+z
loop_
_atom_site_type_symbol
_atom_site_label
_atom_site_fract_x
_atom_site_fract_y
_atom_site_fract_z
Si Si1 0.699658 0.775596 0.539021
Si Si2 0.000000 0.435227 0.596391
Si Si3 0.000000 0.636493 0.550094
Si Si4 0.703532 0.035547 0.068836
Si Si5 0.792803 0.334517 0.824481
Si Si6 0.292307 0.845428 0.396636
O O1 0.500000 0.744933 0.534784
O O2 0.710060 0.867639 0.581411
O O3 0.759709 0.807246 0.467215
O O4 0.830697 0.698453 0.561651
O O5 0.000000 0.543865 0.590183
O O6 0.000000 0.393664 0.524706
O O7 0.170873 0.399302 0.633139
O O8 0.500000 0.054766 0.061105
O O9 0.723664 0.947335 0.113332
O O10 0.775078 0.000000 0.000000
O O11 0.750000 0.348117 0.750000
O O12 0.744861 0.231379 0.845517
O O13 0.000000 0.346785 0.836136
O O14 0.500000 0.852886 0.397943
#
# Coordination Sequence:
#
# PCOD9414692 Si02
#       6
#     8   4   4   8   8   8
#     4  10  18  31  49  73 109 146 178 216 263 327
#     4  11  24  38  55  80 111 141 183 240 284 332
#     4  11  22  36  54  79 112 147 182 226 291 340
#     4   9  16  24  44  72 104 142 174 202 248 311
#     4  11  22  37  58  80 108 141 182 227 276 329
#     4   9  18  29  45  75 108 141 176 211 259 321
#
# _framework density 16.981622000000002
#
# number of rings (size 3 to 8) (size 9 to 14) (size 15 to 20)
#    0.000    2.000    4.000    0.600    2.800    3.200 
#    0.000    2.000    0.000    0.000    0.000    1.400 
#    0.000    0.000    0.000    0.000    0.000    0.000 
#
# Total GULP energy -222950.437090 kJ/mol
# GULP energy per Si atom -5573.760927 kJ/mol
# Density = 1.694297 g / cm^3
# Si number density = 16.981622 Si / 1000 Ang^3
#
#
#
# Elastic Constant Matrix: (Units=GPa)
#
#
# Indices 1 2 3 4 5 6 
#
# 1 98.9263 60.7830 21.1351 0.0000 0.0000 0.0000
# 2 60.7830 141.7045 33.2465 0.0000 0.0000 0.0000
# 3 21.1351 33.2465 45.2666 0.0000 0.0000 0.0000
# 4 0.0000 0.0000 0.0000 16.5019 0.0000 0.0000
# 5 0.0000 0.0000 0.0000 0.0000 9.2193 0.0000
# 6 0.0000 0.0000 0.0000 0.0000 0.0000 16.2042
#
#
#
# Elastic Compliance Matrix: (Units=1/GPa)
#
#
# Indices 1 2 3 4 5 6 
#
# 1 0.013968 -0.005390 -0.002563 0.000000 0.000000 0.000000
# 2 -0.005390 0.010606 -0.005273 0.000000 0.000000 0.000000
# 3 -0.002563 -0.005273 0.027161 0.000000 0.000000 0.000000
# 4 0.000000 0.000000 0.000000 0.060599 0.000000 0.000000
# 5 0.000000 0.000000 0.000000 0.000000 0.108468 0.000000
# 6 0.000000 0.000000 0.000000 0.000000 0.000000 0.061712
#
#
# Mechanical properties :
#
#
# Convention : Reuss Voigt Hill
#
# Bulk Modulus (GPa) = 39.55270 57.35852 48.45561
# Shear Modulus (GPa) = 15.75327 19.76725 17.76026
#
# Velocity S-wave (km/s) = 3.04907 3.41550 3.23747
# Velocity P-wave (km/s) = 5.97811 7.02882 6.52465
#
# Compressibility (1/GPa) = 0.02528272
#
# Stress axis : x y z
#
# Youngs Moduli (GPa) = 71.59259 94.28465 36.81776
#
# Poissons Ratio (x) = 0.50821 0.09436
# Poissons Ratio (y) = 0.38589 0.19415
# Poissons Ratio (z) = 0.18348 0.49718
#
# Static dielectric constant tensor:
#      x y z
#    x 1.592690 0.000000 0.000000 
#    y 0.000000 1.599760 0.000000 
#    z 0.000000 0.000000 1.562240 
# 
# From -- ./inp_files/30382.got.cif
#   From: 2010.05.17/outbox.cif.g08.bks.cpg/sg53_16_cif.got.tgz:30382.got - 2010.06.03 12:45:16.
