data_PCOD9414464
_publ_section_title
;
Structure prediction by ZEFSAII (Michael W. Deem and Ramdas Pophale) SiO2 
 PCOD9414464
Probable space group: P M N A
;
_chemical_formula_sum "Si O2"
_cell_formula_units_Z 64
_cell_length_a 9.005362
_cell_length_b 17.538480
_cell_length_c 27.066330
_cell_angle_alpha 90.000000
_cell_angle_beta 90.000000
_cell_angle_gamma 90.000000
_cell_volume 4274.865940
_symmetry_space_group_name_H-M "P M N A"
_symmetry_group_IT_number 53
_symmetry_cell_setting 'orthorhombic'
loop_
_space_group_symop_operation_xyz
x,y,z
1/2-x,-y,1/2+z
x,-y,-z
1/2-x,y,1/2-z
-x,-y,-z
1/2+x,y,1/2-z
-x,y,z
1/2+x,-y,1/2+z
loop_
_atom_site_type_symbol
_atom_site_label
_atom_site_fract_x
_atom_site_fract_y
_atom_site_fract_z
Si Si1 0.176712 0.355570 0.428084
Si Si2 0.822006 0.841754 0.065611
Si Si3 0.829734 0.509813 0.059662
Si Si4 0.178574 0.901606 0.696460
Si Si5 0.320342 0.325517 0.535242
Si Si6 0.172591 0.904109 0.957880
Si Si7 0.673649 0.778320 0.627592
Si Si8 0.823743 0.977912 0.387653
O O1 0.227074 0.442994 0.419993
O O2 0.243026 0.331379 0.481739
O O3 0.247741 0.299909 0.387494
O O4 0.000000 0.348643 0.428905
O O5 0.780343 0.752846 0.062456
O O6 0.748595 0.895159 0.106498
O O7 0.000000 0.845923 0.070227
O O8 0.782119 0.877264 0.012056
O O9 0.784615 0.597886 0.065911
O O10 0.000000 0.498790 0.076316
O O11 0.829870 0.500000 0.000000
O O12 0.250000 0.910481 0.750000
O O13 0.244159 0.826409 0.669901
O O14 0.000000 0.896681 0.699150
O O15 0.217927 0.973184 0.660874
O O16 0.500000 0.325618 0.526880
O O17 0.181423 0.832120 0.921105
O O18 0.000000 0.928760 0.959328
O O19 0.267796 0.970577 0.933490
O O20 0.500000 0.767345 0.639431
O O21 0.000000 0.971450 0.389094
#
# Coordination Sequence:
#
# PCOD9414464 Si02
#       8
#     8   8   8   8   8   8   8   8
#     4  11  19  26  40  63  91 118 151 191 226 264
#     4  10  18  29  44  62  86 118 157 190 219 262
#     4   8  15  27  42  56  79 117 157 190 221 258
#     4  10  21  37  53  70  91 115 146 185 231 277
#     4   9  17  30  43  58  83 121 161 193 223 261
#     4   9  17  29  44  60  83 117 154 186 216 258
#     4  10  18  31  49  67  89 119 154 188 226 268
#     4  10  21  32  43  64  90 113 143 183 227 272
#
# _framework density 14.971231
#
# number of rings (size 3 to 8) (size 9 to 14) (size 15 to 20)
#    0.000    2.375    1.250    3.375    0.000    6.750 
#    0.000    0.000    0.000    0.000    0.000    0.000 
#    0.000    1.000    0.000    6.500    0.000    5.500 
#
# Total GULP energy -356791.873694 kJ/mol
# GULP energy per Si atom -5574.873026 kJ/mol
# Density = 1.493716 g / cm^3
# Si number density = 14.971231 Si / 1000 Ang^3
#
#
#
# Elastic Constant Matrix: (Units=GPa)
#
#
# Indices 1 2 3 4 5 6 
#
# 1 60.0375 57.0084 31.8276 0.0000 0.0000 0.0000
# 2 57.0084 142.2195 49.1591 0.0000 0.0000 0.0000
# 3 31.8276 49.1591 53.0418 0.0000 0.0000 0.0000
# 4 0.0000 0.0000 0.0000 10.9418 0.0000 0.0000
# 5 0.0000 0.0000 0.0000 0.0000 15.4992 0.0000
# 6 0.0000 0.0000 0.0000 0.0000 0.0000 -4.9932
#
#
#
# Elastic Compliance Matrix: (Units=1/GPa)
#
#
# Indices 1 2 3 4 5 6 
#
# 1 0.030203 -0.008596 -0.010156 0.000000 0.000000 0.000000
# 2 -0.008596 0.012792 -0.006698 0.000000 0.000000 0.000000
# 3 -0.010156 -0.006698 0.031155 0.000000 0.000000 0.000000
# 4 0.000000 0.000000 0.000000 0.091393 0.000000 0.000000
# 5 0.000000 0.000000 0.000000 0.000000 0.064520 0.000000
# 6 0.000000 0.000000 0.000000 0.000000 0.000000 -0.200271
#
#
# Mechanical properties :
#
#
# Convention : Reuss Voigt Hill
#
# Bulk Modulus (GPa) = 43.01153 59.03209 51.02181
# Shear Modulus (GPa) = 56.53458 12.10979 34.32218
#
# Velocity S-wave (km/s) = 6.15176 2.84715 4.79324
# Velocity P-wave (km/s) = 8.90228 7.09396 8.04907
#
# Compressibility (1/GPa) = 0.02324958
#
# Stress axis : x y z
#
# Youngs Moduli (GPa) = 33.10951 78.17220 32.09790
#
# Poissons Ratio (x) = 0.67198 0.32599
# Poissons Ratio (y) = 0.28462 0.21498
# Poissons Ratio (z) = 0.33627 0.52358
#
# Static dielectric constant tensor:
#      x y z
#    x 1.498650 0.000000 0.000000 
#    y 0.000000 1.531620 0.000000 
#    z 0.000000 0.000000 1.463180 
# 
# From -- ./inp_files/36474.got.cif
#   From: 2010.05.17/outbox.cif.g08.bks.cpg/sg53_19_cif.got.tgz:36474.got - 2010.06.03 12:45:16.
