data_PCOD9414531
_publ_section_title
;
Structure prediction by ZEFSAII (Michael W. Deem and Ramdas Pophale) SiO2 
 PCOD9414531
Probable space group: P M N A
;
_chemical_formula_sum "Si O2"
_cell_formula_units_Z 64
_cell_length_a 8.495337
_cell_length_b 21.357200
_cell_length_c 20.939845
_cell_angle_alpha 90.000000
_cell_angle_beta 90.000000
_cell_angle_gamma 90.000000
_cell_volume 3799.254520
_symmetry_space_group_name_H-M "P M N A"
_symmetry_group_IT_number 53
_symmetry_cell_setting 'orthorhombic'
loop_
_space_group_symop_operation_xyz
x,y,z
1/2-x,-y,1/2+z
x,-y,-z
1/2-x,y,1/2-z
-x,-y,-z
1/2+x,y,1/2-z
-x,y,z
1/2+x,-y,1/2+z
loop_
_atom_site_type_symbol
_atom_site_label
_atom_site_fract_x
_atom_site_fract_y
_atom_site_fract_z
Si Si1 0.315245 0.354426 0.145818
Si Si2 0.690614 0.940155 0.541027
Si Si3 0.815903 0.484751 0.181735
Si Si4 0.316825 0.077726 0.182812
Si Si5 0.810970 0.329809 0.003555
Si Si6 0.812854 0.451762 0.555688
Si Si7 0.318508 0.194842 0.489275
Si Si8 0.683620 0.782579 0.854734
O O1 0.500000 0.370130 0.152042
O O2 0.215238 0.410428 0.174450
O O3 0.271849 0.347026 0.070812
O O4 0.287133 0.285383 0.174839
O O5 0.500000 0.937634 0.540184
O O6 0.740387 0.942610 0.615424
O O7 0.751456 0.875179 0.508633
O O8 0.741486 0.000000 0.500000
O O9 0.750000 0.505013 0.250000
O O10 0.728787 0.518015 0.123219
O O11 0.000000 0.497346 0.177126
O O12 0.250000 0.053328 0.250000
O O13 0.500000 0.062297 0.179290
O O14 0.301725 0.153608 0.183839
O O15 0.756014 0.260113 0.981763
O O16 0.000000 0.327325 0.013459
O O17 0.768897 0.385250 0.955651
O O18 0.760487 0.500000 0.500000
O O19 0.000000 0.443800 0.549427
O O20 0.500000 0.189688 0.509156
O O21 0.301399 0.209842 0.413909
O O22 0.500000 0.780487 0.877970
#
# Coordination Sequence:
#
# PCOD9414531 Si02
#       8
#     8   8   8   8   8   8   8   8
#     4  10  18  31  48  69  97 129 166 204 244 288
#     4   9  17  31  51  74 102 136 169 203 246 295
#     4  12  25  39  53  70  97 129 165 207 256 309
#     4  10  19  31  46  67  96 131 170 209 245 287
#     4  10  18  29  49  75 100 128 164 207 251 292
#     4  11  22  36  55  76  99 128 166 211 254 298
#     4   8  15  27  44  70 100 127 160 200 241 289
#     4   8  16  28  43  63  91 127 164 201 238 279
#
# _framework density 16.845410999999999
#
# number of rings (size 3 to 8) (size 9 to 14) (size 15 to 20)
#    0.000    2.250    1.250    2.625    0.000    2.750 
#    0.000    1.250    0.000    0.000    0.000    0.875 
#    0.000    4.000    0.000    0.000    0.000    0.000 
#
# Total GULP energy -356503.650788 kJ/mol
# GULP energy per Si atom -5570.369544 kJ/mol
# Density = 1.680707 g / cm^3
# Si number density = 16.845411 Si / 1000 Ang^3
#
#
#
# Elastic Constant Matrix: (Units=GPa)
#
#
# Indices 1 2 3 4 5 6 
#
# 1 22.3493 16.1991 7.7700 0.0000 0.0000 0.0000
# 2 16.1991 107.7263 42.8213 0.0000 0.0000 0.0000
# 3 7.7700 42.8213 74.5500 0.0000 0.0000 0.0000
# 4 0.0000 0.0000 0.0000 7.5284 0.0000 0.0000
# 5 0.0000 0.0000 0.0000 0.0000 17.9252 0.0000
# 6 0.0000 0.0000 0.0000 0.0000 0.0000 16.6518
#
#
#
# Elastic Compliance Matrix: (Units=1/GPa)
#
#
# Indices 1 2 3 4 5 6 
#
# 1 0.050295 -0.007101 -0.001164 0.000000 0.000000 0.000000
# 2 -0.007101 0.013032 -0.006745 0.000000 0.000000 0.000000
# 3 -0.001164 -0.006745 0.017410 0.000000 0.000000 0.000000
# 4 0.000000 0.000000 0.000000 0.132830 0.000000 0.000000
# 5 0.000000 0.000000 0.000000 0.000000 0.055787 0.000000
# 6 0.000000 0.000000 0.000000 0.000000 0.000000 0.060053
#
#
# Mechanical properties :
#
#
# Convention : Reuss Voigt Hill
#
# Bulk Modulus (GPa) = 19.71698 37.57849 28.64773
# Shear Modulus (GPa) = 13.28615 17.61012 15.44814
#
# Velocity S-wave (km/s) = 2.81145 3.23677 3.03157
# Velocity P-wave (km/s) = 4.71901 6.02703 5.41268
#
# Compressibility (1/GPa) = 0.05071772
#
# Stress axis : x y z
#
# Youngs Moduli (GPa) = 19.88266 76.73536 57.43957
#
# Poissons Ratio (x) = 0.54486 0.06683
# Poissons Ratio (y) = 0.14118 0.38745
# Poissons Ratio (z) = 0.02313 0.51761
#
# Static dielectric constant tensor:
#      x y z
#    x 1.579030 0.000000 0.000000 
#    y 0.000000 1.618280 0.000000 
#    z 0.000000 0.000000 1.579070 
# 
# From -- ./inp_files/31353.got.cif
#   From: 2010.05.17/outbox.cif.g08.bks.cpg/sg53_16_cif.got.tgz:31353.got - 2010.06.03 12:45:16.
