data_PCOD9414533
_publ_section_title
;
Structure prediction by ZEFSAII (Michael W. Deem and Ramdas Pophale) SiO2 
 PCOD9414533
Probable space group: P M N A
;
_chemical_formula_sum "Si O2"
_cell_formula_units_Z 64
_cell_length_a 14.196570
_cell_length_b 14.651744
_cell_length_c 18.052822
_cell_angle_alpha 90.000000
_cell_angle_beta 90.000000
_cell_angle_gamma 90.000000
_cell_volume 3755.068382
_symmetry_space_group_name_H-M "P M N A"
_symmetry_group_IT_number 53
_symmetry_cell_setting 'orthorhombic'
loop_
_space_group_symop_operation_xyz
x,y,z
1/2-x,-y,1/2+z
x,-y,-z
1/2-x,y,1/2-z
-x,-y,-z
1/2+x,y,1/2-z
-x,y,z
1/2+x,-y,1/2+z
loop_
_atom_site_type_symbol
_atom_site_label
_atom_site_fract_x
_atom_site_fract_y
_atom_site_fract_z
Si Si1 0.609664 0.585049 0.357477
Si Si2 0.612428 0.252314 0.173511
Si Si3 0.613289 0.148228 0.316565
Si Si4 0.888096 0.773215 0.079153
Si Si5 0.780983 0.274019 0.071649
Si Si6 0.611605 0.460650 0.215289
Si Si7 0.733943 0.483233 0.076276
Si Si8 0.613719 0.019397 0.584670
O O1 0.500000 0.567500 0.372780
O O2 0.622093 0.694568 0.358535
O O3 0.635540 0.521754 0.286972
O O4 0.678237 0.550804 0.421138
O O5 0.500000 0.249320 0.158617
O O6 0.639286 0.174178 0.232574
O O7 0.676589 0.244465 0.100291
O O8 0.631824 0.351284 0.213277
O O9 0.500000 0.147453 0.317340
O O10 0.649252 0.228800 0.369278
O O11 0.647627 0.055031 0.355695
O O12 0.866397 0.875869 0.104652
O O13 0.000000 0.771389 0.056129
O O14 0.821041 0.752804 0.008769
O O15 0.775605 0.382270 0.079606
O O16 0.500000 0.469081 0.205711
O O17 0.666680 0.499124 0.145249
O O18 0.680360 0.500000 0.000000
O O19 0.500000 0.010120 0.582431
O O20 0.646722 0.000000 0.500000
#
# Coordination Sequence:
#
# PCOD9414533 Si02
#       8
#     8   8   8   8   8   8   8   8
#     4  10  20  33  49  72 105 138 166 201 252 308
#     4   9  19  33  49  72 100 131 169 209 252 299
#     4  10  18  29  49  75 102 129 157 198 254 312
#     4  10  19  31  49  77 106 131 165 203 249 311
#     4  11  19  30  48  72 103 132 165 205 254 301
#     4   9  19  36  54  70  98 138 174 213 255 294
#     4  11  21  32  48  76 102 134 176 209 251 299
#     4   9  16  28  46  71 100 129 156 191 245 303
#
# _framework density 17.043631000000001
#
# number of rings (size 3 to 8) (size 9 to 14) (size 15 to 20)
#    0.000    2.125    2.500    1.875    0.000    4.500 
#    0.000    0.000    0.000    3.000    0.000    1.750 
#    0.000    0.000    0.000    0.000    0.000    1.000 
#
# Total GULP energy -356285.157058 kJ/mol
# GULP energy per Si atom -5566.955579 kJ/mol
# Density = 1.700484 g / cm^3
# Si number density = 17.043631 Si / 1000 Ang^3
#
#
#
# Elastic Constant Matrix: (Units=GPa)
#
#
# Indices 1 2 3 4 5 6 
#
# 1 42.8739 26.6674 36.0772 0.0000 0.0000 0.0000
# 2 26.6674 85.8321 33.8867 0.0000 0.0000 0.0000
# 3 36.0772 33.8867 73.1330 0.0000 0.0000 0.0000
# 4 0.0000 0.0000 0.0000 24.1888 0.0000 0.0000
# 5 0.0000 0.0000 0.0000 0.0000 19.6010 0.0000
# 6 0.0000 0.0000 0.0000 0.0000 0.0000 11.3710
#
#
#
# Elastic Compliance Matrix: (Units=1/GPa)
#
#
# Indices 1 2 3 4 5 6 
#
# 1 0.042257 -0.005996 -0.018068 0.000000 0.000000 0.000000
# 2 -0.005996 0.015110 -0.004044 0.000000 0.000000 0.000000
# 3 -0.018068 -0.004044 0.024460 0.000000 0.000000 0.000000
# 4 0.000000 0.000000 0.000000 0.041341 0.000000 0.000000
# 5 0.000000 0.000000 0.000000 0.000000 0.051018 0.000000
# 6 0.000000 0.000000 0.000000 0.000000 0.000000 0.087943
#
#
# Mechanical properties :
#
#
# Convention : Reuss Voigt Hill
#
# Bulk Modulus (GPa) = 39.04216 43.90017 41.47117
# Shear Modulus (GPa) = 15.29608 18.04599 16.67104
#
# Velocity S-wave (km/s) = 2.99902 3.25747 3.13091
# Velocity P-wave (km/s) = 5.91178 6.32152 6.12008
#
# Compressibility (1/GPa) = 0.02561334
#
# Stress axis : x y z
#
# Youngs Moduli (GPa) = 23.66474 66.18183 40.88268
#
# Poissons Ratio (x) = 0.39681 0.73865
# Poissons Ratio (y) = 0.14189 0.16531
# Poissons Ratio (z) = 0.42756 0.26761
#
# Static dielectric constant tensor:
#      x y z
#    x 1.582640 0.000000 0.000000 
#    y 0.000000 1.598960 0.000000 
#    z 0.000000 0.000000 1.589820 
# 
# From -- ./inp_files/28628.got.cif
#   From: 2010.05.17/outbox.cif.g08.bks.cpg/sg53_15_cif.got.tgz:28628.got - 2010.06.03 12:45:16.
