data_PCOD9414221
_publ_section_title
;
Structure prediction by ZEFSAII (Michael W. Deem and Ramdas Pophale) SiO2 
 PCOD9414221
Probable space group: P M N A
;
_chemical_formula_sum "Si O2"
_cell_formula_units_Z 40
_cell_length_a 11.482101
_cell_length_b 6.949972
_cell_length_c 18.462763
_cell_angle_alpha 90.000000
_cell_angle_beta 90.000000
_cell_angle_gamma 90.000000
_cell_volume 1473.333665
_symmetry_space_group_name_H-M "P M N A"
_symmetry_group_IT_number 53
_symmetry_cell_setting 'orthorhombic'
loop_
_space_group_symop_operation_xyz
x,y,z
1/2-x,-y,1/2+z
x,-y,-z
1/2-x,y,1/2-z
-x,-y,-z
1/2+x,y,1/2-z
-x,y,z
1/2+x,-y,1/2+z
loop_
_atom_site_type_symbol
_atom_site_label
_atom_site_fract_x
_atom_site_fract_y
_atom_site_fract_z
Si Si1 0.374131 0.165357 0.558725
Si Si2 0.126475 0.250836 0.786705
Si Si3 0.876782 0.642714 0.432146
Si Si4 0.625676 0.295747 0.328697
Si Si5 0.375149 0.721628 0.841926
O O1 0.500000 0.272683 0.547102
O O2 0.379608 0.113966 0.643631
O O3 0.246755 0.259840 0.556613
O O4 0.374116 0.000000 0.500000
O O5 0.250000 0.212354 0.750000
O O6 0.130945 0.470139 0.817479
O O7 0.000000 0.227308 0.748829
O O8 0.883921 0.500000 0.500000
O O9 0.877217 0.506425 0.360950
O O10 0.000000 0.755283 0.431523
O O11 0.500000 0.258466 0.362967
O O12 0.624805 0.234900 0.243752
O O13 0.744808 0.230279 0.367405
O O14 0.500000 0.795344 0.871123
#
# Coordination Sequence:
#
# PCOD9414221 Si02
#       5
#     8   8   8   8   8
#     4  10  21  36  53  77 109 143 177 217 265 318
#     4  10  17  27  46  73 101 129 167 216 266 310
#     4  10  20  33  50  74 104 138 174 211 255 309
#     4   9  14  21  38  63  90 116 149 196 250 293
#     4   9  15  24  39  63  94 120 148 195 249 294
#
# _framework density 27.149315000000001
#
# number of rings (size 3 to 8) (size 9 to 14) (size 15 to 20)
#    0.000    2.400    4.000    0.000    0.000    1.600 
#    0.000    0.000    0.000    0.000    5.200    0.000 
#    0.000    0.000    0.000    0.000    0.000    0.000 
#
# Total GULP energy -223122.632503 kJ/mol
# GULP energy per Si atom -5578.065813 kJ/mol
# Density = 2.708752 g / cm^3
# Si number density = 27.149315 Si / 1000 Ang^3
#
#
#
# Elastic Constant Matrix: (Units=GPa)
#
#
# Indices 1 2 3 4 5 6 
#
# 1 443.9550 64.7413 47.0912 0.0000 0.0000 0.0000
# 2 64.7413 58.6257 8.7258 0.0000 0.0000 0.0000
# 3 47.0912 8.7258 95.8204 0.0000 0.0000 0.0000
# 4 0.0000 0.0000 0.0000 22.9607 0.0000 0.0000
# 5 0.0000 0.0000 0.0000 0.0000 35.6214 0.0000
# 6 0.0000 0.0000 0.0000 0.0000 0.0000 31.3936
#
#
#
# Elastic Compliance Matrix: (Units=1/GPa)
#
#
# Indices 1 2 3 4 5 6 
#
# 1 0.002796 -0.002923 -0.001108 0.000000 0.000000 0.000000
# 2 -0.002923 0.020347 -0.000416 0.000000 0.000000 0.000000
# 3 -0.001108 -0.000416 0.011019 0.000000 0.000000 0.000000
# 4 0.000000 0.000000 0.000000 0.043553 0.000000 0.000000
# 5 0.000000 0.000000 0.000000 0.000000 0.028073 0.000000
# 6 0.000000 0.000000 0.000000 0.000000 0.000000 0.031854
#
#
# Mechanical properties :
#
#
# Convention : Reuss Voigt Hill
#
# Bulk Modulus (GPa) = 39.57684 93.27974 66.42829
# Shear Modulus (GPa) = 32.26662 49.85133 41.05898
#
# Velocity S-wave (km/s) = 3.45118 4.28973 3.89310
# Velocity P-wave (km/s) = 5.52178 7.67908 6.68799
#
# Compressibility (1/GPa) = 0.02526730
#
# Stress axis : x y z
#
# Youngs Moduli (GPa) = 357.61820 49.14657 90.75507
#
# Poissons Ratio (x) = 0.14366 0.10056
# Poissons Ratio (y) = 1.04534 0.03779
# Poissons Ratio (z) = 0.39626 0.02046
#
# Static dielectric constant tensor:
#      x y z
#    x 2.173180 0.000000 0.000000 
#    y 0.000000 2.218960 0.000000 
#    z 0.000000 0.000000 2.109400 
# 
# From -- ./inp_files/31777.got.cif
#   From: 2010.05.17/outbox.cif.g08.bks.cpg/sg53_16_cif.got.tgz:31777.got - 2010.06.03 12:45:16.
