data_PCOD9414587
_publ_section_title
;
Structure prediction by ZEFSAII (Michael W. Deem and Ramdas Pophale) SiO2 
 PCOD9414587
Probable space group: P M N A
;
_chemical_formula_sum "Si O2"
_cell_formula_units_Z 48
_cell_length_a 8.749721
_cell_length_b 12.186584
_cell_length_c 26.949608
_cell_angle_alpha 90.000000
_cell_angle_beta 90.000000
_cell_angle_gamma 90.000000
_cell_volume 2873.615409
_symmetry_space_group_name_H-M "P M N A"
_symmetry_group_IT_number 53
_symmetry_cell_setting 'orthorhombic'
loop_
_space_group_symop_operation_xyz
x,y,z
1/2-x,-y,1/2+z
x,-y,-z
1/2-x,y,1/2-z
-x,-y,-z
1/2+x,y,1/2-z
-x,y,z
1/2+x,-y,1/2+z
loop_
_atom_site_type_symbol
_atom_site_label
_atom_site_fract_x
_atom_site_fract_y
_atom_site_fract_z
Si Si1 0.315730 0.043097 0.945363
Si Si2 0.679799 0.493721 0.872492
Si Si3 0.317200 0.678500 0.695299
Si Si4 0.678914 0.668696 0.958717
Si Si5 0.185559 0.706842 0.430586
Si Si6 0.680809 0.845840 0.610907
O O1 0.500000 0.044263 0.946695
O O2 0.263360 0.166982 0.933557
O O3 0.261045 0.958771 0.903502
O O4 0.264617 0.000000 0.000000
O O5 0.500000 0.488427 0.859141
O O6 0.764390 0.566368 0.831616
O O7 0.690136 0.563187 0.923730
O O8 0.739365 0.372699 0.886468
O O9 0.250000 0.686604 0.750000
O O10 0.500000 0.680467 0.697085
O O11 0.265974 0.779932 0.659976
O O12 0.500000 0.704637 0.957670
O O13 0.779221 0.762784 0.933759
O O14 0.721707 0.654455 0.015776
O O15 0.000000 0.707190 0.426711
O O16 0.500000 0.862454 0.614362
#
# Coordination Sequence:
#
# PCOD9414587 Si02
#       6
#     8   8   8   8   8   8
#     4  10  18  30  48  70 101 140 177 206 232 280
#     4   9  17  29  49  74  99 128 163 203 247 292
#     4  10  21  37  56  76  97 122 158 208 260 306
#     4   9  15  27  46  68  97 133 169 201 234 281
#     4   9  16  27  45  71 101 134 171 202 231 277
#     4  10  20  32  47  72 102 129 164 209 253 293
#
# _framework density 16.703696999999998
#
# number of rings (size 3 to 8) (size 9 to 14) (size 15 to 20)
#    0.000    2.500    1.667    1.500    0.000    4.333 
#    0.000    1.667    0.000    5.000    0.000    2.333 
#    0.000    0.000    0.000    0.000    0.000    0.000 
#
# Total GULP energy -267449.911011 kJ/mol
# GULP energy per Si atom -5571.873146 kJ/mol
# Density = 1.666568 g / cm^3
# Si number density = 16.703697 Si / 1000 Ang^3
#
#
#
# Elastic Constant Matrix: (Units=GPa)
#
#
# Indices 1 2 3 4 5 6 
#
# 1 15.1037 23.4833 21.8419 0.0000 0.0000 0.0000
# 2 23.4833 90.2915 50.8859 0.0000 0.0000 0.0000
# 3 21.8419 50.8859 104.0057 0.0000 0.0000 0.0000
# 4 0.0000 0.0000 0.0000 12.7603 0.0000 0.0000
# 5 0.0000 0.0000 0.0000 0.0000 17.7880 0.0000
# 6 0.0000 0.0000 0.0000 0.0000 0.0000 1.8446
#
#
#
# Elastic Compliance Matrix: (Units=1/GPa)
#
#
# Indices 1 2 3 4 5 6 
#
# 1 0.124803 -0.024422 -0.014261 0.000000 0.000000 0.000000
# 2 -0.024422 0.020071 -0.004691 0.000000 0.000000 0.000000
# 3 -0.014261 -0.004691 0.014905 0.000000 0.000000 0.000000
# 4 0.000000 0.000000 0.000000 0.078368 0.000000 0.000000
# 5 0.000000 0.000000 0.000000 0.000000 0.056218 0.000000
# 6 0.000000 0.000000 0.000000 0.000000 0.000000 0.542110
#
#
# Mechanical properties :
#
#
# Convention : Reuss Voigt Hill
#
# Bulk Modulus (GPa) = 13.69282 44.64701 29.16991
# Shear Modulus (GPa) = 5.27668 14.02458 9.65063
#
# Velocity S-wave (km/s) = 1.77928 2.90074 2.40626
# Velocity P-wave (km/s) = 3.52653 6.16490 5.02207
#
# Compressibility (1/GPa) = 0.07303100
#
# Stress axis : x y z
#
# Youngs Moduli (GPa) = 8.01260 49.82352 67.09257
#
# Poissons Ratio (x) = 1.21681 0.95678
# Poissons Ratio (y) = 0.19569 0.31473
# Poissons Ratio (z) = 0.11426 0.23372
#
# Static dielectric constant tensor:
#      x y z
#    x 1.563990 0.000000 0.000000 
#    y 0.000000 1.593660 0.000000 
#    z 0.000000 0.000000 1.548240 
# 
# From -- ./inp_files/36137.got.cif
#   From: 2010.05.17/outbox.cif.g08.bks.cpg/sg53_19_cif.got.tgz:36137.got - 2010.06.03 12:45:16.
