data_PCOD9414132
_publ_section_title
;
Structure prediction by ZEFSAII (Michael W. Deem and Ramdas Pophale) SiO2 
 PCOD9414132
Probable space group: P M N A
;
_chemical_formula_sum "Si O2"
_cell_formula_units_Z 64
_cell_length_a 26.840235
_cell_length_b 22.199670
_cell_length_c 5.382148
_cell_angle_alpha 90.000000
_cell_angle_beta 90.000000
_cell_angle_gamma 90.000000
_cell_volume 3206.922529
_symmetry_space_group_name_H-M "P M N A"
_symmetry_group_IT_number 53
_symmetry_cell_setting 'orthorhombic'
loop_
_space_group_symop_operation_xyz
x,y,z
1/2-x,-y,1/2+z
x,-y,-z
1/2-x,y,1/2-z
-x,-y,-z
1/2+x,y,1/2-z
-x,y,z
1/2+x,-y,1/2+z
loop_
_atom_site_type_symbol
_atom_site_label
_atom_site_fract_x
_atom_site_fract_y
_atom_site_fract_z
Si Si1 0.557118 0.832207 0.150656
Si Si2 0.199110 0.065352 0.995377
Si Si3 0.851904 0.898941 0.503198
Si Si4 0.266807 0.187200 0.001842
Si Si5 0.845040 0.520430 0.748481
Si Si6 0.944815 0.563915 0.260224
Si Si7 0.912437 0.373930 0.238925
Si Si8 0.058146 0.243123 0.140257
O O1 0.500000 0.849632 0.198301
O O2 0.574497 0.797292 0.402446
O O3 0.591631 0.887600 0.071506
O O4 0.558456 0.791340 0.902900
O O5 0.171742 0.067978 0.732330
O O6 0.235513 0.123184 0.004754
O O7 0.162139 0.072967 0.230935
O O8 0.224448 0.000000 0.000000
O O9 0.823845 0.833543 0.505350
O O10 0.250000 0.218084 0.750000
O O11 0.250000 0.219754 0.250000
O O12 0.818505 0.500000 0.500000
O O13 0.898556 0.482936 0.741821
O O14 0.860322 0.590036 0.752323
O O15 0.819867 0.500000 0.000000
O O16 0.937786 0.607941 0.498169
O O17 0.000000 0.536134 0.272309
O O18 0.940498 0.598975 0.000870
O O19 0.910725 0.303407 0.186313
O O20 0.000000 0.260009 0.089146
#
# Coordination Sequence:
#
# PCOD9414132 Si02
#       8
#     8   8   8   8   8   8   8   8
#     4  10  21  35  48  61  79 111 156 194 222 249
#     4  10  19  31  51  79 102 116 133 159 201 259
#     4  10  19  32  49  67  93 124 144 169 211 250
#     4   8  16  27  44  71  98 119 137 158 195 247
#     4   8  16  24  31  45  66  91 115 143 197 275
#     4  10  17  23  32  47  68  92 115 145 203 282
#     4  10  18  26  36  50  68  89 119 167 223 265
#     4  10  19  30  44  59  73  96 141 199 239 254
#
# _framework density 19.956827000000001
#
# number of rings (size 3 to 8) (size 9 to 14) (size 15 to 20)
#    0.000    2.500    0.000    3.000    0.000   10.500 
#    0.000    0.000    0.000    2.250    0.000    0.000 
#    0.000    0.000    0.000    0.000    0.000    0.000 
#
# Total GULP energy -356609.889714 kJ/mol
# GULP energy per Si atom -5572.029527 kJ/mol
# Density = 1.991140 g / cm^3
# Si number density = 19.956827 Si / 1000 Ang^3
#
#
#
# Elastic Constant Matrix: (Units=GPa)
#
#
# Indices 1 2 3 4 5 6 
#
# 1 29.7456 9.4890 6.3804 0.0000 0.0000 0.0000
# 2 9.4890 27.7345 10.5772 0.0000 0.0000 0.0000
# 3 6.3804 10.5772 182.6506 0.0000 0.0000 0.0000
# 4 0.0000 0.0000 0.0000 -165.3516 0.0000 0.0000
# 5 0.0000 0.0000 0.0000 0.0000 7.5236 0.0000
# 6 0.0000 0.0000 0.0000 0.0000 0.0000 -20.2263
#
#
#
# Elastic Compliance Matrix: (Units=1/GPa)
#
#
# Indices 1 2 3 4 5 6 
#
# 1 0.037798 -0.012709 -0.000584 0.000000 0.000000 0.000000
# 2 -0.012709 0.041144 -0.001939 0.000000 0.000000 0.000000
# 3 -0.000584 -0.001939 0.005608 0.000000 0.000000 0.000000
# 4 0.000000 0.000000 0.000000 -0.006048 0.000000 0.000000
# 5 0.000000 0.000000 0.000000 0.000000 0.132915 0.000000
# 6 0.000000 0.000000 0.000000 0.000000 0.000000 -0.049441
#
#
# Mechanical properties :
#
#
# Convention : Reuss Voigt Hill
#
# Bulk Modulus (GPa) = 18.48942 32.55821 25.52381
# Shear Modulus (GPa) = 23.75640 -21.36525 1.19558
#
# Velocity S-wave (km/s) = 3.45395 -3.27551 0.77484
# Velocity P-wave (km/s) = 5.01908 1.42984 3.69023
#
# Compressibility (1/GPa) = 0.05408498
#
# Stress axis : x y z
#
# Youngs Moduli (GPa) = 26.45635 24.30495 178.32893
#
# Poissons Ratio (x) = 0.30890 0.10421
# Poissons Ratio (y) = 0.33624 0.34572
# Poissons Ratio (z) = 0.01546 0.04712
#
# Static dielectric constant tensor:
#      x y z
#    x 1.758150 0.000000 0.000000 
#    y 0.000000 1.722430 0.000000 
#    z 0.000000 0.000000 1.806790 
# 
# From -- ./inp_files/3871.got.cif
#   From: 2010.05.17/outbox.cif.g08.bks.cpg/sg53_2_cif.got.tgz:3871.got - 2010.06.03 12:45:16.
