data_PCOD9414330
_publ_section_title
;
Structure prediction by ZEFSAII (Michael W. Deem and Ramdas Pophale) SiO2 
 PCOD9414330
Probable space group: P M N A
;
_chemical_formula_sum "Si O2"
_cell_formula_units_Z 28
_cell_length_a 23.066564
_cell_length_b 11.324744
_cell_length_c 5.232796
_cell_angle_alpha 90.000000
_cell_angle_beta 90.000000
_cell_angle_gamma 90.000000
_cell_volume 1366.926315
_symmetry_space_group_name_H-M "P M N A"
_symmetry_group_IT_number 53
_symmetry_cell_setting 'orthorhombic'
loop_
_space_group_symop_operation_xyz
x,y,z
1/2-x,-y,1/2+z
x,-y,-z
1/2-x,y,1/2-z
-x,-y,-z
1/2+x,y,1/2-z
-x,y,z
1/2+x,-y,1/2+z
loop_
_atom_site_type_symbol
_atom_site_label
_atom_site_fract_x
_atom_site_fract_y
_atom_site_fract_z
Si Si1 0.500000 0.581231 0.749984
Si Si2 0.188210 0.877094 0.885979
Si Si3 0.125106 0.327533 0.340420
Si Si4 0.187519 0.363887 0.845393
O O1 0.500000 0.500000 0.500000
O O2 0.440983 0.655424 0.763357
O O3 0.500000 0.500000 0.000000
O O4 0.250000 0.895533 0.750000
O O5 0.145440 0.808058 0.692821
O O6 0.195118 0.777783 0.104240
O O7 0.167378 0.000000 0.000000
O O8 0.140401 0.372894 0.621414
O O9 0.164944 0.396354 0.129828
O O10 0.250000 0.407454 0.750000
#
# Coordination Sequence:
#
# PCOD9414330 Si02
#       4
#     4   8   8   8
#     4  12  26  48  71  85 109 165 230 272 318 371
#     4  10  20  31  61  95 135 165 201 228 302 378
#     4  10  22  37  61  91 123 159 209 262 304 360
#     4  10  17  35  58  89 128 160 191 246 303 369
#
# _framework density 20.483912
#
# number of rings (size 3 to 8) (size 9 to 14) (size 15 to 20)
#    1.714    0.000    2.857    3.429    0.000    0.000 
#    0.000    0.714    0.000   30.857    0.000    0.000 
#    0.000    0.000    0.000    0.000    0.000    0.000 
#
# Total GULP energy -156234.679483 kJ/mol
# GULP energy per Si atom -5579.809982 kJ/mol
# Density = 2.043729 g / cm^3
# Si number density = 20.483912 Si / 1000 Ang^3
#
#
#
# Elastic Constant Matrix: (Units=GPa)
#
#
# Indices 1 2 3 4 5 6 
#
# 1 122.2797 8.8157 24.2964 0.0000 0.0000 0.0000
# 2 8.8157 73.0852 17.0861 0.0000 0.0000 0.0000
# 3 24.2964 17.0861 128.3823 0.0000 0.0000 0.0000
# 4 0.0000 0.0000 0.0000 38.9982 0.0000 0.0000
# 5 0.0000 0.0000 0.0000 0.0000 29.8533 0.0000
# 6 0.0000 0.0000 0.0000 0.0000 0.0000 11.1746
#
#
#
# Elastic Compliance Matrix: (Units=1/GPa)
#
#
# Indices 1 2 3 4 5 6 
#
# 1 0.008529 -0.000672 -0.001525 0.000000 0.000000 0.000000
# 2 -0.000672 0.014175 -0.001759 0.000000 0.000000 0.000000
# 3 -0.001525 -0.001759 0.008312 0.000000 0.000000 0.000000
# 4 0.000000 0.000000 0.000000 0.025642 0.000000 0.000000
# 5 0.000000 0.000000 0.000000 0.000000 0.033497 0.000000
# 6 0.000000 0.000000 0.000000 0.000000 0.000000 0.089488
#
#
# Mechanical properties :
#
#
# Convention : Reuss Voigt Hill
#
# Bulk Modulus (GPa) = 43.28321 47.12706 45.20514
# Shear Modulus (GPa) = 25.60713 34.24182 29.92447
#
# Velocity S-wave (km/s) = 3.53952 4.09301 3.82629
# Velocity P-wave (km/s) = 6.15472 6.73749 6.45269
#
# Compressibility (1/GPa) = 0.02310365
#
# Stress axis : x y z
#
# Youngs Moduli (GPa) = 117.24158 70.54647 120.30907
#
# Poissons Ratio (x) = 0.04743 0.18344
# Poissons Ratio (y) = 0.07883 0.21166
# Poissons Ratio (z) = 0.17876 0.12411
#
# Static dielectric constant tensor:
#      x y z
#    x 1.697350 0.000000 0.000000 
#    y 0.000000 1.851300 0.000000 
#    z 0.000000 0.000000 1.757790 
# 
# From -- ./inp_files/2612.got.cif
#   From: 2010.05.17/outbox.cif.g08.bks.cpg/sg53_2_cif.got.tgz:2612.got - 2010.06.03 12:45:16.
