data_PCOD9414544
_publ_section_title
;
Structure prediction by ZEFSAII (Michael W. Deem and Ramdas Pophale) SiO2 
 PCOD9414544
Probable space group: P M N A
;
_chemical_formula_sum "Si O2"
_cell_formula_units_Z 40
_cell_length_a 26.148003
_cell_length_b 8.520017
_cell_length_c 9.544178
_cell_angle_alpha 90.000000
_cell_angle_beta 90.000000
_cell_angle_gamma 90.000000
_cell_volume 2126.265624
_symmetry_space_group_name_H-M "P M N A"
_symmetry_group_IT_number 53
_symmetry_cell_setting 'orthorhombic'
loop_
_space_group_symop_operation_xyz
x,y,z
1/2-x,-y,1/2+z
x,-y,-z
1/2-x,y,1/2-z
-x,-y,-z
1/2+x,y,1/2-z
-x,y,z
1/2+x,-y,1/2+z
loop_
_atom_site_type_symbol
_atom_site_label
_atom_site_fract_x
_atom_site_fract_y
_atom_site_fract_z
Si Si1 0.608482 0.185384 0.349308
Si Si2 0.893949 0.477310 0.339531
Si Si3 0.670913 0.365406 0.594191
Si Si4 0.000000 0.765725 0.949588
Si Si5 0.295807 0.034787 0.657776
Si Si6 0.500000 0.434140 0.721963
O O1 0.604162 0.296945 0.213334
O O2 0.632199 0.285892 0.480132
O O3 0.551342 0.146920 0.400323
O O4 0.648785 0.046365 0.320313
O O5 0.878164 0.500000 0.500000
O O6 0.857741 0.555908 0.223695
O O7 0.949253 0.556692 0.314750
O O8 0.698013 0.500000 0.500000
O O9 0.701008 0.221960 0.661099
O O10 0.000000 0.596834 0.868055
O O11 0.000000 0.709921 0.111682
O O12 0.250000 0.969852 0.750000
O O13 0.281275 0.000000 0.500000
#
# Coordination Sequence:
#
# PCOD9414544 Si02
#       6
#     8   8   8   4   8   4
#     4   9  18  34  56  82 115 151 194 230 281 345
#     4  10  18  29  50  83 117 153 192 235 284 335
#     4   9  18  36  56  78 108 139 188 237 278 342
#     4   9  14  28  56  84 111 156 198 235 279 338
#     4  10  22  40  60  82 112 150 189 236 293 347
#     4   9  15  26  49  81 118 156 192 236 288 320
#
# _framework density 18.812325999999999
#
# number of rings (size 3 to 8) (size 9 to 14) (size 15 to 20)
#    0.000    2.600    2.000    0.300    0.000    1.600 
#    0.000   15.500    0.000    0.000    0.000    6.300 
#    0.000    0.000    0.000    0.000    0.000    0.000 
#
# Total GULP energy -222733.817549 kJ/mol
# GULP energy per Si atom -5568.345439 kJ/mol
# Density = 1.876951 g / cm^3
# Si number density = 18.812326 Si / 1000 Ang^3
#
#
#
# Elastic Constant Matrix: (Units=GPa)
#
#
# Indices 1 2 3 4 5 6 
#
# 1 94.8386 41.7033 33.4668 0.0000 0.0000 0.0000
# 2 41.7033 81.6218 30.2875 0.0000 0.0000 0.0000
# 3 33.4668 30.2875 82.4013 0.0000 0.0000 0.0000
# 4 0.0000 0.0000 0.0000 14.9357 0.0000 0.0000
# 5 0.0000 0.0000 0.0000 0.0000 25.3044 0.0000
# 6 0.0000 0.0000 0.0000 0.0000 0.0000 120.8215
#
#
#
# Elastic Compliance Matrix: (Units=1/GPa)
#
#
# Indices 1 2 3 4 5 6 
#
# 1 0.014497 -0.006047 -0.003665 0.000000 0.000000 0.000000
# 2 -0.006047 0.016709 -0.003686 0.000000 0.000000 0.000000
# 3 -0.003665 -0.003686 0.014979 0.000000 0.000000 0.000000
# 4 0.000000 0.000000 0.000000 0.066954 0.000000 0.000000
# 5 0.000000 0.000000 0.000000 0.000000 0.039519 0.000000
# 6 0.000000 0.000000 0.000000 0.000000 0.000000 0.008277
#
#
# Mechanical properties :
#
#
# Convention : Reuss Voigt Hill
#
# Bulk Modulus (GPa) = 51.57497 52.19745 51.88621
# Shear Modulus (GPa) = 25.74778 42.43927 34.09352
#
# Velocity S-wave (km/s) = 3.70356 4.75481 4.26173
# Velocity P-wave (km/s) = 6.76487 7.61256 7.20120
#
# Compressibility (1/GPa) = 0.01938925
#
# Stress axis : x y z
#
# Youngs Moduli (GPa) = 68.98216 59.84888 66.76011
#
# Poissons Ratio (x) = 0.36189 0.24468
# Poissons Ratio (y) = 0.41712 0.24605
# Poissons Ratio (z) = 0.25283 0.22058
#
# Static dielectric constant tensor:
#      x y z
#    x 1.689850 0.000000 0.000000 
#    y 0.000000 -0.920620 0.000000 
#    z 0.000000 0.000000 1.625810 
# 
# From -- ./inp_files/12311.got.cif
#   From: 2010.05.17/outbox.cif.g08.bks.cpg/sg53_7_cif.got.tgz:12311.got - 2010.06.03 12:45:16.
