data_PCOD9414902
_publ_section_title
;
Structure prediction by ZEFSAII (Michael W. Deem and Ramdas Pophale) SiO2 
 PCOD9414902
Probable space group: P M N A
;
_chemical_formula_sum "Si O2"
_cell_formula_units_Z 40
_cell_length_a 15.141033
_cell_length_b 15.702402
_cell_length_c 7.742338
_cell_angle_alpha 90.000000
_cell_angle_beta 90.000000
_cell_angle_gamma 90.000000
_cell_volume 1840.745403
_symmetry_space_group_name_H-M "P M N A"
_symmetry_group_IT_number 53
_symmetry_cell_setting 'orthorhombic'
loop_
_space_group_symop_operation_xyz
x,y,z
1/2-x,-y,1/2+z
x,-y,-z
1/2-x,y,1/2-z
-x,-y,-z
1/2+x,y,1/2-z
-x,y,z
1/2+x,-y,1/2+z
loop_
_atom_site_type_symbol
_atom_site_label
_atom_site_fract_x
_atom_site_fract_y
_atom_site_fract_z
Si Si1 0.500000 0.144201 0.428069
Si Si2 0.500000 0.019627 0.754100
Si Si3 0.183532 0.081807 0.593468
Si Si4 0.500000 0.396395 0.970033
Si Si5 0.143196 0.723087 0.041611
Si Si6 0.500000 0.594568 0.442603
Si Si7 0.154931 0.267756 0.540229
O O1 0.500000 0.082115 0.265975
O O2 0.411575 0.200411 0.452979
O O3 0.500000 0.076668 0.582604
O O4 0.409269 0.046913 0.840469
O O5 0.250000 0.105763 0.750000
O O6 0.158211 0.167551 0.489266
O O7 0.226971 0.000000 0.500000
O O8 0.500000 0.395243 0.762626
O O9 0.415616 0.337507 0.026636
O O10 0.500000 0.500000 0.000000
O O11 0.244672 0.707269 0.000366
O O12 0.138871 0.735748 0.250662
O O13 0.086482 0.641614 0.991738
O O14 0.500000 0.500000 0.500000
#
# Coordination Sequence:
#
# PCOD9414902 Si02
#       7
#     4   4   8   4   8   4   8
#     4  10  18  32  60  85 112 157 213 247 290 352
#     4  11  22  35  55  84 126 159 206 258 300 340
#     4  12  25  39  62  92 127 168 216 257 300 361
#     4  10  22  38  63  88 113 159 201 244 313 378
#     4   9  17  33  57  85 109 157 199 244 297 363
#     4   9  19  35  58  84 108 138 193 253 305 363
#     4  10  18  36  59  82 120 157 205 247 295 368
#
# _framework density 21.730328
#
# number of rings (size 3 to 8) (size 9 to 14) (size 15 to 20)
#    0.000    1.800    4.000    1.500    5.600    0.800 
#    0.000    4.000    0.000    0.000    0.000    0.000 
#    0.000    0.000    0.000    0.000    0.000    0.000 
#
# Total GULP energy -223000.945197 kJ/mol
# GULP energy per Si atom -5575.023630 kJ/mol
# Density = 2.168087 g / cm^3
# Si number density = 21.730328 Si / 1000 Ang^3
#
#
#
# Elastic Constant Matrix: (Units=GPa)
#
#
# Indices 1 2 3 4 5 6 
#
# 1 186.1941 97.6420 21.7127 0.0000 0.0000 0.0000
# 2 97.6420 213.2570 16.2591 0.0000 0.0000 0.0000
# 3 21.7127 16.2591 14.8726 0.0000 0.0000 0.0000
# 4 0.0000 0.0000 0.0000 30.5821 0.0000 0.0000
# 5 0.0000 0.0000 0.0000 0.0000 37.1973 0.0000
# 6 0.0000 0.0000 0.0000 0.0000 0.0000 7.5994
#
#
#
# Elastic Compliance Matrix: (Units=1/GPa)
#
#
# Indices 1 2 3 4 5 6 
#
# 1 0.007902 -0.002987 -0.008270 0.000000 0.000000 0.000000
# 2 -0.002987 0.006245 -0.002466 0.000000 0.000000 0.000000
# 3 -0.008270 -0.002466 0.082007 0.000000 0.000000 0.000000
# 4 0.000000 0.000000 0.000000 0.032699 0.000000 0.000000
# 5 0.000000 0.000000 0.000000 0.000000 0.026884 0.000000
# 6 0.000000 0.000000 0.000000 0.000000 0.000000 0.131589
#
#
# Mechanical properties :
#
#
# Convention : Reuss Voigt Hill
#
# Bulk Modulus (GPa) = 14.55448 76.17235 45.36342
# Shear Modulus (GPa) = 14.80717 33.65643 24.23180
#
# Velocity S-wave (km/s) = 2.61321 3.93978 3.34296
# Velocity P-wave (km/s) = 3.97712 7.47164 5.98510
#
# Compressibility (1/GPa) = 0.06870736
#
# Stress axis : x y z
#
# Youngs Moduli (GPa) = 126.55446 160.12861 12.19407
#
# Poissons Ratio (x) = 0.47836 0.10084
# Poissons Ratio (y) = 0.37807 0.03007
# Poissons Ratio (z) = 1.04660 0.39485
#
# Static dielectric constant tensor:
#      x y z
#    x 1.705530 0.000000 0.000000 
#    y 0.000000 1.871260 0.000000 
#    z 0.000000 0.000000 1.955620 
# 
# From -- ./inp_files/8506.got.cif
#   From: 2010.05.17/outbox.cif.g08.bks.cpg/sg53_5_cif.got.tgz:8506.got - 2010.06.03 12:45:16.
