data_PCOD9414112
_publ_section_title
;
Structure prediction by ZEFSAII (Michael W. Deem and Ramdas Pophale) SiO2 
 PCOD9414112
Probable space group: P M N A
;
_chemical_formula_sum "Si O2"
_cell_formula_units_Z 56
_cell_length_a 15.505075
_cell_length_b 18.642245
_cell_length_c 8.815602
_cell_angle_alpha 90.000000
_cell_angle_beta 90.000000
_cell_angle_gamma 90.000000
_cell_volume 2548.144530
_symmetry_space_group_name_H-M "P M N A"
_symmetry_group_IT_number 53
_symmetry_cell_setting 'orthorhombic'
loop_
_space_group_symop_operation_xyz
x,y,z
1/2-x,-y,1/2+z
x,-y,-z
1/2-x,y,1/2-z
-x,-y,-z
1/2+x,y,1/2-z
-x,y,z
1/2+x,-y,1/2+z
loop_
_atom_site_type_symbol
_atom_site_label
_atom_site_fract_x
_atom_site_fract_y
_atom_site_fract_z
Si Si1 0.404870 0.641294 0.091597
Si Si2 0.145308 0.780443 0.225251
Si Si3 0.599314 0.913852 0.637334
Si Si4 0.095257 0.428599 0.897421
Si Si5 0.601424 0.241290 0.369976
Si Si6 0.736003 0.362524 0.397796
Si Si7 0.347417 0.936669 0.299277
O O1 0.500000 0.634717 0.022682
O O2 0.397408 0.715848 0.183943
O O3 0.394689 0.576907 0.215568
O O4 0.328303 0.646103 0.973368
O O5 0.250000 0.775473 0.250000
O O6 0.118700 0.861749 0.269425
O O7 0.117316 0.770956 0.050204
O O8 0.500000 0.908625 0.587686
O O9 0.620100 0.836355 0.706756
O O10 0.650783 0.924285 0.481132
O O11 0.608671 0.986835 0.731509
O O12 0.000000 0.394651 0.923447
O O13 0.093189 0.500000 0.000000
O O14 0.175802 0.388430 0.966799
O O15 0.500000 0.259726 0.342753
O O16 0.674620 0.298960 0.330762
O O17 0.750000 0.412280 0.250000
O O18 0.250000 0.944658 0.250000
#
# Coordination Sequence:
#
# PCOD9414112 Si02
#       7
#     8   8   8   8   8   8   8
#     4  11  22  39  65  95 128 165 207 260 311 364
#     4  10  16  30  56  85 117 148 201 260 314 368
#     4   9  18  32  49  74 108 143 191 249 307 369
#     4  10  22  43  71  98 124 159 204 251 302 360
#     4  10  19  34  57  81 111 158 209 259 309 366
#     4  12  25  39  60  92 131 171 206 252 304 374
#     4   9  17  26  47  78 107 140 187 247 307 366
#
# _framework density 21.976776999999998
#
# number of rings (size 3 to 8) (size 9 to 14) (size 15 to 20)
#    0.000    1.857    2.857    2.143    0.000    4.571 
#    0.000    0.000    0.000    3.000    0.000    8.000 
#    0.000    0.000    0.000    0.000    0.000    0.000 
#
# Total GULP energy -311859.864315 kJ/mol
# GULP energy per Si atom -5568.926148 kJ/mol
# Density = 2.192676 g / cm^3
# Si number density = 21.976777 Si / 1000 Ang^3
#
#
#
# Elastic Constant Matrix: (Units=GPa)
#
#
# Indices 1 2 3 4 5 6 
#
# 1 153.5142 31.6720 41.2988 0.0000 0.0000 0.0000
# 2 31.6720 66.1132 11.5110 0.0000 0.0000 0.0000
# 3 41.2988 11.5110 56.1421 0.0000 0.0000 0.0000
# 4 0.0000 0.0000 0.0000 1.7426 0.0000 0.0000
# 5 0.0000 0.0000 0.0000 0.0000 14.8897 0.0000
# 6 0.0000 0.0000 0.0000 0.0000 0.0000 -13.4153
#
#
#
# Elastic Compliance Matrix: (Units=1/GPa)
#
#
# Indices 1 2 3 4 5 6 
#
# 1 0.008719 -0.003174 -0.005763 0.000000 0.000000 0.000000
# 2 -0.003174 0.016841 -0.001118 0.000000 0.000000 0.000000
# 3 -0.005763 -0.001118 0.022281 0.000000 0.000000 0.000000
# 4 0.000000 0.000000 0.000000 0.573845 0.000000 0.000000
# 5 0.000000 0.000000 0.000000 0.000000 0.067161 0.000000
# 6 0.000000 0.000000 0.000000 0.000000 0.000000 -0.074542
#
#
# Mechanical properties :
#
#
# Convention : Reuss Voigt Hill
#
# Bulk Modulus (GPa) = 36.06179 49.41478 42.73828
# Shear Modulus (GPa) = 7.76809 13.39591 10.58200
#
# Velocity S-wave (km/s) = 1.88211 2.47158 2.19671
# Velocity P-wave (km/s) = 4.60085 5.53884 5.09149
#
# Compressibility (1/GPa) = 0.02773018
#
# Stress axis : x y z
#
# Youngs Moduli (GPa) = 114.68864 59.38022 44.88167
#
# Poissons Ratio (x) = 0.18845 0.25867
# Poissons Ratio (y) = 0.36397 0.05020
# Poissons Ratio (z) = 0.66098 0.06641
#
# Static dielectric constant tensor:
#      x y z
#    x 1.806650 0.000000 0.000000 
#    y 0.000000 1.943520 0.000000 
#    z 0.000000 0.000000 1.798510 
# 
# From -- ./inp_files/8850.got.cif
#   From: 2010.05.17/outbox.cif.g08.bks.cpg/sg53_5_cif.got.tgz:8850.got - 2010.06.03 12:45:16.
