data_PCOD9414667
_publ_section_title
;
Structure prediction by ZEFSAII (Michael W. Deem and Ramdas Pophale) SiO2 
 PCOD9414667
Probable space group: P M N A
;
_chemical_formula_sum "Si O2"
_cell_formula_units_Z 44
_cell_length_a 14.070915
_cell_length_b 16.216328
_cell_length_c 10.723505
_cell_angle_alpha 90.000000
_cell_angle_beta 90.000000
_cell_angle_gamma 90.000000
_cell_volume 2446.874067
_symmetry_space_group_name_H-M "P M N A"
_symmetry_group_IT_number 53
_symmetry_cell_setting 'orthorhombic'
loop_
_space_group_symop_operation_xyz
x,y,z
1/2-x,-y,1/2+z
x,-y,-z
1/2-x,y,1/2-z
-x,-y,-z
1/2+x,y,1/2-z
-x,y,z
1/2+x,-y,1/2+z
loop_
_atom_site_type_symbol
_atom_site_label
_atom_site_fract_x
_atom_site_fract_y
_atom_site_fract_z
Si Si1 0.250000 0.653054 0.750000
Si Si2 0.883881 0.061739 0.613297
Si Si3 0.388699 0.232540 0.985444
Si Si4 0.611811 0.408301 0.051219
Si Si5 0.611035 0.213204 0.285911
Si Si6 0.884455 0.968710 0.864481
O O1 0.320952 0.599595 0.830497
O O2 0.318825 0.714420 0.672158
O O3 0.846266 0.153866 0.585581
O O4 0.000000 0.064395 0.612327
O O5 0.858986 0.000000 0.500000
O O6 0.856258 0.024728 0.746924
O O7 0.500000 0.232456 0.951927
O O8 0.358390 0.327952 0.968836
O O9 0.383287 0.213978 0.134422
O O10 0.500000 0.394882 0.082222
O O11 0.620485 0.500000 0.000000
O O12 0.500000 0.226455 0.317930
O O13 0.643727 0.125394 0.337531
O O14 0.000000 0.968266 0.864497
O O15 0.853932 0.000000 0.000000
#
# Coordination Sequence:
#
# PCOD9414667 Si02
#       6
#     4   8   8   8   8   8
#     4  10  18  30  56  78 100 132 168 220 270 318
#     4   9  13  20  39  67  95 125 168 215 249 292
#     4   8  13  23  43  71  94 118 164 218 259 296
#     4   9  18  33  55  81 105 133 174 225 277 324
#     4   9  16  28  47  72  99 131 173 213 256 316
#     4   9  16  25  41  65  98 139 175 208 257 313
#
# _framework density 17.982126000000001
#
# number of rings (size 3 to 8) (size 9 to 14) (size 15 to 20)
#    0.000    3.091    1.818    1.636    0.000    0.000 
#    0.000    0.000   12.000    2.182    0.000    0.000 
#    0.000    0.000    0.000    0.000    0.000    0.000 
#
# Total GULP energy -245004.176179 kJ/mol
# GULP energy per Si atom -5568.276731 kJ/mol
# Density = 1.794120 g / cm^3
# Si number density = 17.982126 Si / 1000 Ang^3
#
#
#
# Elastic Constant Matrix: (Units=GPa)
#
#
# Indices 1 2 3 4 5 6 
#
# 1 78.5472 43.6921 17.5856 0.0000 0.0000 0.0000
# 2 43.6921 162.9671 66.6127 0.0000 0.0000 0.0000
# 3 17.5856 66.6127 82.6056 0.0000 0.0000 0.0000
# 4 0.0000 0.0000 0.0000 23.7891 0.0000 0.0000
# 5 0.0000 0.0000 0.0000 0.0000 -0.9134 0.0000
# 6 0.0000 0.0000 0.0000 0.0000 0.0000 8.5403
#
#
#
# Elastic Compliance Matrix: (Units=1/GPa)
#
#
# Indices 1 2 3 4 5 6 
#
# 1 0.014963 -0.004042 0.000074 0.000000 0.000000 0.000000
# 2 -0.004042 0.010245 -0.007401 0.000000 0.000000 0.000000
# 3 0.000074 -0.007401 0.018058 0.000000 0.000000 0.000000
# 4 0.000000 0.000000 0.000000 0.042036 0.000000 0.000000
# 5 0.000000 0.000000 0.000000 0.000000 -1.094808 0.000000
# 6 0.000000 0.000000 0.000000 0.000000 0.000000 0.117091
#
#
# Mechanical properties :
#
#
# Convention : Reuss Voigt Hill
#
# Bulk Modulus (GPa) = 48.71365 64.43341 56.57353
# Shear Modulus (GPa) = -5.79486 19.36518 6.78516
#
# Velocity S-wave (km/s) = -1.79710 3.28519 1.94460
# Velocity P-wave (km/s) = 4.77941 7.09223 6.04742
#
# Compressibility (1/GPa) = 0.02052813
#
# Stress axis : x y z
#
# Youngs Moduli (GPa) = 66.83178 97.60837 55.37662
#
# Poissons Ratio (x) = 0.39452 -0.00409
# Poissons Ratio (y) = 0.27012 0.40985
# Poissons Ratio (z) = -0.00494 0.72241
#
# Static dielectric constant tensor:
#      x y z
#    x 1.658290 0.000000 0.000000 
#    y 0.000000 1.643880 0.000000 
#    z 0.000000 0.000000 1.604790 
# 
# From -- ./inp_files/8566.got.cif
#   From: 2010.05.17/outbox.cif.g08.bks.cpg/sg53_5_cif.got.tgz:8566.got - 2010.06.03 12:45:16.
