data_PCOD9414719
_publ_section_title
;
Structure prediction by ZEFSAII (Michael W. Deem and Ramdas Pophale) SiO2 
 PCOD9414719
Probable space group: P M N A
;
_chemical_formula_sum "Si O2"
_cell_formula_units_Z 64
_cell_length_a 8.967306
_cell_length_b 12.675544
_cell_length_c 28.581179
_cell_angle_alpha 90.000000
_cell_angle_beta 90.000000
_cell_angle_gamma 90.000000
_cell_volume 3248.693480
_symmetry_space_group_name_H-M "P M N A"
_symmetry_group_IT_number 53
_symmetry_cell_setting 'orthorhombic'
loop_
_space_group_symop_operation_xyz
x,y,z
1/2-x,-y,1/2+z
x,-y,-z
1/2-x,y,1/2-z
-x,-y,-z
1/2+x,y,1/2-z
-x,y,z
1/2+x,-y,1/2+z
loop_
_atom_site_type_symbol
_atom_site_label
_atom_site_fract_x
_atom_site_fract_y
_atom_site_fract_z
Si Si1 0.180546 0.620190 0.373909
Si Si2 0.321091 0.819258 0.942280
Si Si3 0.669929 0.999141 0.679741
Si Si4 0.171058 0.038693 0.931972
Si Si5 0.820036 0.257689 0.538982
Si Si6 0.321314 0.784140 0.834305
Si Si7 0.676377 0.212634 0.796059
Si Si8 0.180135 0.552090 0.700336
O O1 0.232768 0.649480 0.426187
O O2 0.218374 0.721189 0.341814
O O3 0.231112 0.519993 0.343532
O O4 0.000000 0.611322 0.376188
O O5 0.500000 0.834080 0.943380
O O6 0.283067 0.782037 0.889886
O O7 0.245501 0.932377 0.951843
O O8 0.279820 0.739663 0.984104
O O9 0.500000 0.005970 0.696760
O O10 0.738515 0.884186 0.687637
O O11 0.670601 0.018608 0.623824
O O12 0.767834 0.093571 0.699469
O O13 0.259822 0.145206 0.942831
O O14 0.000000 0.049778 0.947382
O O15 0.000000 0.255509 0.541801
O O16 0.500000 0.799510 0.830940
O O17 0.282478 0.673484 0.810840
O O18 0.750000 0.260733 0.750000
O O19 0.500000 0.216348 0.791511
O O20 0.250000 0.521198 0.750000
O O21 0.000000 0.542664 0.703480
#
# Coordination Sequence:
#
# PCOD9414719 Si02
#       8
#     8   8   8   8   8   8   8   8
#     4   9  19  35  55  79 107 139 175 221 270 316
#     4   9  18  31  50  76 106 144 184 216 258 319
#     4  10  20  34  52  77 108 141 177 217 265 321
#     4  10  19  30  47  74 109 144 179 220 260 305
#     4  10  18  31  51  75 106 144 182 215 257 320
#     4   9  19  36  56  78 108 142 178 224 273 318
#     4  11  21  34  53  76 106 140 173 215 271 329
#     4  10  21  39  61  82 104 135 179 227 274 323
#
# _framework density 19.700229
#
# number of rings (size 3 to 8) (size 9 to 14) (size 15 to 20)
#    0.000    2.250    1.250    1.875    0.000    4.000 
#    0.000    3.125    0.000    3.750    0.000    0.000 
#    0.000    6.000    0.000    0.000    0.000    0.000 
#
# Total GULP energy -357118.855940 kJ/mol
# GULP energy per Si atom -5579.982124 kJ/mol
# Density = 1.965539 g / cm^3
# Si number density = 19.700229 Si / 1000 Ang^3
#
#
#
# Elastic Constant Matrix: (Units=GPa)
#
#
# Indices 1 2 3 4 5 6 
#
# 1 14.6838 11.1668 9.7778 0.0000 0.0000 0.0000
# 2 11.1668 70.0518 0.4253 0.0000 0.0000 0.0000
# 3 9.7778 0.4253 41.3108 0.0000 0.0000 0.0000
# 4 0.0000 0.0000 0.0000 -8.1868 0.0000 0.0000
# 5 0.0000 0.0000 0.0000 0.0000 20.7539 0.0000
# 6 0.0000 0.0000 0.0000 0.0000 0.0000 2.5173
#
#
#
# Elastic Compliance Matrix: (Units=1/GPa)
#
#
# Indices 1 2 3 4 5 6 
#
# 1 0.094151 -0.014874 -0.022131 0.000000 0.000000 0.000000
# 2 -0.014874 0.016626 0.003349 0.000000 0.000000 0.000000
# 3 -0.022131 0.003349 0.029411 0.000000 0.000000 0.000000
# 4 0.000000 0.000000 0.000000 -0.122149 0.000000 0.000000
# 5 0.000000 0.000000 0.000000 0.000000 0.048184 0.000000
# 6 0.000000 0.000000 0.000000 0.000000 0.000000 0.397250
#
#
# Mechanical properties :
#
#
# Convention : Reuss Voigt Hill
#
# Bulk Modulus (GPa) = 13.72210 18.75404 16.23807
# Shear Modulus (GPa) = 9.00777 9.99532 9.50154
#
# Velocity S-wave (km/s) = 2.14064 2.25493 2.19853
# Velocity P-wave (km/s) = 3.61806 4.03980 3.83473
#
# Compressibility (1/GPa) = 0.07287517
#
# Stress axis : x y z
#
# Youngs Moduli (GPa) = 10.62122 60.14719 34.00145
#
# Poissons Ratio (x) = 0.89464 0.75250
# Poissons Ratio (y) = 0.15798 -0.11388
# Poissons Ratio (z) = 0.23506 -0.20146
#
# Static dielectric constant tensor:
#      x y z
#    x 1.666360 0.000000 0.000000 
#    y 0.000000 1.665830 0.000000 
#    z 0.000000 0.000000 1.775380 
# 
# From -- ./inp_files/38128.got.cif
#   From: 2010.05.17/outbox.cif.g08.bks.cpg/sg53_20_cif.got.tgz:38128.got - 2010.06.03 12:45:16.
