data_PCOD9414857
_publ_section_title
;
Structure prediction by ZEFSAII (Michael W. Deem and Ramdas Pophale) SiO2 
 PCOD9414857
Probable space group: P M N A
;
_chemical_formula_sum "Si O2"
_cell_formula_units_Z 52
_cell_length_a 22.547267
_cell_length_b 14.552736
_cell_length_c 9.208925
_cell_angle_alpha 90.000000
_cell_angle_beta 90.000000
_cell_angle_gamma 90.000000
_cell_volume 3021.673213
_symmetry_space_group_name_H-M "P M N A"
_symmetry_group_IT_number 53
_symmetry_cell_setting 'orthorhombic'
loop_
_space_group_symop_operation_xyz
x,y,z
1/2-x,-y,1/2+z
x,-y,-z
1/2-x,y,1/2-z
-x,-y,-z
1/2+x,y,1/2-z
-x,y,z
1/2+x,-y,1/2+z
loop_
_atom_site_type_symbol
_atom_site_label
_atom_site_fract_x
_atom_site_fract_y
_atom_site_fract_z
Si Si1 0.348090 0.246974 0.564577
Si Si2 0.643322 0.612106 0.991170
Si Si3 0.929871 0.248731 0.678727
Si Si4 0.768839 0.587392 0.094044
Si Si5 0.347457 0.101945 0.978784
Si Si6 0.320724 0.753828 0.766916
Si Si7 0.250000 0.864348 0.250000
O O1 0.408565 0.239965 0.654305
O O2 0.325592 0.350529 0.584135
O O3 0.345546 0.224511 0.394208
O O4 0.297367 0.192712 0.654683
O O5 0.644548 0.665254 0.836075
O O6 0.639518 0.500000 0.000000
O O7 0.596969 0.660354 0.099342
O O8 0.709593 0.640078 0.044047
O O9 0.896353 0.165847 0.597392
O O10 0.000000 0.246177 0.664352
O O11 0.750000 0.553353 0.250000
O O12 0.778572 0.500000 0.000000
O O13 0.291241 0.087896 0.870352
O O14 0.328615 0.160417 0.121818
O O15 0.371648 0.000000 0.000000
O O16 0.250000 0.734156 0.750000
#
# Coordination Sequence:
#
# PCOD9414857 Si02
#       7
#     8   8   8   8   8   8   4
#     4  11  19  34  52  79 115 146 193 229 285 346
#     4  10  21  34  55  87 116 151 194 233 291 349
#     4  10  22  42  60  76 112 163 206 243 275 320
#     4  11  20  29  49  82 117 147 180 235 292 349
#     4  10  22  37  59  91 116 149 187 232 294 354
#     4  11  20  34  56  87 121 148 175 229 296 357
#     4  10  18  32  54  78 118 146 170 226 292 360
#
# _framework density 17.209008000000001
#
# number of rings (size 3 to 8) (size 9 to 14) (size 15 to 20)
#    0.000    1.538    5.385    0.923    5.385    0.615 
#    0.000    5.385    0.000    4.154    0.000    0.000 
#    0.000    0.000    0.000    0.000    0.000    0.000 
#
# Total GULP energy -289561.552343 kJ/mol
# GULP energy per Si atom -5568.491391 kJ/mol
# Density = 1.716984 g / cm^3
# Si number density = 17.209008 Si / 1000 Ang^3
#
#
#
# Elastic Constant Matrix: (Units=GPa)
#
#
# Indices 1 2 3 4 5 6 
#
# 1 82.8629 30.1041 15.4022 0.0000 0.0000 0.0000
# 2 30.1041 82.9551 44.5692 0.0000 0.0000 0.0000
# 3 15.4022 44.5692 124.2687 0.0000 0.0000 0.0000
# 4 0.0000 0.0000 0.0000 13.3060 0.0000 0.0000
# 5 0.0000 0.0000 0.0000 0.0000 15.9061 0.0000
# 6 0.0000 0.0000 0.0000 0.0000 0.0000 10.3481
#
#
#
# Elastic Compliance Matrix: (Units=1/GPa)
#
#
# Indices 1 2 3 4 5 6 
#
# 1 0.013902 -0.005102 0.000107 0.000000 0.000000 0.000000
# 2 -0.005102 0.016805 -0.005395 0.000000 0.000000 0.000000
# 3 0.000107 -0.005395 0.009969 0.000000 0.000000 0.000000
# 4 0.000000 0.000000 0.000000 0.075154 0.000000 0.000000
# 5 0.000000 0.000000 0.000000 0.000000 0.062869 0.000000
# 6 0.000000 0.000000 0.000000 0.000000 0.000000 0.096636
#
#
# Mechanical properties :
#
#
# Convention : Reuss Voigt Hill
#
# Bulk Modulus (GPa) = 50.26371 52.24865 51.25618
# Shear Modulus (GPa) = 16.51547 21.24611 18.88079
#
# Velocity S-wave (km/s) = 3.10126 3.51749 3.31591
# Velocity P-wave (km/s) = 6.48806 6.85012 6.67155
#
# Compressibility (1/GPa) = 0.01989507
#
# Stress axis : x y z
#
# Youngs Moduli (GPa) = 71.93225 59.50701 100.31476
#
# Poissons Ratio (x) = 0.30363 -0.01073
# Poissons Ratio (y) = 0.36703 0.54116
# Poissons Ratio (z) = -0.00769 0.32102
#
# Static dielectric constant tensor:
#      x y z
#    x 1.553880 0.000000 0.000000 
#    y 0.000000 1.609440 0.000000 
#    z 0.000000 0.000000 1.650540 
# 
# From -- ./inp_files/10969.got.cif
#   From: 2010.05.17/outbox.cif.g08.bks.cpg/sg53_6_cif.got.tgz:10969.got - 2010.06.03 12:45:16.
