data_PCOD9414811
_publ_section_title
;
Structure prediction by ZEFSAII (Michael W. Deem and Ramdas Pophale) SiO2 
 PCOD9414811
Probable space group: P M N A
;
_chemical_formula_sum "Si O2"
_cell_formula_units_Z 64
_cell_length_a 8.522500
_cell_length_b 12.312526
_cell_length_c 32.846848
_cell_angle_alpha 90.000000
_cell_angle_beta 90.000000
_cell_angle_gamma 90.000000
_cell_volume 3446.734818
_symmetry_space_group_name_H-M "P M N A"
_symmetry_group_IT_number 53
_symmetry_cell_setting 'orthorhombic'
loop_
_space_group_symop_operation_xyz
x,y,z
1/2-x,-y,1/2+z
x,-y,-z
1/2-x,y,1/2-z
-x,-y,-z
1/2+x,y,1/2-z
-x,y,z
1/2+x,-y,1/2+z
loop_
_atom_site_type_symbol
_atom_site_label
_atom_site_fract_x
_atom_site_fract_y
_atom_site_fract_z
Si Si1 0.311848 0.323098 0.705501
Si Si2 0.817593 0.751309 0.919119
Si Si3 0.690484 0.855046 0.082053
Si Si4 0.187369 0.062599 0.369504
Si Si5 0.187816 0.930188 0.206066
Si Si6 0.311550 0.365707 0.879451
Si Si7 0.190448 0.482147 0.047604
Si Si8 0.182744 0.870976 0.506486
O O1 0.250000 0.358943 0.750000
O O2 0.500000 0.325778 0.705872
O O3 0.259882 0.196036 0.700737
O O4 0.251231 0.388826 0.666021
O O5 0.741457 0.817489 0.881986
O O6 0.756452 0.634890 0.934585
O O7 0.788557 0.828999 0.957610
O O8 0.000000 0.738286 0.910121
O O9 0.500000 0.859588 0.080705
O O10 0.737668 0.758791 0.111589
O O11 0.743944 0.972393 0.097393
O O12 0.738902 0.824889 0.036577
O O13 0.000000 0.061407 0.369980
O O14 0.247210 0.011656 0.327680
O O15 0.250000 0.964315 0.250000
O O16 0.000000 0.930930 0.204862
O O17 0.500000 0.372367 0.879149
O O18 0.249500 0.433575 0.918126
O O19 0.000000 0.484761 0.047018
O O20 0.240912 0.500000 0.000000
O O21 0.000000 0.841379 0.514896
O O22 0.185073 0.000000 0.500000
#
# Coordination Sequence:
#
# PCOD9414811 Si02
#       8
#     8   8   8   8   8   8   8   8
#     4  10  20  34  55  85 121 156 190 233 287 344
#     4  11  23  37  54  80 110 144 190 239 282 337
#     4   9  18  31  49  77 110 143 180 225 276 331
#     4  11  20  35  56  79 113 150 184 228 281 339
#     4  10  20  34  54  84 119 156 191 228 277 340
#     4  11  21  35  58  85 114 149 195 242 287 343
#     4  10  23  43  61  79 111 155 200 248 300 348
#     4  10  18  32  51  73 104 144 181 221 275 330
#
# _framework density 18.568299
#
# number of rings (size 3 to 8) (size 9 to 14) (size 15 to 20)
#    0.000    1.750    2.500    2.625    0.000    2.500 
#    0.000    0.625    0.000    0.750    0.000    0.000 
#    0.000    0.000    0.000    0.000    0.000    0.000 
#
# Total GULP energy -356869.443663 kJ/mol
# GULP energy per Si atom -5576.085057 kJ/mol
# Density = 1.852604 g / cm^3
# Si number density = 18.568299 Si / 1000 Ang^3
#
#
#
# Elastic Constant Matrix: (Units=GPa)
#
#
# Indices 1 2 3 4 5 6 
#
# 1 27.1866 19.3978 21.5129 0.0000 0.0000 0.0000
# 2 19.3978 77.0058 41.1209 0.0000 0.0000 0.0000
# 3 21.5129 41.1209 140.9685 0.0000 0.0000 0.0000
# 4 0.0000 0.0000 0.0000 35.2012 0.0000 0.0000
# 5 0.0000 0.0000 0.0000 0.0000 29.6078 0.0000
# 6 0.0000 0.0000 0.0000 0.0000 0.0000 26.4692
#
#
#
# Elastic Compliance Matrix: (Units=1/GPa)
#
#
# Indices 1 2 3 4 5 6 
#
# 1 0.047048 -0.009497 -0.004410 0.000000 0.000000 0.000000
# 2 -0.009497 0.017299 -0.003597 0.000000 0.000000 0.000000
# 3 -0.004410 -0.003597 0.008816 0.000000 0.000000 0.000000
# 4 0.000000 0.000000 0.000000 0.028408 0.000000 0.000000
# 5 0.000000 0.000000 0.000000 0.000000 0.033775 0.000000
# 6 0.000000 0.000000 0.000000 0.000000 0.000000 0.037780
#
#
# Mechanical properties :
#
#
# Convention : Reuss Voigt Hill
#
# Bulk Modulus (GPa) = 26.20785 45.46933 35.83859
# Shear Modulus (GPa) = 22.63968 29.13093 25.88531
#
# Velocity S-wave (km/s) = 3.49559 3.96517 3.73776
# Velocity P-wave (km/s) = 5.51698 6.74568 6.16203
#
# Compressibility (1/GPa) = 0.03815651
#
# Stress axis : x y z
#
# Youngs Moduli (GPa) = 21.25485 57.80685 113.43064
#
# Poissons Ratio (x) = 0.54897 0.50019
# Poissons Ratio (y) = 0.20185 0.40800
# Poissons Ratio (z) = 0.09373 0.20793
#
# Static dielectric constant tensor:
#      x y z
#    x 1.635170 0.000000 0.000000 
#    y 0.000000 1.661230 0.000000 
#    z 0.000000 0.000000 1.662210 
# 
# From -- ./inp_files/38231.got.cif
#   From: 2010.05.17/outbox.cif.g08.bks.cpg/sg53_20_cif.got.tgz:38231.got - 2010.06.03 12:45:16.
