data_PCOD9414781
_publ_section_title
;
Structure prediction by ZEFSAII (Michael W. Deem and Ramdas Pophale) SiO2 
 PCOD9414781
Probable space group: P M N A
;
_chemical_formula_sum "Si O2"
_cell_formula_units_Z 36
_cell_length_a 16.646649
_cell_length_b 13.894915
_cell_length_c 7.157182
_cell_angle_alpha 90.000000
_cell_angle_beta 90.000000
_cell_angle_gamma 90.000000
_cell_volume 1655.483200
_symmetry_space_group_name_H-M "P M N A"
_symmetry_group_IT_number 53
_symmetry_cell_setting 'orthorhombic'
loop_
_space_group_symop_operation_xyz
x,y,z
1/2-x,-y,1/2+z
x,-y,-z
1/2-x,y,1/2-z
-x,-y,-z
1/2+x,y,1/2-z
-x,y,z
1/2+x,-y,1/2+z
loop_
_atom_site_type_symbol
_atom_site_label
_atom_site_fract_x
_atom_site_fract_y
_atom_site_fract_z
Si Si1 0.316742 0.092679 0.400918
Si Si2 0.250000 0.789466 0.250000
Si Si3 0.089298 0.676529 0.270617
Si Si4 0.909326 0.279669 0.175676
Si Si5 0.656282 0.519071 0.718907
O O1 0.250000 0.061702 0.250000
O O2 0.371475 0.174204 0.304665
O O3 0.357099 0.000000 0.500000
O O4 0.276248 0.852064 0.426285
O O5 0.172600 0.729161 0.321712
O O6 0.103201 0.563848 0.312457
O O7 0.000000 0.707066 0.335548
O O8 0.088662 0.696799 0.046416
O O9 0.862757 0.370182 0.263474
O O10 0.000000 0.280570 0.243161
O O11 0.640962 0.500000 0.500000
O O12 0.750000 0.500044 0.750000
#
# Coordination Sequence:
#
# PCOD9414781 Si02
#       5
#     8   4   8   8   8
#     4  11  22  39  63  86 111 152 201 249 301 356
#     4  10  20  38  62  88 120 156 198 238 298 358
#     4   9  17  32  57  86 117 154 194 236 285 352
#     4   9  19  34  55  84 114 150 192 244 298 348
#     4  10  18  31  54  83 115 153 195 231 284 349
#
# _framework density 21.745918
#
# number of rings (size 3 to 8) (size 9 to 14) (size 15 to 20)
#    0.000    2.222    2.222    1.333    0.000    3.111 
#    0.000    1.111    0.000    2.667    0.000    0.000 
#    0.000    0.000    0.000    0.000    0.000    0.000 
#
# Total GULP energy -200815.525277 kJ/mol
# GULP energy per Si atom -5578.209035 kJ/mol
# Density = 2.169642 g / cm^3
# Si number density = 21.745918 Si / 1000 Ang^3
#
#
#
# Elastic Constant Matrix: (Units=GPa)
#
#
# Indices 1 2 3 4 5 6 
#
# 1 109.6695 44.6722 -6.6364 0.0000 0.0000 0.0000
# 2 44.6722 129.1278 10.8883 0.0000 0.0000 0.0000
# 3 -6.6364 10.8883 63.6170 0.0000 0.0000 0.0000
# 4 0.0000 0.0000 0.0000 24.6486 0.0000 0.0000
# 5 0.0000 0.0000 0.0000 0.0000 0.9569 0.0000
# 6 0.0000 0.0000 0.0000 0.0000 0.0000 15.1143
#
#
#
# Elastic Compliance Matrix: (Units=1/GPa)
#
#
# Indices 1 2 3 4 5 6 
#
# 1 0.010812 -0.003892 0.001794 0.000000 0.000000 0.000000
# 2 -0.003892 0.009258 -0.001991 0.000000 0.000000 0.000000
# 3 0.001794 -0.001991 0.016247 0.000000 0.000000 0.000000
# 4 0.000000 0.000000 0.000000 0.040570 0.000000 0.000000
# 5 0.000000 0.000000 0.000000 0.000000 1.045091 0.000000
# 6 0.000000 0.000000 0.000000 0.000000 0.000000 0.066162
#
#
# Mechanical properties :
#
#
# Convention : Reuss Voigt Hill
#
# Bulk Modulus (GPa) = 35.53567 44.47362 40.00464
# Shear Modulus (GPa) = 4.14697 25.04330 14.59514
#
# Velocity S-wave (km/s) = 1.38244 3.39725 2.59350
# Velocity P-wave (km/s) = 4.35029 5.99035 5.23494
#
# Compressibility (1/GPa) = 0.02814074
#
# Stress axis : x y z
#
# Youngs Moduli (GPa) = 92.48887 108.00903 61.55016
#
# Poissons Ratio (x) = 0.42034 -0.11042
# Poissons Ratio (y) = 0.35994 0.12252
# Poissons Ratio (z) = -0.16592 0.21500
#
# Static dielectric constant tensor:
#      x y z
#    x 1.775380 0.000000 0.000000 
#    y 0.000000 1.818070 0.000000 
#    z 0.000000 0.000000 1.814740 
# 
# From -- ./inp_files/15698.got.cif
#   From: 2010.05.17/outbox.cif.g08.bks.cpg/sg53_8_cif.got.tgz:15698.got - 2010.06.03 12:45:16.
