data_PCOD9414437
_publ_section_title
;
Structure prediction by ZEFSAII (Michael W. Deem and Ramdas Pophale) SiO2 
 PCOD9414437
Probable space group: P M N A
;
_chemical_formula_sum "Si O2"
_cell_formula_units_Z 48
_cell_length_a 9.204418
_cell_length_b 10.499767
_cell_length_c 30.764588
_cell_angle_alpha 90.000000
_cell_angle_beta 90.000000
_cell_angle_gamma 90.000000
_cell_volume 2973.220361
_symmetry_space_group_name_H-M "P M N A"
_symmetry_group_IT_number 53
_symmetry_cell_setting 'orthorhombic'
loop_
_space_group_symop_operation_xyz
x,y,z
1/2-x,-y,1/2+z
x,-y,-z
1/2-x,y,1/2-z
-x,-y,-z
1/2+x,y,1/2-z
-x,y,z
1/2+x,-y,1/2+z
loop_
_atom_site_type_symbol
_atom_site_label
_atom_site_fract_x
_atom_site_fract_y
_atom_site_fract_z
Si Si1 0.831588 0.521652 0.706424
Si Si2 0.333598 0.788883 0.207225
Si Si3 0.674446 0.135715 0.981240
Si Si4 0.175747 0.237108 0.612377
Si Si5 0.173257 0.627328 0.973730
Si Si6 0.673574 0.489374 0.381652
O O1 0.750000 0.564801 0.750000
O O2 0.829542 0.366268 0.707161
O O3 0.747168 0.558597 0.662688
O O4 0.000000 0.560416 0.705648
O O5 0.250000 0.832835 0.250000
O O6 0.500000 0.829144 0.211082
O O7 0.279639 0.823040 0.158834
O O8 0.500000 0.143858 0.985716
O O9 0.707864 0.154607 0.930150
O O10 0.745700 0.251330 0.007358
O O11 0.722354 0.000000 0.000000
O O12 0.255563 0.372809 0.608283
O O13 0.000000 0.258270 0.614583
O O14 0.200809 0.600223 0.923011
O O15 0.000000 0.642812 0.979930
O O16 0.217137 0.500000 0.000000
O O17 0.500000 0.503876 0.376076
#
# Coordination Sequence:
#
# PCOD9414437 Si02
#       6
#     8   8   8   8   8   8
#     4   9  16  26  40  62  94 127 159 193 241 293
#     4   8  14  23  36  57  85 116 147 182 226 278
#     4  10  21  35  51  72  97 128 167 209 254 303
#     4   9  17  29  44  64  93 125 156 195 245 294
#     4  10  20  34  50  72  99 129 166 205 247 296
#     4  10  18  28  45  68  95 125 162 203 243 290
#
# _framework density 16.144110000000001
#
# number of rings (size 3 to 8) (size 9 to 14) (size 15 to 20)
#    0.000    2.667    1.667    2.000    0.000    6.000 
#    0.000    0.000    0.000    0.000    0.000    1.167 
#    0.000    5.333    0.000    0.000    0.000    0.000 
#
# Total GULP energy -267374.256848 kJ/mol
# GULP energy per Si atom -5570.297018 kJ/mol
# Density = 1.610737 g / cm^3
# Si number density = 16.144110 Si / 1000 Ang^3
#
#
#
# Elastic Constant Matrix: (Units=GPa)
#
#
# Indices 1 2 3 4 5 6 
#
# 1 53.3967 28.4611 70.3118 0.0000 0.0000 0.0000
# 2 28.4611 66.8090 59.3657 0.0000 0.0000 0.0000
# 3 70.3118 59.3657 179.8083 0.0000 0.0000 0.0000
# 4 0.0000 0.0000 0.0000 11.3672 0.0000 0.0000
# 5 0.0000 0.0000 0.0000 0.0000 30.1848 0.0000
# 6 0.0000 0.0000 0.0000 0.0000 0.0000 14.1010
#
#
#
# Elastic Compliance Matrix: (Units=1/GPa)
#
#
# Indices 1 2 3 4 5 6 
#
# 1 0.039496 -0.004390 -0.013995 0.000000 0.000000 0.000000
# 2 -0.004390 0.021670 -0.005438 0.000000 0.000000 0.000000
# 3 -0.013995 -0.005438 0.012830 0.000000 0.000000 0.000000
# 4 0.000000 0.000000 0.000000 0.087973 0.000000 0.000000
# 5 0.000000 0.000000 0.000000 0.000000 0.033129 0.000000
# 6 0.000000 0.000000 0.000000 0.000000 0.000000 0.070917
#
#
# Mechanical properties :
#
#
# Convention : Reuss Voigt Hill
#
# Bulk Modulus (GPa) = 37.95064 68.47678 53.21371
# Shear Modulus (GPa) = 15.50655 20.58894 18.04775
#
# Velocity S-wave (km/s) = 3.10257 3.57504 3.34715
# Velocity P-wave (km/s) = 6.03266 7.71682 6.92612
#
# Compressibility (1/GPa) = 0.02635001
#
# Stress axis : x y z
#
# Youngs Moduli (GPa) = 25.31898 46.14589 77.94489
#
# Poissons Ratio (x) = 0.20257 1.09085
# Poissons Ratio (y) = 0.11114 0.42388
# Poissons Ratio (z) = 0.35434 0.25095
#
# Static dielectric constant tensor:
#      x y z
#    x 1.543730 0.000000 0.000000 
#    y 0.000000 1.496930 0.000000 
#    z 0.000000 0.000000 1.575310 
# 
# From -- ./inp_files/37902.got.cif
#   From: 2010.05.17/outbox.cif.g08.bks.cpg/sg53_19_cif.got.tgz:37902.got - 2010.06.03 12:45:16.
