data_PCOD9414106
_publ_section_title
;
Structure prediction by ZEFSAII (Michael W. Deem and Ramdas Pophale) SiO2 
 PCOD9414106
Probable space group: P M N A
;
_chemical_formula_sum "Si O2"
_cell_formula_units_Z 28
_cell_length_a 13.827397
_cell_length_b 11.700315
_cell_length_c 7.265406
_cell_angle_alpha 90.000000
_cell_angle_beta 90.000000
_cell_angle_gamma 90.000000
_cell_volume 1175.432987
_symmetry_space_group_name_H-M "P M N A"
_symmetry_group_IT_number 53
_symmetry_cell_setting 'orthorhombic'
loop_
_space_group_symop_operation_xyz
x,y,z
1/2-x,-y,1/2+z
x,-y,-z
1/2-x,y,1/2-z
-x,-y,-z
1/2+x,y,1/2-z
-x,y,z
1/2+x,-y,1/2+z
loop_
_atom_site_type_symbol
_atom_site_label
_atom_site_fract_x
_atom_site_fract_y
_atom_site_fract_z
Si Si1 0.226722 0.633004 0.967042
Si Si2 0.771490 0.000000 0.500000
Si Si3 0.394572 0.170119 0.380087
Si Si4 0.609135 0.205197 0.939049
O O1 0.250000 0.643874 0.750000
O O2 0.133404 0.713709 0.987428
O O3 0.316314 0.689321 0.079369
O O4 0.212469 0.500000 0.000000
O O5 0.696052 0.910799 0.585411
O O6 0.841662 0.915550 0.381761
O O7 0.500000 0.128346 0.437772
O O8 0.398686 0.190442 0.161152
O O9 0.500000 0.220520 0.869597
#
# Coordination Sequence:
#
# PCOD9414106 Si02
#       4
#     8   4   8   8
#     4   9  18  33  52  72  97 130 169 209 249 295
#     4  10  16  28  50  72  92 118 158 204 242 286
#     4   9  18  32  49  69  96 131 165 200 249 303
#     4   9  18  32  49  69  96 131 165 200 249 303
#
# _framework density 23.821009
#
# number of rings (size 3 to 8) (size 9 to 14) (size 15 to 20)
#    0.000    2.857    0.000    3.429    0.000    1.143 
#    0.000   11.429    0.000    6.857    0.000    0.000 
#    0.000    0.000    0.000    0.000    0.000    0.000 
#
# Total GULP energy -156365.684703 kJ/mol
# GULP energy per Si atom -5584.488739 kJ/mol
# Density = 2.376679 g / cm^3
# Si number density = 23.821009 Si / 1000 Ang^3
#
#
#
# Elastic Constant Matrix: (Units=GPa)
#
#
# Indices 1 2 3 4 5 6 
#
# 1 188.1019 70.0939 17.2444 0.0000 0.0000 0.0000
# 2 70.0939 180.6883 0.2385 0.0000 0.0000 0.0000
# 3 17.2444 0.2385 56.2471 0.0000 0.0000 0.0000
# 4 0.0000 0.0000 0.0000 30.6069 0.0000 0.0000
# 5 0.0000 0.0000 0.0000 0.0000 24.3695 0.0000
# 6 0.0000 0.0000 0.0000 0.0000 0.0000 11.3293
#
#
#
# Elastic Compliance Matrix: (Units=1/GPa)
#
#
# Indices 1 2 3 4 5 6 
#
# 1 0.006423 -0.002489 -0.001959 0.000000 0.000000 0.000000
# 2 -0.002489 0.006499 0.000736 0.000000 0.000000 0.000000
# 3 -0.001959 0.000736 0.018376 0.000000 0.000000 0.000000
# 4 0.000000 0.000000 0.000000 0.032672 0.000000 0.000000
# 5 0.000000 0.000000 0.000000 0.000000 0.041035 0.000000
# 6 0.000000 0.000000 0.000000 0.000000 0.000000 0.088267
#
#
# Mechanical properties :
#
#
# Convention : Reuss Voigt Hill
#
# Bulk Modulus (GPa) = 41.88691 66.68789 54.28740
# Shear Modulus (GPa) = 23.96300 35.75853 29.86076
#
# Velocity S-wave (km/s) = 3.17513 3.87865 3.54439
# Velocity P-wave (km/s) = 5.57352 6.93648 6.29201
#
# Compressibility (1/GPa) = 0.02387380
#
# Stress axis : x y z
#
# Youngs Moduli (GPa) = 155.68028 153.86833 54.41849
#
# Poissons Ratio (x) = 0.38301 0.10659
# Poissons Ratio (y) = 0.38752 -0.04003
# Poissons Ratio (z) = 0.30494 -0.11319
#
# Static dielectric constant tensor:
#      x y z
#    x 1.872030 0.000000 0.000000 
#    y 0.000000 1.904450 0.000000 
#    z 0.000000 0.000000 2.072080 
# 
# From -- ./inp_files/7877.got.cif
#   From: 2010.05.17/outbox.cif.g08.bks.cpg/sg53_4_cif.got.tgz:7877.got - 2010.06.03 12:45:16.
