data_PCOD9414909
_publ_section_title
;
Structure prediction by ZEFSAII (Michael W. Deem and Ramdas Pophale) SiO2 
 PCOD9414909
Probable space group: P M N A
;
_chemical_formula_sum "Si O2"
_cell_formula_units_Z 44
_cell_length_a 19.821095
_cell_length_b 5.747828
_cell_length_c 23.893202
_cell_angle_alpha 90.000000
_cell_angle_beta 90.000000
_cell_angle_gamma 90.000000
_cell_volume 2722.110567
_symmetry_space_group_name_H-M "P M N A"
_symmetry_group_IT_number 53
_symmetry_cell_setting 'orthorhombic'
loop_
_space_group_symop_operation_xyz
x,y,z
1/2-x,-y,1/2+z
x,-y,-z
1/2-x,y,1/2-z
-x,-y,-z
1/2+x,y,1/2-z
-x,y,z
1/2+x,-y,1/2+z
loop_
_atom_site_type_symbol
_atom_site_label
_atom_site_fract_x
_atom_site_fract_y
_atom_site_fract_z
Si Si1 0.793153 0.803733 0.808172
Si Si2 0.076105 0.551065 0.320822
Si Si3 0.825715 0.745886 0.607337
Si Si4 0.326135 0.302968 0.723975
Si Si5 0.073298 0.121722 0.570989
Si Si6 0.635673 0.500000 0.000000
O O1 0.750000 0.802103 0.750000
O O2 0.742626 0.800801 0.860677
O O3 0.830400 0.552120 0.808144
O O4 0.831888 0.052030 0.806481
O O5 0.122388 0.344238 0.344899
O O6 0.118078 0.676642 0.272338
O O7 0.070493 0.720477 0.373717
O O8 0.000000 0.481121 0.304380
O O9 0.822156 0.565103 0.555567
O O10 0.862008 0.964178 0.579895
O O11 0.250000 0.301643 0.750000
O O12 0.087647 0.289276 0.518894
O O13 0.000000 0.003126 0.566961
#
# Coordination Sequence:
#
# PCOD9414909 Si02
#       6
#     8   8   8   8   8   4
#     4  10  19  31  55  69  95 126 174 207 255 319
#     4  10  20  32  49  74 102 132 175 219 257 307
#     4  11  20  34  48  70  95 137 178 220 262 307
#     4  10  18  33  49  75  95 131 169 208 258 312
#     4  10  20  33  47  64  94 135 179 217 258 296
#     4  10  23  32  46  66  96 130 179 226 264 290
#
# _framework density 16.163929
#
# number of rings (size 3 to 8) (size 9 to 14) (size 15 to 20)
#    0.000    1.818    3.636    3.545    2.545    2.909 
#    0.000    0.000    0.000    0.000    0.000    0.000 
#    0.000    0.000    0.000    4.909    0.000    0.000 
#
# Total GULP energy -244975.332366 kJ/mol
# GULP energy per Si atom -5567.621190 kJ/mol
# Density = 1.612714 g / cm^3
# Si number density = 16.163929 Si / 1000 Ang^3
#
#
#
# Elastic Constant Matrix: (Units=GPa)
#
#
# Indices 1 2 3 4 5 6 
#
# 1 48.6636 14.2315 42.4882 0.0000 0.0000 0.0000
# 2 14.2315 91.2170 21.3347 0.0000 0.0000 0.0000
# 3 42.4882 21.3347 74.0105 0.0000 0.0000 0.0000
# 4 0.0000 0.0000 0.0000 48.4367 0.0000 0.0000
# 5 0.0000 0.0000 0.0000 0.0000 0.9114 0.0000
# 6 0.0000 0.0000 0.0000 0.0000 0.0000 15.2307
#
#
#
# Elastic Compliance Matrix: (Units=1/GPa)
#
#
# Indices 1 2 3 4 5 6 
#
# 1 0.041279 -0.000963 -0.023420 0.000000 0.000000 0.000000
# 2 -0.000963 0.011778 -0.002843 0.000000 0.000000 0.000000
# 3 -0.023420 -0.002843 0.027776 0.000000 0.000000 0.000000
# 4 0.000000 0.000000 0.000000 0.020645 0.000000 0.000000
# 5 0.000000 0.000000 0.000000 0.000000 1.097185 0.000000
# 6 0.000000 0.000000 0.000000 0.000000 0.000000 0.065657
#
#
# Mechanical properties :
#
#
# Convention : Reuss Voigt Hill
#
# Bulk Modulus (GPa) = 37.90393 41.11107 39.50750
# Shear Modulus (GPa) = 3.76630 21.97154 12.86892
#
# Velocity S-wave (km/s) = 1.52811 3.69086 2.82468
# Velocity P-wave (km/s) = 5.15889 6.60699 5.92733
#
# Compressibility (1/GPa) = 0.02638249
#
# Stress axis : x y z
#
# Youngs Moduli (GPa) = 24.22559 84.90483 36.00234
#
# Poissons Ratio (x) = 0.08172 0.84317
# Poissons Ratio (y) = 0.02332 0.10234
# Poissons Ratio (z) = 0.56736 0.24135
#
# Static dielectric constant tensor:
#      x y z
#    x 1.517870 0.000000 0.000000 
#    y 0.000000 1.637940 0.000000 
#    z 0.000000 0.000000 1.539450 
# 
# From -- ./inp_files/32918.got.cif
#   From: 2010.05.17/outbox.cif.g08.bks.cpg/sg53_17_cif.got.tgz:32918.got - 2010.06.03 12:45:16.
