data_PCOD9414202
_publ_section_title
;
Structure prediction by ZEFSAII (Michael W. Deem and Ramdas Pophale) SiO2 
 PCOD9414202
Probable space group: P M N A
;
_chemical_formula_sum "Si O2"
_cell_formula_units_Z 64
_cell_length_a 8.128498
_cell_length_b 14.932676
_cell_length_c 31.651655
_cell_angle_alpha 90.000000
_cell_angle_beta 90.000000
_cell_angle_gamma 90.000000
_cell_volume 3841.885069
_symmetry_space_group_name_H-M "P M N A"
_symmetry_group_IT_number 53
_symmetry_cell_setting 'orthorhombic'
loop_
_space_group_symop_operation_xyz
x,y,z
1/2-x,-y,1/2+z
x,-y,-z
1/2-x,y,1/2-z
-x,-y,-z
1/2+x,y,1/2-z
-x,y,z
1/2+x,-y,1/2+z
loop_
_atom_site_type_symbol
_atom_site_label
_atom_site_fract_x
_atom_site_fract_y
_atom_site_fract_z
Si Si1 0.800547 0.931701 0.116517
Si Si2 0.198940 0.143740 0.797232
Si Si3 0.311536 0.434145 0.879696
Si Si4 0.805889 0.651373 0.203473
Si Si5 0.196011 0.453173 0.456784
Si Si6 0.195071 0.257567 0.024210
Si Si7 0.298196 0.942801 0.541657
Si Si8 0.805844 0.740032 0.076369
O O1 0.742794 0.920409 0.164797
O O2 0.763687 0.836839 0.094503
O O3 0.000000 0.939818 0.117660
O O4 0.742472 0.008595 0.084639
O O5 0.250000 0.117673 0.750000
O O6 0.259167 0.246708 0.804484
O O7 0.000000 0.145083 0.799007
O O8 0.500000 0.459836 0.873039
O O9 0.237579 0.416451 0.833768
O O10 0.235045 0.502238 0.913965
O O11 0.297073 0.338377 0.902804
O O12 0.750000 0.623313 0.250000
O O13 0.000000 0.660380 0.204242
O O14 0.261748 0.500000 0.500000
O O15 0.224788 0.347367 0.458063
O O16 0.000000 0.470985 0.456570
O O17 0.255876 0.160332 0.039140
O O18 0.000000 0.262419 0.033131
O O19 0.215235 0.259894 0.973675
O O20 0.500000 0.942541 0.540921
O O21 0.249074 0.000000 0.500000
O O22 0.000000 0.723805 0.086128
#
# Coordination Sequence:
#
# PCOD9414202 Si02
#       8
#     8   8   8   8   8   8   8   8
#     4   9  15  26  43  65  94 126 153 181 229 282
#     4   9  17  28  43  64  91 123 152 182 222 270
#     4  11  21  32  47  67  92 129 169 197 234 282
#     4  10  19  32  49  71  99 125 156 193 237 286
#     4  10  21  35  47  63  93 132 165 195 239 289
#     4  10  19  29  47  72  93 120 161 204 239 274
#     4   9  15  25  44  70  96 119 149 191 235 282
#     4  10  17  27  44  67  95 124 156 195 236 277
#
# _framework density 16.658488999999999
#
# number of rings (size 3 to 8) (size 9 to 14) (size 15 to 20)
#    0.000    2.250    3.750    0.750    0.000    1.750 
#    0.000    0.000    0.000    1.875    0.000    0.875 
#    0.000    4.000    0.000    0.000    0.000    0.000 
#
# Total GULP energy -356699.877113 kJ/mol
# GULP energy per Si atom -5573.435580 kJ/mol
# Density = 1.662057 g / cm^3
# Si number density = 16.658489 Si / 1000 Ang^3
#
#
#
# Elastic Constant Matrix: (Units=GPa)
#
#
# Indices 1 2 3 4 5 6 
#
# 1 4.9304 2.0064 20.2229 0.0000 0.0000 0.0000
# 2 2.0064 88.1872 60.1068 0.0000 0.0000 0.0000
# 3 20.2229 60.1068 125.2384 0.0000 0.0000 0.0000
# 4 0.0000 0.0000 0.0000 -414.3479 0.0000 0.0000
# 5 0.0000 0.0000 0.0000 0.0000 17.1565 0.0000
# 6 0.0000 0.0000 0.0000 0.0000 0.0000 28.8422
#
#
#
# Elastic Compliance Matrix: (Units=1/GPa)
#
#
# Indices 1 2 3 4 5 6 
#
# 1 1.501618 0.194835 -0.335982 0.000000 0.000000 0.000000
# 2 0.194835 0.042132 -0.051682 0.000000 0.000000 0.000000
# 3 -0.335982 -0.051682 0.087041 0.000000 0.000000 0.000000
# 4 0.000000 0.000000 0.000000 -0.002413 0.000000 0.000000
# 5 0.000000 0.000000 0.000000 0.000000 0.058287 0.000000
# 6 0.000000 0.000000 0.000000 0.000000 0.000000 0.034671
#
#
# Mechanical properties :
#
#
# Convention : Reuss Voigt Hill
#
# Bulk Modulus (GPa) = 0.80313 42.55867 21.68090
# Shear Modulus (GPa) = 1.98252 -64.60185 -31.30966
#
# Velocity S-wave (km/s) = 1.09210 -6.23413 -4.34003
# Velocity P-wave (km/s) = 1.43993 5.12015 3.47437
#
# Compressibility (1/GPa) = 1.24513278
#
# Stress axis : x y z
#
# Youngs Moduli (GPa) = 0.66595 23.73500 11.48878
#
# Poissons Ratio (x) = -4.62440 3.86002
# Poissons Ratio (y) = -0.12975 0.59376
# Poissons Ratio (z) = 0.22375 1.22666
#
# Static dielectric constant tensor:
#      x y z
#    x 1.591040 0.000000 0.000000 
#    y 0.000000 1.548360 0.000000 
#    z 0.000000 0.000000 1.561910 
# 
# From -- ./inp_files/38433.got.cif
#   From: 2010.05.17/outbox.cif.g08.bks.cpg/sg53_20_cif.got.tgz:38433.got - 2010.06.03 12:45:16.
