data_PCOD9414739
_publ_section_title
;
Structure prediction by ZEFSAII (Michael W. Deem and Ramdas Pophale) SiO2 
 PCOD9414739
Probable space group: P M N A
;
_chemical_formula_sum "Si O2"
_cell_formula_units_Z 36
_cell_length_a 8.383529
_cell_length_b 7.075807
_cell_length_c 24.859565
_cell_angle_alpha 90.000000
_cell_angle_beta 90.000000
_cell_angle_gamma 90.000000
_cell_volume 1474.675193
_symmetry_space_group_name_H-M "P M N A"
_symmetry_group_IT_number 53
_symmetry_cell_setting 'orthorhombic'
loop_
_space_group_symop_operation_xyz
x,y,z
1/2-x,-y,1/2+z
x,-y,-z
1/2-x,y,1/2-z
-x,-y,-z
1/2+x,y,1/2-z
-x,y,z
1/2+x,-y,1/2+z
loop_
_atom_site_type_symbol
_atom_site_label
_atom_site_fract_x
_atom_site_fract_y
_atom_site_fract_z
Si Si1 0.000000 0.879291 0.817589
Si Si2 0.687506 0.649230 0.801167
Si Si3 0.328212 0.554945 0.927255
Si Si4 0.000000 0.381757 0.078566
Si Si5 0.000000 0.824663 0.110882
Si Si6 0.171783 0.113680 0.555477
O O1 0.825343 0.810590 0.798008
O O2 0.000000 0.102674 0.828016
O O3 0.000000 0.761373 0.873049
O O4 0.750000 0.524835 0.750000
O O5 0.500000 0.699517 0.794214
O O6 0.692608 0.561934 0.861707
O O7 0.500000 0.644017 0.939004
O O8 0.167527 0.644994 0.950643
O O9 0.335806 0.341146 0.947213
O O10 0.000000 0.601064 0.098838
O O11 0.837609 0.911648 0.086492
O O12 0.000000 0.061276 0.582505
O O13 0.177364 0.000000 0.500000
#
# Coordination Sequence:
#
# PCOD9414739 Si02
#       6
#     4   8   8   4   4   8
#     4  10  20  33  53  81 106 138 181 221 272 326
#     4  10  18  31  52  77 101 137 180 224 277 332
#     4   8  15  27  47  74 101 132 175 220 266 319
#     4   8  16  31  49  71 102 134 170 221 258 313
#     4  10  19  32  54  78 106 144 182 217 271 329
#     4   9  17  31  53  80 110 148 188 227 277 332
#
# _framework density 24.412154000000001
#
# number of rings (size 3 to 8) (size 9 to 14) (size 15 to 20)
#    0.000    2.889    1.111    0.333    0.000    0.889 
#    0.000    0.000    0.000   36.000    0.000   35.778 
#    0.000    0.000    0.000    0.000    0.000    0.000 
#
# Total GULP energy -200427.620908 kJ/mol
# GULP energy per Si atom -5567.433914 kJ/mol
# Density = 2.435659 g / cm^3
# Si number density = 24.412154 Si / 1000 Ang^3
#
#
#
# Elastic Constant Matrix: (Units=GPa)
#
#
# Indices 1 2 3 4 5 6 
#
# 1 295.4528 30.0311 49.1720 0.0000 0.0000 0.0000
# 2 30.0311 92.8720 14.2746 0.0000 0.0000 0.0000
# 3 49.1720 14.2746 90.5440 0.0000 0.0000 0.0000
# 4 0.0000 0.0000 0.0000 14.0467 0.0000 0.0000
# 5 0.0000 0.0000 0.0000 0.0000 39.6571 0.0000
# 6 0.0000 0.0000 0.0000 0.0000 0.0000 -28.6922
#
#
#
# Elastic Compliance Matrix: (Units=1/GPa)
#
#
# Indices 1 2 3 4 5 6 
#
# 1 0.003798 -0.000934 -0.001916 0.000000 0.000000 0.000000
# 2 -0.000934 0.011264 -0.001269 0.000000 0.000000 0.000000
# 3 -0.001916 -0.001269 0.012285 0.000000 0.000000 0.000000
# 4 0.000000 0.000000 0.000000 0.071191 0.000000 0.000000
# 5 0.000000 0.000000 0.000000 0.000000 0.025216 0.000000
# 6 0.000000 0.000000 0.000000 0.000000 0.000000 -0.034853
#
#
# Mechanical properties :
#
#
# Convention : Reuss Voigt Hill
#
# Bulk Modulus (GPa) = 52.32526 73.98048 63.15287
# Shear Modulus (GPa) = 48.30507 30.69506 39.50006
#
# Velocity S-wave (km/s) = 4.45312 3.54979 4.02686
# Velocity P-wave (km/s) = 6.92250 6.86818 6.89539
#
# Compressibility (1/GPa) = 0.01911123
#
# Stress axis : x y z
#
# Youngs Moduli (GPa) = 263.27164 88.77466 81.40228
#
# Poissons Ratio (x) = 0.08290 0.15593
# Poissons Ratio (y) = 0.24585 0.10328
# Poissons Ratio (z) = 0.50431 0.11263
#
# Static dielectric constant tensor:
#      x y z
#    x 2.028370 0.000000 0.000000 
#    y 0.000000 1.928610 0.000000 
#    z 0.000000 0.000000 2.158300 
# 
# From -- ./inp_files/35994.got.cif
#   From: 2010.05.17/outbox.cif.g08.bks.cpg/sg53_18_cif.got.tgz:35994.got - 2010.06.03 12:45:16.
