data_PCOD9414053
_publ_section_title
;
Structure prediction by ZEFSAII (Michael W. Deem and Ramdas Pophale) SiO2 
 PCOD9414053
Probable space group: P M N A
;
_chemical_formula_sum "Si O2"
_cell_formula_units_Z 44
_cell_length_a 18.552394
_cell_length_b 7.172755
_cell_length_c 13.547583
_cell_angle_alpha 90.000000
_cell_angle_beta 90.000000
_cell_angle_gamma 90.000000
_cell_volume 1802.800942
_symmetry_space_group_name_H-M "P M N A"
_symmetry_group_IT_number 53
_symmetry_cell_setting 'orthorhombic'
loop_
_space_group_symop_operation_xyz
x,y,z
1/2-x,-y,1/2+z
x,-y,-z
1/2-x,y,1/2-z
-x,-y,-z
1/2+x,y,1/2-z
-x,y,z
1/2+x,-y,1/2+z
loop_
_atom_site_type_symbol
_atom_site_label
_atom_site_fract_x
_atom_site_fract_y
_atom_site_fract_z
Si Si1 0.000000 0.545763 0.825287
Si Si2 0.657518 0.137504 0.847534
Si Si3 0.500000 0.675233 0.880516
Si Si4 0.720920 0.500000 0.500000
Si Si5 0.000000 0.075244 0.613876
Si Si6 0.663764 0.737063 0.931047
Si Si7 0.873287 0.733832 0.142025
Si Si8 0.000000 0.024759 0.115524
O O1 0.071362 0.437926 0.855288
O O2 0.000000 0.535706 0.707722
O O3 0.000000 0.756020 0.863364
O O4 0.572082 0.174996 0.860395
O O5 0.673014 0.229806 0.741896
O O6 0.668567 0.912679 0.856693
O O7 0.681815 0.201230 0.956525
O O8 0.579691 0.668846 0.929727
O O9 0.500000 0.879977 0.830072
O O10 0.774844 0.416532 0.415657
O O11 0.674260 0.331303 0.548181
O O12 0.000000 0.000000 0.500000
O O13 0.926270 0.914553 0.143442
O O14 0.000000 0.000000 0.000000
#
# Coordination Sequence:
#
# PCOD9414053 Si02
#       8
#     4   8   4   4   4   8   8   4
#     4  11  24  44  77 119 136 184 267 316 394 458
#     4  10  19  42  71 106 139 193 239 311 382 465
#     4  10  19  37  70 104 139 178 229 316 372 443
#     4  12  28  48  68 102 160 212 256 316 378 472
#     4  10  13  32  70 104 139 161 225 306 381 438
#     4  10  22  42  73 104 148 193 253 307 400 453
#     4  11  26  48  75 107 153 193 256 323 383 455
#     4  11  22  45  79 106 139 193 255 320 384 448
#
# _framework density 24.406466999999999
#
# number of rings (size 3 to 8) (size 9 to 14) (size 15 to 20)
#    0.000    1.455    3.636    4.364    2.545    2.545 
#    9.818    0.000   12.000    0.000    0.000    0.000 
#    0.000    0.000    0.000    0.000    0.000    0.000 
#
# Total GULP energy -245167.106465 kJ/mol
# GULP energy per Si atom -5571.979692 kJ/mol
# Density = 2.435092 g / cm^3
# Si number density = 24.406467 Si / 1000 Ang^3
#
#
#
# Elastic Constant Matrix: (Units=GPa)
#
#
# Indices 1 2 3 4 5 6 
#
# 1 143.8874 54.6512 26.0764 0.0000 0.0000 0.0000
# 2 54.6512 153.3725 25.7594 0.0000 0.0000 0.0000
# 3 26.0764 25.7594 95.1928 0.0000 0.0000 0.0000
# 4 0.0000 0.0000 0.0000 48.2042 0.0000 0.0000
# 5 0.0000 0.0000 0.0000 0.0000 -16.8556 0.0000
# 6 0.0000 0.0000 0.0000 0.0000 0.0000 16.9610
#
#
#
# Elastic Compliance Matrix: (Units=1/GPa)
#
#
# Indices 1 2 3 4 5 6 
#
# 1 0.008246 -0.002681 -0.001533 0.000000 0.000000 0.000000
# 2 -0.002681 0.007702 -0.001350 0.000000 0.000000 0.000000
# 3 -0.001533 -0.001350 0.011290 0.000000 0.000000 0.000000
# 4 0.000000 0.000000 0.000000 0.020745 0.000000 0.000000
# 5 0.000000 0.000000 0.000000 0.000000 -0.059327 0.000000
# 6 0.000000 0.000000 0.000000 0.000000 0.000000 0.058959
#
#
# Mechanical properties :
#
#
# Convention : Reuss Voigt Hill
#
# Bulk Modulus (GPa) = 62.07209 67.26961 64.67085
# Shear Modulus (GPa) = 77.98740 28.72630 53.35685
#
# Velocity S-wave (km/s) = 5.65888 3.43446 4.68073
# Velocity P-wave (km/s) = 8.25743 6.58402 7.46775
#
# Compressibility (1/GPa) = 0.01611030
#
# Stress axis : x y z
#
# Youngs Moduli (GPa) = 121.27127 129.83626 88.57141
#
# Poissons Ratio (x) = 0.34806 0.13582
# Poissons Ratio (y) = 0.32510 0.11956
# Poissons Ratio (z) = 0.18596 0.17526
#
# Static dielectric constant tensor:
#      x y z
#    x 2.042880 0.000000 0.000000 
#    y 0.000000 2.125380 0.000000 
#    z 0.000000 0.000000 2.074120 
# 
# From -- ./inp_files/23584.got.cif
#   From: 2010.05.17/outbox.cif.g08.bks.cpg/sg53_12_cif.got.tgz:23584.got - 2010.06.03 12:45:16.
