data_PCOD9414726
_publ_section_title
;
Structure prediction by ZEFSAII (Michael W. Deem and Ramdas Pophale) SiO2 
 PCOD9414726
Probable space group: P M N A
;
_chemical_formula_sum "Si O2"
_cell_formula_units_Z 26
_cell_length_a 13.953291
_cell_length_b 4.915406
_cell_length_c 13.274163
_cell_angle_alpha 90.000000
_cell_angle_beta 90.000000
_cell_angle_gamma 90.000000
_cell_volume 910.422942
_symmetry_space_group_name_H-M "P M N A"
_symmetry_group_IT_number 53
_symmetry_cell_setting 'orthorhombic'
loop_
_space_group_symop_operation_xyz
x,y,z
1/2-x,-y,1/2+z
x,-y,-z
1/2-x,y,1/2-z
-x,-y,-z
1/2+x,y,1/2-z
-x,y,z
1/2+x,-y,1/2+z
loop_
_atom_site_type_symbol
_atom_site_label
_atom_site_fract_x
_atom_site_fract_y
_atom_site_fract_z
Si Si1 0.101602 0.058159 0.629503
Si Si2 0.273298 0.335996 0.369752
Si Si3 0.500000 0.500000 0.000000
Si Si4 0.107921 0.838186 0.132443
O O1 0.186002 0.858795 0.600631
O O2 0.082038 0.325377 0.565418
O O3 0.110312 0.152633 0.744758
O O4 0.000000 0.889053 0.617537
O O5 0.250000 0.362089 0.250000
O O6 0.365537 0.146979 0.392368
O O7 0.307885 0.634498 0.401221
O O8 0.000000 0.763865 0.102850
#
# Coordination Sequence:
#
# PCOD9414726 Si02
#       4
#     8   8   2   8
#     4   8  17  32  55  84 118 153 190 229 291 358
#     4  10  18  31  51  76 108 144 182 233 282 329
#     4   8  16  36  60  82 130 158 192 220 300 362
#     4  10  19  32  52  78 108 142 186 236 282 324
#
# _framework density 28.558154999999999
#
# number of rings (size 3 to 8) (size 9 to 14) (size 15 to 20)
#    0.923    1.846    0.000    3.692    0.000    1.231 
#    0.000    1.538    0.000   33.231    0.000    6.462 
#    0.000    0.000    0.000    0.923    0.000    0.000 
#
# Total GULP energy -145256.815632 kJ/mol
# GULP energy per Si atom -5586.800601 kJ/mol
# Density = 2.849316 g / cm^3
# Si number density = 28.558155 Si / 1000 Ang^3
#
#
#
# Elastic Constant Matrix: (Units=GPa)
#
#
# Indices 1 2 3 4 5 6 
#
# 1 192.2513 92.6736 6.9470 0.0000 0.0000 0.0000
# 2 92.6736 182.3397 28.6298 0.0000 0.0000 0.0000
# 3 6.9470 28.6298 116.6212 0.0000 0.0000 0.0000
# 4 0.0000 0.0000 0.0000 42.4541 0.0000 0.0000
# 5 0.0000 0.0000 0.0000 0.0000 30.6126 0.0000
# 6 0.0000 0.0000 0.0000 0.0000 0.0000 73.5195
#
#
#
# Elastic Compliance Matrix: (Units=1/GPa)
#
#
# Indices 1 2 3 4 5 6 
#
# 1 0.006914 -0.003588 0.000469 0.000000 0.000000 0.000000
# 2 -0.003588 0.007566 -0.001644 0.000000 0.000000 0.000000
# 3 0.000469 -0.001644 0.008950 0.000000 0.000000 0.000000
# 4 0.000000 0.000000 0.000000 0.023555 0.000000 0.000000
# 5 0.000000 0.000000 0.000000 0.000000 0.032666 0.000000
# 6 0.000000 0.000000 0.000000 0.000000 0.000000 0.013602
#
#
# Mechanical properties :
#
#
# Convention : Reuss Voigt Hill
#
# Bulk Modulus (GPa) = 71.91497 83.07921 77.49709
# Shear Modulus (GPa) = 46.54935 53.51469 50.03202
#
# Velocity S-wave (km/s) = 4.04169 4.33354 4.19015
# Velocity P-wave (km/s) = 6.85689 7.36164 7.11374
#
# Compressibility (1/GPa) = 0.01390531
#
# Stress axis : x y z
#
# Youngs Moduli (GPa) = 144.63456 132.17475 111.72755
#
# Poissons Ratio (x) = 0.47419 -0.05239
# Poissons Ratio (y) = 0.51890 0.18364
# Poissons Ratio (z) = -0.06782 0.21725
#
# Static dielectric constant tensor:
#      x y z
#    x 2.293630 0.000000 0.000000 
#    y 0.000000 1.652560 0.000000 
#    z 0.000000 0.000000 2.313090 
# 
# From -- ./inp_files/27782.got.cif
#   From: 2010.05.17/outbox.cif.g08.bks.cpg/sg53_14_cif.got.tgz:27782.got - 2010.06.03 12:45:16.
