data_PCOD9414346
_publ_section_title
;
Structure prediction by ZEFSAII (Michael W. Deem and Ramdas Pophale) SiO2 
 PCOD9414346
Probable space group: P M N A
;
_chemical_formula_sum "Si O2"
_cell_formula_units_Z 64
_cell_length_a 8.017902
_cell_length_b 17.398647
_cell_length_c 24.144102
_cell_angle_alpha 90.000000
_cell_angle_beta 90.000000
_cell_angle_gamma 90.000000
_cell_volume 3368.117840
_symmetry_space_group_name_H-M "P M N A"
_symmetry_group_IT_number 53
_symmetry_cell_setting 'orthorhombic'
loop_
_space_group_symop_operation_xyz
x,y,z
1/2-x,-y,1/2+z
x,-y,-z
1/2-x,y,1/2-z
-x,-y,-z
1/2+x,y,1/2-z
-x,y,z
1/2+x,-y,1/2+z
loop_
_atom_site_type_symbol
_atom_site_label
_atom_site_fract_x
_atom_site_fract_y
_atom_site_fract_z
Si Si1 0.696514 0.053349 0.603280
Si Si2 0.199095 0.718210 0.572611
Si Si3 0.694234 0.160831 0.511200
Si Si4 0.698467 0.185374 0.813302
Si Si5 0.301568 0.756562 0.809600
Si Si6 0.799012 0.293773 0.594940
Si Si7 0.796397 0.585799 0.488735
Si Si8 0.800925 0.065548 0.189297
O O1 0.500000 0.039839 0.592998
O O2 0.765498 0.087560 0.545275
O O3 0.715134 0.120210 0.649470
O O4 0.767836 0.980005 0.635873
O O5 0.230973 0.800926 0.543686
O O6 0.266770 0.717523 0.634864
O O7 0.261411 0.648371 0.534263
O O8 0.000000 0.709037 0.574455
O O9 0.500000 0.146342 0.500124
O O10 0.715703 0.230074 0.555488
O O11 0.750000 0.182667 0.750000
O O12 0.500000 0.172689 0.817563
O O13 0.738286 0.266836 0.843010
O O14 0.250000 0.724654 0.750000
O O15 0.500000 0.753859 0.811764
O O16 0.250194 0.845869 0.811873
O O17 0.751924 0.376498 0.570622
O O18 0.000000 0.285963 0.587139
O O19 0.735551 0.500000 0.500000
O O20 0.000000 0.583333 0.491033
O O21 0.750000 0.033499 0.250000
O O22 0.000000 0.060612 0.187155
#
# Coordination Sequence:
#
# PCOD9414346 Si02
#       8
#     8   8   8   8   8   8   8   8
#     4   9  18  30  43  63  90 118 152 193 232 270
#     4   9  18  32  49  71  96 119 147 184 223 267
#     4   9  16  27  45  67  90 119 151 182 221 267
#     4  10  18  26  39  59  85 119 155 188 220 259
#     4  10  20  34  51  69  90 117 152 192 230 269
#     4   8  15  27  41  61  89 117 146 180 216 255
#     4   8  13  25  49  75  92 109 139 178 216 258
#     4  10  19  31  46  64  88 117 153 197 239 276
#
# _framework density 19.001712000000001
#
# number of rings (size 3 to 8) (size 9 to 14) (size 15 to 20)
#    0.000    2.875    0.000    3.375    0.000    4.000 
#    0.000    0.625    0.000   10.500    0.000    0.000 
#    0.000    0.000    0.000    0.000    0.000    0.500 
#
# Total GULP energy -356333.296708 kJ/mol
# GULP energy per Si atom -5567.707761 kJ/mol
# Density = 1.895846 g / cm^3
# Si number density = 19.001712 Si / 1000 Ang^3
#
#
#
# Elastic Constant Matrix: (Units=GPa)
#
#
# Indices 1 2 3 4 5 6 
#
# 1 15.0442 -0.9534 -5.2110 0.0000 0.0000 0.0000
# 2 -0.9534 41.3250 15.7892 0.0000 0.0000 0.0000
# 3 -5.2110 15.7892 79.8335 0.0000 0.0000 0.0000
# 4 0.0000 0.0000 0.0000 15.8991 0.0000 0.0000
# 5 0.0000 0.0000 0.0000 0.0000 18.0713 0.0000
# 6 0.0000 0.0000 0.0000 0.0000 0.0000 -13.7281
#
#
#
# Elastic Compliance Matrix: (Units=1/GPa)
#
#
# Indices 1 2 3 4 5 6 
#
# 1 0.068009 -0.000138 0.004466 0.000000 0.000000 0.000000
# 2 -0.000138 0.026177 -0.005186 0.000000 0.000000 0.000000
# 3 0.004466 -0.005186 0.013843 0.000000 0.000000 0.000000
# 4 0.000000 0.000000 0.000000 0.062896 0.000000 0.000000
# 5 0.000000 0.000000 0.000000 0.000000 0.055336 0.000000
# 6 0.000000 0.000000 0.000000 0.000000 0.000000 -0.072843
#
#
# Mechanical properties :
#
#
# Convention : Reuss Voigt Hill
#
# Bulk Modulus (GPa) = 9.40605 17.27250 13.33928
# Shear Modulus (GPa) = 26.23691 12.48700 19.36195
#
# Velocity S-wave (km/s) = 3.71990 2.56628 3.19558
# Velocity P-wave (km/s) = 4.83849 4.22975 4.54432
#
# Compressibility (1/GPa) = 0.10631456
#
# Stress axis : x y z
#
# Youngs Moduli (GPa) = 14.70391 38.20184 72.23711
#
# Poissons Ratio (x) = 0.00525 -0.32264
# Poissons Ratio (y) = 0.00202 0.37463
# Poissons Ratio (z) = -0.06567 0.19812
#
# Static dielectric constant tensor:
#      x y z
#    x 1.684740 0.000000 0.000000 
#    y 0.000000 1.672470 0.000000 
#    z 0.000000 0.000000 1.716110 
# 
# From -- ./inp_files/31349.got.cif
#   From: 2010.05.17/outbox.cif.g08.bks.cpg/sg53_16_cif.got.tgz:31349.got - 2010.06.03 12:45:16.
