data_PCOD9414603
_publ_section_title
;
Structure prediction by ZEFSAII (Michael W. Deem and Ramdas Pophale) SiO2 
 PCOD9414603
Probable space group: P M N A
;
_chemical_formula_sum "Si O2"
_cell_formula_units_Z 56
_cell_length_a 13.792191
_cell_length_b 10.135386
_cell_length_c 26.556498
_cell_angle_alpha 90.000000
_cell_angle_beta 90.000000
_cell_angle_gamma 90.000000
_cell_volume 3712.311068
_symmetry_space_group_name_H-M "P M N A"
_symmetry_group_IT_number 53
_symmetry_cell_setting 'orthorhombic'
loop_
_space_group_symop_operation_xyz
x,y,z
1/2-x,-y,1/2+z
x,-y,-z
1/2-x,y,1/2-z
-x,-y,-z
1/2+x,y,1/2-z
-x,y,z
1/2+x,-y,1/2+z
loop_
_atom_site_type_symbol
_atom_site_label
_atom_site_fract_x
_atom_site_fract_y
_atom_site_fract_z
Si Si1 0.388019 0.494692 0.110535
Si Si2 0.112319 0.779538 0.555067
Si Si3 0.887379 0.894008 0.711987
Si Si4 0.386102 0.148333 0.328811
Si Si5 0.776936 0.006051 0.378792
Si Si6 0.232439 0.632647 0.693181
Si Si7 0.886732 0.216416 0.564192
O O1 0.500000 0.487657 0.129115
O O2 0.374382 0.370922 0.073003
O O3 0.311525 0.473194 0.155274
O O4 0.377065 0.633013 0.082296
O O5 0.178043 0.875807 0.587811
O O6 0.128989 0.793405 0.495653
O O7 0.000000 0.814692 0.564889
O O8 0.873712 0.907570 0.771793
O O9 0.828511 0.990297 0.675864
O O10 0.847917 0.748538 0.698524
O O11 0.000000 0.904186 0.700377
O O12 0.500000 0.166400 0.338109
O O13 0.333216 0.048214 0.366952
O O14 0.326201 0.286685 0.327367
O O15 0.809942 0.874667 0.406941
O O16 0.250000 0.583501 0.750000
O O17 0.000000 0.175995 0.574054
#
# Coordination Sequence:
#
# PCOD9414603 Si02
#       7
#     8   8   8   8   8   8   8
#     4  10  18  31  49  71 100 128 149 179 230 287
#     4  10  18  30  49  71  95 124 156 187 227 283
#     4   9  15  26  46  71  95 117 149 192 236 282
#     4   9  18  30  47  70  92 118 160 205 232 261
#     4  11  18  29  48  71  95 126 156 189 233 277
#     4   9  16  27  46  72  93 119 156 192 228 270
#     4  10  21  31  44  72 104 125 147 185 234 287
#
# _framework density 15.084942
#
# number of rings (size 3 to 8) (size 9 to 14) (size 15 to 20)
#    0.000    2.286    2.857    3.857    0.000    3.429 
#    0.000    1.429    0.000    2.571    0.000    1.000 
#    0.000    0.000    0.000    0.000    0.000    0.000 
#
# Total GULP energy -311967.910026 kJ/mol
# GULP energy per Si atom -5570.855536 kJ/mol
# Density = 1.505061 g / cm^3
# Si number density = 15.084942 Si / 1000 Ang^3
#
#
#
# Elastic Constant Matrix: (Units=GPa)
#
#
# Indices 1 2 3 4 5 6 
#
# 1 89.7403 25.5857 31.6125 0.0000 0.0000 0.0000
# 2 25.5857 55.1784 16.1116 0.0000 0.0000 0.0000
# 3 31.6125 16.1116 55.6794 0.0000 0.0000 0.0000
# 4 0.0000 0.0000 0.0000 4.6745 0.0000 0.0000
# 5 0.0000 0.0000 0.0000 0.0000 24.6519 0.0000
# 6 0.0000 0.0000 0.0000 0.0000 0.0000 16.4967
#
#
#
# Elastic Compliance Matrix: (Units=1/GPa)
#
#
# Indices 1 2 3 4 5 6 
#
# 1 0.015050 -0.004897 -0.007128 0.000000 0.000000 0.000000
# 2 -0.004897 0.021389 -0.003409 0.000000 0.000000 0.000000
# 3 -0.007128 -0.003409 0.022993 0.000000 0.000000 0.000000
# 4 0.000000 0.000000 0.000000 0.213928 0.000000 0.000000
# 5 0.000000 0.000000 0.000000 0.000000 0.040565 0.000000
# 6 0.000000 0.000000 0.000000 0.000000 0.000000 0.060618
#
#
# Mechanical properties :
#
#
# Convention : Reuss Voigt Hill
#
# Bulk Modulus (GPa) = 35.00807 38.57974 36.79390
# Shear Modulus (GPa) = 12.05012 17.65050 14.85031
#
# Velocity S-wave (km/s) = 2.82940 3.42435 3.14099
# Velocity P-wave (km/s) = 5.82509 6.42381 6.13176
#
# Compressibility (1/GPa) = 0.02856485
#
# Stress axis : x y z
#
# Youngs Moduli (GPa) = 66.44299 46.75242 43.49101
#
# Poissons Ratio (x) = 0.22897 0.31000
# Poissons Ratio (y) = 0.32540 0.14825
# Poissons Ratio (z) = 0.47360 0.15937
#
# Static dielectric constant tensor:
#      x y z
#    x 1.507040 0.000000 0.000000 
#    y 0.000000 1.491370 0.000000 
#    z 0.000000 0.000000 1.515930 
# 
# From -- ./inp_files/38925.got.cif
#   From: 2010.05.17/outbox.cif.g08.bks.cpg/sg53_20_cif.got.tgz:38925.got - 2010.06.03 12:45:16.
