data_PCOD9414927
_publ_section_title
;
Structure prediction by ZEFSAII (Michael W. Deem and Ramdas Pophale) SiO2 
 PCOD9414927
Probable space group: P M N A
;
_chemical_formula_sum "Si O2"
_cell_formula_units_Z 40
_cell_length_a 10.375651
_cell_length_b 23.988451
_cell_length_c 7.700197
_cell_angle_alpha 90.000000
_cell_angle_beta 90.000000
_cell_angle_gamma 90.000000
_cell_volume 1916.546659
_symmetry_space_group_name_H-M "P M N A"
_symmetry_group_IT_number 53
_symmetry_cell_setting 'orthorhombic'
loop_
_space_group_symop_operation_xyz
x,y,z
1/2-x,-y,1/2+z
x,-y,-z
1/2-x,y,1/2-z
-x,-y,-z
1/2+x,y,1/2-z
-x,y,z
1/2+x,-y,1/2+z
loop_
_atom_site_type_symbol
_atom_site_label
_atom_site_fract_x
_atom_site_fract_y
_atom_site_fract_z
Si Si1 0.243781 0.128489 0.043175
Si Si2 0.500000 0.066814 0.037576
Si Si3 0.000000 0.936271 0.956268
Si Si4 0.255122 0.368650 0.536605
Si Si5 0.158968 0.751123 0.078783
Si Si6 0.500000 0.433299 0.963549
Si Si7 0.000000 0.436305 0.953458
O O1 0.250000 0.120890 0.250000
O O2 0.375729 0.101686 0.973947
O O3 0.126481 0.092573 0.971021
O O4 0.203590 0.192319 0.013470
O O5 0.500000 0.070222 0.247705
O O6 0.500000 0.000000 0.000000
O O7 0.000000 0.000000 0.000000
O O8 0.250000 0.368412 0.750000
O O9 0.292735 0.305627 0.486129
O O10 0.124794 0.398493 0.475999
O O11 0.372714 0.406915 0.479302
O O12 0.250000 0.752221 0.250000
O O13 0.000000 0.749261 0.104043
O O14 0.500000 0.430005 0.754374
O O15 0.500000 0.500000 0.000000
O O16 0.000000 0.500000 0.000000
#
# Coordination Sequence:
#
# PCOD9414927 Si02
#       7
#     8   4   4   8   8   4   4
#     4  10  22  40  60  85 121 159 190 237 301 354
#     4  10  22  37  58  88 118 151 199 238 287 354
#     4  10  20  37  60  82 116 159 193 236 293 344
#     4   9  19  34  56  79 111 146 188 232 290 337
#     4  11  23  39  62  90 117 152 204 251 292 350
#     4  10  20  35  54  82 112 145 183 236 285 344
#     4  10  18  33  54  78 106 147 185 230 283 346
#
# _framework density 20.870871999999999
#
# number of rings (size 3 to 8) (size 9 to 14) (size 15 to 20)
#    0.000    2.000    2.000    1.200    5.600    1.600 
#    0.000    2.000    0.000    0.000    0.000    0.000 
#    0.000    0.000    0.000    0.000    0.000    0.000 
#
# Total GULP energy -222958.574710 kJ/mol
# GULP energy per Si atom -5573.964368 kJ/mol
# Density = 2.082337 g / cm^3
# Si number density = 20.870872 Si / 1000 Ang^3
#
#
#
# Elastic Constant Matrix: (Units=GPa)
#
#
# Indices 1 2 3 4 5 6 
#
# 1 255.9737 131.0363 18.7058 0.0000 0.0000 0.0000
# 2 131.0363 216.4356 -5.8277 0.0000 0.0000 0.0000
# 3 18.7058 -5.8277 25.0326 0.0000 0.0000 0.0000
# 4 0.0000 0.0000 0.0000 32.9947 0.0000 0.0000
# 5 0.0000 0.0000 0.0000 0.0000 -6.8677 0.0000
# 6 0.0000 0.0000 0.0000 0.0000 0.0000 47.5618
#
#
#
# Elastic Compliance Matrix: (Units=1/GPa)
#
#
# Indices 1 2 3 4 5 6 
#
# 1 0.006379 -0.004015 -0.005701 0.000000 0.000000 0.000000
# 2 -0.004015 0.007177 0.004671 0.000000 0.000000 0.000000
# 3 -0.005701 0.004671 0.045296 0.000000 0.000000 0.000000
# 4 0.000000 0.000000 0.000000 0.030308 0.000000 0.000000
# 5 0.000000 0.000000 0.000000 0.000000 -0.145608 0.000000
# 6 0.000000 0.000000 0.000000 0.000000 0.000000 0.021025
#
#
# Mechanical properties :
#
#
# Convention : Reuss Voigt Hill
#
# Bulk Modulus (GPa) = 20.50817 87.25231 53.88024
# Shear Modulus (GPa) = -550.75188 38.30625 -256.22282
#
# Velocity S-wave (km/s) = -16.26217 4.28880 -11.09199
# Velocity P-wave (km/s) = 18.51387 8.14994 11.75461
#
# Compressibility (1/GPa) = 0.04876106
#
# Stress axis : x y z
#
# Youngs Moduli (GPa) = 156.76761 139.33065 22.07701
#
# Poissons Ratio (x) = 0.55948 0.12587
# Poissons Ratio (y) = 0.62949 -0.10313
# Poissons Ratio (z) = 0.89381 -0.65088
#
# Static dielectric constant tensor:
#      x y z
#    x 1.788920 0.000000 0.000000 
#    y 0.000000 1.827050 0.000000 
#    z 0.000000 0.000000 1.803450 
# 
# From -- ./inp_files/14018.got.cif
#   From: 2010.05.17/outbox.cif.g08.bks.cpg/sg53_8_cif.got.tgz:14018.got - 2010.06.03 12:45:16.
