data_PCOD9414411
_publ_section_title
;
Structure prediction by ZEFSAII (Michael W. Deem and Ramdas Pophale) SiO2 
 PCOD9414411
Probable space group: P M N A
;
_chemical_formula_sum "Si O2"
_cell_formula_units_Z 56
_cell_length_a 9.307721
_cell_length_b 15.282663
_cell_length_c 22.948072
_cell_angle_alpha 90.000000
_cell_angle_beta 90.000000
_cell_angle_gamma 90.000000
_cell_volume 3264.288967
_symmetry_space_group_name_H-M "P M N A"
_symmetry_group_IT_number 53
_symmetry_cell_setting 'orthorhombic'
loop_
_space_group_symop_operation_xyz
x,y,z
1/2-x,-y,1/2+z
x,-y,-z
1/2-x,y,1/2-z
-x,-y,-z
1/2+x,y,1/2-z
-x,y,z
1/2+x,-y,1/2+z
loop_
_atom_site_type_symbol
_atom_site_label
_atom_site_fract_x
_atom_site_fract_y
_atom_site_fract_z
Si Si1 0.835013 0.782033 0.892514
Si Si2 0.825140 0.099763 0.004462
Si Si3 0.837781 0.509050 0.610051
Si Si4 0.834863 0.384853 0.019959
Si Si5 0.175334 0.742453 0.081511
Si Si6 0.825753 0.339546 0.686810
Si Si7 0.661261 0.322761 0.194001
O O1 0.779934 0.859106 0.933857
O O2 0.835654 0.697179 0.934871
O O3 0.737834 0.757248 0.838370
O O4 0.000000 0.798387 0.875128
O O5 0.000000 0.100091 0.005150
O O6 0.787114 0.167948 0.952945
O O7 0.776067 0.000000 0.000000
O O8 0.741929 0.537308 0.555103
O O9 0.792692 0.430989 0.653089
O O10 0.841912 0.595702 0.650023
O O11 0.000000 0.489623 0.589644
O O12 0.000000 0.406989 0.009314
O O13 0.778174 0.338785 0.960867
O O14 0.255353 0.731195 0.142821
O O15 0.000000 0.738645 0.087404
O O16 0.750000 0.337813 0.750000
O O17 0.000000 0.331687 0.691753
O O18 0.750000 0.349390 0.250000
O O19 0.500000 0.300413 0.210784
#
# Coordination Sequence:
#
# PCOD9414411 Si02
#       7
#     8   8   8   8   8   8   8
#     4   8  14  26  44  68  96 122 150 184 225 275
#     4   8  14  28  54  82 101 119 147 186 234 289
#     4   9  19  32  46  67  94 126 166 209 246 280
#     4   8  15  28  47  70  97 128 158 193 238 286
#     4   9  18  33  52  76 103 129 160 197 242 295
#     4  11  23  37  51  68  94 131 173 212 247 283
#     4  10  18  28  43  63  90 125 162 197 234 274
#
# _framework density 17.155345000000001
#
# number of rings (size 3 to 8) (size 9 to 14) (size 15 to 20)
#    0.000    3.000    0.000    3.000    0.000    2.857 
#    0.000    5.000    0.000    2.571    0.000    0.000 
#    0.000    0.000    0.000    0.000    0.000    0.000 
#
# Total GULP energy -311876.844857 kJ/mol
# GULP energy per Si atom -5569.229372 kJ/mol
# Density = 1.711630 g / cm^3
# Si number density = 17.155345 Si / 1000 Ang^3
#
#
#
# Elastic Constant Matrix: (Units=GPa)
#
#
# Indices 1 2 3 4 5 6 
#
# 1 61.7978 16.4330 51.2775 0.0000 0.0000 0.0000
# 2 16.4330 85.3633 24.8320 0.0000 0.0000 0.0000
# 3 51.2775 24.8320 100.8703 0.0000 0.0000 0.0000
# 4 0.0000 0.0000 0.0000 18.2194 0.0000 0.0000
# 5 0.0000 0.0000 0.0000 0.0000 25.6767 0.0000
# 6 0.0000 0.0000 0.0000 0.0000 0.0000 15.4101
#
#
#
# Elastic Compliance Matrix: (Units=1/GPa)
#
#
# Indices 1 2 3 4 5 6 
#
# 1 0.028131 -0.001352 -0.013968 0.000000 0.000000 0.000000
# 2 -0.001352 0.012683 -0.002435 0.000000 0.000000 0.000000
# 3 -0.013968 -0.002435 0.017614 0.000000 0.000000 0.000000
# 4 0.000000 0.000000 0.000000 0.054887 0.000000 0.000000
# 5 0.000000 0.000000 0.000000 0.000000 0.038946 0.000000
# 6 0.000000 0.000000 0.000000 0.000000 0.000000 0.064892
#
#
# Mechanical properties :
#
#
# Convention : Reuss Voigt Hill
#
# Bulk Modulus (GPa) = 43.63296 48.12405 45.87850
# Shear Modulus (GPa) = 19.20845 22.22717 20.71781
#
# Velocity S-wave (km/s) = 3.34979 3.60341 3.47891
# Velocity P-wave (km/s) = 6.36009 6.73985 6.55272
#
# Compressibility (1/GPa) = 0.02291846
#
# Stress axis : x y z
#
# Youngs Moduli (GPa) = 35.54764 78.84403 56.77430
#
# Poissons Ratio (x) = 0.10662 0.79300
# Poissons Ratio (y) = 0.04807 0.13824
# Poissons Ratio (z) = 0.49652 0.19198
#
# Static dielectric constant tensor:
#      x y z
#    x 1.593480 0.000000 0.000000 
#    y 0.000000 1.604880 0.000000 
#    z 0.000000 0.000000 1.583090 
# 
# From -- ./inp_files/31008.got.cif
#   From: 2010.05.17/outbox.cif.g08.bks.cpg/sg53_16_cif.got.tgz:31008.got - 2010.06.03 12:45:16.
