data_PCOD9414358
_publ_section_title
;
Structure prediction by ZEFSAII (Michael W. Deem and Ramdas Pophale) SiO2 
 PCOD9414358
Probable space group: P M N A
;
_chemical_formula_sum "Si O2"
_cell_formula_units_Z 64
_cell_length_a 9.057168
_cell_length_b 18.882935
_cell_length_c 26.813760
_cell_angle_alpha 90.000000
_cell_angle_beta 90.000000
_cell_angle_gamma 90.000000
_cell_volume 4585.847829
_symmetry_space_group_name_H-M "P M N A"
_symmetry_group_IT_number 53
_symmetry_cell_setting 'orthorhombic'
loop_
_space_group_symop_operation_xyz
x,y,z
1/2-x,-y,1/2+z
x,-y,-z
1/2-x,y,1/2-z
-x,-y,-z
1/2+x,y,1/2-z
-x,y,z
1/2+x,-y,1/2+z
loop_
_atom_site_type_symbol
_atom_site_label
_atom_site_fract_x
_atom_site_fract_y
_atom_site_fract_z
Si Si1 0.176618 0.171129 0.697824
Si Si2 0.323595 0.414285 0.603754
Si Si3 0.169699 0.541565 0.552992
Si Si4 0.330234 0.038310 0.445682
Si Si5 0.821565 0.830063 0.004756
Si Si6 0.177154 0.337251 0.696883
Si Si7 0.823478 0.334107 0.999921
Si Si8 0.676750 0.091063 0.901851
O O1 0.250000 0.150905 0.750000
O O2 0.211608 0.253897 0.687796
O O3 0.222869 0.123316 0.651212
O O4 0.000000 0.166115 0.702793
O O5 0.500000 0.415726 0.610167
O O6 0.262183 0.491897 0.589966
O O7 0.244996 0.382430 0.652072
O O8 0.290461 0.364707 0.555439
O O9 0.171257 0.500000 0.500000
O O10 0.241943 0.616743 0.540003
O O11 0.000000 0.548016 0.569100
O O12 0.500000 0.038567 0.428313
O O13 0.281309 0.117934 0.458863
O O14 0.328609 0.000000 0.500000
O O15 0.232564 0.988850 0.410749
O O16 0.000000 0.835412 0.010530
O O17 0.782978 0.748291 0.997132
O O18 0.746714 0.861137 0.054325
O O19 0.250000 0.355979 0.750000
O O20 0.000000 0.345061 0.699026
O O21 0.000000 0.340911 0.006820
O O22 0.500000 0.093972 0.905639
#
# Coordination Sequence:
#
# PCOD9414358 Si02
#       8
#     8   8   8   8   8   8   8   8
#     4   9  19  31  42  58  80 106 136 171 206 240
#     4  10  18  28  43  61  81 108 140 169 202 241
#     4   9  17  28  41  58  81 108 136 167 202 239
#     4   8  15  27  40  55  77 106 137 165 196 238
#     4   9  17  28  41  58  81 109 139 167 198 240
#     4  10  19  31  44  59  81 107 137 172 207 240
#     4   9  17  28  42  60  82 108 138 171 202 237
#     4  10  18  27  40  59  81 105 136 171 205 238
#
# _framework density 13.95598
#
# number of rings (size 3 to 8) (size 9 to 14) (size 15 to 20)
#    0.000    2.750    0.000    3.000    0.000    6.250 
#    0.000    0.000    0.000    0.000    0.000    0.000 
#    0.000    1.000    0.000    6.500    0.000    5.500 
#
# Total GULP energy -356557.382231 kJ/mol
# GULP energy per Si atom -5571.209097 kJ/mol
# Density = 1.392422 g / cm^3
# Si number density = 13.955980 Si / 1000 Ang^3
#
#
#
# Elastic Constant Matrix: (Units=GPa)
#
#
# Indices 1 2 3 4 5 6 
#
# 1 50.3558 46.9015 45.2386 0.0000 0.0000 0.0000
# 2 46.9015 119.4310 59.9981 0.0000 0.0000 0.0000
# 3 45.2386 59.9981 86.6341 0.0000 0.0000 0.0000
# 4 0.0000 0.0000 0.0000 24.9799 0.0000 0.0000
# 5 0.0000 0.0000 0.0000 0.0000 23.2704 0.0000
# 6 0.0000 0.0000 0.0000 0.0000 0.0000 17.0763
#
#
#
# Elastic Compliance Matrix: (Units=1/GPa)
#
#
# Indices 1 2 3 4 5 6 
#
# 1 0.042338 -0.008465 -0.016245 0.000000 0.000000 0.000000
# 2 -0.008465 0.014533 -0.005644 0.000000 0.000000 0.000000
# 3 -0.016245 -0.005644 0.023935 0.000000 0.000000 0.000000
# 4 0.000000 0.000000 0.000000 0.040032 0.000000 0.000000
# 5 0.000000 0.000000 0.000000 0.000000 0.042973 0.000000
# 6 0.000000 0.000000 0.000000 0.000000 0.000000 0.058561
#
#
# Mechanical properties :
#
#
# Convention : Reuss Voigt Hill
#
# Bulk Modulus (GPa) = 49.76230 62.29970 56.03100
# Shear Modulus (GPa) = 17.25450 20.01751 18.63601
#
# Velocity S-wave (km/s) = 3.51999 3.79137 3.65820
# Velocity P-wave (km/s) = 7.22873 7.99394 7.62094
#
# Compressibility (1/GPa) = 0.02009554
#
# Stress axis : x y z
#
# Youngs Moduli (GPa) = 23.61966 68.80932 41.78033
#
# Poissons Ratio (x) = 0.58249 0.67873
# Poissons Ratio (y) = 0.19995 0.23582
# Poissons Ratio (z) = 0.38371 0.38838
#
# Static dielectric constant tensor:
#      x y z
#    x 1.467620 0.000000 0.000000 
#    y 0.000000 1.465600 0.000000 
#    z 0.000000 0.000000 1.430560 
# 
# From -- ./inp_files/34537.got.cif
#   From: 2010.05.17/outbox.cif.g08.bks.cpg/sg53_18_cif.got.tgz:34537.got - 2010.06.03 12:45:16.
