data_PCOD9414128
_publ_section_title
;
Structure prediction by ZEFSAII (Michael W. Deem and Ramdas Pophale) SiO2 
 PCOD9414128
Probable space group: P M N A
;
_chemical_formula_sum "Si O2"
_cell_formula_units_Z 32
_cell_length_a 22.110731
_cell_length_b 8.677718
_cell_length_c 7.751136
_cell_angle_alpha 90.000000
_cell_angle_beta 90.000000
_cell_angle_gamma 90.000000
_cell_volume 1487.215800
_symmetry_space_group_name_H-M "P M N A"
_symmetry_group_IT_number 53
_symmetry_cell_setting 'orthorhombic'
loop_
_space_group_symop_operation_xyz
x,y,z
1/2-x,-y,1/2+z
x,-y,-z
1/2-x,y,1/2-z
-x,-y,-z
1/2+x,y,1/2-z
-x,y,z
1/2+x,-y,1/2+z
loop_
_atom_site_type_symbol
_atom_site_label
_atom_site_fract_x
_atom_site_fract_y
_atom_site_fract_z
Si Si1 0.870604 0.319988 0.522381
Si Si2 0.000000 0.177265 0.945421
Si Si3 0.500000 0.817483 0.035398
Si Si4 0.131485 0.798419 0.100818
Si Si5 0.816891 0.110600 0.228149
O O1 0.861740 0.500000 0.500000
O O2 0.859290 0.295393 0.725775
O O3 0.832378 0.209467 0.396191
O O4 0.939292 0.267100 0.476727
O O5 0.933317 0.239195 0.988993
O O6 0.000000 0.192790 0.740669
O O7 0.000000 0.000000 0.000000
O O8 0.500000 0.000000 0.000000
O O9 0.136301 0.972827 0.182260
O O10 0.179534 0.788705 0.946984
O O11 0.750000 0.042889 0.250000
#
# Coordination Sequence:
#
# PCOD9414128 Si02
#       5
#     8   4   4   8   8
#     4  11  24  42  62  96 135 168 203 261 332 393
#     4  10  16  35  59  96 120 148 200 269 329 358
#     4  10  21  37  69  95 124 162 215 264 314 379
#     4  10  23  39  68  95 124 163 221 274 315 382
#     4  11  24  40  63  92 121 171 224 271 313 370
#
# _framework density 21.516715000000001
#
# number of rings (size 3 to 8) (size 9 to 14) (size 15 to 20)
#    0.000    1.500    2.500    4.125    7.000    1.000 
#    4.500    0.000    0.000    6.000    0.000    0.000 
#    0.000    0.000    0.000    0.000    0.000    0.000 
#
# Total GULP energy -178403.560205 kJ/mol
# GULP energy per Si atom -5575.111256 kJ/mol
# Density = 2.146774 g / cm^3
# Si number density = 21.516715 Si / 1000 Ang^3
#
#
#
# Elastic Constant Matrix: (Units=GPa)
#
#
# Indices 1 2 3 4 5 6 
#
# 1 78.0473 -2.5313 15.8909 0.0000 0.0000 0.0000
# 2 -2.5313 31.6861 -9.6500 0.0000 0.0000 0.0000
# 3 15.8909 -9.6500 72.5049 0.0000 0.0000 0.0000
# 4 0.0000 0.0000 0.0000 26.9096 0.0000 0.0000
# 5 0.0000 0.0000 0.0000 0.0000 8.4578 0.0000
# 6 0.0000 0.0000 0.0000 0.0000 0.0000 5.6823
#
#
#
# Elastic Compliance Matrix: (Units=1/GPa)
#
#
# Indices 1 2 3 4 5 6 
#
# 1 0.013412 0.000184 -0.002915 0.000000 0.000000 0.000000
# 2 0.000184 0.032895 0.004338 0.000000 0.000000 0.000000
# 3 -0.002915 0.004338 0.015008 0.000000 0.000000 0.000000
# 4 0.000000 0.000000 0.000000 0.037162 0.000000 0.000000
# 5 0.000000 0.000000 0.000000 0.000000 0.118234 0.000000
# 6 0.000000 0.000000 0.000000 0.000000 0.000000 0.175985
#
#
# Mechanical properties :
#
#
# Convention : Reuss Voigt Hill
#
# Bulk Modulus (GPa) = 15.49689 21.07304 18.28497
# Shear Modulus (GPa) = 12.16566 20.11186 16.13876
#
# Velocity S-wave (km/s) = 2.38040 3.06062 2.74169
# Velocity P-wave (km/s) = 3.84357 4.72281 4.30569
#
# Compressibility (1/GPa) = 0.06452906
#
# Stress axis : x y z
#
# Youngs Moduli (GPa) = 74.55882 30.39942 66.62924
#
# Poissons Ratio (x) = -0.00558 0.19423
# Poissons Ratio (y) = -0.01369 -0.28903
# Poissons Ratio (z) = 0.21735 -0.13187
#
# Static dielectric constant tensor:
#      x y z
#    x 1.881450 0.000000 0.000000 
#    y 0.000000 1.785880 0.000000 
#    z 0.000000 0.000000 1.798420 
# 
# From -- ./inp_files/10481.got.cif
#   From: 2010.05.17/outbox.cif.g08.bks.cpg/sg53_6_cif.got.tgz:10481.got - 2010.06.03 12:45:16.
