data_PCOD9414499
_publ_section_title
;
Structure prediction by ZEFSAII (Michael W. Deem and Ramdas Pophale) SiO2 
 PCOD9414499
Probable space group: P M N A
;
_chemical_formula_sum "Si O2"
_cell_formula_units_Z 64
_cell_length_a 8.861753
_cell_length_b 17.481507
_cell_length_c 26.384842
_cell_angle_alpha 90.000000
_cell_angle_beta 90.000000
_cell_angle_gamma 90.000000
_cell_volume 4087.455215
_symmetry_space_group_name_H-M "P M N A"
_symmetry_group_IT_number 53
_symmetry_cell_setting 'orthorhombic'
loop_
_space_group_symop_operation_xyz
x,y,z
1/2-x,-y,1/2+z
x,-y,-z
1/2-x,y,1/2-z
-x,-y,-z
1/2+x,y,1/2-z
-x,y,z
1/2+x,-y,1/2+z
loop_
_atom_site_type_symbol
_atom_site_label
_atom_site_fract_x
_atom_site_fract_y
_atom_site_fract_z
Si Si1 0.674158 0.500000 0.938467
Si Si2 0.318186 0.911489 0.804389
Si Si3 0.818187 0.911489 0.304389
Si Si4 0.680342 0.339855 0.559777
Si Si5 0.816313 0.912290 0.500000
Si Si6 0.682663 0.814376 0.901801
Si Si7 0.182663 0.814376 0.401801
Si Si8 0.819658 0.660144 0.940223
O O1 0.500000 0.500000 0.922667
O O2 0.755474 0.421732 0.922887
O O3 0.755474 0.578268 0.922887
O O4 0.678457 0.500000 0.000000
O O5 0.250000 0.890669 0.750000
O O6 0.500000 0.909103 0.801279
O O7 0.271210 0.856231 0.850004
O O8 0.275537 0.000000 0.815415
O O9 0.750000 0.890669 0.250000
O O10 0.771210 0.856230 0.350004
O O11 0.000000 0.909103 0.301279
O O12 0.500000 0.340115 0.563093
O O13 0.749255 0.269240 0.590232
O O14 0.721626 0.329846 0.500000
O O15 0.770415 0.866647 0.550290
O O16 0.770414 0.866647 0.449709
O O17 0.000000 0.914071 0.499999
O O18 0.764109 0.000000 0.500000
O O19 0.500000 0.809387 0.902522
O O20 0.750745 0.730760 0.909768
O O21 0.000000 0.809388 0.402522
O O22 0.000000 0.659885 0.936907
#
# Coordination Sequence:
#
# PCOD9414499 Si02
#       8
#     8   8   8   8   8   8   8   8
#     4   9  17  29  47  67  90 123 162 195 227 270
#     4   9  18  32  49  69  92 121 161 206 246 282
#     4   9  18  32  49  69  92 121 161 206 246 282
#     4  10  19  30  44  66  98 129 156 189 234 284
#     4   9  16  26  43  66  91 120 155 195 234 273
#     4  10  18  29  47  69  93 123 161 198 234 280
#     4  10  18  29  47  69  93 123 161 198 234 280
#     4  10  19  30  44  66  98 129 156 189 234 284
#
# _framework density 15.657662999999999
#
# number of rings (size 3 to 8) (size 9 to 14) (size 15 to 20)
#    0.000    2.500    1.250    1.875    0.000    6.500 
#    0.000    0.000    0.000    3.000    0.000    0.875 
#    0.000    0.000    0.000    0.000    0.000    0.000 
#
# Total GULP energy -356846.188848 kJ/mol
# GULP energy per Si atom -5575.721701 kJ/mol
# Density = 1.562203 g / cm^3
# Si number density = 15.657663 Si / 1000 Ang^3
#
#
#
# Elastic Constant Matrix: (Units=GPa)
#
#
# Indices 1 2 3 4 5 6 
#
# 1 25.8290 42.0304 33.5713 0.0000 0.0000 0.0000
# 2 42.0304 165.8960 87.0264 0.0000 0.0000 0.0000
# 3 33.5713 87.0264 108.5639 0.0000 0.0000 0.0000
# 4 0.0000 0.0000 0.0000 19.2987 0.0000 0.0000
# 5 0.0000 0.0000 0.0000 0.0000 19.8904 0.0000
# 6 0.0000 0.0000 0.0000 0.0000 0.0000 16.2401
#
#
#
# Elastic Compliance Matrix: (Units=1/GPa)
#
#
# Indices 1 2 3 4 5 6 
#
# 1 0.076511 -0.012033 -0.014014 0.000000 0.000000 0.000000
# 2 -0.012033 0.012295 -0.006134 0.000000 0.000000 0.000000
# 3 -0.014014 -0.006134 0.018462 0.000000 0.000000 0.000000
# 4 0.000000 0.000000 0.000000 0.051817 0.000000 0.000000
# 5 0.000000 0.000000 0.000000 0.000000 0.050276 0.000000
# 6 0.000000 0.000000 0.000000 0.000000 0.000000 0.061576
#
#
# Mechanical properties :
#
#
# Convention : Reuss Voigt Hill
#
# Bulk Modulus (GPa) = 23.30709 69.50501 46.40605
# Shear Modulus (GPa) = 14.30202 20.26324 17.28263
#
# Velocity S-wave (km/s) = 3.02556 3.60132 3.32592
# Velocity P-wave (km/s) = 5.20798 7.85999 6.66718
#
# Compressibility (1/GPa) = 0.04290541
#
# Stress axis : x y z
#
# Youngs Moduli (GPa) = 13.06994 81.33685 54.16476
#
# Poissons Ratio (x) = 0.97873 0.75906
# Poissons Ratio (y) = 0.15727 0.33227
# Poissons Ratio (z) = 0.18316 0.49896
#
# Static dielectric constant tensor:
#      x y z
#    x 1.525240 0.000000 0.000000 
#    y 0.000000 1.511840 0.000000 
#    z 0.000000 0.000000 1.500550 
# 
# From -- ./inp_files/34476.got.cif
#   From: 2010.05.17/outbox.cif.g08.bks.cpg/sg53_18_cif.got.tgz:34476.got - 2010.06.03 12:45:16.
