data_PCOD9414512
_publ_section_title
;
Structure prediction by ZEFSAII (Michael W. Deem and Ramdas Pophale) SiO2 
 PCOD9414512
Probable space group: P M N A
;
_chemical_formula_sum "Si O2"
_cell_formula_units_Z 64
_cell_length_a 8.541248
_cell_length_b 17.362962
_cell_length_c 24.730488
_cell_angle_alpha 90.000000
_cell_angle_beta 90.000000
_cell_angle_gamma 90.000000
_cell_volume 3667.565114
_symmetry_space_group_name_H-M "P M N A"
_symmetry_group_IT_number 53
_symmetry_cell_setting 'orthorhombic'
loop_
_space_group_symop_operation_xyz
x,y,z
1/2-x,-y,1/2+z
x,-y,-z
1/2-x,y,1/2-z
-x,-y,-z
1/2+x,y,1/2-z
-x,y,z
1/2+x,-y,1/2+z
loop_
_atom_site_type_symbol
_atom_site_label
_atom_site_fract_x
_atom_site_fract_y
_atom_site_fract_z
Si Si1 0.689166 0.035400 0.407071
Si Si2 0.687695 0.762904 0.188752
Si Si3 0.310831 0.141281 0.590284
Si Si4 0.813797 0.870584 0.690563
Si Si5 0.812004 0.575610 0.688325
Si Si6 0.190388 0.184055 0.024816
Si Si7 0.688503 0.593357 0.188807
Si Si8 0.187821 0.723169 0.872319
O O1 0.500000 0.038086 0.404270
O O2 0.758492 0.063496 0.350436
O O3 0.736175 0.100719 0.450379
O O4 0.734583 0.947900 0.418547
O O5 0.750000 0.773584 0.250000
O O6 0.500000 0.764812 0.191193
O O7 0.746775 0.824959 0.145932
O O8 0.738805 0.677263 0.167802
O O9 0.500000 0.143928 0.592493
O O10 0.257401 0.188328 0.537130
O O11 0.750000 0.885118 0.750000
O O12 0.742899 0.791039 0.667684
O O13 0.000000 0.864810 0.690998
O O14 0.750000 0.585555 0.750000
O O15 0.762123 0.490430 0.667115
O O16 0.752336 0.643161 0.649873
O O17 0.000000 0.578340 0.690823
O O18 0.240845 0.248874 0.067861
O O19 0.000000 0.185350 0.024479
O O20 0.750000 0.592843 0.250000
O O21 0.500000 0.593458 0.188616
O O22 0.000000 0.720689 0.872005
#
# Coordination Sequence:
#
# PCOD9414512 Si02
#       8
#     8   8   8   8   8   8   8   8
#     4   9  18  33  52  73  96 124 161 204 246 288
#     4  10  20  35  53  75 102 130 160 197 243 291
#     4  10  19  33  55  78  97 123 160 201 245 291
#     4  11  21  33  48  67  96 132 166 199 240 288
#     4  10  18  29  47  73 101 129 163 200 240 286
#     4   8  16  32  53  73  95 126 163 200 239 285
#     4   8  16  30  48  69  96 128 160 196 238 285
#     4  10  19  32  49  71  99 130 164 200 238 282
#
# _framework density 17.450271000000001
#
# number of rings (size 3 to 8) (size 9 to 14) (size 15 to 20)
#    0.000    2.500    0.000    3.750    0.000    3.500 
#    0.000    3.125    0.000    4.500    0.000    5.250 
#    0.000    0.000    0.000    0.000    0.000    0.000 
#
# Total GULP energy -356624.894511 kJ/mol
# GULP energy per Si atom -5572.263977 kJ/mol
# Density = 1.741055 g / cm^3
# Si number density = 17.450271 Si / 1000 Ang^3
#
#
#
# Elastic Constant Matrix: (Units=GPa)
#
#
# Indices 1 2 3 4 5 6 
#
# 1 22.5945 16.5973 13.3001 0.0000 0.0000 0.0000
# 2 16.5973 68.6031 28.9282 0.0000 0.0000 0.0000
# 3 13.3001 28.9282 97.2627 0.0000 0.0000 0.0000
# 4 0.0000 0.0000 0.0000 16.9194 0.0000 0.0000
# 5 0.0000 0.0000 0.0000 0.0000 17.8675 0.0000
# 6 0.0000 0.0000 0.0000 0.0000 0.0000 19.7755
#
#
#
# Elastic Compliance Matrix: (Units=1/GPa)
#
#
# Indices 1 2 3 4 5 6 
#
# 1 0.055211 -0.011633 -0.004090 0.000000 0.000000 0.000000
# 2 -0.011633 0.019118 -0.004095 0.000000 0.000000 0.000000
# 3 -0.004090 -0.004095 0.012059 0.000000 0.000000 0.000000
# 4 0.000000 0.000000 0.000000 0.059104 0.000000 0.000000
# 5 0.000000 0.000000 0.000000 0.000000 0.055967 0.000000
# 6 0.000000 0.000000 0.000000 0.000000 0.000000 0.050568
#
#
# Mechanical properties :
#
#
# Convention : Reuss Voigt Hill
#
# Bulk Modulus (GPa) = 21.38963 34.01239 27.70101
# Shear Modulus (GPa) = 16.27357 19.55480 17.91418
#
# Velocity S-wave (km/s) = 3.05711 3.35117 3.20751
# Velocity P-wave (km/s) = 4.97447 5.87428 5.44300
#
# Compressibility (1/GPa) = 0.04675162
#
# Stress axis : x y z
#
# Youngs Moduli (GPa) = 18.11230 52.30708 82.92714
#
# Poissons Ratio (x) = 0.60847 0.33917
# Poissons Ratio (y) = 0.21070 0.33962
# Poissons Ratio (z) = 0.07408 0.21422
#
# Static dielectric constant tensor:
#      x y z
#    x 1.597070 0.000000 0.000000 
#    y 0.000000 1.622530 0.000000 
#    z 0.000000 0.000000 1.569640 
# 
# From -- ./inp_files/34236.got.cif
#   From: 2010.05.17/outbox.cif.g08.bks.cpg/sg53_18_cif.got.tgz:34236.got - 2010.06.03 12:45:16.
