data_PCOD9414317
_publ_section_title
;
Structure prediction by ZEFSAII (Michael W. Deem and Ramdas Pophale) SiO2 
 PCOD9414317
Probable space group: P M N A
;
_chemical_formula_sum "Si O2"
_cell_formula_units_Z 48
_cell_length_a 16.910815
_cell_length_b 9.397575
_cell_length_c 17.801397
_cell_angle_alpha 90.000000
_cell_angle_beta 90.000000
_cell_angle_gamma 90.000000
_cell_volume 2829.009623
_symmetry_space_group_name_H-M "P M N A"
_symmetry_group_IT_number 53
_symmetry_cell_setting 'orthorhombic'
loop_
_space_group_symop_operation_xyz
x,y,z
1/2-x,-y,1/2+z
x,-y,-z
1/2-x,y,1/2-z
-x,-y,-z
1/2+x,y,1/2-z
-x,y,z
1/2+x,-y,1/2+z
loop_
_atom_site_type_symbol
_atom_site_label
_atom_site_fract_x
_atom_site_fract_y
_atom_site_fract_z
Si Si1 0.594485 0.833451 0.991215
Si Si2 0.183649 0.402706 0.574714
Si Si3 0.000000 0.124372 0.105022
Si Si4 0.671419 0.315524 0.152367
Si Si5 0.357103 0.700460 0.673699
Si Si6 0.133679 0.423259 0.918696
Si Si7 0.000000 0.195671 0.928201
O O1 0.500000 0.817085 0.993350
O O2 0.658775 0.515143 0.861689
O O3 0.633464 0.736751 0.056624
O O4 0.613959 0.000000 0.000000
O O5 0.178128 0.500000 0.500000
O O6 0.275990 0.370979 0.585377
O O7 0.127095 0.772445 0.587844
O O8 0.920893 0.192208 0.139838
O O9 0.000000 0.954790 0.113052
O O10 0.000000 0.162916 0.017018
O O11 0.644761 0.284251 0.236692
O O12 0.765843 0.284247 0.146005
O O13 0.380265 0.543605 0.643996
O O14 0.075405 0.292395 0.911055
O O15 0.122035 0.500000 0.000000
#
# Coordination Sequence:
#
# PCOD9414317 Si02
#       7
#     8   8   4   8   8   8   4
#     4  10  21  36  55  81 111 143 177 221 274 327
#     4   8  17  33  55  81 102 131 181 227 264 313
#     4  11  23  34  51  82 115 149 177 215 260 328
#     4   9  20  37  59  81 104 138 183 230 272 319
#     4  10  20  37  57  81 108 141 182 225 274 314
#     4  10  17  33  55  78 106 141 178 224 261 307
#     4  11  22  33  50  81 116 144 182 214 257 319
#
# _framework density 16.967068999999999
#
# number of rings (size 3 to 8) (size 9 to 14) (size 15 to 20)
#    0.000    2.333    1.667    1.750    1.167    4.333 
#    0.000    1.667    0.000    4.000    0.000    0.000 
#    0.000    0.000    0.000    0.000    0.000    0.000 
#
# Total GULP energy -267601.552877 kJ/mol
# GULP energy per Si atom -5575.032352 kJ/mol
# Density = 1.692845 g / cm^3
# Si number density = 16.967069 Si / 1000 Ang^3
#
#
#
# Elastic Constant Matrix: (Units=GPa)
#
#
# Indices 1 2 3 4 5 6 
#
# 1 90.8918 97.0382 40.2860 0.0000 0.0000 0.0000
# 2 97.0382 153.8481 44.6896 0.0000 0.0000 0.0000
# 3 40.2860 44.6896 58.4149 0.0000 0.0000 0.0000
# 4 0.0000 0.0000 0.0000 18.3881 0.0000 0.0000
# 5 0.0000 0.0000 0.0000 0.0000 -29.5628 0.0000
# 6 0.0000 0.0000 0.0000 0.0000 0.0000 57.6894
#
#
#
# Elastic Compliance Matrix: (Units=1/GPa)
#
#
# Indices 1 2 3 4 5 6 
#
# 1 0.037787 -0.020911 -0.010062 0.000000 0.000000 0.000000
# 2 -0.020911 0.019929 -0.000825 0.000000 0.000000 0.000000
# 3 -0.010062 -0.000825 0.024690 0.000000 0.000000 0.000000
# 4 0.000000 0.000000 0.000000 0.054383 0.000000 0.000000
# 5 0.000000 0.000000 0.000000 0.000000 -0.033826 0.000000
# 6 0.000000 0.000000 0.000000 0.000000 0.000000 0.017334
#
#
# Mechanical properties :
#
#
# Convention : Reuss Voigt Hill
#
# Bulk Modulus (GPa) = 53.16611 74.13135 63.64873
# Shear Modulus (GPa) = 26.29332 17.37902 21.83617
#
# Velocity S-wave (km/s) = 3.94085 3.20391 3.59133
# Velocity P-wave (km/s) = 7.21873 7.58109 7.40212
#
# Compressibility (1/GPa) = 0.01880897
#
# Stress axis : x y z
#
# Youngs Moduli (GPa) = 26.46421 50.17836 40.50282
#
# Poissons Ratio (x) = 1.04927 0.40755
# Poissons Ratio (y) = 0.55339 0.03342
# Poissons Ratio (z) = 0.26629 0.04140
#
# Static dielectric constant tensor:
#      x y z
#    x 1.574640 0.000000 0.000000 
#    y 0.000000 1.560460 0.000000 
#    z 0.000000 0.000000 1.577130 
# 
# From -- ./inp_files/28309.got.cif
#   From: 2010.05.17/outbox.cif.g08.bks.cpg/sg53_15_cif.got.tgz:28309.got - 2010.06.03 12:45:16.
