data_PCOD9414688
_publ_section_title
;
Structure prediction by ZEFSAII (Michael W. Deem and Ramdas Pophale) SiO2 
 PCOD9414688
Probable space group: P M N A
;
_chemical_formula_sum "Si O2"
_cell_formula_units_Z 64
_cell_length_a 8.765380
_cell_length_b 15.147995
_cell_length_c 30.469136
_cell_angle_alpha 90.000000
_cell_angle_beta 90.000000
_cell_angle_gamma 90.000000
_cell_volume 4045.628880
_symmetry_space_group_name_H-M "P M N A"
_symmetry_group_IT_number 53
_symmetry_cell_setting 'orthorhombic'
loop_
_space_group_symop_operation_xyz
x,y,z
1/2-x,-y,1/2+z
x,-y,-z
1/2-x,y,1/2-z
-x,-y,-z
1/2+x,y,1/2-z
-x,y,z
1/2+x,-y,1/2+z
loop_
_atom_site_type_symbol
_atom_site_label
_atom_site_fract_x
_atom_site_fract_y
_atom_site_fract_z
Si Si1 0.682741 0.327857 0.039803
Si Si2 0.818127 0.541202 0.889682
Si Si3 0.184154 0.373588 0.558821
Si Si4 0.316801 0.294935 0.795878
Si Si5 0.317306 0.049251 0.565135
Si Si6 0.683451 0.204136 0.884581
Si Si7 0.316861 0.497701 0.202982
Si Si8 0.315931 0.134118 0.470393
O O1 0.500000 0.333465 0.043916
O O2 0.761050 0.379786 0.079325
O O3 0.735029 0.226289 0.038341
O O4 0.724261 0.371601 0.992638
O O5 0.758464 0.452059 0.913531
O O6 0.749346 0.546843 0.840690
O O7 0.000000 0.539560 0.887203
O O8 0.227811 0.279469 0.580111
O O9 0.000000 0.382695 0.562441
O O10 0.250000 0.263467 0.750000
O O11 0.500000 0.291538 0.794353
O O12 0.263789 0.239213 0.837457
O O13 0.275154 0.398096 0.801442
O O14 0.500000 0.050141 0.568554
O O15 0.246345 0.109331 0.602491
O O16 0.279062 0.097631 0.519062
O O17 0.270502 0.946996 0.561397
O O18 0.500000 0.201017 0.884660
O O19 0.250000 0.467671 0.250000
O O20 0.500000 0.490535 0.203576
O O21 0.500000 0.145273 0.468083
#
# Coordination Sequence:
#
# PCOD9414688 Si02
#       8
#     8   8   8   8   8   8   8   8
#     4  11  22  35  52  71  97 136 176 214 256 298
#     4  12  24  35  50  73 100 136 175 210 253 303
#     4  10  20  35  49  68 101 138 172 210 251 293
#     4   9  18  31  48  69  97 128 161 202 247 291
#     4   9  18  31  49  72  99 130 161 200 247 294
#     4  10  18  31  49  72 100 132 167 205 246 293
#     4  10  19  35  54  74 101 130 166 210 254 299
#     4   9  18  33  49  70 100 129 162 205 249 292
#
# _framework density 15.819544
#
# number of rings (size 3 to 8) (size 9 to 14) (size 15 to 20)
#    0.000    2.000    2.500    3.000    0.000    4.500 
#    0.000    1.250    0.000    0.000    0.000    0.875 
#    0.000    4.000    0.000    0.000    0.000    0.000 
#
# Total GULP energy -357081.443885 kJ/mol
# GULP energy per Si atom -5579.397561 kJ/mol
# Density = 1.578354 g / cm^3
# Si number density = 15.819544 Si / 1000 Ang^3
#
#
#
# Elastic Constant Matrix: (Units=GPa)
#
#
# Indices 1 2 3 4 5 6 
#
# 1 36.9657 23.8420 41.6526 0.0000 0.0000 0.0000
# 2 23.8420 63.7253 42.1966 0.0000 0.0000 0.0000
# 3 41.6526 42.1966 133.4582 0.0000 0.0000 0.0000
# 4 0.0000 0.0000 0.0000 23.3601 0.0000 0.0000
# 5 0.0000 0.0000 0.0000 0.0000 24.3853 0.0000
# 6 0.0000 0.0000 0.0000 0.0000 0.0000 23.6769
#
#
#
# Elastic Compliance Matrix: (Units=1/GPa)
#
#
# Indices 1 2 3 4 5 6 
#
# 1 0.046072 -0.009759 -0.011294 0.000000 0.000000 0.000000
# 2 -0.009759 0.021915 -0.003883 0.000000 0.000000 0.000000
# 3 -0.011294 -0.003883 0.012246 0.000000 0.000000 0.000000
# 4 0.000000 0.000000 0.000000 0.042808 0.000000 0.000000
# 5 0.000000 0.000000 0.000000 0.000000 0.041008 0.000000
# 6 0.000000 0.000000 0.000000 0.000000 0.000000 0.042235
#
#
# Mechanical properties :
#
#
# Convention : Reuss Voigt Hill
#
# Bulk Modulus (GPa) = 32.93726 49.94796 41.44261
# Shear Modulus (GPa) = 18.77750 22.71498 20.74624
#
# Velocity S-wave (km/s) = 3.44900 3.79341 3.62530
# Velocity P-wave (km/s) = 6.06025 7.12943 6.61647
#
# Compressibility (1/GPa) = 0.03036075
#
# Stress axis : x y z
#
# Youngs Moduli (GPa) = 21.70514 45.63101 81.66249
#
# Poissons Ratio (x) = 0.44532 0.92226
# Poissons Ratio (y) = 0.21182 0.31711
# Poissons Ratio (z) = 0.24513 0.17719
#
# Static dielectric constant tensor:
#      x y z
#    x 1.532200 0.000000 0.000000 
#    y 0.000000 1.514300 0.000000 
#    z 0.000000 0.000000 1.528590 
# 
# From -- ./inp_files/38406.got.cif
#   From: 2010.05.17/outbox.cif.g08.bks.cpg/sg53_20_cif.got.tgz:38406.got - 2010.06.03 12:45:16.
