data_PCOD9414549
_publ_section_title
;
Structure prediction by ZEFSAII (Michael W. Deem and Ramdas Pophale) SiO2 
 PCOD9414549
Probable space group: P M N A
;
_chemical_formula_sum "Si O2"
_cell_formula_units_Z 48
_cell_length_a 17.722234
_cell_length_b 15.331117
_cell_length_c 7.447907
_cell_angle_alpha 90.000000
_cell_angle_beta 90.000000
_cell_angle_gamma 90.000000
_cell_volume 2023.608568
_symmetry_space_group_name_H-M "P M N A"
_symmetry_group_IT_number 53
_symmetry_cell_setting 'orthorhombic'
loop_
_space_group_symop_operation_xyz
x,y,z
1/2-x,-y,1/2+z
x,-y,-z
1/2-x,y,1/2-z
-x,-y,-z
1/2+x,y,1/2-z
-x,y,z
1/2+x,-y,1/2+z
loop_
_atom_site_type_symbol
_atom_site_label
_atom_site_fract_x
_atom_site_fract_y
_atom_site_fract_z
Si Si1 0.302635 0.282886 0.428264
Si Si2 0.911444 0.385484 0.615959
Si Si3 0.839446 0.789978 0.377522
Si Si4 0.163812 0.982875 0.290061
Si Si5 0.663067 0.548900 0.746937
Si Si6 0.911438 0.153560 0.236979
O O1 0.250000 0.280451 0.250000
O O2 0.243957 0.246348 0.573043
O O3 0.335410 0.380851 0.413545
O O4 0.370205 0.216535 0.400893
O O5 0.885562 0.292903 0.693681
O O6 0.862550 0.401707 0.432383
O O7 0.891085 0.465905 0.744961
O O8 0.000000 0.385577 0.572480
O O9 0.843307 0.879518 0.265484
O O10 0.878437 0.817375 0.568235
O O11 0.250000 0.008212 0.250000
O O12 0.150744 0.000000 0.500000
O O13 0.111114 0.053511 0.196379
O O14 0.750000 0.516892 0.750000
O O15 0.000000 0.164469 0.238824
#
# Coordination Sequence:
#
# PCOD9414549 Si02
#       6
#     8   8   8   8   8   8
#     4   9  16  32  51  73 106 147 188 226 280 356
#     4  11  21  32  53  89 115 136 183 256 309 337
#     4  10  19  33  53  77 114 144 188 237 292 351
#     4  10  21  36  57  82 114 151 192 241 294 348
#     4  10  18  32  51  75 111 145 182 223 287 358
#     4  10  18  29  51  82 111 143 183 237 297 346
#
# _framework density 23.720001
#
# number of rings (size 3 to 8) (size 9 to 14) (size 15 to 20)
#    0.000    2.000    5.000    4.000    0.000    5.000 
#    0.000    0.000    0.000    4.500    0.000   11.667 
#    0.000    0.000    0.000    0.000    0.000    0.000 
#
# Total GULP energy -268244.846477 kJ/mol
# GULP energy per Si atom -5588.434302 kJ/mol
# Density = 2.366601 g / cm^3
# Si number density = 23.720001 Si / 1000 Ang^3
#
#
#
# Elastic Constant Matrix: (Units=GPa)
#
#
# Indices 1 2 3 4 5 6 
#
# 1 159.6529 53.8272 17.9911 0.0000 0.0000 0.0000
# 2 53.8272 185.3414 31.6222 0.0000 0.0000 0.0000
# 3 17.9911 31.6222 66.7139 0.0000 0.0000 0.0000
# 4 0.0000 0.0000 0.0000 25.8444 0.0000 0.0000
# 5 0.0000 0.0000 0.0000 0.0000 8.1825 0.0000
# 6 0.0000 0.0000 0.0000 0.0000 0.0000 -86.8722
#
#
#
# Elastic Compliance Matrix: (Units=1/GPa)
#
#
# Indices 1 2 3 4 5 6 
#
# 1 0.007005 -0.001863 -0.001006 0.000000 0.000000 0.000000
# 2 -0.001863 0.006366 -0.002515 0.000000 0.000000 0.000000
# 3 -0.001006 -0.002515 0.016453 0.000000 0.000000 0.000000
# 4 0.000000 0.000000 0.000000 0.038693 0.000000 0.000000
# 5 0.000000 0.000000 0.000000 0.000000 0.122212 0.000000
# 6 0.000000 0.000000 0.000000 0.000000 0.000000 -0.011511
#
#
# Mechanical properties :
#
#
# Convention : Reuss Voigt Hill
#
# Bulk Modulus (GPa) = 52.47771 68.73215 60.60493
# Shear Modulus (GPa) = 25.46644 9.98211 17.72428
#
# Velocity S-wave (km/s) = 3.28018 2.05364 2.73651
# Velocity P-wave (km/s) = 6.04301 5.88750 5.96576
#
# Compressibility (1/GPa) = 0.01905571
#
# Stress axis : x y z
#
# Youngs Moduli (GPa) = 142.75521 157.09648 60.78001
#
# Poissons Ratio (x) = 0.29263 0.06115
# Poissons Ratio (y) = 0.26592 0.15286
# Poissons Ratio (z) = 0.14363 0.39508
#
# Static dielectric constant tensor:
#      x y z
#    x 1.813180 0.000000 0.000000 
#    y 0.000000 1.965220 0.000000 
#    z 0.000000 0.000000 1.979380 
# 
# From -- ./inp_files/15923.got.cif
#   From: 2010.05.17/outbox.cif.g08.bks.cpg/sg53_8_cif.got.tgz:15923.got - 2010.06.03 12:45:16.
