data_PCOD9414662
_publ_section_title
;
Structure prediction by ZEFSAII (Michael W. Deem and Ramdas Pophale) SiO2 
 PCOD9414662
Probable space group: P M N A
;
_chemical_formula_sum "Si O2"
_cell_formula_units_Z 48
_cell_length_a 14.457449
_cell_length_b 16.451988
_cell_length_c 9.061261
_cell_angle_alpha 90.000000
_cell_angle_beta 90.000000
_cell_angle_gamma 90.000000
_cell_volume 2155.255157
_symmetry_space_group_name_H-M "P M N A"
_symmetry_group_IT_number 53
_symmetry_cell_setting 'orthorhombic'
loop_
_space_group_symop_operation_xyz
x,y,z
1/2-x,-y,1/2+z
x,-y,-z
1/2-x,y,1/2-z
-x,-y,-z
1/2+x,y,1/2-z
-x,y,z
1/2+x,-y,1/2+z
loop_
_atom_site_type_symbol
_atom_site_label
_atom_site_fract_x
_atom_site_fract_y
_atom_site_fract_z
Si Si1 0.753234 0.085264 0.427020
Si Si2 0.390465 0.211170 0.481357
Si Si3 0.396592 0.781325 0.866781
Si Si4 0.605062 0.395215 0.982710
Si Si5 0.605181 0.535895 0.699803
Si Si6 0.188389 0.621580 0.062327
O O1 0.750000 0.073153 0.250000
O O2 0.660408 0.124678 0.496834
O O3 0.827916 0.156800 0.444495
O O4 0.776096 0.000000 0.500000
O O5 0.500000 0.208234 0.508607
O O6 0.374291 0.229110 0.306568
O O7 0.346063 0.286027 0.571755
O O8 0.500000 0.815391 0.873032
O O9 0.395854 0.694180 0.942091
O O10 0.500000 0.404182 0.918564
O O11 0.613718 0.454868 0.125016
O O12 0.704027 0.390955 0.901113
O O13 0.500000 0.560587 0.662790
O O14 0.673700 0.593238 0.608442
O O15 0.625236 0.445159 0.643968
#
# Coordination Sequence:
#
# PCOD9414662 Si02
#       6
#     8   8   8   8   8   8
#     4  10  21  36  57  87 121 149 194 241 297 356
#     4  10  18  30  53  82 111 144 187 238 293 349
#     4   9  17  31  53  83 110 142 187 237 290 349
#     4  10  19  32  52  78 110 145 191 244 293 342
#     4  10  20  30  47  79 114 143 183 236 287 335
#     4  11  18  30  51  78 108 144 191 235 288 338
#
# _framework density 22.271146000000002
#
# number of rings (size 3 to 8) (size 9 to 14) (size 15 to 20)
#    0.000    2.000    3.333    2.500    0.000    0.667 
#    0.000    1.667    0.000    7.000    0.000    0.000 
#    0.000    0.000    0.000    0.000    0.000    0.000 
#
# Total GULP energy -268335.479352 kJ/mol
# GULP energy per Si atom -5590.322486 kJ/mol
# Density = 2.222046 g / cm^3
# Si number density = 22.271146 Si / 1000 Ang^3
#
#
#
# Elastic Constant Matrix: (Units=GPa)
#
#
# Indices 1 2 3 4 5 6 
#
# 1 131.0480 35.9009 14.3226 0.0000 0.0000 0.0000
# 2 35.9009 92.1521 13.2736 0.0000 0.0000 0.0000
# 3 14.3226 13.2736 36.0311 0.0000 0.0000 0.0000
# 4 0.0000 0.0000 0.0000 26.7255 0.0000 0.0000
# 5 0.0000 0.0000 0.0000 0.0000 30.1741 0.0000
# 6 0.0000 0.0000 0.0000 0.0000 0.0000 26.1163
#
#
#
# Elastic Compliance Matrix: (Units=1/GPa)
#
#
# Indices 1 2 3 4 5 6 
#
# 1 0.008725 -0.003062 -0.002340 0.000000 0.000000 0.000000
# 2 -0.003062 0.012534 -0.003400 0.000000 0.000000 0.000000
# 3 -0.002340 -0.003400 0.029937 0.000000 0.000000 0.000000
# 4 0.000000 0.000000 0.000000 0.037417 0.000000 0.000000
# 5 0.000000 0.000000 0.000000 0.000000 0.033141 0.000000
# 6 0.000000 0.000000 0.000000 0.000000 0.000000 0.038290
#
#
# Mechanical properties :
#
#
# Convention : Reuss Voigt Hill
#
# Bulk Modulus (GPa) = 29.77001 42.91397 36.34199
# Shear Modulus (GPa) = 26.47632 29.65213 28.06422
#
# Velocity S-wave (km/s) = 3.45166 3.65281 3.55366
# Velocity P-wave (km/s) = 5.41123 6.09109 5.76120
#
# Compressibility (1/GPa) = 0.03359085
#
# Stress axis : x y z
#
# Youngs Moduli (GPa) = 114.60702 79.78053 33.40375
#
# Poissons Ratio (x) = 0.24430 0.07818
# Poissons Ratio (y) = 0.35095 0.11358
# Poissons Ratio (z) = 0.26822 0.27128
#
# Static dielectric constant tensor:
#      x y z
#    x 1.819430 0.000000 0.000000 
#    y 0.000000 1.806230 0.000000 
#    z 0.000000 0.000000 1.901110 
# 
# From -- ./inp_files/15937.got.cif
#   From: 2010.05.17/outbox.cif.g08.bks.cpg/sg53_8_cif.got.tgz:15937.got - 2010.06.03 12:45:16.
