data_PCOD9414019
_publ_section_title
;
Structure prediction by ZEFSAII (Michael W. Deem and Ramdas Pophale) SiO2 
 PCOD9414019
Probable space group: P N N A
;
_chemical_formula_sum "Si O2"
_cell_formula_units_Z 56
_cell_length_a 15.000000
_cell_length_b 9.000000
_cell_length_c 21.000000
_cell_angle_alpha 90.000000
_cell_angle_beta 90.000000
_cell_angle_gamma 90.000000
_cell_volume 2835.000000
_symmetry_space_group_name_H-M "P N N A"
_symmetry_group_IT_number 52
_symmetry_cell_setting 'orthorhombic'
loop_
_space_group_symop_operation_xyz
x,y,z
1/2-x,-y,z
x,1/2-y,1/2-z
1/2-x,1/2+y,1/2-z
-x,-y,-z
1/2+x,y,-z
-x,1/2+y,1/2+z
1/2+x,1/2-y,1/2+z
loop_
_atom_site_type_symbol
_atom_site_label
_atom_site_fract_x
_atom_site_fract_y
_atom_site_fract_z
Si Si1 0.349179 0.871643 0.635776
Si Si2 0.644813 0.676984 0.562639
Si Si3 0.855205 0.667455 0.566482
Si Si4 0.834917 0.182418 0.319376
Si Si5 0.394304 0.507166 0.000707
Si Si6 0.013913 0.821201 0.181681
Si Si7 0.986467 0.832030 0.817033
O O1 0.253649 0.793101 0.639628
O O2 0.359435 0.960768 0.570165
O O3 0.428242 0.760647 0.651609
O O4 0.349198 0.005684 0.686588
O O5 0.749554 0.665242 0.574135
O O6 0.620019 0.502909 0.538960
O O7 0.590408 0.694034 0.628358
O O8 0.633001 0.839357 0.525966
O O9 0.873318 0.830481 0.533843
O O10 0.906859 0.678524 0.633106
O O11 0.819944 0.250000 0.250000
O O12 0.924842 0.255658 0.345484
O O13 0.500000 0.500000 0.000000
O O14 0.036269 0.750000 0.250000
O O15 0.995865 0.994502 0.193020
O O16 0.968688 0.750000 0.750000
#
# Coordination Sequence:
#
# PCOD9414019 Si02
#       7
#     8   8   8   8   8   8   8
#     4  11  24  41  64  97 129 177 230 276 344 417
#     4  10  24  45  67 100 137 182 225 287 345 405
#     4  10  24  45  67  97 143 178 229 287 340 411
#     4  10  22  40  63  90 134 170 217 282 332 401
#     4  12  24  44  73  97 139 180 233 286 345 416
#     4  11  22  40  67  96 132 175 229 283 347 414
#     4  10  22  40  65  97 133 179 226 284 348 410
#
# _framework density 19.753086
#
# number of rings (size 3 to 8) (size 9 to 14) (size 15 to 20)
#    0.000    1.429    1.429    3.429    6.000    4.000 
#    2.571    0.000    0.000    0.000    0.000    0.000 
#    0.000    0.000    0.000    0.000    0.000    0.000 
#
# Total GULP energy -311879.317576 kJ/mol
# GULP energy per Si atom -5569.273528 kJ/mol
# Density = 1.970813 g / cm^3
# Si number density = 19.753086 Si / 1000 Ang^3
#
#
#
# Elastic Constant Matrix: (Units=GPa)
#
#
# Indices 1 2 3 4 5 6 
#
# 1 123.9305 54.9103 35.1818 0.0000 0.0000 0.0000
# 2 54.9103 190.0914 57.8201 0.0000 0.0000 0.0000
# 3 35.1818 57.8201 79.1590 0.0000 0.0000 0.0000
# 4 0.0000 0.0000 0.0000 37.2704 0.0000 0.0000
# 5 0.0000 0.0000 0.0000 0.0000 376.5523 0.0000
# 6 0.0000 0.0000 0.0000 0.0000 0.0000 35.3744
#
#
#
# Elastic Compliance Matrix: (Units=1/GPa)
#
#
# Indices 1 2 3 4 5 6 
#
# 1 0.009754 -0.001927 -0.002927 0.000000 0.000000 0.000000
# 2 -0.001927 0.007144 -0.004362 0.000000 0.000000 0.000000
# 3 -0.002927 -0.004362 0.017120 0.000000 0.000000 0.000000
# 4 0.000000 0.000000 0.000000 0.026831 0.000000 0.000000
# 5 0.000000 0.000000 0.000000 0.000000 0.002656 0.000000
# 6 0.000000 0.000000 0.000000 0.000000 0.000000 0.028269
#
#
# Mechanical properties :
#
#
# Convention : Reuss Voigt Hill
#
# Bulk Modulus (GPa) = 64.16344 76.55616 70.35980
# Shear Modulus (GPa) = 43.32719 106.19067 74.75893
#
# Velocity S-wave (km/s) = 4.68850 7.34001 6.15864
# Velocity P-wave (km/s) = 7.86528 10.52022 9.28810
#
# Compressibility (1/GPa) = 0.01558520
#
# Stress axis : x y z
#
# Youngs Moduli (GPa) = 102.52255 139.97786 58.41189
#
# Poissons Ratio (x) = 0.26975 0.17100
# Poissons Ratio (y) = 0.19757 0.25477
# Poissons Ratio (z) = 0.30013 0.61054
#
# Static dielectric constant tensor:
#      x y z
#    x 1.700150 0.000000 0.000000 
#    y 0.000000 1.757370 0.000000 
#    z 0.000000 0.000000 1.718940 
# 
# From -- ./inp_files/37320.got.cif
#   From: 2010.05.17/outbox.ucp.g08.bks.cvg/sg52_19_cif.got.tgz:37320.got - 2010.06.11 16:30:12.
