data_PCOD9414813
_publ_section_title
;
Structure prediction by ZEFSAII (Michael W. Deem and Ramdas Pophale) SiO2 
 PCOD9414813
Probable space group: P M N A
;
_chemical_formula_sum "Si O2"
_cell_formula_units_Z 48
_cell_length_a 9.814447
_cell_length_b 29.491439
_cell_length_c 8.628972
_cell_angle_alpha 90.000000
_cell_angle_beta 90.000000
_cell_angle_gamma 90.000000
_cell_volume 2497.588338
_symmetry_space_group_name_H-M "P M N A"
_symmetry_group_IT_number 53
_symmetry_cell_setting 'orthorhombic'
loop_
_space_group_symop_operation_xyz
x,y,z
1/2-x,-y,1/2+z
x,-y,-z
1/2-x,y,1/2-z
-x,-y,-z
1/2+x,y,1/2-z
-x,y,z
1/2+x,-y,1/2+z
loop_
_atom_site_type_symbol
_atom_site_label
_atom_site_fract_x
_atom_site_fract_y
_atom_site_fract_z
Si Si1 0.256869 0.892882 0.934518
Si Si2 0.830778 0.202488 0.584967
Si Si3 0.500000 0.447805 0.944008
Si Si4 0.330824 0.711229 0.416306
Si Si5 0.755500 0.611893 0.060723
Si Si6 0.000000 0.450860 0.929967
Si Si7 0.500000 0.947684 0.439111
Si Si8 0.500000 0.950558 0.069652
O O1 0.250000 0.894042 0.750000
O O2 0.292939 0.842250 0.989800
O O3 0.373454 0.924029 0.002927
O O4 0.124630 0.917097 0.003196
O O5 0.750000 0.196496 0.750000
O O6 0.749790 0.245800 0.511762
O O7 0.000000 0.207557 0.599072
O O8 0.624226 0.415531 0.991710
O O9 0.500000 0.452064 0.756832
O O10 0.500000 0.500000 0.000000
O O11 0.250000 0.709494 0.250000
O O12 0.500000 0.715308 0.403826
O O13 0.291056 0.662907 0.490936
O O14 0.750000 0.613896 0.250000
O O15 0.873698 0.578152 0.016221
O O16 0.000000 0.500000 0.000000
O O17 0.500000 0.950927 0.254177
O O18 0.500000 0.000000 0.500000
O O19 0.500000 0.000000 0.000000
#
# Coordination Sequence:
#
# PCOD9414813 Si02
#       8
#     8   8   4   8   8   4   4   4
#     4  12  26  44  66  96 133 175 217 260 315 381
#     4  11  23  39  63  95 126 161 205 259 319 377
#     4  10  20  32  49  76 107 147 188 237 293 352
#     4  10  19  32  55  88 119 152 196 251 307 366
#     4   9  18  30  50  77 110 143 189 238 293 351
#     4  10  18  32  51  74 103 143 184 237 289 354
#     4  12  26  44  71 100 131 177 216 269 321 372
#     4  12  24  46  69  98 135 169 220 269 317 380
#
# _framework density 19.218537999999999
#
# number of rings (size 3 to 8) (size 9 to 14) (size 15 to 20)
#    0.000    1.333    1.667    6.000    7.000    0.000 
#    0.000    0.000    0.000    2.000    0.000    0.000 
#    0.000    0.000    0.000    0.000    0.000    0.000 
#
# Total GULP energy -267222.789531 kJ/mol
# GULP energy per Si atom -5567.141449 kJ/mol
# Density = 1.917480 g / cm^3
# Si number density = 19.218538 Si / 1000 Ang^3
#
#
#
# Elastic Constant Matrix: (Units=GPa)
#
#
# Indices 1 2 3 4 5 6 
#
# 1 235.5090 114.0530 44.7521 0.0000 0.0000 0.0000
# 2 114.0530 241.0626 57.7149 0.0000 0.0000 0.0000
# 3 44.7521 57.7149 86.7053 0.0000 0.0000 0.0000
# 4 0.0000 0.0000 0.0000 34.3139 0.0000 0.0000
# 5 0.0000 0.0000 0.0000 0.0000 17.3856 0.0000
# 6 0.0000 0.0000 0.0000 0.0000 0.0000 -129.9103
#
#
#
# Elastic Compliance Matrix: (Units=1/GPa)
#
#
# Indices 1 2 3 4 5 6 
#
# 1 0.005638 -0.002344 -0.001349 0.000000 0.000000 0.000000
# 2 -0.002344 0.005910 -0.002724 0.000000 0.000000 0.000000
# 3 -0.001349 -0.002724 0.014043 0.000000 0.000000 0.000000
# 4 0.000000 0.000000 0.000000 0.029143 0.000000 0.000000
# 5 0.000000 0.000000 0.000000 0.000000 0.057519 0.000000
# 6 0.000000 0.000000 0.000000 0.000000 0.000000 -0.007698
#
#
# Mechanical properties :
#
#
# Convention : Reuss Voigt Hill
#
# Bulk Modulus (GPa) = 78.39837 110.70190 94.55013
# Shear Modulus (GPa) = 41.10464 7.47498 24.28981
#
# Velocity S-wave (km/s) = 4.62974 1.97431 3.55896
# Velocity P-wave (km/s) = 8.33432 7.93246 8.13587
#
# Compressibility (1/GPa) = 0.01275537
#
# Stress axis : x y z
#
# Youngs Moduli (GPa) = 177.37196 169.21721 71.21083
#
# Poissons Ratio (x) = 0.39670 0.09609
# Poissons Ratio (y) = 0.41582 0.19395
# Poissons Ratio (z) = 0.23935 0.46089
#
# Static dielectric constant tensor:
#      x y z
#    x 1.671900 0.000000 0.000000 
#    y 0.000000 1.656950 0.000000 
#    z 0.000000 0.000000 1.677560 
# 
# From -- ./inp_files/6873.got.cif
#   From: 2010.05.17/outbox.cif.g08.bks.cpg/sg53_4_cif.got.tgz:6873.got - 2010.06.03 12:45:16.
