data_PCOD9414901
_publ_section_title
;
Structure prediction by ZEFSAII (Michael W. Deem and Ramdas Pophale) SiO2 
 PCOD9414901
Probable space group: P M N A
;
_chemical_formula_sum "Si O2"
_cell_formula_units_Z 64
_cell_length_a 8.303992
_cell_length_b 12.268961
_cell_length_c 31.929471
_cell_angle_alpha 90.000000
_cell_angle_beta 90.000000
_cell_angle_gamma 90.000000
_cell_volume 3253.017738
_symmetry_space_group_name_H-M "P M N A"
_symmetry_group_IT_number 53
_symmetry_cell_setting 'orthorhombic'
loop_
_space_group_symop_operation_xyz
x,y,z
1/2-x,-y,1/2+z
x,-y,-z
1/2-x,y,1/2-z
-x,-y,-z
1/2+x,y,1/2-z
-x,y,z
1/2+x,-y,1/2+z
loop_
_atom_site_type_symbol
_atom_site_label
_atom_site_fract_x
_atom_site_fract_y
_atom_site_fract_z
Si Si1 0.807424 0.878846 0.874652
Si Si2 0.196666 0.267168 0.546334
Si Si3 0.805246 0.501144 0.580482
Si Si4 0.305532 0.736147 0.704590
Si Si5 0.694851 0.263200 0.047339
Si Si6 0.192288 0.735766 0.204870
Si Si7 0.307493 0.126513 0.874450
Si Si8 0.805905 0.499575 0.823584
O O1 0.749339 0.810709 0.834048
O O2 0.755643 0.816538 0.916655
O O3 0.000000 0.881031 0.872936
O O4 0.744583 0.001521 0.874074
O O5 0.245812 0.391076 0.556962
O O6 0.248773 0.235091 0.499698
O O7 0.251863 0.188586 0.583691
O O8 0.000000 0.265733 0.546349
O O9 0.754411 0.613148 0.558420
O O10 0.742460 0.499285 0.627819
O O11 0.000000 0.500660 0.581614
O O12 0.250000 0.775076 0.750000
O O13 0.500000 0.735060 0.703814
O O14 0.247214 0.611907 0.697066
O O15 0.500000 0.260644 0.048001
O O16 0.250000 0.775643 0.250000
O O17 0.247523 0.810250 0.166524
O O18 0.254528 0.612084 0.197248
O O19 0.000000 0.732676 0.204795
O O20 0.500000 0.132149 0.874751
O O21 0.000000 0.499645 0.821026
#
# Coordination Sequence:
#
# PCOD9414901 Si02
#       8
#     8   8   8   8   8   8   8   8
#     4  11  24  42  60  82 118 156 197 247 297 350
#     4   9  19  36  59  89 121 152 191 242 295 346
#     4  10  18  32  59  90 119 152 191 236 289 351
#     4  10  22  39  60  85 116 151 188 235 288 343
#     4  10  20  36  61  90 118 153 196 241 291 351
#     4  11  23  39  62  90 121 155 193 238 289 349
#     4  11  23  41  63  85 115 154 200 248 294 346
#     4  10  20  36  58  87 122 154 185 231 291 350
#
# _framework density 19.674039
#
# number of rings (size 3 to 8) (size 9 to 14) (size 15 to 20)
#    0.000    1.750    2.500    1.875    0.000    4.500 
#    0.000    5.625    0.000    1.500    0.000    0.000 
#    0.000    0.000    0.000    0.000    0.000    0.000 
#
# Total GULP energy -357586.375038 kJ/mol
# GULP energy per Si atom -5587.287110 kJ/mol
# Density = 1.962926 g / cm^3
# Si number density = 19.674039 Si / 1000 Ang^3
#
#
#
# Elastic Constant Matrix: (Units=GPa)
#
#
# Indices 1 2 3 4 5 6 
#
# 1 17.5099 23.5793 20.0789 0.0000 0.0000 0.0000
# 2 23.5793 152.1501 88.5204 0.0000 0.0000 0.0000
# 3 20.0789 88.5204 198.8602 0.0000 0.0000 0.0000
# 4 0.0000 0.0000 0.0000 0.9919 0.0000 0.0000
# 5 0.0000 0.0000 0.0000 0.0000 29.7596 0.0000
# 6 0.0000 0.0000 0.0000 0.0000 0.0000 23.7939
#
#
#
# Elastic Compliance Matrix: (Units=1/GPa)
#
#
# Indices 1 2 3 4 5 6 
#
# 1 0.073631 -0.009562 -0.003178 0.000000 0.000000 0.000000
# 2 -0.009562 0.010111 -0.003535 0.000000 0.000000 0.000000
# 3 -0.003178 -0.003535 0.006923 0.000000 0.000000 0.000000
# 4 0.000000 0.000000 0.000000 1.008179 0.000000 0.000000
# 5 0.000000 0.000000 0.000000 0.000000 0.033603 0.000000
# 6 0.000000 0.000000 0.000000 0.000000 0.000000 0.042028
#
#
# Mechanical properties :
#
#
# Convention : Reuss Voigt Hill
#
# Bulk Modulus (GPa) = 17.20731 70.31971 43.76351
# Shear Modulus (GPa) = 4.07698 26.66518 15.37108
#
# Velocity S-wave (km/s) = 1.44110 3.68550 2.79818
# Velocity P-wave (km/s) = 3.39620 7.34374 5.72122
#
# Compressibility (1/GPa) = 0.05811484
#
# Stress axis : x y z
#
# Youngs Moduli (GPa) = 13.58118 98.90034 144.43950
#
# Poissons Ratio (x) = 0.94567 0.45906
# Poissons Ratio (y) = 0.12986 0.51065
# Poissons Ratio (z) = 0.04316 0.34965
#
# Static dielectric constant tensor:
#      x y z
#    x 1.690920 0.000000 0.000000 
#    y 0.000000 1.681860 0.000000 
#    z 0.000000 0.000000 1.670670 
# 
# From -- ./inp_files/38194.got.cif
#   From: 2010.05.17/outbox.cif.g08.bks.cpg/sg53_20_cif.got.tgz:38194.got - 2010.06.03 12:45:16.
