data_PCOD9414306
_publ_section_title
;
Structure prediction by ZEFSAII (Michael W. Deem and Ramdas Pophale) SiO2 
 PCOD9414306
Probable space group: P M N A
;
_chemical_formula_sum "Si O2"
_cell_formula_units_Z 40
_cell_length_a 14.622672
_cell_length_b 5.540097
_cell_length_c 21.556213
_cell_angle_alpha 90.000000
_cell_angle_beta 90.000000
_cell_angle_gamma 90.000000
_cell_volume 1746.290830
_symmetry_space_group_name_H-M "P M N A"
_symmetry_group_IT_number 53
_symmetry_cell_setting 'orthorhombic'
loop_
_space_group_symop_operation_xyz
x,y,z
1/2-x,-y,1/2+z
x,-y,-z
1/2-x,y,1/2-z
-x,-y,-z
1/2+x,y,1/2-z
-x,y,z
1/2+x,-y,1/2+z
loop_
_atom_site_type_symbol
_atom_site_label
_atom_site_fract_x
_atom_site_fract_y
_atom_site_fract_z
Si Si1 0.650205 0.250000 0.130417
Si Si2 0.781187 0.250000 0.019627
Si Si3 0.393005 0.750000 0.729430
Si Si4 0.151487 0.750000 0.407999
Si Si5 0.185321 0.750000 0.189835
O O1 0.660554 0.250000 0.204422
O O2 0.604515 0.501145 0.110635
O O3 0.604515 0.998855 0.110635
O O4 0.744141 0.250000 0.089649
O O5 0.687780 0.250000 0.977906
O O6 0.828521 0.500000 0.000000
O O7 0.828521 0.000000 0.000000
O O8 0.500000 0.750000 0.745649
O O9 0.370777 0.499662 0.694334
O O10 0.370777 0.000338 0.694334
O O11 0.245388 0.750000 0.367496
O O12 0.250000 0.750000 0.250000
#
# Coordination Sequence:
#
# PCOD9414306 Si02
#       5
#     8   8   8   8   8
#     4  10  17  32  50  74 108 139 173 224 269 321
#     4   8  16  27  46  73 102 129 167 227 267 303
#     4  12  24  36  52  81 119 154 180 219 278 336
#     4  10  18  30  53  77 101 135 181 238 264 301
#     4  12  21  36  57  80 106 148 191 233 271 319
#
# _framework density 22.905691999999998
#
# number of rings (size 3 to 8) (size 9 to 14) (size 15 to 20)
#    0.000    1.600    4.000    2.400    0.000    0.000 
#    0.000    0.000    0.000   10.800    0.000    0.000 
#    0.000  144.000    0.000    0.000    0.000    0.000 
#
# Total GULP energy -223230.711444 kJ/mol
# GULP energy per Si atom -5580.767786 kJ/mol
# Density = 2.285356 g / cm^3
# Si number density = 22.905692 Si / 1000 Ang^3
#
#
#
# Elastic Constant Matrix: (Units=GPa)
#
#
# Indices 1 2 3 4 5 6 
#
# 1 36.9769 26.3164 35.4583 0.0000 0.0000 0.0000
# 2 26.3164 276.1455 31.1840 0.0000 0.0000 0.0000
# 3 35.4583 31.1840 98.2474 0.0000 0.0000 0.0000
# 4 0.0000 0.0000 0.0000 43.5712 0.0000 0.0000
# 5 0.0000 0.0000 0.0000 0.0000 -8.1829 0.0000
# 6 0.0000 0.0000 0.0000 0.0000 0.0000 -6.6747
#
#
#
# Elastic Compliance Matrix: (Units=1/GPa)
#
#
# Indices 1 2 3 4 5 6 
#
# 1 0.042868 -0.002425 -0.014702 0.000000 0.000000 0.000000
# 2 -0.002425 0.003893 -0.000360 0.000000 0.000000 0.000000
# 3 -0.014702 -0.000360 0.015599 0.000000 0.000000 0.000000
# 4 0.000000 0.000000 0.000000 0.022951 0.000000 0.000000
# 5 0.000000 0.000000 0.000000 0.000000 -0.122206 0.000000
# 6 0.000000 0.000000 0.000000 0.000000 0.000000 -0.149820
#
#
# Mechanical properties :
#
#
# Convention : Reuss Voigt Hill
#
# Bulk Modulus (GPa) = 36.51595 66.36522 51.44059
# Shear Modulus (GPa) = -35.05995 26.97012 -4.04491
#
# Velocity S-wave (km/s) = -3.91656 3.43511 -1.33031
# Velocity P-wave (km/s) = 2.11568 6.69100 4.48850
#
# Compressibility (1/GPa) = 0.02738529
#
# Stress axis : x y z
#
# Youngs Moduli (GPa) = 23.32762 256.86541 64.10785
#
# Poissons Ratio (x) = 0.62291 0.94249
# Poissons Ratio (y) = 0.05657 0.02311
# Poissons Ratio (z) = 0.34295 0.09259
#
# Static dielectric constant tensor:
#      x y z
#    x 1.761230 0.000000 0.000000 
#    y 0.000000 2.017350 0.000000 
#    z 0.000000 0.000000 1.891510 
# 
# From -- ./inp_files/35143.got.cif
#   From: 2010.05.17/outbox.cif.g08.bks.cpg/sg53_18_cif.got.tgz:35143.got - 2010.06.03 12:45:16.
