data_PCOD9414349
_publ_section_title
;
Structure prediction by ZEFSAII (Michael W. Deem and Ramdas Pophale) SiO2 
 PCOD9414349
Probable space group: P M N A
;
_chemical_formula_sum "Si O2"
_cell_formula_units_Z 56
_cell_length_a 22.727555
_cell_length_b 5.428850
_cell_length_c 22.302435
_cell_angle_alpha 90.000000
_cell_angle_beta 90.000000
_cell_angle_gamma 90.000000
_cell_volume 2751.774500
_symmetry_space_group_name_H-M "P M N A"
_symmetry_group_IT_number 53
_symmetry_cell_setting 'orthorhombic'
loop_
_space_group_symop_operation_xyz
x,y,z
1/2-x,-y,1/2+z
x,-y,-z
1/2-x,y,1/2-z
-x,-y,-z
1/2+x,y,1/2-z
-x,y,z
1/2+x,-y,1/2+z
loop_
_atom_site_type_symbol
_atom_site_label
_atom_site_fract_x
_atom_site_fract_y
_atom_site_fract_z
Si Si1 0.133702 0.184912 0.414170
Si Si2 0.565500 0.316538 0.929962
Si Si3 0.232869 0.751988 0.962717
Si Si4 0.087489 0.312799 0.705599
Si Si5 0.727188 0.301680 0.815095
Si Si6 0.290480 0.186464 0.339603
Si Si7 0.386261 0.815720 0.767317
O O1 0.094730 0.413641 0.439313
O O2 0.199561 0.233228 0.437506
O O3 0.129092 0.187047 0.340218
O O4 0.108014 0.921904 0.436877
O O5 0.500000 0.284108 0.956464
O O6 0.557722 0.318380 0.857996
O O7 0.187741 0.754005 0.906526
O O8 0.228130 0.500000 0.000000
O O9 0.223935 0.000000 0.000000
O O10 0.157409 0.304246 0.688700
O O11 0.079740 0.561989 0.741621
O O12 0.076526 0.062217 0.740136
O O13 0.750000 0.242240 0.750000
O O14 0.750277 0.573352 0.828245
O O15 0.755633 0.072284 0.849684
O O16 0.333656 0.174118 0.281879
#
# Coordination Sequence:
#
# PCOD9414349 Si02
#       7
#     8   8   8   8   8   8   8
#     4  10  21  35  56  72  97 125 166 217 254 306
#     4  10  19  33  53  77  97 125 162 206 269 323
#     4  12  26  40  52  70 100 141 178 210 262 305
#     4  10  18  26  41  70 105 120 143 184 240 306
#     4  12  19  27  48  77 102 116 152 202 249 287
#     4  12  21  32  50  72 101 126 159 205 242 295
#     4  10  18  30  48  77  92 117 153 202 249 286
#
# _framework density 20.350504999999998
#
# number of rings (size 3 to 8) (size 9 to 14) (size 15 to 20)
#    0.000    1.143    2.857    6.857    0.000    0.000 
#    0.000    0.000    0.000    8.571    0.000    0.000 
#    0.000    0.000    0.000    0.000    0.000  228.571 
#
# Total GULP energy -312275.008725 kJ/mol
# GULP energy per Si atom -5576.339442 kJ/mol
# Density = 2.030419 g / cm^3
# Si number density = 20.350505 Si / 1000 Ang^3
#
#
#
# Elastic Constant Matrix: (Units=GPa)
#
#
# Indices 1 2 3 4 5 6 
#
# 1 30.9564 2.9253 10.7051 0.0000 0.0000 0.0000
# 2 2.9253 164.5384 4.7814 0.0000 0.0000 0.0000
# 3 10.7051 4.7814 78.7589 0.0000 0.0000 0.0000
# 4 0.0000 0.0000 0.0000 29.7560 0.0000 0.0000
# 5 0.0000 0.0000 0.0000 0.0000 13.3238 0.0000
# 6 0.0000 0.0000 0.0000 0.0000 0.0000 -12.4390
#
#
#
# Elastic Compliance Matrix: (Units=1/GPa)
#
#
# Indices 1 2 3 4 5 6 
#
# 1 0.033933 -0.000470 -0.004584 0.000000 0.000000 0.000000
# 2 -0.000470 0.006095 -0.000306 0.000000 0.000000 0.000000
# 3 -0.004584 -0.000306 0.013339 0.000000 0.000000 0.000000
# 4 0.000000 0.000000 0.000000 0.033607 0.000000 0.000000
# 5 0.000000 0.000000 0.000000 0.000000 0.075054 0.000000
# 6 0.000000 0.000000 0.000000 0.000000 0.000000 -0.080392
#
#
# Mechanical properties :
#
#
# Convention : Reuss Voigt Hill
#
# Bulk Modulus (GPa) = 23.44850 34.56413 29.00631
# Shear Modulus (GPa) = 46.91760 23.18430 35.05095
#
# Velocity S-wave (km/s) = 4.80675 3.37894 4.15464
# Velocity P-wave (km/s) = 6.50798 5.67840 6.10729
#
# Compressibility (1/GPa) = 0.04264665
#
# Stress axis : x y z
#
# Youngs Moduli (GPa) = 29.46983 164.07259 74.97043
#
# Poissons Ratio (x) = 0.07713 0.34364
# Poissons Ratio (y) = 0.01385 0.02295
# Poissons Ratio (z) = 0.13508 0.05023
#
# Static dielectric constant tensor:
#      x y z
#    x 1.683740 0.000000 0.000000 
#    y 0.000000 1.875760 0.000000 
#    z 0.000000 0.000000 1.829760 
# 
# From -- ./inp_files/35751.got.cif
#   From: 2010.05.17/outbox.cif.g08.bks.cpg/sg53_18_cif.got.tgz:35751.got - 2010.06.03 12:45:16.
