data_PCOD9414641
_publ_section_title
;
Structure prediction by ZEFSAII (Michael W. Deem and Ramdas Pophale) SiO2 
 PCOD9414641
Probable space group: P M N A
;
_chemical_formula_sum "Si O2"
_cell_formula_units_Z 48
_cell_length_a 8.918105
_cell_length_b 9.317617
_cell_length_c 32.312353
_cell_angle_alpha 90.000000
_cell_angle_beta 90.000000
_cell_angle_gamma 90.000000
_cell_volume 2685.010701
_symmetry_space_group_name_H-M "P M N A"
_symmetry_group_IT_number 53
_symmetry_cell_setting 'orthorhombic'
loop_
_space_group_symop_operation_xyz
x,y,z
1/2-x,-y,1/2+z
x,-y,-z
1/2-x,y,1/2-z
-x,-y,-z
1/2+x,y,1/2-z
-x,y,z
1/2+x,-y,1/2+z
loop_
_atom_site_type_symbol
_atom_site_label
_atom_site_fract_x
_atom_site_fract_y
_atom_site_fract_z
Si Si1 0.182295 0.913366 0.959648
Si Si2 0.326400 0.921198 0.207406
Si Si3 0.318842 0.591877 0.117868
Si Si4 0.680417 0.908317 0.378780
Si Si5 0.172015 0.428700 0.708239
Si Si6 0.680576 0.418127 0.457277
O O1 0.227154 0.747617 0.960767
O O2 0.000000 0.915541 0.960931
O O3 0.225397 0.990680 0.917002
O O4 0.235613 0.000000 0.000000
O O5 0.250000 0.970738 0.250000
O O6 0.500000 0.964074 0.205680
O O7 0.240879 0.962639 0.165479
O O8 0.322576 0.746107 0.208312
O O9 0.500000 0.602441 0.118582
O O10 0.249683 0.750796 0.113753
O O11 0.267985 0.531429 0.162870
O O12 0.261642 0.495045 0.080653
O O13 0.500000 0.897488 0.377420
O O14 0.250000 0.479596 0.750000
O O15 0.000000 0.473047 0.710356
O O16 0.713197 0.500000 0.500000
O O17 0.500000 0.424374 0.450894
#
# Coordination Sequence:
#
# PCOD9414641 Si02
#       6
#     8   8   8   8   8   8
#     4   9  18  33  53  77 102 128 165 212 256 305
#     4   9  16  27  44  70 103 135 170 211 253 298
#     4  10  20  33  49  74 107 137 169 210 255 304
#     4  10  18  30  51  76 103 136 172 212 257 301
#     4   8  15  26  42  66  96 128 161 200 242 285
#     4  10  20  35  56  78  99 129 170 211 255 310
#
# _framework density 17.877023999999999
#
# number of rings (size 3 to 8) (size 9 to 14) (size 15 to 20)
#    0.000    2.667    0.000    3.500    0.000    7.667 
#    0.000    1.667    0.000    4.500    0.000    2.333 
#    0.000    0.000    0.000    0.000    0.000    0.000 
#
# Total GULP energy -267576.361429 kJ/mol
# GULP energy per Si atom -5574.507530 kJ/mol
# Density = 1.783633 g / cm^3
# Si number density = 17.877024 Si / 1000 Ang^3
#
#
#
# Elastic Constant Matrix: (Units=GPa)
#
#
# Indices 1 2 3 4 5 6 
#
# 1 58.0984 32.2076 67.7462 0.0000 0.0000 0.0000
# 2 32.2076 82.6551 85.2445 0.0000 0.0000 0.0000
# 3 67.7462 85.2445 212.4408 0.0000 0.0000 0.0000
# 4 0.0000 0.0000 0.0000 22.7250 0.0000 0.0000
# 5 0.0000 0.0000 0.0000 0.0000 34.0529 0.0000
# 6 0.0000 0.0000 0.0000 0.0000 0.0000 -5.8877
#
#
#
# Elastic Compliance Matrix: (Units=1/GPa)
#
#
# Indices 1 2 3 4 5 6 
#
# 1 0.027798 -0.002882 -0.007708 0.000000 0.000000 0.000000
# 2 -0.002882 0.020939 -0.007483 0.000000 0.000000 0.000000
# 3 -0.007708 -0.007483 0.010168 0.000000 0.000000 0.000000
# 4 0.000000 0.000000 0.000000 0.044004 0.000000 0.000000
# 5 0.000000 0.000000 0.000000 0.000000 0.029366 0.000000
# 6 0.000000 0.000000 0.000000 0.000000 0.000000 -0.169846
#
#
# Mechanical properties :
#
#
# Convention : Reuss Voigt Hill
#
# Bulk Modulus (GPa) = 43.93992 80.39900 62.16946
# Shear Modulus (GPa) = 811.42122 21.37777 416.39950
#
# Velocity S-wave (km/s) = 21.32782 3.46182 15.27842
# Velocity P-wave (km/s) = 25.12237 7.81345 18.60354
#
# Compressibility (1/GPa) = 0.02275835
#
# Stress axis : x y z
#
# Youngs Moduli (GPa) = 35.97359 47.75820 98.34935
#
# Poissons Ratio (x) = 0.13765 0.75809
# Poissons Ratio (y) = 0.10369 0.73593
# Poissons Ratio (z) = 0.27729 0.35737
#
# Static dielectric constant tensor:
#      x y z
#    x 1.604160 0.000000 0.000000 
#    y 0.000000 1.594110 0.000000 
#    z 0.000000 0.000000 1.621290 
# 
# From -- ./inp_files/37674.got.cif
#   From: 2010.05.17/outbox.cif.g08.bks.cpg/sg53_19_cif.got.tgz:37674.got - 2010.06.03 12:45:16.
