data_PCOD9414742
_publ_section_title
;
Structure prediction by ZEFSAII (Michael W. Deem and Ramdas Pophale) SiO2 
 PCOD9414742
Probable space group: P M N A
;
_chemical_formula_sum "Si O2"
_cell_formula_units_Z 40
_cell_length_a 8.593175
_cell_length_b 9.971953
_cell_length_c 26.379299
_cell_angle_alpha 90.000000
_cell_angle_beta 90.000000
_cell_angle_gamma 90.000000
_cell_volume 2260.461579
_symmetry_space_group_name_H-M "P M N A"
_symmetry_group_IT_number 53
_symmetry_cell_setting 'orthorhombic'
loop_
_space_group_symop_operation_xyz
x,y,z
1/2-x,-y,1/2+z
x,-y,-z
1/2-x,y,1/2-z
-x,-y,-z
1/2+x,y,1/2-z
-x,y,z
1/2+x,-y,1/2+z
loop_
_atom_site_type_symbol
_atom_site_label
_atom_site_fract_x
_atom_site_fract_y
_atom_site_fract_z
Si Si1 0.188499 0.756264 0.584896
Si Si2 0.311953 0.774047 0.032759
Si Si3 0.686679 0.750180 0.193429
Si Si4 0.688913 0.457889 0.890909
Si Si5 0.315170 0.967652 0.382766
O O1 0.233414 0.772531 0.525789
O O2 0.242091 0.610295 0.603850
O O3 0.000000 0.760675 0.587099
O O4 0.255562 0.880643 0.615727
O O5 0.500000 0.785790 0.035364
O O6 0.267627 0.635892 0.061315
O O7 0.241503 0.894107 0.065703
O O8 0.750000 0.744870 0.250000
O O9 0.500000 0.751647 0.194127
O O10 0.738153 0.622667 0.159267
O O11 0.744628 0.880642 0.163011
O O12 0.500000 0.461641 0.890787
O O13 0.500000 0.963295 0.380071
#
# Coordination Sequence:
#
# PCOD9414742 Si02
#       5
#     8   8   8   8   8
#     4  10  18  31  52  77 107 141 174 211 255 301
#     4   9  17  31  52  76 103 140 181 214 249 298
#     4  10  20  38  61  80  98 126 167 212 260 311
#     4   8  16  31  53  79 103 131 170 212 254 306
#     4  11  22  34  49  74 107 141 176 212 253 301
#
# _framework density 17.695501
#
# number of rings (size 3 to 8) (size 9 to 14) (size 15 to 20)
#    0.000    2.400    0.000    4.800    0.000    5.600 
#    0.000    6.000    0.000    8.400    0.000    0.000 
#    0.000    0.000    0.000    0.000    0.000    0.000 
#
# Total GULP energy -223228.046300 kJ/mol
# GULP energy per Si atom -5580.701158 kJ/mol
# Density = 1.765523 g / cm^3
# Si number density = 17.695501 Si / 1000 Ang^3
#
#
#
# Elastic Constant Matrix: (Units=GPa)
#
#
# Indices 1 2 3 4 5 6 
#
# 1 38.0562 24.4984 27.2275 0.0000 0.0000 0.0000
# 2 24.4984 135.9475 43.1960 0.0000 0.0000 0.0000
# 3 27.2275 43.1960 105.9365 0.0000 0.0000 0.0000
# 4 0.0000 0.0000 0.0000 4.6890 0.0000 0.0000
# 5 0.0000 0.0000 0.0000 0.0000 21.7540 0.0000
# 6 0.0000 0.0000 0.0000 0.0000 0.0000 -7.3978
#
#
#
# Elastic Compliance Matrix: (Units=1/GPa)
#
#
# Indices 1 2 3 4 5 6 
#
# 1 0.033850 -0.003832 -0.007138 0.000000 0.000000 0.000000
# 2 -0.003832 0.008884 -0.002638 0.000000 0.000000 0.000000
# 3 -0.007138 -0.002638 0.012350 0.000000 0.000000 0.000000
# 4 0.000000 0.000000 0.000000 0.213267 0.000000 0.000000
# 5 0.000000 0.000000 0.000000 0.000000 0.045968 0.000000
# 6 0.000000 0.000000 0.000000 0.000000 0.000000 -0.135176
#
#
# Mechanical properties :
#
#
# Convention : Reuss Voigt Hill
#
# Bulk Modulus (GPa) = 35.88135 52.19822 44.03978
# Shear Modulus (GPa) = 23.18588 16.14360 19.66474
#
# Velocity S-wave (km/s) = 3.62369 3.02371 3.33721
# Velocity P-wave (km/s) = 6.15055 6.46161 6.30800
#
# Compressibility (1/GPa) = 0.02786963
#
# Stress axis : x y z
#
# Youngs Moduli (GPa) = 29.54175 112.55592 80.97400
#
# Poissons Ratio (x) = 0.43133 0.57796
# Poissons Ratio (y) = 0.11321 0.21359
# Poissons Ratio (z) = 0.21086 0.29689
#
# Static dielectric constant tensor:
#      x y z
#    x 1.599220 0.000000 0.000000 
#    y 0.000000 1.606030 0.000000 
#    z 0.000000 0.000000 1.578720 
# 
# From -- ./inp_files/36016.got.cif
#   From: 2010.05.17/outbox.cif.g08.bks.cpg/sg53_19_cif.got.tgz:36016.got - 2010.06.03 12:45:16.
