data_PCOD9414671
_publ_section_title
;
Structure prediction by ZEFSAII (Michael W. Deem and Ramdas Pophale) SiO2 
 PCOD9414671
Probable space group: P M N A
;
_chemical_formula_sum "Si O2"
_cell_formula_units_Z 64
_cell_length_a 8.514584
_cell_length_b 21.763573
_cell_length_c 20.541239
_cell_angle_alpha 90.000000
_cell_angle_beta 90.000000
_cell_angle_gamma 90.000000
_cell_volume 3806.451201
_symmetry_space_group_name_H-M "P M N A"
_symmetry_group_IT_number 53
_symmetry_cell_setting 'orthorhombic'
loop_
_space_group_symop_operation_xyz
x,y,z
1/2-x,-y,1/2+z
x,-y,-z
1/2-x,y,1/2-z
-x,-y,-z
1/2+x,y,1/2-z
-x,y,z
1/2+x,-y,1/2+z
loop_
_atom_site_type_symbol
_atom_site_label
_atom_site_fract_x
_atom_site_fract_y
_atom_site_fract_z
Si Si1 0.815468 0.691908 0.454948
Si Si2 0.811889 0.875189 0.320502
Si Si3 0.823215 0.306652 0.816552
Si Si4 0.324366 0.454470 0.683558
Si Si5 0.809964 0.058673 0.455373
Si Si6 0.812037 0.445397 0.544688
Si Si7 0.192235 0.176011 0.540547
Si Si8 0.812678 0.985614 0.819887
O O1 0.790224 0.701357 0.377648
O O2 0.748373 0.623801 0.469312
O O3 0.752392 0.756447 0.482356
O O4 0.000000 0.689171 0.469995
O O5 0.750000 0.854657 0.250000
O O6 0.757159 0.839396 0.385240
O O7 0.000000 0.872869 0.319076
O O8 0.758615 0.945952 0.328195
O O9 0.750000 0.282609 0.750000
O O10 0.835683 0.380536 0.809129
O O11 0.000000 0.283380 0.828385
O O12 0.250000 0.478837 0.750000
O O13 0.500000 0.478411 0.674008
O O14 0.223287 0.462866 0.619054
O O15 0.761853 0.120486 0.493231
O O16 0.739920 0.051967 0.383388
O O17 0.000000 0.057989 0.450267
O O18 0.764985 0.000000 0.500000
O O19 0.748726 0.500000 0.500000
O O20 0.000000 0.442244 0.536276
O O21 0.000000 0.177103 0.541662
O O22 0.750000 0.962105 0.750000
O O23 0.000000 0.990031 0.816919
#
# Coordination Sequence:
#
# PCOD9414671 Si02
#       8
#     8   8   8   8   8   8   8   8
#     4   9  17  30  45  63  89 120 156 191 225 275
#     4  10  18  31  46  65  92 127 163 194 230 269
#     4   9  16  26  40  59  84 117 154 188 223 261
#     4   9  16  26  42  64  90 119 151 188 227 269
#     4  10  18  33  53  71  95 125 155 192 236 280
#     4   9  17  29  46  68  94 124 156 192 232 274
#     4   9  18  31  48  67  91 125 160 192 235 280
#     4  11  21  33  50  73  97 123 158 197 237 278
#
# _framework density 16.813561
#
# number of rings (size 3 to 8) (size 9 to 14) (size 15 to 20)
#    0.000    2.500    1.250    3.000    0.000    4.000 
#    0.000    3.125    0.000    0.000    0.000    0.875 
#    0.000    0.000    0.000    0.000    0.000    0.000 
#
# Total GULP energy -356512.832795 kJ/mol
# GULP energy per Si atom -5570.513012 kJ/mol
# Density = 1.677529 g / cm^3
# Si number density = 16.813561 Si / 1000 Ang^3
#
#
#
# Elastic Constant Matrix: (Units=GPa)
#
#
# Indices 1 2 3 4 5 6 
#
# 1 27.7467 10.4573 11.6694 0.0000 0.0000 0.0000
# 2 10.4573 112.2667 64.2794 0.0000 0.0000 0.0000
# 3 11.6694 64.2794 97.2678 0.0000 0.0000 0.0000
# 4 0.0000 0.0000 0.0000 3.8136 0.0000 0.0000
# 5 0.0000 0.0000 0.0000 0.0000 23.1922 0.0000
# 6 0.0000 0.0000 0.0000 0.0000 0.0000 -13.8068
#
#
#
# Elastic Compliance Matrix: (Units=1/GPa)
#
#
# Indices 1 2 3 4 5 6 
#
# 1 0.038112 -0.001499 -0.003581 0.000000 0.000000 0.000000
# 2 -0.001499 0.014388 -0.009329 0.000000 0.000000 0.000000
# 3 -0.003581 -0.009329 0.016875 0.000000 0.000000 0.000000
# 4 0.000000 0.000000 0.000000 0.262222 0.000000 0.000000
# 5 0.000000 0.000000 0.000000 0.000000 0.043118 0.000000
# 6 0.000000 0.000000 0.000000 0.000000 0.000000 -0.072428
#
#
# Mechanical properties :
#
#
# Convention : Reuss Voigt Hill
#
# Bulk Modulus (GPa) = 24.65701 45.56592 35.11147
# Shear Modulus (GPa) = 14.50856 12.69814 13.60335
#
# Velocity S-wave (km/s) = 2.94072 2.75113 2.84750
# Velocity P-wave (km/s) = 5.12125 6.10337 5.63375
#
# Compressibility (1/GPa) = 0.04055641
#
# Stress axis : x y z
#
# Youngs Moduli (GPa) = 26.23870 69.50158 59.25814
#
# Poissons Ratio (x) = 0.10421 0.21223
# Poissons Ratio (y) = 0.03934 0.55279
# Poissons Ratio (z) = 0.09397 0.64835
#
# Static dielectric constant tensor:
#      x y z
#    x 1.587880 0.000000 0.000000 
#    y 0.000000 1.606440 0.000000 
#    z 0.000000 0.000000 1.601420 
# 
# From -- ./inp_files/31324.got.cif
#   From: 2010.05.17/outbox.cif.g08.bks.cpg/sg53_16_cif.got.tgz:31324.got - 2010.06.03 12:45:16.
