data_PCOD9414852
_publ_section_title
;
Structure prediction by ZEFSAII (Michael W. Deem and Ramdas Pophale) SiO2 
 PCOD9414852
Probable space group: P M N A
;
_chemical_formula_sum "Si O2"
_cell_formula_units_Z 48
_cell_length_a 8.280060
_cell_length_b 12.174444
_cell_length_c 26.744110
_cell_angle_alpha 90.000000
_cell_angle_beta 90.000000
_cell_angle_gamma 90.000000
_cell_volume 2695.943399
_symmetry_space_group_name_H-M "P M N A"
_symmetry_group_IT_number 53
_symmetry_cell_setting 'orthorhombic'
loop_
_space_group_symop_operation_xyz
x,y,z
1/2-x,-y,1/2+z
x,-y,-z
1/2-x,y,1/2-z
-x,-y,-z
1/2+x,y,1/2-z
-x,y,z
1/2+x,-y,1/2+z
loop_
_atom_site_type_symbol
_atom_site_label
_atom_site_fract_x
_atom_site_fract_y
_atom_site_fract_z
Si Si1 0.196184 0.298469 0.933519
Si Si2 0.695952 0.951235 0.446303
Si Si3 0.813558 0.361671 0.459023
Si Si4 0.809255 0.168160 0.104618
Si Si5 0.687659 0.505694 0.371608
Si Si6 0.810873 0.688142 0.693574
O O1 0.252028 0.172001 0.934740
O O2 0.245441 0.372272 0.885930
O O3 0.000000 0.300726 0.935104
O O4 0.260558 0.354804 0.983970
O O5 0.500000 0.944360 0.449171
O O6 0.750021 0.000000 0.500000
O O7 0.735169 0.041629 0.404249
O O8 0.787977 0.241453 0.435067
O O9 0.706820 0.438864 0.423649
O O10 0.000000 0.394925 0.454468
O O11 0.776051 0.222269 0.158224
O O12 0.000000 0.179772 0.093042
O O13 0.500000 0.508929 0.357221
O O14 0.778447 0.431153 0.331302
O O15 0.750000 0.690927 0.750000
O O16 0.000000 0.710633 0.691567
#
# Coordination Sequence:
#
# PCOD9414852 Si02
#       6
#     8   8   8   8   8   8
#     4  10  19  32  49  71 101 141 179 209 247 301
#     4   9  16  29  51  75 103 141 180 213 245 294
#     4  11  20  29  44  69 104 140 175 213 253 296
#     4  10  18  32  54  77 104 136 175 214 256 302
#     4  10  20  33  51  74 101 132 171 212 257 308
#     4  11  22  38  59  80 103 127 164 213 267 314
#
# _framework density 17.804528999999999
#
# number of rings (size 3 to 8) (size 9 to 14) (size 15 to 20)
#    0.000    1.833    1.667    6.500    0.000    3.333 
#    0.000    2.500    0.000    1.000    0.000    0.000 
#    0.000    0.000    0.000    0.000    0.000    0.000 
#
# Total GULP energy -267805.785846 kJ/mol
# GULP energy per Si atom -5579.287205 kJ/mol
# Density = 1.776400 g / cm^3
# Si number density = 17.804529 Si / 1000 Ang^3
#
#
#
# Elastic Constant Matrix: (Units=GPa)
#
#
# Indices 1 2 3 4 5 6 
#
# 1 29.2740 -3.2627 0.8333 0.0000 0.0000 0.0000
# 2 -3.2627 78.9542 23.9332 0.0000 0.0000 0.0000
# 3 0.8333 23.9332 81.4947 0.0000 0.0000 0.0000
# 4 0.0000 0.0000 0.0000 9.6056 0.0000 0.0000
# 5 0.0000 0.0000 0.0000 0.0000 18.9800 0.0000
# 6 0.0000 0.0000 0.0000 0.0000 0.0000 6.2528
#
#
#
# Elastic Compliance Matrix: (Units=1/GPa)
#
#
# Indices 1 2 3 4 5 6 
#
# 1 0.034371 0.001676 -0.000844 0.000000 0.000000 0.000000
# 2 0.001676 0.013985 -0.004124 0.000000 0.000000 0.000000
# 3 -0.000844 -0.004124 0.013491 0.000000 0.000000 0.000000
# 4 0.000000 0.000000 0.000000 0.104106 0.000000 0.000000
# 5 0.000000 0.000000 0.000000 0.000000 0.052687 0.000000
# 6 0.000000 0.000000 0.000000 0.000000 0.000000 0.159929
#
#
# Mechanical properties :
#
#
# Convention : Reuss Voigt Hill
#
# Bulk Modulus (GPa) = 18.09539 25.85895 21.97717
# Shear Modulus (GPa) = 12.38931 18.18227 15.28579
#
# Velocity S-wave (km/s) = 2.64076 3.19911 2.93325
# Velocity P-wave (km/s) = 4.41402 5.31047 4.88286
#
# Compressibility (1/GPa) = 0.05526270
#
# Stress axis : x y z
#
# Youngs Moduli (GPa) = 29.09445 71.50523 74.12591
#
# Poissons Ratio (x) = -0.11985 0.06254
# Poissons Ratio (y) = -0.04876 0.30571
# Poissons Ratio (z) = 0.02455 0.29490
#
# Static dielectric constant tensor:
#      x y z
#    x 1.604470 0.000000 0.000000 
#    y 0.000000 1.657620 0.000000 
#    z 0.000000 0.000000 1.585260 
# 
# From -- ./inp_files/36159.got.cif
#   From: 2010.05.17/outbox.cif.g08.bks.cpg/sg53_19_cif.got.tgz:36159.got - 2010.06.03 12:45:16.
