data_PCOD9414077
_publ_section_title
;
Structure prediction by ZEFSAII (Michael W. Deem and Ramdas Pophale) SiO2 
 PCOD9414077
Probable space group: P M N A
;
_chemical_formula_sum "Si O2"
_cell_formula_units_Z 64
_cell_length_a 8.830801
_cell_length_b 17.819886
_cell_length_c 27.278552
_cell_angle_alpha 90.000000
_cell_angle_beta 90.000000
_cell_angle_gamma 90.000000
_cell_volume 4292.658432
_symmetry_space_group_name_H-M "P M N A"
_symmetry_group_IT_number 53
_symmetry_cell_setting 'orthorhombic'
loop_
_space_group_symop_operation_xyz
x,y,z
1/2-x,-y,1/2+z
x,-y,-z
1/2-x,y,1/2-z
-x,-y,-z
1/2+x,y,1/2-z
-x,y,z
1/2+x,-y,1/2+z
loop_
_atom_site_type_symbol
_atom_site_label
_atom_site_fract_x
_atom_site_fract_y
_atom_site_fract_z
Si Si1 0.177418 0.397504 0.963414
Si Si2 0.821898 0.283288 0.872135
Si Si3 0.682011 0.473970 0.389937
Si Si4 0.674890 0.988769 0.940852
Si Si5 0.683770 0.827613 0.963946
Si Si6 0.318291 0.856997 0.428450
Si Si7 0.315940 0.586277 0.303699
Si Si8 0.179847 0.662374 0.562275
O O1 0.187139 0.334749 0.920903
O O2 0.226117 0.474212 0.936730
O O3 0.000000 0.404350 0.977643
O O4 0.271575 0.371741 0.009822
O O5 0.760727 0.202181 0.887710
O O6 0.761065 0.335370 0.828472
O O7 0.000000 0.272862 0.861346
O O8 0.500000 0.471295 0.390331
O O9 0.727729 0.519611 0.341310
O O10 0.747495 0.391637 0.397276
O O11 0.500000 0.995191 0.925277
O O12 0.728749 0.903137 0.934774
O O13 0.768792 0.057492 0.919215
O O14 0.677875 0.000000 0.000000
O O15 0.500000 0.829637 0.968514
O O16 0.728607 0.749468 0.938999
O O17 0.751778 0.832836 0.018628
O O18 0.500000 0.852112 0.431271
O O19 0.250000 0.576245 0.250000
O O20 0.500000 0.587593 0.302315
O O21 0.000000 0.660364 0.567138
#
# Coordination Sequence:
#
# PCOD9414077 Si02
#       8
#     8   8   8   8   8   8   8   8
#     4   9  16  29  43  55  78 115 146 166 203 253
#     4   8  15  27  43  62  84 110 138 170 209 252
#     4   9  19  32  45  59  80 111 141 167 208 263
#     4   8  15  27  38  49  76 114 143 168 206 245
#     4   9  18  29  37  51  81 119 145 170 211 246
#     4  10  16  24  41  61  79 104 144 181 203 235
#     4   9  18  34  51  65  83 108 137 170 212 258
#     4  11  20  27  39  60  85 110 144 183 210 236
#
# _framework density 14.909174999999999
#
# number of rings (size 3 to 8) (size 9 to 14) (size 15 to 20)
#    0.000    2.875    1.250    3.375    0.000    5.250 
#    0.000    3.125    0.000    0.000    0.000    0.000 
#    0.000    1.000    0.000    4.500    0.000    4.000 
#
# Total GULP energy -356309.388139 kJ/mol
# GULP energy per Si atom -5567.334190 kJ/mol
# Density = 1.487524 g / cm^3
# Si number density = 14.909175 Si / 1000 Ang^3
#
#
#
# Elastic Constant Matrix: (Units=GPa)
#
#
# Indices 1 2 3 4 5 6 
#
# 1 12.8297 27.5555 11.6328 0.0000 0.0000 0.0000
# 2 27.5555 151.5837 44.9590 0.0000 0.0000 0.0000
# 3 11.6328 44.9590 51.1569 0.0000 0.0000 0.0000
# 4 0.0000 0.0000 0.0000 12.9571 0.0000 0.0000
# 5 0.0000 0.0000 0.0000 0.0000 17.1978 0.0000
# 6 0.0000 0.0000 0.0000 0.0000 0.0000 24.3015
#
#
#
# Elastic Compliance Matrix: (Units=1/GPa)
#
#
# Indices 1 2 3 4 5 6 
#
# 1 0.133261 -0.020609 -0.012191 0.000000 0.000000 0.000000
# 2 -0.020609 0.012110 -0.005956 0.000000 0.000000 0.000000
# 3 -0.012191 -0.005956 0.027555 0.000000 0.000000 0.000000
# 4 0.000000 0.000000 0.000000 0.077178 0.000000 0.000000
# 5 0.000000 0.000000 0.000000 0.000000 0.058147 0.000000
# 6 0.000000 0.000000 0.000000 0.000000 0.000000 0.041150
#
#
# Mechanical properties :
#
#
# Convention : Reuss Voigt Hill
#
# Bulk Modulus (GPa) = 10.48071 42.65165 26.56618
# Shear Modulus (GPa) = 10.89995 19.65282 15.27639
#
# Velocity S-wave (km/s) = 2.70680 3.63460 3.20446
# Velocity P-wave (km/s) = 4.10049 6.80320 5.61683
#
# Compressibility (1/GPa) = 0.09541341
#
# Stress axis : x y z
#
# Youngs Moduli (GPa) = 7.50404 82.57602 36.29149
#
# Poissons Ratio (x) = 1.70181 0.44243
# Poissons Ratio (y) = 0.15465 0.21617
# Poissons Ratio (z) = 0.09148 0.49186
#
# Static dielectric constant tensor:
#      x y z
#    x 1.502730 0.000000 0.000000 
#    y 0.000000 1.549090 0.000000 
#    z 0.000000 0.000000 1.462020 
# 
# From -- ./inp_files/36519.got.cif
#   From: 2010.05.17/outbox.cif.g08.bks.cpg/sg53_19_cif.got.tgz:36519.got - 2010.06.03 12:45:16.
