data_PCOD9414369
_publ_section_title
;
Structure prediction by ZEFSAII (Michael W. Deem and Ramdas Pophale) SiO2 
 PCOD9414369
Probable space group: P M N A
;
_chemical_formula_sum "Si O2"
_cell_formula_units_Z 64
_cell_length_a 8.083735
_cell_length_b 17.909914
_cell_length_c 27.633510
_cell_angle_alpha 90.000000
_cell_angle_beta 90.000000
_cell_angle_gamma 90.000000
_cell_volume 4000.751907
_symmetry_space_group_name_H-M "P M N A"
_symmetry_group_IT_number 53
_symmetry_cell_setting 'orthorhombic'
loop_
_space_group_symop_operation_xyz
x,y,z
1/2-x,-y,1/2+z
x,-y,-z
1/2-x,y,1/2-z
-x,-y,-z
1/2+x,y,1/2-z
-x,y,z
1/2+x,-y,1/2+z
loop_
_atom_site_type_symbol
_atom_site_label
_atom_site_fract_x
_atom_site_fract_y
_atom_site_fract_z
Si Si1 0.305664 0.387703 0.955148
Si Si2 0.808047 0.281252 0.870668
Si Si3 0.696274 0.482967 0.391591
Si Si4 0.691424 0.983225 0.942175
Si Si5 0.703088 0.823284 0.963493
Si Si6 0.197699 0.857061 0.427099
Si Si7 0.300608 0.588559 0.304962
Si Si8 0.199573 0.659869 0.561897
O O1 0.500000 0.367743 0.952752
O O2 0.212142 0.334318 0.917640
O O3 0.281148 0.470918 0.935131
O O4 0.249504 0.373699 0.009647
O O5 0.731706 0.202520 0.885539
O O6 0.737936 0.332690 0.827422
O O7 0.000000 0.268151 0.861020
O O8 0.500000 0.494211 0.395994
O O9 0.752410 0.522907 0.341907
O O10 0.735393 0.396126 0.397520
O O11 0.500000 0.977823 0.925999
O O12 0.762780 0.899929 0.938459
O O13 0.765550 0.058845 0.919765
O O14 0.689276 0.000000 0.000000
O O15 0.500000 0.824612 0.963563
O O16 0.754153 0.746069 0.938797
O O17 0.754569 0.826326 0.020213
O O18 0.000000 0.864731 0.431698
O O19 0.250000 0.577246 0.250000
O O20 0.500000 0.590894 0.307054
O O21 0.000000 0.658740 0.563934
#
# Coordination Sequence:
#
# PCOD9414369 Si02
#       8
#     8   8   8   8   8   8   8   8
#     4  10  18  29  43  60  82 111 149 182 203 237
#     4  10  19  29  42  64  90 113 137 171 218 261
#     4  10  21  33  43  61  86 109 135 169 216 265
#     4   7  11  19  36  57  79 109 146 183 211 228
#     4   8  13  23  37  58  85 113 148 187 211 227
#     4   9  14  24  41  61  82 112 151 181 204 239
#     4   9  20  36  50  63  80 104 135 172 215 262
#     4  10  18  27  41  61  85 114 150 182 205 236
#
# _framework density 15.996993
#
# number of rings (size 3 to 8) (size 9 to 14) (size 15 to 20)
#    0.000    2.875    1.250    3.750    0.000    5.500 
#    0.000    0.000    0.000    4.125    0.000    0.000 
#    0.000    1.000    0.000    2.250    0.000    3.500 
#
# Total GULP energy -356295.257711 kJ/mol
# GULP energy per Si atom -5567.113402 kJ/mol
# Density = 1.596058 g / cm^3
# Si number density = 15.996993 Si / 1000 Ang^3
#
#
#
# Elastic Constant Matrix: (Units=GPa)
#
#
# Indices 1 2 3 4 5 6 
#
# 1 9.4992 6.4013 4.0642 0.0000 0.0000 0.0000
# 2 6.4013 151.5071 50.5848 0.0000 0.0000 0.0000
# 3 4.0642 50.5848 57.9067 0.0000 0.0000 0.0000
# 4 0.0000 0.0000 0.0000 13.4163 0.0000 0.0000
# 5 0.0000 0.0000 0.0000 0.0000 11.5292 0.0000
# 6 0.0000 0.0000 0.0000 0.0000 0.0000 8.2077
#
#
#
# Elastic Compliance Matrix: (Units=1/GPa)
#
#
# Indices 1 2 3 4 5 6 
#
# 1 0.109431 -0.002907 -0.005141 0.000000 0.000000 0.000000
# 2 -0.002907 0.009395 -0.008003 0.000000 0.000000 0.000000
# 3 -0.005141 -0.008003 0.024621 0.000000 0.000000 0.000000
# 4 0.000000 0.000000 0.000000 0.074536 0.000000 0.000000
# 5 0.000000 0.000000 0.000000 0.000000 0.086736 0.000000
# 6 0.000000 0.000000 0.000000 0.000000 0.000000 0.121837
#
#
# Mechanical properties :
#
#
# Convention : Reuss Voigt Hill
#
# Bulk Modulus (GPa) = 8.98109 37.89039 23.43574
# Shear Modulus (GPa) = 10.08521 17.15482 13.62002
#
# Velocity S-wave (km/s) = 2.51359 3.27827 2.92106
# Velocity P-wave (km/s) = 3.74841 6.16983 5.10477
#
# Compressibility (1/GPa) = 0.11134501
#
# Stress axis : x y z
#
# Youngs Moduli (GPa) = 9.13816 106.43637 40.61525
#
# Poissons Ratio (x) = 0.30942 0.20880
# Poissons Ratio (y) = 0.02657 0.32506
# Poissons Ratio (z) = 0.04698 0.85184
#
# Static dielectric constant tensor:
#      x y z
#    x 1.575700 0.000000 0.000000 
#    y 0.000000 1.597200 0.000000 
#    z 0.000000 0.000000 1.504310 
# 
# From -- ./inp_files/36510.got.cif
#   From: 2010.05.17/outbox.cif.g08.bks.cpg/sg53_19_cif.got.tgz:36510.got - 2010.06.03 12:45:16.
