data_PCOD9414581
_publ_section_title
;
Structure prediction by ZEFSAII (Michael W. Deem and Ramdas Pophale) SiO2 
 PCOD9414581
Probable space group: P M N A
;
_chemical_formula_sum "Si O2"
_cell_formula_units_Z 48
_cell_length_a 7.541611
_cell_length_b 12.296285
_cell_length_c 27.079106
_cell_angle_alpha 90.000000
_cell_angle_beta 90.000000
_cell_angle_gamma 90.000000
_cell_volume 2511.148352
_symmetry_space_group_name_H-M "P M N A"
_symmetry_group_IT_number 53
_symmetry_cell_setting 'orthorhombic'
loop_
_space_group_symop_operation_xyz
x,y,z
1/2-x,-y,1/2+z
x,-y,-z
1/2-x,y,1/2-z
-x,-y,-z
1/2+x,y,1/2-z
-x,y,z
1/2+x,-y,1/2+z
loop_
_atom_site_type_symbol
_atom_site_label
_atom_site_fract_x
_atom_site_fract_y
_atom_site_fract_z
Si Si1 0.214065 0.294879 0.935461
Si Si2 0.717370 0.953199 0.446529
Si Si3 0.791182 0.348207 0.454239
Si Si4 0.792765 0.151937 0.113985
Si Si5 0.702525 0.516423 0.372419
Si Si6 0.713399 0.677001 0.692476
O O1 0.275894 0.170314 0.937734
O O2 0.282575 0.369972 0.890743
O O3 0.000000 0.293035 0.932024
O O4 0.259179 0.350151 0.987731
O O5 0.500000 0.953447 0.446574
O O6 0.771574 0.000000 0.500000
O O7 0.779925 0.037029 0.404379
O O8 0.722654 0.233864 0.432497
O O9 0.701718 0.441320 0.421623
O O10 0.000000 0.355738 0.444844
O O11 0.718133 0.221388 0.159820
O O12 0.000000 0.133880 0.124715
O O13 0.500000 0.538889 0.357110
O O14 0.782316 0.436153 0.331204
O O15 0.750000 0.686795 0.750000
O O16 0.500000 0.675038 0.685234
#
# Coordination Sequence:
#
# PCOD9414581 Si02
#       6
#     8   8   8   8   8   8
#     4  10  18  30  48  67  92 128 162 191 226 271
#     4   9  15  26  49  73  92 121 161 195 221 261
#     4  11  20  28  42  67  99 130 158 190 229 273
#     4   9  17  32  50  70  95 123 160 197 229 273
#     4   9  19  33  48  67  91 121 159 196 231 277
#     4   9  18  32  51  71  90 115 151 198 244 284
#
# _framework density 19.11476
#
# number of rings (size 3 to 8) (size 9 to 14) (size 15 to 20)
#    0.000    2.500    1.667    3.000    0.000    5.333 
#    0.000    1.667    0.000    1.000    0.000    0.000 
#    0.000    0.000    0.000    0.000    0.000    0.667 
#
# Total GULP energy -267629.186277 kJ/mol
# GULP energy per Si atom -5575.608047 kJ/mol
# Density = 1.907125 g / cm^3
# Si number density = 19.114760 Si / 1000 Ang^3
#
#
#
# Elastic Constant Matrix: (Units=GPa)
#
#
# Indices 1 2 3 4 5 6 
#
# 1 50.0532 9.8629 0.4046 0.0000 0.0000 0.0000
# 2 9.8629 84.8254 42.9624 0.0000 0.0000 0.0000
# 3 0.4046 42.9624 113.8689 0.0000 0.0000 0.0000
# 4 0.0000 0.0000 0.0000 14.6722 0.0000 0.0000
# 5 0.0000 0.0000 0.0000 0.0000 15.4520 0.0000
# 6 0.0000 0.0000 0.0000 0.0000 0.0000 -16.7579
#
#
#
# Elastic Compliance Matrix: (Units=1/GPa)
#
#
# Indices 1 2 3 4 5 6 
#
# 1 0.020543 -0.002907 0.001024 0.000000 0.000000 0.000000
# 2 -0.002907 0.014985 -0.005644 0.000000 0.000000 0.000000
# 3 0.001024 -0.005644 0.010908 0.000000 0.000000 0.000000
# 4 0.000000 0.000000 0.000000 0.068156 0.000000 0.000000
# 5 0.000000 0.000000 0.000000 0.000000 0.064717 0.000000
# 6 0.000000 0.000000 0.000000 0.000000 0.000000 -0.059673
#
#
# Mechanical properties :
#
#
# Convention : Reuss Voigt Hill
#
# Bulk Modulus (GPa) = 31.86488 39.46748 35.66618
# Shear Modulus (GPa) = 34.44705 15.70776 25.07741
#
# Velocity S-wave (km/s) = 4.24974 2.86975 3.62600
# Velocity P-wave (km/s) = 6.38646 5.62788 6.01913
#
# Compressibility (1/GPa) = 0.03138252
#
# Stress axis : x y z
#
# Youngs Moduli (GPa) = 48.67763 66.73199 91.67834
#
# Poissons Ratio (x) = 0.19400 -0.09387
# Poissons Ratio (y) = 0.14152 0.51739
# Poissons Ratio (z) = -0.04984 0.37661
#
# Static dielectric constant tensor:
#      x y z
#    x 1.733950 0.000000 0.000000 
#    y 0.000000 1.703740 0.000000 
#    z 0.000000 0.000000 1.635100 
# 
# From -- ./inp_files/36158.got.cif
#   From: 2010.05.17/outbox.cif.g08.bks.cpg/sg53_19_cif.got.tgz:36158.got - 2010.06.03 12:45:16.
