data_PCOD9414294
_publ_section_title
;
Structure prediction by ZEFSAII (Michael W. Deem and Ramdas Pophale) SiO2 
 PCOD9414294
Probable space group: P M N A
;
_chemical_formula_sum "Si O2"
_cell_formula_units_Z 48
_cell_length_a 25.613473
_cell_length_b 7.937467
_cell_length_c 14.038965
_cell_angle_alpha 90.000000
_cell_angle_beta 90.000000
_cell_angle_gamma 90.000000
_cell_volume 2854.207176
_symmetry_space_group_name_H-M "P M N A"
_symmetry_group_IT_number 53
_symmetry_cell_setting 'orthorhombic'
loop_
_space_group_symop_operation_xyz
x,y,z
1/2-x,-y,1/2+z
x,-y,-z
1/2-x,y,1/2-z
-x,-y,-z
1/2+x,y,1/2-z
-x,y,z
1/2+x,-y,1/2+z
loop_
_atom_site_type_symbol
_atom_site_label
_atom_site_fract_x
_atom_site_fract_y
_atom_site_fract_z
Si Si1 0.152390 0.568168 0.767268
Si Si2 0.189153 0.205923 0.734598
Si Si3 0.205363 0.868630 0.666647
Si Si4 0.440125 0.440884 0.609664
Si Si5 0.222181 0.344303 0.053012
Si Si6 0.863564 0.844982 0.070331
O O1 0.161581 0.385392 0.719581
O O2 0.163488 0.727766 0.699869
O O3 0.097541 0.553403 0.823457
O O4 0.196309 0.588254 0.849717
O O5 0.250000 0.244849 0.750000
O O6 0.166970 0.119911 0.831752
O O7 0.184085 0.057431 0.657899
O O8 0.250000 0.877932 0.750000
O O9 0.237035 0.800225 0.576766
O O10 0.438216 0.500000 0.500000
O O11 0.500000 0.441962 0.641469
O O12 0.414627 0.255661 0.603262
O O13 0.248219 0.500000 0.000000
O O14 0.174843 0.278005 0.988414
O O15 0.873780 0.000000 0.000000
#
# Coordination Sequence:
#
# PCOD9414294 Si02
#       6
#     8   8   8   8   8   8
#     4  10  17  31  47  59  87 125 156 188 236 263
#     4  10  18  28  41  63  86 119 156 182 221 274
#     4   9  19  28  44  63  91 117 159 187 222 276
#     4  10  19  31  45  62  88 121 165 202 231 271
#     4  11  17  31  44  69  92 126 160 187 229 283
#     4  11  19  28  47  63  94 124 156 196 229 273
#
# _framework density 16.817278999999999
#
# number of rings (size 3 to 8) (size 9 to 14) (size 15 to 20)
#    0.000    1.833    5.000    4.500    0.000    0.333 
#    0.000    0.000    0.000    0.000    0.000    0.000 
#    0.000    0.667    0.000    6.000    0.000    3.000 
#
# Total GULP energy -267520.721594 kJ/mol
# GULP energy per Si atom -5573.348367 kJ/mol
# Density = 1.677900 g / cm^3
# Si number density = 16.817279 Si / 1000 Ang^3
#
#
#
# Elastic Constant Matrix: (Units=GPa)
#
#
# Indices 1 2 3 4 5 6 
#
# 1 87.3689 25.3225 13.5427 0.0000 0.0000 0.0000
# 2 25.3225 82.6899 7.7923 0.0000 0.0000 0.0000
# 3 13.5427 7.7923 10.0728 0.0000 0.0000 0.0000
# 4 0.0000 0.0000 0.0000 27.3691 0.0000 0.0000
# 5 0.0000 0.0000 0.0000 0.0000 11.1424 0.0000
# 6 0.0000 0.0000 0.0000 0.0000 0.0000 -17.8541
#
#
#
# Elastic Compliance Matrix: (Units=1/GPa)
#
#
# Indices 1 2 3 4 5 6 
#
# 1 0.015086 -0.002922 -0.018023 0.000000 0.000000 0.000000
# 2 -0.002922 0.013610 -0.006601 0.000000 0.000000 0.000000
# 3 -0.018023 -0.006601 0.128615 0.000000 0.000000 0.000000
# 4 0.000000 0.000000 0.000000 0.036538 0.000000 0.000000
# 5 0.000000 0.000000 0.000000 0.000000 0.089748 0.000000
# 6 0.000000 0.000000 0.000000 0.000000 0.000000 -0.056010
#
#
# Mechanical properties :
#
#
# Convention : Reuss Voigt Hill
#
# Bulk Modulus (GPa) = 9.78275 30.38296 20.08286
# Shear Modulus (GPa) = 15.78528 13.02974 14.40751
#
# Velocity S-wave (km/s) = 3.06704 2.78651 2.93013
# Velocity P-wave (km/s) = 4.28626 5.33466 4.83894
#
# Compressibility (1/GPa) = 0.10222070
#
# Stress axis : x y z
#
# Youngs Moduli (GPa) = 66.28609 73.47495 7.77514
#
# Poissons Ratio (x) = 0.21466 0.14013
# Poissons Ratio (y) = 0.19366 0.05132
# Poissons Ratio (z) = 1.19467 0.48500
#
# Static dielectric constant tensor:
#      x y z
#    x 1.557200 0.000000 0.000000 
#    y 0.000000 1.652260 0.000000 
#    z 0.000000 0.000000 1.603020 
# 
# From -- ./inp_files/24607.got.cif
#   From: 2010.05.17/outbox.cif.g08.bks.cpg/sg53_13_cif.got.tgz:24607.got - 2010.06.03 12:45:16.
