data_PCOD9414429
_publ_section_title
;
Structure prediction by ZEFSAII (Michael W. Deem and Ramdas Pophale) SiO2 
 PCOD9414429
Probable space group: P M N A
;
_chemical_formula_sum "Si O2"
_cell_formula_units_Z 56
_cell_length_a 8.347383
_cell_length_b 19.881719
_cell_length_c 18.880515
_cell_angle_alpha 90.000000
_cell_angle_beta 90.000000
_cell_angle_gamma 90.000000
_cell_volume 3133.416371
_symmetry_space_group_name_H-M "P M N A"
_symmetry_group_IT_number 53
_symmetry_cell_setting 'orthorhombic'
loop_
_space_group_symop_operation_xyz
x,y,z
1/2-x,-y,1/2+z
x,-y,-z
1/2-x,y,1/2-z
-x,-y,-z
1/2+x,y,1/2-z
-x,y,z
1/2+x,-y,1/2+z
loop_
_atom_site_type_symbol
_atom_site_label
_atom_site_fract_x
_atom_site_fract_y
_atom_site_fract_z
Si Si1 0.194034 0.296512 0.669255
Si Si2 0.191380 0.137964 0.171390
Si Si3 0.691449 0.725297 0.596407
Si Si4 0.307679 0.792961 0.043363
Si Si5 0.692488 0.590350 0.831405
Si Si6 0.306160 0.928440 0.970080
Si Si7 0.693073 0.556097 0.168617
O O1 0.250000 0.288662 0.750000
O O2 0.252388 0.238390 0.616702
O O3 0.245912 0.370771 0.641075
O O4 0.000000 0.295861 0.669509
O O5 0.250000 0.122025 0.250000
O O6 0.244229 0.213569 0.148397
O O7 0.000000 0.136594 0.170731
O O8 0.253342 0.088756 0.109711
O O9 0.500000 0.728115 0.591391
O O10 0.764789 0.742752 0.520379
O O11 0.742898 0.653443 0.625624
O O12 0.500000 0.797417 0.048229
O O13 0.248243 0.866328 0.019092
O O14 0.750000 0.595593 0.750000
O O15 0.500000 0.592550 0.831932
O O16 0.745594 0.516658 0.860405
O O17 0.500000 0.928334 0.971084
O O18 0.250718 0.000000 0.000000
O O19 0.750000 0.555856 0.250000
O O20 0.500000 0.555919 0.166608
#
# Coordination Sequence:
#
# PCOD9414429 Si02
#       7
#     8   8   8   8   8   8   8
#     4   9  17  31  51  72  93 120 157 199 241 284
#     4  10  20  33  51  75 101 130 165 202 238 281
#     4  10  20  32  47  69  97 128 162 200 241 284
#     4   9  18  33  52  72  95 125 159 194 237 290
#     4  10  18  28  44  66  93 125 160 198 239 282
#     4   9  18  34  55  76 101 132 162 195 239 289
#     4   8  15  27  43  64  89 119 156 196 237 281
#
# _framework density 17.871867999999999
#
# number of rings (size 3 to 8) (size 9 to 14) (size 15 to 20)
#    0.000    2.714    0.000    1.714    0.000    4.286 
#    0.000    1.429    0.000    6.000    0.000    0.000 
#    0.000    0.000    0.000    0.000    0.000    0.000 
#
# Total GULP energy -311981.877657 kJ/mol
# GULP energy per Si atom -5571.104958 kJ/mol
# Density = 1.783119 g / cm^3
# Si number density = 17.871868 Si / 1000 Ang^3
#
#
#
# Elastic Constant Matrix: (Units=GPa)
#
#
# Indices 1 2 3 4 5 6 
#
# 1 3.7948 12.5714 4.5284 0.0000 0.0000 0.0000
# 2 12.5714 143.3097 88.4442 0.0000 0.0000 0.0000
# 3 4.5284 88.4442 100.5193 0.0000 0.0000 0.0000
# 4 0.0000 0.0000 0.0000 15.9969 0.0000 0.0000
# 5 0.0000 0.0000 0.0000 0.0000 21.8367 0.0000
# 6 0.0000 0.0000 0.0000 0.0000 0.0000 14.2413
#
#
#
# Elastic Compliance Matrix: (Units=1/GPa)
#
#
# Indices 1 2 3 4 5 6 
#
# 1 0.405702 -0.053195 0.028528 0.000000 0.000000 0.000000
# 2 -0.053195 0.022244 -0.017176 0.000000 0.000000 0.000000
# 3 0.028528 -0.017176 0.023776 0.000000 0.000000 0.000000
# 4 0.000000 0.000000 0.000000 0.062512 0.000000 0.000000
# 5 0.000000 0.000000 0.000000 0.000000 0.045794 0.000000
# 6 0.000000 0.000000 0.000000 0.000000 0.000000 0.070218
#
#
# Mechanical properties :
#
#
# Convention : Reuss Voigt Hill
#
# Bulk Modulus (GPa) = 2.71713 50.96796 26.84254
# Shear Modulus (GPa) = 5.97650 19.88698 12.93174
#
# Velocity S-wave (km/s) = 1.83067 3.33941 2.69286
# Velocity P-wave (km/s) = 2.44787 6.59161 4.97199
#
# Compressibility (1/GPa) = 0.36803596
#
# Stress axis : x y z
#
# Youngs Moduli (GPa) = 2.46487 44.95537 42.05996
#
# Poissons Ratio (x) = 2.39139 -1.19988
# Poissons Ratio (y) = 0.13112 0.72241
# Poissons Ratio (z) = -0.07032 0.77214
#
# Static dielectric constant tensor:
#      x y z
#    x 1.620060 0.000000 0.000000 
#    y 0.000000 1.648210 0.000000 
#    z 0.000000 0.000000 1.600900 
# 
# From -- ./inp_files/20531.got.cif
#   From: 2010.05.17/outbox.cif.g08.bks.cpg/sg53_11_cif.got.tgz:20531.got - 2010.06.03 12:45:16.
