data_PCOD9414733
_publ_section_title
;
Structure prediction by ZEFSAII (Michael W. Deem and Ramdas Pophale) SiO2 
 PCOD9414733
Probable space group: P M N A
;
_chemical_formula_sum "Si O2"
_cell_formula_units_Z 48
_cell_length_a 17.898086
_cell_length_b 13.238370
_cell_length_c 10.064252
_cell_angle_alpha 90.000000
_cell_angle_beta 90.000000
_cell_angle_gamma 90.000000
_cell_volume 2384.638812
_symmetry_space_group_name_H-M "P M N A"
_symmetry_group_IT_number 53
_symmetry_cell_setting 'orthorhombic'
loop_
_space_group_symop_operation_xyz
x,y,z
1/2-x,-y,1/2+z
x,-y,-z
1/2-x,y,1/2-z
-x,-y,-z
1/2+x,y,1/2-z
-x,y,z
1/2+x,-y,1/2+z
loop_
_atom_site_type_symbol
_atom_site_label
_atom_site_fract_x
_atom_site_fract_y
_atom_site_fract_z
Si Si1 0.840951 0.066188 0.247828
Si Si2 0.834235 0.231661 0.036605
Si Si3 0.658545 0.833356 0.251948
Si Si4 0.153068 0.226123 0.462746
Si Si5 0.682135 0.552022 0.642219
Si Si6 0.411554 0.437944 0.130019
O O1 0.750000 0.063523 0.250000
O O2 0.860987 0.136376 0.122703
O O3 0.866944 0.126700 0.378135
O O4 0.865247 0.950601 0.241554
O O5 0.849509 0.338254 0.103418
O O6 0.862385 0.222737 0.886911
O O7 0.743433 0.229454 0.037517
O O8 0.750000 0.832608 0.250000
O O9 0.630425 0.784198 0.115994
O O10 0.122271 0.326238 0.393525
O O11 0.699950 0.500000 0.500000
O O12 0.750000 0.558192 0.750000
O O13 0.618556 0.507039 0.737625
O O14 0.500000 0.430004 0.134796
O O15 0.388636 0.500000 0.000000
#
# Coordination Sequence:
#
# PCOD9414733 Si02
#       6
#     8   8   8   8   8   8
#     4   9  15  29  48  78 120 153 184 232 295 349
#     4  10  18  31  51  86 118 148 183 240 295 356
#     4   9  18  26  49  85 119 153 184 233 296 351
#     4  10  18  33  54  80 117 149 194 237 289 353
#     4  12  24  39  63  92 120 150 195 253 308 358
#     4  11  25  44  62  83 117 162 205 251 307 363
#
# _framework density 20.128834999999999
#
# number of rings (size 3 to 8) (size 9 to 14) (size 15 to 20)
#    0.000    1.833    3.333    2.000    2.333    5.000 
#    0.000    0.000    0.000    2.000    0.000    1.167 
#    0.000    0.000    0.000    0.000    0.000    0.000 
#
# Total GULP energy -267631.774142 kJ/mol
# GULP energy per Si atom -5575.661961 kJ/mol
# Density = 2.008302 g / cm^3
# Si number density = 20.128835 Si / 1000 Ang^3
#
#
#
# Elastic Constant Matrix: (Units=GPa)
#
#
# Indices 1 2 3 4 5 6 
#
# 1 13.3713 8.8416 24.7574 0.0000 0.0000 0.0000
# 2 8.8416 55.4332 38.6713 0.0000 0.0000 0.0000
# 3 24.7574 38.6713 190.4543 0.0000 0.0000 0.0000
# 4 0.0000 0.0000 0.0000 23.3460 0.0000 0.0000
# 5 0.0000 0.0000 0.0000 0.0000 12.2807 0.0000
# 6 0.0000 0.0000 0.0000 0.0000 0.0000 11.3138
#
#
#
# Elastic Compliance Matrix: (Units=1/GPa)
#
#
# Indices 1 2 3 4 5 6 
#
# 1 0.101552 -0.008142 -0.011548 0.000000 0.000000 0.000000
# 2 -0.008142 0.021669 -0.003342 0.000000 0.000000 0.000000
# 3 -0.011548 -0.003342 0.007430 0.000000 0.000000 0.000000
# 4 0.000000 0.000000 0.000000 0.042834 0.000000 0.000000
# 5 0.000000 0.000000 0.000000 0.000000 0.081429 0.000000
# 6 0.000000 0.000000 0.000000 0.000000 0.000000 0.088388
#
#
# Mechanical properties :
#
#
# Convention : Reuss Voigt Hill
#
# Bulk Modulus (GPa) = 11.82178 44.86659 28.34419
# Shear Modulus (GPa) = 11.97433 21.85400 16.91417
#
# Velocity S-wave (km/s) = 2.44167 3.29858 2.90193
# Velocity P-wave (km/s) = 3.71952 6.07006 5.03391
#
# Compressibility (1/GPa) = 0.08458960
#
# Stress axis : x y z
#
# Youngs Moduli (GPa) = 9.84720 46.14787 134.58574
#
# Poissons Ratio (x) = 0.37572 1.55416
# Poissons Ratio (y) = 0.08017 0.44973
# Poissons Ratio (z) = 0.11371 0.15421
#
# Static dielectric constant tensor:
#      x y z
#    x 1.715740 0.000000 0.000000 
#    y 0.000000 1.756010 0.000000 
#    z 0.000000 0.000000 1.763900 
# 
# From -- ./inp_files/9900.got.cif
#   From: 2010.05.17/outbox.cif.g08.bks.cpg/sg53_5_cif.got.tgz:9900.got - 2010.06.03 12:45:16.
