data_PCOD9414341
_publ_section_title
;
Structure prediction by ZEFSAII (Michael W. Deem and Ramdas Pophale) SiO2 
 PCOD9414341
Probable space group: P M N A
;
_chemical_formula_sum "Si O2"
_cell_formula_units_Z 64
_cell_length_a 9.137689
_cell_length_b 20.955582
_cell_length_c 22.427148
_cell_angle_alpha 90.000000
_cell_angle_beta 90.000000
_cell_angle_gamma 90.000000
_cell_volume 4294.475692
_symmetry_space_group_name_H-M "P M N A"
_symmetry_group_IT_number 53
_symmetry_cell_setting 'orthorhombic'
loop_
_space_group_symop_operation_xyz
x,y,z
1/2-x,-y,1/2+z
x,-y,-z
1/2-x,y,1/2-z
-x,-y,-z
1/2+x,y,1/2-z
-x,y,z
1/2+x,-y,1/2+z
loop_
_atom_site_type_symbol
_atom_site_label
_atom_site_fract_x
_atom_site_fract_y
_atom_site_fract_z
Si Si1 0.831983 0.864230 0.555713
Si Si2 0.825191 0.245073 0.901523
Si Si3 0.676871 0.595649 0.542248
Si Si4 0.675676 0.638231 0.313871
Si Si5 0.332053 0.989751 0.572094
Si Si6 0.176237 0.725231 0.528217
Si Si7 0.822834 0.539380 0.087608
Si Si8 0.668447 0.883655 0.088375
O O1 0.733605 0.919763 0.582974
O O2 0.786657 0.790639 0.563350
O O3 0.829829 0.874330 0.483746
O O4 0.000000 0.872393 0.574973
O O5 0.794909 0.296866 0.850533
O O6 0.761964 0.175271 0.886845
O O7 0.000000 0.242219 0.911282
O O8 0.747886 0.267577 0.962651
O O9 0.500000 0.603642 0.544763
O O10 0.758063 0.661204 0.556085
O O11 0.720160 0.534618 0.582202
O O12 0.715486 0.574804 0.474298
O O13 0.750000 0.638033 0.250000
O O14 0.500000 0.633270 0.307298
O O15 0.727693 0.579809 0.355908
O O16 0.500000 0.994173 0.590772
O O17 0.328006 0.000000 0.500000
O O18 0.238198 0.047268 0.599495
O O19 0.000000 0.722689 0.522876
O O20 0.000000 0.539693 0.088618
O O21 0.500000 0.880260 0.107554
#
# Coordination Sequence:
#
# PCOD9414341 Si02
#       8
#     8   8   8   8   8   8   8   8
#     4   8  15  24  32  46  73 106 132 160 200 241
#     4  10  18  29  43  57  76 104 141 176 206 248
#     4   9  15  27  47  62  79 107 139 174 210 253
#     4  10  20  33  47  63  83 109 140 176 216 257
#     4   9  15  22  33  50  70  97 135 170 195 229
#     4  10  18  26  38  59  85 108 134 171 214 252
#     4   8  15  29  46  63  80 105 139 172 211 257
#     4   9  16  25  37  52  73 100 130 168 209 242
#
# _framework density 14.902867000000001
#
# number of rings (size 3 to 8) (size 9 to 14) (size 15 to 20)
#    0.000    2.875    1.250    3.000    0.000    6.000 
#    0.000    1.875    0.000    0.000    0.000    0.000 
#    0.000    0.000    0.000    1.125    0.000   16.875 
#
# Total GULP energy -356300.428423 kJ/mol
# GULP energy per Si atom -5567.194194 kJ/mol
# Density = 1.486895 g / cm^3
# Si number density = 14.902867 Si / 1000 Ang^3
#
#
#
# Elastic Constant Matrix: (Units=GPa)
#
#
# Indices 1 2 3 4 5 6 
#
# 1 58.4908 61.1745 19.7862 0.0000 0.0000 0.0000
# 2 61.1745 158.3776 30.6449 0.0000 0.0000 0.0000
# 3 19.7862 30.6449 35.4469 0.0000 0.0000 0.0000
# 4 0.0000 0.0000 0.0000 7.4066 0.0000 0.0000
# 5 0.0000 0.0000 0.0000 0.0000 13.1631 0.0000
# 6 0.0000 0.0000 0.0000 0.0000 0.0000 22.3622
#
#
#
# Elastic Compliance Matrix: (Units=1/GPa)
#
#
# Indices 1 2 3 4 5 6 
#
# 1 0.030562 -0.010212 -0.008231 0.000000 0.000000 0.000000
# 2 -0.010212 0.010995 -0.003805 0.000000 0.000000 0.000000
# 3 -0.008231 -0.003805 0.036095 0.000000 0.000000 0.000000
# 4 0.000000 0.000000 0.000000 0.135015 0.000000 0.000000
# 5 0.000000 0.000000 0.000000 0.000000 0.075970 0.000000
# 6 0.000000 0.000000 0.000000 0.000000 0.000000 0.044718
#
#
# Mechanical properties :
#
#
# Convention : Reuss Voigt Hill
#
# Bulk Modulus (GPa) = 30.16045 52.83629 41.49837
# Shear Modulus (GPa) = 12.85671 17.96701 15.41186
#
# Velocity S-wave (km/s) = 2.94036 3.47595 3.21932
# Velocity P-wave (km/s) = 5.64000 7.18613 6.45949
#
# Compressibility (1/GPa) = 0.03315601
#
# Stress axis : x y z
#
# Youngs Moduli (GPa) = 32.72081 90.95236 27.70471
#
# Poissons Ratio (x) = 0.92881 0.22802
# Poissons Ratio (y) = 0.33415 0.10542
# Poissons Ratio (z) = 0.26931 0.34607
#
# Static dielectric constant tensor:
#      x y z
#    x 1.498880 0.000000 0.000000 
#    y 0.000000 1.526570 0.000000 
#    z 0.000000 0.000000 1.453370 
# 
# From -- ./inp_files/31333.got.cif
#   From: 2010.05.17/outbox.cif.g08.bks.cpg/sg53_16_cif.got.tgz:31333.got - 2010.06.03 12:45:16.
