data_PCOD9414800
_publ_section_title
;
Structure prediction by ZEFSAII (Michael W. Deem and Ramdas Pophale) SiO2 
 PCOD9414800
Probable space group: P M N A
;
_chemical_formula_sum "Si O2"
_cell_formula_units_Z 56
_cell_length_a 8.609451
_cell_length_b 17.488431
_cell_length_c 23.122316
_cell_angle_alpha 90.000000
_cell_angle_beta 90.000000
_cell_angle_gamma 90.000000
_cell_volume 3481.429770
_symmetry_space_group_name_H-M "P M N A"
_symmetry_group_IT_number 53
_symmetry_cell_setting 'orthorhombic'
loop_
_space_group_symop_operation_xyz
x,y,z
1/2-x,-y,1/2+z
x,-y,-z
1/2-x,y,1/2-z
-x,-y,-z
1/2+x,y,1/2-z
-x,y,z
1/2+x,-y,1/2+z
loop_
_atom_site_type_symbol
_atom_site_label
_atom_site_fract_x
_atom_site_fract_y
_atom_site_fract_z
Si Si1 0.315766 0.576422 0.813295
Si Si2 0.821107 0.740620 0.834589
Si Si3 0.814386 0.122743 0.987068
Si Si4 0.820958 0.717091 0.970309
Si Si5 0.813555 0.088566 0.190522
Si Si6 0.185462 0.446384 0.446596
Si Si7 0.683279 0.995232 0.918410
O O1 0.250000 0.549508 0.750000
O O2 0.500000 0.564509 0.811742
O O3 0.276689 0.666943 0.816779
O O4 0.259143 0.546276 0.878180
O O5 0.822566 0.745869 0.904087
O O6 0.763571 0.822491 0.813810
O O7 0.000000 0.728358 0.815434
O O8 0.000000 0.121991 0.995601
O O9 0.768006 0.075547 0.930562
O O10 0.763787 0.210861 0.992224
O O11 0.737648 0.069560 0.035982
O O12 0.724591 0.639455 0.967545
O O13 0.000000 0.699356 0.986421
O O14 0.750000 0.057535 0.250000
O O15 0.735609 0.039593 0.141297
O O16 0.000000 0.087441 0.185542
O O17 0.243594 0.500000 0.500000
O O18 0.000000 0.456692 0.443384
O O19 0.500000 0.005775 0.923408
#
# Coordination Sequence:
#
# PCOD9414800 Si02
#       7
#     8   8   8   8   8   8   8
#     4  10  19  30  46  68  94 127 161 195 234 282
#     4   9  17  30  45  64  92 124 160 194 227 275
#     4  10  18  32  50  68  93 123 154 198 245 281
#     4   9  17  30  49  72  95 124 159 195 238 287
#     4  11  21  33  45  62  90 127 163 201 241 284
#     4   9  19  34  50  71 100 131 161 198 245 293
#     4  11  21  31  45  68  93 122 161 200 237 283
#
# _framework density 16.085345
#
# number of rings (size 3 to 8) (size 9 to 14) (size 15 to 20)
#    0.000    2.143    1.429    3.857    0.000    4.286 
#    0.000    0.000    0.000    0.000    0.000    1.000 
#    0.000    4.571    0.000    0.000    0.000    0.000 
#
# Total GULP energy -311740.854777 kJ/mol
# GULP energy per Si atom -5566.800978 kJ/mol
# Density = 1.604873 g / cm^3
# Si number density = 16.085345 Si / 1000 Ang^3
#
#
#
# Elastic Constant Matrix: (Units=GPa)
#
#
# Indices 1 2 3 4 5 6 
#
# 1 23.1798 7.3404 12.2797 0.0000 0.0000 0.0000
# 2 7.3404 59.9356 45.7719 0.0000 0.0000 0.0000
# 3 12.2797 45.7719 99.9640 0.0000 0.0000 0.0000
# 4 0.0000 0.0000 0.0000 4.7831 0.0000 0.0000
# 5 0.0000 0.0000 0.0000 0.0000 26.5263 0.0000
# 6 0.0000 0.0000 0.0000 0.0000 0.0000 13.8653
#
#
#
# Elastic Compliance Matrix: (Units=1/GPa)
#
#
# Indices 1 2 3 4 5 6 
#
# 1 0.046306 -0.002041 -0.004754 0.000000 0.000000 0.000000
# 2 -0.002041 0.025746 -0.011538 0.000000 0.000000 0.000000
# 3 -0.004754 -0.011538 0.015871 0.000000 0.000000 0.000000
# 4 0.000000 0.000000 0.000000 0.209068 0.000000 0.000000
# 5 0.000000 0.000000 0.000000 0.000000 0.037699 0.000000
# 6 0.000000 0.000000 0.000000 0.000000 0.000000 0.072123
#
#
# Mechanical properties :
#
#
# Convention : Reuss Voigt Hill
#
# Bulk Modulus (GPa) = 19.50949 34.87373 27.19161
# Shear Modulus (GPa) = 10.85630 16.88075 13.86853
#
# Velocity S-wave (km/s) = 2.60074 3.24303 2.93948
# Velocity P-wave (km/s) = 4.60147 5.97918 5.33498
#
# Compressibility (1/GPa) = 0.05125710
#
# Stress axis : x y z
#
# Youngs Moduli (GPa) = 21.59566 38.84123 63.00955
#
# Poissons Ratio (x) = 0.07926 0.29954
# Poissons Ratio (y) = 0.04407 0.72700
# Poissons Ratio (z) = 0.10266 0.44815
#
# Static dielectric constant tensor:
#      x y z
#    x 1.559010 0.000000 0.000000 
#    y 0.000000 1.531290 0.000000 
#    z 0.000000 0.000000 1.564930 
# 
# From -- ./inp_files/30975.got.cif
#   From: 2010.05.17/outbox.cif.g08.bks.cpg/sg53_16_cif.got.tgz:30975.got - 2010.06.03 12:45:16.
