data_PCOD9414408
_publ_section_title
;
Structure prediction by ZEFSAII (Michael W. Deem and Ramdas Pophale) SiO2 
 PCOD9414408
Probable space group: P M N A
;
_chemical_formula_sum "Si O2"
_cell_formula_units_Z 64
_cell_length_a 8.841102
_cell_length_b 18.876755
_cell_length_c 26.947434
_cell_angle_alpha 90.000000
_cell_angle_beta 90.000000
_cell_angle_gamma 90.000000
_cell_volume 4497.292733
_symmetry_space_group_name_H-M "P M N A"
_symmetry_group_IT_number 53
_symmetry_cell_setting 'orthorhombic'
loop_
_space_group_symop_operation_xyz
x,y,z
1/2-x,-y,1/2+z
x,-y,-z
1/2-x,y,1/2-z
-x,-y,-z
1/2+x,y,1/2-z
-x,y,z
1/2+x,-y,1/2+z
loop_
_atom_site_type_symbol
_atom_site_label
_atom_site_fract_x
_atom_site_fract_y
_atom_site_fract_z
Si Si1 0.317556 0.671787 0.004868
Si Si2 0.326483 0.461598 0.053860
Si Si3 0.180730 0.093140 0.597620
Si Si4 0.818333 0.336814 0.696527
Si Si5 0.681335 0.828887 0.197310
Si Si6 0.825744 0.961468 0.946096
Si Si7 0.320287 0.592130 0.399734
Si Si8 0.317636 0.826752 0.497095
O O1 0.500000 0.672458 0.008924
O O2 0.277301 0.617753 0.960115
O O3 0.250672 0.639321 0.055760
O O4 0.252924 0.749660 0.996739
O O5 0.500000 0.461410 0.071987
O O6 0.225354 0.510990 0.088344
O O7 0.327739 0.500000 0.000000
O O8 0.229236 0.123629 0.650809
O O9 0.257714 0.139400 0.554239
O O10 0.000000 0.100478 0.593097
O O11 0.228054 0.011770 0.588876
O O12 0.750000 0.356621 0.750000
O O13 0.778884 0.253672 0.688119
O O14 0.749405 0.381817 0.651870
O O15 0.000000 0.343021 0.697203
O O16 0.750000 0.850298 0.250000
O O17 0.500000 0.832417 0.200842
O O18 0.000000 0.960685 0.929123
O O19 0.774886 0.881970 0.959055
O O20 0.824209 0.000000 0.000000
O O21 0.500000 0.600403 0.399889
O O22 0.500000 0.823848 0.495411
#
# Coordination Sequence:
#
# PCOD9414408 Si02
#       8
#     8   8   8   8   8   8   8   8
#     4  10  19  30  44  62  85 113 144 176 212 251
#     4   8  16  30  44  59  82 111 140 173 211 248
#     4  10  18  28  43  62  83 110 144 175 207 248
#     4  10  19  32  46  61  85 113 144 181 216 249
#     4   9  19  31  43  60  81 107 139 175 210 244
#     4   8  16  29  41  57  82 110 139 171 207 246
#     4  11  20  29  44  64  85 113 146 175 210 253
#     4  10  19  29  42  61  85 112 142 174 209 250
#
# _framework density 14.230784
#
# number of rings (size 3 to 8) (size 9 to 14) (size 15 to 20)
#    0.000    2.500    0.000    4.875    0.000    8.000 
#    0.000    0.000    0.000    0.000    0.000    0.000 
#    0.000    1.000    0.000    9.000    0.000    6.750 
#
# Total GULP energy -356667.548385 kJ/mol
# GULP energy per Si atom -5572.930444 kJ/mol
# Density = 1.419839 g / cm^3
# Si number density = 14.230784 Si / 1000 Ang^3
#
#
#
# Elastic Constant Matrix: (Units=GPa)
#
#
# Indices 1 2 3 4 5 6 
#
# 1 63.2199 45.0902 42.7799 0.0000 0.0000 0.0000
# 2 45.0902 118.9906 57.6762 0.0000 0.0000 0.0000
# 3 42.7799 57.6762 85.4618 0.0000 0.0000 0.0000
# 4 0.0000 0.0000 0.0000 24.1996 0.0000 0.0000
# 5 0.0000 0.0000 0.0000 0.0000 21.6297 0.0000
# 6 0.0000 0.0000 0.0000 0.0000 0.0000 32.0996
#
#
#
# Elastic Compliance Matrix: (Units=1/GPa)
#
#
# Indices 1 2 3 4 5 6 
#
# 1 0.025961 -0.005259 -0.009446 0.000000 0.000000 0.000000
# 2 -0.005259 0.013555 -0.006515 0.000000 0.000000 0.000000
# 3 -0.009446 -0.006515 0.020827 0.000000 0.000000 0.000000
# 4 0.000000 0.000000 0.000000 0.041323 0.000000 0.000000
# 5 0.000000 0.000000 0.000000 0.000000 0.046233 0.000000
# 6 0.000000 0.000000 0.000000 0.000000 0.000000 0.031153
#
#
# Mechanical properties :
#
#
# Convention : Reuss Voigt Hill
#
# Bulk Modulus (GPa) = 55.86151 62.08501 58.97326
# Shear Modulus (GPa) = 21.98198 23.72751 22.85474
#
# Velocity S-wave (km/s) = 3.93450 4.08773 4.01185
# Velocity P-wave (km/s) = 7.74465 8.12412 7.93666
#
# Compressibility (1/GPa) = 0.01790142
#
# Stress axis : x y z
#
# Youngs Moduli (GPa) = 38.51991 73.77376 48.01515
#
# Poissons Ratio (x) = 0.38797 0.45356
# Poissons Ratio (y) = 0.20257 0.31284
# Poissons Ratio (z) = 0.36386 0.48067
#
# Static dielectric constant tensor:
#      x y z
#    x 1.476740 0.000000 0.000000 
#    y 0.000000 1.486630 0.000000 
#    z 0.000000 0.000000 1.442650 
# 
# From -- ./inp_files/34515.got.cif
#   From: 2010.05.17/outbox.cif.g08.bks.cpg/sg53_18_cif.got.tgz:34515.got - 2010.06.03 12:45:16.
