data_PCOD9414196
_publ_section_title
;
Structure prediction by ZEFSAII (Michael W. Deem and Ramdas Pophale) SiO2 
 PCOD9414196
Probable space group: P M N A
;
_chemical_formula_sum "Si O2"
_cell_formula_units_Z 64
_cell_length_a 15.782158
_cell_length_b 8.060422
_cell_length_c 32.726831
_cell_angle_alpha 90.000000
_cell_angle_beta 90.000000
_cell_angle_gamma 90.000000
_cell_volume 4163.208106
_symmetry_space_group_name_H-M "P M N A"
_symmetry_group_IT_number 53
_symmetry_cell_setting 'orthorhombic'
loop_
_space_group_symop_operation_xyz
x,y,z
1/2-x,-y,1/2+z
x,-y,-z
1/2-x,y,1/2-z
-x,-y,-z
1/2+x,y,1/2-z
-x,y,z
1/2+x,-y,1/2+z
loop_
_atom_site_type_symbol
_atom_site_label
_atom_site_fract_x
_atom_site_fract_y
_atom_site_fract_z
Si Si1 0.598240 0.814819 0.325943
Si Si2 0.598242 0.303890 0.413381
Si Si3 0.897593 0.691521 0.261976
Si Si4 0.170338 0.164030 0.168756
Si Si5 0.097578 0.197985 0.998643
Si Si6 0.901870 0.301374 0.911672
Si Si7 0.400461 0.326161 0.254130
Si Si8 0.318100 0.020197 0.212977
O O1 0.500000 0.763824 0.327821
O O2 0.631644 0.732173 0.284650
O O3 0.637170 0.767453 0.369733
O O4 0.607123 0.011516 0.321400
O O5 0.500000 0.242399 0.410935
O O6 0.649919 0.227523 0.376115
O O7 0.633123 0.260885 0.458326
O O8 0.596320 0.501235 0.408808
O O9 0.876158 0.498230 0.268220
O O10 0.000000 0.708678 0.263790
O O11 0.857977 0.837513 0.289393
O O12 0.151302 0.300107 0.203736
O O13 0.263190 0.086265 0.175133
O O14 0.136601 0.251792 0.955404
O O15 0.000000 0.263230 0.998395
O O16 0.095588 0.000000 0.000000
O O17 0.000000 0.237793 0.913001
O O18 0.500000 0.337845 0.264372
O O19 0.382861 0.163929 0.226761
O O20 0.250000 0.014402 0.250000
#
# Coordination Sequence:
#
# PCOD9414196 Si02
#       8
#     8   8   8   8   8   8   8   8
#     4  10  17  27  43  60  82 110 145 185 216 254
#     4  10  18  28  42  58  83 116 152 190 220 258
#     4  10  19  32  49  64  81 112 150 187 224 264
#     4  11  20  30  41  64  87 114 143 184 226 264
#     4   9  16  26  40  57  79 109 146 190 227 252
#     4   9  17  27  39  61  83 108 149 192 229 252
#     4  10  19  32  49  64  80 108 147 185 224 267
#     4  10  20  32  43  63  88 111 140 184 228 269
#
# _framework density 15.372759
#
# number of rings (size 3 to 8) (size 9 to 14) (size 15 to 20)
#    0.000    2.125    2.500    3.375    0.000    7.000 
#    2.250    0.000    0.000    0.000    0.000    0.000 
#    0.000    0.000    0.000    0.000    0.000   32.500 
#
# Total GULP energy -356456.963788 kJ/mol
# GULP energy per Si atom -5569.640059 kJ/mol
# Density = 1.533777 g / cm^3
# Si number density = 15.372759 Si / 1000 Ang^3
#
#
#
# Elastic Constant Matrix: (Units=GPa)
#
#
# Indices 1 2 3 4 5 6 
#
# 1 27.4684 17.5956 17.6027 0.0000 0.0000 0.0000
# 2 17.5956 79.8475 15.3015 0.0000 0.0000 0.0000
# 3 17.6027 15.3015 68.8000 0.0000 0.0000 0.0000
# 4 0.0000 0.0000 0.0000 24.5766 0.0000 0.0000
# 5 0.0000 0.0000 0.0000 0.0000 13.5661 0.0000
# 6 0.0000 0.0000 0.0000 0.0000 0.0000 7.2912
#
#
#
# Elastic Compliance Matrix: (Units=1/GPa)
#
#
# Indices 1 2 3 4 5 6 
#
# 1 0.048741 -0.008723 -0.010531 0.000000 0.000000 0.000000
# 2 -0.008723 0.014642 -0.001025 0.000000 0.000000 0.000000
# 3 -0.010531 -0.001025 0.017457 0.000000 0.000000 0.000000
# 4 0.000000 0.000000 0.000000 0.040689 0.000000 0.000000
# 5 0.000000 0.000000 0.000000 0.000000 0.073713 0.000000
# 6 0.000000 0.000000 0.000000 0.000000 0.000000 0.137152
#
#
# Mechanical properties :
#
#
# Convention : Reuss Voigt Hill
#
# Bulk Modulus (GPa) = 24.82346 30.79059 27.80703
# Shear Modulus (GPa) = 12.94063 17.46120 15.20091
#
# Velocity S-wave (km/s) = 2.90451 3.37390 3.14796
# Velocity P-wave (km/s) = 5.23746 5.93720 5.59828
#
# Compressibility (1/GPa) = 0.04028448
#
# Stress axis : x y z
#
# Youngs Moduli (GPa) = 20.51640 68.29449 57.28332
#
# Poissons Ratio (x) = 0.59572 0.60323
# Poissons Ratio (y) = 0.17896 0.05870
# Poissons Ratio (z) = 0.21605 0.06999
#
# Static dielectric constant tensor:
#      x y z
#    x 1.524190 0.000000 0.000000 
#    y 0.000000 1.553020 0.000000 
#    z 0.000000 0.000000 1.546830 
# 
# From -- ./inp_files/38965.got.cif
#   From: 2010.05.17/outbox.cif.g08.bks.cpg/sg53_20_cif.got.tgz:38965.got - 2010.06.03 12:45:16.
