data_PCOD9414301
_publ_section_title
;
Structure prediction by ZEFSAII (Michael W. Deem and Ramdas Pophale) SiO2 
 PCOD9414301
Probable space group: P M N A
;
_chemical_formula_sum "Si O2"
_cell_formula_units_Z 48
_cell_length_a 13.515502
_cell_length_b 10.075554
_cell_length_c 18.840749
_cell_angle_alpha 90.000000
_cell_angle_beta 90.000000
_cell_angle_gamma 90.000000
_cell_volume 2565.661043
_symmetry_space_group_name_H-M "P M N A"
_symmetry_group_IT_number 53
_symmetry_cell_setting 'orthorhombic'
loop_
_space_group_symop_operation_xyz
x,y,z
1/2-x,-y,1/2+z
x,-y,-z
1/2-x,y,1/2-z
-x,-y,-z
1/2+x,y,1/2-z
-x,y,z
1/2+x,-y,1/2+z
loop_
_atom_site_type_symbol
_atom_site_label
_atom_site_fract_x
_atom_site_fract_y
_atom_site_fract_z
Si Si1 0.296454 0.395028 0.439334
Si Si2 0.388276 0.504622 0.854465
Si Si3 0.111501 0.154292 0.990105
Si Si4 0.328364 0.209073 0.664513
Si Si5 0.108885 0.187859 0.677308
Si Si6 0.884464 0.500035 0.195909
O O1 0.328540 0.500000 0.500000
O O2 0.188824 0.440389 0.411438
O O3 0.309929 0.251047 0.473077
O O4 0.364079 0.404109 0.369320
O O5 0.500000 0.546999 0.871747
O O6 0.391562 0.344361 0.844515
O O7 0.361801 0.552730 0.774499
O O8 0.112813 0.184978 0.906603
O O9 0.000000 0.181274 0.017469
O O10 0.133374 0.000000 0.000000
O O11 0.219144 0.146281 0.653002
O O12 0.380258 0.166661 0.737653
O O13 0.321939 0.368068 0.677625
O O14 0.000000 0.135471 0.655084
O O15 0.000000 0.539654 0.197662
#
# Coordination Sequence:
#
# PCOD9414301 Si02
#       6
#     8   8   8   8   8   8
#     4  12  21  32  55  86 110 140 183 234 278 330
#     4   9  18  32  50  78 115 147 176 223 283 329
#     4  11  24  39  54  77 114 151 182 223 279 332
#     4  10  17  31  53  80 111 142 178 221 274 326
#     4   9  16  28  53  84 111 138 178 228 275 322
#     4  10  18  30  52  81 110 139 178 230 276 324
#
# _framework density 18.708628999999998
#
# number of rings (size 3 to 8) (size 9 to 14) (size 15 to 20)
#    0.000    1.833    3.333    3.500    0.000    1.000 
#    0.000    0.833    7.333    2.000    0.000    0.000 
#    0.000    0.000    0.000    0.000    0.000    0.000 
#
# Total GULP energy -267282.446934 kJ/mol
# GULP energy per Si atom -5568.384311 kJ/mol
# Density = 1.866605 g / cm^3
# Si number density = 18.708629 Si / 1000 Ang^3
#
#
#
# Elastic Constant Matrix: (Units=GPa)
#
#
# Indices 1 2 3 4 5 6 
#
# 1 95.5611 6.3693 -3.2356 0.0000 0.0000 0.0000
# 2 6.3693 39.7199 21.5744 0.0000 0.0000 0.0000
# 3 -3.2356 21.5744 61.8226 0.0000 0.0000 0.0000
# 4 0.0000 0.0000 0.0000 5.3433 0.0000 0.0000
# 5 0.0000 0.0000 0.0000 0.0000 24.1902 0.0000
# 6 0.0000 0.0000 0.0000 0.0000 0.0000 5.1942
#
#
#
# Elastic Compliance Matrix: (Units=1/GPa)
#
#
# Indices 1 2 3 4 5 6 
#
# 1 0.010679 -0.002487 0.001427 0.000000 0.000000 0.000000
# 2 -0.002487 0.031644 -0.011173 0.000000 0.000000 0.000000
# 3 0.001427 -0.011173 0.020149 0.000000 0.000000 0.000000
# 4 0.000000 0.000000 0.000000 0.187150 0.000000 0.000000
# 5 0.000000 0.000000 0.000000 0.000000 0.041339 0.000000
# 6 0.000000 0.000000 0.000000 0.000000 0.000000 0.192523
#
#
# Mechanical properties :
#
#
# Convention : Reuss Voigt Hill
#
# Bulk Modulus (GPa) = 26.31266 27.39109 26.85188
# Shear Modulus (GPa) = 9.60394 18.43857 14.02126
#
# Velocity S-wave (km/s) = 2.26817 3.14278 2.74059
# Velocity P-wave (km/s) = 4.57760 5.27656 4.93946
#
# Compressibility (1/GPa) = 0.03800452
#
# Stress axis : x y z
#
# Youngs Moduli (GPa) = 93.64503 31.60161 49.63001
#
# Poissons Ratio (x) = 0.07861 -0.07082
# Poissons Ratio (y) = 0.23294 0.55452
# Poissons Ratio (z) = -0.13363 0.35309
#
# Static dielectric constant tensor:
#      x y z
#    x 1.716840 0.000000 0.000000 
#    y 0.000000 1.618840 0.000000 
#    z 0.000000 0.000000 1.664810 
# 
# From -- ./inp_files/32290.got.cif
#   From: 2010.05.17/outbox.cif.g08.bks.cpg/sg53_17_cif.got.tgz:32290.got - 2010.06.03 12:45:16.
