data_PCOD9414711
_publ_section_title
;
Structure prediction by ZEFSAII (Michael W. Deem and Ramdas Pophale) SiO2 
 PCOD9414711
Probable space group: P M N A
;
_chemical_formula_sum "Si O2"
_cell_formula_units_Z 56
_cell_length_a 7.751194
_cell_length_b 17.449180
_cell_length_c 22.154628
_cell_angle_alpha 90.000000
_cell_angle_beta 90.000000
_cell_angle_gamma 90.000000
_cell_volume 2996.457288
_symmetry_space_group_name_H-M "P M N A"
_symmetry_group_IT_number 53
_symmetry_cell_setting 'orthorhombic'
loop_
_space_group_symop_operation_xyz
x,y,z
1/2-x,-y,1/2+z
x,-y,-z
1/2-x,y,1/2-z
-x,-y,-z
1/2+x,y,1/2-z
-x,y,z
1/2+x,-y,1/2+z
loop_
_atom_site_type_symbol
_atom_site_label
_atom_site_fract_x
_atom_site_fract_y
_atom_site_fract_z
Si Si1 0.301142 0.805924 0.382270
Si Si2 0.697525 0.656044 0.181028
Si Si3 0.210233 0.380434 0.031275
Si Si4 0.788351 0.208886 0.018140
Si Si5 0.292793 0.955540 0.318970
Si Si6 0.708370 0.532488 0.408634
Si Si7 0.289532 0.954802 0.561291
O O1 0.500000 0.828726 0.391867
O O2 0.298339 0.721629 0.354669
O O3 0.225719 0.803742 0.449351
O O4 0.229915 0.869549 0.336455
O O5 0.750000 0.654525 0.250000
O O6 0.500000 0.678941 0.175752
O O7 0.725233 0.574153 0.150357
O O8 0.265641 0.445626 0.078579
O O9 0.000000 0.379787 0.031862
O O10 0.268838 0.293264 0.039185
O O11 0.260396 0.414709 0.965890
O O12 0.000000 0.210994 0.017676
O O13 0.737529 0.134009 0.055459
O O14 0.250000 0.976036 0.250000
O O15 0.500000 0.957696 0.320415
O O16 0.231971 0.007263 0.375676
O O17 0.500000 0.532815 0.407154
O O18 0.500000 0.957618 0.560946
O O19 0.235613 0.000000 0.500000
#
# Coordination Sequence:
#
# PCOD9414711 Si02
#       7
#     8   8   8   8   8   8   8
#     4  10  18  31  51  73 100 131 163 201 246 297
#     4  12  24  35  48  69  99 134 167 200 242 294
#     4   8  14  25  48  76  98 124 155 196 242 287
#     4   9  14  24  48  77 102 126 161 206 247 287
#     4  10  20  32  49  73 100 134 170 208 250 296
#     4   9  16  30  50  72  97 125 162 198 235 286
#     4   9  15  26  46  75 102 127 167 214 250 285
#
# _framework density 18.688735000000001
#
# number of rings (size 3 to 8) (size 9 to 14) (size 15 to 20)
#    0.000    2.429    2.857    2.571    0.000    1.714 
#    0.000    1.429    0.000    2.143    0.000    2.000 
#    0.000    0.000    0.000    0.000    0.000    0.000 
#
# Total GULP energy -312193.925465 kJ/mol
# GULP energy per Si atom -5574.891526 kJ/mol
# Density = 1.864620 g / cm^3
# Si number density = 18.688735 Si / 1000 Ang^3
#
#
#
# Elastic Constant Matrix: (Units=GPa)
#
#
# Indices 1 2 3 4 5 6 
#
# 1 26.7169 4.2784 1.2339 0.0000 0.0000 0.0000
# 2 4.2784 145.2282 64.7237 0.0000 0.0000 0.0000
# 3 1.2339 64.7237 112.8054 0.0000 0.0000 0.0000
# 4 0.0000 0.0000 0.0000 32.1625 0.0000 0.0000
# 5 0.0000 0.0000 0.0000 0.0000 8.4323 0.0000
# 6 0.0000 0.0000 0.0000 0.0000 0.0000 -1.0209
#
#
#
# Elastic Compliance Matrix: (Units=1/GPa)
#
#
# Indices 1 2 3 4 5 6 
#
# 1 0.037614 -0.001242 0.000301 0.000000 0.000000 0.000000
# 2 -0.001242 0.009292 -0.005318 0.000000 0.000000 0.000000
# 3 0.000301 -0.005318 0.011913 0.000000 0.000000 0.000000
# 4 0.000000 0.000000 0.000000 0.031092 0.000000 0.000000
# 5 0.000000 0.000000 0.000000 0.000000 0.118592 0.000000
# 6 0.000000 0.000000 0.000000 0.000000 0.000000 -0.979556
#
#
# Mechanical properties :
#
#
# Convention : Reuss Voigt Hill
#
# Bulk Modulus (GPa) = 21.59754 47.24696 34.42225
# Shear Modulus (GPa) = -6.72857 22.21575 7.74359
#
# Velocity S-wave (km/s) = -1.89951 3.45153 2.03776
# Velocity P-wave (km/s) = 2.60205 6.42027 4.89850
#
# Compressibility (1/GPa) = 0.04630156
#
# Stress axis : x y z
#
# Youngs Moduli (GPa) = 26.58551 107.61465 83.94306
#
# Poissons Ratio (x) = 0.13371 -0.02531
# Poissons Ratio (y) = 0.03303 0.44641
# Poissons Ratio (z) = -0.00801 0.57230
#
# Static dielectric constant tensor:
#      x y z
#    x 1.700760 0.000000 0.000000 
#    y 0.000000 1.659620 0.000000 
#    z 0.000000 0.000000 1.625290 
# 
# From -- ./inp_files/31049.got.cif
#   From: 2010.05.17/outbox.cif.g08.bks.cpg/sg53_16_cif.got.tgz:31049.got - 2010.06.03 12:45:16.
