data_PCOD9414648
_publ_section_title
;
Structure prediction by ZEFSAII (Michael W. Deem and Ramdas Pophale) SiO2 
 PCOD9414648
Probable space group: P M N A
;
_chemical_formula_sum "Si O2"
_cell_formula_units_Z 64
_cell_length_a 8.514261
_cell_length_b 11.269473
_cell_length_c 35.222337
_cell_angle_alpha 90.000000
_cell_angle_beta 90.000000
_cell_angle_gamma 90.000000
_cell_volume 3379.626716
_symmetry_space_group_name_H-M "P M N A"
_symmetry_group_IT_number 53
_symmetry_cell_setting 'orthorhombic'
loop_
_space_group_symop_operation_xyz
x,y,z
1/2-x,-y,1/2+z
x,-y,-z
1/2-x,y,1/2-z
-x,-y,-z
1/2+x,y,1/2-z
-x,y,z
1/2+x,-y,1/2+z
loop_
_atom_site_type_symbol
_atom_site_label
_atom_site_fract_x
_atom_site_fract_y
_atom_site_fract_z
Si Si1 0.686828 0.287077 0.445122
Si Si2 0.309202 0.334431 0.865547
Si Si3 0.189045 0.794573 0.479880
Si Si4 0.189467 0.157629 0.129681
Si Si5 0.809739 0.088029 0.596661
Si Si6 0.188931 0.463670 0.709350
Si Si7 0.311110 0.544985 0.058422
Si Si8 0.188804 0.732114 0.791203
O O1 0.500000 0.285146 0.445218
O O2 0.746607 0.198157 0.477752
O O3 0.743912 0.248246 0.403329
O O4 0.743584 0.419913 0.453975
O O5 0.500000 0.332549 0.865436
O O6 0.260221 0.204196 0.879264
O O7 0.256650 0.379513 0.824785
O O8 0.263360 0.427423 0.898232
O O9 0.239071 0.886579 0.447103
O O10 0.234809 0.663345 0.464418
O O11 0.000000 0.798732 0.481570
O O12 0.242737 0.193888 0.171919
O O13 0.000000 0.160644 0.130281
O O14 0.243708 0.029371 0.115556
O O15 0.000000 0.083113 0.596825
O O16 0.250000 0.421458 0.750000
O O17 0.252447 0.596998 0.703772
O O18 0.000000 0.468389 0.709670
O O19 0.500000 0.537503 0.056046
O O20 0.250000 0.773946 0.750000
O O21 0.000000 0.731818 0.790027
#
# Coordination Sequence:
#
# PCOD9414648 Si02
#       8
#     8   8   8   8   8   8   8   8
#     4  11  22  33  48  74 107 138 168 205 252 307
#     4   8  16  32  53  75  98 128 166 208 252 297
#     4   9  19  35  53  75 102 132 169 215 260 297
#     4  10  23  39  52  73 106 138 169 211 258 300
#     4   9  19  37  58  75  95 131 179 220 250 292
#     4  10  18  30  51  79 109 134 160 198 248 306
#     4   9  17  32  53  74  99 130 166 210 257 302
#     4  10  20  36  56  78 106 135 166 205 250 300
#
# _framework density 18.937002
#
# number of rings (size 3 to 8) (size 9 to 14) (size 15 to 20)
#    0.000    2.500    0.000    4.500    0.000    5.000 
#    0.000    6.875    0.000    3.000    0.000    0.000 
#    0.000    0.000    0.000    0.000    0.000    0.000 
#
# Total GULP energy -357041.296068 kJ/mol
# GULP energy per Si atom -5578.770251 kJ/mol
# Density = 1.889390 g / cm^3
# Si number density = 18.937002 Si / 1000 Ang^3
#
#
#
# Elastic Constant Matrix: (Units=GPa)
#
#
# Indices 1 2 3 4 5 6 
#
# 1 18.1193 7.0508 23.5741 0.0000 0.0000 0.0000
# 2 7.0508 38.3485 20.1162 0.0000 0.0000 0.0000
# 3 23.5741 20.1162 124.1631 0.0000 0.0000 0.0000
# 4 0.0000 0.0000 0.0000 20.9039 0.0000 0.0000
# 5 0.0000 0.0000 0.0000 0.0000 28.7447 0.0000
# 6 0.0000 0.0000 0.0000 0.0000 0.0000 34.5665
#
#
#
# Elastic Compliance Matrix: (Units=1/GPa)
#
#
# Indices 1 2 3 4 5 6 
#
# 1 0.074930 -0.006901 -0.013108 0.000000 0.000000 0.000000
# 2 -0.006901 0.029134 -0.003410 0.000000 0.000000 0.000000
# 3 -0.013108 -0.003410 0.011095 0.000000 0.000000 0.000000
# 4 0.000000 0.000000 0.000000 0.047838 0.000000 0.000000
# 5 0.000000 0.000000 0.000000 0.000000 0.034789 0.000000
# 6 0.000000 0.000000 0.000000 0.000000 0.000000 0.028930
#
#
# Mechanical properties :
#
#
# Convention : Reuss Voigt Hill
#
# Bulk Modulus (GPa) = 14.63678 31.34590 22.99134
# Shear Modulus (GPa) = 16.87323 25.50233 21.18778
#
# Velocity S-wave (km/s) = 2.98823 3.67371 3.34856
# Velocity P-wave (km/s) = 4.43306 5.88078 5.20747
#
# Compressibility (1/GPa) = 0.06832103
#
# Stress axis : x y z
#
# Youngs Moduli (GPa) = 13.34587 34.32397 90.12900
#
# Poissons Ratio (x) = 0.23685 1.18145
# Poissons Ratio (y) = 0.09209 0.30734
# Poissons Ratio (z) = 0.17494 0.11704
#
# Static dielectric constant tensor:
#      x y z
#    x 1.650080 0.000000 0.000000 
#    y 0.000000 1.636210 0.000000 
#    z 0.000000 0.000000 1.690040 
# 
# From -- ./inp_files/38159.got.cif
#   From: 2010.05.17/outbox.cif.g08.bks.cpg/sg53_20_cif.got.tgz:38159.got - 2010.06.03 12:45:16.
