data_PCOD9414805
_publ_section_title
;
Structure prediction by ZEFSAII (Michael W. Deem and Ramdas Pophale) SiO2 
 PCOD9414805
Probable space group: P M N A
;
_chemical_formula_sum "Si O2"
_cell_formula_units_Z 48
_cell_length_a 8.823779
_cell_length_b 15.473775
_cell_length_c 20.998472
_cell_angle_alpha 90.000000
_cell_angle_beta 90.000000
_cell_angle_gamma 90.000000
_cell_volume 2867.071960
_symmetry_space_group_name_H-M "P M N A"
_symmetry_group_IT_number 53
_symmetry_cell_setting 'orthorhombic'
loop_
_space_group_symop_operation_xyz
x,y,z
1/2-x,-y,1/2+z
x,-y,-z
1/2-x,y,1/2-z
-x,-y,-z
1/2+x,y,1/2-z
-x,y,z
1/2+x,-y,1/2+z
loop_
_atom_site_type_symbol
_atom_site_label
_atom_site_fract_x
_atom_site_fract_y
_atom_site_fract_z
Si Si1 0.181816 0.380206 0.184911
Si Si2 0.323911 0.194733 0.157424
Si Si3 0.683670 0.933226 0.056700
Si Si4 0.317641 0.420162 0.457254
Si Si5 0.675417 0.239344 0.009756
Si Si6 0.319578 0.989298 0.684576
O O1 0.250000 0.418373 0.250000
O O2 0.243735 0.282238 0.179800
O O3 0.229055 0.423162 0.117426
O O4 0.000000 0.379881 0.188600
O O5 0.500000 0.192765 0.178103
O O6 0.237755 0.109515 0.178813
O O7 0.321741 0.198643 0.080648
O O8 0.500000 0.935426 0.061820
O O9 0.730275 0.836364 0.036663
O O10 0.756416 0.962629 0.122499
O O11 0.724717 0.000000 0.000000
O O12 0.262519 0.500000 0.500000
O O13 0.500000 0.421312 0.457470
O O14 0.264306 0.328889 0.486078
O O15 0.500000 0.258569 0.994782
O O16 0.250000 0.025181 0.750000
O O17 0.500000 0.991995 0.686502
#
# Coordination Sequence:
#
# PCOD9414805 Si02
#       6
#     8   8   8   8   8   8
#     4  10  19  31  48  73 103 134 166 205 255 312
#     4  10  18  32  50  72 103 138 171 206 256 310
#     4  10  19  36  56  76 105 139 174 215 261 310
#     4   9  19  35  54  76 104 135 170 215 262 305
#     4   9  18  32  54  79 103 134 170 211 259 308
#     4  12  24  35  49  72 103 141 182 222 263 308
#
# _framework density 16.741820000000001
#
# number of rings (size 3 to 8) (size 9 to 14) (size 15 to 20)
#    0.000    2.000    1.667    3.000    0.000    2.667 
#    0.000    0.000    0.000    1.000    0.000    4.667 
#    0.000    0.000    0.000    0.000    0.000    0.000 
#
# Total GULP energy -267830.238967 kJ/mol
# GULP energy per Si atom -5579.796645 kJ/mol
# Density = 1.670371 g / cm^3
# Si number density = 16.741820 Si / 1000 Ang^3
#
#
#
# Elastic Constant Matrix: (Units=GPa)
#
#
# Indices 1 2 3 4 5 6 
#
# 1 56.5472 29.3920 48.8040 0.0000 0.0000 0.0000
# 2 29.3920 85.0015 72.6574 0.0000 0.0000 0.0000
# 3 48.8040 72.6574 147.3165 0.0000 0.0000 0.0000
# 4 0.0000 0.0000 0.0000 16.1981 0.0000 0.0000
# 5 0.0000 0.0000 0.0000 0.0000 17.4503 0.0000
# 6 0.0000 0.0000 0.0000 0.0000 0.0000 20.2880
#
#
#
# Elastic Compliance Matrix: (Units=1/GPa)
#
#
# Indices 1 2 3 4 5 6 
#
# 1 0.025124 -0.002719 -0.006982 0.000000 0.000000 0.000000
# 2 -0.002719 0.020633 -0.009276 0.000000 0.000000 0.000000
# 3 -0.006982 -0.009276 0.013676 0.000000 0.000000 0.000000
# 4 0.000000 0.000000 0.000000 0.061736 0.000000 0.000000
# 5 0.000000 0.000000 0.000000 0.000000 0.057306 0.000000
# 6 0.000000 0.000000 0.000000 0.000000 0.000000 0.049290
#
#
# Mechanical properties :
#
#
# Convention : Reuss Voigt Hill
#
# Bulk Modulus (GPa) = 46.55666 65.61911 56.08788
# Shear Modulus (GPa) = 18.32319 19.98806 19.15563
#
# Velocity S-wave (km/s) = 3.31185 3.45903 3.38624
# Velocity P-wave (km/s) = 6.51870 7.43189 6.99022
#
# Compressibility (1/GPa) = 0.02147921
#
# Stress axis : x y z
#
# Youngs Moduli (GPa) = 39.80307 48.46509 73.12101
#
# Poissons Ratio (x) = 0.13179 0.51053
# Poissons Ratio (y) = 0.10824 0.67825
# Poissons Ratio (z) = 0.27790 0.44955
#
# Static dielectric constant tensor:
#      x y z
#    x 1.563330 0.000000 0.000000 
#    y 0.000000 1.541550 0.000000 
#    z 0.000000 0.000000 1.601150 
# 
# From -- ./inp_files/26167.got.cif
#   From: 2010.05.17/outbox.cif.g08.bks.cpg/sg53_14_cif.got.tgz:26167.got - 2010.06.03 12:45:16.
