data_PCOD9414198
_publ_section_title
;
Structure prediction by ZEFSAII (Michael W. Deem and Ramdas Pophale) SiO2 
 PCOD9414198
Probable space group: P M N A
;
_chemical_formula_sum "Si O2"
_cell_formula_units_Z 56
_cell_length_a 15.919008
_cell_length_b 7.948214
_cell_length_c 27.194084
_cell_angle_alpha 90.000000
_cell_angle_beta 90.000000
_cell_angle_gamma 90.000000
_cell_volume 3440.804419
_symmetry_space_group_name_H-M "P M N A"
_symmetry_group_IT_number 53
_symmetry_cell_setting 'orthorhombic'
loop_
_space_group_symop_operation_xyz
x,y,z
1/2-x,-y,1/2+z
x,-y,-z
1/2-x,y,1/2-z
-x,-y,-z
1/2+x,y,1/2-z
-x,y,z
1/2+x,-y,1/2+z
loop_
_atom_site_type_symbol
_atom_site_label
_atom_site_fract_x
_atom_site_fract_y
_atom_site_fract_z
Si Si1 0.898596 0.678879 0.266031
Si Si2 0.669553 0.846614 0.651858
Si Si3 0.598749 0.713383 0.551930
Si Si4 0.902659 0.199354 0.840275
Si Si5 0.901313 0.308174 0.944339
Si Si6 0.683364 0.993506 0.794966
Si Si7 0.901346 0.688510 0.755222
O O1 0.869968 0.719676 0.209842
O O2 0.877919 0.483112 0.273126
O O3 0.000000 0.698910 0.268541
O O4 0.856657 0.822414 0.299270
O O5 0.649561 0.786615 0.597377
O O6 0.761778 0.923667 0.660101
O O7 0.650082 0.708615 0.693858
O O8 0.606415 0.999811 0.664411
O O9 0.500000 0.762674 0.556548
O O10 0.630640 0.757226 0.497032
O O11 0.601309 0.510476 0.555257
O O12 0.863418 0.247065 0.892857
O O13 0.000000 0.251283 0.842423
O O14 0.000000 0.258898 0.944450
O O15 0.750000 0.000933 0.750000
O O16 0.617517 0.852401 0.777478
O O17 0.000000 0.677492 0.767472
#
# Coordination Sequence:
#
# PCOD9414198 Si02
#       7
#     8   8   8   8   8   8   8
#     4  10  19  32  50  64  86 123 158 196 232 269
#     4  11  20  29  41  66  93 123 154 191 234 279
#     4   9  16  29  45  61  90 125 164 200 225 264
#     4  10  17  27  43  64  88 117 158 193 222 263
#     4   8  16  28  43  65  87 119 166 205 226 255
#     4  10  20  32  42  65  93 118 154 192 232 279
#     4  10  19  32  49  65  82 117 161 195 231 270
#
# _framework density 16.275264
#
# number of rings (size 3 to 8) (size 9 to 14) (size 15 to 20)
#    0.000    2.286    2.857    3.429    0.000    4.571 
#    2.571    2.143    0.000    0.000    0.000    0.000 
#    0.000    0.000    0.000   20.571    0.000    0.571 
#
# Total GULP energy -311907.952689 kJ/mol
# GULP energy per Si atom -5569.784869 kJ/mol
# Density = 1.623822 g / cm^3
# Si number density = 16.275264 Si / 1000 Ang^3
#
#
#
# Elastic Constant Matrix: (Units=GPa)
#
#
# Indices 1 2 3 4 5 6 
#
# 1 33.3926 19.1012 19.0871 0.0000 0.0000 0.0000
# 2 19.1012 70.3959 8.3653 0.0000 0.0000 0.0000
# 3 19.0871 8.3653 59.7052 0.0000 0.0000 0.0000
# 4 0.0000 0.0000 0.0000 22.9428 0.0000 0.0000
# 5 0.0000 0.0000 0.0000 0.0000 17.7035 0.0000
# 6 0.0000 0.0000 0.0000 0.0000 0.0000 6.1373
#
#
#
# Elastic Compliance Matrix: (Units=1/GPa)
#
#
# Indices 1 2 3 4 5 6 
#
# 1 0.042749 -0.010144 -0.012245 0.000000 0.000000 0.000000
# 2 -0.010144 0.016853 0.000882 0.000000 0.000000 0.000000
# 3 -0.012245 0.000882 0.020540 0.000000 0.000000 0.000000
# 4 0.000000 0.000000 0.000000 0.043587 0.000000 0.000000
# 5 0.000000 0.000000 0.000000 0.000000 0.056486 0.000000
# 6 0.000000 0.000000 0.000000 0.000000 0.000000 0.162938
#
#
# Mechanical properties :
#
#
# Convention : Reuss Voigt Hill
#
# Bulk Modulus (GPa) = 26.93477 28.51120 27.72299
# Shear Modulus (GPa) = 12.54568 17.15273 14.84921
#
# Velocity S-wave (km/s) = 2.77942 3.24993 3.02384
# Velocity P-wave (km/s) = 5.18514 5.62484 5.40946
#
# Compressibility (1/GPa) = 0.03712673
#
# Stress axis : x y z
#
# Youngs Moduli (GPa) = 23.39256 59.33616 48.68547
#
# Poissons Ratio (x) = 0.60192 0.59615
# Poissons Ratio (y) = 0.23730 -0.04293
# Poissons Ratio (z) = 0.28644 -0.05232
#
# Static dielectric constant tensor:
#      x y z
#    x 1.560530 0.000000 0.000000 
#    y 0.000000 1.601000 0.000000 
#    z 0.000000 0.000000 1.577840 
# 
# From -- ./inp_files/38918.got.cif
#   From: 2010.05.17/outbox.cif.g08.bks.cpg/sg53_20_cif.got.tgz:38918.got - 2010.06.03 12:45:16.
