data_PCOD9414665
_publ_section_title
;
Structure prediction by ZEFSAII (Michael W. Deem and Ramdas Pophale) SiO2 
 PCOD9414665
Probable space group: P M N A
;
_chemical_formula_sum "Si O2"
_cell_formula_units_Z 60
_cell_length_a 18.417619
_cell_length_b 5.446391
_cell_length_c 26.066056
_cell_angle_alpha 90.000000
_cell_angle_beta 90.000000
_cell_angle_gamma 90.000000
_cell_volume 2614.674461
_symmetry_space_group_name_H-M "P M N A"
_symmetry_group_IT_number 53
_symmetry_cell_setting 'orthorhombic'
loop_
_space_group_symop_operation_xyz
x,y,z
1/2-x,-y,1/2+z
x,-y,-z
1/2-x,y,1/2-z
-x,-y,-z
1/2+x,y,1/2-z
-x,y,z
1/2+x,-y,1/2+z
loop_
_atom_site_type_symbol
_atom_site_label
_atom_site_fract_x
_atom_site_fract_y
_atom_site_fract_z
Si Si1 0.919718 0.286060 0.935355
Si Si2 0.580079 0.306593 0.148232
Si Si3 0.112263 0.211870 0.125402
Si Si4 0.652306 0.703432 0.198643
Si Si5 0.896385 0.915771 0.762756
Si Si6 0.221915 0.957582 0.622186
Si Si7 0.738847 0.745900 0.472228
Si Si8 0.250000 0.318470 0.250000
O O1 0.909220 0.527315 0.899344
O O2 0.848816 0.275453 0.971064
O O3 0.000000 0.297819 0.959272
O O4 0.914594 0.029202 0.904805
O O5 0.500000 0.260363 0.127064
O O6 0.596300 0.593799 0.157948
O O7 0.579059 0.202268 0.208175
O O8 0.647714 0.200291 0.115450
O O9 0.077598 0.175157 0.182257
O O10 0.201493 0.186983 0.120852
O O11 0.710185 0.494873 0.210242
O O12 0.608367 0.795827 0.248720
O O13 0.699914 0.921011 0.176060
O O14 0.813942 0.838539 0.771311
O O15 0.233337 0.191618 0.584747
O O16 0.766367 0.500000 0.500000
O O17 0.758218 0.000000 0.500000
#
# Coordination Sequence:
#
# PCOD9414665 Si02
#       8
#     8   8   8   8   8   8   8   4
#     4  11  26  44  65  98 140 179 215 260 332 401
#     4  10  23  39  60  90 129 175 223 272 335 395
#     4  11  23  39  67  97 135 185 231 268 313 375
#     4  10  20  34  58  87 121 170 222 273 328 383
#     4  10  21  34  52  87 127 173 225 274 306 368
#     4  10  23  40  67  92 130 164 220 280 333 403
#     4  11  25  44  74 106 127 162 219 282 345 412
#     4  10  18  30  54  84 120 158 220 268 322 362
#
# _framework density 22.947406999999998
#
# number of rings (size 3 to 8) (size 9 to 14) (size 15 to 20)
#    0.000    1.600    0.000    5.600   13.067    3.733 
#    0.000    0.000    0.000    0.800    0.000    0.000 
#    0.000    0.000    0.000    0.000    0.000    0.000 
#
# Total GULP energy -334272.060608 kJ/mol
# GULP energy per Si atom -5571.201010 kJ/mol
# Density = 2.289518 g / cm^3
# Si number density = 22.947407 Si / 1000 Ang^3
#
#
#
# Elastic Constant Matrix: (Units=GPa)
#
#
# Indices 1 2 3 4 5 6 
#
# 1 144.7047 18.6893 -13.3442 0.0000 0.0000 0.0000
# 2 18.6893 106.7605 5.3711 0.0000 0.0000 0.0000
# 3 -13.3442 5.3711 23.4008 0.0000 0.0000 0.0000
# 4 0.0000 0.0000 0.0000 13.6377 0.0000 0.0000
# 5 0.0000 0.0000 0.0000 0.0000 7.8792 0.0000
# 6 0.0000 0.0000 0.0000 0.0000 0.0000 3.6226
#
#
#
# Elastic Compliance Matrix: (Units=1/GPa)
#
#
# Indices 1 2 3 4 5 6 
#
# 1 0.007541 -0.001554 0.004657 0.000000 0.000000 0.000000
# 2 -0.001554 0.009797 -0.003135 0.000000 0.000000 0.000000
# 3 0.004657 -0.003135 0.046109 0.000000 0.000000 0.000000
# 4 0.000000 0.000000 0.000000 0.073326 0.000000 0.000000
# 5 0.000000 0.000000 0.000000 0.000000 0.126917 0.000000
# 6 0.000000 0.000000 0.000000 0.000000 0.000000 0.276041
#
#
# Mechanical properties :
#
#
# Convention : Reuss Voigt Hill
#
# Bulk Modulus (GPa) = 15.77751 32.92205 24.34978
# Shear Modulus (GPa) = 8.91389 22.63789 15.77589
#
# Velocity S-wave (km/s) = 1.97305 3.14429 2.62483
# Velocity P-wave (km/s) = 3.47577 5.24976 4.45202
#
# Compressibility (1/GPa) = 0.06338134
#
# Stress axis : x y z
#
# Youngs Moduli (GPa) = 132.61149 102.07643 21.68785
#
# Poissons Ratio (x) = 0.15866 -0.10100
# Poissons Ratio (y) = 0.20613 0.06799
# Poissons Ratio (z) = -0.61756 0.32000
#
# Static dielectric constant tensor:
#      x y z
#    x -2.705280 0.000000 0.000000 
#    y 0.000000 1.924620 0.000000 
#    z 0.000000 0.000000 2.185630 
# 
# From -- ./inp_files/37167.got.cif
#   From: 2010.05.17/outbox.cif.g08.bks.cpg/sg53_19_cif.got.tgz:37167.got - 2010.06.03 12:45:16.
