data_PCOD9414473
_publ_section_title
;
Structure prediction by ZEFSAII (Michael W. Deem and Ramdas Pophale) SiO2 
 PCOD9414473
Probable space group: P M N A
;
_chemical_formula_sum "Si O2"
_cell_formula_units_Z 64
_cell_length_a 8.901094
_cell_length_b 17.688945
_cell_length_c 27.117930
_cell_angle_alpha 90.000000
_cell_angle_beta 90.000000
_cell_angle_gamma 90.000000
_cell_volume 4269.744172
_symmetry_space_group_name_H-M "P M N A"
_symmetry_group_IT_number 53
_symmetry_cell_setting 'orthorhombic'
loop_
_space_group_symop_operation_xyz
x,y,z
1/2-x,-y,1/2+z
x,-y,-z
1/2-x,y,1/2-z
-x,-y,-z
1/2+x,y,1/2-z
-x,y,z
1/2+x,-y,1/2+z
loop_
_atom_site_type_symbol
_atom_site_label
_atom_site_fract_x
_atom_site_fract_y
_atom_site_fract_z
Si Si1 0.680051 0.590418 0.196508
Si Si2 0.820475 0.336425 0.063390
Si Si3 0.674885 0.405470 0.542531
Si Si4 0.317839 0.178835 0.038354
Si Si5 0.175308 0.284364 0.869742
Si Si6 0.182147 0.852105 0.423954
Si Si7 0.174222 0.015944 0.441070
Si Si8 0.821539 0.526011 0.610452
O O1 0.750000 0.578785 0.250000
O O2 0.500000 0.593663 0.199073
O O3 0.742125 0.667737 0.172430
O O4 0.721575 0.522429 0.158865
O O5 0.749140 0.253479 0.062519
O O6 0.758396 0.393667 0.104320
O O7 0.000000 0.331224 0.065842
O O8 0.780203 0.374625 0.010647
O O9 0.500000 0.429746 0.540715
O O10 0.685834 0.337108 0.581499
O O11 0.771724 0.473214 0.564623
O O12 0.500000 0.180314 0.040597
O O13 0.262724 0.100441 0.063427
O O14 0.278194 0.174153 0.979926
O O15 0.250331 0.205582 0.884768
O O16 0.000000 0.275059 0.857672
O O17 0.000000 0.851606 0.421468
O O18 0.237190 0.938891 0.417953
O O19 0.000000 0.020133 0.425398
O O20 0.173350 0.000000 0.500000
O O21 0.000000 0.535835 0.610133
#
# Coordination Sequence:
#
# PCOD9414473 Si02
#       8
#     8   8   8   8   8   8   8   8
#     4  10  21  37  54  70  88 111 142 182 228 274
#     4  11  20  29  41  60  89 121 152 185 223 262
#     4   9  18  30  41  57  86 120 149 180 219 259
#     4   9  16  26  41  59  84 120 158 192 224 256
#     4  10  18  29  45  66  92 120 150 183 222 266
#     4   9  15  25  42  62  86 116 154 192 222 258
#     4   7  12  23  38  57  81 114 153 189 222 254
#     4  10  21  33  46  65  84 108 146 184 219 265
#
# _framework density 14.989188
#
# number of rings (size 3 to 8) (size 9 to 14) (size 15 to 20)
#    0.000    2.625    1.250    3.375    0.000    4.500 
#    0.000    0.625    0.000    2.250    0.000    0.000 
#    0.000    1.000    0.000    6.500    0.000    4.875 
#
# Total GULP energy -356545.340757 kJ/mol
# GULP energy per Si atom -5571.020949 kJ/mol
# Density = 1.495507 g / cm^3
# Si number density = 14.989188 Si / 1000 Ang^3
#
#
#
# Elastic Constant Matrix: (Units=GPa)
#
#
# Indices 1 2 3 4 5 6 
#
# 1 31.4578 45.2476 22.8046 0.0000 0.0000 0.0000
# 2 45.2476 150.4141 47.3199 0.0000 0.0000 0.0000
# 3 22.8046 47.3199 51.2889 0.0000 0.0000 0.0000
# 4 0.0000 0.0000 0.0000 11.3351 0.0000 0.0000
# 5 0.0000 0.0000 0.0000 0.0000 15.2812 0.0000
# 6 0.0000 0.0000 0.0000 0.0000 0.0000 -25.2587
#
#
#
# Elastic Compliance Matrix: (Units=1/GPa)
#
#
# Indices 1 2 3 4 5 6 
#
# 1 0.063176 -0.014326 -0.014873 0.000000 0.000000 0.000000
# 2 -0.014326 0.012616 -0.005270 0.000000 0.000000 0.000000
# 3 -0.014873 -0.005270 0.030972 0.000000 0.000000 0.000000
# 4 0.000000 0.000000 0.000000 0.088222 0.000000 0.000000
# 5 0.000000 0.000000 0.000000 0.000000 0.065440 0.000000
# 6 0.000000 0.000000 0.000000 0.000000 0.000000 -0.039590
#
#
# Mechanical properties :
#
#
# Convention : Reuss Voigt Hill
#
# Bulk Modulus (GPa) = 26.43601 51.54502 38.99052
# Shear Modulus (GPa) = 16.53548 8.12408 12.32978
#
# Velocity S-wave (km/s) = 3.32499 2.33061 2.87117
# Velocity P-wave (km/s) = 5.69348 6.45795 6.08773
#
# Compressibility (1/GPa) = 0.03782719
#
# Stress axis : x y z
#
# Youngs Moduli (GPa) = 15.82891 79.26698 32.28698
#
# Poissons Ratio (x) = 1.13554 0.48020
# Poissons Ratio (y) = 0.22676 0.17014
# Poissons Ratio (z) = 0.23542 0.41772
#
# Static dielectric constant tensor:
#      x y z
#    x 1.499790 0.000000 0.000000 
#    y 0.000000 1.526160 0.000000 
#    z 0.000000 0.000000 1.469390 
# 
# From -- ./inp_files/34534.got.cif
#   From: 2010.05.17/outbox.cif.g08.bks.cpg/sg53_18_cif.got.tgz:34534.got - 2010.06.03 12:45:16.
