data_PCOD9414787
_publ_section_title
;
Structure prediction by ZEFSAII (Michael W. Deem and Ramdas Pophale) SiO2 
 PCOD9414787
Probable space group: P M N A
;
_chemical_formula_sum "Si O2"
_cell_formula_units_Z 32
_cell_length_a 15.558760
_cell_length_b 11.136884
_cell_length_c 7.556353
_cell_angle_alpha 90.000000
_cell_angle_beta 90.000000
_cell_angle_gamma 90.000000
_cell_volume 1309.335418
_symmetry_space_group_name_H-M "P M N A"
_symmetry_group_IT_number 53
_symmetry_cell_setting 'orthorhombic'
loop_
_space_group_symop_operation_xyz
x,y,z
1/2-x,-y,1/2+z
x,-y,-z
1/2-x,y,1/2-z
-x,-y,-z
1/2+x,y,1/2-z
-x,y,z
1/2+x,-y,1/2+z
loop_
_atom_site_type_symbol
_atom_site_label
_atom_site_fract_x
_atom_site_fract_y
_atom_site_fract_z
Si Si1 0.092962 0.294382 0.952863
Si Si2 0.904588 0.812783 0.645688
Si Si3 0.773105 0.625508 0.543861
Si Si4 0.346597 0.056957 0.695324
O O1 0.094706 0.246906 0.156960
O O2 0.183453 0.363823 0.936023
O O3 0.000000 0.354876 0.923788
O O4 0.099380 0.177148 0.829848
O O5 0.833406 0.742091 0.533260
O O6 0.000000 0.800207 0.572191
O O7 0.882374 0.951367 0.681137
O O8 0.818131 0.500000 0.500000
O O9 0.750000 0.619354 0.750000
O O10 0.250000 0.084967 0.750000
O O11 0.343271 0.000000 0.500000
#
# Coordination Sequence:
#
# PCOD9414787 Si02
#       4
#     8   8   8   8
#     4   9  18  33  55  82 110 145 189 233 279 334
#     4   9  17  32  55  83 113 146 187 232 281 336
#     4  10  21  37  57  81 112 151 193 236 279 329
#     4  10  18  31  55  84 115 149 183 228 285 340
#
# _framework density 24.439876000000002
#
# number of rings (size 3 to 8) (size 9 to 14) (size 15 to 20)
#    0.000    2.500    0.000    4.500    0.000    5.000 
#    0.000    0.000    0.000   19.500    0.000    0.000 
#    0.000    0.000    0.000    0.000    0.000    0.000 
#
# Total GULP energy -178964.828391 kJ/mol
# GULP energy per Si atom -5592.650887 kJ/mol
# Density = 2.438425 g / cm^3
# Si number density = 24.439876 Si / 1000 Ang^3
#
#
#
# Elastic Constant Matrix: (Units=GPa)
#
#
# Indices 1 2 3 4 5 6 
#
# 1 150.3663 53.7470 24.9687 0.0000 0.0000 0.0000
# 2 53.7470 100.3819 33.0553 0.0000 0.0000 0.0000
# 3 24.9687 33.0553 70.0878 0.0000 0.0000 0.0000
# 4 0.0000 0.0000 0.0000 32.1378 0.0000 0.0000
# 5 0.0000 0.0000 0.0000 0.0000 1.4189 0.0000
# 6 0.0000 0.0000 0.0000 0.0000 0.0000 -2.0754
#
#
#
# Elastic Compliance Matrix: (Units=1/GPa)
#
#
# Indices 1 2 3 4 5 6 
#
# 1 0.008285 -0.004101 -0.001017 0.000000 0.000000 0.000000
# 2 -0.004101 0.013824 -0.005059 0.000000 0.000000 0.000000
# 3 -0.001017 -0.005059 0.017016 0.000000 0.000000 0.000000
# 4 0.000000 0.000000 0.000000 0.031116 0.000000 0.000000
# 5 0.000000 0.000000 0.000000 0.000000 0.704789 0.000000
# 6 0.000000 0.000000 0.000000 0.000000 0.000000 -0.481831
#
#
# Mechanical properties :
#
#
# Convention : Reuss Voigt Hill
#
# Bulk Modulus (GPa) = 53.27456 60.48644 56.88050
# Shear Modulus (GPa) = 15.63430 20.23391 17.93411
#
# Velocity S-wave (km/s) = 2.53198 2.88046 2.71182
# Velocity P-wave (km/s) = 5.51303 5.98878 5.75582
#
# Compressibility (1/GPa) = 0.01877068
#
# Stress axis : x y z
#
# Youngs Moduli (GPa) = 120.69602 72.34030 58.76821
#
# Poissons Ratio (x) = 0.29668 0.05979
# Poissons Ratio (y) = 0.49499 0.29728
# Poissons Ratio (z) = 0.12280 0.36594
#
# Static dielectric constant tensor:
#      x y z
#    x 1.933690 0.000000 0.000000 
#    y 0.000000 1.928480 0.000000 
#    z 0.000000 0.000000 1.958730 
# 
# From -- ./inp_files/8012.got.cif
#   From: 2010.05.17/outbox.cif.g08.bks.cpg/sg53_5_cif.got.tgz:8012.got - 2010.06.03 12:45:16.
