data_PCOD9414905
_publ_section_title
;
Structure prediction by ZEFSAII (Michael W. Deem and Ramdas Pophale) SiO2 
 PCOD9414905
Probable space group: P M N A
;
_chemical_formula_sum "Si O2"
_cell_formula_units_Z 48
_cell_length_a 14.185417
_cell_length_b 9.115426
_cell_length_c 16.804568
_cell_angle_alpha 90.000000
_cell_angle_beta 90.000000
_cell_angle_gamma 90.000000
_cell_volume 2172.933469
_symmetry_space_group_name_H-M "P M N A"
_symmetry_group_IT_number 53
_symmetry_cell_setting 'orthorhombic'
loop_
_space_group_symop_operation_xyz
x,y,z
1/2-x,-y,1/2+z
x,-y,-z
1/2-x,y,1/2-z
-x,-y,-z
1/2+x,y,1/2-z
-x,y,z
1/2+x,-y,1/2+z
loop_
_atom_site_type_symbol
_atom_site_label
_atom_site_fract_x
_atom_site_fract_y
_atom_site_fract_z
Si Si1 0.896096 0.882666 0.429589
Si Si2 0.892986 0.107927 0.074886
Si Si3 0.107327 0.564861 0.379070
Si Si4 0.729107 0.660355 0.658524
Si Si5 0.790127 0.894436 0.163455
Si Si6 0.607447 0.385293 0.693632
O O1 0.882514 0.704682 0.438230
O O2 0.800161 0.931460 0.388441
O O3 0.000000 0.891446 0.388127
O O4 0.903527 0.000000 0.500000
O O5 0.813345 0.227478 0.094225
O O6 0.000000 0.164974 0.069130
O O7 0.878668 0.998681 0.149019
O O8 0.875901 0.000000 0.000000
O O9 0.183007 0.433426 0.376295
O O10 0.115415 0.633188 0.289350
O O11 0.000000 0.508356 0.387718
O O12 0.750000 0.717743 0.750000
O O13 0.645586 0.544875 0.674522
O O14 0.750000 0.906587 0.250000
O O15 0.826446 0.730447 0.150251
O O16 0.500000 0.365413 0.670231
#
# Coordination Sequence:
#
# PCOD9414905 Si02
#       6
#     8   8   8   8   8   8
#     4  10  20  35  59  95 139 179 216 266 334 410
#     4  11  26  45  63  90 135 180 223 277 338 406
#     4   9  17  33  61 102 137 166 216 278 337 397
#     4  10  19  39  66 102 132 172 223 276 341 394
#     4  12  21  38  63  97 127 171 227 278 337 392
#     4  10  18  32  62 100 133 164 216 281 338 397
#
# _framework density 22.089953000000001
#
# number of rings (size 3 to 8) (size 9 to 14) (size 15 to 20)
#    0.000    1.667    3.333    2.500    0.000    1.333 
#    0.000    1.667    0.000    4.500    0.000    5.833 
#    0.000    0.000    0.000    0.000    0.000    0.000 
#
# Total GULP energy -267542.239764 kJ/mol
# GULP energy per Si atom -5573.796662 kJ/mol
# Density = 2.203967 g / cm^3
# Si number density = 22.089953 Si / 1000 Ang^3
#
#
#
# Elastic Constant Matrix: (Units=GPa)
#
#
# Indices 1 2 3 4 5 6 
#
# 1 171.5431 58.0371 54.5062 0.0000 0.0000 0.0000
# 2 58.0371 96.9294 36.8415 0.0000 0.0000 0.0000
# 3 54.5062 36.8415 39.1093 0.0000 0.0000 0.0000
# 4 0.0000 0.0000 0.0000 31.3933 0.0000 0.0000
# 5 0.0000 0.0000 0.0000 0.0000 24.3772 0.0000
# 6 0.0000 0.0000 0.0000 0.0000 0.0000 -3.2474
#
#
#
# Elastic Compliance Matrix: (Units=1/GPa)
#
#
# Indices 1 2 3 4 5 6 
#
# 1 0.010542 -0.001134 -0.013624 0.000000 0.000000 0.000000
# 2 -0.001134 0.016193 -0.013674 0.000000 0.000000 0.000000
# 3 -0.013624 -0.013674 0.057438 0.000000 0.000000 0.000000
# 4 0.000000 0.000000 0.000000 0.031854 0.000000 0.000000
# 5 0.000000 0.000000 0.000000 0.000000 0.041022 0.000000
# 6 0.000000 0.000000 0.000000 0.000000 0.000000 -0.307937
#
#
# Mechanical properties :
#
#
# Convention : Reuss Voigt Hill
#
# Bulk Modulus (GPa) = 36.61728 67.37238 51.99483
# Shear Modulus (GPa) = -58.87864 21.05108 -18.91378
#
# Velocity S-wave (km/s) = -5.16836 3.09037 -2.92929
# Velocity P-wave (km/s) = 4.35929 6.58021 3.48538
#
# Compressibility (1/GPa) = 0.02730951
#
# Stress axis : x y z
#
# Youngs Moduli (GPa) = 94.85879 61.75572 17.40993
#
# Poissons Ratio (x) = 0.07001 0.23720
# Poissons Ratio (y) = 0.10754 0.23806
# Poissons Ratio (z) = 1.29239 0.84444
#
# Static dielectric constant tensor:
#      x y z
#    x 1.827810 0.000000 0.000000 
#    y 0.000000 1.853930 0.000000 
#    z 0.000000 0.000000 1.858590 
# 
# From -- ./inp_files/28275.got.cif
#   From: 2010.05.17/outbox.cif.g08.bks.cpg/sg53_15_cif.got.tgz:28275.got - 2010.06.03 12:45:16.
