data_PCOD9414412
_publ_section_title
;
Structure prediction by ZEFSAII (Michael W. Deem and Ramdas Pophale) SiO2 
 PCOD9414412
Probable space group: P M N A
;
_chemical_formula_sum "Si O2"
_cell_formula_units_Z 64
_cell_length_a 7.645680
_cell_length_b 14.691638
_cell_length_c 30.856121
_cell_angle_alpha 90.000000
_cell_angle_beta 90.000000
_cell_angle_gamma 90.000000
_cell_volume 3465.992870
_symmetry_space_group_name_H-M "P M N A"
_symmetry_group_IT_number 53
_symmetry_cell_setting 'orthorhombic'
loop_
_space_group_symop_operation_xyz
x,y,z
1/2-x,-y,1/2+z
x,-y,-z
1/2-x,y,1/2-z
-x,-y,-z
1/2+x,y,1/2-z
-x,y,z
1/2+x,-y,1/2+z
loop_
_atom_site_type_symbol
_atom_site_label
_atom_site_fract_x
_atom_site_fract_y
_atom_site_fract_z
Si Si1 0.793402 0.015192 0.700074
Si Si2 0.202322 0.332819 0.587745
Si Si3 0.211063 0.708034 0.918714
Si Si4 0.286114 0.834325 0.137085
Si Si5 0.703178 0.480737 0.452069
Si Si6 0.709840 0.118550 0.377184
Si Si7 0.211106 0.802760 0.010100
Si Si8 0.797394 0.030757 0.941214
O O1 0.750000 0.001459 0.750000
O O2 0.729132 0.111659 0.680032
O O3 0.000000 0.019325 0.696815
O O4 0.739335 0.934432 0.667544
O O5 0.268992 0.269045 0.627014
O O6 0.290886 0.427309 0.575607
O O7 0.216572 0.266990 0.545784
O O8 0.000000 0.353954 0.595646
O O9 0.279072 0.606073 0.926576
O O10 0.274452 0.777926 0.881783
O O11 0.000000 0.700986 0.912964
O O12 0.247239 0.761796 0.963364
O O13 0.500000 0.835311 0.133902
O O14 0.211928 0.895806 0.098112
O O15 0.781256 0.500000 0.500000
O O16 0.500000 0.456478 0.460473
O O17 0.500000 0.120026 0.383049
O O18 0.781637 0.056754 0.417093
O O19 0.272913 0.906314 0.019582
O O20 0.000000 0.803986 0.014997
O O21 0.000000 0.008925 0.951066
#
# Coordination Sequence:
#
# PCOD9414412 Si02
#       8
#     8   8   8   8   8   8   8   8
#     4  10  19  33  53  75  97 120 144 175 221 278
#     4  10  18  28  43  64  89 118 154 197 237 270
#     4   9  17  28  43  61  87 123 161 198 232 265
#     4   8  16  29  44  64  92 120 143 175 225 277
#     4  10  18  30  45  61  86 124 166 203 237 269
#     4   9  17  30  45  66  93 120 152 190 228 270
#     4   9  15  26  41  59  84 120 158 191 229 268
#     4   8  14  23  40  62  85 114 152 190 221 260
#
# _framework density 18.465126000000001
#
# number of rings (size 3 to 8) (size 9 to 14) (size 15 to 20)
#    0.000    2.875    1.250    0.750    0.000    1.750 
#    0.000    3.750    0.000    0.000    0.000    9.625 
#    0.000    4.000    0.000    0.000    0.000    0.000 
#
# Total GULP energy -356380.820455 kJ/mol
# GULP energy per Si atom -5568.450320 kJ/mol
# Density = 1.842310 g / cm^3
# Si number density = 18.465126 Si / 1000 Ang^3
#
#
#
# Elastic Constant Matrix: (Units=GPa)
#
#
# Indices 1 2 3 4 5 6 
#
# 1 33.8404 4.3715 1.6386 0.0000 0.0000 0.0000
# 2 4.3715 151.9273 49.5498 0.0000 0.0000 0.0000
# 3 1.6386 49.5498 71.5049 0.0000 0.0000 0.0000
# 4 0.0000 0.0000 0.0000 19.8159 0.0000 0.0000
# 5 0.0000 0.0000 0.0000 0.0000 2.1716 0.0000
# 6 0.0000 0.0000 0.0000 0.0000 0.0000 16.6385
#
#
#
# Elastic Compliance Matrix: (Units=1/GPa)
#
#
# Indices 1 2 3 4 5 6 
#
# 1 0.029661 -0.000816 -0.000114 0.000000 0.000000 0.000000
# 2 -0.000816 0.008526 -0.005890 0.000000 0.000000 0.000000
# 3 -0.000114 -0.005890 0.018069 0.000000 0.000000 0.000000
# 4 0.000000 0.000000 0.000000 0.050464 0.000000 0.000000
# 5 0.000000 0.000000 0.000000 0.000000 0.460495 0.000000
# 6 0.000000 0.000000 0.000000 0.000000 0.000000 0.060102
#
#
# Mechanical properties :
#
#
# Convention : Reuss Voigt Hill
#
# Bulk Modulus (GPa) = 23.46496 40.93248 32.19872
# Shear Modulus (GPa) = 7.63168 21.17271 14.40219
#
# Velocity S-wave (km/s) = 2.03519 3.38987 2.79582
# Velocity P-wave (km/s) = 4.27293 6.12676 5.28182
#
# Compressibility (1/GPa) = 0.04261673
#
# Stress axis : x y z
#
# Youngs Moduli (GPa) = 33.71382 117.28158 55.34326
#
# Poissons Ratio (x) = 0.09573 0.00631
# Poissons Ratio (y) = 0.02752 0.32596
# Poissons Ratio (z) = 0.00385 0.69076
#
# Static dielectric constant tensor:
#      x y z
#    x 1.722880 0.000000 0.000000 
#    y 0.000000 1.698780 0.000000 
#    z 0.000000 0.000000 1.586220 
# 
# From -- ./inp_files/38425.got.cif
#   From: 2010.05.17/outbox.cif.g08.bks.cpg/sg53_20_cif.got.tgz:38425.got - 2010.06.03 12:45:16.
