data_PCOD9414806
_publ_section_title
;
Structure prediction by ZEFSAII (Michael W. Deem and Ramdas Pophale) SiO2 
 PCOD9414806
Probable space group: P M N A
;
_chemical_formula_sum "Si O2"
_cell_formula_units_Z 44
_cell_length_a 9.609527
_cell_length_b 10.297096
_cell_length_c 25.591469
_cell_angle_alpha 90.000000
_cell_angle_beta 90.000000
_cell_angle_gamma 90.000000
_cell_volume 2532.281540
_symmetry_space_group_name_H-M "P M N A"
_symmetry_group_IT_number 53
_symmetry_cell_setting 'orthorhombic'
loop_
_space_group_symop_operation_xyz
x,y,z
1/2-x,-y,1/2+z
x,-y,-z
1/2-x,y,1/2-z
-x,-y,-z
1/2+x,y,1/2-z
-x,y,z
1/2+x,-y,1/2+z
loop_
_atom_site_type_symbol
_atom_site_label
_atom_site_fract_x
_atom_site_fract_y
_atom_site_fract_z
Si Si1 0.837141 0.631109 0.385882
Si Si2 0.832780 0.849585 0.303687
Si Si3 0.157991 0.291837 0.985679
Si Si4 0.264494 0.000000 0.500000
Si Si5 0.836997 0.063414 0.386115
Si Si6 0.834270 0.344365 0.413531
O O1 0.810305 0.714107 0.334174
O O2 0.738923 0.679904 0.432298
O O3 0.817508 0.476538 0.381449
O O4 0.000000 0.654153 0.400401
O O5 0.750000 0.855558 0.250000
O O6 0.000000 0.862521 0.295314
O O7 0.781194 0.962140 0.343743
O O8 0.000000 0.339666 0.984527
O O9 0.156422 0.136199 0.994900
O O10 0.247239 0.352174 0.033031
O O11 0.181653 0.986145 0.554449
O O12 0.785792 0.212137 0.385176
O O13 0.000000 0.069298 0.375365
O O14 0.000000 0.330781 0.425822
#
# Coordination Sequence:
#
# PCOD9414806 Si02
#       6
#     8   8   8   4   8   8
#     4  10  20  36  55  76 104 140 183 222 259 312
#     4  10  21  38  57  79 104 138 182 227 268 314
#     4  11  21  31  48  78 115 146 173 213 266 322
#     4  10  18  32  50  78 111 144 177 214 271 318
#     4   9  17  32  56  81 105 135 179 222 263 316
#     4   9  19  34  54  78 106 141 176 216 262 315
#
# _framework density 17.375634999999999
#
# number of rings (size 3 to 8) (size 9 to 14) (size 15 to 20)
#    0.000    2.182    1.818    1.636    0.000    5.091 
#    0.000    1.818    0.000    0.000    0.000    0.000 
#    0.000    0.000    0.000    0.000    0.000    0.000 
#
# Total GULP energy -245206.684320 kJ/mol
# GULP energy per Si atom -5572.879189 kJ/mol
# Density = 1.733609 g / cm^3
# Si number density = 17.375635 Si / 1000 Ang^3
#
#
#
# Elastic Constant Matrix: (Units=GPa)
#
#
# Indices 1 2 3 4 5 6 
#
# 1 40.0328 38.7755 40.1432 0.0000 0.0000 0.0000
# 2 38.7755 119.1161 72.9954 0.0000 0.0000 0.0000
# 3 40.1432 72.9954 126.5196 0.0000 0.0000 0.0000
# 4 0.0000 0.0000 0.0000 19.9398 0.0000 0.0000
# 5 0.0000 0.0000 0.0000 0.0000 -3.1159 0.0000
# 6 0.0000 0.0000 0.0000 0.0000 0.0000 4.6332
#
#
#
# Elastic Compliance Matrix: (Units=1/GPa)
#
#
# Indices 1 2 3 4 5 6 
#
# 1 0.041443 -0.008404 -0.008301 0.000000 0.000000 0.000000
# 2 -0.008404 0.014691 -0.005809 0.000000 0.000000 0.000000
# 3 -0.008301 -0.005809 0.013889 0.000000 0.000000 0.000000
# 4 0.000000 0.000000 0.000000 0.050151 0.000000 0.000000
# 5 0.000000 0.000000 0.000000 0.000000 -0.320937 0.000000
# 6 0.000000 0.000000 0.000000 0.000000 0.000000 0.215833
#
#
# Mechanical properties :
#
#
# Convention : Reuss Voigt Hill
#
# Bulk Modulus (GPa) = 40.00785 65.49964 52.75374
# Shear Modulus (GPa) = 73.06664 13.20840 43.13752
#
# Velocity S-wave (km/s) = 6.49173 2.76011 4.98802
# Velocity P-wave (km/s) = 8.90310 6.92356 7.97499
#
# Compressibility (1/GPa) = 0.02499509
#
# Stress axis : x y z
#
# Youngs Moduli (GPa) = 24.12939 68.06874 71.99755
#
# Poissons Ratio (x) = 0.57206 0.59763
# Poissons Ratio (y) = 0.20279 0.41827
# Poissons Ratio (z) = 0.20029 0.39544
#
# Static dielectric constant tensor:
#      x y z
#    x 1.587400 0.000000 0.000000 
#    y 0.000000 1.652820 0.000000 
#    z 0.000000 0.000000 1.549800 
# 
# From -- ./inp_files/33766.got.cif
#   From: 2010.05.17/outbox.cif.g08.bks.cpg/sg53_17_cif.got.tgz:33766.got - 2010.06.03 12:45:16.
