data_PCOD9414922
_publ_section_title
;
Structure prediction by ZEFSAII (Michael W. Deem and Ramdas Pophale) SiO2 
 PCOD9414922
Probable space group: P M N A
;
_chemical_formula_sum "Si O2"
_cell_formula_units_Z 56
_cell_length_a 23.112387
_cell_length_b 5.640569
_cell_length_c 17.240312
_cell_angle_alpha 90.000000
_cell_angle_beta 90.000000
_cell_angle_gamma 90.000000
_cell_volume 2247.567989
_symmetry_space_group_name_H-M "P M N A"
_symmetry_group_IT_number 53
_symmetry_cell_setting 'orthorhombic'
loop_
_space_group_symop_operation_xyz
x,y,z
1/2-x,-y,1/2+z
x,-y,-z
1/2-x,y,1/2-z
-x,-y,-z
1/2+x,y,1/2-z
-x,y,z
1/2+x,-y,1/2+z
loop_
_atom_site_type_symbol
_atom_site_label
_atom_site_fract_x
_atom_site_fract_y
_atom_site_fract_z
Si Si1 0.892379 0.250000 0.789405
Si Si2 0.363618 0.750000 0.758728
Si Si3 0.228343 0.750000 0.602293
Si Si4 0.432582 0.750000 0.895175
Si Si5 0.907324 0.750000 0.039610
Si Si6 0.730474 0.750000 0.431405
Si Si7 0.931886 0.750000 0.386460
O O1 0.859241 0.503294 0.786512
O O2 0.925865 0.250000 0.870321
O O3 0.923512 0.250000 0.705972
O O4 0.859241 0.996706 0.786512
O O5 0.321792 0.750000 0.833314
O O6 0.426385 0.750000 0.801570
O O7 0.257446 0.492344 0.614018
O O8 0.227735 0.750000 0.507573
O O9 0.257446 0.007656 0.614018
O O10 0.500000 0.750000 0.917042
O O11 0.407338 0.495714 0.918147
O O12 0.407338 0.004286 0.918147
O O13 0.836409 0.750000 0.041153
O O14 0.924767 0.500000 0.000000
O O15 0.924767 0.000000 0.000000
O O16 0.000000 0.750000 0.402246
#
# Coordination Sequence:
#
# PCOD9414922 Si02
#       7
#     8   8   8   8   8   8   8
#     4  10  21  33  50  78 102 126 160 201 256 290
#     4  10  19  33  49  78 109 122 150 209 258 285
#     4  10  18  33  54  72  96 126 163 209 235 285
#     4   8  14  25  44  68  97 131 157 179 227 296
#     4  12  21  38  57  68  92 131 177 207 230 292
#     4  10  19  35  53  69  87 131 181 197 224 293
#     4   8  14  27  46  67  96 128 155 188 232 290
#
# _framework density 24.915821000000001
#
# number of rings (size 3 to 8) (size 9 to 14) (size 15 to 20)
#    0.000    2.286    2.857    1.714    0.000    0.000 
#    0.000    4.286    0.000    0.857    0.000    4.000 
#    0.000    0.000    0.000    0.000    0.000    0.000 
#
# Total GULP energy -311759.717065 kJ/mol
# GULP energy per Si atom -5567.137805 kJ/mol
# Density = 2.485911 g / cm^3
# Si number density = 24.915821 Si / 1000 Ang^3
#
#
#
# Elastic Constant Matrix: (Units=GPa)
#
#
# Indices 1 2 3 4 5 6 
#
# 1 37.4359 22.1585 23.4427 0.0000 0.0000 0.0000
# 2 22.1585 345.2534 48.3786 0.0000 0.0000 0.0000
# 3 23.4427 48.3786 149.1493 0.0000 0.0000 0.0000
# 4 0.0000 0.0000 0.0000 8.4594 0.0000 0.0000
# 5 0.0000 0.0000 0.0000 0.0000 49.7753 0.0000
# 6 0.0000 0.0000 0.0000 0.0000 0.0000 23.9816
#
#
#
# Elastic Compliance Matrix: (Units=1/GPa)
#
#
# Indices 1 2 3 4 5 6 
#
# 1 0.030204 -0.001334 -0.004315 0.000000 0.000000 0.000000
# 2 -0.001334 0.003093 -0.000794 0.000000 0.000000 0.000000
# 3 -0.004315 -0.000794 0.007640 0.000000 0.000000 0.000000
# 4 0.000000 0.000000 0.000000 0.118211 0.000000 0.000000
# 5 0.000000 0.000000 0.000000 0.000000 0.020090 0.000000
# 6 0.000000 0.000000 0.000000 0.000000 0.000000 0.041699
#
#
# Mechanical properties :
#
#
# Convention : Reuss Voigt Hill
#
# Bulk Modulus (GPa) = 35.64701 79.97759 57.81230
# Shear Modulus (GPa) = 20.56150 45.63385 33.09768
#
# Velocity S-wave (km/s) = 2.87581 4.28427 3.64865
# Velocity P-wave (km/s) = 5.03638 7.52609 6.40341
#
# Compressibility (1/GPa) = 0.02805284
#
# Stress axis : x y z
#
# Youngs Moduli (GPa) = 33.10847 323.28481 130.88510
#
# Poissons Ratio (x) = 0.43123 0.56472
# Poissons Ratio (y) = 0.04416 0.10388
# Poissons Ratio (z) = 0.14285 0.25658
#
# Static dielectric constant tensor:
#      x y z
#    x 2.020360 0.000000 0.000000 
#    y 0.000000 2.034640 0.000000 
#    z 0.000000 0.000000 1.944910 
# 
# From -- ./inp_files/25132.got.cif
#   From: 2010.05.17/outbox.cif.g08.bks.cpg/sg53_13_cif.got.tgz:25132.got - 2010.06.03 12:45:16.
