data_PCOD9414867
_publ_section_title
;
Structure prediction by ZEFSAII (Michael W. Deem and Ramdas Pophale) SiO2 
 PCOD9414867
Probable space group: P M N A
;
_chemical_formula_sum "Si O2"
_cell_formula_units_Z 48
_cell_length_a 9.516477
_cell_length_b 9.864746
_cell_length_c 30.871049
_cell_angle_alpha 90.000000
_cell_angle_beta 90.000000
_cell_angle_gamma 90.000000
_cell_volume 2898.100867
_symmetry_space_group_name_H-M "P M N A"
_symmetry_group_IT_number 53
_symmetry_cell_setting 'orthorhombic'
loop_
_space_group_symop_operation_xyz
x,y,z
1/2-x,-y,1/2+z
x,-y,-z
1/2-x,y,1/2-z
-x,-y,-z
1/2+x,y,1/2-z
-x,y,z
1/2+x,-y,1/2+z
loop_
_atom_site_type_symbol
_atom_site_label
_atom_site_fract_x
_atom_site_fract_y
_atom_site_fract_z
Si Si1 0.664417 0.635038 0.528595
Si Si2 0.163248 0.855641 0.475741
Si Si3 0.329365 0.022167 0.886344
Si Si4 0.162271 0.030771 0.708791
Si Si5 0.661448 0.700407 0.791253
Si Si6 0.329933 0.703768 0.888859
O O1 0.674855 0.500000 0.500000
O O2 0.500000 0.664063 0.536531
O O3 0.738860 0.753328 0.501265
O O4 0.748582 0.625406 0.573737
O O5 0.000000 0.808154 0.475553
O O6 0.163537 0.000000 0.500000
O O7 0.212049 0.886004 0.426771
O O8 0.500000 0.022813 0.885106
O O9 0.281511 0.069003 0.838809
O O10 0.292112 0.864044 0.893459
O O11 0.250000 0.077635 0.750000
O O12 0.163894 0.865606 0.708639
O O13 0.000000 0.072672 0.712785
O O14 0.750000 0.654010 0.750000
O O15 0.500000 0.659008 0.785950
O O16 0.707632 0.660730 0.839759
O O17 0.500000 0.693443 0.893460
#
# Coordination Sequence:
#
# PCOD9414867 Si02
#       6
#     8   8   8   8   8   8
#     4  11  24  37  47  67 101 134 162 201 252 296
#     4  10  18  32  55  75  92 121 163 204 242 285
#     4   8  14  26  45  69  93 118 151 197 241 275
#     4   8  13  22  36  57  90 123 148 178 224 277
#     4   8  14  23  39  63  92 122 152 189 233 282
#     4   9  16  30  49  68  92 126 165 200 235 282
#
# _framework density 16.562570999999998
#
# number of rings (size 3 to 8) (size 9 to 14) (size 15 to 20)
#    0.000    3.000    1.667    2.500    0.000    2.333 
#    0.000    3.333    0.000    0.000    0.000    1.167 
#    0.000    2.667    0.000    0.000    0.000    0.000 
#
# Total GULP energy -267226.730257 kJ/mol
# GULP energy per Si atom -5567.223547 kJ/mol
# Density = 1.652487 g / cm^3
# Si number density = 16.562571 Si / 1000 Ang^3
#
#
#
# Elastic Constant Matrix: (Units=GPa)
#
#
# Indices 1 2 3 4 5 6 
#
# 1 64.2502 23.0401 69.4720 0.0000 0.0000 0.0000
# 2 23.0401 19.5398 20.3434 0.0000 0.0000 0.0000
# 3 69.4720 20.3434 179.1998 0.0000 0.0000 0.0000
# 4 0.0000 0.0000 0.0000 12.0269 0.0000 0.0000
# 5 0.0000 0.0000 0.0000 0.0000 29.3782 0.0000
# 6 0.0000 0.0000 0.0000 0.0000 0.0000 10.7839
#
#
#
# Elastic Compliance Matrix: (Units=1/GPa)
#
#
# Indices 1 2 3 4 5 6 
#
# 1 0.041683 -0.036659 -0.011998 0.000000 0.000000 0.000000
# 2 -0.036659 0.090277 0.003963 0.000000 0.000000 0.000000
# 3 -0.011998 0.003963 0.009782 0.000000 0.000000 0.000000
# 4 0.000000 0.000000 0.000000 0.083147 0.000000 0.000000
# 5 0.000000 0.000000 0.000000 0.000000 0.034039 0.000000
# 6 0.000000 0.000000 0.000000 0.000000 0.000000 0.092731
#
#
# Mechanical properties :
#
#
# Convention : Reuss Voigt Hill
#
# Bulk Modulus (GPa) = 19.10039 54.30009 36.70024
# Shear Modulus (GPa) = 10.90517 20.44674 15.67596
#
# Velocity S-wave (km/s) = 2.56876 3.51738 3.07981
# Velocity P-wave (km/s) = 4.51169 7.02509 5.90370
#
# Compressibility (1/GPa) = 0.05235496
#
# Stress axis : x y z
#
# Youngs Moduli (GPa) = 23.99044 11.07701 102.23015
#
# Poissons Ratio (x) = 0.40607 1.22657
# Poissons Ratio (y) = 0.87946 -0.40517
# Poissons Ratio (z) = 0.28784 -0.04390
#
# Static dielectric constant tensor:
#      x y z
#    x 1.553550 0.000000 0.000000 
#    y 0.000000 1.531960 0.000000 
#    z 0.000000 0.000000 1.600950 
# 
# From -- ./inp_files/37896.got.cif
#   From: 2010.05.17/outbox.cif.g08.bks.cpg/sg53_19_cif.got.tgz:37896.got - 2010.06.03 12:45:16.
