data_PCOD9414481
_publ_section_title
;
Structure prediction by ZEFSAII (Michael W. Deem and Ramdas Pophale) SiO2 
 PCOD9414481
Probable space group: P M N A
;
_chemical_formula_sum "Si O2"
_cell_formula_units_Z 56
_cell_length_a 7.431687
_cell_length_b 24.048217
_cell_length_c 14.638856
_cell_angle_alpha 90.000000
_cell_angle_beta 90.000000
_cell_angle_gamma 90.000000
_cell_volume 2616.239095
_symmetry_space_group_name_H-M "P M N A"
_symmetry_group_IT_number 53
_symmetry_cell_setting 'orthorhombic'
loop_
_space_group_symop_operation_xyz
x,y,z
1/2-x,-y,1/2+z
x,-y,-z
1/2-x,y,1/2-z
-x,-y,-z
1/2+x,y,1/2-z
-x,y,z
1/2+x,-y,1/2+z
loop_
_atom_site_type_symbol
_atom_site_label
_atom_site_fract_x
_atom_site_fract_y
_atom_site_fract_z
Si Si1 0.779925 0.302497 0.529664
Si Si2 0.220010 0.082620 0.545690
Si Si3 0.784414 0.804360 0.358353
Si Si4 0.712777 0.518485 0.894738
Si Si5 0.786019 0.401948 0.652857
Si Si6 0.714734 0.357779 0.145965
Si Si7 0.714758 0.968983 0.857483
O O1 0.716405 0.249797 0.587168
O O2 0.720684 0.360145 0.576478
O O3 0.722808 0.311094 0.425234
O O4 0.000000 0.300726 0.533570
O O5 0.281749 0.139468 0.592629
O O6 0.276433 0.072096 0.439918
O O7 0.000000 0.083065 0.545980
O O8 0.276729 0.030012 0.608131
O O9 0.750000 0.802823 0.250000
O O10 0.000000 0.804482 0.368029
O O11 0.500000 0.522013 0.872070
O O12 0.792196 0.464066 0.846324
O O13 0.786813 0.579582 0.873949
O O14 0.726329 0.500000 0.000000
O O15 0.750000 0.374829 0.750000
O O16 0.000000 0.407421 0.638398
O O17 0.750000 0.343661 0.250000
O O18 0.500000 0.361459 0.132272
O O19 0.750000 0.958038 0.750000
O O20 0.500000 0.969384 0.864482
#
# Coordination Sequence:
#
# PCOD9414481 Si02
#       7
#     8   8   8   8   8   8   8
#     4   9  18  32  50  68  90 121 156 185 222 279
#     4   8  16  30  48  69  98 132 162 191 235 288
#     4  10  19  33  52  73  95 124 158 193 232 278
#     4   9  15  27  48  67  86 116 151 182 219 274
#     4  10  18  29  46  68  90 115 145 181 224 271
#     4  10  19  33  51  69  89 119 156 191 228 275
#     4   9  16  29  48  71  98 130 163 197 235 278
#
# _framework density 21.404772999999999
#
# number of rings (size 3 to 8) (size 9 to 14) (size 15 to 20)
#    0.000    2.714    1.429    2.143    0.000    0.000 
#    0.000    4.286    0.000    0.857    0.000    0.000 
#    0.000    0.000    0.000    0.000    0.000    0.000 
#
# Total GULP energy -312235.013671 kJ/mol
# GULP energy per Si atom -5575.625244 kJ/mol
# Density = 2.135605 g / cm^3
# Si number density = 21.404773 Si / 1000 Ang^3
#
#
#
# Elastic Constant Matrix: (Units=GPa)
#
#
# Indices 1 2 3 4 5 6 
#
# 1 66.5962 8.1298 -0.1571 0.0000 0.0000 0.0000
# 2 8.1298 136.7408 110.7095 0.0000 0.0000 0.0000
# 3 -0.1571 110.7095 185.6257 0.0000 0.0000 0.0000
# 4 0.0000 0.0000 0.0000 22.2914 0.0000 0.0000
# 5 0.0000 0.0000 0.0000 0.0000 22.2210 0.0000
# 6 0.0000 0.0000 0.0000 0.0000 0.0000 -2.4136
#
#
#
# Elastic Compliance Matrix: (Units=1/GPa)
#
#
# Indices 1 2 3 4 5 6 
#
# 1 0.015235 -0.001772 0.001070 0.000000 0.000000 0.000000
# 2 -0.001772 0.014348 -0.008559 0.000000 0.000000 0.000000
# 3 0.001070 -0.008559 0.010493 0.000000 0.000000 0.000000
# 4 0.000000 0.000000 0.000000 0.044860 0.000000 0.000000
# 5 0.000000 0.000000 0.000000 0.000000 0.045002 0.000000
# 6 0.000000 0.000000 0.000000 0.000000 0.000000 -0.414311
#
#
# Mechanical properties :
#
#
# Convention : Reuss Voigt Hill
#
# Bulk Modulus (GPa) = 46.39645 69.59192 57.99418
# Shear Modulus (GPa) = -19.32986 26.43844 3.55429
#
# Velocity S-wave (km/s) = -3.00836 3.51831 1.29001
# Velocity P-wave (km/s) = 3.10738 7.00625 5.41957
#
# Compressibility (1/GPa) = 0.02155337
#
# Stress axis : x y z
#
# Youngs Moduli (GPa) = 65.63976 69.69673 95.30489
#
# Poissons Ratio (x) = 0.12348 -0.10193
# Poissons Ratio (y) = 0.11629 0.81569
# Poissons Ratio (z) = -0.07021 0.59652
#
# Static dielectric constant tensor:
#      x y z
#    x 1.848700 0.000000 0.000000 
#    y 0.000000 1.769180 0.000000 
#    z 0.000000 0.000000 1.811410 
# 
# From -- ./inp_files/15032.got.cif
#   From: 2010.05.17/outbox.cif.g08.bks.cpg/sg53_8_cif.got.tgz:15032.got - 2010.06.03 12:45:16.
