data_PCOD9414447
_publ_section_title
;
Structure prediction by ZEFSAII (Michael W. Deem and Ramdas Pophale) SiO2 
 PCOD9414447
Probable space group: P M N A
;
_chemical_formula_sum "Si O2"
_cell_formula_units_Z 48
_cell_length_a 8.450452
_cell_length_b 12.397460
_cell_length_c 26.861009
_cell_angle_alpha 90.000000
_cell_angle_beta 90.000000
_cell_angle_gamma 90.000000
_cell_volume 2814.070525
_symmetry_space_group_name_H-M "P M N A"
_symmetry_group_IT_number 53
_symmetry_cell_setting 'orthorhombic'
loop_
_space_group_symop_operation_xyz
x,y,z
1/2-x,-y,1/2+z
x,-y,-z
1/2-x,y,1/2-z
-x,-y,-z
1/2+x,y,1/2-z
-x,y,z
1/2+x,-y,1/2+z
loop_
_atom_site_type_symbol
_atom_site_label
_atom_site_fract_x
_atom_site_fract_y
_atom_site_fract_z
Si Si1 0.311398 0.664600 0.959312
Si Si2 0.188556 0.332482 0.305859
Si Si3 0.691778 0.485239 0.881134
Si Si4 0.189479 0.275064 0.571589
Si Si5 0.190731 0.964511 0.055502
Si Si6 0.685819 0.165344 0.383945
O O1 0.500000 0.684150 0.951262
O O2 0.273937 0.553645 0.931196
O O3 0.215060 0.757042 0.931226
O O4 0.282108 0.671259 0.017562
O O5 0.250000 0.328375 0.250000
O O6 0.248763 0.438546 0.336107
O O7 0.235011 0.227324 0.338003
O O8 0.000000 0.338890 0.305134
O O9 0.500000 0.479731 0.877481
O O10 0.748442 0.362763 0.888106
O O11 0.261897 0.156503 0.569389
O O12 0.000000 0.263225 0.577208
O O13 0.000000 0.971686 0.054133
O O14 0.247197 0.049701 0.097237
O O15 0.247863 0.000000 0.000000
O O16 0.500000 0.157070 0.373281
#
# Coordination Sequence:
#
# PCOD9414447 Si02
#       6
#     8   8   8   8   8   8
#     4   9  16  27  45  69  99 132 166 204 244 289
#     4  10  20  36  58  79 100 123 158 207 260 307
#     4   8  16  30  47  71 100 128 159 202 250 295
#     4  10  18  28  47  71  98 134 174 206 239 290
#     4  10  20  33  46  66 103 144 174 207 248 289
#     4  10  19  32  50  71 100 135 172 208 248 293
#
# _framework density 17.057143
#
# number of rings (size 3 to 8) (size 9 to 14) (size 15 to 20)
#    0.000    2.500    1.667    2.500    0.000    3.667 
#    0.000    4.167    0.000    6.000    0.000    4.667 
#    0.000    0.000    0.000    0.000    0.000    0.000 
#
# Total GULP energy -267419.133760 kJ/mol
# GULP energy per Si atom -5571.231953 kJ/mol
# Density = 1.701832 g / cm^3
# Si number density = 17.057143 Si / 1000 Ang^3
#
#
#
# Elastic Constant Matrix: (Units=GPa)
#
#
# Indices 1 2 3 4 5 6 
#
# 1 11.9549 17.0480 24.0225 0.0000 0.0000 0.0000
# 2 17.0480 143.1749 67.3162 0.0000 0.0000 0.0000
# 3 24.0225 67.3162 92.2164 0.0000 0.0000 0.0000
# 4 0.0000 0.0000 0.0000 8.9529 0.0000 0.0000
# 5 0.0000 0.0000 0.0000 0.0000 34.5565 0.0000
# 6 0.0000 0.0000 0.0000 0.0000 0.0000 95.5055
#
#
#
# Elastic Compliance Matrix: (Units=1/GPa)
#
#
# Indices 1 2 3 4 5 6 
#
# 1 0.175609 0.000911 -0.046412 0.000000 0.000000 0.000000
# 2 0.000911 0.010639 -0.008004 0.000000 0.000000 0.000000
# 3 -0.046412 -0.008004 0.028777 0.000000 0.000000 0.000000
# 4 0.000000 0.000000 0.000000 0.111696 0.000000 0.000000
# 5 0.000000 0.000000 0.000000 0.000000 0.028938 0.000000
# 6 0.000000 0.000000 0.000000 0.000000 0.000000 0.010471
#
#
# Mechanical properties :
#
#
# Convention : Reuss Voigt Hill
#
# Bulk Modulus (GPa) = 9.25779 51.56882 30.41330
# Shear Modulus (GPa) = 9.82041 37.06694 23.44367
#
# Velocity S-wave (km/s) = 2.40205 4.66671 3.71134
# Velocity P-wave (km/s) = 3.62387 7.70300 6.01950
#
# Compressibility (1/GPa) = 0.10801720
#
# Stress axis : x y z
#
# Youngs Moduli (GPa) = 5.69446 93.99350 34.75012
#
# Poissons Ratio (x) = -0.08565 1.61281
# Poissons Ratio (y) = -0.00519 0.27813
# Poissons Ratio (z) = 0.26429 0.75229
#
# Static dielectric constant tensor:
#      x y z
#    x 1.588610 0.000000 0.000000 
#    y 0.000000 1.602070 0.000000 
#    z 0.000000 0.000000 1.566620 
# 
# From -- ./inp_files/36142.got.cif
#   From: 2010.05.17/outbox.cif.g08.bks.cpg/sg53_19_cif.got.tgz:36142.got - 2010.06.03 12:45:16.
