data_PCOD9414060
_publ_section_title
;
Structure prediction by ZEFSAII (Michael W. Deem and Ramdas Pophale) SiO2 
 PCOD9414060
Probable space group: P M N A
;
_chemical_formula_sum "Si O2"
_cell_formula_units_Z 44
_cell_length_a 32.540091
_cell_length_b 8.422606
_cell_length_c 7.095742
_cell_angle_alpha 90.000000
_cell_angle_beta 90.000000
_cell_angle_gamma 90.000000
_cell_volume 1944.746796
_symmetry_space_group_name_H-M "P M N A"
_symmetry_group_IT_number 53
_symmetry_cell_setting 'orthorhombic'
loop_
_space_group_symop_operation_xyz
x,y,z
1/2-x,-y,1/2+z
x,-y,-z
1/2-x,y,1/2-z
-x,-y,-z
1/2+x,y,1/2-z
-x,y,z
1/2+x,-y,1/2+z
loop_
_atom_site_type_symbol
_atom_site_label
_atom_site_fract_x
_atom_site_fract_y
_atom_site_fract_z
Si Si1 0.547838 0.674985 0.180349
Si Si2 0.547827 0.981910 0.771748
Si Si3 0.171486 0.559328 0.714923
Si Si4 0.581831 0.355280 0.235102
Si Si5 0.782597 0.854767 0.599438
Si Si6 0.250000 0.347010 0.750000
O O1 0.500000 0.692562 0.120963
O O2 0.552288 0.504563 0.279912
O O3 0.558787 0.837645 0.289143
O O4 0.576030 0.664093 0.993326
O O5 0.500000 0.953231 0.725545
O O6 0.572069 0.825540 0.705747
O O7 0.550912 0.000000 0.000000
O O8 0.166379 0.500000 0.500000
O O9 0.126145 0.577621 0.795203
O O10 0.188186 0.737014 0.707373
O O11 0.209054 0.451589 0.789447
O O12 0.750000 0.917535 0.750000
O O13 0.760304 0.754108 0.435487
O O14 0.804978 0.000000 0.500000
#
# Coordination Sequence:
#
# PCOD9414060 Si02
#       6
#     8   8   8   8   8   4
#     4   9  15  23  37  61  98 139 184 230 286 347
#     4   8  14  22  34  56  89 133 179 223 276 340
#     4  10  20  34  51  75 105 147 197 244 290 352
#     4  10  15  25  40  62  92 136 190 229 275 339
#     4  11  22  39  61  87 112 147 194 247 304 359
#     4  10  22  40  60  80 116 152 198 244 298 364
#
# _framework density 22.625052
#
# number of rings (size 3 to 8) (size 9 to 14) (size 15 to 20)
#    0.000    2.364    3.636    3.273    0.000    2.182 
#    0.000    0.000    0.000    0.000    0.000    0.000 
#    0.000    0.000    0.000   29.455    0.000   77.636 
#
# Total GULP energy -245182.660465 kJ/mol
# GULP energy per Si atom -5572.333192 kJ/mol
# Density = 2.257356 g / cm^3
# Si number density = 22.625052 Si / 1000 Ang^3
#
#
#
# Elastic Constant Matrix: (Units=GPa)
#
#
# Indices 1 2 3 4 5 6 
#
# 1 102.1584 42.7486 12.8067 0.0000 0.0000 0.0000
# 2 42.7486 182.3602 5.8066 0.0000 0.0000 0.0000
# 3 12.8067 5.8066 79.3385 0.0000 0.0000 0.0000
# 4 0.0000 0.0000 0.0000 -0.1339 0.0000 0.0000
# 5 0.0000 0.0000 0.0000 0.0000 186.3955 0.0000
# 6 0.0000 0.0000 0.0000 0.0000 0.0000 -22.3067
#
#
#
# Elastic Compliance Matrix: (Units=1/GPa)
#
#
# Indices 1 2 3 4 5 6 
#
# 1 0.011052 -0.002540 -0.001598 0.000000 0.000000 0.000000
# 2 -0.002540 0.006080 -0.000035 0.000000 0.000000 0.000000
# 3 -0.001598 -0.000035 0.012865 0.000000 0.000000 0.000000
# 4 0.000000 0.000000 0.000000 -7.466120 0.000000 0.000000
# 5 0.000000 0.000000 0.000000 0.000000 0.005365 0.000000
# 6 0.000000 0.000000 0.000000 0.000000 0.000000 -0.044829
#
#
# Mechanical properties :
#
#
# Convention : Reuss Voigt Hill
#
# Bulk Modulus (GPa) = 46.18763 54.06455 50.12609
# Shear Modulus (GPa) = -0.67024 52.95731 26.14354
#
# Velocity S-wave (km/s) = -0.54487 4.84327 3.40297
# Velocity P-wave (km/s) = 4.47916 7.43130 6.13543
#
# Compressibility (1/GPa) = 0.02165082
#
# Stress axis : x y z
#
# Youngs Moduli (GPa) = 90.48238 164.46934 77.73184
#
# Poissons Ratio (x) = 0.41773 0.12422
# Poissons Ratio (y) = 0.22981 0.00272
# Poissons Ratio (z) = 0.14460 0.00576
#
# Static dielectric constant tensor:
#      x y z
#    x 1.853600 0.000000 0.000000 
#    y 0.000000 1.908570 0.000000 
#    z 0.000000 0.000000 1.894800 
# 
# From -- ./inp_files/12908.got.cif
#   From: 2010.05.17/outbox.cif.g08.bks.cpg/sg53_7_cif.got.tgz:12908.got - 2010.06.03 12:45:16.
