data_PCOD9414209
_publ_section_title
;
Structure prediction by ZEFSAII (Michael W. Deem and Ramdas Pophale) SiO2 
 PCOD9414209
Probable space group: P M N A
;
_chemical_formula_sum "Si O2"
_cell_formula_units_Z 64
_cell_length_a 7.585886
_cell_length_b 15.263597
_cell_length_c 31.213035
_cell_angle_alpha 90.000000
_cell_angle_beta 90.000000
_cell_angle_gamma 90.000000
_cell_volume 3614.091987
_symmetry_space_group_name_H-M "P M N A"
_symmetry_group_IT_number 53
_symmetry_cell_setting 'orthorhombic'
loop_
_space_group_symop_operation_xyz
x,y,z
1/2-x,-y,1/2+z
x,-y,-z
1/2-x,y,1/2-z
-x,-y,-z
1/2+x,y,1/2-z
-x,y,z
1/2+x,-y,1/2+z
loop_
_atom_site_type_symbol
_atom_site_label
_atom_site_fract_x
_atom_site_fract_y
_atom_site_fract_z
Si Si1 0.209915 0.452209 0.561277
Si Si2 0.788566 0.992427 0.202369
Si Si3 0.713462 0.366945 0.027604
Si Si4 0.788831 0.791486 0.202847
Si Si5 0.784567 0.961503 0.890350
Si Si6 0.707091 0.165870 0.463447
Si Si7 0.784482 0.137433 0.941153
Si Si8 0.211366 0.702954 0.117411
O O1 0.274779 0.397559 0.519766
O O2 0.271649 0.552486 0.557968
O O3 0.247098 0.394771 0.602672
O O4 0.000000 0.456814 0.556120
O O5 0.750000 0.027816 0.250000
O O6 0.725031 0.040060 0.159157
O O7 0.000000 0.988767 0.199486
O O8 0.721357 0.891691 0.200580
O O9 0.500000 0.362729 0.027409
O O10 0.776282 0.270478 0.039006
O O11 0.750000 0.756395 0.250000
O O12 0.721984 0.733570 0.163632
O O13 0.000000 0.796956 0.198587
O O14 0.721710 0.884861 0.922054
O O15 0.000000 0.959237 0.889155
O O16 0.735156 0.053482 0.912859
O O17 0.500000 0.143745 0.464884
O O18 0.778977 0.135604 0.509780
O O19 0.724819 0.226266 0.917678
O O20 0.000000 0.138735 0.942075
O O21 0.000000 0.710041 0.117812
#
# Coordination Sequence:
#
# PCOD9414209 Si02
#       8
#     8   8   8   8   8   8   8   8
#     4   9  18  31  46  62  84 118 151 176 215 269
#     4   9  16  28  44  61  85 115 147 182 217 255
#     4   9  18  32  45  60  87 119 147 179 220 261
#     4   9  17  28  43  63  89 118 147 179 219 261
#     4   9  16  27  43  64  90 120 149 179 217 261
#     4  10  18  27  45  68  87 115 155 188 215 253
#     4   9  15  25  40  63  92 119 147 177 211 253
#     4  10  17  27  45  68  91 115 146 186 222 251
#
# _framework density 17.708459999999999
#
# number of rings (size 3 to 8) (size 9 to 14) (size 15 to 20)
#    0.000    2.750    2.500    1.125    0.000    2.500 
#    0.000    1.875    0.000    3.000    0.000    0.875 
#    0.000    2.000    0.000    0.000    0.000    0.000 
#
# Total GULP energy -356725.380448 kJ/mol
# GULP energy per Si atom -5573.834069 kJ/mol
# Density = 1.766815 g / cm^3
# Si number density = 17.708460 Si / 1000 Ang^3
#
#
#
# Elastic Constant Matrix: (Units=GPa)
#
#
# Indices 1 2 3 4 5 6 
#
# 1 34.3234 -7.0895 3.9770 0.0000 0.0000 0.0000
# 2 -7.0895 62.9213 58.9680 0.0000 0.0000 0.0000
# 3 3.9770 58.9680 165.4522 0.0000 0.0000 0.0000
# 4 0.0000 0.0000 0.0000 23.4217 0.0000 0.0000
# 5 0.0000 0.0000 0.0000 0.0000 12.3498 0.0000
# 6 0.0000 0.0000 0.0000 0.0000 0.0000 2.8154
#
#
#
# Elastic Compliance Matrix: (Units=1/GPa)
#
#
# Indices 1 2 3 4 5 6 
#
# 1 0.030768 0.006246 -0.002966 0.000000 0.000000 0.000000
# 2 0.006246 0.025132 -0.009107 0.000000 0.000000 0.000000
# 3 -0.002966 -0.009107 0.009361 0.000000 0.000000 0.000000
# 4 0.000000 0.000000 0.000000 0.042695 0.000000 0.000000
# 5 0.000000 0.000000 0.000000 0.000000 0.080973 0.000000
# 6 0.000000 0.000000 0.000000 0.000000 0.000000 0.355185
#
#
# Mechanical properties :
#
#
# Convention : Reuss Voigt Hill
#
# Bulk Modulus (GPa) = 18.65404 41.60089 30.12747
# Shear Modulus (GPa) = 8.71631 21.50682 15.11156
#
# Velocity S-wave (km/s) = 2.22099 3.48874 2.92439
# Velocity P-wave (km/s) = 4.13931 6.30647 5.33411
#
# Compressibility (1/GPa) = 0.05360768
#
# Stress axis : x y z
#
# Youngs Moduli (GPa) = 32.50084 39.79051 106.82426
#
# Poissons Ratio (x) = -0.24854 0.31681
# Poissons Ratio (y) = -0.20301 0.97287
# Poissons Ratio (z) = 0.09639 0.36238
#
# Static dielectric constant tensor:
#      x y z
#    x 1.685620 0.000000 0.000000 
#    y 0.000000 1.591850 0.000000 
#    z 0.000000 0.000000 1.629490 
# 
# From -- ./inp_files/35054.got.cif
#   From: 2010.05.17/outbox.cif.g08.bks.cpg/sg53_18_cif.got.tgz:35054.got - 2010.06.03 12:45:16.
