data_PCOD9414956
_publ_section_title
;
Structure prediction by ZEFSAII (Michael W. Deem and Ramdas Pophale) SiO2 
 PCOD9414956
Probable space group: P M N A
;
_chemical_formula_sum "Si O2"
_cell_formula_units_Z 40
_cell_length_a 27.719077
_cell_length_b 7.421203
_cell_length_c 8.094838
_cell_angle_alpha 90.000000
_cell_angle_beta 90.000000
_cell_angle_gamma 90.000000
_cell_volume 1665.180200
_symmetry_space_group_name_H-M "P M N A"
_symmetry_group_IT_number 53
_symmetry_cell_setting 'orthorhombic'
loop_
_space_group_symop_operation_xyz
x,y,z
1/2-x,-y,1/2+z
x,-y,-z
1/2-x,y,1/2-z
-x,-y,-z
1/2+x,y,1/2-z
-x,y,z
1/2+x,-y,1/2+z
loop_
_atom_site_type_symbol
_atom_site_label
_atom_site_fract_x
_atom_site_fract_y
_atom_site_fract_z
Si Si1 0.707363 0.386285 0.145924
Si Si2 0.117171 0.781556 0.174090
Si Si3 0.444656 0.220429 0.988271
Si Si4 0.720391 0.173292 0.592281
Si Si5 0.385888 0.216475 0.305417
O O1 0.750000 0.484923 0.250000
O O2 0.666802 0.294838 0.257259
O O3 0.683431 0.500000 0.000000
O O4 0.741676 0.254532 0.037556
O O5 0.087401 0.717627 0.332103
O O6 0.173193 0.721779 0.159205
O O7 0.116341 0.998691 0.198150
O O8 0.098124 0.734826 0.991138
O O9 0.500000 0.275270 0.968639
O O10 0.421556 0.279080 0.161452
O O11 0.444043 0.000000 0.000000
O O12 0.750000 0.111477 0.750000
O O13 0.699530 0.000000 0.500000
#
# Coordination Sequence:
#
# PCOD9414956 Si02
#       5
#     8   8   8   8   8
#     4  12  24  40  56  86 124 161 201 246 303 365
#     4  10  18  33  57  84 114 153 199 250 292 353
#     4   9  19  33  54  87 120 148 189 249 315 369
#     4  12  21  34  57  84 116 160 206 248 293 351
#     4  10  19  36  56  82 117 155 198 246 300 354
#
# _framework density 24.021422999999999
#
# number of rings (size 3 to 8) (size 9 to 14) (size 15 to 20)
#    0.000    1.400    4.000    3.600    0.000    2.400 
#    0.000    4.000    0.000    0.600    0.000    1.400 
#    0.000    0.000    0.000    0.000    0.000    0.000 
#
# Total GULP energy -223584.407600 kJ/mol
# GULP energy per Si atom -5589.610190 kJ/mol
# Density = 2.396675 g / cm^3
# Si number density = 24.021423 Si / 1000 Ang^3
#
#
#
# Elastic Constant Matrix: (Units=GPa)
#
#
# Indices 1 2 3 4 5 6 
#
# 1 155.2024 12.7454 106.6002 0.0000 0.0000 0.0000
# 2 12.7454 61.6336 25.7398 0.0000 0.0000 0.0000
# 3 106.6002 25.7398 225.4153 0.0000 0.0000 0.0000
# 4 0.0000 0.0000 0.0000 13.7630 0.0000 0.0000
# 5 0.0000 0.0000 0.0000 0.0000 37.6799 0.0000
# 6 0.0000 0.0000 0.0000 0.0000 0.0000 10.5481
#
#
#
# Elastic Compliance Matrix: (Units=1/GPa)
#
#
# Indices 1 2 3 4 5 6 
#
# 1 0.009543 -0.000093 -0.004502 0.000000 0.000000 0.000000
# 2 -0.000093 0.017038 -0.001902 0.000000 0.000000 0.000000
# 3 -0.004502 -0.001902 0.006783 0.000000 0.000000 0.000000
# 4 0.000000 0.000000 0.000000 0.072659 0.000000 0.000000
# 5 0.000000 0.000000 0.000000 0.000000 0.026539 0.000000
# 6 0.000000 0.000000 0.000000 0.000000 0.000000 0.094803
#
#
# Mechanical properties :
#
#
# Convention : Reuss Voigt Hill
#
# Bulk Modulus (GPa) = 49.09179 81.38025 65.23602
# Shear Modulus (GPa) = 20.23061 32.20925 26.21993
#
# Velocity S-wave (km/s) = 2.90520 3.66574 3.30740
# Velocity P-wave (km/s) = 5.63335 7.20199 6.46542
#
# Compressibility (1/GPa) = 0.02037001
#
# Stress axis : x y z
#
# Youngs Moduli (GPa) = 104.78489 58.69128 147.43533
#
# Poissons Ratio (x) = 0.00547 0.66382
# Poissons Ratio (y) = 0.00976 0.28035
# Poissons Ratio (z) = 0.47179 0.11160
#
# Static dielectric constant tensor:
#      x y z
#    x 1.862140 0.000000 0.000000 
#    y 0.000000 2.007800 0.000000 
#    z 0.000000 0.000000 1.935240 
# 
# From -- ./inp_files/11554.got.cif
#   From: 2010.05.17/outbox.cif.g08.bks.cpg/sg53_6_cif.got.tgz:11554.got - 2010.06.03 12:45:16.
