data_PCOD9414108
_publ_section_title
;
Structure prediction by ZEFSAII (Michael W. Deem and Ramdas Pophale) SiO2 
 PCOD9414108
Probable space group: P M N A
;
_chemical_formula_sum "Si O2"
_cell_formula_units_Z 40
_cell_length_a 14.538551
_cell_length_b 7.039215
_cell_length_c 16.763426
_cell_angle_alpha 90.000000
_cell_angle_beta 90.000000
_cell_angle_gamma 90.000000
_cell_volume 1715.568787
_symmetry_space_group_name_H-M "P M N A"
_symmetry_group_IT_number 53
_symmetry_cell_setting 'orthorhombic'
loop_
_space_group_symop_operation_xyz
x,y,z
1/2-x,-y,1/2+z
x,-y,-z
1/2-x,y,1/2-z
-x,-y,-z
1/2+x,y,1/2-z
-x,y,z
1/2+x,-y,1/2+z
loop_
_atom_site_type_symbol
_atom_site_label
_atom_site_fract_x
_atom_site_fract_y
_atom_site_fract_z
Si Si1 0.899439 0.788922 0.574107
Si Si2 0.719012 0.850990 0.666029
Si Si3 0.646522 0.754693 0.269936
Si Si4 0.358304 0.654286 0.097217
Si Si5 0.147581 0.484939 0.911521
O O1 0.811782 0.887415 0.615411
O O2 0.891127 0.775584 0.478398
O O3 0.892866 0.563831 0.596603
O O4 0.000000 0.858477 0.598373
O O5 0.750000 0.760994 0.750000
O O6 0.662293 0.699268 0.617210
O O7 0.663883 0.037617 0.692684
O O8 0.750000 0.680318 0.250000
O O9 0.609113 0.743255 0.180715
O O10 0.602351 0.627417 0.338412
O O11 0.247873 0.621622 0.082809
O O12 0.108108 0.500000 0.000000
#
# Coordination Sequence:
#
# PCOD9414108 Si02
#       5
#     8   8   8   8   8
#     4  10  18  31  58  88 120 160 196 236 296 370
#     4  10  19  34  51  76 110 159 192 238 288 348
#     4   9  19  30  49  72 106 152 195 241 284 341
#     4   9  15  31  49  79 115 156 192 232 287 358
#     4  10  16  29  48  73 101 146 193 243 292 339
#
# _framework density 23.315882999999999
#
# number of rings (size 3 to 8) (size 9 to 14) (size 15 to 20)
#    0.000    2.400    4.000    4.200    0.000    0.800 
#    3.600    0.000    0.000   40.800    0.000    0.000 
#    0.000   23.200    0.000    9.400    0.000    0.000 
#
# Total GULP energy -223290.078748 kJ/mol
# GULP energy per Si atom -5582.251969 kJ/mol
# Density = 2.326281 g / cm^3
# Si number density = 23.315883 Si / 1000 Ang^3
#
#
#
# Elastic Constant Matrix: (Units=GPa)
#
#
# Indices 1 2 3 4 5 6 
#
# 1 78.7180 16.8205 21.6810 0.0000 0.0000 0.0000
# 2 16.8205 118.6616 81.0930 0.0000 0.0000 0.0000
# 3 21.6810 81.0930 231.8934 0.0000 0.0000 0.0000
# 4 0.0000 0.0000 0.0000 51.3954 0.0000 0.0000
# 5 0.0000 0.0000 0.0000 0.0000 -5.9804 0.0000
# 6 0.0000 0.0000 0.0000 0.0000 0.0000 -95.7798
#
#
#
# Elastic Compliance Matrix: (Units=1/GPa)
#
#
# Indices 1 2 3 4 5 6 
#
# 1 0.013202 -0.001351 -0.000762 0.000000 0.000000 0.000000
# 2 -0.001351 0.011212 -0.003795 0.000000 0.000000 0.000000
# 3 -0.000762 -0.003795 0.005711 0.000000 0.000000 0.000000
# 4 0.000000 0.000000 0.000000 0.019457 0.000000 0.000000
# 5 0.000000 0.000000 0.000000 0.000000 -0.167212 0.000000
# 6 0.000000 0.000000 0.000000 0.000000 0.000000 -0.010441
#
#
# Mechanical properties :
#
#
# Convention : Reuss Voigt Hill
#
# Bulk Modulus (GPa) = 54.61460 74.27357 64.44408
# Shear Modulus (GPa) = -45.39139 10.57227 -17.40956
#
# Velocity S-wave (km/s) = -4.41704 2.13171 -2.73551
# Velocity P-wave (km/s) = 1.59345 6.16307 4.20977
#
# Compressibility (1/GPa) = 0.01831012
#
# Stress axis : x y z
#
# Youngs Moduli (GPa) = 75.74573 89.19051 175.11554
#
# Poissons Ratio (x) = 0.12047 0.13344
# Poissons Ratio (y) = 0.10231 0.66448
# Poissons Ratio (z) = 0.05772 0.33844
#
# Static dielectric constant tensor:
#      x y z
#    x 1.925940 0.000000 0.000000 
#    y 0.000000 1.909020 0.000000 
#    z 0.000000 0.000000 1.943050 
# 
# From -- ./inp_files/23423.got.cif
#   From: 2010.05.17/outbox.cif.g08.bks.cpg/sg53_12_cif.got.tgz:23423.got - 2010.06.03 12:45:16.
