data_PCOD9414763
_publ_section_title
;
Structure prediction by ZEFSAII (Michael W. Deem and Ramdas Pophale) SiO2 
 PCOD9414763
Probable space group: P M N A
;
_chemical_formula_sum "Si O2"
_cell_formula_units_Z 64
_cell_length_a 13.578329
_cell_length_b 9.488916
_cell_length_c 23.850903
_cell_angle_alpha 90.000000
_cell_angle_beta 90.000000
_cell_angle_gamma 90.000000
_cell_volume 3073.036762
_symmetry_space_group_name_H-M "P M N A"
_symmetry_group_IT_number 53
_symmetry_cell_setting 'orthorhombic'
loop_
_space_group_symop_operation_xyz
x,y,z
1/2-x,-y,1/2+z
x,-y,-z
1/2-x,y,1/2-z
-x,-y,-z
1/2+x,y,1/2-z
-x,y,z
1/2+x,-y,1/2+z
loop_
_atom_site_type_symbol
_atom_site_label
_atom_site_fract_x
_atom_site_fract_y
_atom_site_fract_z
Si Si1 0.112804 0.843507 0.485715
Si Si2 0.792372 0.838610 0.370834
Si Si3 0.116679 0.566680 0.334272
Si Si4 0.617672 0.339874 0.259184
Si Si5 0.886967 0.979065 0.066981
Si Si6 0.314870 0.651438 0.922791
Si Si7 0.614224 0.701597 0.612701
Si Si8 0.618733 0.883422 0.832224
O O1 0.126389 0.828645 0.420021
O O2 0.158265 0.708929 0.516376
O O3 0.000000 0.846114 0.503684
O O4 0.153925 0.000000 0.500000
O O5 0.807451 0.695144 0.337653
O O6 0.690973 0.875884 0.403036
O O7 0.824593 0.970829 0.334062
O O8 0.145271 0.468555 0.281337
O O9 0.129680 0.474609 0.391301
O O10 0.000000 0.604849 0.329067
O O11 0.500000 0.347156 0.261630
O O12 0.647670 0.327474 0.323378
O O13 0.641034 0.200193 0.224399
O O14 0.000000 0.929729 0.073801
O O15 0.879480 0.133152 0.096101
O O16 0.870827 0.000000 0.000000
O O17 0.198211 0.624428 0.922446
O O18 0.343337 0.786849 0.883676
O O19 0.500000 0.659675 0.605130
O O20 0.500000 0.899480 0.837542
#
# Coordination Sequence:
#
# PCOD9414763 Si02
#       8
#     8   8   8   8   8   8   8   8
#     4  11  20  31  54  87 122 158 201 248 295 365
#     4  12  21  35  56  89 123 163 202 241 309 376
#     4  10  22  37  54  82 127 165 196 245 311 374
#     4   8  18  36  59  84 115 156 202 254 304 361
#     4  10  21  39  63  95 131 161 206 274 329 364
#     4  11  20  35  54  81 117 158 206 251 300 363
#     4  10  19  36  64  89 111 153 215 265 302 362
#     4  10  18  31  53  81 115 153 198 250 302 361
#
# _framework density 20.826304
#
# number of rings (size 3 to 8) (size 9 to 14) (size 15 to 20)
#    0.000    1.750    2.500    4.125    0.000    2.500 
#    0.000    1.875    5.500    0.000    0.000    6.125 
#    0.000    0.000    0.000    0.000    0.000    0.000 
#
# Total GULP energy -357243.184875 kJ/mol
# GULP energy per Si atom -5581.924764 kJ/mol
# Density = 2.077890 g / cm^3
# Si number density = 20.826304 Si / 1000 Ang^3
#
#
#
# Elastic Constant Matrix: (Units=GPa)
#
#
# Indices 1 2 3 4 5 6 
#
# 1 144.8014 26.3292 18.1565 0.0000 0.0000 0.0000
# 2 26.3292 87.1266 25.4630 0.0000 0.0000 0.0000
# 3 18.1565 25.4630 54.9406 0.0000 0.0000 0.0000
# 4 0.0000 0.0000 0.0000 11.4178 0.0000 0.0000
# 5 0.0000 0.0000 0.0000 0.0000 18.8381 0.0000
# 6 0.0000 0.0000 0.0000 0.0000 0.0000 8.9425
#
#
#
# Elastic Compliance Matrix: (Units=1/GPa)
#
#
# Indices 1 2 3 4 5 6 
#
# 1 0.007433 -0.001768 -0.001637 0.000000 0.000000 0.000000
# 2 -0.001768 0.013696 -0.005763 0.000000 0.000000 0.000000
# 3 -0.001637 -0.005763 0.021414 0.000000 0.000000 0.000000
# 4 0.000000 0.000000 0.000000 0.087583 0.000000 0.000000
# 5 0.000000 0.000000 0.000000 0.000000 0.053084 0.000000
# 6 0.000000 0.000000 0.000000 0.000000 0.000000 0.111825
#
#
# Mechanical properties :
#
#
# Convention : Reuss Voigt Hill
#
# Bulk Modulus (GPa) = 41.31204 47.41844 44.36524
# Shear Modulus (GPa) = 15.55503 22.30100 18.92802
#
# Velocity S-wave (km/s) = 2.73590 3.27587 3.01799
# Velocity P-wave (km/s) = 5.46441 6.09315 5.78732
#
# Compressibility (1/GPa) = 0.02420602
#
# Stress axis : x y z
#
# Youngs Moduli (GPa) = 134.54064 73.01332 46.69919
#
# Poissons Ratio (x) = 0.12906 0.07645
# Poissons Ratio (y) = 0.23783 0.26915
# Poissons Ratio (z) = 0.22025 0.42081
#
# Static dielectric constant tensor:
#      x y z
#    x 1.786800 0.000000 0.000000 
#    y 0.000000 1.773390 0.000000 
#    z 0.000000 0.000000 1.762570 
# 
# From -- ./inp_files/35347.got.cif
#   From: 2010.05.17/outbox.cif.g08.bks.cpg/sg53_18_cif.got.tgz:35347.got - 2010.06.03 12:45:16.
