data_PCOD9414651
_publ_section_title
;
Structure prediction by ZEFSAII (Michael W. Deem and Ramdas Pophale) SiO2 
 PCOD9414651
Probable space group: P M N A
;
_chemical_formula_sum "Si O2"
_cell_formula_units_Z 48
_cell_length_a 18.522660
_cell_length_b 9.059343
_cell_length_c 16.010915
_cell_angle_alpha 90.000000
_cell_angle_beta 90.000000
_cell_angle_gamma 90.000000
_cell_volume 2686.681655
_symmetry_space_group_name_H-M "P M N A"
_symmetry_group_IT_number 53
_symmetry_cell_setting 'orthorhombic'
loop_
_space_group_symop_operation_xyz
x,y,z
1/2-x,-y,1/2+z
x,-y,-z
1/2-x,y,1/2-z
-x,-y,-z
1/2+x,y,1/2-z
-x,y,z
1/2+x,-y,1/2+z
loop_
_atom_site_type_symbol
_atom_site_label
_atom_site_fract_x
_atom_site_fract_y
_atom_site_fract_z
Si Si1 0.582252 0.973658 0.737261
Si Si2 0.709776 0.166383 0.662497
Si Si3 0.919502 0.380249 0.245075
Si Si4 0.285359 0.672557 0.839402
Si Si5 0.656460 0.524765 0.405116
Si Si6 0.339173 0.020536 0.092973
O O1 0.500000 0.019086 0.718164
O O2 0.644174 0.055197 0.684535
O O3 0.602686 0.005267 0.833869
O O4 0.586686 0.795928 0.727238
O O5 0.750000 0.206840 0.750000
O O6 0.678187 0.308830 0.617066
O O7 0.771006 0.086335 0.608239
O O8 0.857097 0.415178 0.311807
O O9 0.902298 0.468438 0.161164
O O10 0.000000 0.409535 0.275603
O O11 0.250000 0.719653 0.750000
O O12 0.227331 0.574692 0.886791
O O13 0.309144 0.814925 0.890634
O O14 0.633777 0.500000 0.500000
O O15 0.367518 0.000000 0.000000
#
# Coordination Sequence:
#
# PCOD9414651 Si02
#       6
#     8   8   8   8   8   8
#     4   9  19  35  53  72  97 131 166 197 236 291
#     4  10  19  32  50  73  99 129 163 198 241 289
#     4   9  18  34  53  70  93 129 168 198 233 291
#     4   9  17  33  52  70  94 131 169 194 231 292
#     4  11  21  32  50  75 101 126 160 208 249 282
#     4  10  18  30  52  78 102 125 156 202 246 285
#
# _framework density 17.865905999999999
#
# number of rings (size 3 to 8) (size 9 to 14) (size 15 to 20)
#    0.000    2.333    0.000    6.000    0.000    1.333 
#    0.000    0.000    0.000    3.000    0.000    0.000 
#    0.000    0.000    0.000    0.000    0.000    0.000 
#
# Total GULP energy -267760.552830 kJ/mol
# GULP energy per Si atom -5578.344851 kJ/mol
# Density = 1.782524 g / cm^3
# Si number density = 17.865906 Si / 1000 Ang^3
#
#
#
# Elastic Constant Matrix: (Units=GPa)
#
#
# Indices 1 2 3 4 5 6 
#
# 1 65.3000 -8.7590 -17.7399 0.0000 0.0000 0.0000
# 2 -8.7590 24.5188 3.3032 0.0000 0.0000 0.0000
# 3 -17.7399 3.3032 39.5662 0.0000 0.0000 0.0000
# 4 0.0000 0.0000 0.0000 17.0695 0.0000 0.0000
# 5 0.0000 0.0000 0.0000 0.0000 6.2020 0.0000
# 6 0.0000 0.0000 0.0000 0.0000 0.0000 -0.5998
#
#
#
# Elastic Compliance Matrix: (Units=1/GPa)
#
#
# Indices 1 2 3 4 5 6 
#
# 1 0.018129 0.005442 0.007674 0.000000 0.000000 0.000000
# 2 0.005442 0.042883 -0.001140 0.000000 0.000000 0.000000
# 3 0.007674 -0.001140 0.028810 0.000000 0.000000 0.000000
# 4 0.000000 0.000000 0.000000 0.058584 0.000000 0.000000
# 5 0.000000 0.000000 0.000000 0.000000 0.161239 0.000000
# 6 0.000000 0.000000 0.000000 0.000000 0.000000 -1.667271
#
#
# Mechanical properties :
#
#
# Convention : Reuss Voigt Hill
#
# Bulk Modulus (GPa) = 8.78935 9.22150 9.00542
# Shear Modulus (GPa) = -3.72119 14.70639 5.49260
#
# Velocity S-wave (km/s) = -1.44477 2.87218 1.75528
# Velocity P-wave (km/s) = 1.46531 4.02143 3.02647
#
# Compressibility (1/GPa) = 0.11377409
#
# Stress axis : x y z
#
# Youngs Moduli (GPa) = 55.16119 23.31938 34.71023
#
# Poissons Ratio (x) = -0.12691 -0.26636
# Poissons Ratio (y) = -0.30021 0.03957
# Poissons Ratio (z) = -0.42330 0.02658
#
# Static dielectric constant tensor:
#      x y z
#    x 1.614040 0.000000 0.000000 
#    y 0.000000 1.606730 0.000000 
#    z 0.000000 0.000000 1.598790 
# 
# From -- ./inp_files/23606.got.cif
#   From: 2010.05.17/outbox.cif.g08.bks.cpg/sg53_12_cif.got.tgz:23606.got - 2010.06.03 12:45:16.
