data_PCOD9414626
_publ_section_title
;
Structure prediction by ZEFSAII (Michael W. Deem and Ramdas Pophale) SiO2 
 PCOD9414626
Probable space group: P M N A
;
_chemical_formula_sum "Si O2"
_cell_formula_units_Z 52
_cell_length_a 30.845586
_cell_length_b 6.760869
_cell_length_c 14.775680
_cell_angle_alpha 90.000000
_cell_angle_beta 90.000000
_cell_angle_gamma 90.000000
_cell_volume 3081.364134
_symmetry_space_group_name_H-M "P M N A"
_symmetry_group_IT_number 53
_symmetry_cell_setting 'orthorhombic'
loop_
_space_group_symop_operation_xyz
x,y,z
1/2-x,-y,1/2+z
x,-y,-z
1/2-x,y,1/2-z
-x,-y,-z
1/2+x,y,1/2-z
-x,y,z
1/2+x,-y,1/2+z
loop_
_atom_site_type_symbol
_atom_site_label
_atom_site_fract_x
_atom_site_fract_y
_atom_site_fract_z
Si Si1 0.863715 0.122465 0.081557
Si Si2 0.881957 0.419235 0.601866
Si Si3 0.310039 0.124500 0.832831
Si Si4 0.180411 0.500000 0.000000
Si Si5 0.449281 0.924334 0.103306
Si Si6 0.214194 0.827127 0.128751
Si Si7 0.117007 0.815821 0.713177
O O1 0.885785 0.150012 0.179010
O O2 0.820269 0.991878 0.097875
O O3 0.849379 0.338086 0.048890
O O4 0.886777 0.000000 0.000000
O O5 0.881919 0.500000 0.500000
O O6 0.840383 0.278891 0.615646
O O7 0.924372 0.282952 0.613282
O O8 0.881144 0.593529 0.675818
O O9 0.298767 0.208686 0.733117
O O10 0.263221 0.094717 0.877510
O O11 0.339110 0.928895 0.819337
O O12 0.208158 0.628611 0.070747
O O13 0.500000 0.910443 0.124500
O O14 0.423465 0.077445 0.165837
O O15 0.444745 0.000000 0.000000
#
# Coordination Sequence:
#
# PCOD9414626 Si02
#       7
#     8   8   8   4   8   8   8
#     4   9  19  35  55  78 103 139 185 226 266 311
#     4  11  21  33  51  82 108 142 177 217 267 321
#     4   9  20  33  49  69 107 141 183 221 265 309
#     4  10  18  30  50  74  99 128 181 230 266 300
#     4  10  21  38  58  82 111 139 172 212 259 328
#     4   9  18  34  48  71 100 144 183 227 263 306
#     4  10  20  37  56  77 109 142 174 218 270 318
#
# _framework density 16.875643
#
# number of rings (size 3 to 8) (size 9 to 14) (size 15 to 20)
#    0.000    2.308    1.538    0.923    1.077    3.385 
#    5.538    3.077    0.000    0.462    0.000    1.615 
#    0.000    0.000    0.000    0.000    0.000    0.000 
#
# Total GULP energy -289873.239698 kJ/mol
# GULP energy per Si atom -5574.485379 kJ/mol
# Density = 1.683723 g / cm^3
# Si number density = 16.875643 Si / 1000 Ang^3
#
#
#
# Elastic Constant Matrix: (Units=GPa)
#
#
# Indices 1 2 3 4 5 6 
#
# 1 79.4934 15.2684 19.9613 0.0000 0.0000 0.0000
# 2 15.2684 79.8192 16.5380 0.0000 0.0000 0.0000
# 3 19.9613 16.5380 70.2711 0.0000 0.0000 0.0000
# 4 0.0000 0.0000 0.0000 30.5318 0.0000 0.0000
# 5 0.0000 0.0000 0.0000 0.0000 18.1053 0.0000
# 6 0.0000 0.0000 0.0000 0.0000 0.0000 2.7980
#
#
#
# Elastic Compliance Matrix: (Units=1/GPa)
#
#
# Indices 1 2 3 4 5 6 
#
# 1 0.013821 -0.001924 -0.003473 0.000000 0.000000 0.000000
# 2 -0.001924 0.013438 -0.002616 0.000000 0.000000 0.000000
# 3 -0.003473 -0.002616 0.015833 0.000000 0.000000 0.000000
# 4 0.000000 0.000000 0.000000 0.032753 0.000000 0.000000
# 5 0.000000 0.000000 0.000000 0.000000 0.055233 0.000000
# 6 0.000000 0.000000 0.000000 0.000000 0.000000 0.357397
#
#
# Mechanical properties :
#
#
# Convention : Reuss Voigt Hill
#
# Bulk Modulus (GPa) = 36.94727 37.01323 36.98025
# Shear Modulus (GPa) = 9.73665 22.14142 15.93903
#
# Velocity S-wave (km/s) = 2.40461 3.62613 3.07660
# Velocity P-wave (km/s) = 5.44527 6.28588 5.88061
#
# Compressibility (1/GPa) = 0.02706560
#
# Stress axis : x y z
#
# Youngs Moduli (GPa) = 72.35148 74.41352 63.15962
#
# Poissons Ratio (x) = 0.14319 0.21937
# Poissons Ratio (y) = 0.13922 0.16523
# Poissons Ratio (z) = 0.25130 0.19467
#
# Static dielectric constant tensor:
#      x y z
#    x 1.538750 0.000000 0.000000 
#    y 0.000000 1.560760 0.000000 
#    z 0.000000 0.000000 1.614270 
# 
# From -- ./inp_files/25159.got.cif
#   From: 2010.05.17/outbox.cif.g08.bks.cpg/sg53_13_cif.got.tgz:25159.got - 2010.06.03 12:45:16.
