data_PCOD9414962
_publ_section_title
;
Structure prediction by ZEFSAII (Michael W. Deem and Ramdas Pophale) SiO2 
 PCOD9414962
Probable space group: P M N A
;
_chemical_formula_sum "Si O2"
_cell_formula_units_Z 32
_cell_length_a 8.383341
_cell_length_b 10.364571
_cell_length_c 20.284939
_cell_angle_alpha 90.000000
_cell_angle_beta 90.000000
_cell_angle_gamma 90.000000
_cell_volume 1762.552934
_symmetry_space_group_name_H-M "P M N A"
_symmetry_group_IT_number 53
_symmetry_cell_setting 'orthorhombic'
loop_
_space_group_symop_operation_xyz
x,y,z
1/2-x,-y,1/2+z
x,-y,-z
1/2-x,y,1/2-z
-x,-y,-z
1/2+x,y,1/2-z
-x,y,z
1/2+x,-y,1/2+z
loop_
_atom_site_type_symbol
_atom_site_label
_atom_site_fract_x
_atom_site_fract_y
_atom_site_fract_z
Si Si1 0.691564 0.329351 0.324111
Si Si2 0.805466 0.547148 0.072450
Si Si3 0.187200 0.890052 0.583947
Si Si4 0.811022 0.835663 0.060711
O O1 0.750000 0.347098 0.250000
O O2 0.500000 0.324470 0.325477
O O3 0.744771 0.446592 0.371724
O O4 0.758350 0.198233 0.355909
O O5 0.755061 0.694788 0.083573
O O6 0.000000 0.547869 0.071332
O O7 0.752958 0.500000 0.000000
O O8 0.279503 0.845143 0.517929
O O9 0.000000 0.874163 0.571778
O O10 0.225908 0.041082 0.592323
O O11 0.000000 0.847358 0.071982
#
# Coordination Sequence:
#
# PCOD9414962 Si02
#       4
#     8   8   8   8
#     4  11  22  39  59  82 113 149 189 231 284 345
#     4   9  17  33  58  85 110 144 189 234 280 337
#     4  11  21  34  52  82 116 147 185 232 280 332
#     4  10  18  33  58  84 110 145 187 234 284 329
#
# _framework density 18.155484000000001
#
# number of rings (size 3 to 8) (size 9 to 14) (size 15 to 20)
#    0.000    1.750    2.500    5.250    0.000    0.000 
#    0.000    7.500    0.000    3.000    0.000    0.000 
#    0.000    0.000    0.000    0.000    0.000    0.000 
#
# Total GULP energy -178680.639347 kJ/mol
# GULP energy per Si atom -5583.769980 kJ/mol
# Density = 1.811416 g / cm^3
# Si number density = 18.155484 Si / 1000 Ang^3
#
#
#
# Elastic Constant Matrix: (Units=GPa)
#
#
# Indices 1 2 3 4 5 6 
#
# 1 26.4608 4.3753 -0.7639 0.0000 0.0000 0.0000
# 2 4.3753 149.6488 73.4902 0.0000 0.0000 0.0000
# 3 -0.7639 73.4902 110.1026 0.0000 0.0000 0.0000
# 4 0.0000 0.0000 0.0000 27.3681 0.0000 0.0000
# 5 0.0000 0.0000 0.0000 0.0000 22.8722 0.0000
# 6 0.0000 0.0000 0.0000 0.0000 0.0000 -10.5207
#
#
#
# Elastic Compliance Matrix: (Units=1/GPa)
#
#
# Indices 1 2 3 4 5 6 
#
# 1 0.038141 -0.001852 0.001501 0.000000 0.000000 0.000000
# 2 -0.001852 0.010031 -0.006708 0.000000 0.000000 0.000000
# 3 0.001501 -0.006708 0.013570 0.000000 0.000000 0.000000
# 4 0.000000 0.000000 0.000000 0.036539 0.000000 0.000000
# 5 0.000000 0.000000 0.000000 0.000000 0.043721 0.000000
# 6 0.000000 0.000000 0.000000 0.000000 0.000000 -0.095051
#
#
# Mechanical properties :
#
#
# Convention : Reuss Voigt Hill
#
# Bulk Modulus (GPa) = 20.99795 48.93504 34.96650
# Shear Modulus (GPa) = 64.98178 21.88465 43.43321
#
# Velocity S-wave (km/s) = 5.98912 3.47566 4.89641
# Velocity P-wave (km/s) = 7.70823 6.56649 7.16015
#
# Compressibility (1/GPa) = 0.04762369
#
# Stress axis : x y z
#
# Youngs Moduli (GPa) = 26.21823 99.69427 73.69063
#
# Poissons Ratio (x) = 0.18466 -0.11061
# Poissons Ratio (y) = 0.04856 0.49432
# Poissons Ratio (z) = -0.03935 0.66875
#
# Static dielectric constant tensor:
#      x y z
#    x 1.612730 0.000000 0.000000 
#    y 0.000000 1.641700 0.000000 
#    z 0.000000 0.000000 1.586340 
# 
# From -- ./inp_files/25749.got.cif
#   From: 2010.05.17/outbox.cif.g08.bks.cpg/sg53_13_cif.got.tgz:25749.got - 2010.06.03 12:45:16.
