data_PCOD9414436
_publ_section_title
;
Structure prediction by ZEFSAII (Michael W. Deem and Ramdas Pophale) SiO2 
 PCOD9414436
Probable space group: P M N A
;
_chemical_formula_sum "Si O2"
_cell_formula_units_Z 56
_cell_length_a 9.082546
_cell_length_b 20.866088
_cell_length_c 18.562774
_cell_angle_alpha 90.000000
_cell_angle_beta 90.000000
_cell_angle_gamma 90.000000
_cell_volume 3517.965029
_symmetry_space_group_name_H-M "P M N A"
_symmetry_group_IT_number 53
_symmetry_cell_setting 'orthorhombic'
loop_
_space_group_symop_operation_xyz
x,y,z
1/2-x,-y,1/2+z
x,-y,-z
1/2-x,y,1/2-z
-x,-y,-z
1/2+x,y,1/2-z
-x,y,z
1/2+x,-y,1/2+z
loop_
_atom_site_type_symbol
_atom_site_label
_atom_site_fract_x
_atom_site_fract_y
_atom_site_fract_z
Si Si1 0.330558 0.935531 0.049134
Si Si2 0.668162 0.425657 0.974155
Si Si3 0.676831 0.251593 0.326031
Si Si4 0.175278 0.991254 0.827722
Si Si5 0.675810 0.134323 0.424645
Si Si6 0.677231 0.519689 0.174729
Si Si7 0.324483 0.608800 0.613733
O O1 0.500000 0.921015 0.065803
O O2 0.240968 0.953901 0.120435
O O3 0.257519 0.882002 0.998702
O O4 0.327361 0.000000 0.000000
O O5 0.500000 0.401831 0.980123
O O6 0.712235 0.431447 0.890701
O O7 0.666139 0.500000 0.000000
O O8 0.773183 0.390670 0.030425
O O9 0.750000 0.236089 0.250000
O O10 0.500000 0.247448 0.318748
O O11 0.720899 0.200259 0.386634
O O12 0.713835 0.323884 0.349458
O O13 0.250000 0.991641 0.750000
O O14 0.205020 0.923673 0.868383
O O15 0.000000 0.998045 0.821238
O O16 0.500000 0.135044 0.437479
O O17 0.750000 0.538292 0.250000
O O18 0.500000 0.515231 0.179749
O O19 0.741921 0.450283 0.152042
O O20 0.500000 0.598831 0.618315
#
# Coordination Sequence:
#
# PCOD9414436 Si02
#       7
#     8   8   8   8   8   8   8
#     4   9  17  29  45  65  88 114 147 185 224 268
#     4   8  16  30  45  62  86 115 146 182 224 267
#     4  10  21  33  45  65  92 122 155 187 217 254
#     4  10  18  28  45  67  91 119 148 182 224 266
#     4   9  18  32  46  62  89 122 153 184 220 261
#     4  10  19  30  45  66  91 117 146 183 226 268
#     4  10  19  30  45  65  90 121 154 185 219 261
#
# _framework density 15.918295000000001
#
# number of rings (size 3 to 8) (size 9 to 14) (size 15 to 20)
#    0.000    2.571    0.000    3.429    0.000    8.286 
#    0.000    0.000    0.000    0.000    0.000    1.000 
#    0.000    2.286    0.000    0.000    0.000    0.000 
#
# Total GULP energy -312155.319192 kJ/mol
# GULP energy per Si atom -5574.202128 kJ/mol
# Density = 1.588206 g / cm^3
# Si number density = 15.918295 Si / 1000 Ang^3
#
#
#
# Elastic Constant Matrix: (Units=GPa)
#
#
# Indices 1 2 3 4 5 6 
#
# 1 44.6674 6.5780 29.1348 0.0000 0.0000 0.0000
# 2 6.5780 16.2721 -8.3019 0.0000 0.0000 0.0000
# 3 29.1348 -8.3019 71.6897 0.0000 0.0000 0.0000
# 4 0.0000 0.0000 0.0000 22.3178 0.0000 0.0000
# 5 0.0000 0.0000 0.0000 0.0000 34.3687 0.0000
# 6 0.0000 0.0000 0.0000 0.0000 0.0000 9.1972
#
#
#
# Elastic Compliance Matrix: (Units=1/GPa)
#
#
# Indices 1 2 3 4 5 6 
#
# 1 0.037939 -0.024660 -0.018274 0.000000 0.000000 0.000000
# 2 -0.024660 0.081343 0.019442 0.000000 0.000000 0.000000
# 3 -0.018274 0.019442 0.023627 0.000000 0.000000 0.000000
# 4 0.000000 0.000000 0.000000 0.044807 0.000000 0.000000
# 5 0.000000 0.000000 0.000000 0.000000 0.029096 0.000000
# 6 0.000000 0.000000 0.000000 0.000000 0.000000 0.108729
#
#
# Mechanical properties :
#
#
# Convention : Reuss Voigt Hill
#
# Bulk Modulus (GPa) = 10.42500 20.82790 15.62645
# Shear Modulus (GPa) = 12.36092 20.19129 16.27610
#
# Velocity S-wave (km/s) = 2.78964 3.56537 3.20109
# Velocity P-wave (km/s) = 4.11575 5.48287 4.84774
#
# Compressibility (1/GPa) = 0.09592329
#
# Stress axis : x y z
#
# Youngs Moduli (GPa) = 26.35821 12.29368 42.32442
#
# Poissons Ratio (x) = 0.30316 0.77344
# Poissons Ratio (y) = 0.65000 -0.82285
# Poissons Ratio (z) = 0.48167 -0.23901
#
# Static dielectric constant tensor:
#      x y z
#    x 1.531820 0.000000 0.000000 
#    y 0.000000 1.515530 0.000000 
#    z 0.000000 0.000000 1.539860 
# 
# From -- ./inp_files/26670.got.cif
#   From: 2010.05.17/outbox.cif.g08.bks.cpg/sg53_14_cif.got.tgz:26670.got - 2010.06.03 12:45:16.
