data_PCOD9414395
_publ_section_title
;
Structure prediction by ZEFSAII (Michael W. Deem and Ramdas Pophale) SiO2 
 PCOD9414395
Probable space group: P M N A
;
_chemical_formula_sum "Si O2"
_cell_formula_units_Z 64
_cell_length_a 8.822785
_cell_length_b 19.235213
_cell_length_c 25.565435
_cell_angle_alpha 90.000000
_cell_angle_beta 90.000000
_cell_angle_gamma 90.000000
_cell_volume 4338.662645
_symmetry_space_group_name_H-M "P M N A"
_symmetry_group_IT_number 53
_symmetry_cell_setting 'orthorhombic'
loop_
_space_group_symop_operation_xyz
x,y,z
1/2-x,-y,1/2+z
x,-y,-z
1/2-x,y,1/2-z
-x,-y,-z
1/2+x,y,1/2-z
-x,y,z
1/2+x,-y,1/2+z
loop_
_atom_site_type_symbol
_atom_site_label
_atom_site_fract_x
_atom_site_fract_y
_atom_site_fract_z
Si Si1 0.682556 0.112059 0.489481
Si Si2 0.179007 0.404743 0.454221
Si Si3 0.680107 0.689756 0.398641
Si Si4 0.319916 0.056997 0.805785
Si Si5 0.182749 0.738261 0.508969
Si Si6 0.820378 0.549968 0.423717
Si Si7 0.817705 0.982776 0.085197
Si Si8 0.180924 0.778239 0.305567
O O1 0.500000 0.119766 0.490507
O O2 0.758113 0.185508 0.477624
O O3 0.728641 0.080415 0.546200
O O4 0.719281 0.053222 0.446490
O O5 0.236251 0.325517 0.453508
O O6 0.191329 0.427484 0.515137
O O7 0.239136 0.470528 0.421415
O O8 0.000000 0.402326 0.442185
O O9 0.500000 0.694274 0.403014
O O10 0.755231 0.719672 0.451464
O O11 0.731906 0.609529 0.393227
O O12 0.741402 0.735007 0.351094
O O13 0.250000 0.034712 0.750000
O O14 0.500000 0.047824 0.803655
O O15 0.254095 0.021540 0.857714
O O16 0.287162 0.139496 0.811878
O O17 0.000000 0.737171 0.507786
O O18 0.000000 0.552033 0.410871
O O19 0.000000 0.979402 0.089958
O O20 0.250000 0.756998 0.250000
O O21 0.000000 0.768699 0.306383
#
# Coordination Sequence:
#
# PCOD9414395 Si02
#       8
#     8   8   8   8   8   8   8   8
#     4   9  18  31  45  63  87 118 148 178 219 263
#     4   7  12  23  39  56  77 106 137 168 204 240
#     4  11  20  28  40  60  85 113 143 176 211 251
#     4  10  20  32  48  67  86 110 144 182 220 258
#     4  10  18  28  42  61  84 112 145 179 212 252
#     4   8  13  25  41  55  75 106 140 170 200 239
#     4   9  18  32  47  62  87 118 147 178 216 262
#     4  10  20  33  46  62  83 109 140 176 214 251
#
# _framework density 14.75109
#
# number of rings (size 3 to 8) (size 9 to 14) (size 15 to 20)
#    0.000    2.750    0.000    5.250    0.000    4.500 
#    0.000    6.875    0.000    0.000    0.000    0.000 
#    0.000    1.000    0.000    5.250    0.000    4.875 
#
# Total GULP energy -356373.964220 kJ/mol
# GULP energy per Si atom -5568.343191 kJ/mol
# Density = 1.471752 g / cm^3
# Si number density = 14.751090 Si / 1000 Ang^3
#
#
#
# Elastic Constant Matrix: (Units=GPa)
#
#
# Indices 1 2 3 4 5 6 
#
# 1 36.8709 32.8238 26.0434 0.0000 0.0000 0.0000
# 2 32.8238 95.9237 28.8111 0.0000 0.0000 0.0000
# 3 26.0434 28.8111 70.4450 0.0000 0.0000 0.0000
# 4 0.0000 0.0000 0.0000 15.5086 0.0000 0.0000
# 5 0.0000 0.0000 0.0000 0.0000 20.2202 0.0000
# 6 0.0000 0.0000 0.0000 0.0000 0.0000 91.5143
#
#
#
# Elastic Compliance Matrix: (Units=1/GPa)
#
#
# Indices 1 2 3 4 5 6 
#
# 1 0.046729 -0.012314 -0.012239 0.000000 0.000000 0.000000
# 2 -0.012314 0.015130 -0.001635 0.000000 0.000000 0.000000
# 3 -0.012239 -0.001635 0.019389 0.000000 0.000000 0.000000
# 4 0.000000 0.000000 0.000000 0.064480 0.000000 0.000000
# 5 0.000000 0.000000 0.000000 0.000000 0.049455 0.000000
# 6 0.000000 0.000000 0.000000 0.000000 0.000000 0.010927
#
#
# Mechanical properties :
#
#
# Convention : Reuss Voigt Hill
#
# Bulk Modulus (GPa) = 34.63733 42.06623 38.35178
# Shear Modulus (GPa) = 18.64889 33.15272 25.90080
#
# Velocity S-wave (km/s) = 3.55947 4.74590 4.19484
# Velocity P-wave (km/s) = 6.35809 7.65576 7.03690
#
# Compressibility (1/GPa) = 0.02887059
#
# Stress axis : x y z
#
# Youngs Moduli (GPa) = 21.39991 66.09466 51.57492
#
# Poissons Ratio (x) = 0.81388 0.63125
# Poissons Ratio (y) = 0.26352 0.08435
# Poissons Ratio (z) = 0.26192 0.10810
#
# Static dielectric constant tensor:
#      x y z
#    x 1.489500 0.000000 0.000000 
#    y 0.000000 1.525040 0.000000 
#    z 0.000000 0.000000 1.530110 
# 
# From -- ./inp_files/34433.got.cif
#   From: 2010.05.17/outbox.cif.g08.bks.cpg/sg53_18_cif.got.tgz:34433.got - 2010.06.03 12:45:16.
