data_PCOD9414925
_publ_section_title
;
Structure prediction by ZEFSAII (Michael W. Deem and Ramdas Pophale) SiO2 
 PCOD9414925
Probable space group: P M N A
;
_chemical_formula_sum "Si O2"
_cell_formula_units_Z 64
_cell_length_a 8.463969
_cell_length_b 12.453222
_cell_length_c 32.146669
_cell_angle_alpha 90.000000
_cell_angle_beta 90.000000
_cell_angle_gamma 90.000000
_cell_volume 3388.377372
_symmetry_space_group_name_H-M "P M N A"
_symmetry_group_IT_number 53
_symmetry_cell_setting 'orthorhombic'
loop_
_space_group_symop_operation_xyz
x,y,z
1/2-x,-y,1/2+z
x,-y,-z
1/2-x,y,1/2-z
-x,-y,-z
1/2+x,y,1/2-z
-x,y,z
1/2+x,-y,1/2+z
loop_
_atom_site_type_symbol
_atom_site_label
_atom_site_fract_x
_atom_site_fract_y
_atom_site_fract_z
Si Si1 0.314041 0.744336 0.937608
Si Si2 0.314194 0.250683 0.205271
Si Si3 0.307967 0.636218 0.390091
Si Si4 0.187762 0.597825 0.865213
Si Si5 0.688600 0.377170 0.513683
Si Si6 0.811596 0.987087 0.796256
Si Si7 0.690997 0.012678 0.048333
Si Si8 0.691462 0.126214 0.624988
O O1 0.500000 0.738521 0.927556
O O2 0.221466 0.664525 0.907223
O O3 0.263056 0.868384 0.935543
O O4 0.282585 0.702354 0.983987
O O5 0.250000 0.285450 0.250000
O O6 0.500000 0.232845 0.207823
O O7 0.272441 0.337914 0.171110
O O8 0.235440 0.136142 0.195282
O O9 0.500000 0.633435 0.388602
O O10 0.254426 0.524617 0.369911
O O11 0.264602 0.634959 0.438597
O O12 0.256386 0.749858 0.371674
O O13 0.000000 0.597031 0.857799
O O14 0.715503 0.500000 0.500000
O O15 0.500000 0.356134 0.509655
O O16 0.750000 0.015286 0.750000
O O17 0.753285 0.059170 0.834757
O O18 0.000000 0.994907 0.794960
O O19 0.500000 0.007415 0.048105
O O20 0.753427 0.926428 0.081518
O O21 0.743236 0.000000 0.000000
O O22 0.500000 0.124233 0.624583
#
# Coordination Sequence:
#
# PCOD9414925 Si02
#       8
#     8   8   8   8   8   8   8   8
#     4  11  22  34  52  80 110 142 183 233 279 326
#     4  11  22  38  60  87 115 142 176 220 273 330
#     4   9  19  36  56  78 109 147 187 231 276 327
#     4  11  21  37  58  80 110 146 182 224 273 325
#     4  10  18  33  54  77 104 145 191 231 277 330
#     4  10  20  36  60  88 114 143 182 226 278 336
#     4  10  22  38  53  75 112 151 185 226 282 337
#     4  10  21  37  58  83 109 144 190 234 279 335
#
# _framework density 18.888096000000001
#
# number of rings (size 3 to 8) (size 9 to 14) (size 15 to 20)
#    0.000    1.750    1.250    4.500    0.000    4.500 
#    0.000    1.875    0.000    1.500    0.000    0.000 
#    0.000    0.000    0.000    0.000    0.000    0.000 
#
# Total GULP energy -357469.168668 kJ/mol
# GULP energy per Si atom -5585.455760 kJ/mol
# Density = 1.884511 g / cm^3
# Si number density = 18.888096 Si / 1000 Ang^3
#
#
#
# Elastic Constant Matrix: (Units=GPa)
#
#
# Indices 1 2 3 4 5 6 
#
# 1 22.1295 8.3600 6.7724 0.0000 0.0000 0.0000
# 2 8.3600 108.8450 67.9394 0.0000 0.0000 0.0000
# 3 6.7724 67.9394 118.8246 0.0000 0.0000 0.0000
# 4 0.0000 0.0000 0.0000 34.2270 0.0000 0.0000
# 5 0.0000 0.0000 0.0000 0.0000 30.9190 0.0000
# 6 0.0000 0.0000 0.0000 0.0000 0.0000 -13.2162
#
#
#
# Elastic Compliance Matrix: (Units=1/GPa)
#
#
# Indices 1 2 3 4 5 6 
#
# 1 0.046607 -0.002988 -0.000948 0.000000 0.000000 0.000000
# 2 -0.002988 0.014477 -0.008107 0.000000 0.000000 0.000000
# 3 -0.000948 -0.008107 0.013105 0.000000 0.000000 0.000000
# 4 0.000000 0.000000 0.000000 0.029217 0.000000 0.000000
# 5 0.000000 0.000000 0.000000 0.000000 0.032343 0.000000
# 6 0.000000 0.000000 0.000000 0.000000 0.000000 -0.075665
#
#
# Mechanical properties :
#
#
# Convention : Reuss Voigt Hill
#
# Bulk Modulus (GPa) = 19.95872 46.21587 33.08729
# Shear Modulus (GPa) = 49.56771 21.50113 35.53442
#
# Velocity S-wave (km/s) = 5.12833 3.37759 4.34212
# Velocity P-wave (km/s) = 6.75693 6.30335 6.53408
#
# Compressibility (1/GPa) = 0.05010342
#
# Stress axis : x y z
#
# Youngs Moduli (GPa) = 21.45580 69.07360 76.30549
#
# Poissons Ratio (x) = 0.20640 0.07233
# Poissons Ratio (y) = 0.06411 0.61863
# Poissons Ratio (z) = 0.02034 0.56000
#
# Static dielectric constant tensor:
#      x y z
#    x 1.654750 0.000000 0.000000 
#    y 0.000000 1.660100 0.000000 
#    z 0.000000 0.000000 1.663930 
# 
# From -- ./inp_files/38240.got.cif
#   From: 2010.05.17/outbox.cif.g08.bks.cpg/sg53_20_cif.got.tgz:38240.got - 2010.06.03 12:45:16.
