data_PCOD9414884
_publ_section_title
;
Structure prediction by ZEFSAII (Michael W. Deem and Ramdas Pophale) SiO2 
 PCOD9414884
Probable space group: P M N A
;
_chemical_formula_sum "Si O2"
_cell_formula_units_Z 24
_cell_length_a 5.624343
_cell_length_b 11.240622
_cell_length_c 14.128349
_cell_angle_alpha 90.000000
_cell_angle_beta 90.000000
_cell_angle_gamma 90.000000
_cell_volume 893.209958
_symmetry_space_group_name_H-M "P M N A"
_symmetry_group_IT_number 53
_symmetry_cell_setting 'orthorhombic'
loop_
_space_group_symop_operation_xyz
x,y,z
1/2-x,-y,1/2+z
x,-y,-z
1/2-x,y,1/2-z
-x,-y,-z
1/2+x,y,1/2-z
-x,y,z
1/2+x,-y,1/2+z
loop_
_atom_site_type_symbol
_atom_site_label
_atom_site_fract_x
_atom_site_fract_y
_atom_site_fract_z
Si Si1 0.500000 0.581915 0.097442
Si Si2 0.500000 0.413035 0.590265
Si Si3 0.000000 0.909360 0.603140
Si Si4 0.000000 0.702857 0.764932
Si Si5 0.000000 0.817994 0.966786
Si Si6 0.000000 0.173518 0.689525
O O1 0.755569 0.560489 0.140478
O O2 0.500000 0.727243 0.105670
O O3 0.500000 0.500000 0.000000
O O4 0.500000 0.500000 0.500000
O O5 0.500000 0.276890 0.551768
O O6 0.248162 0.886849 0.546313
O O7 0.000000 0.815268 0.691291
O O8 0.000000 0.040314 0.648029
O O9 0.750000 0.643501 0.750000
O O10 0.000000 0.739498 0.872882
O O11 0.750000 0.186172 0.750000
#
# Coordination Sequence:
#
# PCOD9414884 Si02
#       6
#     4   4   4   4   4   4
#     4  10  23  44  67  91 130 176 223 287 343 388
#     4  10  21  40  64  85 119 176 228 273 320 384
#     4  10  19  33  55  91 133 167 207 268 331 397
#     4   8  14  25  44  71 110 151 186 234 298 361
#     4  10  18  32  56  86 125 168 210 257 323 392
#     4  12  23  40  69 102 130 172 226 277 334 410
#
# _framework density 26.869381000000001
#
# number of rings (size 3 to 8) (size 9 to 14) (size 15 to 20)
#    0.000    2.000    0.000    6.000    0.000    0.000 
#    0.000    5.000    0.000   72.000    0.000    0.000 
#    0.000    0.000    0.000    0.000    0.000    0.000 
#
# Total GULP energy -133821.966111 kJ/mol
# GULP energy per Si atom -5575.915255 kJ/mol
# Density = 2.680823 g / cm^3
# Si number density = 26.869381 Si / 1000 Ang^3
#
#
#
# Elastic Constant Matrix: (Units=GPa)
#
#
# Indices 1 2 3 4 5 6 
#
# 1 370.9445 52.5989 58.7932 0.0000 0.0000 0.0000
# 2 52.5989 224.5722 89.4373 0.0000 0.0000 0.0000
# 3 58.7932 89.4373 116.6699 0.0000 0.0000 0.0000
# 4 0.0000 0.0000 0.0000 82.4157 0.0000 0.0000
# 5 0.0000 0.0000 0.0000 0.0000 0.8449 0.0000
# 6 0.0000 0.0000 0.0000 0.0000 0.0000 14.9947
#
#
#
# Elastic Compliance Matrix: (Units=1/GPa)
#
#
# Indices 1 2 3 4 5 6 
#
# 1 0.002933 -0.000142 -0.001369 0.000000 0.000000 0.000000
# 2 -0.000142 0.006417 -0.004848 0.000000 0.000000 0.000000
# 3 -0.001369 -0.004848 0.012977 0.000000 0.000000 0.000000
# 4 0.000000 0.000000 0.000000 0.012134 0.000000 0.000000
# 5 0.000000 0.000000 0.000000 0.000000 1.183553 0.000000
# 6 0.000000 0.000000 0.000000 0.000000 0.000000 0.066690
#
#
# Mechanical properties :
#
#
# Convention : Reuss Voigt Hill
#
# Bulk Modulus (GPa) = 104.06072 123.76061 113.91066
# Shear Modulus (GPa) = 3.84431 53.74152 28.79292
#
# Velocity S-wave (km/s) = 1.19743 4.47710 3.27706
# Velocity P-wave (km/s) = 6.38155 8.53733 7.53692
#
# Compressibility (1/GPa) = 0.00960977
#
# Stress axis : x y z
#
# Youngs Moduli (GPa) = 340.95369 155.84480 77.05707
#
# Poissons Ratio (x) = 0.02206 0.10553
# Poissons Ratio (y) = 0.04826 0.37354
# Poissons Ratio (z) = 0.46693 0.75547
#
# Static dielectric constant tensor:
#      x y z
#    x 2.113460 0.000000 0.000000 
#    y 0.000000 2.166910 0.000000 
#    z 0.000000 0.000000 2.061330 
# 
# From -- ./inp_files/25313.got.cif
#   From: 2010.05.17/outbox.cif.g08.bks.cpg/sg53_13_cif.got.tgz:25313.got - 2010.06.03 12:45:16.
