data_PCOD9414140
_publ_section_title
;
Structure prediction by ZEFSAII (Michael W. Deem and Ramdas Pophale) SiO2 
 PCOD9414140
Probable space group: P M N A
;
_chemical_formula_sum "Si O2"
_cell_formula_units_Z 64
_cell_length_a 14.067560
_cell_length_b 18.236930
_cell_length_c 11.303630
_cell_angle_alpha 90.000000
_cell_angle_beta 90.000000
_cell_angle_gamma 90.000000
_cell_volume 2899.936182
_symmetry_space_group_name_H-M "P M N A"
_symmetry_group_IT_number 53
_symmetry_cell_setting 'orthorhombic'
loop_
_space_group_symop_operation_xyz
x,y,z
1/2-x,-y,1/2+z
x,-y,-z
1/2-x,y,1/2-z
-x,-y,-z
1/2+x,y,1/2-z
-x,y,z
1/2+x,-y,1/2+z
loop_
_atom_site_type_symbol
_atom_site_label
_atom_site_fract_x
_atom_site_fract_y
_atom_site_fract_z
Si Si1 0.391784 0.833940 0.831022
Si Si2 0.610456 0.015409 0.238149
Si Si3 0.185379 0.103875 0.560749
Si Si4 0.605372 0.096179 0.545145
Si Si5 0.115134 0.361582 0.671035
Si Si6 0.109331 0.788273 0.249176
Si Si7 0.610594 0.481790 0.141198
Si Si8 0.883163 0.323549 0.402286
O O1 0.500000 0.820391 0.793547
O O2 0.356847 0.900845 0.750227
O O3 0.348063 0.753117 0.847252
O O4 0.387386 0.872773 0.959520
O O5 0.500000 0.015629 0.201251
O O6 0.664272 0.968880 0.137415
O O7 0.611458 0.971024 0.360747
O O8 0.287566 0.099175 0.498093
O O9 0.174472 0.167576 0.659148
O O10 0.500000 0.092632 0.486581
O O11 0.604437 0.168736 0.627089
O O12 0.137555 0.296274 0.760471
O O13 0.150758 0.443488 0.696323
O O14 0.143180 0.332035 0.540777
O O15 0.000000 0.368761 0.667156
O O16 0.000000 0.790987 0.297472
O O17 0.500000 0.476193 0.176652
O O18 0.649773 0.399852 0.157354
O O19 0.612036 0.500000 0.000000
O O20 0.000000 0.322299 0.400357
#
# Coordination Sequence:
#
# PCOD9414140 Si02
#       8
#     8   8   8   8   8   8   8   8
#     4  10  17  24  38  61  84 103 123 155 198 240
#     4   9  17  27  39  57  79  99 121 153 196 239
#     4  11  17  25  39  54  74  99 130 161 192 234
#     4   9  19  31  40  51  71 102 135 164 194 231
#     4   8  11  16  27  44  69 100 126 140 158 201
#     4   9  14  21  34  52  73  95 122 153 184 221
#     4   7  10  15  24  39  65 103 130 135 149 197
#     4   8  12  18  27  45  74 103 124 139 166 213
#
# _framework density 22.069451000000001
#
# number of rings (size 3 to 8) (size 9 to 14) (size 15 to 20)
#    0.000    3.125    1.250    5.250    0.000    1.000 
#    0.000    0.000    0.000    1.500    0.000    0.000 
#    0.000    4.000    0.000    3.250    0.000    1.125 
#
# Total GULP energy -356560.064965 kJ/mol
# GULP energy per Si atom -5571.251015 kJ/mol
# Density = 2.201922 g / cm^3
# Si number density = 22.069451 Si / 1000 Ang^3
#
#
#
# Elastic Constant Matrix: (Units=GPa)
#
#
# Indices 1 2 3 4 5 6 
#
# 1 99.5582 4.3164 12.5874 0.0000 0.0000 0.0000
# 2 4.3164 227.6524 14.7367 0.0000 0.0000 0.0000
# 3 12.5874 14.7367 29.8071 0.0000 0.0000 0.0000
# 4 0.0000 0.0000 0.0000 11.4372 0.0000 0.0000
# 5 0.0000 0.0000 0.0000 0.0000 17.3147 0.0000
# 6 0.0000 0.0000 0.0000 0.0000 0.0000 -13.7642
#
#
#
# Elastic Compliance Matrix: (Units=1/GPa)
#
#
# Indices 1 2 3 4 5 6 
#
# 1 0.010613 0.000092 -0.004527 0.000000 0.000000 0.000000
# 2 0.000092 0.004539 -0.002283 0.000000 0.000000 0.000000
# 3 -0.004527 -0.002283 0.036589 0.000000 0.000000 0.000000
# 4 0.000000 0.000000 0.000000 0.087434 0.000000 0.000000
# 5 0.000000 0.000000 0.000000 0.000000 0.057754 0.000000
# 6 0.000000 0.000000 0.000000 0.000000 0.000000 -0.072652
#
#
# Mechanical properties :
#
#
# Convention : Reuss Voigt Hill
#
# Bulk Modulus (GPa) = 26.10633 46.69984 36.40309
# Shear Modulus (GPa) = 33.22672 24.68936 28.95804
#
# Velocity S-wave (km/s) = 3.88435 3.34834 3.62627
# Velocity P-wave (km/s) = 5.65442 6.01289 5.83641
#
# Compressibility (1/GPa) = 0.03830489
#
# Stress axis : x y z
#
# Youngs Moduli (GPa) = 94.22607 220.32793 27.33025
#
# Poissons Ratio (x) = -0.02023 0.12373
# Poissons Ratio (y) = -0.00865 0.06239
# Poissons Ratio (z) = 0.42658 0.50295
#
# Static dielectric constant tensor:
#      x y z
#    x 1.867890 0.000000 0.000000 
#    y 0.000000 1.885520 0.000000 
#    z 0.000000 0.000000 1.816910 
# 
# From -- ./inp_files/23041.got.cif
#   From: 2010.05.17/outbox.cif.g08.bks.cpg/sg53_12_cif.got.tgz:23041.got - 2010.06.03 12:45:16.
