data_PCOD9414439
_publ_section_title
;
Structure prediction by ZEFSAII (Michael W. Deem and Ramdas Pophale) SiO2 
 PCOD9414439
Probable space group: P M N A
;
_chemical_formula_sum "Si O2"
_cell_formula_units_Z 64
_cell_length_a 8.927955
_cell_length_b 17.199779
_cell_length_c 24.470759
_cell_angle_alpha 90.000000
_cell_angle_beta 90.000000
_cell_angle_gamma 90.000000
_cell_volume 3757.701682
_symmetry_space_group_name_H-M "P M N A"
_symmetry_group_IT_number 53
_symmetry_cell_setting 'orthorhombic'
loop_
_space_group_symop_operation_xyz
x,y,z
1/2-x,-y,1/2+z
x,-y,-z
1/2-x,y,1/2-z
-x,-y,-z
1/2+x,y,1/2-z
-x,y,z
1/2+x,-y,1/2+z
loop_
_atom_site_type_symbol
_atom_site_label
_atom_site_fract_x
_atom_site_fract_y
_atom_site_fract_z
Si Si1 0.824867 0.877539 0.805567
Si Si2 0.178726 0.821107 0.524686
Si Si3 0.319213 0.146323 0.585464
Si Si4 0.179684 0.757884 0.189913
Si Si5 0.679891 0.734442 0.866350
Si Si6 0.323120 0.033226 0.417312
Si Si7 0.819883 0.573141 0.689166
Si Si8 0.179201 0.416514 0.810527
O O1 0.750000 0.904896 0.750000
O O2 0.751217 0.797261 0.825618
O O3 0.806661 0.937969 0.855008
O O4 0.000000 0.864740 0.796576
O O5 0.252807 0.808097 0.466065
O O6 0.224379 0.760379 0.572371
O O7 0.233280 0.905410 0.546356
O O8 0.000000 0.820217 0.520007
O O9 0.500000 0.149843 0.583679
O O10 0.271089 0.181440 0.643683
O O11 0.275640 0.055970 0.578992
O O12 0.250000 0.768404 0.250000
O O13 0.211458 0.670166 0.168113
O O14 0.000000 0.763543 0.196276
O O15 0.500000 0.741814 0.863053
O O16 0.719291 0.647944 0.847308
O O17 0.500000 0.038905 0.431898
O O18 0.750000 0.583227 0.750000
O O19 0.754260 0.493124 0.664404
O O20 0.000000 0.567700 0.694025
O O21 0.250000 0.414608 0.750000
O O22 0.000000 0.426613 0.807954
#
# Coordination Sequence:
#
# PCOD9414439 Si02
#       8
#     8   8   8   8   8   8   8   8
#     4  10  19  30  45  66  94 128 161 192 233 282
#     4  10  20  34  51  72  96 122 158 202 241 276
#     4  10  20  35  53  72  95 124 158 195 236 283
#     4   9  19  34  52  74 100 127 155 191 235 283
#     4   9  19  33  47  66  95 127 159 197 235 275
#     4   9  19  34  50  68  93 127 162 196 237 283
#     4  10  18  28  45  70  97 125 156 190 230 276
#     4   9  16  28  46  69  96 124 154 189 230 275
#
# _framework density 17.031687999999999
#
# number of rings (size 3 to 8) (size 9 to 14) (size 15 to 20)
#    0.000    2.500    0.000    3.000    0.000    6.500 
#    0.000    0.000    0.000    0.750    0.000    5.250 
#    0.000    0.000    0.000    0.000    0.000    0.000 
#
# Total GULP energy -356763.895135 kJ/mol
# GULP energy per Si atom -5574.435861 kJ/mol
# Density = 1.699292 g / cm^3
# Si number density = 17.031688 Si / 1000 Ang^3
#
#
#
# Elastic Constant Matrix: (Units=GPa)
#
#
# Indices 1 2 3 4 5 6 
#
# 1 25.7219 19.5272 26.4037 0.0000 0.0000 0.0000
# 2 19.5272 64.4508 33.6409 0.0000 0.0000 0.0000
# 3 26.4037 33.6409 92.8273 0.0000 0.0000 0.0000
# 4 0.0000 0.0000 0.0000 13.1308 0.0000 0.0000
# 5 0.0000 0.0000 0.0000 0.0000 26.2287 0.0000
# 6 0.0000 0.0000 0.0000 0.0000 0.0000 8.6016
#
#
#
# Elastic Compliance Matrix: (Units=1/GPa)
#
#
# Indices 1 2 3 4 5 6 
#
# 1 0.061297 -0.011681 -0.013202 0.000000 0.000000 0.000000
# 2 -0.011681 0.021361 -0.004419 0.000000 0.000000 0.000000
# 3 -0.013202 -0.004419 0.016129 0.000000 0.000000 0.000000
# 4 0.000000 0.000000 0.000000 0.076157 0.000000 0.000000
# 5 0.000000 0.000000 0.000000 0.000000 0.038126 0.000000
# 6 0.000000 0.000000 0.000000 0.000000 0.000000 0.116257
#
#
# Mechanical properties :
#
#
# Convention : Reuss Voigt Hill
#
# Bulk Modulus (GPa) = 24.88549 38.01596 31.45073
# Shear Modulus (GPa) = 12.45870 16.48745 14.47307
#
# Velocity S-wave (km/s) = 2.70756 3.11472 2.91825
# Velocity P-wave (km/s) = 4.94141 5.94176 5.46452
#
# Compressibility (1/GPa) = 0.04018405
#
# Stress axis : x y z
#
# Youngs Moduli (GPa) = 16.31402 46.81381 61.99896
#
# Poissons Ratio (x) = 0.54682 0.81852
# Poissons Ratio (y) = 0.19056 0.27397
# Poissons Ratio (z) = 0.21538 0.20687
#
# Static dielectric constant tensor:
#      x y z
#    x 1.572180 0.000000 0.000000 
#    y 0.000000 1.598560 0.000000 
#    z 0.000000 0.000000 1.568410 
# 
# From -- ./inp_files/34488.got.cif
#   From: 2010.05.17/outbox.cif.g08.bks.cpg/sg53_18_cif.got.tgz:34488.got - 2010.06.03 12:45:16.
