data_PCOD9414892
_publ_section_title
;
Structure prediction by ZEFSAII (Michael W. Deem and Ramdas Pophale) SiO2 
 PCOD9414892
Probable space group: P M N A
;
_chemical_formula_sum "Si O2"
_cell_formula_units_Z 48
_cell_length_a 14.257691
_cell_length_b 15.897203
_cell_length_c 10.653764
_cell_angle_alpha 90.000000
_cell_angle_beta 90.000000
_cell_angle_gamma 90.000000
_cell_volume 2414.754535
_symmetry_space_group_name_H-M "P M N A"
_symmetry_group_IT_number 53
_symmetry_cell_setting 'orthorhombic'
loop_
_space_group_symop_operation_xyz
x,y,z
1/2-x,-y,1/2+z
x,-y,-z
1/2-x,y,1/2-z
-x,-y,-z
1/2+x,y,1/2-z
-x,y,z
1/2+x,-y,1/2+z
loop_
_atom_site_type_symbol
_atom_site_label
_atom_site_fract_x
_atom_site_fract_y
_atom_site_fract_z
Si Si1 0.643450 0.214059 0.728738
Si Si2 0.614341 0.935076 0.888745
Si Si3 0.809731 0.586864 0.437012
Si Si4 0.106709 0.758918 0.513530
Si Si5 0.613230 0.970843 0.363663
Si Si6 0.895470 0.609687 0.160062
O O1 0.750000 0.241160 0.750000
O O2 0.601814 0.210282 0.868241
O O3 0.641599 0.124489 0.664117
O O4 0.599421 0.288964 0.649855
O O5 0.500000 0.930896 0.891813
O O6 0.642490 0.972115 0.754194
O O7 0.647174 0.839747 0.913895
O O8 0.640406 0.000000 0.000000
O O9 0.839484 0.500000 0.500000
O O10 0.835849 0.672028 0.512282
O O11 0.865925 0.594090 0.305353
O O12 0.697319 0.582652 0.414967
O O13 0.000000 0.741614 0.555551
O O14 0.500000 0.972525 0.364697
O O15 0.646260 0.000000 0.500000
O O16 0.000000 0.575331 0.133145
#
# Coordination Sequence:
#
# PCOD9414892 Si02
#       6
#     8   8   8   8   8   8
#     4  11  18  33  53  81 111 146 195 248 292 353
#     4   9  16  29  54  83 111 149 197 246 293 348
#     4  10  20  36  58  88 119 150 195 253 300 355
#     4  10  18  32  57  85 113 150 200 250 300 353
#     4  10  20  34  53  79 116 157 198 245 298 358
#     4  10  20  36  60  88 116 151 196 245 301 366
#
# _framework density 19.877797999999999
#
# number of rings (size 3 to 8) (size 9 to 14) (size 15 to 20)
#    0.000    2.000    5.000    3.000    0.000    1.667 
#    3.000    0.000    7.333    0.000    0.000    0.000 
#    0.000    0.000    0.000    0.000    0.000    0.167 
#
# Total GULP energy -267761.937464 kJ/mol
# GULP energy per Si atom -5578.373697 kJ/mol
# Density = 1.983256 g / cm^3
# Si number density = 19.877798 Si / 1000 Ang^3
#
#
#
# Elastic Constant Matrix: (Units=GPa)
#
#
# Indices 1 2 3 4 5 6 
#
# 1 113.1842 12.0466 -0.2160 0.0000 0.0000 0.0000
# 2 12.0466 148.5034 51.4460 0.0000 0.0000 0.0000
# 3 -0.2160 51.4460 69.1118 0.0000 0.0000 0.0000
# 4 0.0000 0.0000 0.0000 22.9814 0.0000 0.0000
# 5 0.0000 0.0000 0.0000 0.0000 -2.6803 0.0000
# 6 0.0000 0.0000 0.0000 0.0000 0.0000 31.1923
#
#
#
# Elastic Compliance Matrix: (Units=1/GPa)
#
#
# Indices 1 2 3 4 5 6 
#
# 1 0.008942 -0.000990 0.000765 0.000000 0.000000 0.000000
# 2 -0.000990 0.009183 -0.006839 0.000000 0.000000 0.000000
# 3 0.000765 -0.006839 0.019563 0.000000 0.000000 0.000000
# 4 0.000000 0.000000 0.000000 0.043513 0.000000 0.000000
# 5 0.000000 0.000000 0.000000 0.000000 -0.373097 0.000000
# 6 0.000000 0.000000 0.000000 0.000000 0.000000 0.032059
#
#
# Mechanical properties :
#
#
# Convention : Reuss Voigt Hill
#
# Bulk Modulus (GPa) = 42.44589 50.81696 46.63143
# Shear Modulus (GPa) = -21.02124 28.13355 3.55616
#
# Velocity S-wave (km/s) = -3.25549 3.76616 1.33899
# Velocity P-wave (km/s) = 2.69608 6.67324 5.08925
#
# Compressibility (1/GPa) = 0.02355941
#
# Stress axis : x y z
#
# Youngs Moduli (GPa) = 111.83138 108.89110 51.11772
#
# Poissons Ratio (x) = 0.10786 -0.03912
# Poissons Ratio (y) = 0.11077 0.34960
# Poissons Ratio (z) = -0.08558 0.74472
#
# Static dielectric constant tensor:
#      x y z
#    x 1.765000 0.000000 0.000000 
#    y 0.000000 1.698460 0.000000 
#    z 0.000000 0.000000 1.698450 
# 
# From -- ./inp_files/15915.got.cif
#   From: 2010.05.17/outbox.cif.g08.bks.cpg/sg53_8_cif.got.tgz:15915.got - 2010.06.03 12:45:16.
