data_PCOD9414090
_publ_section_title
;
Structure prediction by ZEFSAII (Michael W. Deem and Ramdas Pophale) SiO2 
 PCOD9414090
Probable space group: P M N A
;
_chemical_formula_sum "Si O2"
_cell_formula_units_Z 64
_cell_length_a 21.391551
_cell_length_b 9.459773
_cell_length_c 17.743718
_cell_angle_alpha 90.000000
_cell_angle_beta 90.000000
_cell_angle_gamma 90.000000
_cell_volume 3590.604874
_symmetry_space_group_name_H-M "P M N A"
_symmetry_group_IT_number 53
_symmetry_cell_setting 'orthorhombic'
loop_
_space_group_symop_operation_xyz
x,y,z
1/2-x,-y,1/2+z
x,-y,-z
1/2-x,y,1/2-z
-x,-y,-z
1/2+x,y,1/2-z
-x,y,z
1/2+x,-y,1/2+z
loop_
_atom_site_type_symbol
_atom_site_label
_atom_site_fract_x
_atom_site_fract_y
_atom_site_fract_z
Si Si1 0.930423 0.640758 0.709707
Si Si2 0.367473 0.208544 0.914465
Si Si3 0.302136 0.236659 0.682887
Si Si4 0.202971 0.717905 0.681492
Si Si5 0.928289 0.307842 0.735004
Si Si6 0.765047 0.004503 0.409869
Si Si7 0.262073 0.449342 0.915709
Si Si8 0.930272 0.355145 0.469174
O O1 0.866512 0.729328 0.718271
O O2 0.921569 0.478885 0.736874
O O3 0.933817 0.636574 0.619151
O O4 0.000000 0.689598 0.736156
O O5 0.415652 0.256705 0.850736
O O6 0.311903 0.322806 0.916040
O O7 0.333460 0.064101 0.897868
O O8 0.396016 0.220466 0.997372
O O9 0.250000 0.246969 0.750000
O O10 0.371496 0.239467 0.717744
O O11 0.294023 0.375639 0.630500
O O12 0.283603 0.096794 0.635066
O O13 0.250000 0.703566 0.750000
O O14 0.227735 0.843383 0.628070
O O15 0.207782 0.576979 0.631087
O O16 0.000000 0.273961 0.756579
O O17 0.752257 0.000000 0.500000
O O18 0.246436 0.500000 0.000000
O O19 0.900546 0.500000 0.500000
O O20 0.000000 0.351350 0.501171
#
# Coordination Sequence:
#
# PCOD9414090 Si02
#       8
#     8   8   8   8   8   8   8   8
#     4  10  19  32  50  80 116 148 183 225 275 335
#     4  11  19  32  54  79 117 144 191 227 273 336
#     4  11  20  39  60  84 115 150 195 251 280 334
#     4  12  22  35  55  80 112 149 186 226 286 339
#     4  11  20  33  59  88 112 149 196 241 284 336
#     4  11  24  38  57  80 113 150 190 239 294 340
#     4  11  20  32  57  86 115 148 190 236 284 332
#     4  10  16  25  45  75 109 144 176 211 254 315
#
# _framework density 17.824294999999999
#
# number of rings (size 3 to 8) (size 9 to 14) (size 15 to 20)
#    0.000    1.125    5.000    5.250    0.000    0.000 
#    0.000    1.250    0.000    4.125    0.000    1.750 
#    0.000    0.000    0.000    0.000    0.000    0.000 
#
# Total GULP energy -356826.001154 kJ/mol
# GULP energy per Si atom -5575.406268 kJ/mol
# Density = 1.778373 g / cm^3
# Si number density = 17.824295 Si / 1000 Ang^3
#
#
#
# Elastic Constant Matrix: (Units=GPa)
#
#
# Indices 1 2 3 4 5 6 
#
# 1 118.4076 13.0333 39.6146 0.0000 0.0000 0.0000
# 2 13.0333 45.1220 16.7103 0.0000 0.0000 0.0000
# 3 39.6146 16.7103 71.7580 0.0000 0.0000 0.0000
# 4 0.0000 0.0000 0.0000 22.4252 0.0000 0.0000
# 5 0.0000 0.0000 0.0000 0.0000 22.9148 0.0000
# 6 0.0000 0.0000 0.0000 0.0000 0.0000 14.8718
#
#
#
# Elastic Compliance Matrix: (Units=1/GPa)
#
#
# Indices 1 2 3 4 5 6 
#
# 1 0.010396 -0.000960 -0.005516 0.000000 0.000000 0.000000
# 2 -0.000960 0.024342 -0.005138 0.000000 0.000000 0.000000
# 3 -0.005516 -0.005138 0.018177 0.000000 0.000000 0.000000
# 4 0.000000 0.000000 0.000000 0.044593 0.000000 0.000000
# 5 0.000000 0.000000 0.000000 0.000000 0.043640 0.000000
# 6 0.000000 0.000000 0.000000 0.000000 0.000000 0.067241
#
#
# Mechanical properties :
#
#
# Convention : Reuss Voigt Hill
#
# Bulk Modulus (GPa) = 33.68464 41.55598 37.62031
# Shear Modulus (GPa) = 20.70264 23.10433 21.90348
#
# Velocity S-wave (km/s) = 3.41175 3.60422 3.50931
# Velocity P-wave (km/s) = 5.87020 6.37851 6.12963
#
# Compressibility (1/GPa) = 0.02968712
#
# Stress axis : x y z
#
# Youngs Moduli (GPa) = 96.18626 41.08049 55.01333
#
# Poissons Ratio (x) = 0.03945 0.30345
# Poissons Ratio (y) = 0.09236 0.28269
# Poissons Ratio (z) = 0.53055 0.21109
#
# Static dielectric constant tensor:
#      x y z
#    x 1.678570 0.000000 0.000000 
#    y 0.000000 1.663720 0.000000 
#    z 0.000000 0.000000 1.688950 
# 
# From -- ./inp_files/29393.got.cif
#   From: 2010.05.17/outbox.cif.g08.bks.cpg/sg53_15_cif.got.tgz:29393.got - 2010.06.03 12:45:16.
