data_PCOD9414718
_publ_section_title
;
Structure prediction by ZEFSAII (Michael W. Deem and Ramdas Pophale) SiO2 
 PCOD9414718
Probable space group: P M N A
;
_chemical_formula_sum "Si O2"
_cell_formula_units_Z 64
_cell_length_a 9.055582
_cell_length_b 11.265299
_cell_length_c 34.321273
_cell_angle_alpha 90.000000
_cell_angle_beta 90.000000
_cell_angle_gamma 90.000000
_cell_volume 3501.244813
_symmetry_space_group_name_H-M "P M N A"
_symmetry_group_IT_number 53
_symmetry_cell_setting 'orthorhombic'
loop_
_space_group_symop_operation_xyz
x,y,z
1/2-x,-y,1/2+z
x,-y,-z
1/2-x,y,1/2-z
-x,-y,-z
1/2+x,y,1/2-z
-x,y,z
1/2+x,-y,1/2+z
loop_
_atom_site_type_symbol
_atom_site_label
_atom_site_fract_x
_atom_site_fract_y
_atom_site_fract_z
Si Si1 0.677090 0.304343 0.565839
Si Si2 0.676466 0.082389 0.708609
Si Si3 0.824689 0.800342 0.790910
Si Si4 0.822574 0.834099 0.369536
Si Si5 0.172913 0.705805 0.633515
Si Si6 0.824289 0.425213 0.066658
Si Si7 0.322848 0.199340 0.486386
Si Si8 0.826889 0.061128 0.420829
O O1 0.500000 0.290306 0.571080
O O2 0.761045 0.275100 0.605516
O O3 0.703782 0.440567 0.553560
O O4 0.726268 0.217397 0.530827
O O5 0.750000 0.113938 0.750000
O O6 0.500000 0.099655 0.709891
O O7 0.749242 0.150893 0.672576
O O8 0.705036 0.941128 0.702377
O O9 0.750000 0.768556 0.750000
O O10 0.757232 0.727017 0.826374
O O11 0.000000 0.785037 0.788729
O O12 0.000000 0.832809 0.366159
O O13 0.777379 0.947851 0.396058
O O14 0.240823 0.603777 0.606601
O O15 0.190282 0.825904 0.607852
O O16 0.000000 0.687366 0.640468
O O17 0.784065 0.322934 0.035768
O O18 0.000000 0.413722 0.073170
O O19 0.500000 0.188539 0.486433
O O20 0.256945 0.094164 0.460441
O O21 0.000000 0.047063 0.429645
#
# Coordination Sequence:
#
# PCOD9414718 Si02
#       8
#     8   8   8   8   8   8   8   8
#     4  10  21  36  53  76 104 137 180 226 267 311
#     4  10  20  34  55  81 109 140 175 214 257 307
#     4  10  19  30  49  78 109 138 168 206 256 312
#     4  11  22  36  53  75 109 146 180 217 259 314
#     4  10  18  31  51  75 105 136 171 213 259 311
#     4   9  18  34  55  76 100 133 176 223 270 315
#     4   9  18  33  55  78 101 133 175 224 271 316
#     4   9  19  33  49  72 104 140 173 212 263 313
#
# _framework density 18.279214
#
# number of rings (size 3 to 8) (size 9 to 14) (size 15 to 20)
#    0.000    2.250    1.250    1.875    0.000    5.500 
#    0.000    2.500    0.000    4.500    0.000    0.000 
#    0.000    0.000    0.000    0.000    0.000    0.000 
#
# Total GULP energy -357198.550074 kJ/mol
# GULP energy per Si atom -5581.227345 kJ/mol
# Density = 1.823761 g / cm^3
# Si number density = 18.279214 Si / 1000 Ang^3
#
#
#
# Elastic Constant Matrix: (Units=GPa)
#
#
# Indices 1 2 3 4 5 6 
#
# 1 33.9847 10.2980 47.2370 0.0000 0.0000 0.0000
# 2 10.2980 27.4190 11.4336 0.0000 0.0000 0.0000
# 3 47.2370 11.4336 133.9156 0.0000 0.0000 0.0000
# 4 0.0000 0.0000 0.0000 25.8895 0.0000 0.0000
# 5 0.0000 0.0000 0.0000 0.0000 27.1960 0.0000
# 6 0.0000 0.0000 0.0000 0.0000 0.0000 37.2810
#
#
#
# Elastic Compliance Matrix: (Units=1/GPa)
#
#
# Indices 1 2 3 4 5 6 
#
# 1 0.063139 -0.014959 -0.020994 0.000000 0.000000 0.000000
# 2 -0.014959 0.041362 0.001745 0.000000 0.000000 0.000000
# 3 -0.020994 0.001745 0.014724 0.000000 0.000000 0.000000
# 4 0.000000 0.000000 0.000000 0.038626 0.000000 0.000000
# 5 0.000000 0.000000 0.000000 0.000000 0.036770 0.000000
# 6 0.000000 0.000000 0.000000 0.000000 0.000000 0.026823
#
#
# Mechanical properties :
#
#
# Convention : Reuss Voigt Hill
#
# Bulk Modulus (GPa) = 19.68191 37.02848 28.35520
# Shear Modulus (GPa) = 16.29752 26.49669 21.39711
#
# Velocity S-wave (km/s) = 2.98919 3.81143 3.42507
# Velocity P-wave (km/s) = 4.76491 6.29845 5.58457
#
# Compressibility (1/GPa) = 0.05080808
#
# Stress axis : x y z
#
# Youngs Moduli (GPa) = 15.83816 24.17701 67.91716
#
# Poissons Ratio (x) = 0.36166 1.42586
# Poissons Ratio (y) = 0.23692 -0.11853
# Poissons Ratio (z) = 0.33251 -0.04219
#
# Static dielectric constant tensor:
#      x y z
#    x 1.604530 0.000000 0.000000 
#    y 0.000000 1.633500 0.000000 
#    z 0.000000 0.000000 1.610950 
# 
# From -- ./inp_files/38270.got.cif
#   From: 2010.05.17/outbox.cif.g08.bks.cpg/sg53_20_cif.got.tgz:38270.got - 2010.06.03 12:45:16.
