data_PCOD9414296
_publ_section_title
;
Structure prediction by ZEFSAII (Michael W. Deem and Ramdas Pophale) SiO2 
 PCOD9414296
Probable space group: P M N A
;
_chemical_formula_sum "Si O2"
_cell_formula_units_Z 48
_cell_length_a 23.972961
_cell_length_b 9.917404
_cell_length_c 10.895522
_cell_angle_alpha 90.000000
_cell_angle_beta 90.000000
_cell_angle_gamma 90.000000
_cell_volume 2590.405336
_symmetry_space_group_name_H-M "P M N A"
_symmetry_group_IT_number 53
_symmetry_cell_setting 'orthorhombic'
loop_
_space_group_symop_operation_xyz
x,y,z
1/2-x,-y,1/2+z
x,-y,-z
1/2-x,y,1/2-z
-x,-y,-z
1/2+x,y,1/2-z
-x,y,z
1/2+x,-y,1/2+z
loop_
_atom_site_type_symbol
_atom_site_label
_atom_site_fract_x
_atom_site_fract_y
_atom_site_fract_z
Si Si1 0.500000 0.905263 0.202493
Si Si2 0.895574 0.649597 0.517772
Si Si3 0.000000 0.815550 0.585086
Si Si4 0.618111 0.197101 0.756409
Si Si5 0.278049 0.259700 0.624167
Si Si6 0.723381 0.313470 0.126210
Si Si7 0.698319 0.999618 0.869591
O O1 0.554850 0.844187 0.264732
O O2 0.500000 0.065965 0.185062
O O3 0.500000 0.862559 0.058301
O O4 0.918630 0.500000 0.500000
O O5 0.881308 0.718732 0.385256
O O6 0.838205 0.636853 0.592798
O O7 0.942216 0.733914 0.589750
O O8 0.656057 0.263865 0.651218
O O9 0.653688 0.060793 0.778433
O O10 0.250000 0.313892 0.750000
O O11 0.259923 0.327815 0.497550
O O12 0.249106 0.108039 0.617381
O O13 0.750000 0.370734 0.250000
O O14 0.716353 0.152252 0.148850
O O15 0.667522 0.000000 0.000000
#
# Coordination Sequence:
#
# PCOD9414296 Si02
#       7
#     4   8   4   8   8   8   8
#     4   9  18  26  52  83 100 132 170 234 261 328
#     4  11  21  34  49  72 106 144 180 221 261 319
#     4   9  19  32  52  77 107 134 174 228 286 302
#     4  10  17  31  49  75 104 135 177 210 270 313
#     4   9  16  30  51  72 101 141 162 209 267 320
#     4  11  20  32  50  79 104 133 180 221 267 318
#     4   9  15  27  49  72  97 125 164 214 263 317
#
# _framework density 18.529917999999999
#
# number of rings (size 3 to 8) (size 9 to 14) (size 15 to 20)
#    0.000    2.167    5.000    2.750    2.333    0.000 
#    3.000    0.000    0.000    1.000    0.000   12.250 
#    0.000    5.333    0.000    0.000    0.000    0.000 
#
# Total GULP energy -267232.356457 kJ/mol
# GULP energy per Si atom -5567.340760 kJ/mol
# Density = 1.848774 g / cm^3
# Si number density = 18.529918 Si / 1000 Ang^3
#
#
#
# Elastic Constant Matrix: (Units=GPa)
#
#
# Indices 1 2 3 4 5 6 
#
# 1 148.3391 11.4406 34.7777 0.0000 0.0000 0.0000
# 2 11.4406 54.5674 3.7487 0.0000 0.0000 0.0000
# 3 34.7777 3.7487 63.4603 0.0000 0.0000 0.0000
# 4 0.0000 0.0000 0.0000 0.6291 0.0000 0.0000
# 5 0.0000 0.0000 0.0000 0.0000 15.5171 0.0000
# 6 0.0000 0.0000 0.0000 0.0000 0.0000 -7.8973
#
#
#
# Elastic Compliance Matrix: (Units=1/GPa)
#
#
# Indices 1 2 3 4 5 6 
#
# 1 0.007833 -0.001353 -0.004213 0.000000 0.000000 0.000000
# 2 -0.001353 0.018634 -0.000359 0.000000 0.000000 0.000000
# 3 -0.004213 -0.000359 0.018088 0.000000 0.000000 0.000000
# 4 0.000000 0.000000 0.000000 1.589573 0.000000 0.000000
# 5 0.000000 0.000000 0.000000 0.000000 0.064445 0.000000
# 6 0.000000 0.000000 0.000000 0.000000 0.000000 -0.126626
#
#
# Mechanical properties :
#
#
# Convention : Reuss Voigt Hill
#
# Bulk Modulus (GPa) = 30.57618 40.70009 35.63813
# Shear Modulus (GPa) = 3.13538 16.07643 9.60591
#
# Velocity S-wave (km/s) = 1.30221 2.94869 2.27931
# Velocity P-wave (km/s) = 4.33564 5.79700 5.11874
#
# Compressibility (1/GPa) = 0.03270519
#
# Stress axis : x y z
#
# Youngs Moduli (GPa) = 127.65897 53.66449 55.28558
#
# Poissons Ratio (x) = 0.07260 0.23292
# Poissons Ratio (y) = 0.17271 0.01986
# Poissons Ratio (z) = 0.53782 0.01928
#
# Static dielectric constant tensor:
#      x y z
#    x 1.660690 0.000000 0.000000 
#    y 0.000000 1.692490 0.000000 
#    z 0.000000 0.000000 1.614270 
# 
# From -- ./inp_files/18395.got.cif
#   From: 2010.05.17/outbox.cif.g08.bks.cpg/sg53_10_cif.got.tgz:18395.got - 2010.06.03 12:45:16.
