data_PCOD9414107
_publ_section_title
;
Structure prediction by ZEFSAII (Michael W. Deem and Ramdas Pophale) SiO2 
 PCOD9414107
Probable space group: P M N A
;
_chemical_formula_sum "Si O2"
_cell_formula_units_Z 52
_cell_length_a 18.042388
_cell_length_b 15.396145
_cell_length_c 10.016328
_cell_angle_alpha 90.000000
_cell_angle_beta 90.000000
_cell_angle_gamma 90.000000
_cell_volume 2782.367862
_symmetry_space_group_name_H-M "P M N A"
_symmetry_group_IT_number 53
_symmetry_cell_setting 'orthorhombic'
loop_
_space_group_symop_operation_xyz
x,y,z
1/2-x,-y,1/2+z
x,-y,-z
1/2-x,y,1/2-z
-x,-y,-z
1/2+x,y,1/2-z
-x,y,z
1/2+x,-y,1/2+z
loop_
_atom_site_type_symbol
_atom_site_label
_atom_site_fract_x
_atom_site_fract_y
_atom_site_fract_z
Si Si1 0.392585 0.000000 0.000000
Si Si2 0.588647 0.663147 0.816716
Si Si3 0.311160 0.501479 0.857405
Si Si4 0.409853 0.190527 0.964604
Si Si5 0.500000 0.868829 0.494327
Si Si6 0.500000 0.996747 0.746163
Si Si7 0.663648 0.687385 0.246796
Si Si8 0.915755 0.701422 0.983750
O O1 0.365885 0.900082 0.015748
O O2 0.433895 0.992736 0.854484
O O3 0.500000 0.654874 0.818653
O O4 0.626099 0.574227 0.861444
O O5 0.606203 0.743423 0.914118
O O6 0.611403 0.681519 0.664154
O O7 0.250000 0.524782 0.750000
O O8 0.341361 0.405846 0.825030
O O9 0.272749 0.500000 0.000000
O O10 0.500000 0.172564 0.962720
O O11 0.384966 0.241631 0.831846
O O12 0.500000 0.920957 0.354918
O O13 0.570047 0.804552 0.500578
O O14 0.500000 0.922095 0.633076
O O15 0.750000 0.712996 0.250000
O O16 0.635439 0.673055 0.396457
O O17 0.000000 0.664334 0.998552
#
# Coordination Sequence:
#
# PCOD9414107 Si02
#       8
#     4   8   8   8   4   4   8   8
#     4  11  20  30  60  94 122 146 201 238 309 352
#     4  10  22  37  61  89 124 154 191 250 306 351
#     4  11  25  43  62  86 118 160 207 246 288 361
#     4  11  20  37  61  91 122 156 196 253 302 361
#     4   9  18  32  54  81 122 144 190 233 292 339
#     4  10  16  28  52  90 112 150 186 240 284 348
#     4  11  24  39  60  85 116 159 206 245 295 355
#     4   9  20  36  56  85 118 153 186 239 295 351
#
# _framework density 18.689117
#
# number of rings (size 3 to 8) (size 9 to 14) (size 15 to 20)
#    0.462    1.231    3.077    2.308    4.308    1.538 
#    0.000    1.538    0.000    6.462    0.000    0.000 
#    0.000    0.000    0.000    0.000    0.000    0.000 
#
# Total GULP energy -289479.112394 kJ/mol
# GULP energy per Si atom -5566.906008 kJ/mol
# Density = 1.864658 g / cm^3
# Si number density = 18.689117 Si / 1000 Ang^3
#
#
#
# Elastic Constant Matrix: (Units=GPa)
#
#
# Indices 1 2 3 4 5 6 
#
# 1 18.5330 16.5247 24.9926 0.0000 0.0000 0.0000
# 2 16.5247 88.6748 13.6700 0.0000 0.0000 0.0000
# 3 24.9926 13.6700 143.2463 0.0000 0.0000 0.0000
# 4 0.0000 0.0000 0.0000 31.5516 0.0000 0.0000
# 5 0.0000 0.0000 0.0000 0.0000 16.8910 0.0000
# 6 0.0000 0.0000 0.0000 0.0000 0.0000 8.9661
#
#
#
# Elastic Compliance Matrix: (Units=1/GPa)
#
#
# Indices 1 2 3 4 5 6 
#
# 1 0.084146 -0.013618 -0.013382 0.000000 0.000000 0.000000
# 2 -0.013618 0.013649 0.001073 0.000000 0.000000 0.000000
# 3 -0.013382 0.001073 0.009213 0.000000 0.000000 0.000000
# 4 0.000000 0.000000 0.000000 0.031694 0.000000 0.000000
# 5 0.000000 0.000000 0.000000 0.000000 0.059203 0.000000
# 6 0.000000 0.000000 0.000000 0.000000 0.000000 0.111531
#
#
# Mechanical properties :
#
#
# Convention : Reuss Voigt Hill
#
# Bulk Modulus (GPa) = 18.13032 40.09208 29.11120
# Shear Modulus (GPa) = 13.16919 24.49953 18.83436
#
# Velocity S-wave (km/s) = 2.65739 3.62456 3.17799
# Velocity P-wave (km/s) = 4.37467 6.24622 5.39226
#
# Compressibility (1/GPa) = 0.05515623
#
# Stress axis : x y z
#
# Youngs Moduli (GPa) = 11.88416 73.26333 108.53893
#
# Poissons Ratio (x) = 0.99769 1.45243
# Poissons Ratio (y) = 0.16184 -0.11650
# Poissons Ratio (z) = 0.15903 -0.07864
#
# Static dielectric constant tensor:
#      x y z
#    x 1.635680 0.000000 0.000000 
#    y 0.000000 1.676410 0.000000 
#    z 0.000000 0.000000 1.647300 
# 
# From -- ./inp_files/11002.got.cif
#   From: 2010.05.17/outbox.cif.g08.bks.cpg/sg53_6_cif.got.tgz:11002.got - 2010.06.03 12:45:16.
