data_PCOD9414251
_publ_section_title
;
Structure prediction by ZEFSAII (Michael W. Deem and Ramdas Pophale) SiO2 
 PCOD9414251
Probable space group: P M N A
;
_chemical_formula_sum "Si O2"
_cell_formula_units_Z 56
_cell_length_a 8.563799
_cell_length_b 14.991896
_cell_length_c 27.444420
_cell_angle_alpha 90.000000
_cell_angle_beta 90.000000
_cell_angle_gamma 90.000000
_cell_volume 3523.522777
_symmetry_space_group_name_H-M "P M N A"
_symmetry_group_IT_number 53
_symmetry_cell_setting 'orthorhombic'
loop_
_space_group_symop_operation_xyz
x,y,z
1/2-x,-y,1/2+z
x,-y,-z
1/2-x,y,1/2-z
-x,-y,-z
1/2+x,y,1/2-z
-x,y,z
1/2+x,-y,1/2+z
loop_
_atom_site_type_symbol
_atom_site_label
_atom_site_fract_x
_atom_site_fract_y
_atom_site_fract_z
Si Si1 0.312989 0.115778 0.195786
Si Si2 0.312335 0.383952 0.541264
Si Si3 0.316914 0.117613 0.041566
Si Si4 0.311603 0.570604 0.933829
Si Si5 0.684950 0.734127 0.875221
Si Si6 0.315027 0.981924 0.383325
Si Si7 0.188658 0.184652 0.939036
O O1 0.250000 0.106766 0.250000
O O2 0.500000 0.120089 0.196640
O O3 0.251496 0.206436 0.169228
O O4 0.265784 0.033586 0.160975
O O5 0.500000 0.388792 0.539279
O O6 0.248086 0.393267 0.486129
O O7 0.248106 0.469675 0.569821
O O8 0.265312 0.288344 0.563162
O O9 0.500000 0.094182 0.039714
O O10 0.300001 0.202373 0.077480
O O11 0.224579 0.038556 0.068031
O O12 0.255951 0.144423 0.988943
O O13 0.500000 0.571378 0.934953
O O14 0.254032 0.637763 0.891604
O O15 0.500000 0.722814 0.865964
O O16 0.500000 0.983671 0.374960
O O17 0.264140 0.880884 0.395101
O O18 0.000000 0.181495 0.942009
#
# Coordination Sequence:
#
# PCOD9414251 Si02
#       7
#     8   8   8   8   8   8   8
#     4  10  20  36  54  75  96 119 150 192 240 291
#     4  10  19  29  41  63  93 127 162 199 229 267
#     4  10  18  29  44  65  93 126 161 198 233 274
#     4  10  17  29  45  64  89 125 161 195 232 273
#     4   8  16  29  46  67  93 121 154 190 231 279
#     4  10  20  33  47  66  92 125 159 195 237 283
#     4  10  20  31  43  62  94 131 164 196 234 276
#
# _framework density 15.893185000000001
#
# number of rings (size 3 to 8) (size 9 to 14) (size 15 to 20)
#    0.000    2.286    1.429    4.286    0.000    3.429 
#    0.000    2.143    0.000    0.000    0.000    1.000 
#    0.000    4.571    0.000    0.000    0.000    0.000 
#
# Total GULP energy -312131.178059 kJ/mol
# GULP energy per Si atom -5573.771037 kJ/mol
# Density = 1.585701 g / cm^3
# Si number density = 15.893185 Si / 1000 Ang^3
#
#
#
# Elastic Constant Matrix: (Units=GPa)
#
#
# Indices 1 2 3 4 5 6 
#
# 1 35.4929 31.0360 21.8423 0.0000 0.0000 0.0000
# 2 31.0360 131.2137 63.0589 0.0000 0.0000 0.0000
# 3 21.8423 63.0589 80.4027 0.0000 0.0000 0.0000
# 4 0.0000 0.0000 0.0000 10.3164 0.0000 0.0000
# 5 0.0000 0.0000 0.0000 0.0000 13.5020 0.0000
# 6 0.0000 0.0000 0.0000 0.0000 0.0000 12.2594
#
#
#
# Elastic Compliance Matrix: (Units=1/GPa)
#
#
# Indices 1 2 3 4 5 6 
#
# 1 0.036773 -0.006254 -0.005084 0.000000 0.000000 0.000000
# 2 -0.006254 0.013295 -0.008728 0.000000 0.000000 0.000000
# 3 -0.005084 -0.008728 0.020664 0.000000 0.000000 0.000000
# 4 0.000000 0.000000 0.000000 0.096933 0.000000 0.000000
# 5 0.000000 0.000000 0.000000 0.000000 0.074063 0.000000
# 6 0.000000 0.000000 0.000000 0.000000 0.000000 0.081570
#
#
# Mechanical properties :
#
#
# Convention : Reuss Voigt Hill
#
# Bulk Modulus (GPa) = 32.68204 53.22042 42.95123
# Shear Modulus (GPa) = 13.38221 15.96038 14.67130
#
# Velocity S-wave (km/s) = 2.90489 3.17239 3.04158
# Velocity P-wave (km/s) = 5.64441 6.85403 6.27842
#
# Compressibility (1/GPa) = 0.03059784
#
# Stress axis : x y z
#
# Youngs Moduli (GPa) = 27.19414 75.21584 48.39335
#
# Poissons Ratio (x) = 0.47043 0.24605
# Poissons Ratio (y) = 0.17008 0.42238
# Poissons Ratio (z) = 0.13827 0.65649
#
# Static dielectric constant tensor:
#      x y z
#    x 1.538410 0.000000 0.000000 
#    y 0.000000 1.576030 0.000000 
#    z 0.000000 0.000000 1.501380 
# 
# From -- ./inp_files/38324.got.cif
#   From: 2010.05.17/outbox.cif.g08.bks.cpg/sg53_20_cif.got.tgz:38324.got - 2010.06.03 12:45:16.
