data_PCOD9414613
_publ_section_title
;
Structure prediction by ZEFSAII (Michael W. Deem and Ramdas Pophale) SiO2 
 PCOD9414613
Probable space group: P M N A
;
_chemical_formula_sum "Si O2"
_cell_formula_units_Z 64
_cell_length_a 8.988292
_cell_length_b 17.528683
_cell_length_c 26.105884
_cell_angle_alpha 90.000000
_cell_angle_beta 90.000000
_cell_angle_gamma 90.000000
_cell_volume 4113.058284
_symmetry_space_group_name_H-M "P M N A"
_symmetry_group_IT_number 53
_symmetry_cell_setting 'orthorhombic'
loop_
_space_group_symop_operation_xyz
x,y,z
1/2-x,-y,1/2+z
x,-y,-z
1/2-x,y,1/2-z
-x,-y,-z
1/2+x,y,1/2-z
-x,y,z
1/2+x,-y,1/2+z
loop_
_atom_site_type_symbol
_atom_site_label
_atom_site_fract_x
_atom_site_fract_y
_atom_site_fract_z
Si Si1 0.321386 0.342830 0.060125
Si Si2 0.172046 0.500000 0.937788
Si Si3 0.322272 0.910832 0.694803
Si Si4 0.819874 0.820371 0.601833
Si Si5 0.322272 0.910832 0.305197
Si Si6 0.319103 0.912601 0.000000
Si Si7 0.819874 0.820371 0.398167
Si Si8 0.678614 0.657170 0.060125
O O1 0.500000 0.349910 0.061755
O O2 0.249969 0.421658 0.078691
O O3 0.278803 0.267639 0.091554
O O4 0.281123 0.330986 1.000000
O O5 0.249969 0.421658 0.921309
O O6 0.000000 0.500000 0.923243
O O7 0.181740 0.500000 0.000000
O O8 0.250000 0.894717 0.750000
O O9 0.500000 0.902180 0.697589
O O10 0.253831 0.857496 0.651275
O O11 0.289450 0.000000 0.682519
O O12 0.774710 0.868136 0.551286
O O13 0.000000 0.824528 0.606006
O O14 0.250000 0.894717 0.250000
O O15 0.500000 0.902180 0.302411
O O16 0.253831 0.857496 0.348725
O O17 0.500000 0.913180 0.000000
O O18 0.274710 0.868136 0.051286
O O19 0.267558 0.000000 0.000000
O O20 0.778803 0.732361 0.408446
O O21 0.000000 0.824528 0.393994
O O22 0.500000 0.650089 0.061755
#
# Coordination Sequence:
#
# PCOD9414613 Si02
#       8
#     8   8   8   8   8   8   8   8
#     4   9  16  28  45  67  96 128 162 196 232 281
#     4   9  17  27  41  63  92 127 164 197 237 280
#     4  10  21  36  52  70  93 124 164 208 250 288
#     4  10  18  30  49  73  98 127 162 199 240 286
#     4  10  21  36  52  70  93 124 164 208 250 288
#     4   9  16  26  43  68  97 128 160 191 229 283
#     4  10  18  30  49  73  98 127 162 199 240 286
#     4   9  16  28  45  67  96 128 162 196 232 281
#
# _framework density 15.560199000000001
#
# number of rings (size 3 to 8) (size 9 to 14) (size 15 to 20)
#    0.000    2.500    1.250    1.875    0.000    5.000 
#    0.000    0.625    0.000    2.250    0.000    0.875 
#    0.000    0.000    0.000    0.000    0.000    0.000 
#
# Total GULP energy -356836.900258 kJ/mol
# GULP energy per Si atom -5575.576567 kJ/mol
# Density = 1.552478 g / cm^3
# Si number density = 15.560199 Si / 1000 Ang^3
#
#
#
# Elastic Constant Matrix: (Units=GPa)
#
#
# Indices 1 2 3 4 5 6 
#
# 1 37.2548 59.7503 41.4014 0.0000 0.0000 0.0000
# 2 59.7503 173.8705 87.1183 0.0000 0.0000 0.0000
# 3 41.4014 87.1183 97.5142 0.0000 0.0000 0.0000
# 4 0.0000 0.0000 0.0000 17.8134 0.0000 0.0000
# 5 0.0000 0.0000 0.0000 0.0000 22.8933 0.0000
# 6 0.0000 0.0000 0.0000 0.0000 0.0000 20.9262
#
#
#
# Elastic Compliance Matrix: (Units=1/GPa)
#
#
# Indices 1 2 3 4 5 6 
#
# 1 0.070018 -0.016595 -0.014901 0.000000 0.000000 0.000000
# 2 -0.016595 0.014346 -0.005770 0.000000 0.000000 0.000000
# 3 -0.014901 -0.005770 0.021737 0.000000 0.000000 0.000000
# 4 0.000000 0.000000 0.000000 0.056137 0.000000 0.000000
# 5 0.000000 0.000000 0.000000 0.000000 0.043681 0.000000
# 6 0.000000 0.000000 0.000000 0.000000 0.000000 0.047787
#
#
# Mechanical properties :
#
#
# Convention : Reuss Voigt Hill
#
# Bulk Modulus (GPa) = 31.67936 76.13104 53.90520
# Shear Modulus (GPa) = 14.75966 20.35124 17.55545
#
# Velocity S-wave (km/s) = 3.08320 3.62042 3.36255
# Velocity P-wave (km/s) = 5.75137 8.15534 7.05648
#
# Compressibility (1/GPa) = 0.03156629
#
# Stress axis : x y z
#
# Youngs Moduli (GPa) = 14.28211 69.70779 46.00492
#
# Poissons Ratio (x) = 1.15681 0.68553
# Poissons Ratio (y) = 0.23701 0.26547
# Poissons Ratio (z) = 0.21282 0.40225
#
# Static dielectric constant tensor:
#      x y z
#    x 1.520570 0.000000 0.000000 
#    y 0.000000 1.519110 0.000000 
#    z 0.000000 0.000000 1.485980 
# 
# From -- ./inp_files/34343.got.cif
#   From: 2010.05.17/outbox.cif.g08.bks.cpg/sg53_18_cif.got.tgz:34343.got - 2010.06.03 12:45:16.
