data_PCOD9414340
_publ_section_title
;
Structure prediction by ZEFSAII (Michael W. Deem and Ramdas Pophale) SiO2 
 PCOD9414340
Probable space group: P M N A
;
_chemical_formula_sum "Si O2"
_cell_formula_units_Z 64
_cell_length_a 7.503895
_cell_length_b 17.223046
_cell_length_c 23.721651
_cell_angle_alpha 90.000000
_cell_angle_beta 90.000000
_cell_angle_gamma 90.000000
_cell_volume 3065.784485
_symmetry_space_group_name_H-M "P M N A"
_symmetry_group_IT_number 53
_symmetry_cell_setting 'orthorhombic'
loop_
_space_group_symop_operation_xyz
x,y,z
1/2-x,-y,1/2+z
x,-y,-z
1/2-x,y,1/2-z
-x,-y,-z
1/2+x,y,1/2-z
-x,y,z
1/2+x,-y,1/2+z
loop_
_atom_site_type_symbol
_atom_site_label
_atom_site_fract_x
_atom_site_fract_y
_atom_site_fract_z
Si Si1 0.714419 0.078564 0.187313
Si Si2 0.783936 0.291468 0.900724
Si Si3 0.704205 0.039813 0.901925
Si Si4 0.207004 0.156239 0.509635
Si Si5 0.211305 0.827525 0.184713
Si Si6 0.782831 0.287139 0.432097
Si Si7 0.207001 0.419602 0.978279
Si Si8 0.212677 0.744445 0.688966
O O1 0.750000 0.044218 0.250000
O O2 0.500000 0.079356 0.181702
O O3 0.782219 0.166872 0.188587
O O4 0.784781 0.031476 0.133214
O O5 0.719149 0.225359 0.944184
O O6 0.735129 0.256720 0.840154
O O7 0.000000 0.292901 0.904445
O O8 0.717668 0.373848 0.923921
O O9 0.500000 0.019456 0.916448
O O10 0.783879 0.081071 0.957820
O O11 0.701215 0.106852 0.854006
O O12 0.277183 0.202021 0.455060
O O13 0.000000 0.138554 0.498383
O O14 0.250000 0.835728 0.250000
O O15 0.000000 0.836554 0.175835
O O16 0.716046 0.355510 0.472206
O O17 0.725538 0.297062 0.367666
O O18 0.000000 0.287986 0.435852
O O19 0.000000 0.436202 0.965041
O O20 0.288335 0.500000 0.000000
O O21 0.250000 0.709130 0.750000
O O22 0.000000 0.750039 0.684243
#
# Coordination Sequence:
#
# PCOD9414340 Si02
#       8
#     8   8   8   8   8   8   8   8
#     4   9  17  28  41  58  82 113 150 192 231 265
#     4   8  15  27  41  59  84 111 138 169 204 244
#     4   9  16  26  40  59  84 113 147 185 224 264
#     4   8  14  25  41  61  85 113 142 174 215 260
#     4  10  18  26  38  57  82 113 147 179 210 247
#     4   9  17  30  48  69  93 118 145 180 220 264
#     4   9  17  30  50  74  94 112 137 170 210 258
#     4   9  18  32  48  66  88 116 152 190 226 263
#
# _framework density 20.875571000000001
#
# number of rings (size 3 to 8) (size 9 to 14) (size 15 to 20)
#    0.000    3.125    0.000    0.750    0.000    2.750 
#    0.000    0.625    0.000    4.500    0.000    3.500 
#    0.000   14.000    0.000    0.000    0.000    0.000 
#
# Total GULP energy -356432.760292 kJ/mol
# GULP energy per Si atom -5569.261880 kJ/mol
# Density = 2.082806 g / cm^3
# Si number density = 20.875571 Si / 1000 Ang^3
#
#
#
# Elastic Constant Matrix: (Units=GPa)
#
#
# Indices 1 2 3 4 5 6 
#
# 1 61.8435 -2.5425 -10.1638 0.0000 0.0000 0.0000
# 2 -2.5425 56.3800 9.0328 0.0000 0.0000 0.0000
# 3 -10.1638 9.0328 63.2734 0.0000 0.0000 0.0000
# 4 0.0000 0.0000 0.0000 20.1167 0.0000 0.0000
# 5 0.0000 0.0000 0.0000 0.0000 -3.6533 0.0000
# 6 0.0000 0.0000 0.0000 0.0000 0.0000 1.0345
#
#
#
# Elastic Compliance Matrix: (Units=1/GPa)
#
#
# Indices 1 2 3 4 5 6 
#
# 1 0.016614 0.000329 0.002622 0.000000 0.000000 0.000000
# 2 0.000329 0.018158 -0.002539 0.000000 0.000000 0.000000
# 3 0.002622 -0.002539 0.016588 0.000000 0.000000 0.000000
# 4 0.000000 0.000000 0.000000 0.049710 0.000000 0.000000
# 5 0.000000 0.000000 0.000000 0.000000 -0.273722 0.000000
# 6 0.000000 0.000000 0.000000 0.000000 0.000000 0.966624
#
#
# Mechanical properties :
#
#
# Convention : Reuss Voigt Hill
#
# Bulk Modulus (GPa) = 19.16296 19.35000 19.25648
# Shear Modulus (GPa) = 6.16870 15.84427 11.00649
#
# Velocity S-wave (km/s) = 1.72087 2.75796 2.29867
# Velocity P-wave (km/s) = 3.62603 4.40807 4.03604
#
# Compressibility (1/GPa) = 0.05218401
#
# Stress axis : x y z
#
# Youngs Moduli (GPa) = 60.18928 55.07067 60.28419
#
# Poissons Ratio (x) = -0.01813 -0.15805
# Poissons Ratio (y) = -0.01981 0.15309
# Poissons Ratio (z) = -0.15780 0.13985
#
# Static dielectric constant tensor:
#      x y z
#    x 1.891830 0.000000 0.000000 
#    y 0.000000 1.766670 0.000000 
#    z 0.000000 0.000000 1.793880 
# 
# From -- ./inp_files/34462.got.cif
#   From: 2010.05.17/outbox.cif.g08.bks.cpg/sg53_18_cif.got.tgz:34462.got - 2010.06.03 12:45:16.
