data_PCOD9414873
_publ_section_title
;
Structure prediction by ZEFSAII (Michael W. Deem and Ramdas Pophale) SiO2 
 PCOD9414873
Probable space group: P M N A
;
_chemical_formula_sum "Si O2"
_cell_formula_units_Z 48
_cell_length_a 14.021197
_cell_length_b 10.218877
_cell_length_c 16.636583
_cell_angle_alpha 90.000000
_cell_angle_beta 90.000000
_cell_angle_gamma 90.000000
_cell_volume 2383.704378
_symmetry_space_group_name_H-M "P M N A"
_symmetry_group_IT_number 53
_symmetry_cell_setting 'orthorhombic'
loop_
_space_group_symop_operation_xyz
x,y,z
1/2-x,-y,1/2+z
x,-y,-z
1/2-x,y,1/2-z
-x,-y,-z
1/2+x,y,1/2-z
-x,y,z
1/2+x,-y,1/2+z
loop_
_atom_site_type_symbol
_atom_site_label
_atom_site_fract_x
_atom_site_fract_y
_atom_site_fract_z
Si Si1 0.105010 0.415394 0.574484
Si Si2 0.269037 0.757554 0.410693
Si Si3 0.777041 0.748142 0.904189
Si Si4 0.608608 0.001372 0.401704
Si Si5 0.113035 0.496397 0.128166
Si Si6 0.106358 0.354180 0.298894
O O1 0.147523 0.500000 0.500000
O O2 0.166357 0.299350 0.612133
O O3 0.097358 0.524690 0.641253
O O4 0.000000 0.370172 0.548081
O O5 0.248735 0.787275 0.505374
O O6 0.319086 0.886512 0.376826
O O7 0.338773 0.635954 0.388183
O O8 0.834247 0.614464 0.922681
O O9 0.690160 0.729806 0.841416
O O10 0.850405 0.858902 0.874688
O O11 0.500000 0.980082 0.374311
O O12 0.605088 0.000000 0.500000
O O13 0.129736 0.427281 0.215298
O O14 0.000000 0.504168 0.114401
O O15 0.000000 0.291931 0.292078
#
# Coordination Sequence:
#
# PCOD9414873 Si02
#       6
#     8   8   8   8   8   8
#     4  10  18  32  55  83 112 146 188 238 290 333
#     4  11  20  34  57  88 113 148 192 238 288 339
#     4  11  20  35  57  83 113 152 195 232 284 346
#     4   9  20  36  54  80 119 154 184 233 292 342
#     4  11  22  34  56  85 114 145 188 240 286 340
#     4  10  21  36  56  82 114 148 186 236 289 336
#
# _framework density 20.136724999999998
#
# number of rings (size 3 to 8) (size 9 to 14) (size 15 to 20)
#    0.000    1.667    3.333    2.000    0.000    2.667 
#    0.000    0.833    7.333    3.000    0.000    0.000 
#    0.000    0.000    0.000    0.000    0.000    0.000 
#
# Total GULP energy -267210.396646 kJ/mol
# GULP energy per Si atom -5566.883263 kJ/mol
# Density = 2.009089 g / cm^3
# Si number density = 20.136725 Si / 1000 Ang^3
#
#
#
# Elastic Constant Matrix: (Units=GPa)
#
#
# Indices 1 2 3 4 5 6 
#
# 1 133.8422 46.4943 9.6803 0.0000 0.0000 0.0000
# 2 46.4943 94.0839 -18.2004 0.0000 0.0000 0.0000
# 3 9.6803 -18.2004 43.8306 0.0000 0.0000 0.0000
# 4 0.0000 0.0000 0.0000 7.2419 0.0000 0.0000
# 5 0.0000 0.0000 0.0000 0.0000 23.7699 0.0000
# 6 0.0000 0.0000 0.0000 0.0000 0.0000 79.9520
#
#
#
# Elastic Compliance Matrix: (Units=1/GPa)
#
#
# Indices 1 2 3 4 5 6 
#
# 1 0.009783 -0.005712 -0.004532 0.000000 0.000000 0.000000
# 2 -0.005712 0.014892 0.007445 0.000000 0.000000 0.000000
# 3 -0.004532 0.007445 0.026908 0.000000 0.000000 0.000000
# 4 0.000000 0.000000 0.000000 0.138086 0.000000 0.000000
# 5 0.000000 0.000000 0.000000 0.000000 0.042070 0.000000
# 6 0.000000 0.000000 0.000000 0.000000 0.000000 0.012508
#
#
# Mechanical properties :
#
#
# Convention : Reuss Voigt Hill
#
# Bulk Modulus (GPa) = 21.74629 38.63389 30.19009
# Shear Modulus (GPa) = 18.85571 37.77826 28.31699
#
# Velocity S-wave (km/s) = 3.06336 4.33608 3.75405
# Velocity P-wave (km/s) = 4.83063 6.65554 5.81512
#
# Compressibility (1/GPa) = 0.04598485
#
# Stress axis : x y z
#
# Youngs Moduli (GPa) = 102.21419 67.15210 37.16418
#
# Poissons Ratio (x) = 0.38354 0.16844
# Poissons Ratio (y) = 0.58380 -0.27669
# Poissons Ratio (z) = 0.46328 -0.49995
#
# Static dielectric constant tensor:
#      x y z
#    x 1.836430 0.000000 0.000000 
#    y 0.000000 1.713990 0.000000 
#    z 0.000000 0.000000 1.979770 
# 
# From -- ./inp_files/28255.got.cif
#   From: 2010.05.17/outbox.cif.g08.bks.cpg/sg53_15_cif.got.tgz:28255.got - 2010.06.03 12:45:16.
