data_PCOD9414059
_publ_section_title
;
Structure prediction by ZEFSAII (Michael W. Deem and Ramdas Pophale) SiO2 
 PCOD9414059
Probable space group: P M N A
;
_chemical_formula_sum "Si O2"
_cell_formula_units_Z 48
_cell_length_a 22.527301
_cell_length_b 12.694349
_cell_length_c 7.411547
_cell_angle_alpha 90.000000
_cell_angle_beta 90.000000
_cell_angle_gamma 90.000000
_cell_volume 2119.475804
_symmetry_space_group_name_H-M "P M N A"
_symmetry_group_IT_number 53
_symmetry_cell_setting 'orthorhombic'
loop_
_space_group_symop_operation_xyz
x,y,z
1/2-x,-y,1/2+z
x,-y,-z
1/2-x,y,1/2-z
-x,-y,-z
1/2+x,y,1/2-z
-x,y,z
1/2+x,-y,1/2+z
loop_
_atom_site_type_symbol
_atom_site_label
_atom_site_fract_x
_atom_site_fract_y
_atom_site_fract_z
Si Si1 0.613065 0.748972 0.367227
Si Si2 0.781501 0.375562 0.004731
Si Si3 0.929511 0.802074 0.721301
Si Si4 0.433802 0.470813 0.712683
Si Si5 0.931957 0.965938 0.211935
Si Si6 0.844169 0.366454 0.379848
O O1 0.678966 0.700346 0.381709
O O2 0.586520 0.768552 0.570957
O O3 0.575650 0.654009 0.280687
O O4 0.607079 0.861773 0.273132
O O5 0.806603 0.342597 0.199233
O O6 0.710418 0.374299 0.982005
O O7 0.796318 0.500000 0.000000
O O8 0.890130 0.727803 0.596363
O O9 0.000000 0.788474 0.698722
O O10 0.914907 0.925154 0.692379
O O11 0.428854 0.500000 0.500000
O O12 0.500000 0.500995 0.771608
O O13 0.384455 0.533745 0.823916
O O14 0.000000 0.938863 0.260554
O O15 0.932414 0.000000 0.000000
#
# Coordination Sequence:
#
# PCOD9414059 Si02
#       6
#     8   8   8   8   8   8
#     4  10  15  25  39  65  88 116 142 179 230 285
#     4  10  18  30  41  61  88 123 165 184 218 269
#     4   9  15  25  40  64  91 114 142 180 231 281
#     4  11  17  24  41  67  93 111 141 192 241 279
#     4   8  14  22  37  62  90 112 130 167 225 281
#     4  10  18  27  43  64  87 123 156 189 222 273
#
# _framework density 22.647109
#
# number of rings (size 3 to 8) (size 9 to 14) (size 15 to 20)
#    0.000    2.333    5.000    3.000    0.000    0.000 
#    0.000    0.000    0.000    2.000   39.000    0.000 
#    0.000    0.000    0.000    5.333    0.000    1.667 
#
# Total GULP energy -268031.255850 kJ/mol
# GULP energy per Si atom -5583.984497 kJ/mol
# Density = 2.259556 g / cm^3
# Si number density = 22.647109 Si / 1000 Ang^3
#
#
#
# Elastic Constant Matrix: (Units=GPa)
#
#
# Indices 1 2 3 4 5 6 
#
# 1 193.0020 96.5374 27.6264 0.0000 0.0000 0.0000
# 2 96.5374 205.0396 19.4414 0.0000 0.0000 0.0000
# 3 27.6264 19.4414 60.5930 0.0000 0.0000 0.0000
# 4 0.0000 0.0000 0.0000 9.8892 0.0000 0.0000
# 5 0.0000 0.0000 0.0000 0.0000 -25.2527 0.0000
# 6 0.0000 0.0000 0.0000 0.0000 0.0000 19.8143
#
#
#
# Elastic Compliance Matrix: (Units=1/GPa)
#
#
# Indices 1 2 3 4 5 6 
#
# 1 0.007055 -0.003111 -0.002218 0.000000 0.000000 0.000000
# 2 -0.003111 0.006402 -0.000636 0.000000 0.000000 0.000000
# 3 -0.002218 -0.000636 0.017719 0.000000 0.000000 0.000000
# 4 0.000000 0.000000 0.000000 0.101120 0.000000 0.000000
# 5 0.000000 0.000000 0.000000 0.000000 -0.039600 0.000000
# 6 0.000000 0.000000 0.000000 0.000000 0.000000 0.050469
#
#
# Mechanical properties :
#
#
# Convention : Reuss Voigt Hill
#
# Bulk Modulus (GPa) = 51.95986 82.87165 67.41575
# Shear Modulus (GPa) = 30.95763 21.89213 26.42488
#
# Velocity S-wave (km/s) = 3.70125 3.11249 3.41957
# Velocity P-wave (km/s) = 6.42330 7.04194 6.73972
#
# Compressibility (1/GPa) = 0.01924562
#
# Stress axis : x y z
#
# Youngs Moduli (GPa) = 141.74141 156.19447 56.43680
#
# Poissons Ratio (x) = 0.48598 0.12520
# Poissons Ratio (y) = 0.44101 0.03587
# Poissons Ratio (z) = 0.31443 0.09928
#
# Static dielectric constant tensor:
#      x y z
#    x 1.856460 0.000000 0.000000 
#    y 0.000000 1.838810 0.000000 
#    z 0.000000 0.000000 1.974210 
# 
# From -- ./inp_files/24415.got.cif
#   From: 2010.05.17/outbox.cif.g08.bks.cpg/sg53_13_cif.got.tgz:24415.got - 2010.06.03 12:45:16.
