data_PCOD9414307
_publ_section_title
;
Structure prediction by ZEFSAII (Michael W. Deem and Ramdas Pophale) SiO2 
 PCOD9414307
Probable space group: P M N A
;
_chemical_formula_sum "Si O2"
_cell_formula_units_Z 48
_cell_length_a 23.414135
_cell_length_b 11.394397
_cell_length_c 11.434970
_cell_angle_alpha 90.000000
_cell_angle_beta 90.000000
_cell_angle_gamma 90.000000
_cell_volume 3050.735070
_symmetry_space_group_name_H-M "P M N A"
_symmetry_group_IT_number 53
_symmetry_cell_setting 'orthorhombic'
loop_
_space_group_symop_operation_xyz
x,y,z
1/2-x,-y,1/2+z
x,-y,-z
1/2-x,y,1/2-z
-x,-y,-z
1/2+x,y,1/2-z
-x,y,z
1/2+x,-y,1/2+z
loop_
_atom_site_type_symbol
_atom_site_label
_atom_site_fract_x
_atom_site_fract_y
_atom_site_fract_z
Si Si1 0.186203 0.825433 0.878191
Si Si2 0.839238 0.375765 0.940426
Si Si3 0.934199 0.791124 0.169102
Si Si4 0.847703 0.148241 0.631803
Si Si5 0.100081 0.000000 0.000000
Si Si6 0.750000 0.693381 0.250000
Si Si7 0.682624 0.876045 0.877030
O O1 0.140601 0.920648 0.919522
O O2 0.175344 0.802908 0.741440
O O3 0.249399 0.876489 0.897764
O O4 0.181268 0.712000 0.958049
O O5 0.895068 0.311928 0.886339
O O6 0.789237 0.378144 0.841808
O O7 0.850665 0.500000 0.000000
O O8 0.903023 0.821609 0.291419
O O9 0.000000 0.757810 0.183395
O O10 0.931214 0.905751 0.083567
O O11 0.794755 0.222764 0.682529
O O12 0.849332 0.168925 0.492415
O O13 0.835359 0.009969 0.645966
#
# Coordination Sequence:
#
# PCOD9414307 Si02
#       7
#     8   8   8   8   4   4   8
#     4  10  18  29  51  77 109 134 168 205 272 323
#     4  10  22  36  53  78 106 139 178 225 262 311
#     4  10  21  35  55  74 104 145 184 225 263 309
#     4  10  18  30  50  76 111 135 171 207 269 321
#     4  10  17  32  50  78 102 132 173 220 270 312
#     4  10  18  34  50  74 108 134 168 214 270 318
#     4  10  18  27  50  82 109 140 162 207 261 347
#
# _framework density 15.733912999999999
#
# number of rings (size 3 to 8) (size 9 to 14) (size 15 to 20)
#    0.000    2.000    3.333    2.250    2.333    1.667 
#    0.000    1.667    0.000    0.000    0.000    1.167 
#    0.000    0.000    0.000    0.000    0.000    0.000 
#
# Total GULP energy -267463.431146 kJ/mol
# GULP energy per Si atom -5572.154816 kJ/mol
# Density = 1.569810 g / cm^3
# Si number density = 15.733913 Si / 1000 Ang^3
#
#
#
# Elastic Constant Matrix: (Units=GPa)
#
#
# Indices 1 2 3 4 5 6 
#
# 1 108.8768 37.0044 54.4347 0.0000 0.0000 0.0000
# 2 37.0044 75.1341 38.8282 0.0000 0.0000 0.0000
# 3 54.4347 38.8282 127.0229 0.0000 0.0000 0.0000
# 4 0.0000 0.0000 0.0000 18.7947 0.0000 0.0000
# 5 0.0000 0.0000 0.0000 0.0000 -120.7873 0.0000
# 6 0.0000 0.0000 0.0000 0.0000 0.0000 4.3830
#
#
#
# Elastic Compliance Matrix: (Units=1/GPa)
#
#
# Indices 1 2 3 4 5 6 
#
# 1 0.012659 -0.004075 -0.004179 0.000000 0.000000 0.000000
# 2 -0.004075 0.017118 -0.003486 0.000000 0.000000 0.000000
# 3 -0.004179 -0.003486 0.010729 0.000000 0.000000 0.000000
# 4 0.000000 0.000000 0.000000 0.053206 0.000000 0.000000
# 5 0.000000 0.000000 0.000000 0.000000 -0.008279 0.000000
# 6 0.000000 0.000000 0.000000 0.000000 0.000000 0.228156
#
#
# Mechanical properties :
#
#
# Convention : Reuss Voigt Hill
#
# Bulk Modulus (GPa) = 58.73600 63.50758 61.12179
# Shear Modulus (GPa) = 14.58805 -7.47081 3.55862
#
# Velocity S-wave (km/s) = 3.04825 -2.18141 1.50554
# Velocity P-wave (km/s) = 7.05698 5.84007 6.47717
#
# Compressibility (1/GPa) = 0.01702533
#
# Stress axis : x y z
#
# Youngs Moduli (GPa) = 78.99387 58.41728 93.20228
#
# Poissons Ratio (x) = 0.23805 0.38953
# Poissons Ratio (y) = 0.32190 0.32494
# Poissons Ratio (z) = 0.33015 0.20366
#
# Static dielectric constant tensor:
#      x y z
#    x 1.503880 0.000000 0.000000 
#    y 0.000000 1.566740 0.000000 
#    z 0.000000 0.000000 1.564110 
# 
# From -- ./inp_files/18402.got.cif
#   From: 2010.05.17/outbox.cif.g08.bks.cpg/sg53_10_cif.got.tgz:18402.got - 2010.06.03 12:45:16.
