data_PCOD9414388
_publ_section_title
;
Structure prediction by ZEFSAII (Michael W. Deem and Ramdas Pophale) SiO2 
 PCOD9414388
Probable space group: P M N A
;
_chemical_formula_sum "Si O2"
_cell_formula_units_Z 64
_cell_length_a 21.416671
_cell_length_b 12.349559
_cell_length_c 11.983373
_cell_angle_alpha 90.000000
_cell_angle_beta 90.000000
_cell_angle_gamma 90.000000
_cell_volume 3169.439689
_symmetry_space_group_name_H-M "P M N A"
_symmetry_group_IT_number 53
_symmetry_cell_setting 'orthorhombic'
loop_
_space_group_symop_operation_xyz
x,y,z
1/2-x,-y,1/2+z
x,-y,-z
1/2-x,y,1/2-z
-x,-y,-z
1/2+x,y,1/2-z
-x,y,z
1/2+x,-y,1/2+z
loop_
_atom_site_type_symbol
_atom_site_label
_atom_site_fract_x
_atom_site_fract_y
_atom_site_fract_z
Si Si1 0.427768 0.895009 0.429698
Si Si2 0.575375 0.272489 0.946804
Si Si3 0.626363 0.647654 0.664463
Si Si4 0.570135 0.453638 0.791395
Si Si5 0.071818 0.943467 0.332073
Si Si6 0.389507 0.343631 0.575031
Si Si7 0.574889 0.183256 0.183992
Si Si8 0.229173 0.503246 0.122408
O O1 0.500000 0.869313 0.463741
O O2 0.429177 0.926996 0.300191
O O3 0.387277 0.786075 0.435993
O O4 0.407678 0.000000 0.500000
O O5 0.500000 0.275701 0.926372
O O6 0.599665 0.380553 0.888205
O O7 0.600064 0.163128 0.888110
O O8 0.584621 0.259259 0.077222
O O9 0.606002 0.560366 0.756203
O O10 0.589582 0.622621 0.549451
O O11 0.609793 0.764602 0.711352
O O12 0.697182 0.615773 0.636874
O O13 0.500000 0.485965 0.822216
O O14 0.569320 0.376961 0.681119
O O15 0.000000 0.947949 0.373693
O O16 0.097464 0.063571 0.350040
O O17 0.325613 0.408193 0.599576
O O18 0.500000 0.177671 0.207298
O O19 0.250000 0.528923 0.250000
O O20 0.263623 0.500000 0.000000
#
# Coordination Sequence:
#
# PCOD9414388 Si02
#       8
#     8   8   8   8   8   8   8   8
#     4  10  18  27  45  77 114 149 182 211 244 301
#     4   9  17  29  43  60  94 146 187 215 241 279
#     4  10  21  33  48  75 104 128 164 211 266 318
#     4  10  18  29  45  67 102 141 173 204 247 301
#     4   9  16  28  43  62  95 141 188 218 237 276
#     4  10  19  33  52  74 105 135 170 216 260 314
#     4  10  19  30  45  69 106 145 179 211 251 302
#     4   9  20  41  61  79 102 128 169 225 280 337
#
# _framework density 20.192844000000001
#
# number of rings (size 3 to 8) (size 9 to 14) (size 15 to 20)
#    0.000    2.375    1.250    3.000    0.000    5.500 
#    4.500    1.875    0.000    0.000    0.000    7.875 
#    0.000    0.000    0.000    0.000    0.000    0.000 
#
# Total GULP energy -356310.991868 kJ/mol
# GULP energy per Si atom -5567.359248 kJ/mol
# Density = 2.014688 g / cm^3
# Si number density = 20.192844 Si / 1000 Ang^3
#
#
#
# Elastic Constant Matrix: (Units=GPa)
#
#
# Indices 1 2 3 4 5 6 
#
# 1 10.5847 3.5590 15.8063 0.0000 0.0000 0.0000
# 2 3.5590 66.1111 15.7719 0.0000 0.0000 0.0000
# 3 15.8063 15.7719 89.8414 0.0000 0.0000 0.0000
# 4 0.0000 0.0000 0.0000 36.5752 0.0000 0.0000
# 5 0.0000 0.0000 0.0000 0.0000 11.4068 0.0000
# 6 0.0000 0.0000 0.0000 0.0000 0.0000 23.5188
#
#
#
# Elastic Compliance Matrix: (Units=1/GPa)
#
#
# Indices 1 2 3 4 5 6 
#
# 1 0.128303 -0.001588 -0.022294 0.000000 0.000000 0.000000
# 2 -0.001588 0.015807 -0.002495 0.000000 0.000000 0.000000
# 3 -0.022294 -0.002495 0.015491 0.000000 0.000000 0.000000
# 4 0.000000 0.000000 0.000000 0.027341 0.000000 0.000000
# 5 0.000000 0.000000 0.000000 0.000000 0.087667 0.000000
# 6 0.000000 0.000000 0.000000 0.000000 0.000000 0.042519
#
#
# Mechanical properties :
#
#
# Convention : Reuss Voigt Hill
#
# Bulk Modulus (GPa) = 9.35937 26.31238 17.83587
# Shear Modulus (GPa) = 12.33050 23.06017 17.69534
#
# Velocity S-wave (km/s) = 2.47379 3.38301 2.96348
# Velocity P-wave (km/s) = 3.57835 5.32151 4.53448
#
# Compressibility (1/GPa) = 0.10684477
#
# Stress axis : x y z
#
# Youngs Moduli (GPa) = 7.79407 63.26347 64.55298
#
# Poissons Ratio (x) = 0.10048 1.43915
# Poissons Ratio (y) = 0.01238 0.16109
# Poissons Ratio (z) = 0.17376 0.15787
#
# Static dielectric constant tensor:
#      x y z
#    x 1.741810 0.000000 0.000000 
#    y 0.000000 1.751380 0.000000 
#    z 0.000000 0.000000 1.785850 
# 
# From -- ./inp_files/18478.got.cif
#   From: 2010.05.17/outbox.cif.g08.bks.cpg/sg53_10_cif.got.tgz:18478.got - 2010.06.03 12:45:16.
