data_PCOD9414528
_publ_section_title
;
Structure prediction by ZEFSAII (Michael W. Deem and Ramdas Pophale) SiO2 
 PCOD9414528
Probable space group: P M N A
;
_chemical_formula_sum "Si O2"
_cell_formula_units_Z 64
_cell_length_a 27.631831
_cell_length_b 6.891910
_cell_length_c 17.829388
_cell_angle_alpha 90.000000
_cell_angle_beta 90.000000
_cell_angle_gamma 90.000000
_cell_volume 3395.358980
_symmetry_space_group_name_H-M "P M N A"
_symmetry_group_IT_number 53
_symmetry_cell_setting 'orthorhombic'
loop_
_space_group_symop_operation_xyz
x,y,z
1/2-x,-y,1/2+z
x,-y,-z
1/2-x,y,1/2-z
-x,-y,-z
1/2+x,y,1/2-z
-x,y,z
1/2+x,-y,1/2+z
loop_
_atom_site_type_symbol
_atom_site_label
_atom_site_fract_x
_atom_site_fract_y
_atom_site_fract_z
Si Si1 0.115207 0.066182 0.583688
Si Si2 0.790928 0.416095 0.923970
Si Si3 0.871225 0.109824 0.927679
Si Si4 0.053908 0.922749 0.192206
Si Si5 0.110453 0.232011 0.281182
Si Si6 0.805994 0.196367 0.165437
Si Si7 0.056480 0.377774 0.670385
Si Si8 0.730602 0.946640 0.088172
O O1 0.085342 0.258263 0.606384
O O2 0.173368 0.086285 0.588625
O O3 0.102583 0.000000 0.500000
O O4 0.105657 0.897879 0.644321
O O5 0.838179 0.293198 0.946997
O O6 0.803872 0.589633 0.869203
O O7 0.755171 0.256925 0.890637
O O8 0.768375 0.500000 0.000000
O O9 0.913082 0.166777 0.871749
O O10 0.837806 0.953218 0.884157
O O11 0.890168 0.000000 0.000000
O O12 0.054120 0.775292 0.261490
O O13 0.000000 0.954281 0.165441
O O14 0.076546 0.124788 0.220322
O O15 0.164386 0.217910 0.243850
O O16 0.088764 0.441001 0.302032
O O17 0.752789 0.103231 0.147130
O O18 0.000000 0.428418 0.651629
O O19 0.743833 0.000000 0.000000
#
# Coordination Sequence:
#
# PCOD9414528 Si02
#       8
#     8   8   8   8   8   8   8   8
#     4  10  24  43  60  84 115 144 179 239 302 360
#     4  11  17  30  54  81 109 152 197 230 269 319
#     4  10  18  29  48  79 115 150 197 240 271 320
#     4   9  19  35  55  78 110 150 188 234 287 339
#     4  10  21  38  60  83 111 148 188 234 291 345
#     4  10  19  33  54  82 114 154 196 234 272 332
#     4  10  21  41  65  87 110 144 193 243 299 362
#     4  10  20  36  55  82 117 155 194 228 278 344
#
# _framework density 18.849257999999999
#
# number of rings (size 3 to 8) (size 9 to 14) (size 15 to 20)
#    0.000    2.000    2.500    1.875    0.000    4.000 
#    0.000    0.625    0.000    0.375    0.000    0.000 
#    0.000    0.000    0.000    0.000    0.000    0.000 
#
# Total GULP energy -356534.494935 kJ/mol
# GULP energy per Si atom -5570.851483 kJ/mol
# Density = 1.880636 g / cm^3
# Si number density = 18.849258 Si / 1000 Ang^3
#
#
#
# Elastic Constant Matrix: (Units=GPa)
#
#
# Indices 1 2 3 4 5 6 
#
# 1 85.2995 21.6326 24.3348 0.0000 0.0000 0.0000
# 2 21.6326 105.0393 18.0413 0.0000 0.0000 0.0000
# 3 24.3348 18.0413 49.5061 0.0000 0.0000 0.0000
# 4 0.0000 0.0000 0.0000 19.7798 0.0000 0.0000
# 5 0.0000 0.0000 0.0000 0.0000 24.3809 0.0000
# 6 0.0000 0.0000 0.0000 0.0000 0.0000 11.5235
#
#
#
# Elastic Compliance Matrix: (Units=1/GPa)
#
#
# Indices 1 2 3 4 5 6 
#
# 1 0.013950 -0.001808 -0.006198 0.000000 0.000000 0.000000
# 2 -0.001808 0.010390 -0.002898 0.000000 0.000000 0.000000
# 3 -0.006198 -0.002898 0.024302 0.000000 0.000000 0.000000
# 4 0.000000 0.000000 0.000000 0.050557 0.000000 0.000000
# 5 0.000000 0.000000 0.000000 0.000000 0.041016 0.000000
# 6 0.000000 0.000000 0.000000 0.000000 0.000000 0.086779
#
#
# Mechanical properties :
#
#
# Convention : Reuss Voigt Hill
#
# Bulk Modulus (GPa) = 37.26563 40.87360 39.06961
# Shear Modulus (GPa) = 19.39880 22.85926 21.12903
#
# Velocity S-wave (km/s) = 3.21152 3.48622 3.35169
# Velocity P-wave (km/s) = 5.79354 6.15926 5.97920
#
# Compressibility (1/GPa) = 0.02683438
#
# Stress axis : x y z
#
# Youngs Moduli (GPa) = 71.68297 96.24301 41.14845
#
# Poissons Ratio (x) = 0.17405 0.25505
# Poissons Ratio (y) = 0.12963 0.11923
# Poissons Ratio (z) = 0.44431 0.27887
#
# Static dielectric constant tensor:
#      x y z
#    x 1.690210 0.000000 0.000000 
#    y 0.000000 1.631830 0.000000 
#    z 0.000000 0.000000 1.663480 
# 
# From -- ./inp_files/29834.got.cif
#   From: 2010.05.17/outbox.cif.g08.bks.cpg/sg53_15_cif.got.tgz:29834.got - 2010.06.03 12:45:16.
