data_PCOD9414279
_publ_section_title
;
Structure prediction by ZEFSAII (Michael W. Deem and Ramdas Pophale) SiO2 
 PCOD9414279
Probable space group: P M N A
;
_chemical_formula_sum "Si O2"
_cell_formula_units_Z 48
_cell_length_a 8.775013
_cell_length_b 11.662605
_cell_length_c 26.515927
_cell_angle_alpha 90.000000
_cell_angle_beta 90.000000
_cell_angle_gamma 90.000000
_cell_volume 2713.626989
_symmetry_space_group_name_H-M "P M N A"
_symmetry_group_IT_number 53
_symmetry_cell_setting 'orthorhombic'
loop_
_space_group_symop_operation_xyz
x,y,z
1/2-x,-y,1/2+z
x,-y,-z
1/2-x,y,1/2-z
-x,-y,-z
1/2+x,y,1/2-z
-x,y,z
1/2+x,-y,1/2+z
loop_
_atom_site_type_symbol
_atom_site_label
_atom_site_fract_x
_atom_site_fract_y
_atom_site_fract_z
Si Si1 0.324333 0.241782 0.597430
Si Si2 0.184811 0.867280 0.194901
Si Si3 0.182015 0.864235 0.805015
Si Si4 0.318878 0.636163 0.503113
Si Si5 0.323721 0.769156 0.902926
Si Si6 0.166588 0.982783 0.940654
O O1 0.500000 0.283314 0.602499
O O2 0.258374 0.225648 0.653623
O O3 0.257360 0.309206 0.549488
O O4 0.327156 0.108912 0.581393
O O5 0.250000 0.843310 0.250000
O O6 0.000000 0.862719 0.195044
O O7 0.224428 0.001526 0.183267
O O8 0.250000 0.838443 0.750000
O O9 0.242932 0.780147 0.848560
O O10 0.000000 0.859015 0.802714
O O11 0.300355 0.500000 0.500000
O O12 0.500000 0.663773 0.505093
O O13 0.246465 0.687618 0.553889
O O14 0.500000 0.742451 0.896259
O O15 0.297158 0.896914 0.924833
O O16 0.000000 0.931895 0.925942
O O17 0.168366 0.000000 0.000000
#
# Coordination Sequence:
#
# PCOD9414279 Si02
#       6
#     8   8   8   8   8   8
#     4   9  16  30  52  76 102 134 170 214 267 317
#     4   9  17  29  47  72 105 139 167 202 250 310
#     4  10  19  33  52  77 109 145 178 211 258 312
#     4  10  21  38  59  78  97 134 188 234 273 322
#     4  12  23  33  50  78 113 144 174 216 267 326
#     4  10  17  30  51  73 103 139 173 211 263 323
#
# _framework density 17.688502
#
# number of rings (size 3 to 8) (size 9 to 14) (size 15 to 20)
#    0.000    2.000    3.333    2.000    0.000    1.333 
#    0.000    0.833    0.000    1.000    0.000    2.333 
#    0.000    0.000    0.000    0.000    0.000    0.000 
#
# Total GULP energy -267337.585705 kJ/mol
# GULP energy per Si atom -5569.533036 kJ/mol
# Density = 1.764824 g / cm^3
# Si number density = 17.688502 Si / 1000 Ang^3
#
#
#
# Elastic Constant Matrix: (Units=GPa)
#
#
# Indices 1 2 3 4 5 6 
#
# 1 49.4912 21.1682 46.4660 0.0000 0.0000 0.0000
# 2 21.1682 45.2765 44.7479 0.0000 0.0000 0.0000
# 3 46.4660 44.7479 171.6503 0.0000 0.0000 0.0000
# 4 0.0000 0.0000 0.0000 10.0321 0.0000 0.0000
# 5 0.0000 0.0000 0.0000 0.0000 23.2989 0.0000
# 6 0.0000 0.0000 0.0000 0.0000 0.0000 43.2617
#
#
#
# Elastic Compliance Matrix: (Units=1/GPa)
#
#
# Indices 1 2 3 4 5 6 
#
# 1 0.029008 -0.007815 -0.005815 0.000000 0.000000 0.000000
# 2 -0.007815 0.031857 -0.006190 0.000000 0.000000 0.000000
# 3 -0.005815 -0.006190 0.009014 0.000000 0.000000 0.000000
# 4 0.000000 0.000000 0.000000 0.099681 0.000000 0.000000
# 5 0.000000 0.000000 0.000000 0.000000 0.042921 0.000000
# 6 0.000000 0.000000 0.000000 0.000000 0.000000 0.023115
#
#
# Mechanical properties :
#
#
# Convention : Reuss Voigt Hill
#
# Bulk Modulus (GPa) = 33.06896 54.57580 43.82238
# Shear Modulus (GPa) = 17.52455 25.58758 21.55607
#
# Velocity S-wave (km/s) = 3.15100 3.80750 3.49470
# Velocity P-wave (km/s) = 5.65457 7.08874 6.41188
#
# Compressibility (1/GPa) = 0.03023983
#
# Stress axis : x y z
#
# Youngs Moduli (GPa) = 34.47343 31.38985 110.94417
#
# Poissons Ratio (x) = 0.24530 0.64516
# Poissons Ratio (y) = 0.26940 0.68669
# Poissons Ratio (z) = 0.20047 0.19429
#
# Static dielectric constant tensor:
#      x y z
#    x 1.620830 0.000000 0.000000 
#    y 0.000000 1.586440 0.000000 
#    z 0.000000 0.000000 1.789280 
# 
# From -- ./inp_files/36169.got.cif
#   From: 2010.05.17/outbox.cif.g08.bks.cpg/sg53_19_cif.got.tgz:36169.got - 2010.06.03 12:45:16.
