data_PCOD9414446
_publ_section_title
;
Structure prediction by ZEFSAII (Michael W. Deem and Ramdas Pophale) SiO2 
 PCOD9414446
Probable space group: P M N A
;
_chemical_formula_sum "Si O2"
_cell_formula_units_Z 64
_cell_length_a 8.695933
_cell_length_b 17.158365
_cell_length_c 24.619367
_cell_angle_alpha 90.000000
_cell_angle_beta 90.000000
_cell_angle_gamma 90.000000
_cell_volume 3673.406325
_symmetry_space_group_name_H-M "P M N A"
_symmetry_group_IT_number 53
_symmetry_cell_setting 'orthorhombic'
loop_
_space_group_symop_operation_xyz
x,y,z
1/2-x,-y,1/2+z
x,-y,-z
1/2-x,y,1/2-z
-x,-y,-z
1/2+x,y,1/2-z
-x,y,z
1/2+x,-y,1/2+z
loop_
_atom_site_type_symbol
_atom_site_label
_atom_site_fract_x
_atom_site_fract_y
_atom_site_fract_z
Si Si1 0.184443 0.779726 0.626089
Si Si2 0.816326 0.373998 0.308852
Si Si3 0.184990 0.926299 0.811521
Si Si4 0.816681 0.689402 0.972221
Si Si5 0.684901 0.097627 0.689212
Si Si6 0.814564 0.632897 0.086163
Si Si7 0.186043 0.269878 0.810947
Si Si8 0.183883 0.462686 0.415080
O O1 0.235131 0.708681 0.665791
O O2 0.252586 0.858886 0.649761
O O3 0.239503 0.753583 0.566428
O O4 0.000000 0.783017 0.626795
O O5 0.750000 0.387879 0.250000
O O6 0.777132 0.439567 0.352952
O O7 0.000000 0.370832 0.305033
O O8 0.250000 0.917056 0.750000
O O9 0.000000 0.921847 0.808532
O O10 0.230628 0.012816 0.833207
O O11 0.761918 0.604783 0.950608
O O12 0.000000 0.695283 0.966256
O O13 0.777408 0.690215 0.035980
O O14 0.750000 0.097044 0.750000
O O15 0.500000 0.097545 0.690574
O O16 0.731251 0.182875 0.667946
O O17 0.764160 0.667691 0.144049
O O18 0.741643 0.549120 0.074370
O O19 0.000000 0.624361 0.087079
O O20 0.250000 0.281409 0.750000
O O21 0.000000 0.272409 0.807646
O O22 0.000000 0.457321 0.422355
#
# Coordination Sequence:
#
# PCOD9414446 Si02
#       8
#     8   8   8   8   8   8   8   8
#     4  10  20  33  48  70  99 130 165 204 245 289
#     4   9  19  32  45  64  92 126 159 190 231 282
#     4  10  18  28  46  74 103 132 166 201 239 285
#     4  10  20  35  53  72  95 125 163 205 248 292
#     4   8  15  28  47  70  98 130 162 197 238 284
#     4  10  21  35  53  75  97 124 161 204 247 292
#     4   9  18  34  53  75 103 131 160 198 244 292
#     4  10  21  35  50  71  98 127 162 204 246 289
#
# _framework density 17.422521
#
# number of rings (size 3 to 8) (size 9 to 14) (size 15 to 20)
#    0.000    2.500    0.000    3.000    0.000    8.000 
#    0.000    2.500    0.000    0.750    0.000    5.250 
#    0.000    0.000    0.000    0.000    0.000    0.000 
#
# Total GULP energy -356645.880364 kJ/mol
# GULP energy per Si atom -5572.591881 kJ/mol
# Density = 1.738287 g / cm^3
# Si number density = 17.422521 Si / 1000 Ang^3
#
#
#
# Elastic Constant Matrix: (Units=GPa)
#
#
# Indices 1 2 3 4 5 6 
#
# 1 24.6058 10.1116 16.4144 0.0000 0.0000 0.0000
# 2 10.1116 53.2043 9.5263 0.0000 0.0000 0.0000
# 3 16.4144 9.5263 76.3084 0.0000 0.0000 0.0000
# 4 0.0000 0.0000 0.0000 17.2280 0.0000 0.0000
# 5 0.0000 0.0000 0.0000 0.0000 22.4891 0.0000
# 6 0.0000 0.0000 0.0000 0.0000 0.0000 28.0683
#
#
#
# Elastic Compliance Matrix: (Units=1/GPa)
#
#
# Indices 1 2 3 4 5 6 
#
# 1 0.050441 -0.007818 -0.009874 0.000000 0.000000 0.000000
# 2 -0.007818 0.020437 -0.000870 0.000000 0.000000 0.000000
# 3 -0.009874 -0.000870 0.015337 0.000000 0.000000 0.000000
# 4 0.000000 0.000000 0.000000 0.058045 0.000000 0.000000
# 5 0.000000 0.000000 0.000000 0.000000 0.044466 0.000000
# 6 0.000000 0.000000 0.000000 0.000000 0.000000 0.035627
#
#
# Mechanical properties :
#
#
# Convention : Reuss Voigt Hill
#
# Bulk Modulus (GPa) = 20.37034 25.13590 22.75312
# Shear Modulus (GPa) = 17.99587 21.42815 19.71201
#
# Velocity S-wave (km/s) = 3.21738 3.51081 3.36729
# Velocity P-wave (km/s) = 5.05167 5.55815 5.31095
#
# Compressibility (1/GPa) = 0.04909098
#
# Stress axis : x y z
#
# Youngs Moduli (GPa) = 19.82522 48.93068 65.20075
#
# Poissons Ratio (x) = 0.38256 0.64380
# Poissons Ratio (y) = 0.15500 0.05670
# Poissons Ratio (z) = 0.19576 0.04255
#
# Static dielectric constant tensor:
#      x y z
#    x 1.590920 0.000000 0.000000 
#    y 0.000000 1.611530 0.000000 
#    z 0.000000 0.000000 1.585670 
# 
# From -- ./inp_files/34169.got.cif
#   From: 2010.05.17/outbox.cif.g08.bks.cpg/sg53_18_cif.got.tgz:34169.got - 2010.06.03 12:45:16.
