data_PCOD9414494
_publ_section_title
;
Structure prediction by ZEFSAII (Michael W. Deem and Ramdas Pophale) SiO2 
 PCOD9414494
Probable space group: P M N A
;
_chemical_formula_sum "Si O2"
_cell_formula_units_Z 52
_cell_length_a 13.495833
_cell_length_b 12.123187
_cell_length_c 19.396775
_cell_angle_alpha 90.000000
_cell_angle_beta 90.000000
_cell_angle_gamma 90.000000
_cell_volume 3173.554989
_symmetry_space_group_name_H-M "P M N A"
_symmetry_group_IT_number 53
_symmetry_cell_setting 'orthorhombic'
loop_
_space_group_symop_operation_xyz
x,y,z
1/2-x,-y,1/2+z
x,-y,-z
1/2-x,y,1/2-z
-x,-y,-z
1/2+x,y,1/2-z
-x,y,z
1/2+x,-y,1/2+z
loop_
_atom_site_type_symbol
_atom_site_label
_atom_site_fract_x
_atom_site_fract_y
_atom_site_fract_z
Si Si1 0.250000 0.787766 0.250000
Si Si2 0.700073 0.005079 0.918238
Si Si3 0.381014 0.374297 0.009874
Si Si4 0.383336 0.763114 0.128107
Si Si5 0.115002 0.960404 0.170099
Si Si6 0.110085 0.790077 0.787862
Si Si7 0.811643 0.237671 0.360244
O O1 0.310740 0.726628 0.190016
O O2 0.167690 0.866044 0.214448
O O3 0.639465 0.107574 0.886592
O O4 0.814783 0.024651 0.896490
O O5 0.670817 0.887631 0.886075
O O6 0.687235 0.000000 0.000000
O O7 0.500000 0.374662 0.017232
O O8 0.338169 0.318404 0.078080
O O9 0.347531 0.500000 0.000000
O O10 0.358865 0.302487 0.941858
O O11 0.500000 0.748590 0.143806
O O12 0.000000 0.937472 0.155407
O O13 0.119981 0.076368 0.211236
O O14 0.127838 0.747963 0.710511
O O15 0.197353 0.750188 0.837390
O O16 0.000000 0.762631 0.811947
#
# Coordination Sequence:
#
# PCOD9414494 Si02
#       7
#     4   8   8   8   8   8   8
#     4  10  18  30  48  68 100 130 166 202 230 292
#     4  10  18  29  46  75 106 128 161 199 237 292
#     4  10  21  36  53  73  97 126 161 203 250 294
#     4  10  20  33  51  74 100 129 159 199 244 286
#     4   9  17  28  43  67 103 140 163 190 238 290
#     4   9  17  29  48  74 100 131 166 198 239 288
#     4  10  18  31  51  74 103 131 159 201 246 286
#
# _framework density 16.38541
#
# number of rings (size 3 to 8) (size 9 to 14) (size 15 to 20)
#    0.000    2.308    1.538    3.692    0.000    3.077 
#    0.000    1.538    0.000    0.462    0.000    0.000 
#    0.000    0.000    0.000    0.000    0.000    0.000 
#
# Total GULP energy -289875.584382 kJ/mol
# GULP energy per Si atom -5574.530469 kJ/mol
# Density = 1.634812 g / cm^3
# Si number density = 16.385410 Si / 1000 Ang^3
#
#
#
# Elastic Constant Matrix: (Units=GPa)
#
#
# Indices 1 2 3 4 5 6 
#
# 1 64.4377 19.7486 28.9714 0.0000 0.0000 0.0000
# 2 19.7486 69.5143 34.8328 0.0000 0.0000 0.0000
# 3 28.9714 34.8328 107.8134 0.0000 0.0000 0.0000
# 4 0.0000 0.0000 0.0000 5.6357 0.0000 0.0000
# 5 0.0000 0.0000 0.0000 0.0000 14.2848 0.0000
# 6 0.0000 0.0000 0.0000 0.0000 0.0000 8.0282
#
#
#
# Elastic Compliance Matrix: (Units=1/GPa)
#
#
# Indices 1 2 3 4 5 6 
#
# 1 0.018248 -0.003254 -0.003852 0.000000 0.000000 0.000000
# 2 -0.003254 0.017745 -0.004859 0.000000 0.000000 0.000000
# 3 -0.003852 -0.004859 0.011880 0.000000 0.000000 0.000000
# 4 0.000000 0.000000 0.000000 0.177440 0.000000 0.000000
# 5 0.000000 0.000000 0.000000 0.000000 0.070005 0.000000
# 6 0.000000 0.000000 0.000000 0.000000 0.000000 0.124561
#
#
# Mechanical properties :
#
#
# Convention : Reuss Voigt Hill
#
# Bulk Modulus (GPa) = 41.76535 45.43012 43.59773
# Shear Modulus (GPa) = 11.06712 16.13725 13.60218
#
# Velocity S-wave (km/s) = 2.60171 3.14164 2.88434
# Velocity P-wave (km/s) = 5.87962 6.39891 6.14475
#
# Compressibility (1/GPa) = 0.02394329
#
# Stress axis : x y z
#
# Youngs Moduli (GPa) = 54.80021 56.35546 84.17356
#
# Poissons Ratio (x) = 0.18337 0.32427
# Poissons Ratio (y) = 0.17831 0.40897
# Poissons Ratio (z) = 0.21111 0.27381
#
# Static dielectric constant tensor:
#      x y z
#    x 1.554930 0.000000 0.000000 
#    y 0.000000 1.537170 0.000000 
#    z 0.000000 0.000000 1.550710 
# 
# From -- ./inp_files/28444.got.cif
#   From: 2010.05.17/outbox.cif.g08.bks.cpg/sg53_15_cif.got.tgz:28444.got - 2010.06.03 12:45:16.
