data_PCOD9414997
_publ_section_title
;
Structure prediction by ZEFSAII (Michael W. Deem and Ramdas Pophale) SiO2 
 PCOD9414997
Probable space group: P M N A
;
_chemical_formula_sum "Si O2"
_cell_formula_units_Z 32
_cell_length_a 10.065782
_cell_length_b 10.502226
_cell_length_c 17.816330
_cell_angle_alpha 90.000000
_cell_angle_beta 90.000000
_cell_angle_gamma 90.000000
_cell_volume 1883.419785
_symmetry_space_group_name_H-M "P M N A"
_symmetry_group_IT_number 53
_symmetry_cell_setting 'orthorhombic'
loop_
_space_group_symop_operation_xyz
x,y,z
1/2-x,-y,1/2+z
x,-y,-z
1/2-x,y,1/2-z
-x,-y,-z
1/2+x,y,1/2-z
-x,y,z
1/2+x,-y,1/2+z
loop_
_atom_site_type_symbol
_atom_site_label
_atom_site_fract_x
_atom_site_fract_y
_atom_site_fract_z
Si Si1 0.500000 0.405796 0.689379
Si Si2 0.000000 0.830893 0.285316
Si Si3 0.720260 0.473245 0.414584
Si Si4 0.750000 0.999343 0.750000
Si Si5 0.342680 0.248605 0.317349
Si Si6 0.000000 0.570517 0.360048
O O1 0.500000 0.257249 0.710394
O O2 0.627001 0.448349 0.642398
O O3 0.500000 0.469330 0.772023
O O4 0.868520 0.916109 0.282770
O O5 0.000000 0.724794 0.351266
O O6 0.682495 0.500000 0.500000
O O7 0.697517 0.326603 0.390892
O O8 0.869843 0.517779 0.399769
O O9 0.692533 0.901033 0.687580
O O10 0.250000 0.303268 0.250000
O O11 0.500000 0.263118 0.304431
#
# Coordination Sequence:
#
# PCOD9414997 Si02
#       6
#     4   4   8   4   8   4
#     4  10  21  36  61  83 114 150 193 238 284 334
#     4  10  20  34  60  84 112 140 206 240 268 328
#     4  12  23  37  57  89 125 149 183 236 300 348
#     4  10  18  34  56  90 104 148 192 252 272 320
#     4  10  21  35  59  85 116 144 194 237 287 338
#     4  10  23  38  59  85 114 154 191 238 282 340
#
# _framework density 16.990372000000001
#
# number of rings (size 3 to 8) (size 9 to 14) (size 15 to 20)
#    1.500    0.000    2.500    4.500    1.750    0.000 
#    0.000    0.000    0.000    9.000    0.000    0.000 
#    0.000    0.000    0.000    0.000    0.000    0.000 
#
# Total GULP energy -178190.143886 kJ/mol
# GULP energy per Si atom -5568.441996 kJ/mol
# Density = 1.695170 g / cm^3
# Si number density = 16.990372 Si / 1000 Ang^3
#
#
#
# Elastic Constant Matrix: (Units=GPa)
#
#
# Indices 1 2 3 4 5 6 
#
# 1 104.7744 35.4256 -11.7370 0.0000 0.0000 0.0000
# 2 35.4256 100.8123 3.6702 0.0000 0.0000 0.0000
# 3 -11.7370 3.6702 48.9732 0.0000 0.0000 0.0000
# 4 0.0000 0.0000 0.0000 4.1991 0.0000 0.0000
# 5 0.0000 0.0000 0.0000 0.0000 111.9466 0.0000
# 6 0.0000 0.0000 0.0000 0.0000 0.0000 49.6375
#
#
#
# Elastic Compliance Matrix: (Units=1/GPa)
#
#
# Indices 1 2 3 4 5 6 
#
# 1 0.011255 -0.004064 0.003002 0.000000 0.000000 0.000000
# 2 -0.004064 0.011414 -0.001829 0.000000 0.000000 0.000000
# 3 0.003002 -0.001829 0.021276 0.000000 0.000000 0.000000
# 4 0.000000 0.000000 0.000000 0.238147 0.000000 0.000000
# 5 0.000000 0.000000 0.000000 0.000000 0.008933 0.000000
# 6 0.000000 0.000000 0.000000 0.000000 0.000000 0.020146
#
#
# Mechanical properties :
#
#
# Convention : Reuss Voigt Hill
#
# Bulk Modulus (GPa) = 26.20455 34.36418 30.28436
# Shear Modulus (GPa) = 15.16646 48.30335 31.73491
#
# Velocity S-wave (km/s) = 2.99097 5.33775 4.32651
# Velocity P-wave (km/s) = 5.23302 7.63271 6.54381
#
# Compressibility (1/GPa) = 0.03816131
#
# Stress axis : x y z
#
# Youngs Moduli (GPa) = 88.85117 87.61005 47.00156
#
# Poissons Ratio (x) = 0.35607 -0.14110
# Poissons Ratio (y) = 0.36111 0.08599
# Poissons Ratio (z) = -0.26672 0.16028
#
# Static dielectric constant tensor:
#      x y z
#    x 1.582380 0.000000 0.000000 
#    y 0.000000 1.608340 0.000000 
#    z 0.000000 0.000000 1.548130 
# 
# From -- ./inp_files/25781.got.cif
#   From: 2010.05.17/outbox.cif.g08.bks.cpg/sg53_13_cif.got.tgz:25781.got - 2010.06.03 12:45:16.
