data_PCOD9414780
_publ_section_title
;
Structure prediction by ZEFSAII (Michael W. Deem and Ramdas Pophale) SiO2 
 PCOD9414780
Probable space group: P M N A
;
_chemical_formula_sum "Si O2"
_cell_formula_units_Z 48
_cell_length_a 8.765393
_cell_length_b 15.571916
_cell_length_c 17.734611
_cell_angle_alpha 90.000000
_cell_angle_beta 90.000000
_cell_angle_gamma 90.000000
_cell_volume 2420.667347
_symmetry_space_group_name_H-M "P M N A"
_symmetry_group_IT_number 53
_symmetry_cell_setting 'orthorhombic'
loop_
_space_group_symop_operation_xyz
x,y,z
1/2-x,-y,1/2+z
x,-y,-z
1/2-x,y,1/2-z
-x,-y,-z
1/2+x,y,1/2-z
-x,y,z
1/2+x,-y,1/2+z
loop_
_atom_site_type_symbol
_atom_site_label
_atom_site_fract_x
_atom_site_fract_y
_atom_site_fract_z
Si Si1 0.820176 0.631511 0.439909
Si Si2 0.819750 0.685286 0.902719
Si Si3 0.318694 0.853656 0.834293
Si Si4 0.820054 0.795965 0.332898
Si Si5 0.317893 0.029381 0.664858
Si Si6 0.681620 0.493452 0.330350
O O1 0.729336 0.650752 0.515838
O O2 0.800170 0.712946 0.384517
O O3 0.757755 0.548874 0.396224
O O4 0.000000 0.621698 0.456164
O O5 0.727870 0.770137 0.880972
O O6 0.788575 0.607078 0.845368
O O7 0.000000 0.704000 0.900746
O O8 0.250000 0.843389 0.750000
O O9 0.500000 0.862418 0.828781
O O10 0.248065 0.941223 0.868345
O O11 0.750000 0.780383 0.250000
O O12 0.000000 0.813491 0.324267
O O13 0.740679 0.880510 0.367869
O O14 0.250000 0.030785 0.750000
O O15 0.500000 0.026722 0.666887
O O16 0.750000 0.519518 0.250000
O O17 0.500000 0.507254 0.331224
#
# Coordination Sequence:
#
# PCOD9414780 Si02
#       6
#     8   8   8   8   8   8
#     4  11  24  40  60  86 118 155 192 235 288 345
#     4  11  24  41  60  85 118 154 193 237 288 344
#     4  11  21  36  59  86 117 152 193 240 288 340
#     4  10  20  35  56  84 115 149 192 238 285 337
#     4  10  18  31  54  83 114 149 190 237 287 336
#     4  11  24  41  63  89 116 149 190 238 286 338
#
# _framework density 19.829242000000001
#
# number of rings (size 3 to 8) (size 9 to 14) (size 15 to 20)
#    0.000    1.333    0.000    8.500    0.000   10.000 
#    0.000    0.833    0.000    5.000    0.000    0.000 
#    0.000    0.000    0.000    0.000    0.000    0.000 
#
# Total GULP energy -268404.997721 kJ/mol
# GULP energy per Si atom -5591.770786 kJ/mol
# Density = 1.978411 g / cm^3
# Si number density = 19.829242 Si / 1000 Ang^3
#
#
#
# Elastic Constant Matrix: (Units=GPa)
#
#
# Indices 1 2 3 4 5 6 
#
# 1 125.6949 54.2358 10.1016 0.0000 0.0000 0.0000
# 2 54.2358 78.8802 -8.5041 0.0000 0.0000 0.0000
# 3 10.1016 -8.5041 37.2675 0.0000 0.0000 0.0000
# 4 0.0000 0.0000 0.0000 -8.2938 0.0000 0.0000
# 5 0.0000 0.0000 0.0000 0.0000 29.7366 0.0000
# 6 0.0000 0.0000 0.0000 0.0000 0.0000 36.4796
#
#
#
# Elastic Compliance Matrix: (Units=1/GPa)
#
#
# Indices 1 2 3 4 5 6 
#
# 1 0.012284 -0.009027 -0.005390 0.000000 0.000000 0.000000
# 2 -0.009027 0.019631 0.006927 0.000000 0.000000 0.000000
# 3 -0.005390 0.006927 0.029875 0.000000 0.000000 0.000000
# 4 0.000000 0.000000 0.000000 -0.120572 0.000000 0.000000
# 5 0.000000 0.000000 0.000000 0.000000 0.033629 0.000000
# 6 0.000000 0.000000 0.000000 0.000000 0.000000 0.027413
#
#
# Mechanical properties :
#
#
# Convention : Reuss Voigt Hill
#
# Bulk Modulus (GPa) = 21.36341 39.27879 30.32110
# Shear Modulus (GPa) = 152.24346 23.98511 88.11428
#
# Velocity S-wave (km/s) = 8.77177 3.48168 6.67331
# Velocity P-wave (km/s) = 10.64843 6.00119 8.64301
#
# Compressibility (1/GPa) = 0.04680901
#
# Stress axis : x y z
#
# Youngs Moduli (GPa) = 81.40638 50.93970 33.47336
#
# Poissons Ratio (x) = 0.45984 0.18041
# Poissons Ratio (y) = 0.73487 -0.23185
# Poissons Ratio (z) = 0.43875 -0.35284
#
# Static dielectric constant tensor:
#      x y z
#    x 1.662320 0.000000 0.000000 
#    y 0.000000 1.727120 0.000000 
#    z 0.000000 0.000000 1.679470 
# 
# From -- ./inp_files/26260.got.cif
#   From: 2010.05.17/outbox.cif.g08.bks.cpg/sg53_14_cif.got.tgz:26260.got - 2010.06.03 12:45:16.
