data_PCOD9414025
_publ_section_title
;
Structure prediction by ZEFSAII (Michael W. Deem and Ramdas Pophale) SiO2 
 PCOD9414025
Probable space group: P N N A
;
_chemical_formula_sum "Si O2"
_cell_formula_units_Z 60
_cell_length_a 18.000000
_cell_length_b 9.000000
_cell_length_c 18.000000
_cell_angle_alpha 90.000000
_cell_angle_beta 90.000000
_cell_angle_gamma 90.000000
_cell_volume 2916.000000
_symmetry_space_group_name_H-M "P N N A"
_symmetry_group_IT_number 52
_symmetry_cell_setting 'orthorhombic'
loop_
_space_group_symop_operation_xyz
x,y,z
1/2-x,-y,z
x,1/2-y,1/2-z
1/2-x,1/2+y,1/2-z
-x,-y,-z
1/2+x,y,-z
-x,1/2+y,1/2+z
1/2+x,1/2-y,1/2+z
loop_
_atom_site_type_symbol
_atom_site_label
_atom_site_fract_x
_atom_site_fract_y
_atom_site_fract_z
Si Si1 0.541878 0.811463 0.404124
Si Si2 0.467774 0.186284 0.063015
Si Si3 0.442176 0.003230 0.839278
Si Si4 0.706582 0.844343 0.912115
Si Si5 0.470355 0.434110 0.188827
Si Si6 0.664213 0.750000 0.750000
Si Si7 0.290423 0.854047 0.819304
Si Si8 0.711183 0.656752 0.056919
O O1 0.511452 0.755002 0.483803
O O2 0.560952 0.679803 0.346347
O O3 0.623450 0.870960 0.428182
O O4 0.485563 0.921575 0.362091
O O5 0.509557 0.041499 0.089644
O O6 0.380881 0.145310 0.067899
O O7 0.485139 0.302226 0.129978
O O8 0.476412 0.953045 0.760344
O O9 0.365912 0.918199 0.851929
O O10 0.708649 0.792736 0.825242
O O11 0.750000 0.000000 0.920327
O O12 0.729973 0.725619 0.975483
O O13 0.390758 0.386125 0.224650
O O14 0.306143 0.750000 0.750000
O O15 0.242387 0.771063 0.881577
O O16 0.250000 0.000000 0.789340
O O17 0.750000 0.500000 0.065615
#
# Coordination Sequence:
#
# PCOD9414025 Si02
#       8
#     8   8   8   8   8   4   8   8
#     4  11  25  40  67  98 137 172 230 277 334 406
#     4  10  22  44  67  98 129 178 221 274 342 408
#     4  12  23  42  68  98 134 177 221 282 343 403
#     4  10  22  45  74  96 135 176 224 289 344 414
#     4  11  21  42  67  96 133 175 219 285 334 401
#     4  10  22  46  74 100 138 172 234 288 360 408
#     4  12  26  42  65  94 138 185 230 277 337 408
#     4  11  26  44  64  98 138 183 229 279 339 409
#
# _framework density 20.576132000000001
#
# number of rings (size 3 to 8) (size 9 to 14) (size 15 to 20)
#    0.000    1.067    4.000    2.800    7.467    0.533 
#    0.000    1.333    0.000    0.000    0.000    0.000 
#    0.000    0.000    0.000    0.000    0.000    0.000 
#
# Total GULP energy -334801.925909 kJ/mol
# GULP energy per Si atom -5580.032098 kJ/mol
# Density = 2.052930 g / cm^3
# Si number density = 20.576132 Si / 1000 Ang^3
#
#
#
# Elastic Constant Matrix: (Units=GPa)
#
#
# Indices 1 2 3 4 5 6 
#
# 1 18.7358 25.9585 3.0904 0.0000 0.0000 0.0000
# 2 25.9585 112.8369 33.2232 0.0000 0.0000 0.0000
# 3 3.0904 33.2232 101.2713 0.0000 0.0000 0.0000
# 4 0.0000 0.0000 0.0000 37.4861 0.0000 0.0000
# 5 0.0000 0.0000 0.0000 0.0000 6.4598 0.0000
# 6 0.0000 0.0000 0.0000 0.0000 0.0000 28.4374
#
#
#
# Elastic Compliance Matrix: (Units=1/GPa)
#
#
# Indices 1 2 3 4 5 6 
#
# 1 0.079762 -0.019518 0.003969 0.000000 0.000000 0.000000
# 2 -0.019518 0.014586 -0.004190 0.000000 0.000000 0.000000
# 3 0.003969 -0.004190 0.011128 0.000000 0.000000 0.000000
# 4 0.000000 0.000000 0.000000 0.026677 0.000000 0.000000
# 5 0.000000 0.000000 0.000000 0.000000 0.154803 0.000000
# 6 0.000000 0.000000 0.000000 0.000000 0.000000 0.035165
#
#
# Mechanical properties :
#
#
# Convention : Reuss Voigt Hill
#
# Bulk Modulus (GPa) = 15.15185 39.70981 27.43083
# Shear Modulus (GPa) = 13.03452 25.84811 19.44132
#
# Velocity S-wave (km/s) = 2.51963 3.54816 3.07717
# Velocity P-wave (km/s) = 3.98051 6.01056 5.09761
#
# Compressibility (1/GPa) = 0.06599853
#
# Stress axis : x y z
#
# Youngs Moduli (GPa) = 12.53735 68.55844 89.86529
#
# Poissons Ratio (x) = 1.33813 -0.35669
# Poissons Ratio (y) = 0.24471 0.37649
# Poissons Ratio (z) = -0.04976 0.28723
#
# Static dielectric constant tensor:
#      x y z
#    x 1.785110 0.000000 0.000000 
#    y 0.000000 1.755860 0.000000 
#    z 0.000000 0.000000 1.710380 
# 
# From -- ./inp_files/33782.got.cif
#   From: 2010.05.17/outbox.ucp.g08.bks.cvg/sg52_17_cif.got.tgz:33782.got - 2010.06.11 16:30:12.
