data_PCOD9414890
_publ_section_title
;
Structure prediction by ZEFSAII (Michael W. Deem and Ramdas Pophale) SiO2 
 PCOD9414890
Probable space group: P M N A
;
_chemical_formula_sum "Si O2"
_cell_formula_units_Z 64
_cell_length_a 15.634817
_cell_length_b 24.806871
_cell_length_c 8.732575
_cell_angle_alpha 90.000000
_cell_angle_beta 90.000000
_cell_angle_gamma 90.000000
_cell_volume 3386.936972
_symmetry_space_group_name_H-M "P M N A"
_symmetry_group_IT_number 53
_symmetry_cell_setting 'orthorhombic'
loop_
_space_group_symop_operation_xyz
x,y,z
1/2-x,-y,1/2+z
x,-y,-z
1/2-x,y,1/2-z
-x,-y,-z
1/2+x,y,1/2-z
-x,y,z
1/2+x,-y,1/2+z
loop_
_atom_site_type_symbol
_atom_site_label
_atom_site_fract_x
_atom_site_fract_y
_atom_site_fract_z
Si Si1 0.250671 0.740667 0.431950
Si Si2 0.595884 0.057912 0.438212
Si Si3 0.758477 0.867861 0.067297
Si Si4 0.099188 0.669560 0.932187
Si Si5 0.329015 0.953994 0.871092
Si Si6 0.104184 0.444468 0.924975
Si Si7 0.099332 0.670346 0.566313
Si Si8 0.104228 0.444179 0.574657
O O1 0.250000 0.732822 0.250000
O O2 0.253779 0.804455 0.462863
O O3 0.334423 0.711801 0.499328
O O4 0.165718 0.713152 0.499725
O O5 0.500000 0.064913 0.494809
O O6 0.654827 0.104842 0.504862
O O7 0.597835 0.054527 0.254123
O O8 0.627747 0.000000 0.500000
O O9 0.750000 0.877228 0.250000
O O10 0.688702 0.900256 0.968403
O O11 0.101047 0.672510 0.749327
O O12 0.000000 0.678046 0.982367
O O13 0.126362 0.609600 0.984462
O O14 0.250000 0.964192 0.750000
O O15 0.338895 0.000000 0.000000
O O16 0.132651 0.440480 0.749903
O O17 0.000000 0.446746 0.924949
O O18 0.134760 0.500000 0.000000
O O19 0.126811 0.610401 0.513539
O O20 0.000000 0.678766 0.516314
O O21 0.134326 0.500000 0.500000
O O22 0.000000 0.446202 0.573581
#
# Coordination Sequence:
#
# PCOD9414890 Si02
#       8
#     8   8   8   8   8   8   8   8
#     4  11  24  40  59  83 112 149 195 239 284 339
#     4  10  21  36  57  88 122 151 183 229 281 329
#     4  10  21  39  59  80 109 150 194 232 274 329
#     4  10  21  37  58  82 110 147 187 232 287 343
#     4  10  18  32  57  84 112 149 190 227 270 327
#     4   9  16  28  49  77 108 142 183 228 278 340
#     4  10  21  38  59  83 113 147 186 236 290 342
#     4   9  16  28  50  79 110 144 182 226 281 345
#
# _framework density 18.896129999999999
#
# number of rings (size 3 to 8) (size 9 to 14) (size 15 to 20)
#    0.000    2.125    0.000    4.500    0.000    8.250 
#    0.000    5.000    0.000    0.000    0.000    0.000 
#    0.000    0.000    0.000    0.000    0.000    0.000 
#
# Total GULP energy -357127.909772 kJ/mol
# GULP energy per Si atom -5580.123590 kJ/mol
# Density = 1.885312 g / cm^3
# Si number density = 18.896130 Si / 1000 Ang^3
#
#
#
# Elastic Constant Matrix: (Units=GPa)
#
#
# Indices 1 2 3 4 5 6 
#
# 1 74.6558 65.5088 41.6520 0.0000 0.0000 0.0000
# 2 65.5088 166.1930 89.1486 0.0000 0.0000 0.0000
# 3 41.6520 89.1486 115.8949 0.0000 0.0000 0.0000
# 4 0.0000 0.0000 0.0000 38.7667 0.0000 0.0000
# 5 0.0000 0.0000 0.0000 0.0000 18.7904 0.0000
# 6 0.0000 0.0000 0.0000 0.0000 0.0000 88.6372
#
#
#
# Elastic Compliance Matrix: (Units=1/GPa)
#
#
# Indices 1 2 3 4 5 6 
#
# 1 0.020742 -0.007112 -0.001984 0.000000 0.000000 0.000000
# 2 -0.007112 0.012682 -0.007200 0.000000 0.000000 0.000000
# 3 -0.001984 -0.007200 0.014880 0.000000 0.000000 0.000000
# 4 0.000000 0.000000 0.000000 0.025795 0.000000 0.000000
# 5 0.000000 0.000000 0.000000 0.000000 0.053219 0.000000
# 6 0.000000 0.000000 0.000000 0.000000 0.000000 0.011282
#
#
# Mechanical properties :
#
#
# Convention : Reuss Voigt Hill
#
# Bulk Modulus (GPa) = 63.64056 83.26250 73.45153
# Shear Modulus (GPa) = 28.34007 39.93448 34.13728
#
# Velocity S-wave (km/s) = 3.87690 4.60213 4.25499
# Velocity P-wave (km/s) = 7.33436 8.50872 7.94327
#
# Compressibility (1/GPa) = 0.01571325
#
# Stress axis : x y z
#
# Youngs Moduli (GPa) = 48.21109 78.85028 67.20584
#
# Poissons Ratio (x) = 0.56075 0.13335
# Poissons Ratio (y) = 0.34286 0.48385
# Poissons Ratio (z) = 0.09566 0.56769
#
# Static dielectric constant tensor:
#      x y z
#    x 1.691620 0.000000 0.000000 
#    y 0.000000 1.623280 0.000000 
#    z 0.000000 0.000000 1.640460 
# 
# From -- ./inp_files/10233.got.cif
#   From: 2010.05.17/outbox.cif.g08.bks.cpg/sg53_6_cif.got.tgz:10233.got - 2010.06.03 12:45:16.
