data_PCOD9414602
_publ_section_title
;
Structure prediction by ZEFSAII (Michael W. Deem and Ramdas Pophale) SiO2 
 PCOD9414602
Probable space group: P M N A
;
_chemical_formula_sum "Si O2"
_cell_formula_units_Z 40
_cell_length_a 14.211651
_cell_length_b 22.259859
_cell_length_c 5.367788
_cell_angle_alpha 90.000000
_cell_angle_beta 90.000000
_cell_angle_gamma 90.000000
_cell_volume 1698.096231
_symmetry_space_group_name_H-M "P M N A"
_symmetry_group_IT_number 53
_symmetry_cell_setting 'orthorhombic'
loop_
_space_group_symop_operation_xyz
x,y,z
1/2-x,-y,1/2+z
x,-y,-z
1/2-x,y,1/2-z
-x,-y,-z
1/2+x,y,1/2-z
-x,y,z
1/2+x,-y,1/2+z
loop_
_atom_site_type_symbol
_atom_site_label
_atom_site_fract_x
_atom_site_fract_y
_atom_site_fract_z
Si Si1 0.851042 0.877414 0.487090
Si Si2 0.639276 0.928667 0.506514
Si Si3 0.886027 0.742082 0.375309
Si Si4 0.386404 0.330239 0.379814
Si Si5 0.888362 0.463416 0.255862
O O1 0.749326 0.909528 0.499256
O O2 0.901173 0.904564 0.249103
O O3 0.842584 0.807228 0.428236
O O4 0.896698 0.894959 0.748661
O O5 0.630439 0.000000 0.500000
O O6 0.867515 0.705252 0.626349
O O7 0.000000 0.750283 0.354691
O O8 0.854204 0.705943 0.127038
O O9 0.500000 0.334522 0.412809
O O10 0.351985 0.397557 0.321208
O O11 0.850652 0.500000 0.500000
O O12 0.000000 0.454927 0.311701
O O13 0.880472 0.500000 0.000000
#
# Coordination Sequence:
#
# PCOD9414602 Si02
#       5
#     8   8   8   8   8
#     4  10  18  30  49  70  89 115 149 182 220 274
#     4  10  19  33  53  71  88 111 142 189 239 273
#     4  10  19  30  44  63  92 127 154 177 214 272
#     4   9  17  28  40  58  87 123 157 184 217 262
#     4   9  15  23  37  56  78 110 154 195 221 245
#
# _framework density 23.555790999999999
#
# number of rings (size 3 to 8) (size 9 to 14) (size 15 to 20)
#    0.000    2.400    0.000    5.400    0.000    4.800 
#    0.000    0.000    0.000    6.600    0.000    0.000 
#    0.000    0.000    0.000  201.600    0.000   89.600 
#
# Total GULP energy -223352.558987 kJ/mol
# GULP energy per Si atom -5583.813975 kJ/mol
# Density = 2.350218 g / cm^3
# Si number density = 23.555791 Si / 1000 Ang^3
#
#
#
# Elastic Constant Matrix: (Units=GPa)
#
#
# Indices 1 2 3 4 5 6 
#
# 1 78.2784 -9.5822 2.4690 0.0000 0.0000 0.0000
# 2 -9.5822 210.8574 73.8258 0.0000 0.0000 0.0000
# 3 2.4690 73.8258 215.1489 0.0000 0.0000 0.0000
# 4 0.0000 0.0000 0.0000 25.1583 0.0000 0.0000
# 5 0.0000 0.0000 0.0000 0.0000 -10.4070 0.0000
# 6 0.0000 0.0000 0.0000 0.0000 0.0000 22.3981
#
#
#
# Elastic Compliance Matrix: (Units=1/GPa)
#
#
# Indices 1 2 3 4 5 6 
#
# 1 0.012876 0.000724 -0.000396 0.000000 0.000000 0.000000
# 2 0.000724 0.005431 -0.001872 0.000000 0.000000 0.000000
# 3 -0.000396 -0.001872 0.005295 0.000000 0.000000 0.000000
# 4 0.000000 0.000000 0.000000 0.039748 0.000000 0.000000
# 5 0.000000 0.000000 0.000000 0.000000 -0.096090 0.000000
# 6 0.000000 0.000000 0.000000 0.000000 0.000000 0.044647
#
#
# Mechanical properties :
#
#
# Convention : Reuss Voigt Hill
#
# Bulk Modulus (GPa) = 48.74874 70.85666 59.80270
# Shear Modulus (GPa) = 229.01158 36.60136 132.80647
#
# Velocity S-wave (km/s) = 9.87076 3.94612 7.51678
# Velocity P-wave (km/s) = 12.27393 7.13500 10.03886
#
# Compressibility (1/GPa) = 0.02051335
#
# Stress axis : x y z
#
# Youngs Moduli (GPa) = 77.66377 184.13484 188.86515
#
# Poissons Ratio (x) = -0.13328 0.07482
# Poissons Ratio (y) = -0.05622 0.35352
# Poissons Ratio (z) = 0.03077 0.34467
#
# Static dielectric constant tensor:
#      x y z
#    x 1.837480 0.000000 0.000000 
#    y 0.000000 1.927920 0.000000 
#    z 0.000000 0.000000 1.833210 
# 
# From -- ./inp_files/2117.got.cif
#   From: 2010.05.17/outbox.cif.g08.bks.cpg/sg53_2_cif.got.tgz:2117.got - 2010.06.03 12:45:16.
