data_PCOD9414297
_publ_section_title
;
Structure prediction by ZEFSAII (Michael W. Deem and Ramdas Pophale) SiO2 
 PCOD9414297
Probable space group: P M N A
;
_chemical_formula_sum "Si O2"
_cell_formula_units_Z 48
_cell_length_a 17.853412
_cell_length_b 9.177165
_cell_length_c 15.214737
_cell_angle_alpha 90.000000
_cell_angle_beta 90.000000
_cell_angle_gamma 90.000000
_cell_volume 2492.838922
_symmetry_space_group_name_H-M "P M N A"
_symmetry_group_IT_number 53
_symmetry_cell_setting 'orthorhombic'
loop_
_space_group_symop_operation_xyz
x,y,z
1/2-x,-y,1/2+z
x,-y,-z
1/2-x,y,1/2-z
-x,-y,-z
1/2+x,y,1/2-z
-x,y,z
1/2+x,-y,1/2+z
loop_
_atom_site_type_symbol
_atom_site_label
_atom_site_fract_x
_atom_site_fract_y
_atom_site_fract_z
Si Si1 0.784993 0.623086 0.154160
Si Si2 0.351776 0.732426 0.824970
Si Si3 0.500000 0.880600 0.892768
Si Si4 0.500000 0.204432 0.901655
Si Si5 0.190025 0.723334 0.869483
Si Si6 0.587450 0.327611 0.528478
Si Si7 0.867856 0.575113 0.407375
O O1 0.750000 0.660526 0.250000
O O2 0.801306 0.450597 0.147157
O O3 0.861076 0.692142 0.115701
O O4 0.714899 0.644238 0.088106
O O5 0.425065 0.806975 0.859498
O O6 0.276180 0.773430 0.877893
O O7 0.339921 0.776072 0.724160
O O8 0.363815 0.557997 0.838115
O O9 0.500000 0.046495 0.858969
O O10 0.500000 0.844227 0.996376
O O11 0.571768 0.304369 0.883502
O O12 0.133492 0.748439 0.949208
O O13 0.587624 0.500000 0.500000
O O14 0.500000 0.285685 0.537505
O O15 0.887590 0.500000 0.500000
#
# Coordination Sequence:
#
# PCOD9414297 Si02
#       7
#     8   8   4   4   8   8   8
#     4  10  17  31  49  79 113 145 178 223 284 344
#     4  10  18  32  56  81 107 141 195 233 284 342
#     4  11  23  36  51  78 113 153 186 237 286 345
#     4  11  24  35  48  79 119 145 187 232 297 339
#     4   9  17  32  51  81 107 143 189 240 277 337
#     4   9  18  29  44  72 114 148 173 223 289 340
#     4  11  18  33  55  77 107 147 185 230 284 343
#
# _framework density 19.255154999999998
#
# number of rings (size 3 to 8) (size 9 to 14) (size 15 to 20)
#    0.000    2.000    5.000    3.250    1.167    0.000 
#    1.500    0.000    3.667    0.000    0.000    0.000 
#    0.000    2.667    0.000    0.000    0.000    0.000 
#
# Total GULP energy -267326.379146 kJ/mol
# GULP energy per Si atom -5569.299566 kJ/mol
# Density = 1.921133 g / cm^3
# Si number density = 19.255155 Si / 1000 Ang^3
#
#
#
# Elastic Constant Matrix: (Units=GPa)
#
#
# Indices 1 2 3 4 5 6 
#
# 1 181.4092 39.6315 54.1624 0.0000 0.0000 0.0000
# 2 39.6315 33.2204 1.3507 0.0000 0.0000 0.0000
# 3 54.1624 1.3507 74.5814 0.0000 0.0000 0.0000
# 4 0.0000 0.0000 0.0000 3.9714 0.0000 0.0000
# 5 0.0000 0.0000 0.0000 0.0000 27.0875 0.0000
# 6 0.0000 0.0000 0.0000 0.0000 0.0000 -18.8397
#
#
#
# Elastic Compliance Matrix: (Units=1/GPa)
#
#
# Indices 1 2 3 4 5 6 
#
# 1 0.010301 -0.011994 -0.007264 0.000000 0.000000 0.000000
# 2 -0.011994 0.044089 0.007912 0.000000 0.000000 0.000000
# 3 -0.007264 0.007912 0.018540 0.000000 0.000000 0.000000
# 4 0.000000 0.000000 0.000000 0.251798 0.000000 0.000000
# 5 0.000000 0.000000 0.000000 0.000000 0.036917 0.000000
# 6 0.000000 0.000000 0.000000 0.000000 0.000000 -0.053080
#
#
# Mechanical properties :
#
#
# Convention : Reuss Voigt Hill
#
# Bulk Modulus (GPa) = 19.90508 53.27779 36.59143
# Shear Modulus (GPa) = 14.36763 15.38163 14.87463
#
# Velocity S-wave (km/s) = 2.73458 2.82943 2.78241
# Velocity P-wave (km/s) = 4.50894 6.19707 5.41914
#
# Compressibility (1/GPa) = 0.05023844
#
# Stress axis : x y z
#
# Youngs Moduli (GPa) = 97.07383 22.68131 53.93729
#
# Poissons Ratio (x) = 0.27204 0.39179
# Poissons Ratio (y) = 1.16432 -0.42675
# Poissons Ratio (z) = 0.70513 -0.17945
#
# Static dielectric constant tensor:
#      x y z
#    x 1.687230 0.000000 0.000000 
#    y 0.000000 1.655440 0.000000 
#    z 0.000000 0.000000 1.728370 
# 
# From -- ./inp_files/23716.got.cif
#   From: 2010.05.17/outbox.cif.g08.bks.cpg/sg53_12_cif.got.tgz:23716.got - 2010.06.03 12:45:16.
