data_PCOD9414427
_publ_section_title
;
Structure prediction by ZEFSAII (Michael W. Deem and Ramdas Pophale) SiO2 
 PCOD9414427
Probable space group: P M N A
;
_chemical_formula_sum "Si O2"
_cell_formula_units_Z 56
_cell_length_a 9.060840
_cell_length_b 21.365179
_cell_length_c 18.479706
_cell_angle_alpha 90.000000
_cell_angle_beta 90.000000
_cell_angle_gamma 90.000000
_cell_volume 3577.421023
_symmetry_space_group_name_H-M "P M N A"
_symmetry_group_IT_number 53
_symmetry_cell_setting 'orthorhombic'
loop_
_space_group_symop_operation_xyz
x,y,z
1/2-x,-y,1/2+z
x,-y,-z
1/2-x,y,1/2-z
-x,-y,-z
1/2+x,y,1/2-z
-x,y,z
1/2+x,-y,1/2+z
loop_
_atom_site_type_symbol
_atom_site_label
_atom_site_fract_x
_atom_site_fract_y
_atom_site_fract_z
Si Si1 0.676443 0.131352 0.077398
Si Si2 0.330351 0.936406 0.451736
Si Si3 0.677441 0.750826 0.827464
Si Si4 0.323913 0.509451 0.326773
Si Si5 0.169127 0.433096 0.541713
Si Si6 0.177988 0.384742 0.391293
Si Si7 0.824403 0.992467 0.672050
O O1 0.500000 0.132105 0.065109
O O2 0.721664 0.195759 0.115488
O O3 0.707049 0.074061 0.132741
O O4 0.757283 0.115649 0.002656
O O5 0.500000 0.922038 0.435000
O O6 0.327387 0.000000 0.500000
O O7 0.240232 0.953993 0.380215
O O8 0.750000 0.762172 0.750000
O O9 0.500000 0.754222 0.820136
O O10 0.714555 0.681527 0.855869
O O11 0.250000 0.524457 0.250000
O O12 0.500000 0.507359 0.321188
O O13 0.271786 0.557690 0.389122
O O14 0.261354 0.441644 0.352148
O O15 0.169239 0.500000 0.500000
O O16 0.212975 0.386285 0.477195
O O17 0.000000 0.420713 0.564334
O O18 0.000000 0.395386 0.385396
O O19 0.750000 0.993849 0.750000
O O20 0.000000 0.998526 0.678168
#
# Coordination Sequence:
#
# PCOD9414427 Si02
#       7
#     8   8   8   8   8   8   8
#     4   9  18  31  45  63  90 122 153 184 219 260
#     4   9  17  29  45  64  86 114 149 186 224 267
#     4  10  20  32  46  66  92 123 156 185 215 254
#     4  11  20  29  44  66  91 117 147 184 225 267
#     4   8  15  29  46  63  86 115 146 181 222 265
#     4   9  18  32  47  64  90 122 152 183 220 262
#     4  10  18  28  44  66  92 119 147 183 225 266
#
# _framework density 15.653734
#
# number of rings (size 3 to 8) (size 9 to 14) (size 15 to 20)
#    0.000    2.571    0.000    3.857    0.000    7.143 
#    0.000    0.000    0.000    0.000    0.000    1.000 
#    0.000    4.571    0.000    0.000    0.000    0.000 
#
# Total GULP energy -312157.352333 kJ/mol
# GULP energy per Si atom -5574.238435 kJ/mol
# Density = 1.561811 g / cm^3
# Si number density = 15.653734 Si / 1000 Ang^3
#
#
#
# Elastic Constant Matrix: (Units=GPa)
#
#
# Indices 1 2 3 4 5 6 
#
# 1 57.2233 5.0363 40.5897 0.0000 0.0000 0.0000
# 2 5.0363 16.9013 -4.2473 0.0000 0.0000 0.0000
# 3 40.5897 -4.2473 66.4219 0.0000 0.0000 0.0000
# 4 0.0000 0.0000 0.0000 24.3159 0.0000 0.0000
# 5 0.0000 0.0000 0.0000 0.0000 31.9819 0.0000
# 6 0.0000 0.0000 0.0000 0.0000 0.0000 16.9812
#
#
#
# Elastic Compliance Matrix: (Units=1/GPa)
#
#
# Indices 1 2 3 4 5 6 
#
# 1 0.034582 -0.015870 -0.022147 0.000000 0.000000 0.000000
# 2 -0.015870 0.067416 0.014009 0.000000 0.000000 0.000000
# 3 -0.022147 0.014009 0.029485 0.000000 0.000000 0.000000
# 4 0.000000 0.000000 0.000000 0.041125 0.000000 0.000000
# 5 0.000000 0.000000 0.000000 0.000000 0.031268 0.000000
# 6 0.000000 0.000000 0.000000 0.000000 0.000000 0.058889
#
#
# Mechanical properties :
#
#
# Convention : Reuss Voigt Hill
#
# Bulk Modulus (GPa) = 11.98094 24.81156 18.39625
# Shear Modulus (GPa) = 14.76652 21.26699 18.01675
#
# Velocity S-wave (km/s) = 3.07469 3.68990 3.39625
# Velocity P-wave (km/s) = 4.50281 5.83425 5.21123
#
# Compressibility (1/GPa) = 0.08346592
#
# Stress axis : x y z
#
# Youngs Moduli (GPa) = 28.91708 14.83319 33.91558
#
# Poissons Ratio (x) = 0.23541 0.75114
# Poissons Ratio (y) = 0.45892 -0.47512
# Poissons Ratio (z) = 0.64043 -0.20780
#
# Static dielectric constant tensor:
#      x y z
#    x 1.523070 0.000000 0.000000 
#    y 0.000000 1.513390 0.000000 
#    z 0.000000 0.000000 1.520130 
# 
# From -- ./inp_files/26672.got.cif
#   From: 2010.05.17/outbox.cif.g08.bks.cpg/sg53_14_cif.got.tgz:26672.got - 2010.06.03 12:45:16.
