data_PCOD9414378
_publ_section_title
;
Structure prediction by ZEFSAII (Michael W. Deem and Ramdas Pophale) SiO2 
 PCOD9414378
Probable space group: P M N A
;
_chemical_formula_sum "Si O2"
_cell_formula_units_Z 48
_cell_length_a 8.884024
_cell_length_b 15.619882
_cell_length_c 21.820706
_cell_angle_alpha 90.000000
_cell_angle_beta 90.000000
_cell_angle_gamma 90.000000
_cell_volume 3028.002781
_symmetry_space_group_name_H-M "P M N A"
_symmetry_group_IT_number 53
_symmetry_cell_setting 'orthorhombic'
loop_
_space_group_symop_operation_xyz
x,y,z
1/2-x,-y,1/2+z
x,-y,-z
1/2-x,y,1/2-z
-x,-y,-z
1/2+x,y,1/2-z
-x,y,z
1/2+x,-y,1/2+z
loop_
_atom_site_type_symbol
_atom_site_label
_atom_site_fract_x
_atom_site_fract_y
_atom_site_fract_z
Si Si1 0.173699 0.979338 0.572983
Si Si2 0.179172 0.154319 0.901951
Si Si3 0.182351 0.441929 0.588113
Si Si4 0.179100 0.805151 0.955039
Si Si5 0.818071 0.375387 0.452999
Si Si6 0.181116 0.700847 0.317325
O O1 0.247161 0.886105 0.578852
O O2 0.000000 0.979226 0.592326
O O3 0.177669 0.000000 0.500000
O O4 0.263621 0.056912 0.603877
O O5 0.262514 0.217476 0.855729
O O6 0.000000 0.158771 0.893175
O O7 0.212643 0.183436 0.972068
O O8 0.228949 0.541220 0.586091
O O9 0.225181 0.398557 0.523314
O O10 0.231551 0.383063 0.644172
O O11 0.000000 0.442660 0.588203
O O12 0.244973 0.714082 0.935177
O O13 0.000000 0.807879 0.947924
O O14 0.000000 0.367949 0.451028
O O15 0.250000 0.700966 0.250000
O O16 0.000000 0.701490 0.314414
#
# Coordination Sequence:
#
# PCOD9414378 Si02
#       6
#     8   8   8   8   8   8
#     4   9  17  28  44  65  90 124 159 188 224 276
#     4  10  19  31  45  65  95 126 156 194 236 281
#     4   8  16  29  47  67  90 121 160 199 236 282
#     4  10  18  27  42  69 100 126 151 188 238 287
#     4   9  15  28  48  68  90 123 160 194 236 290
#     4  11  21  34  50  69  93 126 164 201 238 281
#
# _framework density 15.852033
#
# number of rings (size 3 to 8) (size 9 to 14) (size 15 to 20)
#    0.000    2.500    1.667    3.000    0.000    3.333 
#    0.000    3.333    0.000    0.000    0.000    1.167 
#    0.000    2.667    0.000    0.000    0.000    0.000 
#
# Total GULP energy -267528.717930 kJ/mol
# GULP energy per Si atom -5573.514957 kJ/mol
# Density = 1.581595 g / cm^3
# Si number density = 15.852033 Si / 1000 Ang^3
#
#
#
# Elastic Constant Matrix: (Units=GPa)
#
#
# Indices 1 2 3 4 5 6 
#
# 1 48.0379 47.8232 30.6491 0.0000 0.0000 0.0000
# 2 47.8232 165.4968 43.5255 0.0000 0.0000 0.0000
# 3 30.6491 43.5255 57.1194 0.0000 0.0000 0.0000
# 4 0.0000 0.0000 0.0000 10.8681 0.0000 0.0000
# 5 0.0000 0.0000 0.0000 0.0000 13.5215 0.0000
# 6 0.0000 0.0000 0.0000 0.0000 0.0000 13.1189
#
#
#
# Elastic Compliance Matrix: (Units=1/GPa)
#
#
# Indices 1 2 3 4 5 6 
#
# 1 0.036944 -0.006831 -0.014618 0.000000 0.000000 0.000000
# 2 -0.006831 0.008820 -0.003055 0.000000 0.000000 0.000000
# 3 -0.014618 -0.003055 0.027679 0.000000 0.000000 0.000000
# 4 0.000000 0.000000 0.000000 0.092013 0.000000 0.000000
# 5 0.000000 0.000000 0.000000 0.000000 0.073956 0.000000
# 6 0.000000 0.000000 0.000000 0.000000 0.000000 0.076226
#
#
# Mechanical properties :
#
#
# Convention : Reuss Voigt Hill
#
# Bulk Modulus (GPa) = 40.92659 57.18330 49.05495
# Shear Modulus (GPa) = 13.41230 17.41211 15.41220
#
# Velocity S-wave (km/s) = 2.91192 3.31783 3.12148
# Velocity P-wave (km/s) = 6.09751 7.12943 6.63357
#
# Compressibility (1/GPa) = 0.02443399
#
# Stress axis : x y z
#
# Youngs Moduli (GPa) = 27.06797 113.37918 36.12811
#
# Poissons Ratio (x) = 0.77450 0.52812
# Poissons Ratio (y) = 0.18490 0.11039
# Poissons Ratio (z) = 0.39568 0.34643
#
# Static dielectric constant tensor:
#      x y z
#    x 1.525180 0.000000 0.000000 
#    y 0.000000 1.538600 0.000000 
#    z 0.000000 0.000000 1.502310 
# 
# From -- ./inp_files/26243.got.cif
#   From: 2010.05.17/outbox.cif.g08.bks.cpg/sg53_14_cif.got.tgz:26243.got - 2010.06.03 12:45:16.
