data_PCOD9414979
_publ_section_title
;
Structure prediction by ZEFSAII (Michael W. Deem and Ramdas Pophale) SiO2 
 PCOD9414979
Probable space group: P M N A
;
_chemical_formula_sum "Si O2"
_cell_formula_units_Z 40
_cell_length_a 26.759444
_cell_length_b 9.296303
_cell_length_c 10.310297
_cell_angle_alpha 90.000000
_cell_angle_beta 90.000000
_cell_angle_gamma 90.000000
_cell_volume 2564.829687
_symmetry_space_group_name_H-M "P M N A"
_symmetry_group_IT_number 53
_symmetry_cell_setting 'orthorhombic'
loop_
_space_group_symop_operation_xyz
x,y,z
1/2-x,-y,1/2+z
x,-y,-z
1/2-x,y,1/2-z
-x,-y,-z
1/2+x,y,1/2-z
-x,y,z
1/2+x,-y,1/2+z
loop_
_atom_site_type_symbol
_atom_site_label
_atom_site_fract_x
_atom_site_fract_y
_atom_site_fract_z
Si Si1 0.711661 0.672252 0.500000
Si Si2 0.647042 0.337307 0.245589
Si Si3 0.317900 0.828994 0.000000
Si Si4 0.147042 0.337308 0.745589
Si Si5 0.057909 0.500000 0.155871
O O1 0.720916 0.500000 0.500000
O O2 0.679444 0.703852 0.628815
O O3 0.762658 0.759780 0.500000
O O4 0.679444 0.703852 0.371185
O O5 0.664190 0.500000 0.205561
O O6 0.589911 0.365489 0.289672
O O7 0.654811 0.230757 0.127928
O O8 0.345189 0.769243 0.127928
O O9 0.315280 0.000000 0.000000
O O10 0.089911 0.365489 0.789671
O O11 0.000000 0.500000 0.191839
O O12 0.062222 0.500000 0.000000
#
# Coordination Sequence:
#
# PCOD9414979 Si02
#       5
#     8   8   8   8   8
#     4  10  18  34  54  76 103 136 179 212 258 304
#     4   9  18  35  53  80 101 134 171 215 264 302
#     4  12  24  32  46  73 114 153 174 202 242 302
#     4   9  18  35  53  80 101 134 171 215 264 302
#     4   9  16  33  62  90  99 114 167 231 276 302
#
# _framework density 15.595577
#
# number of rings (size 3 to 8) (size 9 to 14) (size 15 to 20)
#    1.200    1.000    2.000    3.000    0.000    6.400 
#    0.000    2.000    0.000    2.400    0.000    2.800 
#    0.000    0.000    0.000    0.000    0.000    0.000 
#
# Total GULP energy -222699.635685 kJ/mol
# GULP energy per Si atom -5567.490892 kJ/mol
# Density = 1.556008 g / cm^3
# Si number density = 15.595577 Si / 1000 Ang^3
#
#
#
# Elastic Constant Matrix: (Units=GPa)
#
#
# Indices 1 2 3 4 5 6 
#
# 1 149.2052 46.6900 70.4465 0.0000 0.0000 0.0000
# 2 46.6900 67.7359 69.6642 0.0000 0.0000 0.0000
# 3 70.4465 69.6642 124.0451 0.0000 0.0000 0.0000
# 4 0.0000 0.0000 0.0000 -8.0584 0.0000 0.0000
# 5 0.0000 0.0000 0.0000 0.0000 40.7207 0.0000
# 6 0.0000 0.0000 0.0000 0.0000 0.0000 -1.2703
#
#
#
# Elastic Compliance Matrix: (Units=1/GPa)
#
#
# Indices 1 2 3 4 5 6 
#
# 1 0.009309 -0.002319 -0.003984 0.000000 0.000000 0.000000
# 2 -0.002319 0.035528 -0.018636 0.000000 0.000000 0.000000
# 3 -0.003984 -0.018636 0.020790 0.000000 0.000000 0.000000
# 4 0.000000 0.000000 0.000000 -0.124094 0.000000 0.000000
# 5 0.000000 0.000000 0.000000 0.000000 0.024558 0.000000
# 6 0.000000 0.000000 0.000000 0.000000 0.000000 -0.787237
#
#
# Mechanical properties :
#
#
# Convention : Reuss Voigt Hill
#
# Bulk Modulus (GPa) = 63.49518 79.39863 71.44691
# Shear Modulus (GPa) = -6.52725 16.55745 5.01510
#
# Velocity S-wave (km/s) = -2.04803 3.26187 1.79519
# Velocity P-wave (km/s) = 5.93375 8.07514 7.08581
#
# Compressibility (1/GPa) = 0.01574923
#
# Stress axis : x y z
#
# Youngs Moduli (GPa) = 107.42266 28.14709 48.09952
#
# Poissons Ratio (x) = 0.06527 0.19165
# Poissons Ratio (y) = 0.24909 0.89636
# Poissons Ratio (z) = 0.42802 0.52454
#
# Static dielectric constant tensor:
#      x y z
#    x 1.516990 0.000000 0.000000 
#    y 0.000000 1.500780 0.000000 
#    z 0.000000 0.000000 1.518740 
# 
# From -- ./inp_files/12259.got.cif
#   From: 2010.05.17/outbox.cif.g08.bks.cpg/sg53_7_cif.got.tgz:12259.got - 2010.06.03 12:45:16.
