data_PCOD9414394
_publ_section_title
;
Structure prediction by ZEFSAII (Michael W. Deem and Ramdas Pophale) SiO2 
 PCOD9414394
Probable space group: P M N A
;
_chemical_formula_sum "Si O2"
_cell_formula_units_Z 64
_cell_length_a 8.939724
_cell_length_b 27.176972
_cell_length_c 18.666957
_cell_angle_alpha 90.000000
_cell_angle_beta 90.000000
_cell_angle_gamma 90.000000
_cell_volume 4535.223609
_symmetry_space_group_name_H-M "P M N A"
_symmetry_group_IT_number 53
_symmetry_cell_setting 'orthorhombic'
loop_
_space_group_symop_operation_xyz
x,y,z
1/2-x,-y,1/2+z
x,-y,-z
1/2-x,y,1/2-z
-x,-y,-z
1/2+x,y,1/2-z
-x,y,z
1/2+x,-y,1/2+z
loop_
_atom_site_type_symbol
_atom_site_label
_atom_site_fract_x
_atom_site_fract_y
_atom_site_fract_z
Si Si1 0.320039 0.900455 0.910899
Si Si2 0.678643 0.504175 0.672062
Si Si3 0.827998 0.951118 0.449925
Si Si4 0.179161 0.398572 0.081593
Si Si5 0.327771 0.550492 0.046515
Si Si6 0.819960 0.302584 0.171765
Si Si7 0.822186 0.007740 0.172252
Si Si8 0.320568 0.801228 0.827904
O O1 0.500000 0.908995 0.906182
O O2 0.239951 0.941663 0.862693
O O3 0.288633 0.846555 0.880508
O O4 0.278629 0.909201 0.994118
O O5 0.750000 0.500414 0.750000
O O6 0.500000 0.502032 0.676865
O O7 0.719723 0.556729 0.635621
O O8 0.738085 0.462262 0.618273
O O9 0.000000 0.942701 0.427582
O O10 0.827139 0.000000 0.500000
O O11 0.728608 0.964488 0.381934
O O12 0.217596 0.346956 0.118287
O O13 0.000000 0.400839 0.071905
O O14 0.256584 0.409168 0.005848
O O15 0.500000 0.561466 0.062653
O O16 0.322590 0.500000 0.000000
O O17 0.750000 0.312927 0.250000
O O18 0.751821 0.250300 0.148377
O O19 0.000000 0.299229 0.177938
O O20 0.750000 0.001420 0.250000
O O21 0.000000 0.010067 0.177498
O O22 0.250000 0.812314 0.750000
O O23 0.500000 0.795951 0.820986
#
# Coordination Sequence:
#
# PCOD9414394 Si02
#       8
#     8   8   8   8   8   8   8   8
#     4   9  18  31  45  60  81 110 140 171 208 247
#     4  10  18  28  42  60  84 111 140 172 205 244
#     4   8  15  29  44  58  80 107 134 167 206 244
#     4   9  18  30  43  59  81 111 142 172 208 246
#     4   9  17  28  42  60  81 106 137 171 206 245
#     4  10  19  30  43  60  83 110 141 176 211 243
#     4  11  20  28  41  61  84 110 140 171 203 242
#     4  10  19  30  43  60  82 109 141 174 208 242
#
# _framework density 14.111763
#
# number of rings (size 3 to 8) (size 9 to 14) (size 15 to 20)
#    0.000    2.500    0.000    4.875    0.000    7.250 
#    0.000    0.000    0.000    0.000    0.000    0.000 
#    0.000    1.000    0.000    7.750    0.000    4.750 
#
# Total GULP energy -356700.851338 kJ/mol
# GULP energy per Si atom -5573.450802 kJ/mol
# Density = 1.407964 g / cm^3
# Si number density = 14.111763 Si / 1000 Ang^3
#
#
#
# Elastic Constant Matrix: (Units=GPa)
#
#
# Indices 1 2 3 4 5 6 
#
# 1 70.4971 43.8332 59.2668 0.0000 0.0000 0.0000
# 2 43.8332 92.1849 60.6495 0.0000 0.0000 0.0000
# 3 59.2668 60.6495 110.6703 0.0000 0.0000 0.0000
# 4 0.0000 0.0000 0.0000 26.9336 0.0000 0.0000
# 5 0.0000 0.0000 0.0000 0.0000 25.1507 0.0000
# 6 0.0000 0.0000 0.0000 0.0000 0.0000 -31.3825
#
#
#
# Elastic Compliance Matrix: (Units=1/GPa)
#
#
# Indices 1 2 3 4 5 6 
#
# 1 0.027344 -0.005267 -0.011757 0.000000 0.000000 0.000000
# 2 -0.005267 0.017979 -0.007032 0.000000 0.000000 0.000000
# 3 -0.011757 -0.007032 0.019186 0.000000 0.000000 0.000000
# 4 0.000000 0.000000 0.000000 0.037128 0.000000 0.000000
# 5 0.000000 0.000000 0.000000 0.000000 0.039760 0.000000
# 6 0.000000 0.000000 0.000000 0.000000 0.000000 -0.031865
#
#
# Mechanical properties :
#
#
# Convention : Reuss Voigt Hill
#
# Bulk Modulus (GPa) = 60.98907 66.76126 63.87516
# Shear Modulus (GPa) = 30.65429 11.44721 21.05075
#
# Velocity S-wave (km/s) = 4.66580 2.85122 3.86646
# Velocity P-wave (km/s) = 8.50521 7.63223 8.08052
#
# Compressibility (1/GPa) = 0.01639638
#
# Stress axis : x y z
#
# Youngs Moduli (GPa) = 36.57139 55.62176 52.12177
#
# Poissons Ratio (x) = 0.29294 0.61280
# Poissons Ratio (y) = 0.19261 0.36653
# Poissons Ratio (z) = 0.42997 0.39114
#
# Static dielectric constant tensor:
#      x y z
#    x 1.473220 0.000000 0.000000 
#    y 0.000000 1.458020 0.000000 
#    z 0.000000 0.000000 1.455160 
# 
# From -- ./inp_files/27093.got.cif
#   From: 2010.05.17/outbox.cif.g08.bks.cpg/sg53_14_cif.got.tgz:27093.got - 2010.06.03 12:45:16.
