data_PCOD9414400
_publ_section_title
;
Structure prediction by ZEFSAII (Michael W. Deem and Ramdas Pophale) SiO2 
 PCOD9414400
Probable space group: P M N A
;
_chemical_formula_sum "Si O2"
_cell_formula_units_Z 64
_cell_length_a 8.826387
_cell_length_b 17.626410
_cell_length_c 27.292832
_cell_angle_alpha 90.000000
_cell_angle_beta 90.000000
_cell_angle_gamma 90.000000
_cell_volume 4246.151009
_symmetry_space_group_name_H-M "P M N A"
_symmetry_group_IT_number 53
_symmetry_cell_setting 'orthorhombic'
loop_
_space_group_symop_operation_xyz
x,y,z
1/2-x,-y,1/2+z
x,-y,-z
1/2-x,y,1/2-z
-x,-y,-z
1/2+x,y,1/2-z
-x,y,z
1/2+x,-y,1/2+z
loop_
_atom_site_type_symbol
_atom_site_label
_atom_site_fract_x
_atom_site_fract_y
_atom_site_fract_z
Si Si1 0.177199 0.401793 0.040822
Si Si2 0.318923 0.333563 0.942634
Si Si3 0.677619 0.716785 0.630050
Si Si4 0.818944 0.173746 0.962009
Si Si5 0.183062 0.417888 0.196332
Si Si6 0.674820 0.017711 0.941635
Si Si7 0.316593 0.860576 0.575290
Si Si8 0.819038 0.520542 0.387702
O O1 0.185338 0.335091 0.081352
O O2 0.262320 0.472436 0.065290
O O3 0.000000 0.419535 0.033364
O O4 0.251198 0.371475 0.991572
O O5 0.500000 0.329362 0.947010
O O6 0.251442 0.249607 0.939654
O O7 0.282638 0.391720 0.898614
O O8 0.500000 0.728711 0.641124
O O9 0.738225 0.662721 0.673029
O O10 0.740670 0.798440 0.614396
O O11 0.760490 0.097263 0.936224
O O12 0.000000 0.177631 0.960014
O O13 0.775890 0.166920 0.019966
O O14 0.250000 0.428415 0.250000
O O15 0.238812 0.482852 0.158964
O O16 0.000000 0.417780 0.196962
O O17 0.500000 0.024697 0.927094
O O18 0.751858 0.944535 0.917385
O O19 0.679700 0.000000 0.000000
O O20 0.500000 0.863110 0.576706
O O21 0.000000 0.512278 0.383096
#
# Coordination Sequence:
#
# PCOD9414400 Si02
#       8
#     8   8   8   8   8   8   8   8
#     4  10  18  30  45  63  88 121 157 190 226 269
#     4  11  21  30  42  62  92 123 153 193 234 269
#     4   8  15  28  45  66  88 115 150 187 225 267
#     4  10  18  28  43  60  83 120 160 192 224 262
#     4  10  20  35  54  71  91 118 149 189 236 282
#     4   9  17  27  38  57  85 116 151 187 224 261
#     4   9  15  27  43  60  84 115 154 190 220 260
#     4  10  21  34  46  65  90 118 152 189 232 278
#
# _framework density 15.072473
#
# number of rings (size 3 to 8) (size 9 to 14) (size 15 to 20)
#    0.000    2.375    1.250    3.375    0.000    5.500 
#    0.000    1.250    0.000    0.000    0.000    0.000 
#    0.000    1.000    0.000    9.250    0.000    3.875 
#
# Total GULP energy -356670.430261 kJ/mol
# GULP energy per Si atom -5572.975473 kJ/mol
# Density = 1.503817 g / cm^3
# Si number density = 15.072473 Si / 1000 Ang^3
#
#
#
# Elastic Constant Matrix: (Units=GPa)
#
#
# Indices 1 2 3 4 5 6 
#
# 1 52.9108 44.3064 26.2138 0.0000 0.0000 0.0000
# 2 44.3064 130.4459 51.4041 0.0000 0.0000 0.0000
# 3 26.2138 51.4041 50.0581 0.0000 0.0000 0.0000
# 4 0.0000 0.0000 0.0000 11.2105 0.0000 0.0000
# 5 0.0000 0.0000 0.0000 0.0000 5.9219 0.0000
# 6 0.0000 0.0000 0.0000 0.0000 0.0000 26.4826
#
#
#
# Elastic Compliance Matrix: (Units=1/GPa)
#
#
# Indices 1 2 3 4 5 6 
#
# 1 0.028336 -0.006344 -0.008324 0.000000 0.000000 0.000000
# 2 -0.006344 0.014297 -0.011359 0.000000 0.000000 0.000000
# 3 -0.008324 -0.011359 0.036000 0.000000 0.000000 0.000000
# 4 0.000000 0.000000 0.000000 0.089202 0.000000 0.000000
# 5 0.000000 0.000000 0.000000 0.000000 0.168864 0.000000
# 6 0.000000 0.000000 0.000000 0.000000 0.000000 0.037761
#
#
# Mechanical properties :
#
#
# Convention : Reuss Voigt Hill
#
# Bulk Modulus (GPa) = 37.62375 53.02928 45.32651
# Shear Modulus (GPa) = 11.48435 16.15571 13.82003
#
# Velocity S-wave (km/s) = 2.76332 3.27749 3.03133
# Velocity P-wave (km/s) = 5.93274 7.04144 6.51073
#
# Compressibility (1/GPa) = 0.02657896
#
# Stress axis : x y z
#
# Youngs Moduli (GPa) = 35.29048 69.94372 27.77746
#
# Poissons Ratio (x) = 0.44375 0.23121
# Poissons Ratio (y) = 0.22390 0.31553
# Poissons Ratio (z) = 0.29375 0.79451
#
# Static dielectric constant tensor:
#      x y z
#    x 1.503110 0.000000 0.000000 
#    y 0.000000 1.524150 0.000000 
#    z 0.000000 0.000000 1.473870 
# 
# From -- ./inp_files/34511.got.cif
#   From: 2010.05.17/outbox.cif.g08.bks.cpg/sg53_18_cif.got.tgz:34511.got - 2010.06.03 12:45:16.
