data_PCOD9414312
_publ_section_title
;
Structure prediction by ZEFSAII (Michael W. Deem and Ramdas Pophale) SiO2 
 PCOD9414312
Probable space group: P M N A
;
_chemical_formula_sum "Si O2"
_cell_formula_units_Z 24
_cell_length_a 9.197007
_cell_length_b 12.687180
_cell_length_c 8.543879
_cell_angle_alpha 90.000000
_cell_angle_beta 90.000000
_cell_angle_gamma 90.000000
_cell_volume 996.934689
_symmetry_space_group_name_H-M "P M N A"
_symmetry_group_IT_number 53
_symmetry_cell_setting 'orthorhombic'
loop_
_space_group_symop_operation_xyz
x,y,z
1/2-x,-y,1/2+z
x,-y,-z
1/2-x,y,1/2-z
-x,-y,-z
1/2+x,y,1/2-z
-x,y,z
1/2+x,-y,1/2+z
loop_
_atom_site_type_symbol
_atom_site_label
_atom_site_fract_x
_atom_site_fract_y
_atom_site_fract_z
Si Si1 0.500000 0.711042 0.668054
Si Si2 0.000000 0.081303 0.852607
Si Si3 0.750262 0.231432 0.542281
Si Si4 0.000000 0.896758 0.630842
Si Si5 0.000000 0.624126 0.478735
O O1 0.646269 0.698428 0.570779
O O2 0.500000 0.835011 0.705254
O O3 0.500000 0.660545 0.838444
O O4 0.861495 0.158572 0.862716
O O5 0.000000 0.016742 0.688454
O O6 0.000000 0.000000 0.000000
O O7 0.854880 0.147755 0.451637
O O8 0.862550 0.319615 0.603661
O O9 0.000000 0.500000 0.500000
#
# Coordination Sequence:
#
# PCOD9414312 Si02
#       5
#     4   4   8   4   4
#     4   9  16  32  57  82 103 138 191 246 273 345
#     4  11  20  30  58  89 119 159 189 230 296 349
#     4   9  19  35  55  92 112 141 209 235 274 368
#     4  10  17  32  54  80 124 154 182 240 285 329
#     4  10  19  33  56  83 107 146 189 256 291 318
#
# _framework density 24.073795
#
# number of rings (size 3 to 8) (size 9 to 14) (size 15 to 20)
#    0.000    2.667    3.333    4.000    0.000    0.000 
#    0.000   13.333    0.000    0.000   52.000    0.000 
#    0.000    0.000    0.000    0.000    0.000    0.000 
#
# Total GULP energy -133936.711428 kJ/mol
# GULP energy per Si atom -5580.696309 kJ/mol
# Density = 2.401900 g / cm^3
# Si number density = 24.073795 Si / 1000 Ang^3
#
#
#
# Elastic Constant Matrix: (Units=GPa)
#
#
# Indices 1 2 3 4 5 6 
#
# 1 219.8995 71.4742 41.7948 0.0000 0.0000 0.0000
# 2 71.4742 181.8214 44.2575 0.0000 0.0000 0.0000
# 3 41.7948 44.2575 45.6207 0.0000 0.0000 0.0000
# 4 0.0000 0.0000 0.0000 32.0924 0.0000 0.0000
# 5 0.0000 0.0000 0.0000 0.0000 36.6799 0.0000
# 6 0.0000 0.0000 0.0000 0.0000 0.0000 13.4274
#
#
#
# Elastic Compliance Matrix: (Units=1/GPa)
#
#
# Indices 1 2 3 4 5 6 
#
# 1 0.005723 -0.001275 -0.004007 0.000000 0.000000 0.000000
# 2 -0.001275 0.007484 -0.006093 0.000000 0.000000 0.000000
# 3 -0.004007 -0.006093 0.031501 0.000000 0.000000 0.000000
# 4 0.000000 0.000000 0.000000 0.031160 0.000000 0.000000
# 5 0.000000 0.000000 0.000000 0.000000 0.027263 0.000000
# 6 0.000000 0.000000 0.000000 0.000000 0.000000 0.074475
#
#
# Mechanical properties :
#
#
# Convention : Reuss Voigt Hill
#
# Bulk Modulus (GPa) = 45.53648 84.71052 65.12350
# Shear Modulus (GPa) = 24.07611 35.76095 29.91853
#
# Velocity S-wave (km/s) = 3.16586 3.85836 3.52914
# Velocity P-wave (km/s) = 5.68507 7.42385 6.61187
#
# Compressibility (1/GPa) = 0.02196042
#
# Stress axis : x y z
#
# Youngs Moduli (GPa) = 174.72248 133.61923 31.74462
#
# Poissons Ratio (x) = 0.17030 0.12720
# Poissons Ratio (y) = 0.22269 0.19341
# Poissons Ratio (z) = 0.70010 0.81410
#
# Static dielectric constant tensor:
#      x y z
#    x 1.949490 0.000000 0.000000 
#    y 0.000000 1.915210 0.000000 
#    z 0.000000 0.000000 2.126040 
# 
# From -- ./inp_files/13608.got.cif
#   From: 2010.05.17/outbox.cif.g08.bks.cpg/sg53_7_cif.got.tgz:13608.got - 2010.06.03 12:45:16.
