data_PCOD9414735
_publ_section_title
;
Structure prediction by ZEFSAII (Michael W. Deem and Ramdas Pophale) SiO2 
 PCOD9414735
Probable space group: P M N A
;
_chemical_formula_sum "Si O2"
_cell_formula_units_Z 52
_cell_length_a 9.839271
_cell_length_b 14.570974
_cell_length_c 20.519618
_cell_angle_alpha 90.000000
_cell_angle_beta 90.000000
_cell_angle_gamma 90.000000
_cell_volume 2941.851708
_symmetry_space_group_name_H-M "P M N A"
_symmetry_group_IT_number 53
_symmetry_cell_setting 'orthorhombic'
loop_
_space_group_symop_operation_xyz
x,y,z
1/2-x,-y,1/2+z
x,-y,-z
1/2-x,y,1/2-z
-x,-y,-z
1/2+x,y,1/2-z
-x,y,z
1/2+x,-y,1/2+z
loop_
_atom_site_type_symbol
_atom_site_label
_atom_site_fract_x
_atom_site_fract_y
_atom_site_fract_z
Si Si1 0.657275 0.622971 0.960569
Si Si2 0.663694 0.882081 0.438718
Si Si3 0.250000 0.368624 0.250000
Si Si4 0.352298 0.775587 0.851022
Si Si5 0.339202 0.320034 0.582325
Si Si6 0.163335 0.916283 0.909839
Si Si7 0.845478 0.491903 0.133374
O O1 0.500000 0.599678 0.974464
O O2 0.655580 0.713669 0.915846
O O3 0.735456 0.547573 0.917233
O O4 0.747287 0.644205 0.023275
O O5 0.500000 0.887342 0.436927
O O6 0.702770 0.785571 0.406201
O O7 0.698250 0.884404 0.515905
O O8 0.709779 0.977506 0.406669
O O9 0.163009 0.298580 0.293646
O O10 0.327363 0.435064 0.300255
O O11 0.500000 0.820291 0.847006
O O12 0.235563 0.850781 0.858103
O O13 0.500000 0.317949 0.563761
O O14 0.326864 0.398140 0.637647
O O15 0.000000 0.910672 0.903382
O O16 0.000000 0.475874 0.109037
#
# Coordination Sequence:
#
# PCOD9414735 Si02
#       7
#     8   8   4   8   8   8   8
#     4  10  20  32  47  73 108 139 165 203 259 309
#     4   8  15  28  48  77 106 132 164 198 240 301
#     4  10  22  38  52  70  98 132 174 218 262 304
#     4  10  20  33  50  73 101 132 170 213 256 302
#     4  10  18  31  52  76 102 133 172 211 246 301
#     4   9  16  29  51  75 102 135 165 198 247 301
#     4  10  21  35  53  73  95 131 176 217 253 297
#
# _framework density 17.675941999999999
#
# number of rings (size 3 to 8) (size 9 to 14) (size 15 to 20)
#    0.000    2.462    1.538    2.308    0.000    6.154 
#    0.000    2.308    0.000    0.923    0.000    2.154 
#    0.000    0.000    0.000    0.000    0.000    0.000 
#
# Total GULP energy -289481.114978 kJ/mol
# GULP energy per Si atom -5566.944519 kJ/mol
# Density = 1.763571 g / cm^3
# Si number density = 17.675942 Si / 1000 Ang^3
#
#
#
# Elastic Constant Matrix: (Units=GPa)
#
#
# Indices 1 2 3 4 5 6 
#
# 1 73.4535 46.9983 17.5611 0.0000 0.0000 0.0000
# 2 46.9983 151.5881 35.8743 0.0000 0.0000 0.0000
# 3 17.5611 35.8743 40.6245 0.0000 0.0000 0.0000
# 4 0.0000 0.0000 0.0000 18.8648 0.0000 0.0000
# 5 0.0000 0.0000 0.0000 0.0000 8.1160 0.0000
# 6 0.0000 0.0000 0.0000 0.0000 0.0000 12.9739
#
#
#
# Elastic Compliance Matrix: (Units=1/GPa)
#
#
# Indices 1 2 3 4 5 6 
#
# 1 0.017364 -0.004560 -0.003479 0.000000 0.000000 0.000000
# 2 -0.004560 0.009537 -0.006451 0.000000 0.000000 0.000000
# 3 -0.003479 -0.006451 0.031816 0.000000 0.000000 0.000000
# 4 0.000000 0.000000 0.000000 0.053009 0.000000 0.000000
# 5 0.000000 0.000000 0.000000 0.000000 0.123214 0.000000
# 6 0.000000 0.000000 0.000000 0.000000 0.000000 0.077078
#
#
# Mechanical properties :
#
#
# Convention : Reuss Voigt Hill
#
# Bulk Modulus (GPa) = 33.62805 51.83704 42.73254
# Shear Modulus (GPa) = 14.24871 19.00645 16.62758
#
# Velocity S-wave (km/s) = 2.84228 3.28269 3.07039
# Velocity P-wave (km/s) = 5.46237 6.61499 6.06612
#
# Compressibility (1/GPa) = 0.02973708
#
# Stress axis : x y z
#
# Youngs Moduli (GPa) = 57.59207 104.85190 31.43055
#
# Poissons Ratio (x) = 0.47813 0.10935
# Poissons Ratio (y) = 0.26262 0.20275
# Poissons Ratio (z) = 0.20036 0.67639
#
# Static dielectric constant tensor:
#      x y z
#    x 1.607550 0.000000 0.000000 
#    y 0.000000 1.646770 0.000000 
#    z 0.000000 0.000000 1.595410 
# 
# From -- ./inp_files/30658.got.cif
#   From: 2010.05.17/outbox.cif.g08.bks.cpg/sg53_16_cif.got.tgz:30658.got - 2010.06.03 12:45:16.
