data_PCOD9414812
_publ_section_title
;
Structure prediction by ZEFSAII (Michael W. Deem and Ramdas Pophale) SiO2 
 PCOD9414812
Probable space group: P M N A
;
_chemical_formula_sum "Si O2"
_cell_formula_units_Z 56
_cell_length_a 8.219727
_cell_length_b 20.371119
_cell_length_c 16.772404
_cell_angle_alpha 90.000000
_cell_angle_beta 90.000000
_cell_angle_gamma 90.000000
_cell_volume 2808.455806
_symmetry_space_group_name_H-M "P M N A"
_symmetry_group_IT_number 53
_symmetry_cell_setting 'orthorhombic'
loop_
_space_group_symop_operation_xyz
x,y,z
1/2-x,-y,1/2+z
x,-y,-z
1/2-x,y,1/2-z
-x,-y,-z
1/2+x,y,1/2-z
-x,y,z
1/2+x,-y,1/2+z
loop_
_atom_site_type_symbol
_atom_site_label
_atom_site_fract_x
_atom_site_fract_y
_atom_site_fract_z
Si Si1 0.810587 0.431636 0.964468
Si Si2 0.803231 0.143984 0.987331
Si Si3 0.309176 0.485992 0.160831
Si Si4 0.304101 0.055831 0.663036
Si Si5 0.192105 0.654496 0.838383
Si Si6 0.807710 0.095485 0.338277
Si Si7 0.303821 0.287246 0.497976
O O1 0.795534 0.454785 0.873801
O O2 0.000000 0.429890 0.991280
O O3 0.733702 0.500000 0.000000
O O4 0.743176 0.358093 0.971424
O O5 0.758345 0.125103 0.078331
O O6 0.742842 0.218180 0.970077
O O7 0.000000 0.144090 0.984771
O O8 0.749004 0.095811 0.915766
O O9 0.250000 0.476937 0.250000
O O10 0.500000 0.498928 0.154439
O O11 0.270198 0.412838 0.127936
O O12 0.250000 0.082855 0.750000
O O13 0.500000 0.053502 0.662330
O O14 0.238905 0.981591 0.658596
O O15 0.250000 0.669821 0.750000
O O16 0.226066 0.710114 0.902859
O O17 0.000000 0.642757 0.834950
O O18 0.750000 0.119980 0.250000
O O19 0.000000 0.103156 0.339316
O O20 0.500000 0.288286 0.510036
#
# Coordination Sequence:
#
# PCOD9414812 Si02
#       7
#     8   8   8   8   8   8   8
#     4  10  18  34  57  77 101 136 177 222 273 325
#     4  10  21  38  58  84 119 157 194 234 285 345
#     4  11  21  33  51  76 102 130 170 223 277 328
#     4  10  20  36  61  88 116 151 193 239 285 335
#     4  10  18  32  51  74 101 135 175 219 272 331
#     4  11  22  37  60  89 121 155 192 235 281 334
#     4   9  19  35  55  77 107 147 185 221 275 339
#
# _framework density 19.939782999999998
#
# number of rings (size 3 to 8) (size 9 to 14) (size 15 to 20)
#    0.000    1.857    1.429    5.571    0.000    3.714 
#    0.000    4.286    0.000    1.714    0.000    0.000 
#    0.000    0.000    0.000    0.000    0.000    0.000 
#
# Total GULP energy -311886.142234 kJ/mol
# GULP energy per Si atom -5569.395397 kJ/mol
# Density = 1.989440 g / cm^3
# Si number density = 19.939783 Si / 1000 Ang^3
#
#
#
# Elastic Constant Matrix: (Units=GPa)
#
#
# Indices 1 2 3 4 5 6 
#
# 1 43.3009 -3.4836 4.7301 0.0000 0.0000 0.0000
# 2 -3.4836 84.6424 36.1565 0.0000 0.0000 0.0000
# 3 4.7301 36.1565 69.6765 0.0000 0.0000 0.0000
# 4 0.0000 0.0000 0.0000 11.9080 0.0000 0.0000
# 5 0.0000 0.0000 0.0000 0.0000 27.4268 0.0000
# 6 0.0000 0.0000 0.0000 0.0000 0.0000 10.8534
#
#
#
# Elastic Compliance Matrix: (Units=1/GPa)
#
#
# Indices 1 2 3 4 5 6 
#
# 1 0.023560 0.002124 -0.002701 0.000000 0.000000 0.000000
# 2 0.002124 0.015370 -0.008120 0.000000 0.000000 0.000000
# 3 -0.002701 -0.008120 0.018749 0.000000 0.000000 0.000000
# 4 0.000000 0.000000 0.000000 0.083977 0.000000 0.000000
# 5 0.000000 0.000000 0.000000 0.000000 0.036461 0.000000
# 6 0.000000 0.000000 0.000000 0.000000 0.000000 0.092137
#
#
# Mechanical properties :
#
#
# Convention : Reuss Voigt Hill
#
# Bulk Modulus (GPa) = 24.82388 30.26955 27.54672
# Shear Modulus (GPa) = 16.60698 20.71878 18.66288
#
# Velocity S-wave (km/s) = 2.88906 3.22695 3.06267
# Velocity P-wave (km/s) = 4.85853 5.39423 5.13337
#
# Compressibility (1/GPa) = 0.04028379
#
# Stress axis : x y z
#
# Youngs Moduli (GPa) = 42.44456 65.05972 53.33575
#
# Poissons Ratio (x) = -0.13816 0.14408
# Poissons Ratio (y) = -0.09013 0.43310
# Poissons Ratio (z) = 0.11466 0.52830
#
# Static dielectric constant tensor:
#      x y z
#    x 1.709480 0.000000 0.000000 
#    y 0.000000 1.739720 0.000000 
#    z 0.000000 0.000000 0.769140 
# 
# From -- ./inp_files/20624.got.cif
#   From: 2010.05.17/outbox.cif.g08.bks.cpg/sg53_11_cif.got.tgz:20624.got - 2010.06.03 12:45:16.
