data_PCOD9414256
_publ_section_title
;
Structure prediction by ZEFSAII (Michael W. Deem and Ramdas Pophale) SiO2 
 PCOD9414256
Probable space group: P M N A
;
_chemical_formula_sum "Si O2"
_cell_formula_units_Z 64
_cell_length_a 8.784708
_cell_length_b 22.377631
_cell_length_c 18.666078
_cell_angle_alpha 90.000000
_cell_angle_beta 90.000000
_cell_angle_gamma 90.000000
_cell_volume 3669.395422
_symmetry_space_group_name_H-M "P M N A"
_symmetry_group_IT_number 53
_symmetry_cell_setting 'orthorhombic'
loop_
_space_group_symop_operation_xyz
x,y,z
1/2-x,-y,1/2+z
x,-y,-z
1/2-x,y,1/2-z
-x,-y,-z
1/2+x,y,1/2-z
-x,y,z
1/2+x,-y,1/2+z
loop_
_atom_site_type_symbol
_atom_site_label
_atom_site_fract_x
_atom_site_fract_y
_atom_site_fract_z
Si Si1 0.684396 0.063226 0.028951
Si Si2 0.181570 0.631577 0.577451
Si Si3 0.682979 0.262805 0.827548
Si Si4 0.183102 0.381874 0.590921
Si Si5 0.318898 0.755433 0.604820
Si Si6 0.816399 0.187482 0.536820
Si Si7 0.176379 0.506652 0.913304
Si Si8 0.183079 0.871912 0.674081
O O1 0.500000 0.059363 0.031547
O O2 0.731875 0.084995 0.108238
O O3 0.721161 0.118296 0.976418
O O4 0.742756 0.000000 0.000000
O O5 0.223349 0.631727 0.492295
O O6 0.259159 0.688189 0.614811
O O7 0.235836 0.567240 0.605925
O O8 0.000000 0.637026 0.582294
O O9 0.750000 0.252143 0.750000
O O10 0.500000 0.263872 0.823201
O O11 0.732369 0.326708 0.860023
O O12 0.724920 0.212901 0.886002
O O13 0.253085 0.444909 0.614287
O O14 0.000000 0.386466 0.592931
O O15 0.500000 0.757892 0.611268
O O16 0.265237 0.775119 0.525289
O O17 0.243632 0.805529 0.655412
O O18 0.000000 0.194925 0.526958
O O19 0.000000 0.511931 0.893786
O O20 0.186285 0.500000 0.000000
O O21 0.250000 0.891119 0.750000
O O22 0.000000 0.870594 0.676050
#
# Coordination Sequence:
#
# PCOD9414256 Si02
#       8
#     8   8   8   8   8   8   8   8
#     4   8  15  30  56  84 106 137 179 216 253 302
#     4  10  17  29  48  70  98 131 168 207 262 319
#     4  10  20  33  48  69  97 134 177 220 266 316
#     4   9  17  30  46  63  91 129 169 210 262 320
#     4  11  20  30  50  78 105 133 171 216 266 314
#     4   9  17  33  52  72 102 137 174 216 260 312
#     4   9  17  27  41  67  97 122 158 207 260 308
#     4  10  20  35  55  79 111 144 179 217 260 312
#
# _framework density 17.441565000000001
#
# number of rings (size 3 to 8) (size 9 to 14) (size 15 to 20)
#    0.000    2.500    1.250    3.000    0.000    3.000 
#    0.000    0.625    0.000   10.125    0.000    3.500 
#    0.000    0.000    0.000    0.000    0.000    0.000 
#
# Total GULP energy -356861.072022 kJ/mol
# GULP energy per Si atom -5575.954250 kJ/mol
# Density = 1.740187 g / cm^3
# Si number density = 17.441565 Si / 1000 Ang^3
#
#
#
# Elastic Constant Matrix: (Units=GPa)
#
#
# Indices 1 2 3 4 5 6 
#
# 1 45.2567 37.6012 22.8730 0.0000 0.0000 0.0000
# 2 37.6012 148.9902 58.6139 0.0000 0.0000 0.0000
# 3 22.8730 58.6139 91.3680 0.0000 0.0000 0.0000
# 4 0.0000 0.0000 0.0000 15.4744 0.0000 0.0000
# 5 0.0000 0.0000 0.0000 0.0000 23.3465 0.0000
# 6 0.0000 0.0000 0.0000 0.0000 0.0000 8.1327
#
#
#
# Elastic Compliance Matrix: (Units=1/GPa)
#
#
# Indices 1 2 3 4 5 6 
#
# 1 0.028726 -0.005913 -0.003398 0.000000 0.000000 0.000000
# 2 -0.005913 0.010195 -0.005060 0.000000 0.000000 0.000000
# 3 -0.003398 -0.005060 0.015041 0.000000 0.000000 0.000000
# 4 0.000000 0.000000 0.000000 0.064623 0.000000 0.000000
# 5 0.000000 0.000000 0.000000 0.000000 0.042833 0.000000
# 6 0.000000 0.000000 0.000000 0.000000 0.000000 0.122960
#
#
# Mechanical properties :
#
#
# Convention : Reuss Voigt Hill
#
# Bulk Modulus (GPa) = 39.64994 58.19901 48.92447
# Shear Modulus (GPa) = 15.55081 20.49252 18.02167
#
# Velocity S-wave (km/s) = 2.98920 3.43144 3.21792
# Velocity P-wave (km/s) = 5.89034 7.01000 6.47442
#
# Compressibility (1/GPa) = 0.02522072
#
# Stress axis : x y z
#
# Youngs Moduli (GPa) = 34.81131 98.09034 66.48328
#
# Poissons Ratio (x) = 0.58000 0.22592
# Poissons Ratio (y) = 0.20584 0.33639
# Poissons Ratio (z) = 0.11829 0.49632
#
# Static dielectric constant tensor:
#      x y z
#    x 1.585920 0.000000 0.000000 
#    y 0.000000 1.600140 0.000000 
#    z 0.000000 0.000000 1.584540 
# 
# From -- ./inp_files/26961.got.cif
#   From: 2010.05.17/outbox.cif.g08.bks.cpg/sg53_14_cif.got.tgz:26961.got - 2010.06.03 12:45:16.
