data_PCOD9414782
_publ_section_title
;
Structure prediction by ZEFSAII (Michael W. Deem and Ramdas Pophale) SiO2 
 PCOD9414782
Probable space group: P M N A
;
_chemical_formula_sum "Si O2"
_cell_formula_units_Z 56
_cell_length_a 19.961221
_cell_length_b 15.146058
_cell_length_c 8.159208
_cell_angle_alpha 90.000000
_cell_angle_beta 90.000000
_cell_angle_gamma 90.000000
_cell_volume 2466.804450
_symmetry_space_group_name_H-M "P M N A"
_symmetry_group_IT_number 53
_symmetry_cell_setting 'orthorhombic'
loop_
_space_group_symop_operation_xyz
x,y,z
1/2-x,-y,1/2+z
x,-y,-z
1/2-x,y,1/2-z
-x,-y,-z
1/2+x,y,1/2-z
-x,y,z
1/2+x,-y,1/2+z
loop_
_atom_site_type_symbol
_atom_site_label
_atom_site_fract_x
_atom_site_fract_y
_atom_site_fract_z
Si Si1 0.576310 0.637379 0.414250
Si Si2 0.422952 0.146848 0.057239
Si Si3 0.788753 0.085372 0.916596
Si Si4 0.076306 0.537765 0.730382
Si Si5 0.698698 0.728411 0.539533
Si Si6 0.662774 0.319301 0.086492
Si Si7 0.922354 0.978878 0.239298
O O1 0.500000 0.670338 0.389190
O O2 0.577401 0.588782 0.592562
O O3 0.591808 0.562745 0.279580
O O4 0.635360 0.707903 0.424553
O O5 0.500000 0.173603 0.088794
O O6 0.380321 0.234901 0.031243
O O7 0.403669 0.078832 0.203690
O O8 0.421402 0.084628 0.898190
O O9 0.750000 0.105387 0.750000
O O10 0.783974 0.169399 0.030495
O O11 0.865593 0.061479 0.875530
O O12 0.756559 0.000000 0.000000
O O13 0.122579 0.590006 0.604512
O O14 0.000000 0.542442 0.673126
O O15 0.766315 0.675714 0.494955
O O16 0.679679 0.703918 0.724001
O O17 0.000000 0.979676 0.182659
#
# Coordination Sequence:
#
# PCOD9414782 Si02
#       7
#     8   8   8   8   8   8   8
#     4   8  15  31  54  79 115 151 189 239 296 356
#     4   9  17  32  57  84 115 153 191 243 301 357
#     4  12  27  40  60  83 116 163 203 249 304 362
#     4   8  14  27  53  85 112 146 187 234 294 356
#     4  10  22  34  52  83 118 156 199 248 304 353
#     4  10  18  31  54  84 123 149 197 245 291 374
#     4   9  20  37  56  82 114 153 201 246 298 355
#
# _framework density 22.701433000000002
#
# number of rings (size 3 to 8) (size 9 to 14) (size 15 to 20)
#    0.000    2.571    0.000    3.857    6.000    1.429 
#    0.000    0.000   12.571    0.000    0.000    0.000 
#    0.000    8.571    0.000    3.714    0.000    0.000 
#
# Total GULP energy -312875.199841 kJ/mol
# GULP energy per Si atom -5587.057140 kJ/mol
# Density = 2.264976 g / cm^3
# Si number density = 22.701433 Si / 1000 Ang^3
#
#
#
# Elastic Constant Matrix: (Units=GPa)
#
#
# Indices 1 2 3 4 5 6 
#
# 1 94.0933 42.8194 19.8943 0.0000 0.0000 0.0000
# 2 42.8194 83.4713 10.9204 0.0000 0.0000 0.0000
# 3 19.8943 10.9204 43.8096 0.0000 0.0000 0.0000
# 4 0.0000 0.0000 0.0000 16.3304 0.0000 0.0000
# 5 0.0000 0.0000 0.0000 0.0000 7.3696 0.0000
# 6 0.0000 0.0000 0.0000 0.0000 0.0000 14.9111
#
#
#
# Elastic Compliance Matrix: (Units=1/GPa)
#
#
# Indices 1 2 3 4 5 6 
#
# 1 0.014857 -0.006966 -0.005010 0.000000 0.000000 0.000000
# 2 -0.006966 0.015650 -0.000738 0.000000 0.000000 0.000000
# 3 -0.005010 -0.000738 0.025285 0.000000 0.000000 0.000000
# 4 0.000000 0.000000 0.000000 0.061236 0.000000 0.000000
# 5 0.000000 0.000000 0.000000 0.000000 0.135692 0.000000
# 6 0.000000 0.000000 0.000000 0.000000 0.000000 0.067064
#
#
# Mechanical properties :
#
#
# Convention : Reuss Voigt Hill
#
# Bulk Modulus (GPa) = 32.93349 40.96028 36.94689
# Shear Modulus (GPa) = 14.07129 17.57157 15.82143
#
# Velocity S-wave (km/s) = 2.49236 2.78516 2.64282
# Velocity P-wave (km/s) = 4.77716 5.33151 5.06193
#
# Compressibility (1/GPa) = 0.03036422
#
# Stress axis : x y z
#
# Youngs Moduli (GPa) = 67.30778 63.89730 39.54884
#
# Poissons Ratio (x) = 0.44511 0.19815
# Poissons Ratio (y) = 0.46886 0.02918
# Poissons Ratio (z) = 0.33724 0.04714
#
# Static dielectric constant tensor:
#      x y z
#    x 1.858510 0.000000 0.000000 
#    y 0.000000 1.811900 0.000000 
#    z 0.000000 0.000000 1.904140 
# 
# From -- ./inp_files/11103.got.cif
#   From: 2010.05.17/outbox.cif.g08.bks.cpg/sg53_6_cif.got.tgz:11103.got - 2010.06.03 12:45:16.
