data_PCOD9414211
_publ_section_title
;
Structure prediction by ZEFSAII (Michael W. Deem and Ramdas Pophale) SiO2 
 PCOD9414211
Probable space group: P M N A
;
_chemical_formula_sum "Si O2"
_cell_formula_units_Z 40
_cell_length_a 8.634121
_cell_length_b 27.062446
_cell_length_c 9.152656
_cell_angle_alpha 90.000000
_cell_angle_beta 90.000000
_cell_angle_gamma 90.000000
_cell_volume 2138.613567
_symmetry_space_group_name_H-M "P M N A"
_symmetry_group_IT_number 53
_symmetry_cell_setting 'orthorhombic'
loop_
_space_group_symop_operation_xyz
x,y,z
1/2-x,-y,1/2+z
x,-y,-z
1/2-x,y,1/2-z
-x,-y,-z
1/2+x,y,1/2-z
-x,y,z
1/2+x,-y,1/2+z
loop_
_atom_site_type_symbol
_atom_site_label
_atom_site_fract_x
_atom_site_fract_y
_atom_site_fract_z
Si Si1 0.314634 0.950155 0.413792
Si Si2 0.184804 0.151781 0.583398
Si Si3 0.315051 0.643828 0.085106
Si Si4 0.685083 0.253312 0.583503
Si Si5 0.314344 0.449796 0.412936
O O1 0.250000 0.955137 0.250000
O O2 0.500000 0.944290 0.408463
O O3 0.242174 0.900182 0.481294
O O4 0.276511 0.000000 0.500000
O O5 0.250000 0.150655 0.750000
O O6 0.251774 0.202300 0.515962
O O7 0.000000 0.153903 0.587582
O O8 0.250000 0.638329 0.250000
O O9 0.500000 0.647004 0.091505
O O10 0.247542 0.695145 0.020832
O O11 0.260547 0.597065 0.992787
O O12 0.750000 0.253615 0.750000
O O13 0.500000 0.252876 0.586782
O O14 0.277234 0.500000 0.500000
O O15 0.250000 0.453663 0.250000
O O16 0.500000 0.443985 0.411002
#
# Coordination Sequence:
#
# PCOD9414211 Si02
#       5
#     8   8   8   8   8
#     4  10  20  33  50  73 101 134 173 216 263 314
#     4  10  17  27  45  70 100 133 171 214 262 311
#     4  11  21  35  56  83 114 145 180 221 268 319
#     4  10  17  28  47  73 105 137 173 216 263 312
#     4  11  24  41  61  85 113 146 184 224 268 317
#
# _framework density 18.703706
#
# number of rings (size 3 to 8) (size 9 to 14) (size 15 to 20)
#    0.000    1.600    0.000   10.800    0.000    4.800 
#    0.000    0.000    0.000    1.200    0.000    5.600 
#    0.000    0.000    0.000    0.000    0.000    0.000 
#
# Total GULP energy -223329.427914 kJ/mol
# GULP energy per Si atom -5583.235698 kJ/mol
# Density = 1.866114 g / cm^3
# Si number density = 18.703706 Si / 1000 Ang^3
#
#
#
# Elastic Constant Matrix: (Units=GPa)
#
#
# Indices 1 2 3 4 5 6 
#
# 1 168.6688 107.5373 33.8352 0.0000 0.0000 0.0000
# 2 107.5373 225.4165 57.7330 0.0000 0.0000 0.0000
# 3 33.8352 57.7330 51.0487 0.0000 0.0000 0.0000
# 4 0.0000 0.0000 0.0000 13.0602 0.0000 0.0000
# 5 0.0000 0.0000 0.0000 0.0000 13.7659 0.0000
# 6 0.0000 0.0000 0.0000 0.0000 0.0000 41.1199
#
#
#
# Elastic Compliance Matrix: (Units=1/GPa)
#
#
# Indices 1 2 3 4 5 6 
#
# 1 0.008600 -0.003721 -0.001493 0.000000 0.000000 0.000000
# 2 -0.003721 0.007855 -0.006417 0.000000 0.000000 0.000000
# 3 -0.001493 -0.006417 0.027836 0.000000 0.000000 0.000000
# 4 0.000000 0.000000 0.000000 0.076569 0.000000 0.000000
# 5 0.000000 0.000000 0.000000 0.000000 0.072643 0.000000
# 6 0.000000 0.000000 0.000000 0.000000 0.000000 0.024319
#
#
# Mechanical properties :
#
#
# Convention : Reuss Voigt Hill
#
# Bulk Modulus (GPa) = 47.55063 93.70500 70.62781
# Shear Modulus (GPa) = 20.15379 29.99111 25.07245
#
# Velocity S-wave (km/s) = 3.28614 4.00870 3.66527
# Velocity P-wave (km/s) = 6.31479 8.46373 7.46697
#
# Compressibility (1/GPa) = 0.02103021
#
# Stress axis : x y z
#
# Youngs Moduli (GPa) = 116.27483 127.31159 35.92492
#
# Poissons Ratio (x) = 0.47368 0.05362
# Poissons Ratio (y) = 0.43261 0.23054
# Poissons Ratio (z) = 0.17354 0.81698
#
# Static dielectric constant tensor:
#      x y z
#    x 1.623190 0.000000 0.000000 
#    y 0.000000 1.711810 0.000000 
#    z 0.000000 0.000000 1.637160 
# 
# From -- ./inp_files/6445.got.cif
#   From: 2010.05.17/outbox.cif.g08.bks.cpg/sg53_4_cif.got.tgz:6445.got - 2010.06.03 12:45:16.
