data_PCOD9414614
_publ_section_title
;
Structure prediction by ZEFSAII (Michael W. Deem and Ramdas Pophale) SiO2 
 PCOD9414614
Probable space group: P M N A
;
_chemical_formula_sum "Si O2"
_cell_formula_units_Z 64
_cell_length_a 7.707448
_cell_length_b 20.214980
_cell_length_c 19.519886
_cell_angle_alpha 90.000000
_cell_angle_beta 90.000000
_cell_angle_gamma 90.000000
_cell_volume 3041.313546
_symmetry_space_group_name_H-M "P M N A"
_symmetry_group_IT_number 53
_symmetry_cell_setting 'orthorhombic'
loop_
_space_group_symop_operation_xyz
x,y,z
1/2-x,-y,1/2+z
x,-y,-z
1/2-x,y,1/2-z
-x,-y,-z
1/2+x,y,1/2-z
-x,y,z
1/2+x,-y,1/2+z
loop_
_atom_site_type_symbol
_atom_site_label
_atom_site_fract_x
_atom_site_fract_y
_atom_site_fract_z
Si Si1 0.800860 0.285798 0.955597
Si Si2 0.801653 0.366513 0.671316
Si Si3 0.712487 0.863131 0.441646
Si Si4 0.792359 0.517889 0.828619
Si Si5 0.787945 0.095155 0.090513
Si Si6 0.787422 0.645106 0.908932
Si Si7 0.707728 0.225169 0.329310
Si Si8 0.708586 0.964585 0.329998
O O1 0.799530 0.323999 0.884132
O O2 0.724520 0.212447 0.948046
O O3 0.000000 0.274053 0.977322
O O4 0.728068 0.332581 0.015581
O O5 0.750000 0.354986 0.750000
O O6 0.780542 0.444844 0.658474
O O7 0.000000 0.347607 0.662572
O O8 0.500000 0.861522 0.439243
O O9 0.760899 0.902239 0.510795
O O10 0.771436 0.901973 0.374224
O O11 0.750000 0.536470 0.750000
O O12 0.728262 0.574688 0.879799
O O13 0.000000 0.512206 0.834096
O O14 0.728398 0.162821 0.126807
O O15 0.000000 0.094759 0.092090
O O16 0.727929 0.031565 0.132963
O O17 0.731713 0.704715 0.858990
O O18 0.000000 0.641190 0.908125
O O19 0.750000 0.217269 0.250000
O O20 0.500000 0.225558 0.336585
O O21 0.750000 0.962374 0.250000
O O22 0.500000 0.965506 0.335377
#
# Coordination Sequence:
#
# PCOD9414614 Si02
#       8
#     8   8   8   8   8   8   8   8
#     4  10  19  36  59  81 106 140 182 226 269 318
#     4  11  23  40  59  81 107 138 177 223 272 323
#     4   9  17  32  56  80 103 139 185 227 264 311
#     4  10  19  34  55  80 108 143 182 221 266 319
#     4   9  16  30  53  78 105 138 181 224 261 311
#     4   9  18  32  53  78 108 143 180 217 262 321
#     4  10  18  30  49  76 107 143 179 217 261 312
#     4  10  20  33  52  80 109 139 178 225 272 317
#
# _framework density 21.043537000000001
#
# number of rings (size 3 to 8) (size 9 to 14) (size 15 to 20)
#    0.000    2.250    1.250    3.375    0.000    2.500 
#    0.000    6.875    0.000    3.000    0.000    0.000 
#    0.000    0.000    0.000    0.000    0.000    0.000 
#
# Total GULP energy -357364.436739 kJ/mol
# GULP energy per Si atom -5583.819324 kJ/mol
# Density = 2.099564 g / cm^3
# Si number density = 21.043537 Si / 1000 Ang^3
#
#
#
# Elastic Constant Matrix: (Units=GPa)
#
#
# Indices 1 2 3 4 5 6 
#
# 1 35.7441 -10.0600 -12.5185 0.0000 0.0000 0.0000
# 2 -10.0600 76.5133 81.1731 0.0000 0.0000 0.0000
# 3 -12.5185 81.1731 153.1296 0.0000 0.0000 0.0000
# 4 0.0000 0.0000 0.0000 -154.5638 0.0000 0.0000
# 5 0.0000 0.0000 0.0000 0.0000 22.3492 0.0000
# 6 0.0000 0.0000 0.0000 0.0000 0.0000 -2.5640
#
#
#
# Elastic Compliance Matrix: (Units=1/GPa)
#
#
# Indices 1 2 3 4 5 6 
#
# 1 0.029095 0.002975 0.000801 0.000000 0.000000 0.000000
# 2 0.002975 0.030169 -0.015749 0.000000 0.000000 0.000000
# 3 0.000801 -0.015749 0.014945 0.000000 0.000000 0.000000
# 4 0.000000 0.000000 0.000000 -0.006470 0.000000 0.000000
# 5 0.000000 0.000000 0.000000 0.000000 0.044744 0.000000
# 6 0.000000 0.000000 0.000000 0.000000 0.000000 -0.390019
#
#
# Mechanical properties :
#
#
# Convention : Reuss Voigt Hill
#
# Bulk Modulus (GPa) = 19.89536 42.50846 31.20191
# Shear Modulus (GPa) = -21.11160 -13.16955 -17.14057
#
# Velocity S-wave (km/s) = -3.17082 -2.50436 -2.85709
# Velocity P-wave (km/s) = 1.98257 3.44698 1.99387
#
# Compressibility (1/GPa) = 0.05026297
#
# Stress axis : x y z
#
# Youngs Moduli (GPa) = 34.37053 33.14634 66.91403
#
# Poissons Ratio (x) = -0.09861 -0.05363
# Poissons Ratio (y) = -0.10226 1.05385
# Poissons Ratio (z) = -0.02755 0.52203
#
# Static dielectric constant tensor:
#      x y z
#    x 0.339720 0.000000 0.000000 
#    y 0.000000 1.740170 0.000000 
#    z 0.000000 0.000000 1.735080 
# 
# From -- ./inp_files/26987.got.cif
#   From: 2010.05.17/outbox.cif.g08.bks.cpg/sg53_14_cif.got.tgz:26987.got - 2010.06.03 12:45:16.
