data_PCOD9414878
_publ_section_title
;
Structure prediction by ZEFSAII (Michael W. Deem and Ramdas Pophale) SiO2 
 PCOD9414878
Probable space group: P M N A
;
_chemical_formula_sum "Si O2"
_cell_formula_units_Z 48
_cell_length_a 8.911479
_cell_length_b 9.873764
_cell_length_c 31.314864
_cell_angle_alpha 90.000000
_cell_angle_beta 90.000000
_cell_angle_gamma 90.000000
_cell_volume 2755.389890
_symmetry_space_group_name_H-M "P M N A"
_symmetry_group_IT_number 53
_symmetry_cell_setting 'orthorhombic'
loop_
_space_group_symop_operation_xyz
x,y,z
1/2-x,-y,1/2+z
x,-y,-z
1/2-x,y,1/2-z
-x,-y,-z
1/2+x,y,1/2-z
-x,y,z
1/2+x,-y,1/2+z
loop_
_atom_site_type_symbol
_atom_site_label
_atom_site_fract_x
_atom_site_fract_y
_atom_site_fract_z
Si Si1 0.821211 0.848779 0.018903
Si Si2 0.180131 0.682793 0.796293
Si Si3 0.317968 0.708356 0.565739
Si Si4 0.318663 0.524115 0.371481
Si Si5 0.678264 0.811260 0.111414
Si Si6 0.681018 0.082691 0.359690
O O1 0.735392 0.831047 0.062898
O O2 0.000000 0.829698 0.026804
O O3 0.769887 0.744918 0.981952
O O4 0.803195 0.000000 0.000000
O O5 0.250000 0.667128 0.750000
O O6 0.220656 0.563834 0.829618
O O7 0.222323 0.824063 0.819357
O O8 0.000000 0.681842 0.792991
O O9 0.500000 0.707943 0.565039
O O10 0.272170 0.567626 0.587597
O O11 0.276258 0.829132 0.598346
O O12 0.500000 0.537367 0.372800
O O13 0.243838 0.669430 0.372365
O O14 0.500000 0.810798 0.112950
O O15 0.742938 0.937816 0.137871
O O16 0.500000 0.067837 0.360592
#
# Coordination Sequence:
#
# PCOD9414878 Si02
#       6
#     8   8   8   8   8   8
#     4  10  18  32  56  78 101 141 188 231 265 309
#     4   9  19  36  63  89 108 132 171 219 268 325
#     4   8  15  31  56  79  96 131 190 231 253 296
#     4   9  19  37  57  77 105 144 184 219 259 319
#     4  12  24  34  48  78 115 146 176 222 275 316
#     4   9  17  35  58  79 103 137 180 219 256 315
#
# _framework density 17.420401999999999
#
# number of rings (size 3 to 8) (size 9 to 14) (size 15 to 20)
#    0.000    2.500    1.667    3.500    0.000    2.333 
#    0.000    7.500    0.000    0.000    0.000    0.000 
#    0.000    0.000    0.000    0.000    0.000    0.000 
#
# Total GULP energy -267753.774446 kJ/mol
# GULP energy per Si atom -5578.203634 kJ/mol
# Density = 1.738075 g / cm^3
# Si number density = 17.420402 Si / 1000 Ang^3
#
#
#
# Elastic Constant Matrix: (Units=GPa)
#
#
# Indices 1 2 3 4 5 6 
#
# 1 47.0756 56.2012 39.7006 0.0000 0.0000 0.0000
# 2 56.2012 152.0486 54.3508 0.0000 0.0000 0.0000
# 3 39.7006 54.3508 97.6042 0.0000 0.0000 0.0000
# 4 0.0000 0.0000 0.0000 12.9735 0.0000 0.0000
# 5 0.0000 0.0000 0.0000 0.0000 26.4773 0.0000
# 6 0.0000 0.0000 0.0000 0.0000 0.0000 10.7868
#
#
#
# Elastic Compliance Matrix: (Units=1/GPa)
#
#
# Indices 1 2 3 4 5 6 
#
# 1 0.046767 -0.013093 -0.011732 0.000000 0.000000 0.000000
# 2 -0.013093 0.011877 -0.001288 0.000000 0.000000 0.000000
# 3 -0.011732 -0.001288 0.015735 0.000000 0.000000 0.000000
# 4 0.000000 0.000000 0.000000 0.077080 0.000000 0.000000
# 5 0.000000 0.000000 0.000000 0.000000 0.037768 0.000000
# 6 0.000000 0.000000 0.000000 0.000000 0.000000 0.092706
#
#
# Mechanical properties :
#
#
# Convention : Reuss Voigt Hill
#
# Bulk Modulus (GPa) = 45.14029 66.35928 55.74978
# Shear Modulus (GPa) = 14.63944 19.81256 17.22600
#
# Velocity S-wave (km/s) = 2.90204 3.37608 3.14800
# Velocity P-wave (km/s) = 6.09899 7.30566 6.72943
#
# Compressibility (1/GPa) = 0.02215316
#
# Stress axis : x y z
#
# Youngs Moduli (GPa) = 21.38249 84.19854 63.55389
#
# Poissons Ratio (x) = 1.10239 0.74561
# Poissons Ratio (y) = 0.27996 0.08186
# Poissons Ratio (z) = 0.25086 0.10845
#
# Static dielectric constant tensor:
#      x y z
#    x 1.578540 0.000000 0.000000 
#    y 0.000000 1.592150 0.000000 
#    z 0.000000 0.000000 1.584270 
# 
# From -- ./inp_files/37729.got.cif
#   From: 2010.05.17/outbox.cif.g08.bks.cpg/sg53_19_cif.got.tgz:37729.got - 2010.06.03 12:45:16.
