data_PCOD9414658
_publ_section_title
;
Structure prediction by ZEFSAII (Michael W. Deem and Ramdas Pophale) SiO2 
 PCOD9414658
Probable space group: P M N A
;
_chemical_formula_sum "Si O2"
_cell_formula_units_Z 64
_cell_length_a 25.446098
_cell_length_b 13.518354
_cell_length_c 9.720291
_cell_angle_alpha 90.000000
_cell_angle_beta 90.000000
_cell_angle_gamma 90.000000
_cell_volume 3343.676687
_symmetry_space_group_name_H-M "P M N A"
_symmetry_group_IT_number 53
_symmetry_cell_setting 'orthorhombic'
loop_
_space_group_symop_operation_xyz
x,y,z
1/2-x,-y,1/2+z
x,-y,-z
1/2-x,y,1/2-z
-x,-y,-z
1/2+x,y,1/2-z
-x,y,z
1/2+x,-y,1/2+z
loop_
_atom_site_type_symbol
_atom_site_label
_atom_site_fract_x
_atom_site_fract_y
_atom_site_fract_z
Si Si1 0.831907 0.600855 0.429097
Si Si2 0.562626 0.166472 0.805315
Si Si3 0.061864 0.345897 0.908681
Si Si4 0.560493 0.322649 0.012465
Si Si5 0.309229 0.684577 0.797112
Si Si6 0.589212 0.246359 0.301265
Si Si7 0.658847 0.520194 0.346371
Si Si8 0.062528 0.978710 0.847175
O O1 0.812327 0.500000 0.500000
O O2 0.895516 0.605836 0.448469
O O3 0.812123 0.682507 0.536992
O O4 0.818190 0.597470 0.267676
O O5 0.500000 0.155071 0.814012
O O6 0.572240 0.253411 0.693987
O O7 0.584606 0.061565 0.756946
O O8 0.576731 0.215701 0.949628
O O9 0.100478 0.436265 0.872134
O O10 0.000000 0.370915 0.900723
O O11 0.076149 0.303767 0.058787
O O12 0.500000 0.346531 0.974702
O O13 0.565535 0.309230 0.174932
O O14 0.250000 0.692099 0.750000
O O15 0.348826 0.762050 0.730455
O O16 0.334083 0.582316 0.735189
O O17 0.568393 0.135146 0.308306
O O18 0.681256 0.500000 0.500000
O O19 0.000000 0.996900 0.854957
O O20 0.084002 0.000000 0.000000
#
# Coordination Sequence:
#
# PCOD9414658 Si02
#       8
#     8   8   8   8   8   8   8   8
#     4   9  20  36  53  78 111 144 183 229 276 339
#     4   9  18  31  51  76 111 157 188 212 261 326
#     4  11  20  34  53  80 123 156 180 224 275 346
#     4  10  19  32  50  75 114 153 186 224 269 330
#     4  10  23  43  60  78 105 142 191 248 302 335
#     4  11  21  36  54  82 108 145 196 237 287 349
#     4  11  21  36  55  86 112 142 192 225 277 354
#     4  10  18  30  52  84 117 150 184 223 276 342
#
# _framework density 19.140605999999998
#
# number of rings (size 3 to 8) (size 9 to 14) (size 15 to 20)
#    0.000    1.875    3.750    1.125    0.000    2.500 
#    0.000    3.750    0.000    0.000    6.500    0.875 
#    0.000    0.000    0.000    0.000    0.000    0.000 
#
# Total GULP energy -356364.431280 kJ/mol
# GULP energy per Si atom -5568.194239 kJ/mol
# Density = 1.909704 g / cm^3
# Si number density = 19.140606 Si / 1000 Ang^3
#
#
#
# Elastic Constant Matrix: (Units=GPa)
#
#
# Indices 1 2 3 4 5 6 
#
# 1 72.4972 1.1601 11.5263 0.0000 0.0000 0.0000
# 2 1.1601 11.7226 -10.5625 0.0000 0.0000 0.0000
# 3 11.5263 -10.5625 123.4341 0.0000 0.0000 0.0000
# 4 0.0000 0.0000 0.0000 1.9457 0.0000 0.0000
# 5 0.0000 0.0000 0.0000 0.0000 3.3922 0.0000
# 6 0.0000 0.0000 0.0000 0.0000 0.0000 4.0028
#
#
#
# Elastic Compliance Matrix: (Units=1/GPa)
#
#
# Indices 1 2 3 4 5 6 
#
# 1 0.014086 -0.002795 -0.001554 0.000000 0.000000 0.000000
# 2 -0.002795 0.092986 0.008218 0.000000 0.000000 0.000000
# 3 -0.001554 0.008218 0.008950 0.000000 0.000000 0.000000
# 4 0.000000 0.000000 0.000000 0.513961 0.000000 0.000000
# 5 0.000000 0.000000 0.000000 0.000000 0.294793 0.000000
# 6 0.000000 0.000000 0.000000 0.000000 0.000000 0.249827
#
#
# Mechanical properties :
#
#
# Convention : Reuss Voigt Hill
#
# Bulk Modulus (GPa) = 8.08017 23.54464 15.81240
# Shear Modulus (GPa) = 4.13867 15.57012 9.85439
#
# Velocity S-wave (km/s) = 1.47205 2.85522 2.27148
# Velocity P-wave (km/s) = 2.66831 4.81635 3.89340
#
# Compressibility (1/GPa) = 0.12375979
#
# Stress axis : x y z
#
# Youngs Moduli (GPa) = 70.99497 10.75425 111.73345
#
# Poissons Ratio (x) = 0.03005 0.17368
# Poissons Ratio (y) = 0.19840 -0.91822
# Poissons Ratio (z) = 0.11036 -0.08838
#
# Static dielectric constant tensor:
#      x y z
#    x 1.684590 0.000000 0.000000 
#    y 0.000000 1.682240 0.000000 
#    z 0.000000 0.000000 1.761950 
# 
# From -- ./inp_files/11925.got.cif
#   From: 2010.05.17/outbox.cif.g08.bks.cpg/sg53_6_cif.got.tgz:11925.got - 2010.06.03 12:45:16.
