data_PCOD9414554
_publ_section_title
;
Structure prediction by ZEFSAII (Michael W. Deem and Ramdas Pophale) SiO2 
 PCOD9414554
Probable space group: P M N A
;
_chemical_formula_sum "Si O2"
_cell_formula_units_Z 64
_cell_length_a 9.095483
_cell_length_b 14.005040
_cell_length_c 24.557528
_cell_angle_alpha 90.000000
_cell_angle_beta 90.000000
_cell_angle_gamma 90.000000
_cell_volume 3128.201846
_symmetry_space_group_name_H-M "P M N A"
_symmetry_group_IT_number 53
_symmetry_cell_setting 'orthorhombic'
loop_
_space_group_symop_operation_xyz
x,y,z
1/2-x,-y,1/2+z
x,-y,-z
1/2-x,y,1/2-z
-x,-y,-z
1/2+x,y,1/2-z
-x,y,z
1/2+x,-y,1/2+z
loop_
_atom_site_type_symbol
_atom_site_label
_atom_site_fract_x
_atom_site_fract_y
_atom_site_fract_z
Si Si1 0.173812 0.957028 0.804934
Si Si2 0.826741 0.134724 0.649223
Si Si3 0.831290 0.868006 0.592811
Si Si4 0.324610 0.543995 0.804873
Si Si5 0.825752 0.850059 0.474167
Si Si6 0.670872 0.637803 0.917155
Si Si7 0.824604 0.644538 0.361878
Si Si8 0.173789 0.645555 0.026684
O O1 0.250000 0.919542 0.750000
O O2 0.230361 0.065041 0.814715
O O3 0.000000 0.953107 0.799570
O O4 0.228306 0.901961 0.858781
O O5 0.809169 0.104826 0.585462
O O6 0.784298 0.246414 0.652155
O O7 0.000000 0.126117 0.662877
O O8 0.797279 0.902791 0.531176
O O9 0.825204 0.752909 0.587812
O O10 0.000000 0.895670 0.605791
O O11 0.250000 0.578420 0.750000
O O12 0.500000 0.556395 0.800673
O O13 0.275252 0.596646 0.859868
O O14 0.292813 0.432164 0.815452
O O15 0.722432 0.757256 0.473766
O O16 0.000000 0.820654 0.476904
O O17 0.500000 0.609404 0.924360
O O18 0.760512 0.606711 0.970286
O O19 0.747343 0.610992 0.417443
O O20 0.000000 0.644879 0.371912
O O21 0.000000 0.634231 0.028161
#
# Coordination Sequence:
#
# PCOD9414554 Si02
#       8
#     8   8   8   8   8   8   8   8
#     4  12  26  41  56  77 107 144 188 234 275 320
#     4   9  18  36  60  84 111 144 181 220 267 325
#     4   9  18  36  60  84 111 144 181 220 267 325
#     4  10  22  39  58  81 109 144 188 232 273 324
#     4   8  16  33  58  85 114 146 176 211 267 337
#     4   9  19  37  59  82 112 149 182 217 271 334
#     4   9  19  37  59  82 112 149 182 217 271 334
#     4  10  18  29  52  85 116 144 180 227 271 315
#
# _framework density 20.459038
#
# number of rings (size 3 to 8) (size 9 to 14) (size 15 to 20)
#    0.000    2.500    0.000    3.750    0.000    7.000 
#    0.000    7.500    0.000    0.000    0.000    0.000 
#    0.000    0.000    0.000    0.000    0.000    0.000 
#
# Total GULP energy -357306.215193 kJ/mol
# GULP energy per Si atom -5582.909612 kJ/mol
# Density = 2.041247 g / cm^3
# Si number density = 20.459038 Si / 1000 Ang^3
#
#
#
# Elastic Constant Matrix: (Units=GPa)
#
#
# Indices 1 2 3 4 5 6 
#
# 1 64.8193 1.8393 45.2763 0.0000 0.0000 0.0000
# 2 1.8393 31.6195 2.8723 0.0000 0.0000 0.0000
# 3 45.2763 2.8723 103.1140 0.0000 0.0000 0.0000
# 4 0.0000 0.0000 0.0000 22.1431 0.0000 0.0000
# 5 0.0000 0.0000 0.0000 0.0000 29.1179 0.0000
# 6 0.0000 0.0000 0.0000 0.0000 0.0000 -15.1343
#
#
#
# Elastic Compliance Matrix: (Units=1/GPa)
#
#
# Indices 1 2 3 4 5 6 
#
# 1 0.022258 -0.000408 -0.009762 0.000000 0.000000 0.000000
# 2 -0.000408 0.031714 -0.000704 0.000000 0.000000 0.000000
# 3 -0.009762 -0.000704 0.014004 0.000000 0.000000 0.000000
# 4 0.000000 0.000000 0.000000 0.045161 0.000000 0.000000
# 5 0.000000 0.000000 0.000000 0.000000 0.034343 0.000000
# 6 0.000000 0.000000 0.000000 0.000000 0.000000 -0.066075
#
#
# Mechanical properties :
#
#
# Convention : Reuss Voigt Hill
#
# Bulk Modulus (GPa) = 21.63222 33.28096 27.45659
# Shear Modulus (GPa) = 42.17229 17.19633 29.68431
#
# Velocity S-wave (km/s) = 4.54508 2.90233 3.81322
# Velocity P-wave (km/s) = 6.17577 5.24726 5.73035
#
# Compressibility (1/GPa) = 0.04622735
#
# Stress axis : x y z
#
# Youngs Moduli (GPa) = 44.92838 31.53203 71.40872
#
# Poissons Ratio (x) = 0.01286 0.69707
# Poissons Ratio (y) = 0.01833 0.05029
# Poissons Ratio (z) = 0.43858 0.02221
#
# Static dielectric constant tensor:
#      x y z
#    x 1.675740 0.000000 0.000000 
#    y 0.000000 1.781810 0.000000 
#    z 0.000000 0.000000 1.730630 
# 
# From -- ./inp_files/34197.got.cif
#   From: 2010.05.17/outbox.cif.g08.bks.cpg/sg53_18_cif.got.tgz:34197.got - 2010.06.03 12:45:16.
