data_PCOD9414833
_publ_section_title
;
Structure prediction by ZEFSAII (Michael W. Deem and Ramdas Pophale) SiO2 
 PCOD9414833
Probable space group: P M N A
;
_chemical_formula_sum "Si O2"
_cell_formula_units_Z 64
_cell_length_a 8.696465
_cell_length_b 16.439971
_cell_length_c 24.749517
_cell_angle_alpha 90.000000
_cell_angle_beta 90.000000
_cell_angle_gamma 90.000000
_cell_volume 3538.429348
_symmetry_space_group_name_H-M "P M N A"
_symmetry_group_IT_number 53
_symmetry_cell_setting 'orthorhombic'
loop_
_space_group_symop_operation_xyz
x,y,z
1/2-x,-y,1/2+z
x,-y,-z
1/2-x,y,1/2-z
-x,-y,-z
1/2+x,y,1/2-z
-x,y,z
1/2+x,-y,1/2+z
loop_
_atom_site_type_symbol
_atom_site_label
_atom_site_fract_x
_atom_site_fract_y
_atom_site_fract_z
Si Si1 0.683110 0.640166 0.395805
Si Si2 0.317176 0.975540 0.693033
Si Si3 0.314579 0.711619 0.585945
Si Si4 0.186702 0.471716 0.059397
Si Si5 0.822059 0.899516 0.387493
Si Si6 0.676859 0.254300 0.807175
Si Si7 0.185082 0.775686 0.476494
Si Si8 0.316057 0.206162 0.192502
O O1 0.500000 0.645403 0.404083
O O2 0.730766 0.546484 0.402207
O O3 0.729938 0.676559 0.338505
O O4 0.760293 0.698210 0.440884
O O5 0.250000 0.009615 0.750000
O O6 0.500000 0.968857 0.698376
O O7 0.243196 0.886581 0.686592
O O8 0.273433 0.030275 0.641563
O O9 0.500000 0.714087 0.587345
O O10 0.262460 0.618480 0.574873
O O11 0.255543 0.765417 0.535635
O O12 0.247338 0.743519 0.642027
O O13 0.000000 0.468103 0.058237
O O14 0.237778 0.500000 0.000000
O O15 0.819229 0.824666 0.345272
O O16 0.768598 0.857337 0.443389
O O17 0.000000 0.925910 0.393742
O O18 0.750000 0.235565 0.750000
O O19 0.500000 0.278985 0.801173
O O20 0.000000 0.775340 0.478671
O O21 0.250000 0.236015 0.250000
O O22 0.500000 0.207036 0.193739
#
# Coordination Sequence:
#
# PCOD9414833 Si02
#       8
#     8   8   8   8   8   8   8   8
#     4  10  18  32  53  76 106 144 184 226 274 322
#     4  11  21  35  58  85 111 143 187 232 278 328
#     4  11  21  37  61  86 114 146 186 230 279 335
#     4   9  17  32  55  84 111 141 181 226 273 324
#     4   9  19  34  52  77 112 147 183 228 274 322
#     4  10  20  33  49  73 107 146 186 225 273 329
#     4  10  20  34  52  80 116 151 185 225 275 328
#     4  11  23  42  64  86 113 144 184 229 281 332
#
# _framework density 18.087119999999999
#
# number of rings (size 3 to 8) (size 9 to 14) (size 15 to 20)
#    0.000    1.875    1.250    5.625    0.000    4.000 
#    0.000    4.375    0.000    3.750    0.000    0.000 
#    0.000    0.000    0.000    0.000    0.000    0.000 
#
# Total GULP energy -357185.663769 kJ/mol
# GULP energy per Si atom -5581.025996 kJ/mol
# Density = 1.804595 g / cm^3
# Si number density = 18.087120 Si / 1000 Ang^3
#
#
#
# Elastic Constant Matrix: (Units=GPa)
#
#
# Indices 1 2 3 4 5 6 
#
# 1 93.7705 33.8919 44.6723 0.0000 0.0000 0.0000
# 2 33.8919 71.8395 49.6886 0.0000 0.0000 0.0000
# 3 44.6723 49.6886 120.2709 0.0000 0.0000 0.0000
# 4 0.0000 0.0000 0.0000 35.4256 0.0000 0.0000
# 5 0.0000 0.0000 0.0000 0.0000 31.6726 0.0000
# 6 0.0000 0.0000 0.0000 0.0000 0.0000 16.7659
#
#
#
# Elastic Compliance Matrix: (Units=1/GPa)
#
#
# Indices 1 2 3 4 5 6 
#
# 1 0.013787 -0.004147 -0.003407 0.000000 0.000000 0.000000
# 2 -0.004147 0.020737 -0.007027 0.000000 0.000000 0.000000
# 3 -0.003407 -0.007027 0.012483 0.000000 0.000000 0.000000
# 4 0.000000 0.000000 0.000000 0.028228 0.000000 0.000000
# 5 0.000000 0.000000 0.000000 0.000000 0.031573 0.000000
# 6 0.000000 0.000000 0.000000 0.000000 0.000000 0.059645
#
#
# Mechanical properties :
#
#
# Convention : Reuss Voigt Hill
#
# Bulk Modulus (GPa) = 56.04247 60.26518 58.15382
# Shear Modulus (GPa) = 24.80615 27.28137 26.04376
#
# Velocity S-wave (km/s) = 3.70737 3.88794 3.79873
# Velocity P-wave (km/s) = 7.02696 7.31754 7.17372
#
# Compressibility (1/GPa) = 0.01784361
#
# Stress axis : x y z
#
# Youngs Moduli (GPa) = 72.53420 48.22389 80.10825
#
# Poissons Ratio (x) = 0.20001 0.27295
# Poissons Ratio (y) = 0.30083 0.56289
# Poissons Ratio (z) = 0.24715 0.33885
#
# Static dielectric constant tensor:
#      x y z
#    x 1.612820 0.000000 0.000000 
#    y 0.000000 1.619130 0.000000 
#    z 0.000000 0.000000 1.618430 
# 
# From -- ./inp_files/34202.got.cif
#   From: 2010.05.17/outbox.cif.g08.bks.cpg/sg53_18_cif.got.tgz:34202.got - 2010.06.03 12:45:16.
