data_PCOD9414444
_publ_section_title
;
Structure prediction by ZEFSAII (Michael W. Deem and Ramdas Pophale) SiO2 
 PCOD9414444
Probable space group: P M N A
;
_chemical_formula_sum "Si O2"
_cell_formula_units_Z 64
_cell_length_a 9.052342
_cell_length_b 24.747004
_cell_length_c 14.958094
_cell_angle_alpha 90.000000
_cell_angle_beta 90.000000
_cell_angle_gamma 90.000000
_cell_volume 3350.887443
_symmetry_space_group_name_H-M "P M N A"
_symmetry_group_IT_number 53
_symmetry_cell_setting 'orthorhombic'
loop_
_space_group_symop_operation_xyz
x,y,z
1/2-x,-y,1/2+z
x,-y,-z
1/2-x,y,1/2-z
-x,-y,-z
1/2+x,y,1/2-z
-x,y,z
1/2+x,-y,1/2+z
loop_
_atom_site_type_symbol
_atom_site_label
_atom_site_fract_x
_atom_site_fract_y
_atom_site_fract_z
Si Si1 0.665651 0.953624 0.421360
Si Si2 0.158566 0.961277 0.676036
Si Si3 0.826085 0.518076 0.396056
Si Si4 0.824010 0.772742 0.652229
Si Si5 0.676946 0.330233 0.022402
Si Si6 0.677232 0.590032 0.660202
Si Si7 0.334077 0.871004 0.972060
Si Si8 0.820054 0.366591 0.847545
O O1 0.500000 0.946638 0.389942
O O2 0.729920 0.896296 0.452958
O O3 0.660856 0.000000 0.500000
O O4 0.768593 0.982693 0.350224
O O5 0.250000 0.930433 0.750000
O O6 0.149137 0.923146 0.591409
O O7 0.000000 0.971259 0.715193
O O8 0.823356 0.500000 0.500000
O O9 0.736348 0.470891 0.347194
O O10 0.745158 0.574466 0.375823
O O11 0.000000 0.520742 0.369252
O O12 0.750000 0.768879 0.750000
O O13 0.802922 0.720921 0.588086
O O14 0.774495 0.823504 0.591098
O O15 0.000000 0.779572 0.667025
O O16 0.500000 0.339882 0.011757
O O17 0.755361 0.378704 0.075874
O O18 0.755689 0.327632 0.925788
O O19 0.750000 0.614170 0.750000
O O20 0.500000 0.592889 0.662674
O O21 0.500000 0.855889 0.003682
O O22 0.750000 0.354311 0.750000
O O23 0.000000 0.366761 0.845481
#
# Coordination Sequence:
#
# PCOD9414444 Si02
#       8
#     8   8   8   8   8   8   8   8
#     4   9  17  29  46  70 100 136 177 219 265 320
#     4  10  18  28  46  72 106 143 180 222 268 323
#     4  11  22  38  61  87 120 154 187 230 281 337
#     4  10  22  38  59  85 116 150 188 235 285 341
#     4  11  23  41  61  85 116 150 191 238 287 337
#     4  12  24  38  58  84 117 155 193 231 280 338
#     4   9  18  33  51  75 106 143 182 223 274 326
#     4  12  25  42  65  90 117 150 191 236 285 340
#
# _framework density 19.099416999999999
#
# number of rings (size 3 to 8) (size 9 to 14) (size 15 to 20)
#    0.000    1.500    1.250    4.875    0.000    5.000 
#    0.000    0.000    0.000    0.750    0.000    3.500 
#    0.000    0.000    0.000    0.000    0.000    0.000 
#
# Total GULP energy -356842.317597 kJ/mol
# GULP energy per Si atom -5575.661212 kJ/mol
# Density = 1.905595 g / cm^3
# Si number density = 19.099417 Si / 1000 Ang^3
#
#
#
# Elastic Constant Matrix: (Units=GPa)
#
#
# Indices 1 2 3 4 5 6 
#
# 1 139.6120 28.5225 33.2972 0.0000 0.0000 0.0000
# 2 28.5225 67.9060 17.7571 0.0000 0.0000 0.0000
# 3 33.2972 17.7571 77.3174 0.0000 0.0000 0.0000
# 4 0.0000 0.0000 0.0000 18.4976 0.0000 0.0000
# 5 0.0000 0.0000 0.0000 0.0000 27.9216 0.0000
# 6 0.0000 0.0000 0.0000 0.0000 0.0000 19.0221
#
#
#
# Elastic Compliance Matrix: (Units=1/GPa)
#
#
# Indices 1 2 3 4 5 6 
#
# 1 0.008443 -0.002761 -0.003002 0.000000 0.000000 0.000000
# 2 -0.002761 0.016570 -0.002616 0.000000 0.000000 0.000000
# 3 -0.003002 -0.002616 0.014827 0.000000 0.000000 0.000000
# 4 0.000000 0.000000 0.000000 0.054061 0.000000 0.000000
# 5 0.000000 0.000000 0.000000 0.000000 0.035815 0.000000
# 6 0.000000 0.000000 0.000000 0.000000 0.000000 0.052570
#
#
# Mechanical properties :
#
#
# Convention : Reuss Voigt Hill
#
# Bulk Modulus (GPa) = 43.32496 49.33212 46.32854
# Shear Modulus (GPa) = 24.18510 26.77219 25.47865
#
# Velocity S-wave (km/s) = 3.56234 3.74803 3.65636
# Velocity P-wave (km/s) = 6.29710 6.67948 6.49111
#
# Compressibility (1/GPa) = 0.02308139
#
# Stress axis : x y z
#
# Youngs Moduli (GPa) = 118.44499 60.34923 67.44305
#
# Poissons Ratio (x) = 0.16664 0.20245
# Poissons Ratio (y) = 0.32706 0.17646
# Poissons Ratio (z) = 0.35554 0.15790
#
# Static dielectric constant tensor:
#      x y z
#    x 1.675570 0.000000 0.000000 
#    y 0.000000 1.672030 0.000000 
#    z 0.000000 0.000000 1.738820 
# 
# From -- ./inp_files/20930.got.cif
#   From: 2010.05.17/outbox.cif.g08.bks.cpg/sg53_11_cif.got.tgz:20930.got - 2010.06.03 12:45:16.
