data_PCOD9414383
_publ_section_title
;
Structure prediction by ZEFSAII (Michael W. Deem and Ramdas Pophale) SiO2 
 PCOD9414383
Probable space group: P M N A
;
_chemical_formula_sum "Si O2"
_cell_formula_units_Z 64
_cell_length_a 9.441191
_cell_length_b 16.979264
_cell_length_c 22.287650
_cell_angle_alpha 90.000000
_cell_angle_beta 90.000000
_cell_angle_gamma 90.000000
_cell_volume 3572.810020
_symmetry_space_group_name_H-M "P M N A"
_symmetry_group_IT_number 53
_symmetry_cell_setting 'orthorhombic'
loop_
_space_group_symop_operation_xyz
x,y,z
1/2-x,-y,1/2+z
x,-y,-z
1/2-x,y,1/2-z
-x,-y,-z
1/2+x,y,1/2-z
-x,y,z
1/2+x,-y,1/2+z
loop_
_atom_site_type_symbol
_atom_site_label
_atom_site_fract_x
_atom_site_fract_y
_atom_site_fract_z
Si Si1 0.331066 0.402218 0.372925
Si Si2 0.169060 0.279416 0.883131
Si Si3 0.332149 0.965953 0.811994
Si Si4 0.830988 0.437988 0.812400
Si Si5 0.340320 0.842392 0.908571
Si Si6 0.833078 0.847055 0.311578
Si Si7 0.831506 0.283017 0.021913
Si Si8 0.342504 0.718962 0.800773
O O1 0.500000 0.391480 0.365295
O O2 0.300708 0.493918 0.361696
O O3 0.292825 0.357248 0.434981
O O4 0.244430 0.356521 0.322023
O O5 0.204146 0.353428 0.840769
O O6 0.259746 0.205009 0.862329
O O7 0.000000 0.263747 0.877501
O O8 0.198067 0.299512 0.952480
O O9 0.250000 0.948027 0.750000
O O10 0.500000 0.947384 0.803941
O O11 0.284496 0.917497 0.871024
O O12 0.318450 0.059416 0.822624
O O13 0.750000 0.451255 0.750000
O O14 0.000000 0.440204 0.801029
O O15 0.500000 0.859317 0.931118
O O16 0.245472 0.797357 0.957164
O O17 0.351397 0.776693 0.856651
O O18 0.750000 0.829178 0.250000
O O19 0.000000 0.829302 0.305634
O O20 0.000000 0.271679 0.028933
O O21 0.250000 0.759434 0.750000
O O22 0.500000 0.699559 0.779906
#
# Coordination Sequence:
#
# PCOD9414383 Si02
#       8
#     8   8   8   8   8   8   8   8
#     4   9  18  33  51  72  99 131 166 205 250 297
#     4  10  21  37  55  76 102 133 172 215 256 300
#     4   9  18  32  51  77 106 135 169 210 256 306
#     4  10  21  35  53  77 103 131 165 208 256 305
#     4   9  18  32  49  71 101 134 169 208 249 298
#     4  10  20  35  56  80 105 134 168 209 259 308
#     4   9  19  35  54  75 101 135 174 212 249 295
#     4  10  18  27  43  68  98 132 166 202 246 295
#
# _framework density 17.913070999999999
#
# number of rings (size 3 to 8) (size 9 to 14) (size 15 to 20)
#    0.000    2.500    0.000    1.875    0.000    5.500 
#    0.000    3.125    0.000    3.750    0.000    5.250 
#    0.000    0.000    0.000    0.000    0.000    0.000 
#
# Total GULP energy -356592.749385 kJ/mol
# GULP energy per Si atom -5571.761709 kJ/mol
# Density = 1.787230 g / cm^3
# Si number density = 17.913071 Si / 1000 Ang^3
#
#
#
# Elastic Constant Matrix: (Units=GPa)
#
#
# Indices 1 2 3 4 5 6 
#
# 1 43.3822 32.0245 29.9310 0.0000 0.0000 0.0000
# 2 32.0245 78.5884 32.1065 0.0000 0.0000 0.0000
# 3 29.9310 32.1065 76.9386 0.0000 0.0000 0.0000
# 4 0.0000 0.0000 0.0000 10.0593 0.0000 0.0000
# 5 0.0000 0.0000 0.0000 0.0000 26.5481 0.0000
# 6 0.0000 0.0000 0.0000 0.0000 0.0000 34.9452
#
#
#
# Elastic Compliance Matrix: (Units=1/GPa)
#
#
# Indices 1 2 3 4 5 6 
#
# 1 0.038633 -0.011576 -0.010198 0.000000 0.000000 0.000000
# 2 -0.011576 0.018809 -0.003345 0.000000 0.000000 0.000000
# 3 -0.010198 -0.003345 0.018361 0.000000 0.000000 0.000000
# 4 0.000000 0.000000 0.000000 0.099410 0.000000 0.000000
# 5 0.000000 0.000000 0.000000 0.000000 0.037667 0.000000
# 6 0.000000 0.000000 0.000000 0.000000 0.000000 0.028616
#
#
# Mechanical properties :
#
#
# Convention : Reuss Voigt Hill
#
# Bulk Modulus (GPa) = 39.12030 43.00368 41.06199
# Shear Modulus (GPa) = 16.65244 21.30034 18.97639
#
# Velocity S-wave (km/s) = 3.05228 3.45207 3.25831
# Velocity P-wave (km/s) = 5.85733 6.32044 6.09329
#
# Compressibility (1/GPa) = 0.02556218
#
# Stress axis : x y z
#
# Youngs Moduli (GPa) = 25.88483 53.16740 54.46395
#
# Poissons Ratio (x) = 0.61548 0.55544
# Poissons Ratio (y) = 0.29965 0.18220
# Poissons Ratio (z) = 0.26398 0.17786
#
# Static dielectric constant tensor:
#      x y z
#    x 1.624510 0.000000 0.000000 
#    y 0.000000 1.624110 0.000000 
#    z 0.000000 0.000000 1.623800 
# 
# From -- ./inp_files/31102.got.cif
#   From: 2010.05.17/outbox.cif.g08.bks.cpg/sg53_16_cif.got.tgz:31102.got - 2010.06.03 12:45:16.
