data_PCOD9414377
_publ_section_title
;
Structure prediction by ZEFSAII (Michael W. Deem and Ramdas Pophale) SiO2 
 PCOD9414377
Probable space group: P M N A
;
_chemical_formula_sum "Si O2"
_cell_formula_units_Z 48
_cell_length_a 10.012436
_cell_length_b 29.536718
_cell_length_c 7.336191
_cell_angle_alpha 90.000000
_cell_angle_beta 90.000000
_cell_angle_gamma 90.000000
_cell_volume 2169.564767
_symmetry_space_group_name_H-M "P M N A"
_symmetry_group_IT_number 53
_symmetry_cell_setting 'orthorhombic'
loop_
_space_group_symop_operation_xyz
x,y,z
1/2-x,-y,1/2+z
x,-y,-z
1/2-x,y,1/2-z
-x,-y,-z
1/2+x,y,1/2-z
-x,y,z
1/2+x,-y,1/2+z
loop_
_atom_site_type_symbol
_atom_site_label
_atom_site_fract_x
_atom_site_fract_y
_atom_site_fract_z
Si Si1 0.665141 0.130657 0.443658
Si Si2 0.500000 0.281333 0.020712
Si Si3 0.340841 0.051238 0.069092
Si Si4 0.261066 0.552676 0.967102
Si Si5 0.737549 0.230031 0.472268
Si Si6 0.500000 0.706135 0.535277
Si Si7 0.000000 0.602608 0.970904
Si Si8 0.500000 0.385553 0.024559
O O1 0.750000 0.133730 0.250000
O O2 0.500000 0.124780 0.429586
O O3 0.694006 0.179723 0.529381
O O4 0.748392 0.088940 0.533320
O O5 0.624486 0.250949 0.964627
O O6 0.500000 0.288381 0.242615
O O7 0.500000 0.333679 0.962730
O O8 0.250000 0.046296 0.250000
O O9 0.500000 0.065073 0.087875
O O10 0.345132 0.000000 0.000000
O O11 0.250000 0.557183 0.750000
O O12 0.373387 0.586143 0.036794
O O13 0.123558 0.572985 0.034651
O O14 0.285648 0.500000 0.000000
O O15 0.750000 0.229164 0.250000
O O16 0.628098 0.266487 0.525686
O O17 0.500000 0.654688 0.471703
O O18 0.000000 0.609435 0.748036
#
# Coordination Sequence:
#
# PCOD9414377 Si02
#       8
#     8   4   8   8   8   4   4   4
#     4  10  18  27  42  64  94 132 166 200 247 296
#     4   9  16  23  37  56  83 117 151 177 226 281
#     4  10  21  35  53  76 104 139 177 217 259 304
#     4  10  19  31  46  65  89 118 150 187 227 273
#     4   9  16  22  35  57  85 120 152 184 227 287
#     4   9  14  25  35  56  85 115 147 181 218 283
#     4   9  17  27  44  60  88 119 149 185 228 273
#     4   9  17  29  42  62  86 121 151 183 230 275
#
# _framework density 22.124253
#
# number of rings (size 3 to 8) (size 9 to 14) (size 15 to 20)
#    0.000    2.500    0.833    3.500    4.667    5.333 
#    0.000    0.000    0.000    0.000    0.000    0.000 
#    0.000    8.000    0.000    0.000    0.000    0.000 
#
# Total GULP energy -267209.839269 kJ/mol
# GULP energy per Si atom -5566.871651 kJ/mol
# Density = 2.207390 g / cm^3
# Si number density = 22.124253 Si / 1000 Ang^3
#
#
#
# Elastic Constant Matrix: (Units=GPa)
#
#
# Indices 1 2 3 4 5 6 
#
# 1 246.6643 101.2822 2.5446 0.0000 0.0000 0.0000
# 2 101.2822 202.1871 -8.6408 0.0000 0.0000 0.0000
# 3 2.5446 -8.6408 58.3632 0.0000 0.0000 0.0000
# 4 0.0000 0.0000 0.0000 1.9763 0.0000 0.0000
# 5 0.0000 0.0000 0.0000 0.0000 24.8740 0.0000
# 6 0.0000 0.0000 0.0000 0.0000 0.0000 41.5086
#
#
#
# Elastic Compliance Matrix: (Units=1/GPa)
#
#
# Indices 1 2 3 4 5 6 
#
# 1 0.005125 -0.002593 -0.000607 0.000000 0.000000 0.000000
# 2 -0.002593 0.006290 0.001044 0.000000 0.000000 0.000000
# 3 -0.000607 0.001044 0.017315 0.000000 0.000000 0.000000
# 4 0.000000 0.000000 0.000000 0.506002 0.000000 0.000000
# 5 0.000000 0.000000 0.000000 0.000000 0.040203 0.000000
# 6 0.000000 0.000000 0.000000 0.000000 0.000000 0.024091
#
#
# Mechanical properties :
#
#
# Convention : Reuss Voigt Hill
#
# Bulk Modulus (GPa) = 40.95503 77.50962 59.23232
# Shear Modulus (GPa) = 8.17691 41.14035 24.65863
#
# Velocity S-wave (km/s) = 1.92456 4.31689 3.34211
# Velocity P-wave (km/s) = 4.84666 7.74320 6.45938
#
# Compressibility (1/GPa) = 0.02441703
#
# Stress axis : x y z
#
# Youngs Moduli (GPa) = 195.11415 158.99182 57.75284
#
# Poissons Ratio (x) = 0.41232 0.03508
# Poissons Ratio (y) = 0.50600 -0.06031
# Poissons Ratio (z) = 0.11851 -0.16603
#
# Static dielectric constant tensor:
#      x y z
#    x 1.692340 0.000000 0.000000 
#    y 0.000000 1.821070 0.000000 
#    z 0.000000 0.000000 1.969540 
# 
# From -- ./inp_files/14115.got.cif
#   From: 2010.05.17/outbox.cif.g08.bks.cpg/sg53_8_cif.got.tgz:14115.got - 2010.06.03 12:45:16.
