data_PCOD9414134
_publ_section_title
;
Structure prediction by ZEFSAII (Michael W. Deem and Ramdas Pophale) SiO2 
 PCOD9414134
Probable space group: P M N A
;
_chemical_formula_sum "Si O2"
_cell_formula_units_Z 56
_cell_length_a 8.324754
_cell_length_b 18.785310
_cell_length_c 20.671041
_cell_angle_alpha 90.000000
_cell_angle_beta 90.000000
_cell_angle_gamma 90.000000
_cell_volume 3232.601153
_symmetry_space_group_name_H-M "P M N A"
_symmetry_group_IT_number 53
_symmetry_cell_setting 'orthorhombic'
loop_
_space_group_symop_operation_xyz
x,y,z
1/2-x,-y,1/2+z
x,-y,-z
1/2-x,y,1/2-z
-x,-y,-z
1/2+x,y,1/2-z
-x,y,z
1/2+x,-y,1/2+z
loop_
_atom_site_type_symbol
_atom_site_label
_atom_site_fract_x
_atom_site_fract_y
_atom_site_fract_z
Si Si1 0.807495 0.934077 0.178310
Si Si2 0.304067 0.209502 0.612242
Si Si3 0.807822 0.038130 0.433823
Si Si4 0.812459 0.658412 0.545210
Si Si5 0.810099 0.637156 0.098887
Si Si6 0.192955 0.485692 0.076239
Si Si7 0.308475 0.192716 0.461883
O O1 0.750000 0.950775 0.250000
O O2 0.749975 0.855032 0.157133
O O3 0.000000 0.934020 0.176074
O O4 0.745154 0.990391 0.126230
O O5 0.500000 0.211324 0.613491
O O6 0.245538 0.289400 0.629149
O O7 0.257605 0.192258 0.537919
O O8 0.741150 0.117976 0.431659
O O9 0.000000 0.041605 0.436182
O O10 0.749802 0.000000 0.500000
O O11 0.712910 0.649569 0.478302
O O12 0.767337 0.591296 0.589900
O O13 0.769239 0.737062 0.569506
O O14 0.000000 0.654612 0.529240
O O15 0.746595 0.557413 0.111969
O O16 0.000000 0.634248 0.112281
O O17 0.000000 0.481203 0.083024
O O18 0.227555 0.500000 0.000000
O O19 0.500000 0.200415 0.460125
#
# Coordination Sequence:
#
# PCOD9414134 Si02
#       7
#     8   8   8   8   8   8   8
#     4  11  22  37  54  74 101 135 172 209 256 305
#     4   8  15  28  47  67  89 121 163 203 241 290
#     4  11  22  35  53  78 104 127 162 211 260 308
#     4  10  17  23  34  57  89 120 152 193 243 287
#     4   8  14  25  39  56  79 116 160 196 231 282
#     4   8  13  22  35  51  78 116 156 191 230 283
#     4  10  18  31  49  68  91 125 167 203 244 298
#
# _framework density 17.323509999999999
#
# number of rings (size 3 to 8) (size 9 to 14) (size 15 to 20)
#    0.000    2.571    1.429    4.286    0.000    3.143 
#    0.000    0.714    0.000    0.000    0.000    0.000 
#    0.000    1.143    0.000    8.000    0.000    6.000 
#
# Total GULP energy -311835.905658 kJ/mol
# GULP energy per Si atom -5568.498315 kJ/mol
# Density = 1.728408 g / cm^3
# Si number density = 17.323510 Si / 1000 Ang^3
#
#
#
# Elastic Constant Matrix: (Units=GPa)
#
#
# Indices 1 2 3 4 5 6 
#
# 1 15.3920 13.5171 5.0623 0.0000 0.0000 0.0000
# 2 13.5171 173.2787 40.1713 0.0000 0.0000 0.0000
# 3 5.0623 40.1713 48.7418 0.0000 0.0000 0.0000
# 4 0.0000 0.0000 0.0000 11.7580 0.0000 0.0000
# 5 0.0000 0.0000 0.0000 0.0000 8.0970 0.0000
# 6 0.0000 0.0000 0.0000 0.0000 0.0000 4.9413
#
#
#
# Elastic Compliance Matrix: (Units=1/GPa)
#
#
# Indices 1 2 3 4 5 6 
#
# 1 0.070209 -0.004681 -0.003434 0.000000 0.000000 0.000000
# 2 -0.004681 0.007446 -0.005651 0.000000 0.000000 0.000000
# 3 -0.003434 -0.005651 0.025530 0.000000 0.000000 0.000000
# 4 0.000000 0.000000 0.000000 0.085048 0.000000 0.000000
# 5 0.000000 0.000000 0.000000 0.000000 0.123502 0.000000
# 6 0.000000 0.000000 0.000000 0.000000 0.000000 0.202376
#
#
# Mechanical properties :
#
#
# Convention : Reuss Voigt Hill
#
# Bulk Modulus (GPa) = 13.21813 39.43489 26.32651
# Shear Modulus (GPa) = 8.82052 16.87006 12.84529
#
# Velocity S-wave (km/s) = 2.25892 3.12400 2.72599
# Velocity P-wave (km/s) = 3.80136 5.98546 5.01378
#
# Compressibility (1/GPa) = 0.07565366
#
# Stress axis : x y z
#
# Youngs Moduli (GPa) = 14.24325 134.29673 39.16942
#
# Poissons Ratio (x) = 0.62860 0.13452
# Poissons Ratio (y) = 0.06667 0.22134
# Poissons Ratio (z) = 0.04891 0.75888
#
# Static dielectric constant tensor:
#      x y z
#    x 1.590240 0.000000 0.000000 
#    y 0.000000 1.666520 0.000000 
#    z 0.000000 0.000000 1.547750 
# 
# From -- ./inp_files/30978.got.cif
#   From: 2010.05.17/outbox.cif.g08.bks.cpg/sg53_16_cif.got.tgz:30978.got - 2010.06.03 12:45:16.
