data_PCOD9414138
_publ_section_title
;
Structure prediction by ZEFSAII (Michael W. Deem and Ramdas Pophale) SiO2 
 PCOD9414138
Probable space group: P M N A
;
_chemical_formula_sum "Si O2"
_cell_formula_units_Z 56
_cell_length_a 8.622981
_cell_length_b 19.232121
_cell_length_c 18.841205
_cell_angle_alpha 90.000000
_cell_angle_beta 90.000000
_cell_angle_gamma 90.000000
_cell_volume 3124.591786
_symmetry_space_group_name_H-M "P M N A"
_symmetry_group_IT_number 53
_symmetry_cell_setting 'orthorhombic'
loop_
_space_group_symop_operation_xyz
x,y,z
1/2-x,-y,1/2+z
x,-y,-z
1/2-x,y,1/2-z
-x,-y,-z
1/2+x,y,1/2-z
-x,y,z
1/2+x,-y,1/2+z
loop_
_atom_site_type_symbol
_atom_site_label
_atom_site_fract_x
_atom_site_fract_y
_atom_site_fract_z
Si Si1 0.316227 0.648991 0.580406
Si Si2 0.685974 0.794172 0.915952
Si Si3 0.811924 0.795928 0.418040
Si Si4 0.816870 0.505092 0.586133
Si Si5 0.315041 0.076037 0.329799
Si Si6 0.813046 0.929372 0.329873
Si Si7 0.188098 0.644944 0.419536
O O1 0.500000 0.655299 0.579350
O O2 0.243106 0.719145 0.612051
O O3 0.267986 0.574332 0.612148
O O4 0.250342 0.646668 0.499987
O O5 0.500000 0.796719 0.912135
O O6 0.758163 0.858209 0.874170
O O7 0.732475 0.799725 0.999116
O O8 0.758742 0.862862 0.374823
O O9 0.764538 0.719822 0.388373
O O10 0.000000 0.797042 0.416317
O O11 0.798057 0.500000 0.500000
O O12 0.763263 0.429109 0.613344
O O13 0.000000 0.513398 0.599492
O O14 0.250000 0.082649 0.250000
O O15 0.500000 0.072798 0.327659
O O16 0.248755 0.002936 0.358796
O O17 0.750000 0.922839 0.250000
O O18 0.000000 0.931332 0.328712
O O19 0.000000 0.642954 0.423131
#
# Coordination Sequence:
#
# PCOD9414138 Si02
#       7
#     8   8   8   8   8   8   8
#     4  10  17  24  37  62  94 124 154 192 238 285
#     4  10  19  34  52  71  96 127 161 198 240 286
#     4   8  16  30  50  72  96 127 163 199 238 286
#     4   8  13  22  37  56  83 121 161 195 230 278
#     4  11  22  37  54  74  97 124 158 195 236 283
#     4  10  19  34  53  73  96 126 162 198 237 283
#     4   8  14  26  41  59  86 123 162 197 234 281
#
# _framework density 17.922342
#
# number of rings (size 3 to 8) (size 9 to 14) (size 15 to 20)
#    0.000    2.714    0.000    6.000    0.000    3.143 
#    0.000   10.000    0.000    0.000    0.000    1.000 
#    0.000    4.571    0.000    0.000    0.000    0.000 
#
# Total GULP energy -311850.919544 kJ/mol
# GULP energy per Si atom -5568.766420 kJ/mol
# Density = 1.788155 g / cm^3
# Si number density = 17.922342 Si / 1000 Ang^3
#
#
#
# Elastic Constant Matrix: (Units=GPa)
#
#
# Indices 1 2 3 4 5 6 
#
# 1 47.7330 63.8864 12.3974 0.0000 0.0000 0.0000
# 2 63.8864 222.5932 46.1936 0.0000 0.0000 0.0000
# 3 12.3974 46.1936 18.6582 0.0000 0.0000 0.0000
# 4 0.0000 0.0000 0.0000 -16.2229 0.0000 0.0000
# 5 0.0000 0.0000 0.0000 0.0000 12.1937 0.0000
# 6 0.0000 0.0000 0.0000 0.0000 0.0000 23.3374
#
#
#
# Elastic Compliance Matrix: (Units=1/GPa)
#
#
# Indices 1 2 3 4 5 6 
#
# 1 0.034112 -0.010462 0.003236 0.000000 0.000000 0.000000
# 2 -0.010462 0.012448 -0.023868 0.000000 0.000000 0.000000
# 3 0.003236 -0.023868 0.110537 0.000000 0.000000 0.000000
# 4 0.000000 0.000000 0.000000 -0.061641 0.000000 0.000000
# 5 0.000000 0.000000 0.000000 0.000000 0.082009 0.000000
# 6 0.000000 0.000000 0.000000 0.000000 0.000000 0.042850
#
#
# Mechanical properties :
#
#
# Convention : Reuss Voigt Hill
#
# Bulk Modulus (GPa) = 10.53633 59.32659 34.93146
# Shear Modulus (GPa) = 15.91649 14.96213 15.43931
#
# Velocity S-wave (km/s) = 2.98330 2.89248 2.93824
# Velocity P-wave (km/s) = 4.21407 6.65801 5.57169
#
# Compressibility (1/GPa) = 0.09490970
#
# Stress axis : x y z
#
# Youngs Moduli (GPa) = 29.31536 80.33163 9.04671
#
# Poissons Ratio (x) = 0.84043 -0.02928
# Poissons Ratio (y) = 0.30670 0.21593
# Poissons Ratio (z) = -0.09487 1.91736
#
# Static dielectric constant tensor:
#      x y z
#    x 1.598450 0.000000 0.000000 
#    y 0.000000 1.687310 0.000000 
#    z 0.000000 0.000000 1.606740 
# 
# From -- ./inp_files/30993.got.cif
#   From: 2010.05.17/outbox.cif.g08.bks.cpg/sg53_16_cif.got.tgz:30993.got - 2010.06.03 12:45:16.
