data_PCOD9414590
_publ_section_title
;
Structure prediction by ZEFSAII (Michael W. Deem and Ramdas Pophale) SiO2 
 PCOD9414590
Probable space group: P M N A
;
_chemical_formula_sum "Si O2"
_cell_formula_units_Z 56
_cell_length_a 9.188973
_cell_length_b 18.127421
_cell_length_c 20.050874
_cell_angle_alpha 90.000000
_cell_angle_beta 90.000000
_cell_angle_gamma 90.000000
_cell_volume 3339.921846
_symmetry_space_group_name_H-M "P M N A"
_symmetry_group_IT_number 53
_symmetry_cell_setting 'orthorhombic'
loop_
_space_group_symop_operation_xyz
x,y,z
1/2-x,-y,1/2+z
x,-y,-z
1/2-x,y,1/2-z
-x,-y,-z
1/2+x,y,1/2-z
-x,y,z
1/2+x,-y,1/2+z
loop_
_atom_site_type_symbol
_atom_site_label
_atom_site_fract_x
_atom_site_fract_y
_atom_site_fract_z
Si Si1 0.167713 0.512679 0.419435
Si Si2 0.331932 0.659248 0.439226
Si Si3 0.825108 0.063740 0.320075
Si Si4 0.833031 0.366596 0.100083
Si Si5 0.829295 0.219872 0.384003
Si Si6 0.827734 0.191828 0.542312
Si Si7 0.171551 0.960604 0.071894
O O1 0.169218 0.500000 0.500000
O O2 0.257519 0.587310 0.407667
O O3 0.241540 0.440584 0.387906
O O4 0.000000 0.520342 0.399443
O O5 0.500000 0.667188 0.419188
O O6 0.330680 0.645877 0.519580
O O7 0.240802 0.733522 0.427948
O O8 0.750000 0.047705 0.250000
O O9 0.791473 0.148166 0.341187
O O10 0.000000 0.056120 0.317506
O O11 0.757656 0.009975 0.375233
O O12 0.763331 0.292776 0.130140
O O13 0.000000 0.375923 0.120301
O O14 0.809545 0.198116 0.461924
O O15 0.000000 0.236968 0.375161
O O16 0.742887 0.119954 0.566791
O O17 0.000000 0.186671 0.555832
O O18 0.000000 0.956084 0.088232
O O19 0.184799 0.000000 0.000000
#
# Coordination Sequence:
#
# PCOD9414590 Si02
#       7
#     8   8   8   8   8   8   8
#     4   9  15  23  35  53  82 121 160 195 238 291
#     4   9  16  25  37  58  89 122 158 200 246 292
#     4  11  23  39  56  76 103 136 172 214 264 315
#     4   9  16  24  38  59  85 119 159 200 240 286
#     4   9  18  31  47  67  94 127 164 204 249 301
#     4  10  18  30  48  70  96 128 167 208 254 306
#     4  11  22  35  54  78 103 132 171 216 262 313
#
# _framework density 16.766859
#
# number of rings (size 3 to 8) (size 9 to 14) (size 15 to 20)
#    0.000    2.286    1.429    2.571    0.000    7.429 
#    0.000    0.000    0.000    0.000    0.000    0.000 
#    0.000    1.143    0.000    9.714    0.000   10.000 
#
# Total GULP energy -312346.802315 kJ/mol
# GULP energy per Si atom -5577.621470 kJ/mol
# Density = 1.672870 g / cm^3
# Si number density = 16.766859 Si / 1000 Ang^3
#
#
#
# Elastic Constant Matrix: (Units=GPa)
#
#
# Indices 1 2 3 4 5 6 
#
# 1 124.8611 81.9135 33.0377 0.0000 0.0000 0.0000
# 2 81.9135 137.2981 26.6872 0.0000 0.0000 0.0000
# 3 33.0377 26.6872 34.0125 0.0000 0.0000 0.0000
# 4 0.0000 0.0000 0.0000 7.5116 0.0000 0.0000
# 5 0.0000 0.0000 0.0000 0.0000 11.5335 0.0000
# 6 0.0000 0.0000 0.0000 0.0000 0.0000 36.4247
#
#
#
# Elastic Compliance Matrix: (Units=1/GPa)
#
#
# Indices 1 2 3 4 5 6 
#
# 1 0.015191 -0.007310 -0.009020 0.000000 0.000000 0.000000
# 2 -0.007310 0.012112 -0.002403 0.000000 0.000000 0.000000
# 3 -0.009020 -0.002403 0.040048 0.000000 0.000000 0.000000
# 4 0.000000 0.000000 0.000000 0.133128 0.000000 0.000000
# 5 0.000000 0.000000 0.000000 0.000000 0.086704 0.000000
# 6 0.000000 0.000000 0.000000 0.000000 0.000000 0.027454
#
#
# Mechanical properties :
#
#
# Convention : Reuss Voigt Hill
#
# Bulk Modulus (GPa) = 33.46160 64.38317 48.92239
# Shear Modulus (GPa) = 13.80971 21.39617 17.60294
#
# Velocity S-wave (km/s) = 2.87301 3.57613 3.24368
# Velocity P-wave (km/s) = 5.56830 7.45211 6.57799
#
# Compressibility (1/GPa) = 0.02988500
#
# Stress axis : x y z
#
# Youngs Moduli (GPa) = 65.82754 82.56532 24.97007
#
# Poissons Ratio (x) = 0.60355 0.22524
# Poissons Ratio (y) = 0.48119 0.06000
# Poissons Ratio (z) = 0.59378 0.19838
#
# Static dielectric constant tensor:
#      x y z
#    x 1.557770 0.000000 0.000000 
#    y 0.000000 1.541810 0.000000 
#    z 0.000000 0.000000 1.546150 
# 
# From -- ./inp_files/30870.got.cif
#   From: 2010.05.17/outbox.cif.g08.bks.cpg/sg53_16_cif.got.tgz:30870.got - 2010.06.03 12:45:16.
