data_PCOD9414105
_publ_section_title
;
Structure prediction by ZEFSAII (Michael W. Deem and Ramdas Pophale) SiO2 
 PCOD9414105
Probable space group: P M N A
;
_chemical_formula_sum "Si O2"
_cell_formula_units_Z 64
_cell_length_a 7.954793
_cell_length_b 15.218953
_cell_length_c 31.053784
_cell_angle_alpha 90.000000
_cell_angle_beta 90.000000
_cell_angle_gamma 90.000000
_cell_volume 3759.483530
_symmetry_space_group_name_H-M "P M N A"
_symmetry_group_IT_number 53
_symmetry_cell_setting 'orthorhombic'
loop_
_space_group_symop_operation_xyz
x,y,z
1/2-x,-y,1/2+z
x,-y,-z
1/2-x,y,1/2-z
-x,-y,-z
1/2+x,y,1/2-z
-x,y,z
1/2+x,-y,1/2+z
loop_
_atom_site_type_symbol
_atom_site_label
_atom_site_fract_x
_atom_site_fract_y
_atom_site_fract_z
Si Si1 0.202381 0.155125 0.701714
Si Si2 0.189282 0.437512 0.885480
Si Si3 0.204794 0.075997 0.615205
Si Si4 0.697052 0.251643 0.029398
Si Si5 0.200204 0.356667 0.701482
Si Si6 0.803257 0.442703 0.459873
Si Si7 0.696083 0.260504 0.926423
Si Si8 0.706565 0.055607 0.042571
O O1 0.250000 0.129722 0.750000
O O2 0.261867 0.089666 0.664287
O O3 0.263587 0.255898 0.694236
O O4 0.000000 0.158377 0.699205
O O5 0.239471 0.420807 0.836142
O O6 0.292918 0.502439 0.916018
O O7 0.204984 0.341889 0.907398
O O8 0.000000 0.469728 0.887393
O O9 0.250796 0.166949 0.591720
O O10 0.000000 0.071749 0.615301
O O11 0.261238 0.995884 0.585458
O O12 0.500000 0.248648 0.042742
O O13 0.770640 0.344725 0.044938
O O14 0.767596 0.156180 0.041606
O O15 0.703186 0.257792 0.977680
O O16 0.250000 0.381845 0.750000
O O17 0.000000 0.353345 0.699082
O O18 0.731671 0.500000 0.500000
O O19 0.000000 0.428952 0.471056
O O20 0.500000 0.273474 0.913492
O O21 0.500000 0.057089 0.041446
O O22 0.756200 0.000000 0.000000
#
# Coordination Sequence:
#
# PCOD9414105 Si02
#       8
#     8   8   8   8   8   8   8   8
#     4   9  17  28  43  64  91 122 152 183 221 268
#     4  12  23  32  45  69  97 128 166 201 239 281
#     4   9  15  24  41  66  95 124 150 184 232 276
#     4   9  16  26  43  67  93 123 158 196 238 284
#     4  10  19  33  51  71  98 126 157 192 235 287
#     4  10  19  32  49  66  91 127 165 202 244 291
#     4  10  16  28  46  65  93 127 159 191 233 281
#     4   9  14  21  39  69  98 117 145 191 235 279
#
# _framework density 17.023614999999999
#
# number of rings (size 3 to 8) (size 9 to 14) (size 15 to 20)
#    0.000    2.250    3.750    1.500    0.000    0.750 
#    0.000    0.000    0.000    0.000    0.000    5.250 
#    0.000    2.000    0.000    0.000    0.000    0.000 
#
# Total GULP energy -356711.339150 kJ/mol
# GULP energy per Si atom -5573.614674 kJ/mol
# Density = 1.698487 g / cm^3
# Si number density = 17.023615 Si / 1000 Ang^3
#
#
#
# Elastic Constant Matrix: (Units=GPa)
#
#
# Indices 1 2 3 4 5 6 
#
# 1 13.6313 3.1110 -0.9959 0.0000 0.0000 0.0000
# 2 3.1110 126.1652 61.5905 0.0000 0.0000 0.0000
# 3 -0.9959 61.5905 103.0184 0.0000 0.0000 0.0000
# 4 0.0000 0.0000 0.0000 6.7645 0.0000 0.0000
# 5 0.0000 0.0000 0.0000 0.0000 15.1746 0.0000
# 6 0.0000 0.0000 0.0000 0.0000 0.0000 30.8817
#
#
#
# Elastic Compliance Matrix: (Units=1/GPa)
#
#
# Indices 1 2 3 4 5 6 
#
# 1 0.074251 -0.003080 0.002559 0.000000 0.000000 0.000000
# 2 -0.003080 0.011321 -0.006798 0.000000 0.000000 0.000000
# 3 0.002559 -0.006798 0.013796 0.000000 0.000000 0.000000
# 4 0.000000 0.000000 0.000000 0.147831 0.000000 0.000000
# 5 0.000000 0.000000 0.000000 0.000000 0.065900 0.000000
# 6 0.000000 0.000000 0.000000 0.000000 0.000000 0.032382
#
#
# Mechanical properties :
#
#
# Convention : Reuss Voigt Hill
#
# Bulk Modulus (GPa) = 11.80226 41.13623 26.46925
# Shear Modulus (GPa) = 12.87462 22.50476 17.68969
#
# Velocity S-wave (km/s) = 2.75304 3.63984 3.22705
# Velocity P-wave (km/s) = 4.12959 6.47157 5.42839
#
# Compressibility (1/GPa) = 0.08472955
#
# Stress axis : x y z
#
# Youngs Moduli (GPa) = 13.46789 88.33429 72.48510
#
# Poissons Ratio (x) = 0.27209 -0.18551
# Poissons Ratio (y) = 0.04148 0.49275
# Poissons Ratio (z) = -0.03447 0.60049
#
# Static dielectric constant tensor:
#      x y z
#    x 1.609950 0.000000 0.000000 
#    y 0.000000 1.583840 0.000000 
#    z 0.000000 0.000000 1.629910 
# 
# From -- ./inp_files/38486.got.cif
#   From: 2010.05.17/outbox.cif.g08.bks.cpg/sg53_20_cif.got.tgz:38486.got - 2010.06.03 12:45:16.
