data_PCOD9414057
_publ_section_title
;
Structure prediction by ZEFSAII (Michael W. Deem and Ramdas Pophale) SiO2 
 PCOD9414057
Probable space group: P M N A
;
_chemical_formula_sum "Si O2"
_cell_formula_units_Z 40
_cell_length_a 8.076399
_cell_length_b 7.234064
_cell_length_c 30.164650
_cell_angle_alpha 90.000000
_cell_angle_beta 90.000000
_cell_angle_gamma 90.000000
_cell_volume 1762.375325
_symmetry_space_group_name_H-M "P M N A"
_symmetry_group_IT_number 53
_symmetry_cell_setting 'orthorhombic'
loop_
_space_group_symop_operation_xyz
x,y,z
1/2-x,-y,1/2+z
x,-y,-z
1/2-x,y,1/2-z
-x,-y,-z
1/2+x,y,1/2-z
-x,y,z
1/2+x,-y,1/2+z
loop_
_atom_site_type_symbol
_atom_site_label
_atom_site_fract_x
_atom_site_fract_y
_atom_site_fract_z
Si Si1 0.681753 0.023361 0.107007
Si Si2 0.687769 0.525028 0.892394
Si Si3 0.197019 0.575118 0.704430
Si Si4 0.000000 0.469517 0.052114
Si Si5 0.500000 0.969737 0.552478
Si Si6 0.810016 0.994006 0.798357
O O1 0.500000 0.968655 0.090822
O O2 0.684715 0.249029 0.107785
O O3 0.833764 0.961619 0.076521
O O4 0.707372 0.958485 0.157675
O O5 0.500000 0.466455 0.903169
O O6 0.730265 0.473715 0.841664
O O7 0.831675 0.461554 0.925024
O O8 0.250000 0.479927 0.750000
O O9 0.294435 0.769423 0.703511
O O10 0.000000 0.614507 0.705187
O O11 0.000000 0.250045 0.059701
O O12 0.000000 0.500000 0.000000
O O13 0.500000 0.000000 0.500000
O O14 0.750000 0.057028 0.750000
O O15 0.000000 0.045770 0.805137
#
# Coordination Sequence:
#
# PCOD9414057 Si02
#       6
#     8   8   8   4   4   8
#     4   9  16  28  42  61  88 120 152 185 229 276
#     4   8  16  27  40  60  88 119 149 183 227 273
#     4   9  15  20  31  53  81 118 150 175 215 271
#     4  10  20  32  50  68  88 122 158 192 231 270
#     4  10  20  34  50  68  92 122 156 194 235 276
#     4  10  15  20  32  54  84 120 152 178 215 273
#
# _framework density 22.696639999999999
#
# number of rings (size 3 to 8) (size 9 to 14) (size 15 to 20)
#    0.000    2.800    1.000    4.800    5.600    0.800 
#    0.000    0.000    0.000    0.000    0.000    0.000 
#    0.000    1.600    0.000    0.000    0.000    0.000 
#
# Total GULP energy -223406.854832 kJ/mol
# GULP energy per Si atom -5585.171371 kJ/mol
# Density = 2.264498 g / cm^3
# Si number density = 22.696640 Si / 1000 Ang^3
#
#
#
# Elastic Constant Matrix: (Units=GPa)
#
#
# Indices 1 2 3 4 5 6 
#
# 1 185.5512 -1.0231 114.7786 0.0000 0.0000 0.0000
# 2 -1.0231 91.9997 -3.7019 0.0000 0.0000 0.0000
# 3 114.7786 -3.7019 189.8077 0.0000 0.0000 0.0000
# 4 0.0000 0.0000 0.0000 -3.1419 0.0000 0.0000
# 5 0.0000 0.0000 0.0000 0.0000 37.7961 0.0000
# 6 0.0000 0.0000 0.0000 0.0000 0.0000 -18.4322
#
#
#
# Elastic Compliance Matrix: (Units=1/GPa)
#
#
# Indices 1 2 3 4 5 6 
#
# 1 0.008611 -0.000114 -0.005210 0.000000 0.000000 0.000000
# 2 -0.000114 0.010880 0.000281 0.000000 0.000000 0.000000
# 3 -0.005210 0.000281 0.008424 0.000000 0.000000 0.000000
# 4 0.000000 0.000000 0.000000 -0.318283 0.000000 0.000000
# 5 0.000000 0.000000 0.000000 0.000000 0.026458 0.000000
# 6 0.000000 0.000000 0.000000 0.000000 0.000000 -0.054253
#
#
# Mechanical properties :
#
#
# Convention : Reuss Voigt Hill
#
# Bulk Modulus (GPa) = 56.08388 76.38506 66.23447
# Shear Modulus (GPa) = -16.54892 27.06473 5.25790
#
# Velocity S-wave (km/s) = -2.70318 3.45694 1.52369
# Velocity P-wave (km/s) = 3.87569 7.04711 5.68695
#
# Compressibility (1/GPa) = 0.01783044
#
# Stress axis : x y z
#
# Youngs Moduli (GPa) = 116.12743 91.91474 118.70539
#
# Poissons Ratio (x) = 0.01047 0.61840
# Poissons Ratio (y) = 0.01322 -0.03336
# Poissons Ratio (z) = 0.60497 -0.02583
#
# Static dielectric constant tensor:
#      x y z
#    x 1.810610 0.000000 0.000000 
#    y 0.000000 1.996580 0.000000 
#    z 0.000000 0.000000 1.832170 
# 
# From -- ./inp_files/36063.got.cif
#   From: 2010.05.17/outbox.cif.g08.bks.cpg/sg53_19_cif.got.tgz:36063.got - 2010.06.03 12:45:16.
