data_PCOD9414858
_publ_section_title
;
Structure prediction by ZEFSAII (Michael W. Deem and Ramdas Pophale) SiO2 
 PCOD9414858
Probable space group: P M N A
;
_chemical_formula_sum "Si O2"
_cell_formula_units_Z 64
_cell_length_a 8.772800
_cell_length_b 20.737697
_cell_length_c 19.939190
_cell_angle_alpha 90.000000
_cell_angle_beta 90.000000
_cell_angle_gamma 90.000000
_cell_volume 3627.490343
_symmetry_space_group_name_H-M "P M N A"
_symmetry_group_IT_number 53
_symmetry_cell_setting 'orthorhombic'
loop_
_space_group_symop_operation_xyz
x,y,z
1/2-x,-y,1/2+z
x,-y,-z
1/2-x,y,1/2-z
-x,-y,-z
1/2+x,y,1/2-z
-x,y,z
1/2+x,-y,1/2+z
loop_
_atom_site_type_symbol
_atom_site_label
_atom_site_fract_x
_atom_site_fract_y
_atom_site_fract_z
Si Si1 0.815493 0.099469 0.324477
Si Si2 0.318420 0.616825 0.395379
Si Si3 0.182462 0.264946 0.678345
Si Si4 0.815790 0.787788 0.575597
Si Si5 0.817827 0.649077 0.949855
Si Si6 0.685411 0.159752 0.929903
Si Si7 0.675821 0.516189 0.920263
Si Si8 0.314232 0.984902 0.076435
O O1 0.750000 0.096478 0.250000
O O2 0.771763 0.165003 0.363733
O O3 0.000000 0.097935 0.321475
O O4 0.764857 0.038892 0.370574
O O5 0.500000 0.620435 0.389259
O O6 0.239434 0.664969 0.344067
O O7 0.276581 0.640530 0.471045
O O8 0.263697 0.543412 0.387295
O O9 0.250000 0.247598 0.750000
O O10 0.235441 0.214089 0.622083
O O11 0.000000 0.264147 0.680698
O O12 0.747345 0.716362 0.576654
O O13 0.768736 0.821522 0.505385
O O14 0.000000 0.782881 0.574992
O O15 0.750829 0.586203 0.913055
O O16 0.000000 0.648419 0.945323
O O17 0.500000 0.159331 0.930055
O O18 0.735136 0.088199 0.909174
O O19 0.500000 0.517285 0.899359
O O20 0.680578 0.500000 0.000000
O O21 0.500000 0.986382 0.076907
O O22 0.267887 0.000000 0.000000
#
# Coordination Sequence:
#
# PCOD9414858 Si02
#       8
#     8   8   8   8   8   8   8   8
#     4  10  21  35  56  82 111 143 179 224 273 328
#     4  10  19  32  50  74 106 140 177 221 273 326
#     4  11  22  35  51  73 105 144 185 229 275 328
#     4  10  18  32  54  79 104 140 185 226 267 323
#     4  10  19  30  49  79 110 139 172 223 278 321
#     4   9  17  30  52  78 103 134 181 231 271 317
#     4   9  17  29  48  75 106 139 175 216 261 316
#     4   9  15  29  54  82 106 136 182 228 266 312
#
# _framework density 17.643052999999998
#
# number of rings (size 3 to 8) (size 9 to 14) (size 15 to 20)
#    0.000    2.250    2.500    1.500    0.000    3.500 
#    0.000    0.000    0.000    2.625    0.000    3.500 
#    0.000    0.000    0.000    0.000    0.000    0.000 
#
# Total GULP energy -356997.473096 kJ/mol
# GULP energy per Si atom -5578.085517 kJ/mol
# Density = 1.760290 g / cm^3
# Si number density = 17.643053 Si / 1000 Ang^3
#
#
#
# Elastic Constant Matrix: (Units=GPa)
#
#
# Indices 1 2 3 4 5 6 
#
# 1 26.6270 30.2872 24.3928 0.0000 0.0000 0.0000
# 2 30.2872 161.1206 62.1973 0.0000 0.0000 0.0000
# 3 24.3928 62.1973 105.9514 0.0000 0.0000 0.0000
# 4 0.0000 0.0000 0.0000 15.5261 0.0000 0.0000
# 5 0.0000 0.0000 0.0000 0.0000 23.6034 0.0000
# 6 0.0000 0.0000 0.0000 0.0000 0.0000 4.8052
#
#
#
# Elastic Compliance Matrix: (Units=1/GPa)
#
#
# Indices 1 2 3 4 5 6 
#
# 1 0.052729 -0.006757 -0.008173 0.000000 0.000000 0.000000
# 2 -0.006757 0.008891 -0.003664 0.000000 0.000000 0.000000
# 3 -0.008173 -0.003664 0.013471 0.000000 0.000000 0.000000
# 4 0.000000 0.000000 0.000000 0.064408 0.000000 0.000000
# 5 0.000000 0.000000 0.000000 0.000000 0.042367 0.000000
# 6 0.000000 0.000000 0.000000 0.000000 0.000000 0.208108
#
#
# Mechanical properties :
#
#
# Convention : Reuss Voigt Hill
#
# Bulk Modulus (GPa) = 26.38297 58.60595 42.49446
# Shear Modulus (GPa) = 11.36894 20.57505 15.97200
#
# Velocity S-wave (km/s) = 2.54123 3.41865 3.01206
# Velocity P-wave (km/s) = 4.85764 6.99089 6.01952
#
# Compressibility (1/GPa) = 0.03790324
#
# Stress axis : x y z
#
# Youngs Moduli (GPa) = 18.96497 112.47356 74.23541
#
# Poissons Ratio (x) = 0.75997 0.60673
# Poissons Ratio (y) = 0.12814 0.27198
# Poissons Ratio (z) = 0.15500 0.41207
#
# Static dielectric constant tensor:
#      x y z
#    x 1.595310 0.000000 0.000000 
#    y 0.000000 1.600820 0.000000 
#    z 0.000000 0.000000 1.587010 
# 
# From -- ./inp_files/26917.got.cif
#   From: 2010.05.17/outbox.cif.g08.bks.cpg/sg53_14_cif.got.tgz:26917.got - 2010.06.03 12:45:16.
