data_PCOD9414332
_publ_section_title
;
Structure prediction by ZEFSAII (Michael W. Deem and Ramdas Pophale) SiO2 
 PCOD9414332
Probable space group: P M N A
;
_chemical_formula_sum "Si O2"
_cell_formula_units_Z 56
_cell_length_a 18.766712
_cell_length_b 8.465111
_cell_length_c 18.684990
_cell_angle_alpha 90.000000
_cell_angle_beta 90.000000
_cell_angle_gamma 90.000000
_cell_volume 2968.340490
_symmetry_space_group_name_H-M "P M N A"
_symmetry_group_IT_number 53
_symmetry_cell_setting 'orthorhombic'
loop_
_space_group_symop_operation_xyz
x,y,z
1/2-x,-y,1/2+z
x,-y,-z
1/2-x,y,1/2-z
-x,-y,-z
1/2+x,y,1/2-z
-x,y,z
1/2+x,-y,1/2+z
loop_
_atom_site_type_symbol
_atom_site_label
_atom_site_fract_x
_atom_site_fract_y
_atom_site_fract_z
Si Si1 0.583482 0.189729 0.286042
Si Si2 0.579794 0.831711 0.227348
Si Si3 0.420800 0.354618 0.629137
Si Si4 0.302787 0.263424 0.182821
Si Si5 0.279950 0.896485 0.168465
Si Si6 0.170410 0.836419 0.042294
Si Si7 0.318807 0.357497 0.402027
O O1 0.500000 0.226882 0.297022
O O2 0.619155 0.279708 0.217566
O O3 0.634082 0.233479 0.353216
O O4 0.589302 0.003841 0.265939
O O5 0.500000 0.829452 0.197263
O O6 0.585107 0.701539 0.289247
O O7 0.643111 0.814725 0.171210
O O8 0.500000 0.416013 0.615866
O O9 0.404456 0.203463 0.579852
O O10 0.362081 0.483202 0.610509
O O11 0.250000 0.280885 0.250000
O O12 0.262808 0.369544 0.124951
O O13 0.293751 0.082965 0.156537
O O14 0.250000 0.878247 0.250000
O O15 0.226919 0.838439 0.107389
O O16 0.182743 0.704587 0.982198
O O17 0.172117 0.000000 0.000000
#
# Coordination Sequence:
#
# PCOD9414332 Si02
#       7
#     8   8   8   8   8   8   8
#     4   9  17  33  59  85 114 155 192 233 286 345
#     4   9  18  35  60  85 113 149 193 241 292 340
#     4  11  24  39  55  83 120 157 192 231 287 353
#     4   8  16  31  53  80 109 145 190 239 276 332
#     4  10  17  35  60  83 109 143 199 249 274 331
#     4  12  23  37  59  83 110 158 198 236 294 343
#     4  11  21  35  53  80 123 154 189 237 286 342
#
# _framework density 18.865760999999999
#
# number of rings (size 3 to 8) (size 9 to 14) (size 15 to 20)
#    0.000    2.000    2.857    2.571    0.000    2.000 
#    7.714    0.000    0.000    1.286    0.000    0.000 
#    0.000    2.286    0.000    0.000    0.000    0.000 
#
# Total GULP energy -312167.733730 kJ/mol
# GULP energy per Si atom -5574.423817 kJ/mol
# Density = 1.882282 g / cm^3
# Si number density = 18.865761 Si / 1000 Ang^3
#
#
#
# Elastic Constant Matrix: (Units=GPa)
#
#
# Indices 1 2 3 4 5 6 
#
# 1 84.6925 28.2242 41.2332 0.0000 0.0000 0.0000
# 2 28.2242 38.9482 16.1805 0.0000 0.0000 0.0000
# 3 41.2332 16.1805 54.4690 0.0000 0.0000 0.0000
# 4 0.0000 0.0000 0.0000 14.3563 0.0000 0.0000
# 5 0.0000 0.0000 0.0000 0.0000 11.9304 0.0000
# 6 0.0000 0.0000 0.0000 0.0000 0.0000 25.2351
#
#
#
# Elastic Compliance Matrix: (Units=1/GPa)
#
#
# Indices 1 2 3 4 5 6 
#
# 1 0.021737 -0.010171 -0.013434 0.000000 0.000000 0.000000
# 2 -0.010171 0.034049 -0.002415 0.000000 0.000000 0.000000
# 3 -0.013434 -0.002415 0.029246 0.000000 0.000000 0.000000
# 4 0.000000 0.000000 0.000000 0.069656 0.000000 0.000000
# 5 0.000000 0.000000 0.000000 0.000000 0.083820 0.000000
# 6 0.000000 0.000000 0.000000 0.000000 0.000000 0.039627
#
#
# Mechanical properties :
#
#
# Convention : Reuss Voigt Hill
#
# Bulk Modulus (GPa) = 30.30998 38.82062 34.56530
# Shear Modulus (GPa) = 14.65531 16.46913 15.56222
#
# Velocity S-wave (km/s) = 2.79017 2.95780 2.87521
# Velocity P-wave (km/s) = 5.14598 5.68214 5.42069
#
# Compressibility (1/GPa) = 0.03299243
#
# Stress axis : x y z
#
# Youngs Moduli (GPa) = 46.00351 29.36929 34.19283
#
# Poissons Ratio (x) = 0.29873 0.45934
# Poissons Ratio (y) = 0.46792 0.08257
# Poissons Ratio (z) = 0.61800 0.07092
#
# Static dielectric constant tensor:
#      x y z
#    x 1.688030 0.000000 0.000000 
#    y 0.000000 1.721570 0.000000 
#    z 0.000000 0.000000 1.668210 
# 
# From -- ./inp_files/29316.got.cif
#   From: 2010.05.17/outbox.cif.g08.bks.cpg/sg53_15_cif.got.tgz:29316.got - 2010.06.03 12:45:16.
