data_PCOD9414414
_publ_section_title
;
Structure prediction by ZEFSAII (Michael W. Deem and Ramdas Pophale) SiO2 
 PCOD9414414
Probable space group: P M N A
;
_chemical_formula_sum "Si O2"
_cell_formula_units_Z 64
_cell_length_a 8.810357
_cell_length_b 17.578580
_cell_length_c 27.326506
_cell_angle_alpha 90.000000
_cell_angle_beta 90.000000
_cell_angle_gamma 90.000000
_cell_volume 4232.153413
_symmetry_space_group_name_H-M "P M N A"
_symmetry_group_IT_number 53
_symmetry_cell_setting 'orthorhombic'
loop_
_space_group_symop_operation_xyz
x,y,z
1/2-x,-y,1/2+z
x,-y,-z
1/2-x,y,1/2-z
-x,-y,-z
1/2+x,y,1/2-z
-x,y,z
1/2+x,-y,1/2+z
loop_
_atom_site_type_symbol
_atom_site_label
_atom_site_fract_x
_atom_site_fract_y
_atom_site_fract_z
Si Si1 0.318410 0.716499 0.619852
Si Si2 0.317123 0.517759 0.391688
Si Si3 0.319511 0.667316 0.440130
Si Si4 0.181252 0.409134 0.196587
Si Si5 0.825312 0.984125 0.058483
Si Si6 0.819560 0.394356 0.460666
Si Si7 0.318763 0.172404 0.962429
Si Si8 0.318902 0.141336 0.076332
O O1 0.500000 0.710656 0.611855
O O2 0.282291 0.670884 0.669615
O O3 0.229957 0.670550 0.577741
O O4 0.263982 0.802632 0.613990
O O5 0.500000 0.507898 0.397356
O O6 0.283584 0.607016 0.397154
O O7 0.271949 0.475924 0.341364
O O8 0.235939 0.471774 0.435257
O O9 0.500000 0.678815 0.441640
O O10 0.265541 0.625368 0.489503
O O11 0.239610 0.748847 0.440114
O O12 0.250000 0.415639 0.250000
O O13 0.000000 0.413226 0.200692
O O14 0.751852 0.901272 0.063717
O O15 0.000000 0.984709 0.074481
O O16 0.733945 0.054261 0.081432
O O17 0.822660 0.000000 0.000000
O O18 0.000000 0.394362 0.468147
O O19 0.500000 0.168539 0.960168
O O20 0.277046 0.167337 0.020513
O O21 0.500000 0.147516 0.080917
#
# Coordination Sequence:
#
# PCOD9414414 Si02
#       8
#     8   8   8   8   8   8   8   8
#     4  10  19  31  47  66  90 120 154 187 223 274
#     4   9  20  35  47  63  86 116 151 185 224 275
#     4  11  20  30  45  61  86 122 156 187 223 267
#     4   9  19  35  52  69  89 114 146 187 233 277
#     4   9  17  28  42  59  83 120 160 188 218 262
#     4  11  20  29  42  63  89 117 150 189 227 263
#     4  10  19  29  41  61  90 120 155 195 228 257
#     4  10  18  28  43  64  90 118 152 193 228 258
#
# _framework density 15.122325
#
# number of rings (size 3 to 8) (size 9 to 14) (size 15 to 20)
#    0.000    2.125    1.250    4.125    0.000    7.500 
#    0.000    0.000    0.000    0.000    0.000    0.000 
#    0.000    1.000    0.000    6.250    0.000    4.250 
#
# Total GULP energy -356864.530520 kJ/mol
# GULP energy per Si atom -5576.008289 kJ/mol
# Density = 1.508791 g / cm^3
# Si number density = 15.122325 Si / 1000 Ang^3
#
#
#
# Elastic Constant Matrix: (Units=GPa)
#
#
# Indices 1 2 3 4 5 6 
#
# 1 34.6503 28.2129 10.5850 0.0000 0.0000 0.0000
# 2 28.2129 125.1661 34.7711 0.0000 0.0000 0.0000
# 3 10.5850 34.7711 48.2808 0.0000 0.0000 0.0000
# 4 0.0000 0.0000 0.0000 9.4110 0.0000 0.0000
# 5 0.0000 0.0000 0.0000 0.0000 17.8246 0.0000
# 6 0.0000 0.0000 0.0000 0.0000 0.0000 23.3163
#
#
#
# Elastic Compliance Matrix: (Units=1/GPa)
#
#
# Indices 1 2 3 4 5 6 
#
# 1 0.035593 -0.007319 -0.002532 0.000000 0.000000 0.000000
# 2 -0.007319 0.011493 -0.006672 0.000000 0.000000 0.000000
# 3 -0.002532 -0.006672 0.026072 0.000000 0.000000 0.000000
# 4 0.000000 0.000000 0.000000 0.106258 0.000000 0.000000
# 5 0.000000 0.000000 0.000000 0.000000 0.056102 0.000000
# 6 0.000000 0.000000 0.000000 0.000000 0.000000 0.042888
#
#
# Mechanical properties :
#
#
# Convention : Reuss Voigt Hill
#
# Bulk Modulus (GPa) = 24.93090 39.47056 32.20073
# Shear Modulus (GPa) = 15.39291 19.07892 17.23592
#
# Velocity S-wave (km/s) = 3.19391 3.55581 3.37971
# Velocity P-wave (km/s) = 5.48847 6.55865 6.04728
#
# Compressibility (1/GPa) = 0.04011087
#
# Stress axis : x y z
#
# Youngs Moduli (GPa) = 28.09554 87.01161 38.35459
#
# Poissons Ratio (x) = 0.63687 0.09712
# Poissons Ratio (y) = 0.20564 0.25591
# Poissons Ratio (z) = 0.07114 0.58056
#
# Static dielectric constant tensor:
#      x y z
#    x 1.502890 0.000000 0.000000 
#    y 0.000000 1.535360 0.000000 
#    z 0.000000 0.000000 1.477460 
# 
# From -- ./inp_files/34423.got.cif
#   From: 2010.05.17/outbox.cif.g08.bks.cpg/sg53_18_cif.got.tgz:34423.got - 2010.06.03 12:45:16.
