data_PCOD9414663
_publ_section_title
;
Structure prediction by ZEFSAII (Michael W. Deem and Ramdas Pophale) SiO2 
 PCOD9414663
Probable space group: P M N A
;
_chemical_formula_sum "Si O2"
_cell_formula_units_Z 56
_cell_length_a 14.609128
_cell_length_b 9.791801
_cell_length_c 16.397979
_cell_angle_alpha 90.000000
_cell_angle_beta 90.000000
_cell_angle_gamma 90.000000
_cell_volume 2345.725553
_symmetry_space_group_name_H-M "P M N A"
_symmetry_group_IT_number 53
_symmetry_cell_setting 'orthorhombic'
loop_
_space_group_symop_operation_xyz
x,y,z
1/2-x,-y,1/2+z
x,-y,-z
1/2-x,y,1/2-z
-x,-y,-z
1/2+x,y,1/2-z
-x,y,z
1/2+x,-y,1/2+z
loop_
_atom_site_type_symbol
_atom_site_label
_atom_site_fract_x
_atom_site_fract_y
_atom_site_fract_z
Si Si1 0.389143 0.074830 0.241855
Si Si2 0.854847 0.625384 0.800796
Si Si3 0.611362 0.214876 0.710406
Si Si4 0.101195 0.570441 0.075344
Si Si5 0.152726 0.444462 0.368469
Si Si6 0.606548 0.151304 0.064710
Si Si7 0.888789 0.259628 0.601376
O O1 0.500000 0.074654 0.237534
O O2 0.362629 0.944494 0.295792
O O3 0.359334 0.215835 0.282047
O O4 0.356622 0.077340 0.146868
O O5 0.912463 0.564394 0.872076
O O6 0.892236 0.546814 0.721081
O O7 0.754179 0.588612 0.835088
O O8 0.500000 0.226405 0.709596
O O9 0.642609 0.314997 0.636914
O O10 0.641447 0.241266 0.804324
O O11 0.000000 0.622123 0.048958
O O12 0.154365 0.500000 0.000000
O O13 0.113334 0.311509 0.411394
O O14 0.140338 0.584418 0.415508
O O15 0.500000 0.112047 0.060121
O O16 0.643222 0.843099 0.028788
O O17 0.000000 0.250720 0.601114
#
# Coordination Sequence:
#
# PCOD9414663 Si02
#       7
#     8   8   8   8   8   8   8
#     4   9  18  34  56  82 112 148 186 229 281 344
#     4  10  20  34  54  75 106 145 190 229 281 333
#     4   9  18  33  55  83 112 143 183 232 286 339
#     4  10  20  35  56  82 108 138 183 239 288 329
#     4  10  19  31  51  77 110 144 188 222 278 331
#     4   9  18  30  50  83 115 144 180 222 276 342
#     4  10  18  30  53  84 116 145 179 232 286 345
#
# _framework density 23.87321
#
# number of rings (size 3 to 8) (size 9 to 14) (size 15 to 20)
#    0.000    2.429    1.429    1.286    0.000    4.000 
#    0.000    3.571   12.571    3.429   11.143    0.000 
#    0.000    0.000    0.000    0.000    0.000    0.000 
#
# Total GULP energy -311923.772987 kJ/mol
# GULP energy per Si atom -5570.067375 kJ/mol
# Density = 2.381887 g / cm^3
# Si number density = 23.873210 Si / 1000 Ang^3
#
#
#
# Elastic Constant Matrix: (Units=GPa)
#
#
# Indices 1 2 3 4 5 6 
#
# 1 52.9978 7.8036 8.5162 0.0000 0.0000 0.0000
# 2 7.8036 131.0542 74.3126 0.0000 0.0000 0.0000
# 3 8.5162 74.3126 162.3357 0.0000 0.0000 0.0000
# 4 0.0000 0.0000 0.0000 52.1391 0.0000 0.0000
# 5 0.0000 0.0000 0.0000 0.0000 10.1847 0.0000
# 6 0.0000 0.0000 0.0000 0.0000 0.0000 21.1755
#
#
#
# Elastic Compliance Matrix: (Units=1/GPa)
#
#
# Indices 1 2 3 4 5 6 
#
# 1 0.019086 -0.000768 -0.000650 0.000000 0.000000 0.000000
# 2 -0.000768 0.010336 -0.004691 0.000000 0.000000 0.000000
# 3 -0.000650 -0.004691 0.008342 0.000000 0.000000 0.000000
# 4 0.000000 0.000000 0.000000 0.019179 0.000000 0.000000
# 5 0.000000 0.000000 0.000000 0.000000 0.098186 0.000000
# 6 0.000000 0.000000 0.000000 0.000000 0.000000 0.047224
#
#
# Mechanical properties :
#
#
# Convention : Reuss Voigt Hill
#
# Bulk Modulus (GPa) = 39.14507 58.62804 48.88656
# Shear Modulus (GPa) = 22.41268 33.75022 28.08145
#
# Velocity S-wave (km/s) = 3.06734 3.76404 3.43341
# Velocity P-wave (km/s) = 5.38307 6.59561 6.01995
#
# Compressibility (1/GPa) = 0.02554600
#
# Stress axis : x y z
#
# Youngs Moduli (GPa) = 52.39390 96.74583 119.87906
#
# Poissons Ratio (x) = 0.07431 0.07788
# Poissons Ratio (y) = 0.04024 0.56240
# Poissons Ratio (z) = 0.03404 0.45387
#
# Static dielectric constant tensor:
#      x y z
#    x 2.113860 0.000000 0.000000 
#    y 0.000000 1.927730 0.000000 
#    z 0.000000 0.000000 2.017000 
# 
# From -- ./inp_files/33058.got.cif
#   From: 2010.05.17/outbox.cif.g08.bks.cpg/sg53_17_cif.got.tgz:33058.got - 2010.06.03 12:45:16.
