data_PCOD9414445
_publ_section_title
;
Structure prediction by ZEFSAII (Michael W. Deem and Ramdas Pophale) SiO2 
 PCOD9414445
Probable space group: P M N A
;
_chemical_formula_sum "Si O2"
_cell_formula_units_Z 64
_cell_length_a 9.209579
_cell_length_b 20.793617
_cell_length_c 20.898238
_cell_angle_alpha 90.000000
_cell_angle_beta 90.000000
_cell_angle_gamma 90.000000
_cell_volume 4002.022158
_symmetry_space_group_name_H-M "P M N A"
_symmetry_group_IT_number 53
_symmetry_cell_setting 'orthorhombic'
loop_
_space_group_symop_operation_xyz
x,y,z
1/2-x,-y,1/2+z
x,-y,-z
1/2-x,y,1/2-z
-x,-y,-z
1/2+x,y,1/2-z
-x,y,z
1/2+x,-y,1/2+z
loop_
_atom_site_type_symbol
_atom_site_label
_atom_site_fract_x
_atom_site_fract_y
_atom_site_fract_z
Si Si1 0.165122 0.284989 0.349109
Si Si2 0.666145 0.571676 0.812095
Si Si3 0.674207 0.947059 0.445991
Si Si4 0.672179 0.017440 0.313777
Si Si5 0.671921 0.694809 0.522565
Si Si6 0.674555 0.563871 0.959321
Si Si7 0.166156 0.855470 0.650468
Si Si8 0.829202 0.176596 0.501073
O O1 0.166440 0.350164 0.309334
O O2 0.286504 0.293152 0.403046
O O3 0.184217 0.215137 0.318766
O O4 0.000000 0.282608 0.378656
O O5 0.750000 0.547110 0.750000
O O6 0.500000 0.549771 0.808698
O O7 0.719669 0.556395 0.884355
O O8 0.500000 0.937012 0.450100
O O9 0.756305 0.881092 0.460041
O O10 0.712806 0.000000 0.500000
O O11 0.709333 0.976622 0.376890
O O12 0.750000 0.993292 0.250000
O O13 0.500000 0.016581 0.305770
O O14 0.725930 0.090192 0.326210
O O15 0.500000 0.693923 0.512522
O O16 0.745420 0.625581 0.510616
O O17 0.748005 0.755570 0.488596
O O18 0.500000 0.575767 0.958466
O O19 0.702420 0.500000 0.000000
O O20 0.185053 0.842808 0.574301
O O21 0.000000 0.877109 0.661444
O O22 0.000000 0.182545 0.514618
#
# Coordination Sequence:
#
# PCOD9414445 Si02
#       8
#     8   8   8   8   8   8   8   8
#     4   8  16  30  44  62  91 128 167 201 231 276
#     4   9  17  29  45  66  94 126 163 201 239 282
#     4  10  20  35  53  74  98 124 163 212 259 297
#     4  11  23  36  49  66  95 129 161 205 254 308
#     4  10  18  28  46  73 103 129 158 200 248 293
#     4   9  18  34  53  71  97 135 173 206 241 287
#     4   9  17  30  47  67  92 124 164 204 240 280
#     4  10  19  31  51  75  99 128 164 206 247 296
#
# _framework density 15.991914
#
# number of rings (size 3 to 8) (size 9 to 14) (size 15 to 20)
#    0.000    2.500    1.250    3.375    0.000    6.000 
#    0.000    1.250    0.000    0.000    0.000    0.875 
#    0.000    4.000    0.000    0.000    0.000    0.000 
#
# Total GULP energy -356556.796701 kJ/mol
# GULP energy per Si atom -5571.199948 kJ/mol
# Density = 1.595552 g / cm^3
# Si number density = 15.991914 Si / 1000 Ang^3
#
#
#
# Elastic Constant Matrix: (Units=GPa)
#
#
# Indices 1 2 3 4 5 6 
#
# 1 72.5711 59.5135 45.4636 0.0000 0.0000 0.0000
# 2 59.5135 106.1858 50.5272 0.0000 0.0000 0.0000
# 3 45.4636 50.5272 86.2727 0.0000 0.0000 0.0000
# 4 0.0000 0.0000 0.0000 8.1368 0.0000 0.0000
# 5 0.0000 0.0000 0.0000 0.0000 22.3309 0.0000
# 6 0.0000 0.0000 0.0000 0.0000 0.0000 21.6600
#
#
#
# Elastic Compliance Matrix: (Units=1/GPa)
#
#
# Indices 1 2 3 4 5 6 
#
# 1 0.028992 -0.012448 -0.007988 0.000000 0.000000 0.000000
# 2 -0.012448 0.018401 -0.004217 0.000000 0.000000 0.000000
# 3 -0.007988 -0.004217 0.018270 0.000000 0.000000 0.000000
# 4 0.000000 0.000000 0.000000 0.122898 0.000000 0.000000
# 5 0.000000 0.000000 0.000000 0.000000 0.044781 0.000000
# 6 0.000000 0.000000 0.000000 0.000000 0.000000 0.046168
#
#
# Mechanical properties :
#
#
# Convention : Reuss Voigt Hill
#
# Bulk Modulus (GPa) = 61.13365 64.00426 62.56896
# Shear Modulus (GPa) = 14.95809 17.72725 16.34267
#
# Velocity S-wave (km/s) = 3.06167 3.33305 3.20024
# Velocity P-wave (km/s) = 7.12806 7.41094 7.27088
#
# Compressibility (1/GPa) = 0.01635760
#
# Stress axis : x y z
#
# Youngs Moduli (GPa) = 34.49234 54.34553 54.73436
#
# Poissons Ratio (x) = 0.67650 0.43719
# Poissons Ratio (y) = 0.42937 0.23081
# Poissons Ratio (z) = 0.27551 0.22917
#
# Static dielectric constant tensor:
#      x y z
#    x 1.545340 0.000000 0.000000 
#    y 0.000000 1.536970 0.000000 
#    z 0.000000 0.000000 1.560430 
# 
# From -- ./inp_files/31383.got.cif
#   From: 2010.05.17/outbox.cif.g08.bks.cpg/sg53_16_cif.got.tgz:31383.got - 2010.06.03 12:45:16.
