data_PCOD9414421
_publ_section_title
;
Structure prediction by ZEFSAII (Michael W. Deem and Ramdas Pophale) SiO2 
 PCOD9414421
Probable space group: P M N A
;
_chemical_formula_sum "Si O2"
_cell_formula_units_Z 64
_cell_length_a 7.729926
_cell_length_b 22.642917
_cell_length_c 19.414524
_cell_angle_alpha 90.000000
_cell_angle_beta 90.000000
_cell_angle_gamma 90.000000
_cell_volume 3398.086721
_symmetry_space_group_name_H-M "P M N A"
_symmetry_group_IT_number 53
_symmetry_cell_setting 'orthorhombic'
loop_
_space_group_symop_operation_xyz
x,y,z
1/2-x,-y,1/2+z
x,-y,-z
1/2-x,y,1/2-z
-x,-y,-z
1/2+x,y,1/2-z
-x,y,z
1/2+x,-y,1/2+z
loop_
_atom_site_type_symbol
_atom_site_label
_atom_site_fract_x
_atom_site_fract_y
_atom_site_fract_z
Si Si1 0.794566 0.387985 0.824548
Si Si2 0.212082 0.194716 0.070481
Si Si3 0.707822 0.907328 0.670065
Si Si4 0.304288 0.682545 0.531097
Si Si5 0.288323 0.983681 0.421842
Si Si6 0.787614 0.563278 0.028482
Si Si7 0.196364 0.271407 0.612196
Si Si8 0.791922 0.851411 0.081083
O O1 0.750000 0.413586 0.750000
O O2 0.733121 0.422945 0.892758
O O3 0.723256 0.321227 0.830882
O O4 0.000000 0.384336 0.829463
O O5 0.270137 0.151443 0.130834
O O6 0.274437 0.262579 0.072786
O O7 0.000000 0.197001 0.070541
O O8 0.261721 0.165865 0.997042
O O9 0.750000 0.908041 0.750000
O O10 0.500000 0.907392 0.662886
O O11 0.771373 0.965584 0.630096
O O12 0.500000 0.673799 0.556683
O O13 0.226302 0.617866 0.519368
O O14 0.310572 0.708644 0.453027
O O15 0.500000 0.983367 0.421136
O O16 0.230528 0.917447 0.403284
O O17 0.238126 0.000000 0.500000
O O18 0.000000 0.564682 0.027774
O O19 0.733186 0.500000 0.000000
O O20 0.234270 0.203343 0.628282
O O21 0.000000 0.275260 0.587758
O O22 0.000000 0.852326 0.081988
#
# Coordination Sequence:
#
# PCOD9414421 Si02
#       8
#     8   8   8   8   8   8   8   8
#     4  10  19  32  50  71  97 130 168 205 243 286
#     4   8  13  24  45  67  85 110 150 196 230 268
#     4  10  19  31  46  66  91 118 151 193 244 292
#     4   8  14  26  46  70  91 116 154 196 231 266
#     4   9  15  27  50  72  85 112 162 210 238 277
#     4   8  14  26  47  75 102 125 155 197 239 278
#     4  10  18  28  43  67  97 124 150 186 236 288
#     4   9  15  27  48  70  88 110 153 204 240 273
#
# _framework density 18.834126000000001
#
# number of rings (size 3 to 8) (size 9 to 14) (size 15 to 20)
#    0.000    3.000    1.250    3.000    0.000    0.000 
#    0.000    3.750    0.000   12.375    0.000    0.000 
#    0.000    0.000    0.000    0.000    0.000    0.000 
#
# Total GULP energy -356436.973720 kJ/mol
# GULP energy per Si atom -5569.327714 kJ/mol
# Density = 1.879126 g / cm^3
# Si number density = 18.834126 Si / 1000 Ang^3
#
#
#
# Elastic Constant Matrix: (Units=GPa)
#
#
# Indices 1 2 3 4 5 6 
#
# 1 40.2976 9.0257 2.9211 0.0000 0.0000 0.0000
# 2 9.0257 199.8602 72.9457 0.0000 0.0000 0.0000
# 3 2.9211 72.9457 90.8281 0.0000 0.0000 0.0000
# 4 0.0000 0.0000 0.0000 19.2706 0.0000 0.0000
# 5 0.0000 0.0000 0.0000 0.0000 14.4193 0.0000
# 6 0.0000 0.0000 0.0000 0.0000 0.0000 -2.3805
#
#
#
# Elastic Compliance Matrix: (Units=1/GPa)
#
#
# Indices 1 2 3 4 5 6 
#
# 1 0.025070 -0.001185 0.000146 0.000000 0.000000 0.000000
# 2 -0.001185 0.007134 -0.005692 0.000000 0.000000 0.000000
# 3 0.000146 -0.005692 0.015576 0.000000 0.000000 0.000000
# 4 0.000000 0.000000 0.000000 0.051893 0.000000 0.000000
# 5 0.000000 0.000000 0.000000 0.000000 0.069351 0.000000
# 6 0.000000 0.000000 0.000000 0.000000 0.000000 -0.420076
#
#
# Mechanical properties :
#
#
# Convention : Reuss Voigt Hill
#
# Bulk Modulus (GPa) = 29.13900 55.64123 42.39011
# Shear Modulus (GPa) = -22.10933 22.66810 0.27938
#
# Velocity S-wave (km/s) = -3.42994 3.47301 0.38556
# Velocity P-wave (km/s) = 0.42541 6.75938 4.77013
#
# Compressibility (1/GPa) = 0.03431827
#
# Stress axis : x y z
#
# Youngs Moduli (GPa) = 39.88785 140.16632 64.20056
#
# Poissons Ratio (x) = 0.16615 -0.00935
# Poissons Ratio (y) = 0.04728 0.36541
# Poissons Ratio (z) = -0.00581 0.79778
#
# Static dielectric constant tensor:
#      x y z
#    x 1.703080 0.000000 0.000000 
#    y 0.000000 1.697060 0.000000 
#    z 0.000000 0.000000 1.631800 
# 
# From -- ./inp_files/27061.got.cif
#   From: 2010.05.17/outbox.cif.g08.bks.cpg/sg53_14_cif.got.tgz:27061.got - 2010.06.03 12:45:16.
