data_PCOD9414071
_publ_section_title
;
Structure prediction by ZEFSAII (Michael W. Deem and Ramdas Pophale) SiO2 
 PCOD9414071
Probable space group: P M N A
;
_chemical_formula_sum "Si O2"
_cell_formula_units_Z 48
_cell_length_a 8.992248
_cell_length_b 7.343781
_cell_length_c 33.093769
_cell_angle_alpha 90.000000
_cell_angle_beta 90.000000
_cell_angle_gamma 90.000000
_cell_volume 2185.416533
_symmetry_space_group_name_H-M "P M N A"
_symmetry_group_IT_number 53
_symmetry_cell_setting 'orthorhombic'
loop_
_space_group_symop_operation_xyz
x,y,z
1/2-x,-y,1/2+z
x,-y,-z
1/2-x,y,1/2-z
-x,-y,-z
1/2+x,y,1/2-z
-x,y,z
1/2+x,-y,1/2+z
loop_
_atom_site_type_symbol
_atom_site_label
_atom_site_fract_x
_atom_site_fract_y
_atom_site_fract_z
Si Si1 0.828356 0.043875 0.873288
Si Si2 0.167203 0.528568 0.456742
Si Si3 0.669840 0.963205 0.045128
Si Si4 0.319659 0.530204 0.289822
Si Si5 0.821642 0.936617 0.290890
Si Si6 0.670159 0.489161 0.622404
O O1 0.763261 0.976577 0.915979
O O2 0.734549 0.987990 0.833891
O O3 0.824680 0.266770 0.875400
O O4 0.000000 0.991772 0.867987
O O5 0.244392 0.500000 0.500000
O O6 0.160711 0.745138 0.451543
O O7 0.239710 0.451964 0.416556
O O8 0.000000 0.455137 0.459955
O O9 0.500000 0.033536 0.046772
O O10 0.730198 0.000000 0.000000
O O11 0.250000 0.441021 0.250000
O O12 0.500000 0.546778 0.287025
O O13 0.242948 0.729563 0.291281
O O14 0.282473 0.444449 0.333275
O O15 0.750000 0.017942 0.250000
O O16 0.000000 0.936585 0.288341
O O17 0.500000 0.540683 0.616404
#
# Coordination Sequence:
#
# PCOD9414071 Si02
#       6
#     8   8   8   8   8   8
#     4   9  16  26  38  54  77 104 135 169 205 245
#     4   9  17  28  42  60  81 106 137 171 204 240
#     4   9  17  29  44  61  82 109 139 170 206 248
#     4   9  15  22  32  49  73 101 133 165 199 241
#     4  10  16  22  33  50  74 104 136 167 202 244
#     4   8  15  25  36  52  75 103 133 164 199 241
#
# _framework density 21.963775999999999
#
# number of rings (size 3 to 8) (size 9 to 14) (size 15 to 20)
#    0.000    3.000    0.000    4.500    0.000    5.333 
#    0.000    0.000    0.000    0.000    0.000    0.000 
#    0.000    1.333    0.000    5.667    0.000    6.500 
#
# Total GULP energy -267647.420751 kJ/mol
# GULP energy per Si atom -5575.987932 kJ/mol
# Density = 2.191379 g / cm^3
# Si number density = 21.963776 Si / 1000 Ang^3
#
#
#
# Elastic Constant Matrix: (Units=GPa)
#
#
# Indices 1 2 3 4 5 6 
#
# 1 116.7834 9.7855 116.1144 0.0000 0.0000 0.0000
# 2 9.7855 74.0359 -0.0943 0.0000 0.0000 0.0000
# 3 116.1144 -0.0943 271.9650 0.0000 0.0000 0.0000
# 4 0.0000 0.0000 0.0000 6.7402 0.0000 0.0000
# 5 0.0000 0.0000 0.0000 0.0000 44.2782 0.0000
# 6 0.0000 0.0000 0.0000 0.0000 0.0000 -5.8239
#
#
#
# Elastic Compliance Matrix: (Units=1/GPa)
#
#
# Indices 1 2 3 4 5 6 
#
# 1 0.015173 -0.002014 -0.006479 0.000000 0.000000 0.000000
# 2 -0.002014 0.013774 0.000865 0.000000 0.000000 0.000000
# 3 -0.006479 0.000865 0.006443 0.000000 0.000000 0.000000
# 4 0.000000 0.000000 0.000000 0.148363 0.000000 0.000000
# 5 0.000000 0.000000 0.000000 0.000000 0.022584 0.000000
# 6 0.000000 0.000000 0.000000 0.000000 0.000000 -0.171707
#
#
# Mechanical properties :
#
#
# Convention : Reuss Voigt Hill
#
# Bulk Modulus (GPa) = 49.66539 79.37727 64.52133
# Shear Modulus (GPa) = 88.34079 31.50417 59.92248
#
# Velocity S-wave (km/s) = 6.34889 3.79142 5.22892
# Velocity P-wave (km/s) = 8.74106 7.44211 8.11761
#
# Compressibility (1/GPa) = 0.02013475
#
# Stress axis : x y z
#
# Youngs Moduli (GPa) = 65.90474 72.59937 155.19764
#
# Poissons Ratio (x) = 0.14620 1.00551
# Poissons Ratio (y) = 0.13272 -0.13418
# Poissons Ratio (z) = 0.42699 -0.06277
#
# Static dielectric constant tensor:
#      x y z
#    x 1.753180 0.000000 0.000000 
#    y 0.000000 1.993360 0.000000 
#    z 0.000000 0.000000 1.862730 
# 
# From -- ./inp_files/37913.got.cif
#   From: 2010.05.17/outbox.cif.g08.bks.cpg/sg53_19_cif.got.tgz:37913.got - 2010.06.03 12:45:16.
