data_PCOD9414984
_publ_section_title
;
Structure prediction by ZEFSAII (Michael W. Deem and Ramdas Pophale) SiO2 
 PCOD9414984
Probable space group: P M N A
;
_chemical_formula_sum "Si O2"
_cell_formula_units_Z 52
_cell_length_a 9.169281
_cell_length_b 12.110219
_cell_length_c 25.699742
_cell_angle_alpha 90.000000
_cell_angle_beta 90.000000
_cell_angle_gamma 90.000000
_cell_volume 2853.750776
_symmetry_space_group_name_H-M "P M N A"
_symmetry_group_IT_number 53
_symmetry_cell_setting 'orthorhombic'
loop_
_space_group_symop_operation_xyz
x,y,z
1/2-x,-y,1/2+z
x,-y,-z
1/2-x,y,1/2-z
-x,-y,-z
1/2+x,y,1/2-z
-x,y,z
1/2+x,-y,1/2+z
loop_
_atom_site_type_symbol
_atom_site_label
_atom_site_fract_x
_atom_site_fract_y
_atom_site_fract_z
Si Si1 0.673154 0.169919 0.632160
Si Si2 0.326653 0.877431 0.023834
Si Si3 0.323500 0.360697 0.805139
Si Si4 0.750000 0.227025 0.250000
Si Si5 0.836677 0.069840 0.159420
Si Si6 0.675645 0.774490 0.917656
Si Si7 0.332083 0.602227 0.837953
O O1 0.500000 0.193652 0.632289
O O2 0.730827 0.140557 0.574706
O O3 0.765087 0.271145 0.654385
O O4 0.697822 0.058882 0.666456
O O5 0.500000 0.863820 0.035674
O O6 0.283670 0.794155 0.977234
O O7 0.309139 0.000000 0.000000
O O8 0.250000 0.335296 0.750000
O O9 0.500000 0.358714 0.801160
O O10 0.271374 0.484049 0.821534
O O11 0.833104 0.143709 0.211381
O O12 0.672218 0.310851 0.209885
O O13 0.728593 0.124163 0.117925
O O14 0.000000 0.075143 0.137219
O O15 0.500000 0.773112 0.915957
O O16 0.733583 0.665985 0.887641
O O17 0.500000 0.580364 0.850934
#
# Coordination Sequence:
#
# PCOD9414984 Si02
#       7
#     8   8   8   4   8   8   8
#     4  11  24  39  55  83 118 155 195 232 281 338
#     4  10  19  35  59  86 114 151 191 231 286 343
#     4  11  23  41  61  83 112 151 193 232 280 334
#     4  10  18  34  54  80 114 144 184 224 290 338
#     4  10  21  34  52  82 115 146 183 229 282 336
#     4   9  18  34  58  86 115 144 183 230 283 341
#     4   9  18  34  57  83 109 143 186 232 280 336
#
# _framework density 18.221632
#
# number of rings (size 3 to 8) (size 9 to 14) (size 15 to 20)
#    0.000    2.000    2.308    1.385    1.077    2.154 
#    0.000    1.538    0.000    4.615    0.000    0.000 
#    0.000    0.000    0.000    0.000    0.000    0.000 
#
# Total GULP energy -289746.730627 kJ/mol
# GULP energy per Si atom -5572.052512 kJ/mol
# Density = 1.818016 g / cm^3
# Si number density = 18.221632 Si / 1000 Ang^3
#
#
#
# Elastic Constant Matrix: (Units=GPa)
#
#
# Indices 1 2 3 4 5 6 
#
# 1 46.7090 31.9175 27.3430 0.0000 0.0000 0.0000
# 2 31.9175 97.0280 56.9898 0.0000 0.0000 0.0000
# 3 27.3430 56.9898 73.0476 0.0000 0.0000 0.0000
# 4 0.0000 0.0000 0.0000 26.7857 0.0000 0.0000
# 5 0.0000 0.0000 0.0000 0.0000 24.5300 0.0000
# 6 0.0000 0.0000 0.0000 0.0000 0.0000 0.6876
#
#
#
# Elastic Compliance Matrix: (Units=1/GPa)
#
#
# Indices 1 2 3 4 5 6 
#
# 1 0.029118 -0.005864 -0.006325 0.000000 0.000000 0.000000
# 2 -0.005864 0.020204 -0.013568 0.000000 0.000000 0.000000
# 3 -0.006325 -0.013568 0.026643 0.000000 0.000000 0.000000
# 4 0.000000 0.000000 0.000000 0.037333 0.000000 0.000000
# 5 0.000000 0.000000 0.000000 0.000000 0.040766 0.000000
# 6 0.000000 0.000000 0.000000 0.000000 0.000000 1.454359
#
#
# Mechanical properties :
#
#
# Convention : Reuss Voigt Hill
#
# Bulk Modulus (GPa) = 40.89590 49.92058 45.40824
# Shear Modulus (GPa) = 2.99744 17.10295 10.05020
#
# Velocity S-wave (km/s) = 1.28396 3.06699 2.35106
# Velocity P-wave (km/s) = 4.96894 6.32438 5.68718
#
# Compressibility (1/GPa) = 0.02445233
#
# Stress axis : x y z
#
# Youngs Moduli (GPa) = 34.34246 49.49416 37.53371
#
# Poissons Ratio (x) = 0.29021 0.23740
# Poissons Ratio (y) = 0.20137 0.50926
# Poissons Ratio (z) = 0.21721 0.67154
#
# Static dielectric constant tensor:
#      x y z
#    x 1.626680 0.000000 0.000000 
#    y 0.000000 1.653700 0.000000 
#    z 0.000000 0.000000 1.626130 
# 
# From -- ./inp_files/36236.got.cif
#   From: 2010.05.17/outbox.cif.g08.bks.cpg/sg53_19_cif.got.tgz:36236.got - 2010.06.03 12:45:16.
