data_PCOD9414856
_publ_section_title
;
Structure prediction by ZEFSAII (Michael W. Deem and Ramdas Pophale) SiO2 
 PCOD9414856
Probable space group: P M N A
;
_chemical_formula_sum "Si O2"
_cell_formula_units_Z 64
_cell_length_a 8.779908
_cell_length_b 20.640010
_cell_length_c 19.665201
_cell_angle_alpha 90.000000
_cell_angle_beta 90.000000
_cell_angle_gamma 90.000000
_cell_volume 3563.676378
_symmetry_space_group_name_H-M "P M N A"
_symmetry_group_IT_number 53
_symmetry_cell_setting 'orthorhombic'
loop_
_space_group_symop_operation_xyz
x,y,z
1/2-x,-y,1/2+z
x,-y,-z
1/2-x,y,1/2-z
-x,-y,-z
1/2+x,y,1/2-z
-x,y,z
1/2+x,-y,1/2+z
loop_
_atom_site_type_symbol
_atom_site_label
_atom_site_fract_x
_atom_site_fract_y
_atom_site_fract_z
Si Si1 0.317801 0.146424 0.445527
Si Si2 0.174771 0.986837 0.581492
Si Si3 0.680667 0.760777 0.176306
Si Si4 0.683362 0.405696 0.325304
Si Si5 0.317827 0.516979 0.078660
Si Si6 0.315059 0.708370 0.576673
Si Si7 0.820609 0.119584 0.894307
Si Si8 0.683246 0.657474 0.427895
O O1 0.500000 0.141590 0.436128
O O2 0.239801 0.085170 0.409937
O O3 0.263726 0.217018 0.421223
O O4 0.290989 0.140130 0.526928
O O5 0.000000 0.991199 0.603713
O O6 0.178883 0.000000 0.500000
O O7 0.272834 0.044827 0.612981
O O8 0.750000 0.747676 0.250000
O O9 0.500000 0.752586 0.176807
O O10 0.725277 0.833107 0.153190
O O11 0.756211 0.712427 0.122222
O O12 0.750000 0.410057 0.250000
O O13 0.500000 0.407724 0.323151
O O14 0.743142 0.464276 0.371998
O O15 0.731696 0.338761 0.362440
O O16 0.500000 0.516385 0.087236
O O17 0.252068 0.588273 0.091546
O O18 0.282754 0.500000 0.000000
O O19 0.500000 0.710351 0.576262
O O20 0.269574 0.676479 0.504788
O O21 0.000000 0.128218 0.881651
O O22 0.500000 0.655089 0.425649
#
# Coordination Sequence:
#
# PCOD9414856 Si02
#       8
#     8   8   8   8   8   8   8   8
#     4   9  16  30  52  80 109 144 189 236 285 344
#     4   9  17  28  44  75 113 145 181 233 288 337
#     4  12  25  40  57  82 116 155 196 243 295 352
#     4  11  23  41  63  89 120 158 196 238 290 348
#     4  11  23  39  61  92 123 153 193 242 291 345
#     4   9  18  34  59  86 115 151 192 235 290 350
#     4  10  18  32  54  78 108 148 191 238 290 346
#     4  11  21  39  63  88 115 151 195 240 291 352
#
# _framework density 17.958983
#
# number of rings (size 3 to 8) (size 9 to 14) (size 15 to 20)
#    0.000    1.750    2.500    3.000    0.000    3.000 
#    0.000    3.750    0.000    0.750    0.000    3.500 
#    0.000    0.000    0.000    0.000    0.000    0.000 
#
# Total GULP energy -357383.340284 kJ/mol
# GULP energy per Si atom -5584.114692 kJ/mol
# Density = 1.791811 g / cm^3
# Si number density = 17.958983 Si / 1000 Ang^3
#
#
#
# Elastic Constant Matrix: (Units=GPa)
#
#
# Indices 1 2 3 4 5 6 
#
# 1 59.0594 31.3938 39.0875 0.0000 0.0000 0.0000
# 2 31.3938 150.5961 50.1720 0.0000 0.0000 0.0000
# 3 39.0875 50.1720 95.4324 0.0000 0.0000 0.0000
# 4 0.0000 0.0000 0.0000 12.7064 0.0000 0.0000
# 5 0.0000 0.0000 0.0000 0.0000 18.3819 0.0000
# 6 0.0000 0.0000 0.0000 0.0000 0.0000 28.5507
#
#
#
# Elastic Compliance Matrix: (Units=1/GPa)
#
#
# Indices 1 2 3 4 5 6 
#
# 1 0.023751 -0.002073 -0.008638 0.000000 0.000000 0.000000
# 2 -0.002073 0.008231 -0.003478 0.000000 0.000000 0.000000
# 3 -0.008638 -0.003478 0.015845 0.000000 0.000000 0.000000
# 4 0.000000 0.000000 0.000000 0.078700 0.000000 0.000000
# 5 0.000000 0.000000 0.000000 0.000000 0.054401 0.000000
# 6 0.000000 0.000000 0.000000 0.000000 0.000000 0.035025
#
#
# Mechanical properties :
#
#
# Convention : Reuss Voigt Hill
#
# Bulk Modulus (GPa) = 51.41819 60.71050 56.06434
# Shear Modulus (GPa) = 19.93484 24.22343 22.07913
#
# Velocity S-wave (km/s) = 3.33531 3.67661 3.51011
# Velocity P-wave (km/s) = 6.59738 7.20429 6.90750
#
# Compressibility (1/GPa) = 0.01944837
#
# Stress axis : x y z
#
# Youngs Moduli (GPa) = 42.10310 121.48736 63.11049
#
# Poissons Ratio (x) = 0.25190 0.54515
# Poissons Ratio (y) = 0.08730 0.21951
# Poissons Ratio (z) = 0.36369 0.42256
#
# Static dielectric constant tensor:
#      x y z
#    x 1.597990 0.000000 0.000000 
#    y 0.000000 1.614030 0.000000 
#    z 0.000000 0.000000 1.597010 
# 
# From -- ./inp_files/31344.got.cif
#   From: 2010.05.17/outbox.cif.g08.bks.cpg/sg53_16_cif.got.tgz:31344.got - 2010.06.03 12:45:16.
