data_PCOD9414031
_publ_section_title
;
Structure prediction by ZEFSAII (Michael W. Deem and Ramdas Pophale) SiO2 
 PCOD9414031
Probable space group: P N N A
;
_chemical_formula_sum "Si O2"
_cell_formula_units_Z 48
_cell_length_a 15.000000
_cell_length_b 18.000000
_cell_length_c 9.000000
_cell_angle_alpha 90.000000
_cell_angle_beta 90.000000
_cell_angle_gamma 90.000000
_cell_volume 2430.000000
_symmetry_space_group_name_H-M "P N N A"
_symmetry_group_IT_number 52
_symmetry_cell_setting 'orthorhombic'
loop_
_space_group_symop_operation_xyz
x,y,z
1/2-x,-y,z
x,1/2-y,1/2-z
1/2-x,1/2+y,1/2-z
-x,-y,-z
1/2+x,y,-z
-x,1/2+y,1/2+z
1/2+x,1/2-y,1/2+z
loop_
_atom_site_type_symbol
_atom_site_label
_atom_site_fract_x
_atom_site_fract_y
_atom_site_fract_z
Si Si1 0.621626 0.674692 0.185945
Si Si2 0.594389 0.824450 0.663294
Si Si3 0.300085 0.664607 0.198387
Si Si4 0.958520 0.564618 0.298257
Si Si5 0.283420 0.579059 0.898121
Si Si6 0.035606 0.401489 0.360253
O O1 0.661737 0.750000 0.250000
O O2 0.697695 0.612394 0.185883
O O3 0.535846 0.653980 0.284779
O O4 0.597296 0.686715 0.013496
O O5 0.567699 0.750000 0.750000
O O6 0.693874 0.845088 0.720143
O O7 0.526620 0.889321 0.698595
O O8 0.318707 0.750000 0.250000
O O9 0.367539 0.614472 0.292063
O O10 0.311786 0.637874 0.026626
O O11 0.863782 0.565362 0.215689
O O12 0.957279 0.601511 0.461777
O O13 0.997418 0.482260 0.318290
O O14 0.250000 0.500000 0.964678
#
# Coordination Sequence:
#
# PCOD9414031 Si02
#       6
#     8   8   8   8   8   8
#     4  11  23  41  68  95 131 172 216 271 326 389
#     4  10  23  42  65  96 129 168 218 268 327 392
#     4  10  24  43  66  97 127 166 220 270 329 389
#     4  11  25  41  63  96 133 174 216 268 326 391
#     4  11  24  44  68  99 131 175 223 274 330 397
#     4  11  24  41  64  96 134 171 217 268 328 385
#
# _framework density 19.753086
#
# number of rings (size 3 to 8) (size 9 to 14) (size 15 to 20)
#    0.000    1.333    1.667    2.500    4.667    8.667 
#    0.000    0.000    0.000    0.000    0.000    0.000 
#    0.000    0.000    0.000    0.000    0.000    0.000 
#
# Total GULP energy -268089.054473 kJ/mol
# GULP energy per Si atom -5585.188635 kJ/mol
# Density = 1.970813 g / cm^3
# Si number density = 19.753086 Si / 1000 Ang^3
#
#
#
# Elastic Constant Matrix: (Units=GPa)
#
#
# Indices 1 2 3 4 5 6 
#
# 1 56.3240 32.7487 46.9029 0.0000 0.0000 0.0000
# 2 32.7487 74.7325 41.9693 0.0000 0.0000 0.0000
# 3 46.9029 41.9693 102.4258 0.0000 0.0000 0.0000
# 4 0.0000 0.0000 0.0000 32.4294 0.0000 0.0000
# 5 0.0000 0.0000 0.0000 0.0000 22.3068 0.0000
# 6 0.0000 0.0000 0.0000 0.0000 0.0000 32.3159
#
#
#
# Elastic Compliance Matrix: (Units=1/GPa)
#
#
# Indices 1 2 3 4 5 6 
#
# 1 0.031581 -0.007427 -0.011419 0.000000 0.000000 0.000000
# 2 -0.007427 0.019127 -0.004437 0.000000 0.000000 0.000000
# 3 -0.011419 -0.004437 0.016810 0.000000 0.000000 0.000000
# 4 0.000000 0.000000 0.000000 0.030836 0.000000 0.000000
# 5 0.000000 0.000000 0.000000 0.000000 0.044829 0.000000
# 6 0.000000 0.000000 0.000000 0.000000 0.000000 0.030945
#
#
# Mechanical properties :
#
#
# Convention : Reuss Voigt Hill
#
# Bulk Modulus (GPa) = 47.72241 52.96935 50.34588
# Shear Modulus (GPa) = 21.96097 24.86785 23.41441
#
# Velocity S-wave (km/s) = 3.33794 3.55200 3.44663
# Velocity P-wave (km/s) = 6.25042 6.61031 6.43288
#
# Compressibility (1/GPa) = 0.02095451
#
# Stress axis : x y z
#
# Youngs Moduli (GPa) = 31.66442 52.28197 59.48894
#
# Poissons Ratio (x) = 0.38828 0.67928
# Poissons Ratio (y) = 0.23516 0.26393
# Poissons Ratio (z) = 0.36156 0.23195
#
# Static dielectric constant tensor:
#      x y z
#    x 1.661960 0.000000 0.000000 
#    y 0.000000 1.714760 0.000000 
#    z 0.000000 0.000000 1.674220 
# 
# From -- ./inp_files/10477.got.cif
#   From: 2010.05.17/outbox.ucp.g08.bks.cvg/sg52_6_cif.got.tgz:10477.got - 2010.06.11 16:30:12.
