data_PCOD9414370
_publ_section_title
;
Structure prediction by ZEFSAII (Michael W. Deem and Ramdas Pophale) SiO2 
 PCOD9414370
Probable space group: P M N A
;
_chemical_formula_sum "Si O2"
_cell_formula_units_Z 40
_cell_length_a 7.395039
_cell_length_b 14.377635
_cell_length_c 18.787099
_cell_angle_alpha 90.000000
_cell_angle_beta 90.000000
_cell_angle_gamma 90.000000
_cell_volume 1997.503950
_symmetry_space_group_name_H-M "P M N A"
_symmetry_group_IT_number 53
_symmetry_cell_setting 'orthorhombic'
loop_
_space_group_symop_operation_xyz
x,y,z
1/2-x,-y,1/2+z
x,-y,-z
1/2-x,y,1/2-z
-x,-y,-z
1/2+x,y,1/2-z
-x,y,z
1/2+x,-y,1/2+z
loop_
_atom_site_type_symbol
_atom_site_label
_atom_site_fract_x
_atom_site_fract_y
_atom_site_fract_z
Si Si1 0.220111 0.204864 0.461905
Si Si2 0.716173 0.081985 0.167043
Si Si3 0.715035 0.311218 0.829492
Si Si4 0.720493 0.117053 0.889023
Si Si5 0.779027 0.600446 0.474127
O O1 0.282527 0.159946 0.388214
O O2 0.271832 0.140543 0.529544
O O3 0.276838 0.310466 0.478684
O O4 0.000000 0.206224 0.461748
O O5 0.750000 0.098950 0.250000
O O6 0.500000 0.079300 0.158585
O O7 0.784561 0.980652 0.142024
O O8 0.750000 0.343511 0.750000
O O9 0.500000 0.306305 0.838174
O O10 0.781684 0.205866 0.842794
O O11 0.780197 0.375678 0.893743
O O12 0.500000 0.114796 0.887812
O O13 0.717185 0.500000 0.500000
O O14 0.000000 0.598886 0.475357
#
# Coordination Sequence:
#
# PCOD9414370 Si02
#       5
#     8   8   8   8   8
#     4   8  14  25  42  61  78 103 141 175 199 231
#     4  10  18  27  41  61  86 112 136 165 200 239
#     4   9  16  26  42  64  86 105 130 168 209 244
#     4   8  14  25  42  62  81 105 139 172 198 231
#     4   8  14  26  44  63  81 104 138 175 204 234
#
# _framework density 20.024991
#
# number of rings (size 3 to 8) (size 9 to 14) (size 15 to 20)
#    0.000    3.400    0.000    3.600    0.000    2.400 
#    0.000    1.000    0.000    7.800    0.000    0.000 
#    0.000    0.000    0.000    0.000    0.000    0.000 
#
# Total GULP energy -223078.133729 kJ/mol
# GULP energy per Si atom -5576.953343 kJ/mol
# Density = 1.997941 g / cm^3
# Si number density = 20.024991 Si / 1000 Ang^3
#
#
#
# Elastic Constant Matrix: (Units=GPa)
#
#
# Indices 1 2 3 4 5 6 
#
# 1 65.4962 5.8665 -0.3623 0.0000 0.0000 0.0000
# 2 5.8665 154.1006 125.4751 0.0000 0.0000 0.0000
# 3 -0.3623 125.4751 186.8569 0.0000 0.0000 0.0000
# 4 0.0000 0.0000 0.0000 17.9502 0.0000 0.0000
# 5 0.0000 0.0000 0.0000 0.0000 17.9435 0.0000
# 6 0.0000 0.0000 0.0000 0.0000 0.0000 -10.0324
#
#
#
# Elastic Compliance Matrix: (Units=1/GPa)
#
#
# Indices 1 2 3 4 5 6 
#
# 1 0.015394 -0.001347 0.000934 0.000000 0.000000 0.000000
# 2 -0.001347 0.014435 -0.009696 0.000000 0.000000 0.000000
# 3 0.000934 -0.009696 0.011864 0.000000 0.000000 0.000000
# 4 0.000000 0.000000 0.000000 0.055710 0.000000 0.000000
# 5 0.000000 0.000000 0.000000 0.000000 0.055730 0.000000
# 6 0.000000 0.000000 0.000000 0.000000 0.000000 -0.099677
#
#
# Mechanical properties :
#
#
# Convention : Reuss Voigt Hill
#
# Bulk Modulus (GPa) = 46.56232 74.26802 60.41517
# Shear Modulus (GPa) = 61.85617 23.53723 42.69670
#
# Velocity S-wave (km/s) = 5.56386 3.43212 4.62255
# Velocity P-wave (km/s) = 8.03604 7.27146 7.66329
#
# Compressibility (1/GPa) = 0.02147659
#
# Stress axis : x y z
#
# Youngs Moduli (GPa) = 64.96097 69.27370 84.28530
#
# Poissons Ratio (x) = 0.09329 -0.07873
# Poissons Ratio (y) = 0.08748 0.81724
# Poissons Ratio (z) = -0.06068 0.67168
#
# Static dielectric constant tensor:
#      x y z
#    x 1.789900 0.000000 0.000000 
#    y 0.000000 1.683030 0.000000 
#    z 0.000000 0.000000 1.705140 
# 
# From -- ./inp_files/14813.got.cif
#   From: 2010.05.17/outbox.cif.g08.bks.cpg/sg53_8_cif.got.tgz:14813.got - 2010.06.03 12:45:16.
