data_PCOD9414567
_publ_section_title
;
Structure prediction by ZEFSAII (Michael W. Deem and Ramdas Pophale) SiO2 
 PCOD9414567
Probable space group: P M N A
;
_chemical_formula_sum "Si O2"
_cell_formula_units_Z 56
_cell_length_a 8.712162
_cell_length_b 13.866858
_cell_length_c 29.390713
_cell_angle_alpha 90.000000
_cell_angle_beta 90.000000
_cell_angle_gamma 90.000000
_cell_volume 3550.701246
_symmetry_space_group_name_H-M "P M N A"
_symmetry_group_IT_number 53
_symmetry_cell_setting 'orthorhombic'
loop_
_space_group_symop_operation_xyz
x,y,z
1/2-x,-y,1/2+z
x,-y,-z
1/2-x,y,1/2-z
-x,-y,-z
1/2+x,y,1/2-z
-x,y,z
1/2+x,-y,1/2+z
loop_
_atom_site_type_symbol
_atom_site_label
_atom_site_fract_x
_atom_site_fract_y
_atom_site_fract_z
Si Si1 0.684146 0.706595 0.030112
Si Si2 0.683222 0.500006 0.298783
Si Si3 0.686062 0.725199 0.701019
Si Si4 0.820207 0.800410 0.892366
Si Si5 0.313621 0.105907 0.482943
Si Si6 0.682558 0.422705 0.889662
Si Si7 0.820934 0.597914 0.945922
O O1 0.500000 0.707299 0.026297
O O2 0.726558 0.670810 0.080567
O O3 0.750118 0.809614 0.015136
O O4 0.750614 0.629260 0.994021
O O5 0.750000 0.529622 0.250000
O O6 0.500000 0.502186 0.297173
O O7 0.730005 0.387482 0.306343
O O8 0.740839 0.563093 0.340819
O O9 0.750000 0.754778 0.750000
O O10 0.500000 0.728154 0.701688
O O11 0.743903 0.788355 0.658383
O O12 0.757497 0.870965 0.931434
O O13 0.813246 0.694222 0.914973
O O14 0.000000 0.825361 0.886999
O O15 0.500000 0.113598 0.482854
O O16 0.271307 0.000000 0.500000
O O17 0.500000 0.423112 0.884040
O O18 0.732262 0.513580 0.920523
O O19 0.000000 0.572054 0.950788
#
# Coordination Sequence:
#
# PCOD9414567 Si02
#       7
#     8   8   8   8   8   8   8
#     4  10  21  33  45  67  96 125 156 193 238 286
#     4  10  19  31  46  65  91 126 166 199 233 276
#     4   9  16  27  41  61  89 121 154 186 222 267
#     4   8  14  27  44  64  91 119 148 187 232 277
#     4   9  18  33  53  73  91 116 155 200 244 294
#     4  11  21  31  44  65  96 129 162 197 234 278
#     4  10  18  30  46  65  92 127 163 195 231 274
#
# _framework density 15.771532000000001
#
# number of rings (size 3 to 8) (size 9 to 14) (size 15 to 20)
#    0.000    2.429    1.429    3.000    0.000    4.857 
#    0.000    0.714    0.000    0.000    0.000    1.000 
#    0.000    4.571    0.000    0.000    0.000    0.000 
#
# Total GULP energy -312121.781781 kJ/mol
# GULP energy per Si atom -5573.603246 kJ/mol
# Density = 1.573564 g / cm^3
# Si number density = 15.771532 Si / 1000 Ang^3
#
#
#
# Elastic Constant Matrix: (Units=GPa)
#
#
# Indices 1 2 3 4 5 6 
#
# 1 25.4335 15.7588 34.0146 0.0000 0.0000 0.0000
# 2 15.7588 53.5078 61.9260 0.0000 0.0000 0.0000
# 3 34.0146 61.9260 162.8107 0.0000 0.0000 0.0000
# 4 0.0000 0.0000 0.0000 18.4473 0.0000 0.0000
# 5 0.0000 0.0000 0.0000 0.0000 26.7716 0.0000
# 6 0.0000 0.0000 0.0000 0.0000 0.0000 4.1871
#
#
#
# Elastic Compliance Matrix: (Units=1/GPa)
#
#
# Indices 1 2 3 4 5 6 
#
# 1 0.055367 -0.005215 -0.009584 0.000000 0.000000 0.000000
# 2 -0.005215 0.033876 -0.011795 0.000000 0.000000 0.000000
# 3 -0.009584 -0.011795 0.012631 0.000000 0.000000 0.000000
# 4 0.000000 0.000000 0.000000 0.054209 0.000000 0.000000
# 5 0.000000 0.000000 0.000000 0.000000 0.037353 0.000000
# 6 0.000000 0.000000 0.000000 0.000000 0.000000 0.238830
#
#
# Mechanical properties :
#
#
# Convention : Reuss Voigt Hill
#
# Bulk Modulus (GPa) = 20.54005 51.68343 36.11174
# Shear Modulus (GPa) = 9.96651 18.55137 14.25894
#
# Velocity S-wave (km/s) = 2.51655 3.43338 3.01008
# Velocity P-wave (km/s) = 4.63636 6.96841 5.91838
#
# Compressibility (1/GPa) = 0.04868536
#
# Stress axis : x y z
#
# Youngs Moduli (GPa) = 18.06145 29.51965 79.17153
#
# Poissons Ratio (x) = 0.15394 0.75876
# Poissons Ratio (y) = 0.09418 0.93386
# Poissons Ratio (z) = 0.17310 0.34820
#
# Static dielectric constant tensor:
#      x y z
#    x 1.529790 0.000000 0.000000 
#    y 0.000000 1.508490 0.000000 
#    z 0.000000 0.000000 1.552240 
# 
# From -- ./inp_files/38381.got.cif
#   From: 2010.05.17/outbox.cif.g08.bks.cpg/sg53_20_cif.got.tgz:38381.got - 2010.06.03 12:45:16.
