data_PCOD9414578
_publ_section_title
;
Structure prediction by ZEFSAII (Michael W. Deem and Ramdas Pophale) SiO2 
 PCOD9414578
Probable space group: P M N A
;
_chemical_formula_sum "Si O2"
_cell_formula_units_Z 56
_cell_length_a 7.747233
_cell_length_b 16.302751
_cell_length_c 20.123701
_cell_angle_alpha 90.000000
_cell_angle_beta 90.000000
_cell_angle_gamma 90.000000
_cell_volume 2541.647797
_symmetry_space_group_name_H-M "P M N A"
_symmetry_group_IT_number 53
_symmetry_cell_setting 'orthorhombic'
loop_
_space_group_symop_operation_xyz
x,y,z
1/2-x,-y,1/2+z
x,-y,-z
1/2-x,y,1/2-z
-x,-y,-z
1/2+x,y,1/2-z
-x,y,z
1/2+x,-y,1/2+z
loop_
_atom_site_type_symbol
_atom_site_label
_atom_site_fract_x
_atom_site_fract_y
_atom_site_fract_z
Si Si1 0.711847 0.247713 0.530816
Si Si2 0.708172 0.017761 0.674106
Si Si3 0.290099 0.418998 0.464339
Si Si4 0.692840 0.212424 0.178146
Si Si5 0.292979 0.205959 0.675957
Si Si6 0.692934 0.890515 0.564946
Si Si7 0.296091 0.396647 0.317745
O O1 0.500000 0.245341 0.527424
O O2 0.768625 0.330047 0.491709
O O3 0.763599 0.250883 0.608339
O O4 0.771112 0.161788 0.496230
O O5 0.750000 0.990705 0.750000
O O6 0.500000 0.015336 0.669198
O O7 0.770526 0.964153 0.610358
O O8 0.770120 0.111666 0.670651
O O9 0.224887 0.500000 0.500000
O O10 0.500000 0.416674 0.470906
O O11 0.249945 0.434312 0.387476
O O12 0.750000 0.182715 0.250000
O O13 0.500000 0.184965 0.162827
O O14 0.814957 0.180237 0.121066
O O15 0.700084 0.309858 0.182302
O O16 0.250000 0.237572 0.750000
O O17 0.500000 0.203084 0.673051
O O18 0.500000 0.916297 0.544295
O O19 0.250000 0.442336 0.250000
O O20 0.500000 0.379598 0.317378
#
# Coordination Sequence:
#
# PCOD9414578 Si02
#       7
#     8   8   8   8   8   8   8
#     4   9  17  31  52  75 100 129 167 209 253 303
#     4   9  18  30  47  71 100 133 170 208 248 292
#     4   9  17  31  53  79 103 131 168 210 253 302
#     4  11  20  29  44  68 100 136 170 200 238 290
#     4   9  18  34  54  74  97 130 169 213 256 297
#     4  10  18  30  47  71 101 130 166 207 248 296
#     4  10  18  31  51  74 102 133 169 206 248 300
#
# _framework density 22.032951000000001
#
# number of rings (size 3 to 8) (size 9 to 14) (size 15 to 20)
#    0.000    2.429    1.429    3.000    0.000    2.286 
#    0.000    4.286    0.000    1.714    0.000    5.000 
#    0.000    0.000    0.000    0.000    0.000    0.000 
#
# Total GULP energy -312022.888632 kJ/mol
# GULP energy per Si atom -5571.837297 kJ/mol
# Density = 2.198280 g / cm^3
# Si number density = 22.032951 Si / 1000 Ang^3
#
#
#
# Elastic Constant Matrix: (Units=GPa)
#
#
# Indices 1 2 3 4 5 6 
#
# 1 52.5153 4.7738 9.9981 0.0000 0.0000 0.0000
# 2 4.7738 51.2954 46.1413 0.0000 0.0000 0.0000
# 3 9.9981 46.1413 175.1825 0.0000 0.0000 0.0000
# 4 0.0000 0.0000 0.0000 -57.3380 0.0000 0.0000
# 5 0.0000 0.0000 0.0000 0.0000 17.7586 0.0000
# 6 0.0000 0.0000 0.0000 0.0000 0.0000 4.2533
#
#
#
# Elastic Compliance Matrix: (Units=1/GPa)
#
#
# Indices 1 2 3 4 5 6 
#
# 1 0.019295 -0.001055 -0.000823 0.000000 0.000000 0.000000
# 2 -0.001055 0.025606 -0.006684 0.000000 0.000000 0.000000
# 3 -0.000823 -0.006684 0.007516 0.000000 0.000000 0.000000
# 4 0.000000 0.000000 0.000000 -0.017440 0.000000 0.000000
# 5 0.000000 0.000000 0.000000 0.000000 0.056311 0.000000
# 6 0.000000 0.000000 0.000000 0.000000 0.000000 0.235111
#
#
# Mechanical properties :
#
#
# Convention : Reuss Voigt Hill
#
# Bulk Modulus (GPa) = 28.33560 44.53550 36.43555
# Shear Modulus (GPa) = 14.07315 7.47345 10.77330
#
# Velocity S-wave (km/s) = 2.53006 1.84372 2.21365
# Velocity P-wave (km/s) = 4.62854 4.97890 4.80691
#
# Compressibility (1/GPa) = 0.03529129
#
# Stress axis : x y z
#
# Youngs Moduli (GPa) = 51.82760 39.05403 133.05249
#
# Poissons Ratio (x) = 0.04121 0.10954
# Poissons Ratio (y) = 0.05468 0.88933
# Poissons Ratio (z) = 0.04267 0.26104
#
# Static dielectric constant tensor:
#      x y z
#    x 1.861330 0.000000 0.000000 
#    y 0.000000 1.800030 0.000000 
#    z 0.000000 0.000000 1.774370 
# 
# From -- ./inp_files/31050.got.cif
#   From: 2010.05.17/outbox.cif.g08.bks.cpg/sg53_16_cif.got.tgz:31050.got - 2010.06.03 12:45:16.
