data_PCOD9414485
_publ_section_title
;
Structure prediction by ZEFSAII (Michael W. Deem and Ramdas Pophale) SiO2 
 PCOD9414485
Probable space group: P M N A
;
_chemical_formula_sum "Si O2"
_cell_formula_units_Z 48
_cell_length_a 8.527751
_cell_length_b 14.183026
_cell_length_c 24.599603
_cell_angle_alpha 90.000000
_cell_angle_beta 90.000000
_cell_angle_gamma 90.000000
_cell_volume 2975.305111
_symmetry_space_group_name_H-M "P M N A"
_symmetry_group_IT_number 53
_symmetry_cell_setting 'orthorhombic'
loop_
_space_group_symop_operation_xyz
x,y,z
1/2-x,-y,1/2+z
x,-y,-z
1/2-x,y,1/2-z
-x,-y,-z
1/2+x,y,1/2-z
-x,y,z
1/2+x,-y,1/2+z
loop_
_atom_site_type_symbol
_atom_site_label
_atom_site_fract_x
_atom_site_fract_y
_atom_site_fract_z
Si Si1 0.187365 0.638998 0.308885
Si Si2 0.690790 0.645796 0.523722
Si Si3 0.689393 0.538923 0.414702
Si Si4 0.688510 0.859580 0.525867
Si Si5 0.689022 0.143244 0.808950
Si Si6 0.811567 0.959750 0.418188
O O1 0.250000 0.608869 0.250000
O O2 0.246135 0.574952 0.357943
O O3 0.240436 0.747909 0.317555
O O4 0.000000 0.638628 0.307887
O O5 0.500000 0.646221 0.523842
O O6 0.738060 0.608557 0.463992
O O7 0.739574 0.565926 0.566797
O O8 0.742523 0.752199 0.534364
O O9 0.500000 0.539943 0.412687
O O10 0.500000 0.863127 0.528102
O O11 0.742382 0.895524 0.466542
O O12 0.756618 0.934504 0.568538
O O13 0.750000 0.112484 0.750000
O O14 0.500000 0.142530 0.807628
O O15 0.739710 0.079681 0.859736
O O16 0.000000 0.955434 0.421387
#
# Coordination Sequence:
#
# PCOD9414485 Si02
#       6
#     8   8   8   8   8   8
#     4  10  19  31  46  68  93 119 149 184 223 267
#     4   8  16  29  47  69  93 119 150 183 222 266
#     4   9  16  30  49  68  91 121 150 183 223 265
#     4  10  18  29  46  69  92 120 154 185 216 264
#     4   9  19  32  47  66  91 119 149 183 224 268
#     4  10  19  31  45  66  94 122 148 184 229 268
#
# _framework density 16.132798999999999
#
# number of rings (size 3 to 8) (size 9 to 14) (size 15 to 20)
#    0.000    2.667    0.000    4.500    0.000    2.000 
#    0.000    4.167    0.000    1.000    0.000    2.333 
#    0.000    0.000    0.000    0.000    0.000    0.000 
#
# Total GULP energy -267605.679218 kJ/mol
# GULP energy per Si atom -5575.118317 kJ/mol
# Density = 1.609608 g / cm^3
# Si number density = 16.132799 Si / 1000 Ang^3
#
#
#
# Elastic Constant Matrix: (Units=GPa)
#
#
# Indices 1 2 3 4 5 6 
#
# 1 25.3862 16.9640 25.2627 0.0000 0.0000 0.0000
# 2 16.9640 123.4199 86.6867 0.0000 0.0000 0.0000
# 3 25.2627 86.6867 155.8548 0.0000 0.0000 0.0000
# 4 0.0000 0.0000 0.0000 22.8762 0.0000 0.0000
# 5 0.0000 0.0000 0.0000 0.0000 26.8922 0.0000
# 6 0.0000 0.0000 0.0000 0.0000 0.0000 171.8467
#
#
#
# Elastic Compliance Matrix: (Units=1/GPa)
#
#
# Indices 1 2 3 4 5 6 
#
# 1 0.047218 -0.001829 -0.006636 0.000000 0.000000 0.000000
# 2 -0.001829 0.013368 -0.007139 0.000000 0.000000 0.000000
# 3 -0.006636 -0.007139 0.011463 0.000000 0.000000 0.000000
# 4 0.000000 0.000000 0.000000 0.043713 0.000000 0.000000
# 5 0.000000 0.000000 0.000000 0.000000 0.037185 0.000000
# 6 0.000000 0.000000 0.000000 0.000000 0.000000 0.005819
#
#
# Mechanical properties :
#
#
# Convention : Reuss Voigt Hill
#
# Bulk Modulus (GPa) = 24.48580 62.49863 43.49221
# Shear Modulus (GPa) = 24.55947 56.03953 40.29950
#
# Velocity S-wave (km/s) = 3.90594 5.90015 5.00341
# Velocity P-wave (km/s) = 5.96259 9.23255 7.77150
#
# Compressibility (1/GPa) = 0.04084000
#
# Stress axis : x y z
#
# Youngs Moduli (GPa) = 21.17856 74.80609 87.24076
#
# Poissons Ratio (x) = 0.13681 0.57896
# Poissons Ratio (y) = 0.03873 0.62279
# Poissons Ratio (z) = 0.14055 0.53403
#
# Static dielectric constant tensor:
#      x y z
#    x 1.552230 0.000000 0.000000 
#    y 0.000000 1.546240 0.000000 
#    z 0.000000 0.000000 1.515430 
# 
# From -- ./inp_files/30505.got.cif
#   From: 2010.05.17/outbox.cif.g08.bks.cpg/sg53_16_cif.got.tgz:30505.got - 2010.06.03 12:45:16.
