data_PCOD9414169
_publ_section_title
;
Structure prediction by ZEFSAII (Michael W. Deem and Ramdas Pophale) SiO2 
 PCOD9414169
Probable space group: P M N A
;
_chemical_formula_sum "Si O2"
_cell_formula_units_Z 44
_cell_length_a 24.980944
_cell_length_b 20.428772
_cell_length_c 5.298514
_cell_angle_alpha 90.000000
_cell_angle_beta 90.000000
_cell_angle_gamma 90.000000
_cell_volume 2703.990699
_symmetry_space_group_name_H-M "P M N A"
_symmetry_group_IT_number 53
_symmetry_cell_setting 'orthorhombic'
loop_
_space_group_symop_operation_xyz
x,y,z
1/2-x,-y,1/2+z
x,-y,-z
1/2-x,y,1/2-z
-x,-y,-z
1/2+x,y,1/2-z
-x,y,z
1/2+x,-y,1/2+z
loop_
_atom_site_type_symbol
_atom_site_label
_atom_site_fract_x
_atom_site_fract_y
_atom_site_fract_z
Si Si1 0.250000 0.040805 0.250000
Si Si2 0.185330 0.366944 0.518022
Si Si3 0.306134 0.577028 0.506647
Si Si4 0.656036 0.858305 0.683354
Si Si5 0.062685 0.957303 0.745865
Si Si6 0.187044 0.782384 0.310131
O O1 0.298701 0.085780 0.348064
O O2 0.233068 0.000000 0.500000
O O3 0.163131 0.408169 0.750427
O O4 0.249034 0.384894 0.503589
O O5 0.177932 0.292183 0.598652
O O6 0.165173 0.393267 0.250674
O O7 0.294274 0.500000 0.500000
O O8 0.599727 0.894438 0.717316
O O9 0.658658 0.808939 0.444597
O O10 0.671220 0.824259 0.946538
O O11 0.000000 0.940567 0.713494
O O12 0.078997 0.000000 0.500000
O O13 0.068098 0.000000 0.000000
O O14 0.250000 0.788653 0.250000
#
# Coordination Sequence:
#
# PCOD9414169 Si02
#       6
#     4   8   8   8   8   8
#     4  12  22  32  46  66  96 124 148 192 244 288
#     4  10  18  27  41  57  86 123 166 208 228 277
#     4  10  17  26  41  60  83 121 178 219 234 257
#     4  12  23  35  51  72  99 126 167 200 245 301
#     4  10  21  40  62  78  94 120 159 212 265 309
#     4  12  21  34  46  68  99 140 167 199 232 293
#
# _framework density 16.272245999999999
#
# number of rings (size 3 to 8) (size 9 to 14) (size 15 to 20)
#    0.000    1.091    3.636    7.091    2.545    0.000 
#    0.000    0.000    0.000    0.000    0.000    0.000 
#    0.000    0.000    0.000    0.000    0.000  105.455 
#
# Total GULP energy -245190.549763 kJ/mol
# GULP energy per Si atom -5572.512495 kJ/mol
# Density = 1.623521 g / cm^3
# Si number density = 16.272246 Si / 1000 Ang^3
#
#
#
# Elastic Constant Matrix: (Units=GPa)
#
#
# Indices 1 2 3 4 5 6 
#
# 1 30.8628 31.2113 16.4695 0.0000 0.0000 0.0000
# 2 31.2113 100.8635 48.0787 0.0000 0.0000 0.0000
# 3 16.4695 48.0787 165.3195 0.0000 0.0000 0.0000
# 4 0.0000 0.0000 0.0000 16.1847 0.0000 0.0000
# 5 0.0000 0.0000 0.0000 0.0000 3.8454 0.0000
# 6 0.0000 0.0000 0.0000 0.0000 0.0000 9.6156
#
#
#
# Elastic Compliance Matrix: (Units=1/GPa)
#
#
# Indices 1 2 3 4 5 6 
#
# 1 0.047199 -0.014354 -0.000528 0.000000 0.000000 0.000000
# 2 -0.014354 0.015875 -0.003187 0.000000 0.000000 0.000000
# 3 -0.000528 -0.003187 0.007028 0.000000 0.000000 0.000000
# 4 0.000000 0.000000 0.000000 0.061787 0.000000 0.000000
# 5 0.000000 0.000000 0.000000 0.000000 0.260048 0.000000
# 6 0.000000 0.000000 0.000000 0.000000 0.000000 0.103998
#
#
# Mechanical properties :
#
#
# Convention : Reuss Voigt Hill
#
# Bulk Modulus (GPa) = 29.44152 54.28498 41.86325
# Shear Modulus (GPa) = 9.20143 19.34822 14.27483
#
# Velocity S-wave (km/s) = 2.38054 3.45198 2.96505
# Velocity P-wave (km/s) = 5.06836 7.02290 6.12411
#
# Compressibility (1/GPa) = 0.03396563
#
# Stress axis : x y z
#
# Youngs Moduli (GPa) = 21.18700 62.99168 142.28220
#
# Poissons Ratio (x) = 0.90416 0.07507
# Poissons Ratio (y) = 0.30411 0.45344
# Poissons Ratio (z) = 0.01118 0.20075
#
# Static dielectric constant tensor:
#      x y z
#    x 1.462360 0.000000 0.000000 
#    y 0.000000 1.589900 0.000000 
#    z 0.000000 0.000000 1.665320 
# 
# From -- ./inp_files/3702.got.cif
#   From: 2010.05.17/outbox.cif.g08.bks.cpg/sg53_2_cif.got.tgz:3702.got - 2010.06.03 12:45:16.
