data_PCOD9414913
_publ_section_title
;
Structure prediction by ZEFSAII (Michael W. Deem and Ramdas Pophale) SiO2 
 PCOD9414913
Probable space group: P M N A
;
_chemical_formula_sum "Si O2"
_cell_formula_units_Z 48
_cell_length_a 27.090138
_cell_length_b 11.713399
_cell_length_c 8.309814
_cell_angle_alpha 90.000000
_cell_angle_beta 90.000000
_cell_angle_gamma 90.000000
_cell_volume 2636.850196
_symmetry_space_group_name_H-M "P M N A"
_symmetry_group_IT_number 53
_symmetry_cell_setting 'orthorhombic'
loop_
_space_group_symop_operation_xyz
x,y,z
1/2-x,-y,1/2+z
x,-y,-z
1/2-x,y,1/2-z
-x,-y,-z
1/2+x,y,1/2-z
-x,y,z
1/2+x,-y,1/2+z
loop_
_atom_site_type_symbol
_atom_site_label
_atom_site_fract_x
_atom_site_fract_y
_atom_site_fract_z
Si Si1 0.807945 0.297498 0.721319
Si Si2 0.863096 0.098291 0.629077
Si Si3 0.203665 0.058494 0.164722
Si Si4 0.636541 0.740220 0.560859
Si Si5 0.942168 0.878543 0.091400
Si Si6 0.800966 0.454652 0.183412
O O1 0.750000 0.269803 0.750000
O O2 0.837479 0.221043 0.590372
O O3 0.810653 0.434573 0.705515
O O4 0.835955 0.274416 0.889589
O O5 0.909979 0.116316 0.745342
O O6 0.875059 0.000000 0.500000
O O7 0.818820 0.041620 0.729686
O O8 0.250000 0.113695 0.250000
O O9 0.160968 0.148669 0.138020
O O10 0.219619 0.000000 0.000000
O O11 0.581048 0.776869 0.517386
O O12 0.653235 0.631746 0.665333
O O13 0.000000 0.862845 0.120716
O O14 0.935141 0.000000 0.000000
O O15 0.750000 0.401125 0.250000
O O16 0.791957 0.500000 0.000000
#
# Coordination Sequence:
#
# PCOD9414913 Si02
#       6
#     8   8   8   8   8   8
#     4   9  18  32  49  70 108 146 173 207 263 318
#     4  11  21  33  51  77 105 139 179 220 273 327
#     4  12  21  31  46  75 110 142 173 213 264 325
#     4  10  18  33  51  75 100 136 181 222 255 321
#     4  10  19  37  57  75 103 136 177 232 285 325
#     4   9  18  33  50  72 106 147 180 210 257 319
#
# _framework density 18.203536
#
# number of rings (size 3 to 8) (size 9 to 14) (size 15 to 20)
#    0.000    1.833    5.000    1.500    2.333    0.333 
#    3.000    0.000    0.000   12.500    0.000    0.000 
#    0.000    3.333    0.000    0.000    0.000    0.000 
#
# Total GULP energy -267381.085391 kJ/mol
# GULP energy per Si atom -5570.439279 kJ/mol
# Density = 1.816210 g / cm^3
# Si number density = 18.203536 Si / 1000 Ang^3
#
#
#
# Elastic Constant Matrix: (Units=GPa)
#
#
# Indices 1 2 3 4 5 6 
#
# 1 128.4227 49.3934 26.5689 0.0000 0.0000 0.0000
# 2 49.3934 101.2287 21.3309 0.0000 0.0000 0.0000
# 3 26.5689 21.3309 35.2058 0.0000 0.0000 0.0000
# 4 0.0000 0.0000 0.0000 20.0128 0.0000 0.0000
# 5 0.0000 0.0000 0.0000 0.0000 20.6928 0.0000
# 6 0.0000 0.0000 0.0000 0.0000 0.0000 14.0347
#
#
#
# Elastic Compliance Matrix: (Units=1/GPa)
#
#
# Indices 1 2 3 4 5 6 
#
# 1 0.010436 -0.003935 -0.005492 0.000000 0.000000 0.000000
# 2 -0.003935 0.012808 -0.004791 0.000000 0.000000 0.000000
# 3 -0.005492 -0.004791 0.035452 0.000000 0.000000 0.000000
# 4 0.000000 0.000000 0.000000 0.049968 0.000000 0.000000
# 5 0.000000 0.000000 0.000000 0.000000 0.048326 0.000000
# 6 0.000000 0.000000 0.000000 0.000000 0.000000 0.071252
#
#
# Mechanical properties :
#
#
# Convention : Reuss Voigt Hill
#
# Bulk Modulus (GPa) = 33.04583 51.04928 42.04756
# Shear Modulus (GPa) = 18.74312 22.11900 20.43106
#
# Velocity S-wave (km/s) = 3.21228 3.48960 3.35381
# Velocity P-wave (km/s) = 5.65255 6.65890 6.17625
#
# Compressibility (1/GPa) = 0.03026100
#
# Stress axis : x y z
#
# Youngs Moduli (GPa) = 95.81770 78.07490 28.20745
#
# Poissons Ratio (x) = 0.30723 0.15491
# Poissons Ratio (y) = 0.37705 0.13513
# Poissons Ratio (z) = 0.52622 0.37403
#
# Static dielectric constant tensor:
#      x y z
#    x 1.588440 0.000000 0.000000 
#    y 0.000000 1.730520 0.000000 
#    z 0.000000 0.000000 1.685330 
# 
# From -- ./inp_files/12434.got.cif
#   From: 2010.05.17/outbox.cif.g08.bks.cpg/sg53_7_cif.got.tgz:12434.got - 2010.06.03 12:45:16.
