data_PCOD9414823
_publ_section_title
;
Structure prediction by ZEFSAII (Michael W. Deem and Ramdas Pophale) SiO2 
 PCOD9414823
Probable space group: P M N A
;
_chemical_formula_sum "Si O2"
_cell_formula_units_Z 40
_cell_length_a 7.745066
_cell_length_b 8.097060
_cell_length_c 29.661947
_cell_angle_alpha 90.000000
_cell_angle_beta 90.000000
_cell_angle_gamma 90.000000
_cell_volume 1860.167854
_symmetry_space_group_name_H-M "P M N A"
_symmetry_group_IT_number 53
_symmetry_cell_setting 'orthorhombic'
loop_
_space_group_symop_operation_xyz
x,y,z
1/2-x,-y,1/2+z
x,-y,-z
1/2-x,y,1/2-z
-x,-y,-z
1/2+x,y,1/2-z
-x,y,z
1/2+x,-y,1/2+z
loop_
_atom_site_type_symbol
_atom_site_label
_atom_site_fract_x
_atom_site_fract_y
_atom_site_fract_z
Si Si1 0.211852 0.167840 0.607679
Si Si2 0.288607 0.486489 0.948039
Si Si3 0.801507 0.192692 0.396115
Si Si4 0.206106 0.323150 0.700865
Si Si5 0.302830 0.293518 0.300404
O O1 0.267077 0.316688 0.575420
O O2 0.263330 0.214523 0.658667
O O3 0.000000 0.163134 0.607361
O O4 0.275685 0.986750 0.594262
O O5 0.500000 0.484816 0.946157
O O6 0.225882 0.645436 0.919886
O O7 0.238099 0.500000 0.000000
O O8 0.800127 0.220094 0.342295
O O9 0.000000 0.185909 0.411701
O O10 0.250000 0.253163 0.750000
O O11 0.283646 0.507290 0.697914
O O12 0.000000 0.344476 0.697943
O O13 0.250000 0.242517 0.250000
O O14 0.500000 0.247984 0.307773
#
# Coordination Sequence:
#
# PCOD9414823 Si02
#       5
#     8   8   8   8   8
#     4   9  18  31  51  80 110 142 178 219 269 317
#     4   9  17  31  53  81 111 141 177 224 274 320
#     4  10  19  34  55  79 112 144 177 224 269 316
#     4  10  18  32  52  77 109 142 179 218 262 316
#     4  11  21  34  54  80 109 144 184 219 264 319
#
# _framework density 21.503436000000001
#
# number of rings (size 3 to 8) (size 9 to 14) (size 15 to 20)
#    0.000    2.200    2.000    3.600    0.000    1.600 
#    0.000    8.000    0.000    0.600    0.000    1.400 
#    0.000    0.000    0.000    0.000    0.000    0.000 
#
# Total GULP energy -223380.892461 kJ/mol
# GULP energy per Si atom -5584.522312 kJ/mol
# Density = 2.145449 g / cm^3
# Si number density = 21.503436 Si / 1000 Ang^3
#
#
#
# Elastic Constant Matrix: (Units=GPa)
#
#
# Indices 1 2 3 4 5 6 
#
# 1 42.3207 -4.4926 -8.9853 0.0000 0.0000 0.0000
# 2 -4.4926 169.4541 83.6975 0.0000 0.0000 0.0000
# 3 -8.9853 83.6975 129.0825 0.0000 0.0000 0.0000
# 4 0.0000 0.0000 0.0000 -6.4491 0.0000 0.0000
# 5 0.0000 0.0000 0.0000 0.0000 13.1902 0.0000
# 6 0.0000 0.0000 0.0000 0.0000 0.0000 1.1093
#
#
#
# Elastic Compliance Matrix: (Units=1/GPa)
#
#
# Indices 1 2 3 4 5 6 
#
# 1 0.023992 -0.000278 0.001850 0.000000 0.000000 0.000000
# 2 -0.000278 0.008685 -0.005651 0.000000 0.000000 0.000000
# 3 0.001850 -0.005651 0.011540 0.000000 0.000000 0.000000
# 4 0.000000 0.000000 0.000000 -0.155060 0.000000 0.000000
# 5 0.000000 0.000000 0.000000 0.000000 0.075814 0.000000
# 6 0.000000 0.000000 0.000000 0.000000 0.000000 0.901463
#
#
# Mechanical properties :
#
#
# Convention : Reuss Voigt Hill
#
# Bulk Modulus (GPa) = 27.73114 53.47740 40.60427
# Shear Modulus (GPa) = 5.63945 19.61258 12.62602
#
# Velocity S-wave (km/s) = 1.62120 3.02332 2.42577
# Velocity P-wave (km/s) = 4.05321 6.09184 5.17393
#
# Compressibility (1/GPa) = 0.03606055
#
# Stress axis : x y z
#
# Youngs Moduli (GPa) = 41.67984 115.14172 86.65740
#
# Poissons Ratio (x) = 0.03198 -0.16033
# Poissons Ratio (y) = 0.01158 0.48967
# Poissons Ratio (z) = -0.07712 0.65063
#
# Static dielectric constant tensor:
#      x y z
#    x 1.809130 0.000000 0.000000 
#    y 0.000000 1.778820 0.000000 
#    z 0.000000 0.000000 1.881540 
# 
# From -- ./inp_files/37513.got.cif
#   From: 2010.05.17/outbox.cif.g08.bks.cpg/sg53_19_cif.got.tgz:37513.got - 2010.06.03 12:45:16.
