data_PCOD9414062
_publ_section_title
;
Structure prediction by ZEFSAII (Michael W. Deem and Ramdas Pophale) SiO2 
 PCOD9414062
Probable space group: P M N A
;
_chemical_formula_sum "Si O2"
_cell_formula_units_Z 64
_cell_length_a 24.691698
_cell_length_b 12.401261
_cell_length_c 12.490908
_cell_angle_alpha 90.000000
_cell_angle_beta 90.000000
_cell_angle_gamma 90.000000
_cell_volume 3824.818348
_symmetry_space_group_name_H-M "P M N A"
_symmetry_group_IT_number 53
_symmetry_cell_setting 'orthorhombic'
loop_
_space_group_symop_operation_xyz
x,y,z
1/2-x,-y,1/2+z
x,-y,-z
1/2-x,y,1/2-z
-x,-y,-z
1/2+x,y,1/2-z
-x,y,z
1/2+x,-y,1/2+z
loop_
_atom_site_type_symbol
_atom_site_label
_atom_site_fract_x
_atom_site_fract_y
_atom_site_fract_z
Si Si1 0.379297 0.263962 0.904717
Si Si2 0.439002 0.869815 0.665680
Si Si3 0.291677 0.960437 0.833165
Si Si4 0.064508 0.715450 0.633864
Si Si5 0.107599 0.080023 0.763588
Si Si6 0.152377 0.128761 0.987285
Si Si7 0.062018 0.521902 0.371895
Si Si8 0.270622 0.169649 0.962190
O O1 0.400330 0.164476 0.832163
O O2 0.399507 0.376355 0.854616
O O3 0.314074 0.253349 0.915704
O O4 0.404770 0.258440 0.023793
O O5 0.500000 0.842514 0.628751
O O6 0.427033 0.800300 0.771780
O O7 0.393291 0.849274 0.576127
O O8 0.437661 0.996441 0.697732
O O9 0.250000 0.910059 0.750000
O O10 0.345867 0.997599 0.776200
O O11 0.266187 0.072227 0.876811
O O12 0.298838 0.883546 0.933957
O O13 0.079109 0.594438 0.673064
O O14 0.000000 0.712585 0.609525
O O15 0.128501 0.141859 0.868574
O O16 0.208827 0.193649 0.994597
O O17 0.165208 0.000000 0.000000
O O18 0.061529 0.500000 0.500000
O O19 0.000000 0.546855 0.339799
#
# Coordination Sequence:
#
# PCOD9414062 Si02
#       8
#     8   8   8   8   8   8   8   8
#     4  10  19  28  47  82 102 127 163 207 264 317
#     4  10  21  34  50  72 101 140 176 212 255 301
#     4  10  15  27  43  62  93 132 168 198 232 289
#     4   9  18  35  54  74 100 131 170 213 255 305
#     4  10  20  29  46  72 110 132 162 208 258 305
#     4  10  18  34  48  67  99 146 180 207 242 297
#     4   8  15  31  53  72  95 130 167 204 248 309
#     4  10  18  26  44  71  96 127 170 208 242 288
#
# _framework density 16.732821000000001
#
# number of rings (size 3 to 8) (size 9 to 14) (size 15 to 20)
#    0.000    2.375    2.500    2.625    0.000    4.750 
#    0.000    1.250    0.000    0.750   19.500    2.625 
#    0.000    0.000    0.000    0.000    0.000    0.000 
#
# Total GULP energy -356353.395705 kJ/mol
# GULP energy per Si atom -5568.021808 kJ/mol
# Density = 1.669474 g / cm^3
# Si number density = 16.732821 Si / 1000 Ang^3
#
#
#
# Elastic Constant Matrix: (Units=GPa)
#
#
# Indices 1 2 3 4 5 6 
#
# 1 90.3818 40.2636 37.3539 0.0000 0.0000 0.0000
# 2 40.2636 71.3500 23.2294 0.0000 0.0000 0.0000
# 3 37.3539 23.2294 67.0069 0.0000 0.0000 0.0000
# 4 0.0000 0.0000 0.0000 6.7636 0.0000 0.0000
# 5 0.0000 0.0000 0.0000 0.0000 17.6375 0.0000
# 6 0.0000 0.0000 0.0000 0.0000 0.0000 20.6126
#
#
#
# Elastic Compliance Matrix: (Units=1/GPa)
#
#
# Indices 1 2 3 4 5 6 
#
# 1 0.017309 -0.007469 -0.007060 0.000000 0.000000 0.000000
# 2 -0.007469 0.019022 -0.002430 0.000000 0.000000 0.000000
# 3 -0.007060 -0.002430 0.019702 0.000000 0.000000 0.000000
# 4 0.000000 0.000000 0.000000 0.147849 0.000000 0.000000
# 5 0.000000 0.000000 0.000000 0.000000 0.056697 0.000000
# 6 0.000000 0.000000 0.000000 0.000000 0.000000 0.048514
#
#
# Mechanical properties :
#
#
# Convention : Reuss Voigt Hill
#
# Bulk Modulus (GPa) = 45.22072 47.82585 46.52328
# Shear Modulus (GPa) = 14.27003 17.52888 15.89945
#
# Velocity S-wave (km/s) = 2.92347 3.24014 3.08587
# Velocity P-wave (km/s) = 6.20318 6.53009 6.36873
#
# Compressibility (1/GPa) = 0.02211376
#
# Stress axis : x y z
#
# Youngs Moduli (GPa) = 57.77177 52.57137 50.75610
#
# Poissons Ratio (x) = 0.39268 0.35834
# Poissons Ratio (y) = 0.43152 0.12336
# Poissons Ratio (z) = 0.40787 0.12777
#
# Static dielectric constant tensor:
#      x y z
#    x 1.616850 0.000000 0.000000 
#    y 0.000000 1.568180 0.000000 
#    z 0.000000 0.000000 1.573600 
# 
# From -- ./inp_files/18469.got.cif
#   From: 2010.05.17/outbox.cif.g08.bks.cpg/sg53_10_cif.got.tgz:18469.got - 2010.06.03 12:45:16.
