data_PCOD9414028
_publ_section_title
;
Structure prediction by ZEFSAII (Michael W. Deem and Ramdas Pophale) SiO2 
 PCOD9414028
Probable space group: P N N A
;
_chemical_formula_sum "Si O2"
_cell_formula_units_Z 64
_cell_length_a 15.000000
_cell_length_b 24.000000
_cell_length_c 9.000000
_cell_angle_alpha 90.000000
_cell_angle_beta 90.000000
_cell_angle_gamma 90.000000
_cell_volume 3240.000000
_symmetry_space_group_name_H-M "P N N A"
_symmetry_group_IT_number 52
_symmetry_cell_setting 'orthorhombic'
loop_
_space_group_symop_operation_xyz
x,y,z
1/2-x,-y,z
x,1/2-y,1/2-z
1/2-x,1/2+y,1/2-z
-x,-y,-z
1/2+x,y,-z
-x,1/2+y,1/2+z
1/2+x,1/2-y,1/2+z
loop_
_atom_site_type_symbol
_atom_site_label
_atom_site_fract_x
_atom_site_fract_y
_atom_site_fract_z
Si Si1 0.352971 0.384398 0.707423
Si Si2 0.290566 0.687723 0.301126
Si Si3 0.994207 0.274443 0.596221
Si Si4 0.646418 0.511692 0.072099
Si Si5 0.521362 0.169918 0.624709
Si Si6 0.308563 0.694605 0.655708
Si Si7 0.877842 0.125712 0.879848
Si Si8 0.003045 0.925926 0.375452
O O1 0.351119 0.438293 0.810529
O O2 0.436497 0.346431 0.770094
O O3 0.258703 0.351597 0.718779
O O4 0.359408 0.404960 0.535396
O O5 0.266868 0.750000 0.250000
O O6 0.385218 0.671911 0.219803
O O7 0.294931 0.694105 0.478948
O O8 0.210275 0.642754 0.284836
O O9 0.957674 0.250000 0.750000
O O10 0.012639 0.228480 0.467979
O O11 0.083589 0.306149 0.654097
O O12 0.919717 0.317857 0.551207
O O13 0.750000 0.500000 0.030060
O O14 0.589220 0.460215 0.140024
O O15 0.581323 0.533908 0.940865
O O16 0.518576 0.122608 0.495990
O O17 0.286736 0.750000 0.750000
O O18 0.951612 0.098699 0.772888
#
# Coordination Sequence:
#
# PCOD9414028 Si02
#       8
#     8   8   8   8   8   8   8   8
#     4  10  25  41  65  97 127 173 211 271 330 380
#     4  11  23  37  58  93 135 173 212 253 310 385
#     4  11  21  38  61  97 131 178 208 256 314 389
#     4  10  24  46  71  92 122 165 224 277 331 389
#     4  11  23  42  66  93 135 175 213 260 323 382
#     4  10  23  37  58  93 131 172 216 248 313 388
#     4  11  24  39  63  96 135 165 215 268 324 393
#     4  10  24  45  69  96 121 169 221 272 333 385
#
# _framework density 19.753086
#
# number of rings (size 3 to 8) (size 9 to 14) (size 15 to 20)
#    0.000    1.500    2.500    1.125    7.000    1.500 
#    0.000    0.625    0.000    0.000    0.000    0.000 
#    0.000    0.000    0.000    0.000    0.000    0.000 
#
# Total GULP energy -356740.329692 kJ/mol
# GULP energy per Si atom -5574.067651 kJ/mol
# Density = 1.970813 g / cm^3
# Si number density = 19.753086 Si / 1000 Ang^3
#
#
#
# Elastic Constant Matrix: (Units=GPa)
#
#
# Indices 1 2 3 4 5 6 
#
# 1 131.0863 48.2629 22.2006 0.0000 0.0000 0.0000
# 2 48.2629 54.7468 26.9016 0.0000 0.0000 0.0000
# 3 22.2006 26.9016 75.2885 0.0000 0.0000 0.0000
# 4 0.0000 0.0000 0.0000 23.1144 0.0000 0.0000
# 5 0.0000 0.0000 0.0000 0.0000 28.6247 0.0000
# 6 0.0000 0.0000 0.0000 0.0000 0.0000 26.2800
#
#
#
# Elastic Compliance Matrix: (Units=1/GPa)
#
#
# Indices 1 2 3 4 5 6 
#
# 1 0.011299 -0.010096 0.000276 0.000000 0.000000 0.000000
# 2 -0.010096 0.031178 -0.008163 0.000000 0.000000 0.000000
# 3 0.000276 -0.008163 0.016118 0.000000 0.000000 0.000000
# 4 0.000000 0.000000 0.000000 0.043263 0.000000 0.000000
# 5 0.000000 0.000000 0.000000 0.000000 0.034935 0.000000
# 6 0.000000 0.000000 0.000000 0.000000 0.000000 0.038052
#
#
# Mechanical properties :
#
#
# Convention : Reuss Voigt Hill
#
# Bulk Modulus (GPa) = 44.19469 50.65020 47.42244
# Shear Modulus (GPa) = 22.89858 26.52092 24.70975
#
# Velocity S-wave (km/s) = 3.40846 3.66816 3.54069
# Velocity P-wave (km/s) = 6.15729 6.60589 6.38553
#
# Compressibility (1/GPa) = 0.02262715
#
# Stress axis : x y z
#
# Youngs Moduli (GPa) = 88.50238 32.07412 62.04364
#
# Poissons Ratio (x) = 0.32383 -0.01711
# Poissons Ratio (y) = 0.89356 0.50647
# Poissons Ratio (z) = -0.02441 0.26182
#
# Static dielectric constant tensor:
#      x y z
#    x 1.731500 0.000000 0.000000 
#    y 0.000000 1.759860 0.000000 
#    z 0.000000 0.000000 1.741160 
# 
# From -- ./inp_files/11018.got.cif
#   From: 2010.05.17/outbox.ucp.g08.bks.cvg/sg52_6_cif.got.tgz:11018.got - 2010.06.11 16:30:12.
