data_PCOD9414186
_publ_section_title
;
Structure prediction by ZEFSAII (Michael W. Deem and Ramdas Pophale) SiO2 
 PCOD9414186
Probable space group: P M N A
;
_chemical_formula_sum "Si O2"
_cell_formula_units_Z 40
_cell_length_a 8.599489
_cell_length_b 27.366455
_cell_length_c 9.275445
_cell_angle_alpha 90.000000
_cell_angle_beta 90.000000
_cell_angle_gamma 90.000000
_cell_volume 2182.860304
_symmetry_space_group_name_H-M "P M N A"
_symmetry_group_IT_number 53
_symmetry_cell_setting 'orthorhombic'
loop_
_space_group_symop_operation_xyz
x,y,z
1/2-x,-y,1/2+z
x,-y,-z
1/2-x,y,1/2-z
-x,-y,-z
1/2+x,y,1/2-z
-x,y,z
1/2+x,-y,1/2+z
loop_
_atom_site_type_symbol
_atom_site_label
_atom_site_fract_x
_atom_site_fract_y
_atom_site_fract_z
Si Si1 0.687738 0.047713 0.911430
Si Si2 0.813220 0.143952 0.413005
Si Si3 0.814802 0.754137 0.914409
Si Si4 0.686485 0.346089 0.085663
Si Si5 0.187720 0.453031 0.412127
O O1 0.750000 0.046496 0.750000
O O2 0.500000 0.047019 0.907475
O O3 0.734921 0.097212 0.993624
O O4 0.740096 0.000000 0.000000
O O5 0.750000 0.138453 0.250000
O O6 0.749139 0.195026 0.476006
O O7 0.000000 0.146505 0.406807
O O8 0.750000 0.753984 0.750000
O O9 0.756076 0.703218 0.981833
O O10 0.000000 0.754745 0.910415
O O11 0.750000 0.347611 0.250000
O O12 0.729992 0.399489 0.024396
O O13 0.000000 0.341720 0.410831
O O14 0.243677 0.500000 0.500000
O O15 0.250000 0.455825 0.250000
O O16 0.000000 0.454371 0.407263
#
# Coordination Sequence:
#
# PCOD9414186 Si02
#       5
#     8   8   8   8   8
#     4  10  22  38  56  79 105 134 168 205 245 290
#     4  10  19  32  51  76 104 132 164 200 242 291
#     4  10  17  26  43  68  97 126 160 200 243 288
#     4   9  15  25  42  64  92 123 157 198 243 288
#     4   9  18  31  47  69  96 126 161 201 245 293
#
# _framework density 18.324580000000001
#
# number of rings (size 3 to 8) (size 9 to 14) (size 15 to 20)
#    0.000    2.400    0.000    6.000    0.000    3.200 
#    0.000    0.000    0.000    1.200    0.000    2.800 
#    0.000    0.000    0.000    0.000    0.000    0.000 
#
# Total GULP energy -222943.380989 kJ/mol
# GULP energy per Si atom -5573.584525 kJ/mol
# Density = 1.828287 g / cm^3
# Si number density = 18.324580 Si / 1000 Ang^3
#
#
#
# Elastic Constant Matrix: (Units=GPa)
#
#
# Indices 1 2 3 4 5 6 
#
# 1 63.6868 55.0696 14.4672 0.0000 0.0000 0.0000
# 2 55.0696 243.5969 66.5253 0.0000 0.0000 0.0000
# 3 14.4672 66.5253 53.4354 0.0000 0.0000 0.0000
# 4 0.0000 0.0000 0.0000 23.5749 0.0000 0.0000
# 5 0.0000 0.0000 0.0000 0.0000 18.3373 0.0000
# 6 0.0000 0.0000 0.0000 0.0000 0.0000 38.6991
#
#
#
# Elastic Compliance Matrix: (Units=1/GPa)
#
#
# Indices 1 2 3 4 5 6 
#
# 1 0.019521 -0.004499 0.000317 0.000000 0.000000 0.000000
# 2 -0.004499 0.007257 -0.007817 0.000000 0.000000 0.000000
# 3 0.000317 -0.007817 0.028360 0.000000 0.000000 0.000000
# 4 0.000000 0.000000 0.000000 0.042418 0.000000 0.000000
# 5 0.000000 0.000000 0.000000 0.000000 0.054534 0.000000
# 6 0.000000 0.000000 0.000000 0.000000 0.000000 0.025840
#
#
# Mechanical properties :
#
#
# Convention : Reuss Voigt Hill
#
# Bulk Modulus (GPa) = 32.11440 70.31592 51.21516
# Shear Modulus (GPa) = 23.55072 31.09939 27.32506
#
# Velocity S-wave (km/s) = 3.58886 4.12411 3.86576
# Velocity P-wave (km/s) = 5.89377 7.81879 6.92351
#
# Compressibility (1/GPa) = 0.03113868
#
# Stress axis : x y z
#
# Youngs Moduli (GPa) = 51.22803 137.79823 35.26121
#
# Poissons Ratio (x) = 0.62002 -0.01117
# Poissons Ratio (y) = 0.23050 0.27562
# Poissons Ratio (z) = -0.01622 1.07710
#
# Static dielectric constant tensor:
#      x y z
#    x 1.622080 0.000000 0.000000 
#    y 0.000000 1.714440 0.000000 
#    z 0.000000 0.000000 1.596670 
# 
# From -- ./inp_files/6449.got.cif
#   From: 2010.05.17/outbox.cif.g08.bks.cpg/sg53_4_cif.got.tgz:6449.got - 2010.06.03 12:45:16.
