data_PCOD9414649
_publ_section_title
;
Structure prediction by ZEFSAII (Michael W. Deem and Ramdas Pophale) SiO2 
 PCOD9414649
Probable space group: P M N A
;
_chemical_formula_sum "Si O2"
_cell_formula_units_Z 64
_cell_length_a 13.834849
_cell_length_b 14.549606
_cell_length_c 18.903398
_cell_angle_alpha 90.000000
_cell_angle_beta 90.000000
_cell_angle_gamma 90.000000
_cell_volume 3805.095267
_symmetry_space_group_name_H-M "P M N A"
_symmetry_group_IT_number 53
_symmetry_cell_setting 'orthorhombic'
loop_
_space_group_symop_operation_xyz
x,y,z
1/2-x,-y,1/2+z
x,-y,-z
1/2-x,y,1/2-z
-x,-y,-z
1/2+x,y,1/2-z
-x,y,z
1/2+x,-y,1/2+z
loop_
_atom_site_type_symbol
_atom_site_label
_atom_site_fract_x
_atom_site_fract_y
_atom_site_fract_z
Si Si1 0.247250 0.969733 0.422824
Si Si2 0.110746 0.088176 0.171663
Si Si3 0.191296 0.341075 0.852910
Si Si4 0.613920 0.727469 0.616899
Si Si5 0.616772 0.478676 0.416236
Si Si6 0.353882 0.066292 0.785399
Si Si7 0.892585 0.722746 0.295615
Si Si8 0.888361 0.196107 0.959491
O O1 0.161297 0.955537 0.367563
O O2 0.313682 0.880228 0.433485
O O3 0.215012 0.000000 0.500000
O O4 0.318629 0.041297 0.384577
O O5 0.143154 0.195337 0.175013
O O6 0.000000 0.087892 0.145513
O O7 0.110671 0.022408 0.241029
O O8 0.177734 0.446704 0.873043
O O9 0.138434 0.321091 0.778940
O O10 0.301850 0.304093 0.845929
O O11 0.133831 0.284766 0.912470
O O12 0.500000 0.713863 0.628274
O O13 0.650652 0.623647 0.606782
O O14 0.626564 0.777020 0.540995
O O15 0.629830 0.500000 0.500000
O O16 0.500000 0.488188 0.403393
O O17 0.250000 0.082662 0.750000
O O18 0.398604 0.167338 0.782115
O O19 0.000000 0.692125 0.318263
O O20 0.000000 0.166536 0.949883
#
# Coordination Sequence:
#
# PCOD9414649 Si02
#       8
#     8   8   8   8   8   8   8   8
#     4  11  20  30  49  77 109 140 175 224 270 324
#     4  10  19  31  48  71 106 145 178 213 260 323
#     4  11  20  33  52  80 106 136 171 215 272 324
#     4   9  18  29  46  78 109 140 175 208 263 329
#     4  10  18  30  51  79 111 141 169 213 273 329
#     4  10  19  34  49  74 107 144 180 212 266 332
#     4  11  21  35  54  76 105 138 174 217 269 325
#     4  11  18  28  48  79 113 137 164 209 273 333
#
# _framework density 16.819552999999999
#
# number of rings (size 3 to 8) (size 9 to 14) (size 15 to 20)
#    0.000    1.625    5.000    2.625    0.000    0.500 
#    0.000    0.000    8.250    1.875    0.000    0.000 
#    0.000    0.000    0.000    0.000    0.000    0.000 
#
# Total GULP energy -356271.612462 kJ/mol
# GULP energy per Si atom -5566.743945 kJ/mol
# Density = 1.678127 g / cm^3
# Si number density = 16.819553 Si / 1000 Ang^3
#
#
#
# Elastic Constant Matrix: (Units=GPa)
#
#
# Indices 1 2 3 4 5 6 
#
# 1 50.0202 15.6466 14.7066 0.0000 0.0000 0.0000
# 2 15.6466 145.1571 37.8382 0.0000 0.0000 0.0000
# 3 14.7066 37.8382 77.8862 0.0000 0.0000 0.0000
# 4 0.0000 0.0000 0.0000 22.4652 0.0000 0.0000
# 5 0.0000 0.0000 0.0000 0.0000 32.4230 0.0000
# 6 0.0000 0.0000 0.0000 0.0000 0.0000 12.9221
#
#
#
# Elastic Compliance Matrix: (Units=1/GPa)
#
#
# Indices 1 2 3 4 5 6 
#
# 1 0.021426 -0.001437 -0.003348 0.000000 0.000000 0.000000
# 2 -0.001437 0.007984 -0.003608 0.000000 0.000000 0.000000
# 3 -0.003348 -0.003608 0.015224 0.000000 0.000000 0.000000
# 4 0.000000 0.000000 0.000000 0.044513 0.000000 0.000000
# 5 0.000000 0.000000 0.000000 0.000000 0.030842 0.000000
# 6 0.000000 0.000000 0.000000 0.000000 0.000000 0.077387
#
#
# Mechanical properties :
#
#
# Convention : Reuss Voigt Hill
#
# Bulk Modulus (GPa) = 35.90682 45.49404 40.70043
# Shear Modulus (GPa) = 22.37700 27.22020 24.79860
#
# Velocity S-wave (km/s) = 3.65144 4.02726 3.84395
# Velocity P-wave (km/s) = 6.25875 6.98084 6.62963
#
# Compressibility (1/GPa) = 0.02784986
#
# Stress axis : x y z
#
# Youngs Moduli (GPa) = 46.67312 125.24479 65.68590
#
# Poissons Ratio (x) = 0.17996 0.21989
# Poissons Ratio (y) = 0.06706 0.23697
# Poissons Ratio (z) = 0.15624 0.45183
#
# Static dielectric constant tensor:
#      x y z
#    x 1.579530 0.000000 0.000000 
#    y 0.000000 1.624130 0.000000 
#    z 0.000000 0.000000 1.588180 
# 
# From -- ./inp_files/28638.got.cif
#   From: 2010.05.17/outbox.cif.g08.bks.cpg/sg53_15_cif.got.tgz:28638.got - 2010.06.03 12:45:16.
