data_PCOD9414148
_publ_section_title
;
Structure prediction by ZEFSAII (Michael W. Deem and Ramdas Pophale) SiO2 
 PCOD9414148
Probable space group: P M N A
;
_chemical_formula_sum "Si O2"
_cell_formula_units_Z 48
_cell_length_a 18.510767
_cell_length_b 21.073605
_cell_length_c 5.559339
_cell_angle_alpha 90.000000
_cell_angle_beta 90.000000
_cell_angle_gamma 90.000000
_cell_volume 2168.634723
_symmetry_space_group_name_H-M "P M N A"
_symmetry_group_IT_number 53
_symmetry_cell_setting 'orthorhombic'
loop_
_space_group_symop_operation_xyz
x,y,z
1/2-x,-y,1/2+z
x,-y,-z
1/2-x,y,1/2-z
-x,-y,-z
1/2+x,y,1/2-z
-x,y,z
1/2+x,-y,1/2+z
loop_
_atom_site_type_symbol
_atom_site_label
_atom_site_fract_x
_atom_site_fract_y
_atom_site_fract_z
Si Si1 0.638412 0.715726 0.383673
Si Si2 0.841750 0.329643 0.372858
Si Si3 0.667807 0.522688 0.755658
Si Si4 0.087990 0.073117 0.455747
Si Si5 0.000000 0.621575 0.103997
Si Si6 0.500000 0.374315 0.105630
Si Si7 0.587195 0.140621 0.548502
O O1 0.681524 0.704629 0.629870
O O2 0.571008 0.666151 0.393525
O O3 0.610206 0.786833 0.412615
O O4 0.677106 0.698415 0.132856
O O5 0.825971 0.402820 0.309286
O O6 0.929868 0.329558 0.387454
O O7 0.636719 0.500000 0.500000
O O8 0.750000 0.494842 0.750000
O O9 0.630937 0.500000 0.000000
O O10 0.110819 0.107354 0.702743
O O11 0.000000 0.074557 0.447338
O O12 0.109295 0.000000 0.500000
O O13 0.111721 0.106709 0.203251
O O14 0.000000 0.587924 0.358523
O O15 0.000000 0.586312 0.850930
O O16 0.500000 0.138156 0.540925
#
# Coordination Sequence:
#
# PCOD9414148 Si02
#       7
#     8   8   8   8   4   4   8
#     4  10  17  27  42  65  90 114 147 186 235 277
#     4  10  19  31  48  69  94 118 145 187 236 276
#     4  10  21  38  57  73  90 117 156 192 220 268
#     4   9  17  26  35  50  77 115 161 208 237 254
#     4   8  14  24  36  55  83 112 142 170 209 268
#     4   8  16  26  42  63  88 116 137 170 219 272
#     4  10  17  25  39  57  80 114 158 196 230 274
#
# _framework density 22.13374
#
# number of rings (size 3 to 8) (size 9 to 14) (size 15 to 20)
#    0.000    2.500    0.833    2.500    0.000    2.000 
#    0.000    0.833    0.000    0.000    0.000    0.000 
#    0.000    0.000    0.000    0.000    0.000   46.667 
#
# Total GULP energy -267336.961254 kJ/mol
# GULP energy per Si atom -5569.520026 kJ/mol
# Density = 2.208336 g / cm^3
# Si number density = 22.133740 Si / 1000 Ang^3
#
#
#
# Elastic Constant Matrix: (Units=GPa)
#
#
# Indices 1 2 3 4 5 6 
#
# 1 56.4607 0.4827 30.9864 0.0000 0.0000 0.0000
# 2 0.4827 79.7628 68.1884 0.0000 0.0000 0.0000
# 3 30.9864 68.1884 317.8483 0.0000 0.0000 0.0000
# 4 0.0000 0.0000 0.0000 42.8608 0.0000 0.0000
# 5 0.0000 0.0000 0.0000 0.0000 18.5635 0.0000
# 6 0.0000 0.0000 0.0000 0.0000 0.0000 37.2505
#
#
#
# Elastic Compliance Matrix: (Units=1/GPa)
#
#
# Indices 1 2 3 4 5 6 
#
# 1 0.018919 0.001791 -0.002229 0.000000 0.000000 0.000000
# 2 0.001791 0.015522 -0.003505 0.000000 0.000000 0.000000
# 3 -0.002229 -0.003505 0.004115 0.000000 0.000000 0.000000
# 4 0.000000 0.000000 0.000000 0.023331 0.000000 0.000000
# 5 0.000000 0.000000 0.000000 0.000000 0.053869 0.000000
# 6 0.000000 0.000000 0.000000 0.000000 0.000000 0.026845
#
#
# Mechanical properties :
#
#
# Convention : Reuss Voigt Hill
#
# Bulk Modulus (GPa) = 32.60320 72.59854 52.60087
# Shear Modulus (GPa) = 31.11163 43.36257 37.23710
#
# Velocity S-wave (km/s) = 3.75323 4.43099 4.10612
# Velocity P-wave (km/s) = 5.79175 7.68436 6.80418
#
# Compressibility (1/GPa) = 0.03067183
#
# Stress axis : x y z
#
# Youngs Moduli (GPa) = 52.85645 64.42307 242.99808
#
# Poissons Ratio (x) = -0.11536 0.54153
# Poissons Ratio (y) = -0.09465 0.85161
# Poissons Ratio (z) = 0.11779 0.22578
#
# Static dielectric constant tensor:
#      x y z
#    x 1.900460 0.000000 0.000000 
#    y 0.000000 2.454270 0.000000 
#    z 0.000000 0.000000 1.772090 
# 
# From -- ./inp_files/3770.got.cif
#   From: 2010.05.17/outbox.cif.g08.bks.cpg/sg53_2_cif.got.tgz:3770.got - 2010.06.03 12:45:16.
