data_PCOD9414681
_publ_section_title
;
Structure prediction by ZEFSAII (Michael W. Deem and Ramdas Pophale) SiO2 
 PCOD9414681
Probable space group: P M N A
;
_chemical_formula_sum "Si O2"
_cell_formula_units_Z 64
_cell_length_a 8.366808
_cell_length_b 20.104809
_cell_length_c 19.984741
_cell_angle_alpha 90.000000
_cell_angle_beta 90.000000
_cell_angle_gamma 90.000000
_cell_volume 3361.694772
_symmetry_space_group_name_H-M "P M N A"
_symmetry_group_IT_number 53
_symmetry_cell_setting 'orthorhombic'
loop_
_space_group_symop_operation_xyz
x,y,z
1/2-x,-y,1/2+z
x,-y,-z
1/2-x,y,1/2-z
-x,-y,-z
1/2+x,y,1/2-z
-x,y,z
1/2+x,-y,1/2+z
loop_
_atom_site_type_symbol
_atom_site_label
_atom_site_fract_x
_atom_site_fract_y
_atom_site_fract_z
Si Si1 0.692523 0.555153 0.672900
Si Si2 0.808377 0.931932 0.468957
Si Si3 0.694928 0.354515 0.446254
Si Si4 0.684743 0.213163 0.500352
Si Si5 0.184531 0.560236 0.071637
Si Si6 0.190880 0.090855 0.683795
Si Si7 0.820575 0.637508 0.318205
Si Si8 0.820814 0.766475 0.159094
O O1 0.750000 0.554043 0.750000
O O2 0.500000 0.548616 0.675979
O O3 0.732075 0.620677 0.628710
O O4 0.752127 0.496640 0.621855
O O5 0.754668 0.861671 0.501618
O O6 0.771327 0.936065 0.389900
O O7 0.000000 0.931855 0.475149
O O8 0.743360 0.000000 0.500000
O O9 0.500000 0.353976 0.453200
O O10 0.752519 0.279741 0.463803
O O11 0.749319 0.411313 0.500902
O O12 0.500000 0.208063 0.479478
O O13 0.691233 0.230605 0.578902
O O14 0.203287 0.622234 0.120978
O O15 0.000000 0.542473 0.060396
O O16 0.250000 0.052828 0.750000
O O17 0.286368 0.159996 0.683620
O O18 0.000000 0.100925 0.686876
O O19 0.750000 0.608427 0.250000
O O20 0.812233 0.716674 0.314274
O O21 0.000000 0.614809 0.330513
O O22 0.000000 0.744887 0.177359
#
# Coordination Sequence:
#
# PCOD9414681 Si02
#       8
#     8   8   8   8   8   8   8   8
#     4  10  21  36  57  79 106 141 179 223 273 325
#     4   9  19  35  54  77 108 142 174 211 261 317
#     4   9  17  34  58  82 104 136 179 222 269 320
#     4   9  17  31  54  80 105 131 171 221 261 306
#     4  10  19  35  55  76 100 132 176 221 266 318
#     4  10  19  31  48  72 102 136 172 209 252 307
#     4  12  23  32  44  65  98 138 174 210 254 303
#     4  10  18  31  48  69  99 134 171 211 252 298
#
# _framework density 19.038015000000001
#
# number of rings (size 3 to 8) (size 9 to 14) (size 15 to 20)
#    0.000    2.125    1.250    3.000    0.000    4.250 
#    0.000    1.250    0.000    2.250    0.000    5.250 
#    0.000    0.000    0.000    0.000    0.000    0.000 
#
# Total GULP energy -356281.589536 kJ/mol
# GULP energy per Si atom -5566.899837 kJ/mol
# Density = 1.899468 g / cm^3
# Si number density = 19.038015 Si / 1000 Ang^3
#
#
#
# Elastic Constant Matrix: (Units=GPa)
#
#
# Indices 1 2 3 4 5 6 
#
# 1 38.4223 21.0539 25.0448 0.0000 0.0000 0.0000
# 2 21.0539 114.4535 69.3001 0.0000 0.0000 0.0000
# 3 25.0448 69.3001 125.0187 0.0000 0.0000 0.0000
# 4 0.0000 0.0000 0.0000 14.6384 0.0000 0.0000
# 5 0.0000 0.0000 0.0000 0.0000 17.4083 0.0000
# 6 0.0000 0.0000 0.0000 0.0000 0.0000 14.8719
#
#
#
# Elastic Compliance Matrix: (Units=1/GPa)
#
#
# Indices 1 2 3 4 5 6 
#
# 1 0.030554 -0.002881 -0.004524 0.000000 0.000000 0.000000
# 2 -0.002881 0.013423 -0.006863 0.000000 0.000000 0.000000
# 3 -0.004524 -0.006863 0.012709 0.000000 0.000000 0.000000
# 4 0.000000 0.000000 0.000000 0.068313 0.000000 0.000000
# 5 0.000000 0.000000 0.000000 0.000000 0.057444 0.000000
# 6 0.000000 0.000000 0.000000 0.000000 0.000000 0.067241
#
#
# Mechanical properties :
#
#
# Convention : Reuss Voigt Hill
#
# Bulk Modulus (GPa) = 35.52442 56.52135 46.02289
# Shear Modulus (GPa) = 17.38501 20.21679 18.80090
#
# Velocity S-wave (km/s) = 3.02515 3.26224 3.14593
# Velocity P-wave (km/s) = 5.55898 6.62893 6.11740
#
# Compressibility (1/GPa) = 0.02814965
#
# Stress axis : x y z
#
# Youngs Moduli (GPa) = 32.72888 74.49976 78.68160
#
# Poissons Ratio (x) = 0.21467 0.35592
# Poissons Ratio (y) = 0.09431 0.54001
# Poissons Ratio (z) = 0.14805 0.51131
#
# Static dielectric constant tensor:
#      x y z
#    x 1.685290 0.000000 0.000000 
#    y 0.000000 1.733810 0.000000 
#    z 0.000000 0.000000 1.718720 
# 
# From -- ./inp_files/26942.got.cif
#   From: 2010.05.17/outbox.cif.g08.bks.cpg/sg53_14_cif.got.tgz:26942.got - 2010.06.03 12:45:16.
