data_PCOD9414785
_publ_section_title
;
Structure prediction by ZEFSAII (Michael W. Deem and Ramdas Pophale) SiO2 
 PCOD9414785
Probable space group: P M N A
;
_chemical_formula_sum "Si O2"
_cell_formula_units_Z 64
_cell_length_a 16.016637
_cell_length_b 13.255152
_cell_length_c 14.517393
_cell_angle_alpha 90.000000
_cell_angle_beta 90.000000
_cell_angle_gamma 90.000000
_cell_volume 3082.085476
_symmetry_space_group_name_H-M "P M N A"
_symmetry_group_IT_number 53
_symmetry_cell_setting 'orthorhombic'
loop_
_space_group_symop_operation_xyz
x,y,z
1/2-x,-y,1/2+z
x,-y,-z
1/2-x,y,1/2-z
-x,-y,-z
1/2+x,y,1/2-z
-x,y,z
1/2+x,-y,1/2+z
loop_
_atom_site_type_symbol
_atom_site_label
_atom_site_fract_x
_atom_site_fract_y
_atom_site_fract_z
Si Si1 0.595923 0.521057 0.628531
Si Si2 0.136180 0.891236 0.004012
Si Si3 0.096034 0.698579 0.114386
Si Si4 0.236150 0.850555 0.642009
Si Si5 0.786845 0.932616 0.354242
Si Si6 0.405021 0.520766 0.149758
Si Si7 0.760919 0.629335 0.638399
Si Si8 0.400344 0.749441 0.182910
O O1 0.500000 0.546597 0.600422
O O2 0.627138 0.412786 0.589487
O O3 0.594081 0.501742 0.739467
O O4 0.667190 0.602161 0.607312
O O5 0.096718 0.789416 0.042615
O O6 0.214051 0.909189 0.073213
O O7 0.174500 0.870298 0.904621
O O8 0.091487 0.000000 0.000000
O O9 0.132496 0.737455 0.211416
O O10 0.000000 0.675457 0.136737
O O11 0.250000 0.842116 0.750000
O O12 0.209162 0.740478 0.608354
O O13 0.183789 0.952463 0.625056
O O14 0.750000 0.934296 0.250000
O O15 0.853974 0.844256 0.360290
O O16 0.500000 0.499842 0.117298
O O17 0.331071 0.451688 0.111554
O O18 0.386527 0.639636 0.138241
O O19 0.750000 0.627104 0.750000
O O20 0.500000 0.767370 0.184310
#
# Coordination Sequence:
#
# PCOD9414785 Si02
#       8
#     8   8   8   8   8   8   8   8
#     4   8  15  27  46  75 107 137 172 217 267 324
#     4  10  20  33  52  76 104 144 180 217 267 317
#     4   9  17  30  49  79 115 138 166 216 273 337
#     4   9  20  36  51  72 102 140 190 226 249 309
#     4  10  18  31  55  79 104 136 173 219 269 321
#     4   8  15  26  45  77 107 133 172 219 272 325
#     4   9  16  29  51  70 100 144 183 218 265 317
#     4   9  17  29  50  83 114 135 166 220 278 332
#
# _framework density 20.765160999999999
#
# number of rings (size 3 to 8) (size 9 to 14) (size 15 to 20)
#    0.000    3.000    1.250    1.500    1.750    0.750 
#    0.000    1.875    0.000   11.625    0.000    1.750 
#    0.000    0.000    0.000    0.000    0.000    0.000 
#
# Total GULP energy -356508.539486 kJ/mol
# GULP energy per Si atom -5570.445929 kJ/mol
# Density = 2.071790 g / cm^3
# Si number density = 20.765161 Si / 1000 Ang^3
#
#
#
# Elastic Constant Matrix: (Units=GPa)
#
#
# Indices 1 2 3 4 5 6 
#
# 1 84.7698 76.1152 16.0487 0.0000 0.0000 0.0000
# 2 76.1152 160.8265 2.7115 0.0000 0.0000 0.0000
# 3 16.0487 2.7115 48.3372 0.0000 0.0000 0.0000
# 4 0.0000 0.0000 0.0000 43.1469 0.0000 0.0000
# 5 0.0000 0.0000 0.0000 0.0000 1.0626 0.0000
# 6 0.0000 0.0000 0.0000 0.0000 0.0000 83.7549
#
#
#
# Elastic Compliance Matrix: (Units=1/GPa)
#
#
# Indices 1 2 3 4 5 6 
#
# 1 0.022608 -0.010583 -0.006913 0.000000 0.000000 0.000000
# 2 -0.010583 0.011178 0.002887 0.000000 0.000000 0.000000
# 3 -0.006913 0.002887 0.022821 0.000000 0.000000 0.000000
# 4 0.000000 0.000000 0.000000 0.023177 0.000000 0.000000
# 5 0.000000 0.000000 0.000000 0.000000 0.941128 0.000000
# 6 0.000000 0.000000 0.000000 0.000000 0.000000 0.011940
#
#
# Mechanical properties :
#
#
# Convention : Reuss Voigt Hill
#
# Bulk Modulus (GPa) = 36.51085 53.74270 45.12678
# Shear Modulus (GPa) = 4.66766 38.86343 21.76555
#
# Velocity S-wave (km/s) = 1.50090 4.33086 3.24107
# Velocity P-wave (km/s) = 4.54142 7.13763 5.98207
#
# Compressibility (1/GPa) = 0.02738912
#
# Stress axis : x y z
#
# Youngs Moduli (GPa) = 44.23176 89.46105 43.81896
#
# Poissons Ratio (x) = 0.94680 0.30290
# Poissons Ratio (y) = 0.46812 -0.12650
# Poissons Ratio (z) = 0.30576 -0.25826
#
# Static dielectric constant tensor:
#      x y z
#    x 1.723390 0.000000 0.000000 
#    y 0.000000 1.808320 0.000000 
#    z 0.000000 0.000000 1.770220 
# 
# From -- ./inp_files/29116.got.cif
#   From: 2010.05.17/outbox.cif.g08.bks.cpg/sg53_15_cif.got.tgz:29116.got - 2010.06.03 12:45:16.
