data_PCOD9414682
_publ_section_title
;
Structure prediction by ZEFSAII (Michael W. Deem and Ramdas Pophale) SiO2 
 PCOD9414682
Probable space group: P M N A
;
_chemical_formula_sum "Si O2"
_cell_formula_units_Z 64
_cell_length_a 8.772791
_cell_length_b 17.444573
_cell_length_c 25.818745
_cell_angle_alpha 90.000000
_cell_angle_beta 90.000000
_cell_angle_gamma 90.000000
_cell_volume 3951.238589
_symmetry_space_group_name_H-M "P M N A"
_symmetry_group_IT_number 53
_symmetry_cell_setting 'orthorhombic'
loop_
_space_group_symop_operation_xyz
x,y,z
1/2-x,-y,1/2+z
x,-y,-z
1/2-x,y,1/2-z
-x,-y,-z
1/2+x,y,1/2-z
-x,y,z
1/2+x,-y,1/2+z
loop_
_atom_site_type_symbol
_atom_site_label
_atom_site_fract_x
_atom_site_fract_y
_atom_site_fract_z
Si Si1 0.317263 0.343241 0.061189
Si Si2 0.176162 0.496785 0.937174
Si Si3 0.317803 0.918810 0.693546
Si Si4 0.817517 0.822098 0.601441
Si Si5 0.182086 0.914293 0.306438
Si Si6 0.817141 0.910138 0.996599
Si Si7 0.681685 0.817462 0.398282
Si Si8 0.681510 0.663325 0.060677
O O1 0.500000 0.352458 0.062848
O O2 0.241727 0.421641 0.080498
O O3 0.275055 0.266625 0.091847
O O4 0.276527 0.330858 0.000510
O O5 0.269067 0.421393 0.921381
O O6 0.000000 0.488276 0.922747
O O7 0.185528 0.500000 0.000000
O O8 0.250000 0.900049 0.750000
O O9 0.500000 0.923230 0.696106
O O10 0.263860 0.858827 0.650736
O O11 0.251251 0.002519 0.679287
O O12 0.767562 0.869262 0.550618
O O13 0.000000 0.826751 0.607353
O O14 0.250000 0.894995 0.250000
O O15 0.233975 0.854095 0.349443
O O16 0.000000 0.919789 0.303340
O O17 0.000000 0.904239 0.988024
O O18 0.781360 0.867310 0.050347
O O19 0.778445 0.000000 0.000000
O O20 0.500000 0.821089 0.390458
O O21 0.734522 0.731103 0.409440
O O22 0.500000 0.672549 0.064854
#
# Coordination Sequence:
#
# PCOD9414682 Si02
#       8
#     8   8   8   8   8   8   8   8
#     4   9  18  31  47  70 102 137 171 208 252 305
#     4   9  17  28  45  69  97 132 172 211 253 301
#     4  11  22  38  57  77 101 132 173 219 265 306
#     4  11  21  34  52  76 104 136 173 212 256 307
#     4  11  22  38  58  78 101 132 173 219 265 308
#     4  10  21  34  48  69 101 139 173 208 253 306
#     4  11  21  33  51  76 107 138 173 214 257 306
#     4  10  18  31  48  70 102 139 174 210 254 304
#
# _framework density 16.197451999999998
#
# number of rings (size 3 to 8) (size 9 to 14) (size 15 to 20)
#    0.000    1.750    1.250    5.250    0.000    4.750 
#    0.000    0.000    0.000    0.000    0.000    0.875 
#    0.000    4.000    0.000    0.000    0.000    0.000 
#
# Total GULP energy -357366.300229 kJ/mol
# GULP energy per Si atom -5583.848441 kJ/mol
# Density = 1.616059 g / cm^3
# Si number density = 16.197452 Si / 1000 Ang^3
#
#
#
# Elastic Constant Matrix: (Units=GPa)
#
#
# Indices 1 2 3 4 5 6 
#
# 1 89.5725 54.9969 41.8534 0.0000 0.0000 0.0000
# 2 54.9969 127.7685 57.4817 0.0000 0.0000 0.0000
# 3 41.8534 57.4817 59.8324 0.0000 0.0000 0.0000
# 4 0.0000 0.0000 0.0000 13.7883 0.0000 0.0000
# 5 0.0000 0.0000 0.0000 0.0000 24.3054 0.0000
# 6 0.0000 0.0000 0.0000 0.0000 0.0000 30.1074
#
#
#
# Elastic Compliance Matrix: (Units=1/GPa)
#
#
# Indices 1 2 3 4 5 6 
#
# 1 0.017458 -0.003559 -0.008793 0.000000 0.000000 0.000000
# 2 -0.003559 0.014510 -0.011451 0.000000 0.000000 0.000000
# 3 -0.008793 -0.011451 0.033865 0.000000 0.000000 0.000000
# 4 0.000000 0.000000 0.000000 0.072525 0.000000 0.000000
# 5 0.000000 0.000000 0.000000 0.000000 0.041143 0.000000
# 6 0.000000 0.000000 0.000000 0.000000 0.000000 0.033214
#
#
# Mechanical properties :
#
#
# Convention : Reuss Voigt Hill
#
# Bulk Modulus (GPa) = 54.86053 65.09306 59.97679
# Shear Modulus (GPa) = 18.76908 21.82965 20.29937
#
# Velocity S-wave (km/s) = 3.40776 3.67512 3.54396
# Velocity P-wave (km/s) = 7.03044 7.63434 7.33860
#
# Compressibility (1/GPa) = 0.01822804
#
# Stress axis : x y z
#
# Youngs Moduli (GPa) = 57.28116 68.91836 29.52915
#
# Poissons Ratio (x) = 0.24526 0.25965
# Poissons Ratio (y) = 0.20384 0.33812
# Poissons Ratio (z) = 0.50368 0.78915
#
# Static dielectric constant tensor:
#      x y z
#    x 1.541210 0.000000 0.000000 
#    y 0.000000 1.536480 0.000000 
#    z 0.000000 0.000000 1.516910 
# 
# From -- ./inp_files/34344.got.cif
#   From: 2010.05.17/outbox.cif.g08.bks.cpg/sg53_18_cif.got.tgz:34344.got - 2010.06.03 12:45:16.
