data_PCOD9414868
_publ_section_title
;
Structure prediction by ZEFSAII (Michael W. Deem and Ramdas Pophale) SiO2 
 PCOD9414868
Probable space group: P M N A
;
_chemical_formula_sum "Si O2"
_cell_formula_units_Z 48
_cell_length_a 8.422693
_cell_length_b 17.086047
_cell_length_c 18.523208
_cell_angle_alpha 90.000000
_cell_angle_beta 90.000000
_cell_angle_gamma 90.000000
_cell_volume 2665.684652
_symmetry_space_group_name_H-M "P M N A"
_symmetry_group_IT_number 53
_symmetry_cell_setting 'orthorhombic'
loop_
_space_group_symop_operation_xyz
x,y,z
1/2-x,-y,1/2+z
x,-y,-z
1/2-x,y,1/2-z
-x,-y,-z
1/2+x,y,1/2-z
-x,y,z
1/2+x,-y,1/2+z
loop_
_atom_site_type_symbol
_atom_site_label
_atom_site_fract_x
_atom_site_fract_y
_atom_site_fract_z
Si Si1 0.190603 0.851378 0.168507
Si Si2 0.693460 0.584725 0.974841
Si Si3 0.806395 0.993406 0.916361
Si Si4 0.688826 0.664535 0.828245
Si Si5 0.189262 0.179701 0.102910
Si Si6 0.309769 0.746187 0.043811
O O1 0.250000 0.847424 0.250000
O O2 0.254378 0.780848 0.119361
O O3 0.000000 0.850160 0.167265
O O4 0.245287 0.932211 0.130154
O O5 0.500000 0.581839 0.972976
O O6 0.747798 0.611396 0.895075
O O7 0.750777 0.500000 0.000000
O O8 0.735660 0.656114 0.028191
O O9 0.755548 0.909295 0.885339
O O10 0.000000 0.993548 0.916975
O O11 0.755452 0.000000 0.000000
O O12 0.750000 0.641305 0.750000
O O13 0.500000 0.660372 0.828257
O O14 0.737073 0.753637 0.846865
O O15 0.000000 0.182500 0.111155
O O16 0.232920 0.203345 0.020825
O O17 0.500000 0.752089 0.037200
#
# Coordination Sequence:
#
# PCOD9414868 Si02
#       6
#     8   8   8   8   8   8
#     4  11  22  37  54  74 105 141 181 224 269 312
#     4   8  16  33  57  81 105 136 173 214 260 315
#     4   9  17  32  53  76 101 138 181 220 262 309
#     4  10  20  34  53  79 110 140 175 217 268 322
#     4  10  18  32  55  78 104 139 177 216 260 311
#     4  10  19  33  54  80 106 135 174 213 257 316
#
# _framework density 18.006630000000001
#
# number of rings (size 3 to 8) (size 9 to 14) (size 15 to 20)
#    0.000    2.333    1.667    3.000    0.000    0.667 
#    0.000    6.667    0.000   20.000    0.000    0.000 
#    0.000    0.000    0.000    0.000    0.000    0.000 
#
# Total GULP energy -267788.632992 kJ/mol
# GULP energy per Si atom -5578.929854 kJ/mol
# Density = 1.796565 g / cm^3
# Si number density = 18.006630 Si / 1000 Ang^3
#
#
#
# Elastic Constant Matrix: (Units=GPa)
#
#
# Indices 1 2 3 4 5 6 
#
# 1 26.4314 17.6646 13.8852 0.0000 0.0000 0.0000
# 2 17.6646 156.4998 81.4854 0.0000 0.0000 0.0000
# 3 13.8852 81.4854 132.7496 0.0000 0.0000 0.0000
# 4 0.0000 0.0000 0.0000 3.5880 0.0000 0.0000
# 5 0.0000 0.0000 0.0000 0.0000 29.5099 0.0000
# 6 0.0000 0.0000 0.0000 0.0000 0.0000 21.3175
#
#
#
# Elastic Compliance Matrix: (Units=1/GPa)
#
#
# Indices 1 2 3 4 5 6 
#
# 1 0.041332 -0.003548 -0.002145 0.000000 0.000000 0.000000
# 2 -0.003548 0.009696 -0.005580 0.000000 0.000000 0.000000
# 3 -0.002145 -0.005580 0.011183 0.000000 0.000000 0.000000
# 4 0.000000 0.000000 0.000000 0.278710 0.000000 0.000000
# 5 0.000000 0.000000 0.000000 0.000000 0.033887 0.000000
# 6 0.000000 0.000000 0.000000 0.000000 0.000000 0.046910
#
#
# Mechanical properties :
#
#
# Convention : Reuss Voigt Hill
#
# Bulk Modulus (GPa) = 25.21246 60.19459 42.70352
# Shear Modulus (GPa) = 10.92929 24.39277 17.66103
#
# Velocity S-wave (km/s) = 2.46633 3.68456 3.13518
# Velocity P-wave (km/s) = 4.70558 7.18352 6.07229
#
# Compressibility (1/GPa) = 0.03966293
#
# Stress axis : x y z
#
# Youngs Moduli (GPa) = 24.19423 103.13629 89.42308
#
# Poissons Ratio (x) = 0.36597 0.19182
# Poissons Ratio (y) = 0.08585 0.49902
# Poissons Ratio (z) = 0.05190 0.57555
#
# Static dielectric constant tensor:
#      x y z
#    x 1.619650 0.000000 0.000000 
#    y 0.000000 1.622670 0.000000 
#    z 0.000000 0.000000 1.605410 
# 
# From -- ./inp_files/26437.got.cif
#   From: 2010.05.17/outbox.cif.g08.bks.cpg/sg53_14_cif.got.tgz:26437.got - 2010.06.03 12:45:16.
