data_PCOD9414122
_publ_section_title
;
Structure prediction by ZEFSAII (Michael W. Deem and Ramdas Pophale) SiO2 
 PCOD9414122
Probable space group: P M N A
;
_chemical_formula_sum "Si O2"
_cell_formula_units_Z 24
_cell_length_a 8.148225
_cell_length_b 10.631696
_cell_length_c 15.512578
_cell_angle_alpha 90.000000
_cell_angle_beta 90.000000
_cell_angle_gamma 90.000000
_cell_volume 1343.846118
_symmetry_space_group_name_H-M "P M N A"
_symmetry_group_IT_number 53
_symmetry_cell_setting 'orthorhombic'
loop_
_space_group_symop_operation_xyz
x,y,z
1/2-x,-y,1/2+z
x,-y,-z
1/2-x,y,1/2-z
-x,-y,-z
1/2+x,y,1/2-z
-x,y,z
1/2+x,-y,1/2+z
loop_
_atom_site_type_symbol
_atom_site_label
_atom_site_fract_x
_atom_site_fract_y
_atom_site_fract_z
Si Si1 0.000000 0.888710 0.425850
Si Si2 0.308341 0.287066 0.346790
Si Si3 0.500000 0.361613 0.038307
Si Si4 0.676303 0.994610 0.395253
O O1 0.000000 0.753882 0.470618
O O2 0.834497 0.913182 0.373325
O O3 0.000000 0.000000 0.500000
O O4 0.250000 0.313499 0.250000
O O5 0.500000 0.324587 0.360865
O O6 0.168217 0.344273 0.407702
O O7 0.302529 0.136422 0.362303
O O8 0.500000 0.500000 0.000000
O O9 0.500000 0.945679 0.365010
O O10 0.668915 0.000000 0.500000
#
# Coordination Sequence:
#
# PCOD9414122 Si02
#       4
#     4   8   4   8
#     4  10  16  32  58  78 116 138 183 229 277 329
#     4  11  21  35  59  90 115 149 196 250 294 348
#     4  12  24  38  56  92 114 162 203 240 291 358
#     4   9  16  28  52  84 114 137 178 229 283 332
#
# _framework density 17.859188
#
# number of rings (size 3 to 8) (size 9 to 14) (size 15 to 20)
#    0.000    1.667    8.333    0.000    0.000    0.667 
#    0.000    0.000    0.000    2.000    0.000    0.000 
#    0.000    0.000    0.000    0.000    0.000    0.000 
#
# Total GULP energy -133701.712674 kJ/mol
# GULP energy per Si atom -5570.904695 kJ/mol
# Density = 1.781854 g / cm^3
# Si number density = 17.859188 Si / 1000 Ang^3
#
#
#
# Elastic Constant Matrix: (Units=GPa)
#
#
# Indices 1 2 3 4 5 6 
#
# 1 255.7306 73.2708 55.2570 0.0000 0.0000 0.0000
# 2 73.2708 92.8565 27.1800 0.0000 0.0000 0.0000
# 3 55.2570 27.1800 23.4495 0.0000 0.0000 0.0000
# 4 0.0000 0.0000 0.0000 11.3583 0.0000 0.0000
# 5 0.0000 0.0000 0.0000 0.0000 21.5736 0.0000
# 6 0.0000 0.0000 0.0000 0.0000 0.0000 47.4576
#
#
#
# Elastic Compliance Matrix: (Units=1/GPa)
#
#
# Indices 1 2 3 4 5 6 
#
# 1 0.008056 -0.001211 -0.017579 0.000000 0.000000 0.000000
# 2 -0.001211 0.016481 -0.016250 0.000000 0.000000 0.000000
# 3 -0.017579 -0.016250 0.102903 0.000000 0.000000 0.000000
# 4 0.000000 0.000000 0.000000 0.088041 0.000000 0.000000
# 5 0.000000 0.000000 0.000000 0.000000 0.046353 0.000000
# 6 0.000000 0.000000 0.000000 0.000000 0.000000 0.021071
#
#
# Mechanical properties :
#
#
# Convention : Reuss Voigt Hill
#
# Bulk Modulus (GPa) = 17.43346 75.93915 46.68630
# Shear Modulus (GPa) = 13.43704 30.49983 21.96844
#
# Velocity S-wave (km/s) = 2.74595 4.13703 3.51107
# Velocity P-wave (km/s) = 4.45381 8.08909 6.52954
#
# Compressibility (1/GPa) = 0.05736097
#
# Stress axis : x y z
#
# Youngs Moduli (GPa) = 124.13515 60.67479 9.71786
#
# Poissons Ratio (x) = 0.07348 0.17083
# Poissons Ratio (y) = 0.15033 0.15791
# Poissons Ratio (z) = 2.18218 0.98594
#
# Static dielectric constant tensor:
#      x y z
#    x 1.722000 0.000000 0.000000 
#    y 0.000000 1.540010 0.000000 
#    z 0.000000 0.000000 1.624090 
# 
# From -- ./inp_files/19341.got.cif
#   From: 2010.05.17/outbox.cif.g08.bks.cpg/sg53_10_cif.got.tgz:19341.got - 2010.06.03 12:45:16.
