data_PCOD9414338
_publ_section_title
;
Structure prediction by ZEFSAII (Michael W. Deem and Ramdas Pophale) SiO2 
 PCOD9414338
Probable space group: P M N A
;
_chemical_formula_sum "Si O2"
_cell_formula_units_Z 64
_cell_length_a 8.826121
_cell_length_b 21.034846
_cell_length_c 23.241767
_cell_angle_alpha 90.000000
_cell_angle_beta 90.000000
_cell_angle_gamma 90.000000
_cell_volume 4314.975726
_symmetry_space_group_name_H-M "P M N A"
_symmetry_group_IT_number 53
_symmetry_cell_setting 'orthorhombic'
loop_
_space_group_symop_operation_xyz
x,y,z
1/2-x,-y,1/2+z
x,-y,-z
1/2-x,y,1/2-z
-x,-y,-z
1/2+x,y,1/2-z
-x,y,z
1/2+x,-y,1/2+z
loop_
_atom_site_type_symbol
_atom_site_label
_atom_site_fract_x
_atom_site_fract_y
_atom_site_fract_z
Si Si1 0.820257 0.108537 0.402569
Si Si2 0.325467 0.981377 0.432144
Si Si3 0.819616 0.716899 0.476442
Si Si4 0.181803 0.682058 0.899550
Si Si5 0.318180 0.150669 0.525001
Si Si6 0.819602 0.544363 0.923186
Si Si7 0.318504 0.794459 0.686678
Si Si8 0.319155 0.578301 0.047883
O O1 0.753347 0.136497 0.462339
O O2 0.747322 0.147626 0.350664
O O3 0.000000 0.115890 0.402754
O O4 0.774298 0.034296 0.401236
O O5 0.500000 0.986229 0.412574
O O6 0.275601 0.907936 0.433164
O O7 0.324418 0.000000 0.500000
O O8 0.764290 0.703561 0.541875
O O9 0.737926 0.780510 0.455681
O O10 0.785908 0.652389 0.440784
O O11 0.000000 0.726328 0.476892
O O12 0.217010 0.607924 0.887159
O O13 0.220115 0.730212 0.848633
O O14 0.000000 0.686020 0.910100
O O15 0.500000 0.149396 0.518845
O O16 0.740290 0.477149 0.910295
O O17 0.000000 0.535354 0.923823
O O18 0.762009 0.563879 0.986965
O O19 0.250000 0.793411 0.750000
O O20 0.500000 0.799406 0.689253
O O21 0.500000 0.571901 0.040724
#
# Coordination Sequence:
#
# PCOD9414338 Si02
#       8
#     8   8   8   8   8   8   8   8
#     4  11  20  30  45  63  81 104 137 174 212 254
#     4   8  16  29  43  59  80 107 136 167 206 249
#     4  10  18  25  38  58  82 109 140 170 202 244
#     4   9  18  30  43  56  75 104 136 171 213 250
#     4  10  18  28  42  60  83 111 141 171 207 248
#     4   9  15  24  38  54  70  97 135 167 196 239
#     4  11  22  35  48  62  82 108 140 180 220 256
#     4   9  16  24  33  52  78 104 130 164 201 233
#
# _framework density 14.832065
#
# number of rings (size 3 to 8) (size 9 to 14) (size 15 to 20)
#    0.000    2.375    1.250    4.500    0.000    5.250 
#    0.000    0.000    0.000    0.000    0.000    0.000 
#    0.000    0.000    0.000    1.125    0.000   17.500 
#
# Total GULP energy -356422.353953 kJ/mol
# GULP energy per Si atom -5569.099281 kJ/mol
# Density = 1.479831 g / cm^3
# Si number density = 14.832065 Si / 1000 Ang^3
#
#
#
# Elastic Constant Matrix: (Units=GPa)
#
#
# Indices 1 2 3 4 5 6 
#
# 1 60.8525 52.7386 21.6424 0.0000 0.0000 0.0000
# 2 52.7386 159.9861 34.9217 0.0000 0.0000 0.0000
# 3 21.6424 34.9217 34.5912 0.0000 0.0000 0.0000
# 4 0.0000 0.0000 0.0000 9.5813 0.0000 0.0000
# 5 0.0000 0.0000 0.0000 0.0000 13.2326 0.0000
# 6 0.0000 0.0000 0.0000 0.0000 0.0000 26.6183
#
#
#
# Elastic Compliance Matrix: (Units=1/GPa)
#
#
# Indices 1 2 3 4 5 6 
#
# 1 0.025213 -0.006244 -0.009471 0.000000 0.000000 0.000000
# 2 -0.006244 0.009564 -0.005748 0.000000 0.000000 0.000000
# 3 -0.009471 -0.005748 0.040638 0.000000 0.000000 0.000000
# 4 0.000000 0.000000 0.000000 0.104370 0.000000 0.000000
# 5 0.000000 0.000000 0.000000 0.000000 0.075571 0.000000
# 6 0.000000 0.000000 0.000000 0.000000 0.000000 0.037568
#
#
# Mechanical properties :
#
#
# Convention : Reuss Voigt Hill
#
# Bulk Modulus (GPa) = 30.78086 52.67058 41.72572
# Shear Modulus (GPa) = 14.42251 19.62824 17.02538
#
# Velocity S-wave (km/s) = 3.12170 3.64176 3.39171
# Velocity P-wave (km/s) = 5.81303 7.29874 6.59783
#
# Compressibility (1/GPa) = 0.03248772
#
# Stress axis : x y z
#
# Youngs Moduli (GPa) = 39.66195 104.56325 24.60744
#
# Poissons Ratio (x) = 0.65289 0.23306
# Poissons Ratio (y) = 0.24765 0.14145
# Poissons Ratio (z) = 0.37565 0.60106
#
# Static dielectric constant tensor:
#      x y z
#    x 1.494090 0.000000 0.000000 
#    y 0.000000 1.565520 0.000000 
#    z 0.000000 0.000000 1.440490 
# 
# From -- ./inp_files/34571.got.cif
#   From: 2010.05.17/outbox.cif.g08.bks.cpg/sg53_18_cif.got.tgz:34571.got - 2010.06.03 12:45:16.
