data_PCOD9414193
_publ_section_title
;
Structure prediction by ZEFSAII (Michael W. Deem and Ramdas Pophale) SiO2 
 PCOD9414193
Probable space group: P M N A
;
_chemical_formula_sum "Si O2"
_cell_formula_units_Z 56
_cell_length_a 8.392069
_cell_length_b 14.078203
_cell_length_c 29.404835
_cell_angle_alpha 90.000000
_cell_angle_beta 90.000000
_cell_angle_gamma 90.000000
_cell_volume 3474.041611
_symmetry_space_group_name_H-M "P M N A"
_symmetry_group_IT_number 53
_symmetry_cell_setting 'orthorhombic'
loop_
_space_group_symop_operation_xyz
x,y,z
1/2-x,-y,1/2+z
x,-y,-z
1/2-x,y,1/2-z
-x,-y,-z
1/2+x,y,1/2-z
-x,y,z
1/2+x,-y,1/2+z
loop_
_atom_site_type_symbol
_atom_site_label
_atom_site_fract_x
_atom_site_fract_y
_atom_site_fract_z
Si Si1 0.191342 0.010235 0.299555
Si Si2 0.807742 0.076258 0.606876
Si Si3 0.689575 0.299045 0.393045
Si Si4 0.312213 0.104442 0.448573
Si Si5 0.189106 0.215010 0.533170
Si Si6 0.192352 0.601152 0.981873
Si Si7 0.191684 0.227112 0.200400
O O1 0.250000 0.978314 0.250000
O O2 0.251994 0.118226 0.306303
O O3 0.000000 0.013004 0.299315
O O4 0.246709 0.945792 0.341830
O O5 0.753255 0.171551 0.581067
O O6 0.000000 0.078684 0.607511
O O7 0.755445 0.987441 0.576030
O O8 0.500000 0.317803 0.389486
O O9 0.707185 0.194564 0.415083
O O10 0.754126 0.370530 0.431428
O O11 0.752152 0.290635 0.341778
O O12 0.500000 0.092330 0.457482
O O13 0.227603 0.135475 0.494995
O O14 0.266104 0.312201 0.515490
O O15 0.000000 0.229195 0.535035
O O16 0.000000 0.597274 0.979109
O O17 0.250744 0.500000 0.000000
O O18 0.250000 0.258124 0.250000
O O19 0.000000 0.226351 0.199912
#
# Coordination Sequence:
#
# PCOD9414193 Si02
#       7
#     8   8   8   8   8   8   8
#     4  10  19  30  43  61  87 121 160 192 226 261
#     4  10  20  31  43  62  92 126 155 187 227 269
#     4   8  15  27  43  64  89 117 145 180 226 268
#     4  10  18  29  44  64  91 123 158 189 221 259
#     4  10  20  32  45  65  93 121 151 184 225 277
#     4   9  18  34  53  71  90 113 148 193 237 280
#     4  10  17  27  41  61  89 120 153 184 219 262
#
# _framework density 16.119554000000001
#
# number of rings (size 3 to 8) (size 9 to 14) (size 15 to 20)
#    0.000    2.429    1.429    3.857    0.000    3.714 
#    0.000    0.714    0.000    0.000    0.000    1.000 
#    0.000    6.857    0.000    0.000    0.000    0.000 
#
# Total GULP energy -312050.753288 kJ/mol
# GULP energy per Si atom -5572.334880 kJ/mol
# Density = 1.608287 g / cm^3
# Si number density = 16.119554 Si / 1000 Ang^3
#
#
#
# Elastic Constant Matrix: (Units=GPa)
#
#
# Indices 1 2 3 4 5 6 
#
# 1 14.8627 6.2011 21.0154 0.0000 0.0000 0.0000
# 2 6.2011 66.6643 72.0252 0.0000 0.0000 0.0000
# 3 21.0154 72.0252 134.1799 0.0000 0.0000 0.0000
# 4 0.0000 0.0000 0.0000 -1.2149 0.0000 0.0000
# 5 0.0000 0.0000 0.0000 0.0000 -0.3343 0.0000
# 6 0.0000 0.0000 0.0000 0.0000 0.0000 10.1889
#
#
#
# Elastic Compliance Matrix: (Units=1/GPa)
#
#
# Indices 1 2 3 4 5 6 
#
# 1 0.093898 0.017033 -0.023849 0.000000 0.000000 0.000000
# 2 0.017033 0.038801 -0.023495 0.000000 0.000000 0.000000
# 3 -0.023849 -0.023495 0.023800 0.000000 0.000000 0.000000
# 4 0.000000 0.000000 0.000000 -0.823105 0.000000 0.000000
# 5 0.000000 0.000000 0.000000 0.000000 -2.991424 0.000000
# 6 0.000000 0.000000 0.000000 0.000000 0.000000 0.098146
#
#
# Mechanical properties :
#
#
# Convention : Reuss Voigt Hill
#
# Bulk Modulus (GPa) = 10.43020 46.02115 28.22568
# Shear Modulus (GPa) = -1.44204 9.49229 4.02512
#
# Velocity S-wave (km/s) = -0.94686 2.42929 1.58192
# Velocity P-wave (km/s) = 2.29983 6.03991 4.56999
#
# Compressibility (1/GPa) = 0.09587540
#
# Stress axis : x y z
#
# Youngs Moduli (GPa) = 10.64981 25.77273 42.01725
#
# Poissons Ratio (x) = -0.43898 1.00208
# Poissons Ratio (y) = -0.18140 0.98720
# Poissons Ratio (z) = 0.25399 0.60553
#
# Static dielectric constant tensor:
#      x y z
#    x 1.551920 0.000000 0.000000 
#    y 0.000000 1.518170 0.000000 
#    z 0.000000 0.000000 1.585250 
# 
# From -- ./inp_files/38365.got.cif
#   From: 2010.05.17/outbox.cif.g08.bks.cpg/sg53_20_cif.got.tgz:38365.got - 2010.06.03 12:45:16.
