data_PCOD9414058
_publ_section_title
;
Structure prediction by ZEFSAII (Michael W. Deem and Ramdas Pophale) SiO2 
 PCOD9414058
Probable space group: P M N A
;
_chemical_formula_sum "Si O2"
_cell_formula_units_Z 48
_cell_length_a 14.094191
_cell_length_b 5.350624
_cell_length_c 28.959856
_cell_angle_alpha 90.000000
_cell_angle_beta 90.000000
_cell_angle_gamma 90.000000
_cell_volume 2183.941414
_symmetry_space_group_name_H-M "P M N A"
_symmetry_group_IT_number 53
_symmetry_cell_setting 'orthorhombic'
loop_
_space_group_symop_operation_xyz
x,y,z
1/2-x,-y,1/2+z
x,-y,-z
1/2-x,y,1/2-z
-x,-y,-z
1/2+x,y,1/2-z
-x,y,z
1/2+x,-y,1/2+z
loop_
_atom_site_type_symbol
_atom_site_label
_atom_site_fract_x
_atom_site_fract_y
_atom_site_fract_z
Si Si1 0.398057 0.390604 0.550843
Si Si2 0.860232 0.215360 0.232771
Si Si3 0.641283 0.280676 0.770051
Si Si4 0.309887 0.243656 0.970105
Si Si5 0.813202 0.679974 0.868768
Si Si6 0.812643 0.181843 0.629060
O O1 0.406473 0.500000 0.500000
O O2 0.500000 0.269943 0.563117
O O3 0.301446 0.231468 0.545973
O O4 0.376596 0.614150 0.586884
O O5 0.750000 0.189939 0.250000
O O6 0.898086 0.443846 0.262747
O O7 0.866353 0.283052 0.179234
O O8 0.900028 0.941329 0.239841
O O9 0.750000 0.306581 0.750000
O O10 0.632888 0.184813 0.822481
O O11 0.361909 0.232116 0.920449
O O12 0.321940 0.500000 0.000000
O O13 0.332099 0.000000 0.000000
O O14 0.753572 0.424954 0.863491
O O15 0.745053 0.920457 0.874229
#
# Coordination Sequence:
#
# PCOD9414058 Si02
#       6
#     8   8   8   8   8   8
#     4   9  19  33  44  54  70  96 133 172 203 228
#     4  10  15  24  37  58  78  90 106 136 184 239
#     4  10  15  24  37  57  76  92 106 134 180 236
#     4  10  20  32  42  56  71  94 126 164 199 229
#     4  11  18  27  42  57  72  93 117 151 197 236
#     4  11  17  26  42  56  73  93 116 144 188 236
#
# _framework density 21.978611999999998
#
# number of rings (size 3 to 8) (size 9 to 14) (size 15 to 20)
#    0.000    1.833    6.667    3.000    0.000    0.333 
#    0.000    8.333    0.000    0.000    0.000    0.000 
#    0.000    0.000    0.000    0.000    0.000    0.000 
#
# Total GULP energy -267316.346134 kJ/mol
# GULP energy per Si atom -5569.090544 kJ/mol
# Density = 2.192859 g / cm^3
# Si number density = 21.978612 Si / 1000 Ang^3
#
#
#
# Elastic Constant Matrix: (Units=GPa)
#
#
# Indices 1 2 3 4 5 6 
#
# 1 42.0910 -4.3793 -7.5132 0.0000 0.0000 0.0000
# 2 -4.3793 103.2627 -18.3282 0.0000 0.0000 0.0000
# 3 -7.5132 -18.3282 123.3241 0.0000 0.0000 0.0000
# 4 0.0000 0.0000 0.0000 38.0659 0.0000 0.0000
# 5 0.0000 0.0000 0.0000 0.0000 -45.0407 0.0000
# 6 0.0000 0.0000 0.0000 0.0000 0.0000 -10.7681
#
#
#
# Elastic Compliance Matrix: (Units=1/GPa)
#
#
# Indices 1 2 3 4 5 6 
#
# 1 0.024194 0.001323 0.001671 0.000000 0.000000 0.000000
# 2 0.001323 0.010019 0.001570 0.000000 0.000000 0.000000
# 3 0.001671 0.001570 0.008444 0.000000 0.000000 0.000000
# 4 0.000000 0.000000 0.000000 0.026270 0.000000 0.000000
# 5 0.000000 0.000000 0.000000 0.000000 -0.022202 0.000000
# 6 0.000000 0.000000 0.000000 0.000000 0.000000 -0.092867
#
#
# Mechanical properties :
#
#
# Convention : Reuss Voigt Hill
#
# Bulk Modulus (GPa) = 19.31192 23.13736 21.22464
# Shear Modulus (GPa) = -131.55418 16.37799 -57.58810
#
# Velocity S-wave (km/s) = -7.74503 2.73276 -5.12433
# Velocity P-wave (km/s) = 8.43652 4.52850 5.03327
#
# Compressibility (1/GPa) = 0.05178149
#
# Stress axis : x y z
#
# Youngs Moduli (GPa) = 41.33283 99.81325 118.43079
#
# Poissons Ratio (x) = -0.13201 -0.19784
# Poissons Ratio (y) = -0.05466 -0.18588
# Poissons Ratio (z) = -0.06905 -0.15666
#
# Static dielectric constant tensor:
#      x y z
#    x 1.842080 0.000000 0.000000 
#    y 0.000000 1.800780 0.000000 
#    z 0.000000 0.000000 1.869770 
# 
# From -- ./inp_files/38991.got.cif
#   From: 2010.05.17/outbox.cif.g08.bks.cpg/sg53_20_cif.got.tgz:38991.got - 2010.06.03 12:45:16.
