data_PCOD9414104
_publ_section_title
;
Structure prediction by ZEFSAII (Michael W. Deem and Ramdas Pophale) SiO2 
 PCOD9414104
Probable space group: P M N A
;
_chemical_formula_sum "Si O2"
_cell_formula_units_Z 44
_cell_length_a 8.246090
_cell_length_b 15.978441
_cell_length_c 19.084338
_cell_angle_alpha 90.000000
_cell_angle_beta 90.000000
_cell_angle_gamma 90.000000
_cell_volume 2514.545935
_symmetry_space_group_name_H-M "P M N A"
_symmetry_group_IT_number 53
_symmetry_cell_setting 'orthorhombic'
loop_
_space_group_symop_operation_xyz
x,y,z
1/2-x,-y,1/2+z
x,-y,-z
1/2-x,y,1/2-z
-x,-y,-z
1/2+x,y,1/2-z
-x,y,z
1/2+x,-y,1/2+z
loop_
_atom_site_type_symbol
_atom_site_label
_atom_site_fract_x
_atom_site_fract_y
_atom_site_fract_z
Si Si1 0.000000 0.937472 0.569302
Si Si2 0.500000 0.241244 0.999206
Si Si3 0.815019 0.206375 0.905124
Si Si4 0.000000 0.426627 0.439160
Si Si5 0.679470 0.499979 0.584548
Si Si6 0.824872 0.008832 0.914918
Si Si7 0.805024 0.649139 0.325258
O O1 0.000000 0.841010 0.547699
O O2 0.000000 0.000000 0.500000
O O3 0.165676 0.960062 0.608283
O O4 0.500000 0.333705 0.030850
O O5 0.666846 0.232188 0.955463
O O6 0.806629 0.106598 0.897288
O O7 0.775474 0.260072 0.836339
O O8 0.000000 0.225486 0.929110
O O9 0.000000 0.500000 0.500000
O O10 0.833310 0.442178 0.397661
O O11 0.669429 0.500000 0.500000
O O12 0.500000 0.523076 0.610786
O O13 0.729441 0.409741 0.614726
O O14 0.000000 0.978921 0.888647
O O15 0.830674 0.000000 0.000000
O O16 0.750000 0.615647 0.250000
O O17 0.000000 0.651620 0.331034
#
# Coordination Sequence:
#
# PCOD9414104 Si02
#       7
#     4   4   8   4   8   8   8
#     4  10  16  28  44  70 106 138 178 210 258 313
#     4  12  20  30  52  78 106 148 180 230 274 327
#     4  11  20  31  48  72 105 146 182 221 270 326
#     4  10  20  32  48  72 100 140 182 220 272 331
#     4  10  20  37  56  74 104 144 183 226 276 332
#     4   9  16  27  43  65  99 141 177 211 252 308
#     4  12  24  38  56  80 112 148 188 232 281 347
#
# _framework density 17.498190000000001
#
# number of rings (size 3 to 8) (size 9 to 14) (size 15 to 20)
#    0.000    1.455    5.455    3.818    0.000    2.182 
#    0.000    0.000    0.000    0.000    0.000    0.000 
#    0.000    1.455    0.364    0.000    0.000    0.000 
#
# Total GULP energy -244992.097626 kJ/mol
# GULP energy per Si atom -5568.002219 kJ/mol
# Density = 1.745836 g / cm^3
# Si number density = 17.498190 Si / 1000 Ang^3
#
#
#
# Elastic Constant Matrix: (Units=GPa)
#
#
# Indices 1 2 3 4 5 6 
#
# 1 216.5349 45.2627 12.3496 0.0000 0.0000 0.0000
# 2 45.2627 91.9392 24.5853 0.0000 0.0000 0.0000
# 3 12.3496 24.5853 35.8924 0.0000 0.0000 0.0000
# 4 0.0000 0.0000 0.0000 12.8545 0.0000 0.0000
# 5 0.0000 0.0000 0.0000 0.0000 27.4525 0.0000
# 6 0.0000 0.0000 0.0000 0.0000 0.0000 20.5525
#
#
#
# Elastic Compliance Matrix: (Units=1/GPa)
#
#
# Indices 1 2 3 4 5 6 
#
# 1 0.005148 -0.002523 -0.000043 0.000000 0.000000 0.000000
# 2 -0.002523 0.014552 -0.009100 0.000000 0.000000 0.000000
# 3 -0.000043 -0.009100 0.034109 0.000000 0.000000 0.000000
# 4 0.000000 0.000000 0.000000 0.077794 0.000000 0.000000
# 5 0.000000 0.000000 0.000000 0.000000 0.036427 0.000000
# 6 0.000000 0.000000 0.000000 0.000000 0.000000 0.048656
#
#
# Mechanical properties :
#
#
# Convention : Reuss Voigt Hill
#
# Bulk Modulus (GPa) = 32.81111 56.52910 44.67010
# Shear Modulus (GPa) = 19.98593 29.64983 24.81788
#
# Velocity S-wave (km/s) = 3.38327 4.12084 3.77013
# Velocity P-wave (km/s) = 5.83557 7.41738 6.67351
#
# Compressibility (1/GPa) = 0.03047748
#
# Stress axis : x y z
#
# Youngs Moduli (GPa) = 194.24952 68.71839 29.31779
#
# Poissons Ratio (x) = 0.17337 0.00127
# Poissons Ratio (y) = 0.49007 0.26678
# Poissons Ratio (z) = 0.00839 0.62532
#
# Static dielectric constant tensor:
#      x y z
#    x 1.681930 0.000000 0.000000 
#    y 0.000000 1.632880 0.000000 
#    z 0.000000 0.000000 1.610060 
# 
# From -- ./inp_files/26128.got.cif
#   From: 2010.05.17/outbox.cif.g08.bks.cpg/sg53_14_cif.got.tgz:26128.got - 2010.06.03 12:45:16.
