data_PCOD9414250
_publ_section_title
;
Structure prediction by ZEFSAII (Michael W. Deem and Ramdas Pophale) SiO2 
 PCOD9414250
Probable space group: P M N A
;
_chemical_formula_sum "Si O2"
_cell_formula_units_Z 64
_cell_length_a 15.676325
_cell_length_b 15.380092
_cell_length_c 14.350156
_cell_angle_alpha 90.000000
_cell_angle_beta 90.000000
_cell_angle_gamma 90.000000
_cell_volume 3459.870264
_symmetry_space_group_name_H-M "P M N A"
_symmetry_group_IT_number 53
_symmetry_cell_setting 'orthorhombic'
loop_
_space_group_symop_operation_xyz
x,y,z
1/2-x,-y,1/2+z
x,-y,-z
1/2-x,y,1/2-z
-x,-y,-z
1/2+x,y,1/2-z
-x,y,z
1/2+x,-y,1/2+z
loop_
_atom_site_type_symbol
_atom_site_label
_atom_site_fract_x
_atom_site_fract_y
_atom_site_fract_z
Si Si1 0.836776 0.169525 0.652345
Si Si2 0.603753 0.246608 0.394943
Si Si3 0.398413 0.832933 0.786730
Si Si4 0.847814 0.144334 0.935200
Si Si5 0.402205 0.095118 0.024247
Si Si6 0.597026 0.706980 0.302570
Si Si7 0.396044 0.403949 0.529284
Si Si8 0.600087 0.024607 0.708058
O O1 0.746738 0.165790 0.600692
O O2 0.901677 0.152177 0.568477
O O3 0.852277 0.255248 0.714080
O O4 0.848879 0.088396 0.722526
O O5 0.500000 0.242226 0.395017
O O6 0.634167 0.236639 0.288467
O O7 0.637200 0.167341 0.458441
O O8 0.629034 0.333546 0.450697
O O9 0.500000 0.814369 0.797207
O O10 0.362629 0.851215 0.889924
O O11 0.387482 0.925796 0.736277
O O12 0.904804 0.212746 0.875991
O O13 0.872781 0.050715 0.895770
O O14 0.500000 0.075339 0.053251
O O15 0.362946 0.000000 0.000000
O O16 0.500000 0.687682 0.273507
O O17 0.631850 0.629514 0.368082
O O18 0.368396 0.500000 0.500000
O O19 0.500000 0.403283 0.532898
O O20 0.500000 0.043917 0.720815
#
# Coordination Sequence:
#
# PCOD9414250 Si02
#       8
#     8   8   8   8   8   8   8   8
#     4  11  19  29  43  67  93 124 162 203 241 274
#     4   9  17  32  48  67  96 126 157 192 243 305
#     4   9  18  30  46  64  82 117 163 202 235 273
#     4  10  19  29  41  65  95 124 155 194 240 288
#     4  10  18  32  49  63  82 118 171 214 238 271
#     4   9  16  28  48  71  96 124 155 193 241 288
#     4   8  14  26  48  77 101 117 141 185 239 294
#     4  10  17  29  45  61  84 120 163 200 234 272
#
# _framework density 18.497803999999999
#
# number of rings (size 3 to 8) (size 9 to 14) (size 15 to 20)
#    0.000    2.500    1.250    5.250    0.000    0.500 
#    2.250    2.500    0.000    0.000    0.000   14.875 
#    0.000    6.000    0.000    0.000    0.000   23.625 
#
# Total GULP energy -356465.190649 kJ/mol
# GULP energy per Si atom -5569.768604 kJ/mol
# Density = 1.845570 g / cm^3
# Si number density = 18.497804 Si / 1000 Ang^3
#
#
#
# Elastic Constant Matrix: (Units=GPa)
#
#
# Indices 1 2 3 4 5 6 
#
# 1 40.1204 9.7814 6.9830 0.0000 0.0000 0.0000
# 2 9.7814 55.5145 38.1774 0.0000 0.0000 0.0000
# 3 6.9830 38.1774 128.2302 0.0000 0.0000 0.0000
# 4 0.0000 0.0000 0.0000 20.5599 0.0000 0.0000
# 5 0.0000 0.0000 0.0000 0.0000 10.8631 0.0000
# 6 0.0000 0.0000 0.0000 0.0000 0.0000 -7.3127
#
#
#
# Elastic Compliance Matrix: (Units=1/GPa)
#
#
# Indices 1 2 3 4 5 6 
#
# 1 0.026044 -0.004544 -0.000065 0.000000 0.000000 0.000000
# 2 -0.004544 0.023444 -0.006732 0.000000 0.000000 0.000000
# 3 -0.000065 -0.006732 0.009806 0.000000 0.000000 0.000000
# 4 0.000000 0.000000 0.000000 0.048638 0.000000 0.000000
# 5 0.000000 0.000000 0.000000 0.000000 0.092054 0.000000
# 6 0.000000 0.000000 0.000000 0.000000 0.000000 -0.136749
#
#
# Mechanical properties :
#
#
# Convention : Reuss Voigt Hill
#
# Bulk Modulus (GPa) = 27.31418 37.08320 32.19869
# Shear Modulus (GPa) = 50.95506 16.08362 33.51934
#
# Velocity S-wave (km/s) = 5.25417 2.95191 4.26146
# Velocity P-wave (km/s) = 7.18378 5.63109 6.45430
#
# Compressibility (1/GPa) = 0.03661102
#
# Stress axis : x y z
#
# Youngs Moduli (GPa) = 38.39635 42.65524 101.97379
#
# Poissons Ratio (x) = 0.19382 0.00668
# Poissons Ratio (y) = 0.17447 0.68653
# Poissons Ratio (z) = 0.00251 0.28717
#
# Static dielectric constant tensor:
#      x y z
#    x 1.697160 0.000000 0.000000 
#    y 0.000000 1.643160 0.000000 
#    z 0.000000 0.000000 1.694500 
# 
# From -- ./inp_files/23986.got.cif
#   From: 2010.05.17/outbox.cif.g08.bks.cpg/sg53_12_cif.got.tgz:23986.got - 2010.06.03 12:45:16.
