data_PCOD9414076
_publ_section_title
;
Structure prediction by ZEFSAII (Michael W. Deem and Ramdas Pophale) SiO2 
 PCOD9414076
Probable space group: P M N A
;
_chemical_formula_sum "Si O2"
_cell_formula_units_Z 32
_cell_length_a 33.544707
_cell_length_b 5.416208
_cell_length_c 7.172909
_cell_angle_alpha 90.000000
_cell_angle_beta 90.000000
_cell_angle_gamma 90.000000
_cell_volume 1303.210764
_symmetry_space_group_name_H-M "P M N A"
_symmetry_group_IT_number 53
_symmetry_cell_setting 'orthorhombic'
loop_
_space_group_symop_operation_xyz
x,y,z
1/2-x,-y,1/2+z
x,-y,-z
1/2-x,y,1/2-z
-x,-y,-z
1/2+x,y,1/2-z
-x,y,z
1/2+x,-y,1/2+z
loop_
_atom_site_type_symbol
_atom_site_label
_atom_site_fract_x
_atom_site_fract_y
_atom_site_fract_z
Si Si1 0.078209 0.282134 0.724757
Si Si2 0.832481 0.531250 0.276328
Si Si3 0.046580 0.779192 0.698391
Si Si4 0.295933 0.028987 0.220799
O O1 0.123201 0.367799 0.756534
O O2 0.051800 0.512207 0.789574
O O3 0.068223 0.251528 0.502973
O O4 0.067089 0.011677 0.795720
O O5 0.827820 0.500000 0.500000
O O6 0.822905 0.255343 0.206087
O O7 0.804085 0.752291 0.206249
O O8 0.000000 0.830874 0.672017
O O9 0.250000 0.097217 0.250000
O O10 0.303812 0.000000 0.000000
#
# Coordination Sequence:
#
# PCOD9414076 Si02
#       4
#     8   8   8   8
#     4  10  16  24  36  53  79 110 157 188 211 253
#     4  10  18  29  46  64  85 116 153 200 219 273
#     4  10  17  23  34  53  85 118 158 186 214 258
#     4  10  21  34  50  69  91 116 153 195 241 284
#
# _framework density 24.554735999999998
#
# number of rings (size 3 to 8) (size 9 to 14) (size 15 to 20)
#    0.000    2.000    2.500    6.000    7.000    0.000 
#    0.000    0.000    0.000    0.000    0.000    0.000 
#    0.000    0.000    0.000    0.000    0.000  145.000 
#
# Total GULP energy -178723.913868 kJ/mol
# GULP energy per Si atom -5585.122308 kJ/mol
# Density = 2.449885 g / cm^3
# Si number density = 24.554736 Si / 1000 Ang^3
#
#
#
# Elastic Constant Matrix: (Units=GPa)
#
#
# Indices 1 2 3 4 5 6 
#
# 1 139.0745 71.7340 -13.1522 0.0000 0.0000 0.0000
# 2 71.7340 261.0862 8.0901 0.0000 0.0000 0.0000
# 3 -13.1522 8.0901 98.1950 0.0000 0.0000 0.0000
# 4 0.0000 0.0000 0.0000 -27.0344 0.0000 0.0000
# 5 0.0000 0.0000 0.0000 0.0000 -45.3080 0.0000
# 6 0.0000 0.0000 0.0000 0.0000 0.0000 48.7845
#
#
#
# Elastic Compliance Matrix: (Units=1/GPa)
#
#
# Indices 1 2 3 4 5 6 
#
# 1 0.008551 -0.002391 0.001342 0.000000 0.000000 0.000000
# 2 -0.002391 0.004508 -0.000692 0.000000 0.000000 0.000000
# 3 0.001342 -0.000692 0.010421 0.000000 0.000000 0.000000
# 4 0.000000 0.000000 0.000000 -0.036990 0.000000 0.000000
# 5 0.000000 0.000000 0.000000 0.000000 -0.022071 0.000000
# 6 0.000000 0.000000 0.000000 0.000000 0.000000 0.020498
#
#
# Mechanical properties :
#
#
# Convention : Reuss Voigt Hill
#
# Bulk Modulus (GPa) = 50.00259 70.18883 60.09571
# Shear Modulus (GPa) = -1012.90243 24.06736 -494.41753
#
# Velocity S-wave (km/s) = -20.33233 3.13413 -14.20529
# Velocity P-wave (km/s) = 23.03903 6.46094 15.63734
#
# Compressibility (1/GPa) = 0.01999897
#
# Stress axis : x y z
#
# Youngs Moduli (GPa) = 116.95189 221.80417 95.96396
#
# Poissons Ratio (x) = 0.53030 -0.12881
# Poissons Ratio (y) = 0.27962 0.06638
# Poissons Ratio (z) = -0.15698 0.15342
#
# Static dielectric constant tensor:
#      x y z
#    x 1.915010 0.000000 0.000000 
#    y 0.000000 1.999290 0.000000 
#    z 0.000000 0.000000 2.095460 
# 
# From -- ./inp_files/12676.got.cif
#   From: 2010.05.17/outbox.cif.g08.bks.cpg/sg53_7_cif.got.tgz:12676.got - 2010.06.03 12:45:16.
