data_PCOD9414770
_publ_section_title
;
Structure prediction by ZEFSAII (Michael W. Deem and Ramdas Pophale) SiO2 
 PCOD9414770
Probable space group: P M N A
;
_chemical_formula_sum "Si O2"
_cell_formula_units_Z 44
_cell_length_a 18.822887
_cell_length_b 8.813750
_cell_length_c 14.233977
_cell_angle_alpha 90.000000
_cell_angle_beta 90.000000
_cell_angle_gamma 90.000000
_cell_volume 2361.419920
_symmetry_space_group_name_H-M "P M N A"
_symmetry_group_IT_number 53
_symmetry_cell_setting 'orthorhombic'
loop_
_space_group_symop_operation_xyz
x,y,z
1/2-x,-y,1/2+z
x,-y,-z
1/2-x,y,1/2-z
-x,-y,-z
1/2+x,y,1/2-z
-x,y,z
1/2+x,-y,1/2+z
loop_
_atom_site_type_symbol
_atom_site_label
_atom_site_fract_x
_atom_site_fract_y
_atom_site_fract_z
Si Si1 0.919807 0.218396 0.941080
Si Si2 0.159014 0.719156 0.875000
Si Si3 0.693475 0.308048 0.828160
Si Si4 0.257212 0.500000 0.000000
Si Si5 0.779899 0.030426 0.891260
Si Si6 0.081206 0.538347 0.213219
O O1 0.854509 0.123406 0.897414
O O2 0.916429 0.381143 0.889292
O O3 0.000000 0.159517 0.925708
O O4 0.902642 0.231236 0.051362
O O5 0.125977 0.615661 0.794209
O O6 0.201352 0.869332 0.845987
O O7 0.209840 0.614806 0.938863
O O8 0.750000 0.367213 0.750000
O O9 0.700912 0.399688 0.924617
O O10 0.719676 0.136628 0.846810
O O11 0.617780 0.342377 0.783094
O O12 0.760402 0.000000 0.000000
O O13 0.000000 0.509231 0.237307
#
# Coordination Sequence:
#
# PCOD9414770 Si02
#       6
#     8   8   8   4   8   8
#     4  10  18  31  53  85 126 162 189 237 311 381
#     4  11  18  34  56  90 119 154 199 249 314 370
#     4  12  21  41  60  88 125 161 208 256 306 362
#     4  12  20  36  62  92 114 154 206 262 302 358
#     4  10  20  34  55  84 121 155 200 249 310 364
#     4  11  22  37  60  87 124 166 204 250 306 370
#
# _framework density 18.632857999999999
#
# number of rings (size 3 to 8) (size 9 to 14) (size 15 to 20)
#    0.000    1.091    9.091    0.545    0.000    5.455 
#    3.273    0.455    0.000    0.545    0.000    0.000 
#    0.000    0.000    0.000    0.000    0.000    0.000 
#
# Total GULP energy -245530.709184 kJ/mol
# GULP energy per Si atom -5580.243391 kJ/mol
# Density = 1.859045 g / cm^3
# Si number density = 18.632858 Si / 1000 Ang^3
#
#
#
# Elastic Constant Matrix: (Units=GPa)
#
#
# Indices 1 2 3 4 5 6 
#
# 1 66.5394 47.0185 29.6406 0.0000 0.0000 0.0000
# 2 47.0185 124.3996 28.4186 0.0000 0.0000 0.0000
# 3 29.6406 28.4186 58.2194 0.0000 0.0000 0.0000
# 4 0.0000 0.0000 0.0000 33.2056 0.0000 0.0000
# 5 0.0000 0.0000 0.0000 0.0000 23.8711 0.0000
# 6 0.0000 0.0000 0.0000 0.0000 0.0000 18.7550
#
#
#
# Elastic Compliance Matrix: (Units=1/GPa)
#
#
# Indices 1 2 3 4 5 6 
#
# 1 0.023887 -0.007035 -0.008728 0.000000 0.000000 0.000000
# 2 -0.007035 0.011119 -0.001846 0.000000 0.000000 0.000000
# 3 -0.008728 -0.001846 0.022521 0.000000 0.000000 0.000000
# 4 0.000000 0.000000 0.000000 0.030115 0.000000 0.000000
# 5 0.000000 0.000000 0.000000 0.000000 0.041892 0.000000
# 6 0.000000 0.000000 0.000000 0.000000 0.000000 0.053319
#
#
# Mechanical properties :
#
#
# Convention : Reuss Voigt Hill
#
# Bulk Modulus (GPa) = 44.82182 51.03487 47.92834
# Shear Modulus (GPa) = 22.17218 24.77173 23.47196
#
# Velocity S-wave (km/s) = 3.45331 3.65014 3.55309
# Velocity P-wave (km/s) = 6.32518 6.72412 6.52770
#
# Compressibility (1/GPa) = 0.02231056
#
# Stress axis : x y z
#
# Youngs Moduli (GPa) = 41.86295 89.93425 44.40309
#
# Poissons Ratio (x) = 0.63267 0.38754
# Poissons Ratio (y) = 0.29450 0.08197
# Poissons Ratio (z) = 0.36537 0.16603
#
# Static dielectric constant tensor:
#      x y z
#    x 1.640480 0.000000 0.000000 
#    y 0.000000 1.706250 0.000000 
#    z 0.000000 0.000000 1.670640 
# 
# From -- ./inp_files/23520.got.cif
#   From: 2010.05.17/outbox.cif.g08.bks.cpg/sg53_12_cif.got.tgz:23520.got - 2010.06.03 12:45:16.
