data_PCOD9414380
_publ_section_title
;
Structure prediction by ZEFSAII (Michael W. Deem and Ramdas Pophale) SiO2 
 PCOD9414380
Probable space group: P M N A
;
_chemical_formula_sum "Si O2"
_cell_formula_units_Z 64
_cell_length_a 7.781442
_cell_length_b 24.174975
_cell_length_c 18.041445
_cell_angle_alpha 90.000000
_cell_angle_beta 90.000000
_cell_angle_gamma 90.000000
_cell_volume 3393.887459
_symmetry_space_group_name_H-M "P M N A"
_symmetry_group_IT_number 53
_symmetry_cell_setting 'orthorhombic'
loop_
_space_group_symop_operation_xyz
x,y,z
1/2-x,-y,1/2+z
x,-y,-z
1/2-x,y,1/2-z
-x,-y,-z
1/2+x,y,1/2-z
-x,y,z
1/2+x,-y,1/2+z
loop_
_atom_site_type_symbol
_atom_site_label
_atom_site_fract_x
_atom_site_fract_y
_atom_site_fract_z
Si Si1 0.210400 0.256569 0.019383
Si Si2 0.704204 0.030648 0.926226
Si Si3 0.205468 0.314246 0.169293
Si Si4 0.290593 0.631569 0.449195
Si Si5 0.293111 0.543371 0.335867
Si Si6 0.790394 0.573345 0.897545
Si Si7 0.792457 0.131363 0.016712
Si Si8 0.800364 0.068900 0.164935
O O1 0.265670 0.277137 0.100984
O O2 0.268521 0.194156 0.007131
O O3 0.000000 0.255981 0.018224
O O4 0.266271 0.305518 0.963818
O O5 0.500000 0.024427 0.924122
O O6 0.772023 0.995575 0.857052
O O7 0.745222 0.093681 0.945974
O O8 0.774812 0.000000 0.000000
O O9 0.250000 0.293023 0.250000
O O10 0.267688 0.377274 0.156924
O O11 0.000000 0.316148 0.163394
O O12 0.500000 0.633390 0.448183
O O13 0.230123 0.598281 0.377648
O O14 0.243125 0.594438 0.520723
O O15 0.250000 0.542743 0.250000
O O16 0.500000 0.542815 0.343330
O O17 0.228296 0.486954 0.374376
O O18 0.000000 0.571591 0.895931
O O19 0.725138 0.103995 0.094602
O O20 0.000000 0.131903 0.020726
O O21 0.750000 0.080104 0.250000
O O22 0.000000 0.080855 0.162341
#
# Coordination Sequence:
#
# PCOD9414380 Si02
#       8
#     8   8   8   8   8   8   8   8
#     4   8  15  28  45  64  85 114 154 191 218 251
#     4   9  17  30  48  69  93 120 150 184 220 258
#     4   9  16  26  40  59  86 117 146 180 221 265
#     4   8  14  26  45  65  83 110 152 192 219 254
#     4  10  18  27  43  66  88 110 139 181 231 276
#     4   8  14  25  42  63  84 109 146 186 220 262
#     4   9  17  30  48  68  90 119 155 190 223 263
#     4  10  19  30  46  70  99 126 149 178 220 267
#
# _framework density 18.857431999999999
#
# number of rings (size 3 to 8) (size 9 to 14) (size 15 to 20)
#    0.000    3.125    0.000    3.000    0.000    4.000 
#    0.000    0.625    0.000    6.000    0.000    1.750 
#    0.000    0.000    0.000    0.000    0.000    0.000 
#
# Total GULP energy -356410.530039 kJ/mol
# GULP energy per Si atom -5568.914532 kJ/mol
# Density = 1.881451 g / cm^3
# Si number density = 18.857432 Si / 1000 Ang^3
#
#
#
# Elastic Constant Matrix: (Units=GPa)
#
#
# Indices 1 2 3 4 5 6 
#
# 1 18.7608 -7.8807 -1.9738 0.0000 0.0000 0.0000
# 2 -7.8807 124.0132 36.6984 0.0000 0.0000 0.0000
# 3 -1.9738 36.6984 42.6635 0.0000 0.0000 0.0000
# 4 0.0000 0.0000 0.0000 11.8631 0.0000 0.0000
# 5 0.0000 0.0000 0.0000 0.0000 21.0393 0.0000
# 6 0.0000 0.0000 0.0000 0.0000 0.0000 -1.1594
#
#
#
# Elastic Compliance Matrix: (Units=1/GPa)
#
#
# Indices 1 2 3 4 5 6 
#
# 1 0.054777 0.003664 -0.000617 0.000000 0.000000 0.000000
# 2 0.003664 0.011062 -0.009346 0.000000 0.000000 0.000000
# 3 -0.000617 -0.009346 0.031450 0.000000 0.000000 0.000000
# 4 0.000000 0.000000 0.000000 0.084295 0.000000 0.000000
# 5 0.000000 0.000000 0.000000 0.000000 0.047530 0.000000
# 6 0.000000 0.000000 0.000000 0.000000 0.000000 -0.862486
#
#
# Mechanical properties :
#
#
# Convention : Reuss Voigt Hill
#
# Bulk Modulus (GPa) = 11.80784 26.56949 19.18867
# Shear Modulus (GPa) = -8.43820 16.92150 4.24165
#
# Velocity S-wave (km/s) = -2.11765 2.99881 1.50140
# Velocity P-wave (km/s) = 0.54403 5.10987 3.63364
#
# Compressibility (1/GPa) = 0.08468947
#
# Stress axis : x y z
#
# Youngs Moduli (GPa) = 18.25597 90.39823 31.79659
#
# Poissons Ratio (x) = -0.33118 0.01962
# Poissons Ratio (y) = -0.06688 0.29717
# Poissons Ratio (z) = 0.01127 0.84486
#
# Static dielectric constant tensor:
#      x y z
#    x 1.693350 0.000000 0.000000 
#    y 0.000000 1.682550 0.000000 
#    z 0.000000 0.000000 1.648030 
# 
# From -- ./inp_files/27049.got.cif
#   From: 2010.05.17/outbox.cif.g08.bks.cpg/sg53_14_cif.got.tgz:27049.got - 2010.06.03 12:45:16.
