data_PCOD9414693
_publ_section_title
;
Structure prediction by ZEFSAII (Michael W. Deem and Ramdas Pophale) SiO2 
 PCOD9414693
Probable space group: P M N A
;
_chemical_formula_sum "Si O2"
_cell_formula_units_Z 40
_cell_length_a 7.987108
_cell_length_b 17.124448
_cell_length_c 12.930419
_cell_angle_alpha 90.000000
_cell_angle_beta 90.000000
_cell_angle_gamma 90.000000
_cell_volume 1768.555675
_symmetry_space_group_name_H-M "P M N A"
_symmetry_group_IT_number 53
_symmetry_cell_setting 'orthorhombic'
loop_
_space_group_symop_operation_xyz
x,y,z
1/2-x,-y,1/2+z
x,-y,-z
1/2-x,y,1/2-z
-x,-y,-z
1/2+x,y,1/2-z
-x,y,z
1/2+x,-y,1/2+z
loop_
_atom_site_type_symbol
_atom_site_label
_atom_site_fract_x
_atom_site_fract_y
_atom_site_fract_z
Si Si1 0.804471 0.182286 0.647568
Si Si2 0.806443 0.615022 0.564776
Si Si3 0.191543 0.453556 0.856182
Si Si4 0.697201 0.217595 0.094047
Si Si5 0.500000 0.067870 0.624193
Si Si6 0.000000 0.895043 0.879074
O O1 0.750000 0.230696 0.750000
O O2 0.786526 0.216688 0.532081
O O3 0.671211 0.111944 0.652491
O O4 0.000000 0.161209 0.655657
O O5 0.790306 0.534427 0.626420
O O6 0.713780 0.599188 0.456988
O O7 0.753490 0.693707 0.622395
O O8 0.000000 0.627472 0.537889
O O9 0.250000 0.416148 0.750000
O O10 0.000000 0.476376 0.848298
O O11 0.500000 0.201330 0.118713
O O12 0.832733 0.156392 0.136803
O O13 0.500000 0.079472 0.499794
O O14 0.500000 0.980786 0.670735
#
# Coordination Sequence:
#
# PCOD9414693 Si02
#       6
#     8   8   8   8   4   4
#     4  10  18  31  49  76 109 140 177 218 270 327
#     4  10  20  37  57  82 115 145 185 236 280 334
#     4  11  22  36  56  83 110 148 193 229 280 334
#     4   9  20  33  52  80 108 140 176 222 272 322
#     4   9  18  32  48  78  96 141 171 217 261 316
#     4   9  18  32  54  71 106 130 181 213 263 323
#
# _framework density 22.617325999999998
#
# number of rings (size 3 to 8) (size 9 to 14) (size 15 to 20)
#    0.000    2.200    1.000    3.600    2.800    1.600 
#    0.000    6.000    0.000    1.200    0.000    0.000 
#    0.000    0.000    0.000    0.000    0.000    0.000 
#
# Total GULP energy -223173.648144 kJ/mol
# GULP energy per Si atom -5579.341204 kJ/mol
# Density = 2.256585 g / cm^3
# Si number density = 22.617326 Si / 1000 Ang^3
#
#
#
# Elastic Constant Matrix: (Units=GPa)
#
#
# Indices 1 2 3 4 5 6 
#
# 1 116.7134 59.4184 11.2203 0.0000 0.0000 0.0000
# 2 59.4184 141.4049 -1.5341 0.0000 0.0000 0.0000
# 3 11.2203 -1.5341 74.8097 0.0000 0.0000 0.0000
# 4 0.0000 0.0000 0.0000 -7.5486 0.0000 0.0000
# 5 0.0000 0.0000 0.0000 0.0000 22.0026 0.0000
# 6 0.0000 0.0000 0.0000 0.0000 0.0000 -29.0065
#
#
#
# Elastic Compliance Matrix: (Units=1/GPa)
#
#
# Indices 1 2 3 4 5 6 
#
# 1 0.011128 -0.004695 -0.001765 0.000000 0.000000 0.000000
# 2 -0.004695 0.009054 0.000890 0.000000 0.000000 0.000000
# 3 -0.001765 0.000890 0.013650 0.000000 0.000000 0.000000
# 4 0.000000 0.000000 0.000000 -0.132474 0.000000 0.000000
# 5 0.000000 0.000000 0.000000 0.000000 0.045449 0.000000
# 6 0.000000 0.000000 0.000000 0.000000 0.000000 -0.034475
#
#
# Mechanical properties :
#
#
# Convention : Reuss Voigt Hill
#
# Bulk Modulus (GPa) = 44.06924 52.34858 48.20891
# Shear Modulus (GPa) = -72.50354 14.67772 -28.91291
#
# Velocity S-wave (km/s) = -5.66800 2.55023 -3.57928
# Velocity P-wave (km/s) = 4.82783 5.64510 2.06872
#
# Compressibility (1/GPa) = 0.02269156
#
# Stress axis : x y z
#
# Youngs Moduli (GPa) = 89.86355 110.44301 73.25859
#
# Poissons Ratio (x) = 0.51854 0.12932
# Poissons Ratio (y) = 0.42192 -0.06519
# Poissons Ratio (z) = 0.15864 -0.09828
#
# Static dielectric constant tensor:
#      x y z
#    x 1.766120 0.000000 0.000000 
#    y 0.000000 1.885200 0.000000 
#    z 0.000000 0.000000 1.884160 
# 
# From -- ./inp_files/19939.got.cif
#   From: 2010.05.17/outbox.cif.g08.bks.cpg/sg53_10_cif.got.tgz:19939.got - 2010.06.03 12:45:16.
