data_PCOD9414753
_publ_section_title
;
Structure prediction by ZEFSAII (Michael W. Deem and Ramdas Pophale) SiO2 
 PCOD9414753
Probable space group: P M N A
;
_chemical_formula_sum "Si O2"
_cell_formula_units_Z 64
_cell_length_a 8.350981
_cell_length_b 19.488041
_cell_length_c 20.055413
_cell_angle_alpha 90.000000
_cell_angle_beta 90.000000
_cell_angle_gamma 90.000000
_cell_volume 3263.903350
_symmetry_space_group_name_H-M "P M N A"
_symmetry_group_IT_number 53
_symmetry_cell_setting 'orthorhombic'
loop_
_space_group_symop_operation_xyz
x,y,z
1/2-x,-y,1/2+z
x,-y,-z
1/2-x,y,1/2-z
-x,-y,-z
1/2+x,y,1/2-z
-x,y,z
1/2+x,-y,1/2+z
loop_
_atom_site_type_symbol
_atom_site_label
_atom_site_fract_x
_atom_site_fract_y
_atom_site_fract_z
Si Si1 0.191851 0.839778 0.824940
Si Si2 0.691115 0.703853 0.174138
Si Si3 0.191838 0.002035 0.175430
Si Si4 0.308317 0.283430 0.085115
Si Si5 0.196268 0.783638 0.453143
Si Si6 0.308562 0.063094 0.956011
Si Si7 0.807874 0.589749 0.673345
Si Si8 0.190522 0.556624 0.173468
O O1 0.250000 0.824874 0.750000
O O2 0.238087 0.918633 0.839747
O O3 0.268597 0.785204 0.874059
O O4 0.000000 0.834763 0.827689
O O5 0.750000 0.713611 0.250000
O O6 0.500000 0.704721 0.176699
O O7 0.747009 0.759859 0.120403
O O8 0.744156 0.628884 0.147477
O O9 0.250000 0.986684 0.250000
O O10 0.000000 0.997046 0.172490
O O11 0.270317 0.954220 0.120345
O O12 0.500000 0.291181 0.082085
O O13 0.246694 0.348785 0.126424
O O14 0.250700 0.269721 0.009988
O O15 0.251874 0.860429 0.471172
O O16 0.000000 0.784498 0.453234
O O17 0.500000 0.064399 0.965846
O O18 0.242269 0.000000 0.000000
O O19 0.750000 0.598287 0.750000
O O20 0.753149 0.515606 0.646013
O O21 0.000000 0.590760 0.675340
O O22 0.250000 0.555837 0.250000
O O23 0.000000 0.557346 0.172001
#
# Coordination Sequence:
#
# PCOD9414753 Si02
#       8
#     8   8   8   8   8   8   8   8
#     4  10  20  33  51  76 106 142 180 219 264 314
#     4  10  19  35  58  80 106 136 173 220 268 320
#     4  10  21  36  54  78 107 137 175 222 272 324
#     4  10  20  35  54  76 106 143 182 221 260 309
#     4   9  20  37  56  80 107 139 178 218 265 322
#     4  10  20  36  59  82 107 142 181 221 269 324
#     4  10  19  31  51  79 109 141 177 215 256 303
#     4  10  18  31  53  79 107 137 174 216 260 311
#
# _framework density 19.608422999999998
#
# number of rings (size 3 to 8) (size 9 to 14) (size 15 to 20)
#    0.000    2.125    0.000    5.250    0.000    5.250 
#    0.000    5.000    0.000    3.750    0.000    0.000 
#    0.000    0.000    0.000    0.000    0.000    0.000 
#
# Total GULP energy -357157.358860 kJ/mol
# GULP energy per Si atom -5580.583732 kJ/mol
# Density = 1.956379 g / cm^3
# Si number density = 19.608423 Si / 1000 Ang^3
#
#
#
# Elastic Constant Matrix: (Units=GPa)
#
#
# Indices 1 2 3 4 5 6 
#
# 1 30.3869 13.0894 3.9853 0.0000 0.0000 0.0000
# 2 13.0894 106.2191 57.3971 0.0000 0.0000 0.0000
# 3 3.9853 57.3971 71.7816 0.0000 0.0000 0.0000
# 4 0.0000 0.0000 0.0000 27.8067 0.0000 0.0000
# 5 0.0000 0.0000 0.0000 0.0000 18.7762 0.0000
# 6 0.0000 0.0000 0.0000 0.0000 0.0000 16.1382
#
#
#
# Elastic Compliance Matrix: (Units=1/GPa)
#
#
# Indices 1 2 3 4 5 6 
#
# 1 0.035039 -0.005752 0.002654 0.000000 0.000000 0.000000
# 2 -0.005752 0.017521 -0.013691 0.000000 0.000000 0.000000
# 3 0.002654 -0.013691 0.024731 0.000000 0.000000 0.000000
# 4 0.000000 0.000000 0.000000 0.035963 0.000000 0.000000
# 5 0.000000 0.000000 0.000000 0.000000 0.053259 0.000000
# 6 0.000000 0.000000 0.000000 0.000000 0.000000 0.061965
#
#
# Mechanical properties :
#
#
# Convention : Reuss Voigt Hill
#
# Bulk Modulus (GPa) = 22.87633 39.70346 31.28990
# Shear Modulus (GPa) = 18.07493 21.47194 19.77343
#
# Velocity S-wave (km/s) = 3.03940 3.31272 3.17900
# Velocity P-wave (km/s) = 4.89992 5.90968 5.42833
#
# Compressibility (1/GPa) = 0.04371330
#
# Stress axis : x y z
#
# Youngs Moduli (GPa) = 28.54003 57.07315 40.43487
#
# Poissons Ratio (x) = 0.32828 -0.10731
# Poissons Ratio (y) = 0.16416 0.55359
# Poissons Ratio (z) = -0.07574 0.78138
#
# Static dielectric constant tensor:
#      x y z
#    x 1.689320 0.000000 0.000000 
#    y 0.000000 1.719960 0.000000 
#    z 0.000000 0.000000 1.671560 
# 
# From -- ./inp_files/26891.got.cif
#   From: 2010.05.17/outbox.cif.g08.bks.cpg/sg53_14_cif.got.tgz:26891.got - 2010.06.03 12:45:16.
