data_PCOD9414642
_publ_section_title
;
Structure prediction by ZEFSAII (Michael W. Deem and Ramdas Pophale) SiO2 
 PCOD9414642
Probable space group: P M N A
;
_chemical_formula_sum "Si O2"
_cell_formula_units_Z 32
_cell_length_a 8.654360
_cell_length_b 21.598164
_cell_length_c 9.288146
_cell_angle_alpha 90.000000
_cell_angle_beta 90.000000
_cell_angle_gamma 90.000000
_cell_volume 1736.124336
_symmetry_space_group_name_H-M "P M N A"
_symmetry_group_IT_number 53
_symmetry_cell_setting 'orthorhombic'
loop_
_space_group_symop_operation_xyz
x,y,z
1/2-x,-y,1/2+z
x,-y,-z
1/2-x,y,1/2-z
-x,-y,-z
1/2+x,y,1/2-z
-x,y,z
1/2+x,-y,1/2+z
loop_
_atom_site_type_symbol
_atom_site_label
_atom_site_fract_x
_atom_site_fract_y
_atom_site_fract_z
Si Si1 0.185694 0.817799 0.087691
Si Si2 0.684405 0.310851 0.913530
Si Si3 0.186445 0.939739 0.910703
Si Si4 0.185012 0.561425 0.088562
O O1 0.250000 0.825069 0.250000
O O2 0.251303 0.753415 0.024608
O O3 0.000000 0.813945 0.094894
O O4 0.231626 0.877031 0.993660
O O5 0.750000 0.311294 0.750000
O O6 0.500000 0.310023 0.910394
O O7 0.744875 0.375442 0.977351
O O8 0.250000 0.941114 0.750000
O O9 0.000000 0.940989 0.905148
O O10 0.238354 0.000000 0.000000
O O11 0.250000 0.554960 0.250000
O O12 0.000000 0.567858 0.094962
O O13 0.224373 0.500000 0.000000
#
# Coordination Sequence:
#
# PCOD9414642 Si02
#       4
#     8   8   8   8
#     4  10  19  33  54  79 106 135 172 215 259 309
#     4  10  18  30  51  76 103 136 174 213 257 309
#     4  10  22  38  56  80 108 139 175 215 259 308
#     4  10  20  34  53  77 105 137 174 216 261 309
#
# _framework density 18.43186
#
# number of rings (size 3 to 8) (size 9 to 14) (size 15 to 20)
#    0.000    2.000    0.000    7.500    0.000    4.500 
#    0.000    1.250    0.000    0.000    0.000    0.000 
#    0.000    0.000    0.000    0.000    0.000    0.000 
#
# Total GULP energy -178598.966925 kJ/mol
# GULP energy per Si atom -5581.217716 kJ/mol
# Density = 1.838991 g / cm^3
# Si number density = 18.431860 Si / 1000 Ang^3
#
#
#
# Elastic Constant Matrix: (Units=GPa)
#
#
# Indices 1 2 3 4 5 6 
#
# 1 78.4881 72.5849 28.2918 0.0000 0.0000 0.0000
# 2 72.5849 237.4407 80.6045 0.0000 0.0000 0.0000
# 3 28.2918 80.6045 76.1655 0.0000 0.0000 0.0000
# 4 0.0000 0.0000 0.0000 29.3916 0.0000 0.0000
# 5 0.0000 0.0000 0.0000 0.0000 25.3706 0.0000
# 6 0.0000 0.0000 0.0000 0.0000 0.0000 82.2270
#
#
#
# Elastic Compliance Matrix: (Units=1/GPa)
#
#
# Indices 1 2 3 4 5 6 
#
# 1 0.017849 -0.005003 -0.001335 0.000000 0.000000 0.000000
# 2 -0.005003 0.007975 -0.006582 0.000000 0.000000 0.000000
# 3 -0.001335 -0.006582 0.020591 0.000000 0.000000 0.000000
# 4 0.000000 0.000000 0.000000 0.034023 0.000000 0.000000
# 5 0.000000 0.000000 0.000000 0.000000 0.039416 0.000000
# 6 0.000000 0.000000 0.000000 0.000000 0.000000 0.012161
#
#
# Mechanical properties :
#
#
# Convention : Reuss Voigt Hill
#
# Bulk Modulus (GPa) = 48.60374 83.89521 66.24947
# Shear Modulus (GPa) = 30.35570 41.43872 35.89721
#
# Velocity S-wave (km/s) = 4.06262 4.74667 4.41791
# Velocity P-wave (km/s) = 6.95940 8.69807 7.87685
#
# Compressibility (1/GPa) = 0.02057455
#
# Stress axis : x y z
#
# Youngs Moduli (GPa) = 56.02591 125.38712 48.56573
#
# Poissons Ratio (x) = 0.62731 0.06485
# Poissons Ratio (y) = 0.28030 0.31965
# Poissons Ratio (z) = 0.07482 0.82526
#
# Static dielectric constant tensor:
#      x y z
#    x 1.620490 0.000000 0.000000 
#    y 0.000000 1.686780 0.000000 
#    z 0.000000 0.000000 1.606590 
# 
# From -- ./inp_files/6011.got.cif
#   From: 2010.05.17/outbox.cif.g08.bks.cpg/sg53_4_cif.got.tgz:6011.got - 2010.06.03 12:45:16.
