data_PCOD9414162
_publ_section_title
;
Structure prediction by ZEFSAII (Michael W. Deem and Ramdas Pophale) SiO2 
 PCOD9414162
Probable space group: P M N A
;
_chemical_formula_sum "Si O2"
_cell_formula_units_Z 48
_cell_length_a 17.654497
_cell_length_b 16.694799
_cell_length_c 7.238429
_cell_angle_alpha 90.000000
_cell_angle_beta 90.000000
_cell_angle_gamma 90.000000
_cell_volume 2133.442105
_symmetry_space_group_name_H-M "P M N A"
_symmetry_group_IT_number 53
_symmetry_cell_setting 'orthorhombic'
loop_
_space_group_symop_operation_xyz
x,y,z
1/2-x,-y,1/2+z
x,-y,-z
1/2-x,y,1/2-z
-x,-y,-z
1/2+x,y,1/2-z
-x,y,z
1/2+x,-y,1/2+z
loop_
_atom_site_type_symbol
_atom_site_label
_atom_site_fract_x
_atom_site_fract_y
_atom_site_fract_z
Si Si1 0.412498 0.745504 0.783811
Si Si2 0.161208 0.418671 0.286333
Si Si3 0.587289 0.247102 0.765830
Si Si4 0.408564 0.420190 0.802387
Si Si5 0.160575 0.915839 0.278754
Si Si6 0.840348 0.089680 0.281910
O O1 0.500000 0.734756 0.734945
O O2 0.365830 0.668365 0.719584
O O3 0.380870 0.830221 0.714859
O O4 0.408390 0.748940 0.009049
O O5 0.250000 0.428789 0.250000
O O6 0.116714 0.496583 0.211801
O O7 0.136521 0.417688 0.502936
O O8 0.500000 0.236466 0.716215
O O9 0.611271 0.336212 0.704466
O O10 0.630487 0.167998 0.703051
O O11 0.500000 0.420299 0.834936
O O12 0.250000 0.917096 0.250000
O O13 0.146254 0.913621 0.498042
O O14 0.132813 0.002790 0.209642
O O15 0.750000 0.096614 0.250000
#
# Coordination Sequence:
#
# PCOD9414162 Si02
#       6
#     8   8   8   8   8   8
#     4   9  16  27  43  64  86 111 142 180 222 265
#     4  10  17  25  42  67  88 110 143 184 223 263
#     4   8  15  27  44  63  84 110 144 181 218 260
#     4   9  17  31  46  63  89 119 148 183 226 273
#     4   9  17  28  44  66  90 115 144 183 229 265
#     4   9  17  29  44  64  90 118 147 181 222 270
#
# _framework density 22.498851999999999
#
# number of rings (size 3 to 8) (size 9 to 14) (size 15 to 20)
#    0.000    3.000    0.000    3.500    0.000    1.333 
#    0.000    3.333    0.000    1.000    0.000   30.333 
#    0.000    0.000    0.000    0.000    0.000    0.000 
#
# Total GULP energy -267728.964822 kJ/mol
# GULP energy per Si atom -5577.686767 kJ/mol
# Density = 2.244764 g / cm^3
# Si number density = 22.498852 Si / 1000 Ang^3
#
#
#
# Elastic Constant Matrix: (Units=GPa)
#
#
# Indices 1 2 3 4 5 6 
#
# 1 93.5565 78.7659 3.4710 0.0000 0.0000 0.0000
# 2 78.7659 269.5831 3.0710 0.0000 0.0000 0.0000
# 3 3.4710 3.0710 96.4875 0.0000 0.0000 0.0000
# 4 0.0000 0.0000 0.0000 -12.4733 0.0000 0.0000
# 5 0.0000 0.0000 0.0000 0.0000 16.6643 0.0000
# 6 0.0000 0.0000 0.0000 0.0000 0.0000 50.7681
#
#
#
# Elastic Compliance Matrix: (Units=1/GPa)
#
#
# Indices 1 2 3 4 5 6 
#
# 1 0.014190 -0.004142 -0.000379 0.000000 0.000000 0.000000
# 2 -0.004142 0.004920 -0.000008 0.000000 0.000000 0.000000
# 3 -0.000379 -0.000008 0.010378 0.000000 0.000000 0.000000
# 4 0.000000 0.000000 0.000000 -0.080171 0.000000 0.000000
# 5 0.000000 0.000000 0.000000 0.000000 0.060008 0.000000
# 6 0.000000 0.000000 0.000000 0.000000 0.000000 0.019697
#
#
# Mechanical properties :
#
#
# Convention : Reuss Voigt Hill
#
# Bulk Modulus (GPa) = 48.94400 70.02697 59.48549
# Shear Modulus (GPa) = 111.38942 35.94644 73.66793
#
# Velocity S-wave (km/s) = 7.04389 4.00146 5.72836
# Velocity P-wave (km/s) = 9.37851 7.24853 8.38146
#
# Compressibility (1/GPa) = 0.02043151
#
# Stress axis : x y z
#
# Youngs Moduli (GPa) = 70.47420 203.26920 96.35861
#
# Poissons Ratio (x) = 0.84185 0.03648
# Poissons Ratio (y) = 0.29187 0.00073
# Poissons Ratio (z) = 0.02668 0.00154
#
# Static dielectric constant tensor:
#      x y z
#    x 1.738040 0.000000 0.000000 
#    y 0.000000 1.893900 0.000000 
#    z 0.000000 0.000000 1.872900 
# 
# From -- ./inp_files/15928.got.cif
#   From: 2010.05.17/outbox.cif.g08.bks.cpg/sg53_8_cif.got.tgz:15928.got - 2010.06.03 12:45:16.
