data_PCOD9414534
_publ_section_title
;
Structure prediction by ZEFSAII (Michael W. Deem and Ramdas Pophale) SiO2 
 PCOD9414534
Probable space group: P M N A
;
_chemical_formula_sum "Si O2"
_cell_formula_units_Z 64
_cell_length_a 16.862700
_cell_length_b 16.742911
_cell_length_c 12.286234
_cell_angle_alpha 90.000000
_cell_angle_beta 90.000000
_cell_angle_gamma 90.000000
_cell_volume 3468.780865
_symmetry_space_group_name_H-M "P M N A"
_symmetry_group_IT_number 53
_symmetry_cell_setting 'orthorhombic'
loop_
_space_group_symop_operation_xyz
x,y,z
1/2-x,-y,1/2+z
x,-y,-z
1/2-x,y,1/2-z
-x,-y,-z
1/2+x,y,1/2-z
-x,y,z
1/2+x,-y,1/2+z
loop_
_atom_site_type_symbol
_atom_site_label
_atom_site_fract_x
_atom_site_fract_y
_atom_site_fract_z
Si Si1 0.317273 0.590318 0.480056
Si Si2 0.790529 0.268621 0.133220
Si Si3 0.593437 0.337821 0.724685
Si Si4 0.089524 0.845186 0.761033
Si Si5 0.872770 0.415649 0.546890
Si Si6 0.597136 0.998345 0.127891
Si Si7 0.091541 0.827198 0.320143
Si Si8 0.121100 0.750669 0.548998
O O1 0.345740 0.500000 0.500000
O O2 0.327594 0.651987 0.580298
O O3 0.359814 0.627006 0.375960
O O4 0.223027 0.584813 0.457590
O O5 0.750000 0.287668 0.250000
O O6 0.851893 0.196708 0.153442
O O7 0.716618 0.243197 0.057949
O O8 0.500000 0.331769 0.700395
O O9 0.602559 0.393762 0.830868
O O10 0.625304 0.249300 0.756850
O O11 0.087143 0.783200 0.660628
O O12 0.000000 0.857968 0.802573
O O13 0.120023 0.925847 0.701804
O O14 0.900457 0.500000 0.500000
O O15 0.899679 0.341080 0.473562
O O16 0.500000 0.998482 0.126234
O O17 0.625990 0.915888 0.182396
O O18 0.621307 0.000000 0.000000
O O19 0.092389 0.801605 0.446831
O O20 0.000000 0.833803 0.285015
#
# Coordination Sequence:
#
# PCOD9414534 Si02
#       8
#     8   8   8   8   8   8   8   8
#     4  10  21  37  57  74  97 139 186 219 251 309
#     4   9  20  35  51  73 102 135 176 221 266 303
#     4  10  21  34  52  79 110 137 164 214 274 318
#     4  10  18  29  49  75 103 136 169 208 259 311
#     4   9  19  35  55  76 100 137 180 219 255 307
#     4   9  15  25  48  79 103 128 167 209 248 307
#     4   9  16  29  50  78 106 132 166 206 257 312
#     4   9  16  29  49  72 100 131 164 214 262 298
#
# _framework density 18.450286999999999
#
# number of rings (size 3 to 8) (size 9 to 14) (size 15 to 20)
#    0.000    2.625    1.250    0.750    0.000    5.500 
#    0.000    1.250    0.000   18.750    0.000    3.500 
#    0.000    0.000    0.000    0.000    0.000    0.000 
#
# Total GULP energy -356617.906877 kJ/mol
# GULP energy per Si atom -5572.154795 kJ/mol
# Density = 1.840829 g / cm^3
# Si number density = 18.450287 Si / 1000 Ang^3
#
#
#
# Elastic Constant Matrix: (Units=GPa)
#
#
# Indices 1 2 3 4 5 6 
#
# 1 38.4253 38.0588 18.6615 0.0000 0.0000 0.0000
# 2 38.0588 150.1095 49.9686 0.0000 0.0000 0.0000
# 3 18.6615 49.9686 50.1265 0.0000 0.0000 0.0000
# 4 0.0000 0.0000 0.0000 25.5748 0.0000 0.0000
# 5 0.0000 0.0000 0.0000 0.0000 21.4564 0.0000
# 6 0.0000 0.0000 0.0000 0.0000 0.0000 16.1935
#
#
#
# Elastic Compliance Matrix: (Units=1/GPa)
#
#
# Indices 1 2 3 4 5 6 
#
# 1 0.036096 -0.007002 -0.006458 0.000000 0.000000 0.000000
# 2 -0.007002 0.011329 -0.008686 0.000000 0.000000 0.000000
# 3 -0.006458 -0.008686 0.031013 0.000000 0.000000 0.000000
# 4 0.000000 0.000000 0.000000 0.039101 0.000000 0.000000
# 5 0.000000 0.000000 0.000000 0.000000 0.046606 0.000000
# 6 0.000000 0.000000 0.000000 0.000000 0.000000 0.061753
#
#
# Mechanical properties :
#
#
# Convention : Reuss Voigt Hill
#
# Bulk Modulus (GPa) = 29.28717 50.22658 39.75688
# Shear Modulus (GPa) = 17.75745 21.44310 19.60027
#
# Velocity S-wave (km/s) = 3.10570 3.41282 3.26287
# Velocity P-wave (km/s) = 5.36363 6.54305 5.98248
#
# Compressibility (1/GPa) = 0.03414464
#
# Stress axis : x y z
#
# Youngs Moduli (GPa) = 27.70369 88.27272 32.24499
#
# Poissons Ratio (x) = 0.61809 0.20825
# Poissons Ratio (y) = 0.19398 0.28008
# Poissons Ratio (z) = 0.17892 0.76674
#
# Static dielectric constant tensor:
#      x y z
#    x 1.665150 0.000000 0.000000 
#    y 0.000000 1.669290 0.000000 
#    z 0.000000 0.000000 1.605900 
# 
# From -- ./inp_files/17194.got.cif
#   From: 2010.05.17/outbox.cif.g08.bks.cpg/sg53_9_cif.got.tgz:17194.got - 2010.06.03 12:45:16.
