data_PCOD9414189
_publ_section_title
;
Structure prediction by ZEFSAII (Michael W. Deem and Ramdas Pophale) SiO2 
 PCOD9414189
Probable space group: P M N A
;
_chemical_formula_sum "Si O2"
_cell_formula_units_Z 40
_cell_length_a 8.017184
_cell_length_b 7.252333
_cell_length_c 31.130684
_cell_angle_alpha 90.000000
_cell_angle_beta 90.000000
_cell_angle_gamma 90.000000
_cell_volume 1810.040328
_symmetry_space_group_name_H-M "P M N A"
_symmetry_group_IT_number 53
_symmetry_cell_setting 'orthorhombic'
loop_
_space_group_symop_operation_xyz
x,y,z
1/2-x,-y,1/2+z
x,-y,-z
1/2-x,y,1/2-z
-x,-y,-z
1/2+x,y,1/2-z
-x,y,z
1/2+x,-y,1/2+z
loop_
_atom_site_type_symbol
_atom_site_label
_atom_site_fract_x
_atom_site_fract_y
_atom_site_fract_z
Si Si1 0.299490 0.591376 0.201668
Si Si2 0.201811 0.681176 0.626868
Si Si3 0.296238 0.899941 0.142444
Si Si4 0.191486 0.194869 0.551523
Si Si5 0.808043 0.216674 0.039080
O O1 0.250000 0.548940 0.250000
O O2 0.500000 0.587532 0.200289
O O3 0.239736 0.450776 0.164946
O O4 0.244176 0.792704 0.185020
O O5 0.261142 0.648727 0.578000
O O6 0.000000 0.674389 0.625878
O O7 0.257160 0.889288 0.638643
O O8 0.500000 0.901218 0.140717
O O9 0.241578 0.787324 0.099885
O O10 0.280200 0.277588 0.509906
O O11 0.000000 0.255262 0.550495
O O12 0.200985 0.970740 0.545465
O O13 0.000000 0.162210 0.043768
#
# Coordination Sequence:
#
# PCOD9414189 Si02
#       5
#     8   8   8   8   8
#     4  10  21  37  55  75  99 127 164 211 257 300
#     4   9  18  34  54  73  99 136 171 202 242 298
#     4   8  16  32  53  75  98 129 169 205 239 290
#     4   9  15  27  48  72 102 139 173 202 241 297
#     4  10  17  26  45  75 107 134 166 208 249 290
#
# _framework density 22.098956999999999
#
# number of rings (size 3 to 8) (size 9 to 14) (size 15 to 20)
#    0.000    2.800    0.000    4.800    0.000    1.600 
#    0.000    6.000    0.000    6.000    0.000    0.000 
#    0.000    0.000    0.000    0.000    0.000    0.000 
#
# Total GULP energy -223195.834299 kJ/mol
# GULP energy per Si atom -5579.895857 kJ/mol
# Density = 2.204866 g / cm^3
# Si number density = 22.098957 Si / 1000 Ang^3
#
#
#
# Elastic Constant Matrix: (Units=GPa)
#
#
# Indices 1 2 3 4 5 6 
#
# 1 33.4714 2.4503 9.1319 0.0000 0.0000 0.0000
# 2 2.4503 54.6136 34.3666 0.0000 0.0000 0.0000
# 3 9.1319 34.3666 153.5814 0.0000 0.0000 0.0000
# 4 0.0000 0.0000 0.0000 35.4898 0.0000 0.0000
# 5 0.0000 0.0000 0.0000 0.0000 25.2731 0.0000
# 6 0.0000 0.0000 0.0000 0.0000 0.0000 -0.9417
#
#
#
# Elastic Compliance Matrix: (Units=1/GPa)
#
#
# Indices 1 2 3 4 5 6 
#
# 1 0.030372 -0.000263 -0.001747 0.000000 0.000000 0.000000
# 2 -0.000263 0.021314 -0.004754 0.000000 0.000000 0.000000
# 3 -0.001747 -0.004754 0.007679 0.000000 0.000000 0.000000
# 4 0.000000 0.000000 0.000000 0.028177 0.000000 0.000000
# 5 0.000000 0.000000 0.000000 0.000000 0.039568 0.000000
# 6 0.000000 0.000000 0.000000 0.000000 0.000000 -1.061896
#
#
# Mechanical properties :
#
#
# Convention : Reuss Voigt Hill
#
# Bulk Modulus (GPa) = 21.81662 37.06265 29.43964
# Shear Modulus (GPa) = -5.51889 25.01208 9.74660
#
# Velocity S-wave (km/s) = -1.58202 3.36791 2.10238
# Velocity P-wave (km/s) = 2.56059 5.65078 4.38680
#
# Compressibility (1/GPa) = 0.04583660
#
# Stress axis : x y z
#
# Youngs Moduli (GPa) = 32.92485 46.91840 130.22881
#
# Poissons Ratio (x) = 0.01236 0.22751
# Poissons Ratio (y) = 0.00867 0.61906
# Poissons Ratio (z) = 0.05752 0.22303
#
# Static dielectric constant tensor:
#      x y z
#    x 1.788500 0.000000 0.000000 
#    y 0.000000 1.853410 0.000000 
#    z 0.000000 0.000000 1.826070 
# 
# From -- ./inp_files/37526.got.cif
#   From: 2010.05.17/outbox.cif.g08.bks.cpg/sg53_19_cif.got.tgz:37526.got - 2010.06.03 12:45:16.
