data_PCOD9414262
_publ_section_title
;
Structure prediction by ZEFSAII (Michael W. Deem and Ramdas Pophale) SiO2 
 PCOD9414262
Probable space group: P M N A
;
_chemical_formula_sum "Si O2"
_cell_formula_units_Z 64
_cell_length_a 8.973211
_cell_length_b 19.615857
_cell_length_c 22.026631
_cell_angle_alpha 90.000000
_cell_angle_beta 90.000000
_cell_angle_gamma 90.000000
_cell_volume 3877.066438
_symmetry_space_group_name_H-M "P M N A"
_symmetry_group_IT_number 53
_symmetry_cell_setting 'orthorhombic'
loop_
_space_group_symop_operation_xyz
x,y,z
1/2-x,-y,1/2+z
x,-y,-z
1/2-x,y,1/2-z
-x,-y,-z
1/2+x,y,1/2-z
-x,y,z
1/2+x,-y,1/2+z
loop_
_atom_site_type_symbol
_atom_site_label
_atom_site_fract_x
_atom_site_fract_y
_atom_site_fract_z
Si Si1 0.819112 0.548600 0.056409
Si Si2 0.180218 0.306228 0.996921
Si Si3 0.666205 0.098984 0.101744
Si Si4 0.330184 0.030634 0.568930
Si Si5 0.329952 0.162662 0.966947
Si Si6 0.325381 0.805872 0.690127
Si Si7 0.681091 0.665437 0.636895
Si Si8 0.819113 0.482728 0.184583
O O1 0.773796 0.525193 0.124074
O O2 0.000000 0.543792 0.055642
O O3 0.768563 0.500000 0.000000
O O4 0.780237 0.626682 0.041763
O O5 0.256446 0.236868 0.974382
O O6 0.223947 0.323735 0.066602
O O7 0.000000 0.297642 0.995829
O O8 0.500000 0.106722 0.127622
O O9 0.662073 0.128322 0.033660
O O10 0.785671 0.144556 0.135799
O O11 0.719356 0.021169 0.102146
O O12 0.500000 0.027446 0.591367
O O13 0.268533 0.107427 0.569090
O O14 0.333135 0.000000 0.500000
O O15 0.500000 0.167750 0.944178
O O16 0.250000 0.833128 0.750000
O O17 0.500000 0.800468 0.698577
O O18 0.264975 0.730813 0.673971
O O19 0.500000 0.665133 0.636847
O O20 0.727003 0.594657 0.667033
O O21 0.750000 0.501680 0.250000
O O22 0.000000 0.485578 0.189232
#
# Coordination Sequence:
#
# PCOD9414262 Si02
#       8
#     8   8   8   8   8   8   8   8
#     4   9  16  29  52  75  96 126 171 218 255 299
#     4  10  17  29  50  73  95 127 168 210 252 299
#     4  10  19  31  46  66  94 127 161 199 243 289
#     4   9  17  29  47  69  92 122 158 193 231 281
#     4  10  19  30  45  69 100 128 155 194 245 299
#     4  11  21  32  45  65  94 131 171 210 246 291
#     4   9  17  29  48  69  94 127 168 209 247 293
#     4  10  19  33  51  74  99 130 169 212 260 307
#
# _framework density 16.507325999999999
#
# number of rings (size 3 to 8) (size 9 to 14) (size 15 to 20)
#    0.000    2.250    2.500    1.875    0.000    2.500 
#    0.000    1.875    0.000    0.750    0.000    0.875 
#    0.000    2.000    0.000    0.000    0.000    0.000 
#
# Total GULP energy -356522.793456 kJ/mol
# GULP energy per Si atom -5570.668648 kJ/mol
# Density = 1.646975 g / cm^3
# Si number density = 16.507326 Si / 1000 Ang^3
#
#
#
# Elastic Constant Matrix: (Units=GPa)
#
#
# Indices 1 2 3 4 5 6 
#
# 1 40.8899 25.2549 8.3722 0.0000 0.0000 0.0000
# 2 25.2549 101.8303 24.6480 0.0000 0.0000 0.0000
# 3 8.3722 24.6480 47.5716 0.0000 0.0000 0.0000
# 4 0.0000 0.0000 0.0000 -2.6546 0.0000 0.0000
# 5 0.0000 0.0000 0.0000 0.0000 18.9991 0.0000
# 6 0.0000 0.0000 0.0000 0.0000 0.0000 11.7268
#
#
#
# Elastic Compliance Matrix: (Units=1/GPa)
#
#
# Indices 1 2 3 4 5 6 
#
# 1 0.028982 -0.006807 -0.001574 0.000000 0.000000 0.000000
# 2 -0.006807 0.012827 -0.005448 0.000000 0.000000 0.000000
# 3 -0.001574 -0.005448 0.024121 0.000000 0.000000 0.000000
# 4 0.000000 0.000000 0.000000 -0.376709 0.000000 0.000000
# 5 0.000000 0.000000 0.000000 0.000000 0.052634 0.000000
# 6 0.000000 0.000000 0.000000 0.000000 0.000000 0.085275
#
#
# Mechanical properties :
#
#
# Convention : Reuss Voigt Hill
#
# Bulk Modulus (GPa) = 26.12844 34.09357 30.11101
# Shear Modulus (GPa) = -37.74871 14.41537 -11.66667
#
# Velocity S-wave (km/s) = -4.78722 2.95832 -2.66137
# Velocity P-wave (km/s) = 3.83326 5.68923 2.97266
#
# Compressibility (1/GPa) = 0.03827247
#
# Stress axis : x y z
#
# Youngs Moduli (GPa) = 34.50376 77.95955 41.45821
#
# Poissons Ratio (x) = 0.53067 0.06525
# Poissons Ratio (y) = 0.23487 0.22587
# Poissons Ratio (z) = 0.05430 0.42473
#
# Static dielectric constant tensor:
#      x y z
#    x 1.566660 0.000000 0.000000 
#    y 0.000000 1.551380 0.000000 
#    z 0.000000 0.000000 1.598800 
# 
# From -- ./inp_files/34482.got.cif
#   From: 2010.05.17/outbox.cif.g08.bks.cpg/sg53_18_cif.got.tgz:34482.got - 2010.06.03 12:45:16.
