data_PCOD9414326
_publ_section_title
;
Structure prediction by ZEFSAII (Michael W. Deem and Ramdas Pophale) SiO2 
 PCOD9414326
Probable space group: P M N A
;
_chemical_formula_sum "Si O2"
_cell_formula_units_Z 28
_cell_length_a 23.172584
_cell_length_b 11.655665
_cell_length_c 5.267923
_cell_angle_alpha 90.000000
_cell_angle_beta 90.000000
_cell_angle_gamma 90.000000
_cell_volume 1422.823207
_symmetry_space_group_name_H-M "P M N A"
_symmetry_group_IT_number 53
_symmetry_cell_setting 'orthorhombic'
loop_
_space_group_symop_operation_xyz
x,y,z
1/2-x,-y,1/2+z
x,-y,-z
1/2-x,y,1/2-z
-x,-y,-z
1/2+x,y,1/2-z
-x,y,z
1/2+x,-y,1/2+z
loop_
_atom_site_type_symbol
_atom_site_label
_atom_site_fract_x
_atom_site_fract_y
_atom_site_fract_z
Si Si1 0.288966 0.500000 0.000000
Si Si2 0.820784 0.125994 0.916249
Si Si3 0.066097 0.876785 0.362709
Si Si4 0.665222 0.251058 0.081936
O O1 0.250000 0.489748 0.750000
O O2 0.324897 0.616668 0.973741
O O3 0.695686 0.172185 0.863890
O O4 0.812341 0.215421 0.142505
O O5 0.890712 0.118157 0.875623
O O6 0.800488 0.000000 0.000000
O O7 0.098519 0.785395 0.543737
O O8 0.000000 0.850312 0.304558
O O9 0.068992 0.000000 0.500000
#
# Coordination Sequence:
#
# PCOD9414326 Si02
#       4
#     4   8   8   8
#     4  12  26  46  69  82 103 158 218 256 300 354
#     4  10  17  34  57  87 124 156 182 234 295 349
#     4   9  18  32  58  94 128 163 191 224 289 365
#     4  10  21  37  59  87 120 151 200 252 287 344
#
# _framework density 19.679185
#
# number of rings (size 3 to 8) (size 9 to 14) (size 15 to 20)
#    1.714    0.286    2.857    2.571    0.000    1.714 
#    0.000    0.714    0.000   30.857    0.000    0.000 
#    0.000    0.000    0.000    0.000    0.000    0.000 
#
# Total GULP energy -156143.666715 kJ/mol
# GULP energy per Si atom -5576.559526 kJ/mol
# Density = 1.963439 g / cm^3
# Si number density = 19.679185 Si / 1000 Ang^3
#
#
#
# Elastic Constant Matrix: (Units=GPa)
#
#
# Indices 1 2 3 4 5 6 
#
# 1 82.0992 22.2998 11.7473 0.0000 0.0000 0.0000
# 2 22.2998 142.8168 33.5764 0.0000 0.0000 0.0000
# 3 11.7473 33.5764 124.4654 0.0000 0.0000 0.0000
# 4 0.0000 0.0000 0.0000 33.2098 0.0000 0.0000
# 5 0.0000 0.0000 0.0000 0.0000 27.2954 0.0000
# 6 0.0000 0.0000 0.0000 0.0000 0.0000 15.5843
#
#
#
# Elastic Compliance Matrix: (Units=1/GPa)
#
#
# Indices 1 2 3 4 5 6 
#
# 1 0.012779 -0.001828 -0.000713 0.000000 0.000000 0.000000
# 2 -0.001828 0.007738 -0.001915 0.000000 0.000000 0.000000
# 3 -0.000713 -0.001915 0.008618 0.000000 0.000000 0.000000
# 4 0.000000 0.000000 0.000000 0.030112 0.000000 0.000000
# 5 0.000000 0.000000 0.000000 0.000000 0.036636 0.000000
# 6 0.000000 0.000000 0.000000 0.000000 0.000000 0.064167
#
#
# Mechanical properties :
#
#
# Convention : Reuss Voigt Hill
#
# Bulk Modulus (GPa) = 49.44741 53.84758 51.64750
# Shear Modulus (GPa) = 28.45732 34.00177 31.22955
#
# Velocity S-wave (km/s) = 3.80684 4.16120 3.98795
# Velocity P-wave (km/s) = 6.67113 7.10700 6.89251
#
# Compressibility (1/GPa) = 0.02022350
#
# Stress axis : x y z
#
# Youngs Moduli (GPa) = 78.25434 129.24019 116.03336
#
# Poissons Ratio (x) = 0.23621 0.08274
# Poissons Ratio (y) = 0.14302 0.22218
# Poissons Ratio (z) = 0.05580 0.24747
#
# Static dielectric constant tensor:
#      x y z
#    x 1.779220 0.000000 0.000000 
#    y 0.000000 1.652150 0.000000 
#    z 0.000000 0.000000 1.711380 
# 
# From -- ./inp_files/2545.got.cif
#   From: 2010.05.17/outbox.cif.g08.bks.cpg/sg53_2_cif.got.tgz:2545.got - 2010.06.03 12:45:16.
