data_PCOD9414413
_publ_section_title
;
Structure prediction by ZEFSAII (Michael W. Deem and Ramdas Pophale) SiO2 
 PCOD9414413
Probable space group: P M N A
;
_chemical_formula_sum "Si O2"
_cell_formula_units_Z 64
_cell_length_a 7.732465
_cell_length_b 22.573419
_cell_length_c 19.600900
_cell_angle_alpha 90.000000
_cell_angle_beta 90.000000
_cell_angle_gamma 90.000000
_cell_volume 3421.301271
_symmetry_space_group_name_H-M "P M N A"
_symmetry_group_IT_number 53
_symmetry_cell_setting 'orthorhombic'
loop_
_space_group_symop_operation_xyz
x,y,z
1/2-x,-y,1/2+z
x,-y,-z
1/2-x,y,1/2-z
-x,-y,-z
1/2+x,y,1/2-z
-x,y,z
1/2+x,-y,1/2+z
loop_
_atom_site_type_symbol
_atom_site_label
_atom_site_fract_x
_atom_site_fract_y
_atom_site_fract_z
Si Si1 0.804438 0.315791 0.974578
Si Si2 0.705411 0.392430 0.323233
Si Si3 0.291708 0.965074 0.671048
Si Si4 0.207977 0.098195 0.828653
Si Si5 0.787736 0.436939 0.029386
Si Si6 0.292092 0.149049 0.407912
Si Si7 0.212700 0.190506 0.941628
Si Si8 0.197631 0.726387 0.618553
O O1 0.726753 0.258868 0.936443
O O2 0.000000 0.323695 0.948746
O O3 0.726316 0.381092 0.983602
O O4 0.809867 0.292546 0.053037
O O5 0.750000 0.419513 0.250000
O O6 0.500000 0.388484 0.327850
O O7 0.766529 0.425528 0.392083
O O8 0.778032 0.325589 0.327449
O O9 0.250000 0.952692 0.750000
O O10 0.500000 0.966393 0.664430
O O11 0.225803 0.912182 0.623416
O O12 0.227326 0.031557 0.655392
O O13 0.250000 0.111091 0.750000
O O14 0.270573 0.147859 0.881002
O O15 0.000000 0.096691 0.834873
O O16 0.000000 0.435335 0.028512
O O17 0.733402 0.500000 0.000000
O O18 0.500000 0.145747 0.409880
O O19 0.233760 0.163533 0.485075
O O20 0.243807 0.206588 0.363059
O O21 0.000000 0.192477 0.941964
O O22 0.000000 0.725533 0.595433
#
# Coordination Sequence:
#
# PCOD9414413 Si02
#       8
#     8   8   8   8   8   8   8   8
#     4   8  14  27  46  67  90 114 143 181 219 257
#     4  10  19  31  47  67  93 123 157 194 227 262
#     4   9  18  30  44  60  82 112 144 181 223 269
#     4   9  17  30  46  64  84 110 145 183 227 275
#     4   8  14  26  47  72  93 117 151 186 220 262
#     4   9  17  30  45  63  87 115 148 185 223 263
#     4   8  14  26  46  67  86 110 144 186 225 260
#     4  10  18  28  43  64  90 118 146 177 218 266
#
# _framework density 18.706333000000001
#
# number of rings (size 3 to 8) (size 9 to 14) (size 15 to 20)
#    0.000    3.125    0.000    3.000    0.000    1.500 
#    0.000    6.250    0.000   10.125    0.000    7.000 
#    0.000    0.000    0.000    0.000    0.000    0.000 
#
# Total GULP energy -356375.603091 kJ/mol
# GULP energy per Si atom -5568.368798 kJ/mol
# Density = 1.866376 g / cm^3
# Si number density = 18.706333 Si / 1000 Ang^3
#
#
#
# Elastic Constant Matrix: (Units=GPa)
#
#
# Indices 1 2 3 4 5 6 
#
# 1 39.8609 6.1829 3.2118 0.0000 0.0000 0.0000
# 2 6.1829 190.4713 90.6692 0.0000 0.0000 0.0000
# 3 3.2118 90.6692 81.7838 0.0000 0.0000 0.0000
# 4 0.0000 0.0000 0.0000 20.3447 0.0000 0.0000
# 5 0.0000 0.0000 0.0000 0.0000 16.1194 0.0000
# 6 0.0000 0.0000 0.0000 0.0000 0.0000 1.1218
#
#
#
# Elastic Compliance Matrix: (Units=1/GPa)
#
#
# Indices 1 2 3 4 5 6 
#
# 1 0.025215 -0.000735 -0.000175 0.000000 0.000000 0.000000
# 2 -0.000735 0.011139 -0.012320 0.000000 0.000000 0.000000
# 3 -0.000175 -0.012320 0.025893 0.000000 0.000000 0.000000
# 4 0.000000 0.000000 0.000000 0.049153 0.000000 0.000000
# 5 0.000000 0.000000 0.000000 0.000000 0.062037 0.000000
# 6 0.000000 0.000000 0.000000 0.000000 0.000000 0.891439
#
#
# Mechanical properties :
#
#
# Convention : Reuss Voigt Hill
#
# Bulk Modulus (GPa) = 27.94381 56.91595 42.42988
# Shear Modulus (GPa) = 4.53200 21.65398 13.09299
#
# Velocity S-wave (km/s) = 1.55819 3.40601 2.64848
# Velocity P-wave (km/s) = 4.26707 6.77938 5.66427
#
# Compressibility (1/GPa) = 0.03578609
#
# Stress axis : x y z
#
# Youngs Moduli (GPa) = 39.65829 89.77830 38.62113
#
# Poissons Ratio (x) = 0.06599 0.00677
# Poissons Ratio (y) = 0.02915 0.47581
# Poissons Ratio (z) = 0.00695 1.10605
#
# Static dielectric constant tensor:
#      x y z
#    x 1.698730 0.000000 0.000000 
#    y 0.000000 1.684920 0.000000 
#    z 0.000000 0.000000 1.631600 
# 
# From -- ./inp_files/31317.got.cif
#   From: 2010.05.17/outbox.cif.g08.bks.cpg/sg53_16_cif.got.tgz:31317.got - 2010.06.03 12:45:16.
