data_PCOD9414691
_publ_section_title
;
Structure prediction by ZEFSAII (Michael W. Deem and Ramdas Pophale) SiO2 
 PCOD9414691
Probable space group: P M N A
;
_chemical_formula_sum "Si O2"
_cell_formula_units_Z 48
_cell_length_a 8.593650
_cell_length_b 16.791756
_cell_length_c 18.784332
_cell_angle_alpha 90.000000
_cell_angle_beta 90.000000
_cell_angle_gamma 90.000000
_cell_volume 2710.625579
_symmetry_space_group_name_H-M "P M N A"
_symmetry_group_IT_number 53
_symmetry_cell_setting 'orthorhombic'
loop_
_space_group_symop_operation_xyz
x,y,z
1/2-x,-y,1/2+z
x,-y,-z
1/2-x,y,1/2-z
-x,-y,-z
1/2+x,y,1/2-z
-x,y,z
1/2+x,-y,1/2+z
loop_
_atom_site_type_symbol
_atom_site_label
_atom_site_fract_x
_atom_site_fract_y
_atom_site_fract_z
Si Si1 0.686885 0.241383 0.954296
Si Si2 0.185048 0.657455 0.170420
Si Si3 0.811301 0.675140 0.598515
Si Si4 0.312486 0.512704 0.830206
Si Si5 0.813189 0.086663 0.029786
Si Si6 0.187028 0.838458 0.671957
O O1 0.500000 0.241331 0.949918
O O2 0.758493 0.273587 0.881853
O O3 0.735057 0.300328 0.018967
O O4 0.744988 0.155028 0.978688
O O5 0.250000 0.668692 0.250000
O O6 0.250911 0.572417 0.143611
O O7 0.000000 0.653571 0.173302
O O8 0.758775 0.588953 0.624643
O O9 0.763338 0.748234 0.649755
O O10 0.000000 0.673992 0.599785
O O11 0.250000 0.522542 0.750000
O O12 0.500000 0.510412 0.829083
O O13 0.749182 0.105296 0.108784
O O14 0.000000 0.092790 0.031242
O O15 0.770110 0.000000 0.000000
O O16 0.250000 0.857971 0.750000
O O17 0.000000 0.841075 0.671849
#
# Coordination Sequence:
#
# PCOD9414691 Si02
#       6
#     8   8   8   8   8   8
#     4  10  20  37  58  80 105 136 174 215 264 318
#     4  11  22  37  54  75 103 138 180 223 267 311
#     4   8  17  31  50  76 106 140 175 213 259 311
#     4  10  18  31  49  72 103 140 180 219 260 304
#     4  10  21  38  59  83 111 141 174 215 264 319
#     4  10  19  33  54  81 112 145 180 218 264 315
#
# _framework density 17.708089000000001
#
# number of rings (size 3 to 8) (size 9 to 14) (size 15 to 20)
#    0.000    2.167    0.000    6.000    0.000    2.000 
#    0.000   13.333    0.000    4.000    0.000    0.000 
#    0.000    0.000    0.000    0.000    0.000    0.000 
#
# Total GULP energy -267908.750081 kJ/mol
# GULP energy per Si atom -5581.432293 kJ/mol
# Density = 1.766778 g / cm^3
# Si number density = 17.708089 Si / 1000 Ang^3
#
#
#
# Elastic Constant Matrix: (Units=GPa)
#
#
# Indices 1 2 3 4 5 6 
#
# 1 88.2643 48.0159 43.9017 0.0000 0.0000 0.0000
# 2 48.0159 119.3500 86.7156 0.0000 0.0000 0.0000
# 3 43.9017 86.7156 110.1245 0.0000 0.0000 0.0000
# 4 0.0000 0.0000 0.0000 20.3682 0.0000 0.0000
# 5 0.0000 0.0000 0.0000 0.0000 24.0510 0.0000
# 6 0.0000 0.0000 0.0000 0.0000 0.0000 27.3105
#
#
#
# Elastic Compliance Matrix: (Units=1/GPa)
#
#
# Indices 1 2 3 4 5 6 
#
# 1 0.014876 -0.003917 -0.002846 0.000000 0.000000 0.000000
# 2 -0.003917 0.020613 -0.014670 0.000000 0.000000 0.000000
# 3 -0.002846 -0.014670 0.021767 0.000000 0.000000 0.000000
# 4 0.000000 0.000000 0.000000 0.049096 0.000000 0.000000
# 5 0.000000 0.000000 0.000000 0.000000 0.041578 0.000000
# 6 0.000000 0.000000 0.000000 0.000000 0.000000 0.036616
#
#
# Mechanical properties :
#
#
# Convention : Reuss Voigt Hill
#
# Bulk Modulus (GPa) = 69.49232 75.00056 72.24644
# Shear Modulus (GPa) = 21.53226 23.61965 22.57596
#
# Velocity S-wave (km/s) = 3.49084 3.65613 3.57444
# Velocity P-wave (km/s) = 7.45496 7.76330 7.61069
#
# Compressibility (1/GPa) = 0.01439008
#
# Stress axis : x y z
#
# Youngs Moduli (GPa) = 67.22224 48.51227 45.94120
#
# Poissons Ratio (x) = 0.19002 0.13075
# Poissons Ratio (y) = 0.26331 0.67396
# Poissons Ratio (z) = 0.19132 0.71168
#
# Static dielectric constant tensor:
#      x y z
#    x 1.598610 0.000000 0.000000 
#    y 0.000000 1.596480 0.000000 
#    z 0.000000 0.000000 1.589020 
# 
# From -- ./inp_files/26196.got.cif
#   From: 2010.05.17/outbox.cif.g08.bks.cpg/sg53_14_cif.got.tgz:26196.got - 2010.06.03 12:45:16.
