data_PCOD9414456
_publ_section_title
;
Structure prediction by ZEFSAII (Michael W. Deem and Ramdas Pophale) SiO2 
 PCOD9414456
Probable space group: P M N A
;
_chemical_formula_sum "Si O2"
_cell_formula_units_Z 36
_cell_length_a 13.131112
_cell_length_b 10.568607
_cell_length_c 12.547962
_cell_angle_alpha 90.000000
_cell_angle_beta 90.000000
_cell_angle_gamma 90.000000
_cell_volume 1741.375577
_symmetry_space_group_name_H-M "P M N A"
_symmetry_group_IT_number 53
_symmetry_cell_setting 'orthorhombic'
loop_
_space_group_symop_operation_xyz
x,y,z
1/2-x,-y,1/2+z
x,-y,-z
1/2-x,y,1/2-z
-x,-y,-z
1/2+x,y,1/2-z
-x,y,z
1/2+x,-y,1/2+z
loop_
_atom_site_type_symbol
_atom_site_label
_atom_site_fract_x
_atom_site_fract_y
_atom_site_fract_z
Si Si1 0.750000 0.100147 0.750000
Si Si2 0.696014 0.142099 0.980061
Si Si3 0.384093 0.899664 0.627848
Si Si4 0.668399 0.597513 0.911952
Si Si5 0.611170 0.615060 0.677154
O O1 0.704719 0.169806 0.853793
O O2 0.835219 0.007854 0.799905
O O3 0.810461 0.127514 0.027977
O O4 0.649911 0.259326 0.045408
O O5 0.650828 0.000000 0.000000
O O6 0.500000 0.926985 0.599871
O O7 0.382598 0.767068 0.689869
O O8 0.621450 0.567405 0.797364
O O9 0.790456 0.580922 0.891942
O O10 0.633300 0.500000 0.000000
O O11 0.500000 0.583139 0.631704
#
# Coordination Sequence:
#
# PCOD9414456 Si02
#       5
#     4   8   8   8   8
#     4  10  18  28  48  76 108 130 158 216 268 292
#     4   9  18  32  51  74 103 133 165 207 253 296
#     4   9  17  32  54  75  98 136 178 206 240 301
#     4  10  20  34  54  77 101 133 170 207 252 302
#     4   9  18  34  54  73  98 136 176 206 240 300
#
# _framework density 20.673311999999999
#
# number of rings (size 3 to 8) (size 9 to 14) (size 15 to 20)
#    0.000    2.667    0.000    4.000    0.000    6.667 
#    0.000    1.111    0.000   14.667    0.000    0.000 
#    0.000    0.000    0.000    0.000    0.000    0.000 
#
# Total GULP energy -200618.129467 kJ/mol
# GULP energy per Si atom -5572.725819 kJ/mol
# Density = 2.062626 g / cm^3
# Si number density = 20.673312 Si / 1000 Ang^3
#
#
#
# Elastic Constant Matrix: (Units=GPa)
#
#
# Indices 1 2 3 4 5 6 
#
# 1 43.4357 3.5439 -19.1730 0.0000 0.0000 0.0000
# 2 3.5439 47.7145 17.3368 0.0000 0.0000 0.0000
# 3 -19.1730 17.3368 108.1288 0.0000 0.0000 0.0000
# 4 0.0000 0.0000 0.0000 39.5012 0.0000 0.0000
# 5 0.0000 0.0000 0.0000 0.0000 -1.7398 0.0000
# 6 0.0000 0.0000 0.0000 0.0000 0.0000 7.8667
#
#
#
# Elastic Compliance Matrix: (Units=1/GPa)
#
#
# Indices 1 2 3 4 5 6 
#
# 1 0.025601 -0.003770 0.005144 0.000000 0.000000 0.000000
# 2 -0.003770 0.022810 -0.004326 0.000000 0.000000 0.000000
# 3 0.005144 -0.004326 0.010854 0.000000 0.000000 0.000000
# 4 0.000000 0.000000 0.000000 0.025316 0.000000 0.000000
# 5 0.000000 0.000000 0.000000 0.000000 -0.574767 0.000000
# 6 0.000000 0.000000 0.000000 0.000000 0.000000 0.127118
#
#
# Mechanical properties :
#
#
# Convention : Reuss Voigt Hill
#
# Bulk Modulus (GPa) = 18.74068 22.52162 20.63115
# Shear Modulus (GPa) = -14.73282 22.29704 3.78211
#
# Velocity S-wave (km/s) = -2.67245 3.28768 1.35404
# Velocity P-wave (km/s) = 0.66165 5.03284 3.52787
#
# Compressibility (1/GPa) = 0.05335986
#
# Stress axis : x y z
#
# Youngs Moduli (GPa) = 39.06136 43.84081 92.13273
#
# Poissons Ratio (x) = 0.16530 -0.47393
# Poissons Ratio (y) = 0.14728 0.39855
# Poissons Ratio (z) = -0.20093 0.18965
#
# Static dielectric constant tensor:
#      x y z
#    x 1.758540 0.000000 0.000000 
#    y 0.000000 1.757360 0.000000 
#    z 0.000000 0.000000 1.767210 
# 
# From -- ./inp_files/15681.got.cif
#   From: 2010.05.17/outbox.cif.g08.bks.cpg/sg53_8_cif.got.tgz:15681.got - 2010.06.03 12:45:16.
