data_PCOD9414224
_publ_section_title
;
Structure prediction by ZEFSAII (Michael W. Deem and Ramdas Pophale) SiO2 
 PCOD9414224
Probable space group: P M N A
;
_chemical_formula_sum "Si O2"
_cell_formula_units_Z 40
_cell_length_a 8.636011
_cell_length_b 13.304186
_cell_length_c 17.513451
_cell_angle_alpha 90.000000
_cell_angle_beta 90.000000
_cell_angle_gamma 90.000000
_cell_volume 2012.209645
_symmetry_space_group_name_H-M "P M N A"
_symmetry_group_IT_number 53
_symmetry_cell_setting 'orthorhombic'
loop_
_space_group_symop_operation_xyz
x,y,z
1/2-x,-y,1/2+z
x,-y,-z
1/2-x,y,1/2-z
-x,-y,-z
1/2+x,y,1/2-z
-x,y,z
1/2+x,-y,1/2+z
loop_
_atom_site_type_symbol
_atom_site_label
_atom_site_fract_x
_atom_site_fract_y
_atom_site_fract_z
Si Si1 0.184781 0.001138 0.828489
Si Si2 0.814543 0.178831 0.942264
Si Si3 0.683664 0.796750 0.887621
Si Si4 0.185121 0.615302 0.420855
Si Si5 0.315316 0.590215 0.593983
O O1 0.250000 0.044881 0.750000
O O2 0.260932 0.892782 0.840787
O O3 0.000000 0.990195 0.825064
O O4 0.221392 0.077047 0.897324
O O5 0.753150 0.276971 0.897306
O O6 0.000000 0.186895 0.951849
O O7 0.736984 0.180337 0.025383
O O8 0.500000 0.785235 0.884782
O O9 0.761997 0.691328 0.863762
O O10 0.245119 0.603995 0.508505
O O11 0.249057 0.516590 0.378286
O O12 0.000000 0.615958 0.420188
O O13 0.000000 0.585613 0.910883
#
# Coordination Sequence:
#
# PCOD9414224 Si02
#       5
#     8   8   8   8   8
#     4  11  24  40  57  77 105 141 180 222 268 319
#     4  10  20  35  55  80 109 141 178 219 265 315
#     4  11  21  34  55  82 110 140 178 221 265 314
#     4  10  17  27  46  75 108 138 172 214 262 312
#     4  10  17  28  47  73 107 141 173 212 262 313
#
# _framework density 19.878644000000001
#
# number of rings (size 3 to 8) (size 9 to 14) (size 15 to 20)
#    0.000    1.600    0.000   10.800    0.000    5.600 
#    0.000    0.000    0.000    1.200    0.000    5.600 
#    0.000    0.000    0.000    0.000    0.000    0.000 
#
# Total GULP energy -223381.993017 kJ/mol
# GULP energy per Si atom -5584.549825 kJ/mol
# Density = 1.983340 g / cm^3
# Si number density = 19.878644 Si / 1000 Ang^3
#
#
#
# Elastic Constant Matrix: (Units=GPa)
#
#
# Indices 1 2 3 4 5 6 
#
# 1 113.5616 33.6413 4.7356 0.0000 0.0000 0.0000
# 2 33.6413 108.1708 3.9841 0.0000 0.0000 0.0000
# 3 4.7356 3.9841 22.9095 0.0000 0.0000 0.0000
# 4 0.0000 0.0000 0.0000 1.6033 0.0000 0.0000
# 5 0.0000 0.0000 0.0000 0.0000 16.0989 0.0000
# 6 0.0000 0.0000 0.0000 0.0000 0.0000 31.0895
#
#
#
# Elastic Compliance Matrix: (Units=1/GPa)
#
#
# Indices 1 2 3 4 5 6 
#
# 1 0.009750 -0.002977 -0.001498 0.000000 0.000000 0.000000
# 2 -0.002977 0.010213 -0.001161 0.000000 0.000000 0.000000
# 3 -0.001498 -0.001161 0.044161 0.000000 0.000000 0.000000
# 4 0.000000 0.000000 0.000000 0.623718 0.000000 0.000000
# 5 0.000000 0.000000 0.000000 0.000000 0.062116 0.000000
# 6 0.000000 0.000000 0.000000 0.000000 0.000000 0.032165
#
#
# Mechanical properties :
#
#
# Convention : Reuss Voigt Hill
#
# Bulk Modulus (GPa) = 18.92013 36.59596 27.75805
# Shear Modulus (GPa) = 6.16513 23.24373 14.70443
#
# Velocity S-wave (km/s) = 1.76299 3.42319 2.72271
# Velocity P-wave (km/s) = 3.69900 5.83729 4.88654
#
# Compressibility (1/GPa) = 0.05285376
#
# Stress axis : x y z
#
# Youngs Moduli (GPa) = 102.56203 97.91163 22.64418
#
# Poissons Ratio (x) = 0.29150 0.03391
# Poissons Ratio (y) = 0.30534 0.02628
# Poissons Ratio (z) = 0.15361 0.11365
#
# Static dielectric constant tensor:
#      x y z
#    x 1.657650 0.000000 0.000000 
#    y 0.000000 1.777630 0.000000 
#    z 0.000000 0.000000 1.808750 
# 
# From -- ./inp_files/19872.got.cif
#   From: 2010.05.17/outbox.cif.g08.bks.cpg/sg53_10_cif.got.tgz:19872.got - 2010.06.03 12:45:16.
