data_PCOD9414176
_publ_section_title
;
Structure prediction by ZEFSAII (Michael W. Deem and Ramdas Pophale) SiO2 
 PCOD9414176
Probable space group: P M N A
;
_chemical_formula_sum "Si O2"
_cell_formula_units_Z 60
_cell_length_a 7.424866
_cell_length_b 13.226292
_cell_length_c 24.854645
_cell_angle_alpha 90.000000
_cell_angle_beta 90.000000
_cell_angle_gamma 90.000000
_cell_volume 2440.811783
_symmetry_space_group_name_H-M "P M N A"
_symmetry_group_IT_number 53
_symmetry_cell_setting 'orthorhombic'
loop_
_space_group_symop_operation_xyz
x,y,z
1/2-x,-y,1/2+z
x,-y,-z
1/2-x,y,1/2-z
-x,-y,-z
1/2+x,y,1/2-z
-x,y,z
1/2+x,-y,1/2+z
loop_
_atom_site_type_symbol
_atom_site_label
_atom_site_fract_x
_atom_site_fract_y
_atom_site_fract_z
Si Si1 0.785456 0.632689 0.808373
Si Si2 0.215946 0.757131 0.186309
Si Si3 0.781563 0.360489 0.913087
Si Si4 0.780303 0.222670 0.011040
Si Si5 0.714828 0.861311 0.690568
Si Si6 0.765842 0.000000 0.500000
Si Si7 0.289764 0.955978 0.375629
Si Si8 0.780879 0.577466 0.924679
O O1 0.750000 0.586807 0.750000
O O2 0.711690 0.747417 0.809799
O O3 0.726396 0.578701 0.862108
O O4 0.000000 0.637903 0.812895
O O5 0.250000 0.751684 0.250000
O O6 0.279336 0.666003 0.147257
O O7 0.284650 0.859444 0.156745
O O8 0.000000 0.756867 0.181255
O O9 0.720538 0.464886 0.940753
O O10 0.000000 0.367791 0.912164
O O11 0.740851 0.267103 0.952026
O O12 0.689980 0.114673 0.020308
O O13 0.725597 0.316289 0.049242
O O14 0.000000 0.206149 0.016712
O O15 0.750000 0.903718 0.750000
O O16 0.500000 0.850870 0.682335
O O17 0.787528 0.939785 0.647570
O O18 0.710510 0.959119 0.440233
O O19 0.500000 0.956482 0.360669
O O20 0.000000 0.579464 0.930992
#
# Coordination Sequence:
#
# PCOD9414176 Si02
#       8
#     8   8   8   8   8   4   8   8
#     4   9  17  29  44  66  94 124 160 201 243 291
#     4  10  20  34  51  74 103 136 172 211 255 304
#     4   9  17  30  45  66  97 128 163 206 250 300
#     4  10  17  26  42  68  99 132 164 201 256 309
#     4   9  17  29  45  66  93 125 161 201 243 293
#     4  12  19  26  44  70 105 138 163 206 261 316
#     4  10  18  28  43  67  99 131 164 203 253 306
#     4   9  17  28  44  65  94 131 165 202 252 305
#
# _framework density 24.581985
#
# number of rings (size 3 to 8) (size 9 to 14) (size 15 to 20)
#    0.000    2.400    1.333    2.800    0.000    4.267 
#    0.000    0.000    0.000    0.000    0.000    2.800 
#    0.000    2.133    0.000    0.000    0.000    0.000 
#
# Total GULP energy -334131.765194 kJ/mol
# GULP energy per Si atom -5568.862753 kJ/mol
# Density = 2.452604 g / cm^3
# Si number density = 24.581985 Si / 1000 Ang^3
#
#
#
# Elastic Constant Matrix: (Units=GPa)
#
#
# Indices 1 2 3 4 5 6 
#
# 1 76.4748 15.5320 2.3884 0.0000 0.0000 0.0000
# 2 15.5320 174.9415 45.3144 0.0000 0.0000 0.0000
# 3 2.3884 45.3144 99.3519 0.0000 0.0000 0.0000
# 4 0.0000 0.0000 0.0000 27.2360 0.0000 0.0000
# 5 0.0000 0.0000 0.0000 0.0000 -36.3796 0.0000
# 6 0.0000 0.0000 0.0000 0.0000 0.0000 -21.1832
#
#
#
# Elastic Compliance Matrix: (Units=1/GPa)
#
#
# Indices 1 2 3 4 5 6 
#
# 1 0.013322 -0.001247 0.000249 0.000000 0.000000 0.000000
# 2 -0.001247 0.006599 -0.002980 0.000000 0.000000 0.000000
# 3 0.000249 -0.002980 0.011418 0.000000 0.000000 0.000000
# 4 0.000000 0.000000 0.000000 0.036716 0.000000 0.000000
# 5 0.000000 0.000000 0.000000 0.000000 -0.027488 0.000000
# 6 0.000000 0.000000 0.000000 0.000000 0.000000 -0.047207
#
#
# Mechanical properties :
#
#
# Convention : Reuss Voigt Hill
#
# Bulk Modulus (GPa) = 42.76754 53.02641 47.89698
# Shear Modulus (GPa) = 548.82763 13.10354 280.96559
#
# Velocity S-wave (km/s) = 14.95824 2.31130 10.70259
# Velocity P-wave (km/s) = 17.76985 5.36105 13.12456
#
# Compressibility (1/GPa) = 0.02338222
#
# Stress axis : x y z
#
# Youngs Moduli (GPa) = 75.06529 151.54402 87.57877
#
# Poissons Ratio (x) = 0.18900 -0.02177
# Poissons Ratio (y) = 0.09362 0.26096
# Poissons Ratio (z) = -0.01866 0.45156
#
# Static dielectric constant tensor:
#      x y z
#    x 1.994530 0.000000 0.000000 
#    y 0.000000 1.951610 0.000000 
#    z 0.000000 0.000000 1.950250 
# 
# From -- ./inp_files/32019.got.cif
#   From: 2010.05.17/outbox.cif.g08.bks.cpg/sg53_17_cif.got.tgz:32019.got - 2010.06.03 12:45:16.
