data_PCOD9414271
_publ_section_title
;
Structure prediction by ZEFSAII (Michael W. Deem and Ramdas Pophale) SiO2 
 PCOD9414271
Probable space group: P M N A
;
_chemical_formula_sum "Si O2"
_cell_formula_units_Z 64
_cell_length_a 28.005416
_cell_length_b 9.954826
_cell_length_c 11.835295
_cell_angle_alpha 90.000000
_cell_angle_beta 90.000000
_cell_angle_gamma 90.000000
_cell_volume 3299.550571
_symmetry_space_group_name_H-M "P M N A"
_symmetry_group_IT_number 53
_symmetry_cell_setting 'orthorhombic'
loop_
_space_group_symop_operation_xyz
x,y,z
1/2-x,-y,1/2+z
x,-y,-z
1/2-x,y,1/2-z
-x,-y,-z
1/2+x,y,1/2-z
-x,y,z
1/2+x,-y,1/2+z
loop_
_atom_site_type_symbol
_atom_site_label
_atom_site_fract_x
_atom_site_fract_y
_atom_site_fract_z
Si Si1 0.947267 0.477280 0.220579
Si Si2 0.265497 0.153241 0.998755
Si Si3 0.910880 0.628827 0.431287
Si Si4 0.172606 0.221945 0.704061
Si Si5 0.553113 0.793187 0.860734
Si Si6 0.155171 0.546861 0.128187
Si Si7 0.204306 0.286192 0.173160
Si Si8 0.348384 0.086240 0.183241
O O1 0.943680 0.568041 0.333318
O O2 0.942199 0.324364 0.265984
O O3 0.901326 0.522244 0.149489
O O4 0.000000 0.492464 0.168827
O O5 0.226174 0.250353 0.052266
O O6 0.313230 0.133350 0.079462
O O7 0.281250 0.211242 0.877715
O O8 0.246318 0.000000 0.000000
O O9 0.890809 0.500000 0.500000
O O10 0.868429 0.710367 0.373304
O O11 0.939407 0.718026 0.520197
O O12 0.170915 0.311471 0.817489
O O13 0.161426 0.065278 0.719935
O O14 0.500000 0.851096 0.853145
O O15 0.596878 0.894470 0.850046
O O16 0.184600 0.433564 0.195646
O O17 0.164226 0.500000 0.000000
O O18 0.250000 0.259998 0.250000
O O19 0.164232 0.183074 0.213014
#
# Coordination Sequence:
#
# PCOD9414271 Si02
#       8
#     8   8   8   8   8   8   8   8
#     4   9  18  34  56  82 116 158 200 241 290 353
#     4   9  19  36  63  87 113 153 197 238 303 368
#     4   9  17  29  52  87 124 155 196 240 294 355
#     4  10  21  37  61  84 121 160 192 244 302 359
#     4  10  17  29  56  88 121 159 195 239 298 362
#     4  11  24  40  57  86 114 147 199 250 297 348
#     4  10  22  39  60  82 113 151 191 242 293 360
#     4  10  19  37  57  88 123 156 195 236 296 366
#
# _framework density 19.396581000000001
#
# number of rings (size 3 to 8) (size 9 to 14) (size 15 to 20)
#    0.000    2.250    2.500    0.375    0.000    3.750 
#    0.000    6.875    0.000    0.000    0.000    1.750 
#    0.000    0.000    0.000    0.000    0.000    0.000 
#
# Total GULP energy -356722.897959 kJ/mol
# GULP energy per Si atom -5573.795281 kJ/mol
# Density = 1.935243 g / cm^3
# Si number density = 19.396581 Si / 1000 Ang^3
#
#
#
# Elastic Constant Matrix: (Units=GPa)
#
#
# Indices 1 2 3 4 5 6 
#
# 1 79.5906 26.8871 19.4951 0.0000 0.0000 0.0000
# 2 26.8871 73.7573 30.5024 0.0000 0.0000 0.0000
# 3 19.4951 30.5024 73.1730 0.0000 0.0000 0.0000
# 4 0.0000 0.0000 0.0000 21.3485 0.0000 0.0000
# 5 0.0000 0.0000 0.0000 0.0000 16.7666 0.0000
# 6 0.0000 0.0000 0.0000 0.0000 0.0000 13.2959
#
#
#
# Elastic Compliance Matrix: (Units=1/GPa)
#
#
# Indices 1 2 3 4 5 6 
#
# 1 0.014571 -0.004478 -0.002015 0.000000 0.000000 0.000000
# 2 -0.004478 0.017758 -0.006210 0.000000 0.000000 0.000000
# 3 -0.002015 -0.006210 0.016792 0.000000 0.000000 0.000000
# 4 0.000000 0.000000 0.000000 0.046842 0.000000 0.000000
# 5 0.000000 0.000000 0.000000 0.000000 0.059643 0.000000
# 6 0.000000 0.000000 0.000000 0.000000 0.000000 0.075211
#
#
# Mechanical properties :
#
#
# Convention : Reuss Voigt Hill
#
# Bulk Modulus (GPa) = 42.16774 42.25447 42.21110
# Shear Modulus (GPa) = 18.93028 20.25793 19.59411
#
# Velocity S-wave (km/s) = 3.12742 3.23524 3.18179
# Velocity P-wave (km/s) = 5.90153 5.98226 5.94203
#
# Compressibility (1/GPa) = 0.02371481
#
# Stress axis : x y z
#
# Youngs Moduli (GPa) = 68.63077 56.31143 59.55346
#
# Poissons Ratio (x) = 0.25217 0.12002
# Poissons Ratio (y) = 0.30734 0.36980
# Poissons Ratio (z) = 0.13831 0.34967
#
# Static dielectric constant tensor:
#      x y z
#    x 1.669190 0.000000 0.000000 
#    y 0.000000 1.670770 0.000000 
#    z 0.000000 0.000000 1.756360 
# 
# From -- ./inp_files/19017.got.cif
#   From: 2010.05.17/outbox.cif.g08.bks.cpg/sg53_10_cif.got.tgz:19017.got - 2010.06.03 12:45:16.
