data_PCOD9414601
_publ_section_title
;
Structure prediction by ZEFSAII (Michael W. Deem and Ramdas Pophale) SiO2 
 PCOD9414601
Probable space group: P M N A
;
_chemical_formula_sum "Si O2"
_cell_formula_units_Z 64
_cell_length_a 8.186972
_cell_length_b 14.585737
_cell_length_c 30.910502
_cell_angle_alpha 90.000000
_cell_angle_beta 90.000000
_cell_angle_gamma 90.000000
_cell_volume 3691.116406
_symmetry_space_group_name_H-M "P M N A"
_symmetry_group_IT_number 53
_symmetry_cell_setting 'orthorhombic'
loop_
_space_group_symop_operation_xyz
x,y,z
1/2-x,-y,1/2+z
x,-y,-z
1/2-x,y,1/2-z
-x,-y,-z
1/2+x,y,1/2-z
-x,y,z
1/2+x,-y,1/2+z
loop_
_atom_site_type_symbol
_atom_site_label
_atom_site_fract_x
_atom_site_fract_y
_atom_site_fract_z
Si Si1 0.309495 0.028480 0.939714
Si Si2 0.300980 0.806888 0.009436
Si Si3 0.302662 0.297040 0.077716
Si Si4 0.806139 0.003615 0.798912
Si Si5 0.802804 0.875575 0.623683
Si Si6 0.805751 0.318462 0.589588
Si Si7 0.306222 0.155969 0.636606
Si Si8 0.306416 0.504512 0.550062
O O1 0.500000 0.008813 0.948882
O O2 0.243555 0.089984 0.979461
O O3 0.294574 0.102290 0.900444
O O4 0.238986 0.938362 0.916548
O O5 0.500000 0.810431 0.010198
O O6 0.246697 0.738071 0.047260
O O7 0.254708 0.761217 0.964712
O O8 0.500000 0.305745 0.078182
O O9 0.252206 0.229893 0.116947
O O10 0.232268 0.397720 0.071451
O O11 0.750000 0.992653 0.750000
O O12 0.760755 0.102946 0.819455
O O13 0.000000 0.998130 0.799565
O O14 0.743335 0.926241 0.832174
O O15 0.000000 0.877476 0.620583
O O16 0.731358 0.263056 0.630059
O O17 0.762562 0.422792 0.579490
O O18 0.000000 0.310089 0.592373
O O19 0.500000 0.141450 0.629007
O O20 0.241883 0.500000 0.500000
O O21 0.500000 0.491912 0.547537
#
# Coordination Sequence:
#
# PCOD9414601 Si02
#       8
#     8   8   8   8   8   8   8   8
#     4   8  14  26  42  63  91 127 165 199 236 283
#     4   8  14  24  41  64  88 121 164 204 242 278
#     4  10  19  31  46  66  94 131 172 215 251 288
#     4  10  20  34  55  79 105 133 160 195 241 295
#     4   9  18  31  48  70  99 130 165 205 246 295
#     4  10  18  30  49  69  93 128 167 210 251 293
#     4   9  17  29  46  72 101 127 155 194 243 294
#     4  11  22  33  46  67  94 130 174 220 261 294
#
# _framework density 17.338927999999999
#
# number of rings (size 3 to 8) (size 9 to 14) (size 15 to 20)
#    0.000    2.625    1.250    2.250    0.000    3.000 
#    0.000    2.500    0.000    0.000    0.000    7.875 
#    0.000    2.000    0.000    0.000    0.000    0.000 
#
# Total GULP energy -356491.406319 kJ/mol
# GULP energy per Si atom -5570.178224 kJ/mol
# Density = 1.729946 g / cm^3
# Si number density = 17.338928 Si / 1000 Ang^3
#
#
#
# Elastic Constant Matrix: (Units=GPa)
#
#
# Indices 1 2 3 4 5 6 
#
# 1 26.1082 10.8427 12.3880 0.0000 0.0000 0.0000
# 2 10.8427 136.1979 48.4093 0.0000 0.0000 0.0000
# 3 12.3880 48.4093 74.0194 0.0000 0.0000 0.0000
# 4 0.0000 0.0000 0.0000 16.2918 0.0000 0.0000
# 5 0.0000 0.0000 0.0000 0.0000 10.2879 0.0000
# 6 0.0000 0.0000 0.0000 0.0000 0.0000 15.3634
#
#
#
# Elastic Compliance Matrix: (Units=1/GPa)
#
#
# Indices 1 2 3 4 5 6 
#
# 1 0.041731 -0.001094 -0.006269 0.000000 0.000000 0.000000
# 2 -0.001094 0.009595 -0.006092 0.000000 0.000000 0.000000
# 3 -0.006269 -0.006092 0.018543 0.000000 0.000000 0.000000
# 4 0.000000 0.000000 0.000000 0.061381 0.000000 0.000000
# 5 0.000000 0.000000 0.000000 0.000000 0.097202 0.000000
# 6 0.000000 0.000000 0.000000 0.000000 0.000000 0.065090
#
#
# Mechanical properties :
#
#
# Convention : Reuss Voigt Hill
#
# Bulk Modulus (GPa) = 23.27768 42.17838 32.72803
# Shear Modulus (GPa) = 14.93562 19.36763 17.15163
#
# Velocity S-wave (km/s) = 2.93813 3.34578 3.14856
# Velocity P-wave (km/s) = 4.99644 6.26932 5.66872
#
# Compressibility (1/GPa) = 0.04295960
#
# Stress axis : x y z
#
# Youngs Moduli (GPa) = 23.96308 104.22520 53.92810
#
# Poissons Ratio (x) = 0.11404 0.33805
# Poissons Ratio (y) = 0.02622 0.32852
# Poissons Ratio (z) = 0.15021 0.63492
#
# Static dielectric constant tensor:
#      x y z
#    x 1.614860 0.000000 0.000000 
#    y 0.000000 1.636000 0.000000 
#    z 0.000000 0.000000 1.620330 
# 
# From -- ./inp_files/38454.got.cif
#   From: 2010.05.17/outbox.cif.g08.bks.cpg/sg53_20_cif.got.tgz:38454.got - 2010.06.03 12:45:16.
