data_PCOD9414407
_publ_section_title
;
Structure prediction by ZEFSAII (Michael W. Deem and Ramdas Pophale) SiO2 
 PCOD9414407
Probable space group: P M N A
;
_chemical_formula_sum "Si O2"
_cell_formula_units_Z 56
_cell_length_a 7.918212
_cell_length_b 15.080885
_cell_length_c 27.463685
_cell_angle_alpha 90.000000
_cell_angle_beta 90.000000
_cell_angle_gamma 90.000000
_cell_volume 3279.538719
_symmetry_space_group_name_H-M "P M N A"
_symmetry_group_IT_number 53
_symmetry_cell_setting 'orthorhombic'
loop_
_space_group_symop_operation_xyz
x,y,z
1/2-x,-y,1/2+z
x,-y,-z
1/2-x,y,1/2-z
-x,-y,-z
1/2+x,y,1/2-z
-x,y,z
1/2+x,-y,1/2+z
loop_
_atom_site_type_symbol
_atom_site_label
_atom_site_fract_x
_atom_site_fract_y
_atom_site_fract_z
Si Si1 0.792812 0.192010 0.433786
Si Si2 0.809176 0.582316 0.058127
Si Si3 0.305259 0.386762 0.047457
Si Si4 0.796585 0.879804 0.306027
Si Si5 0.795396 0.874327 0.461183
Si Si6 0.297231 0.267603 0.878180
Si Si7 0.706319 0.019698 0.113841
O O1 0.736386 0.293918 0.432247
O O2 0.736118 0.150421 0.485341
O O3 0.741479 0.121555 0.392587
O O4 0.000000 0.195056 0.434624
O O5 0.784426 0.477203 0.063007
O O6 0.770091 0.636673 0.106839
O O7 0.000000 0.600336 0.043228
O O8 0.700385 0.614585 0.011756
O O9 0.500000 0.395224 0.062211
O O10 0.750000 0.887444 0.250000
O O11 0.737436 0.787675 0.331164
O O12 0.000000 0.879392 0.309692
O O13 0.737172 0.962186 0.339677
O O14 0.753181 0.795842 0.423763
O O15 0.000000 0.879354 0.464000
O O16 0.741238 0.964234 0.434308
O O17 0.500000 0.273824 0.875739
O O18 0.500000 0.018906 0.114493
#
# Coordination Sequence:
#
# PCOD9414407 Si02
#       7
#     8   8   8   8   8   8   8
#     4   9  14  21  38  63  87 115 149 184 215 249
#     4  11  20  29  41  61  88 120 153 187 225 264
#     4  10  18  28  43  61  87 122 156 188 216 256
#     4   9  18  31  49  70  93 116 143 182 224 271
#     4   8  12  20  36  60  87 112 141 178 214 248
#     4   9  16  29  46  65  87 116 152 184 219 263
#     4   8  14  23  38  64  91 112 141 182 221 254
#
# _framework density 17.075572999999999
#
# number of rings (size 3 to 8) (size 9 to 14) (size 15 to 20)
#    0.000    2.857    1.429    4.714    0.000    2.286 
#    0.000    0.000    0.000    1.714    0.000    3.000 
#    0.000    2.286    0.000    0.000    0.000    0.000 
#
# Total GULP energy -311901.436035 kJ/mol
# GULP energy per Si atom -5569.668501 kJ/mol
# Density = 1.703671 g / cm^3
# Si number density = 17.075573 Si / 1000 Ang^3
#
#
#
# Elastic Constant Matrix: (Units=GPa)
#
#
# Indices 1 2 3 4 5 6 
#
# 1 20.0114 5.2546 3.2277 0.0000 0.0000 0.0000
# 2 5.2546 137.4001 49.9184 0.0000 0.0000 0.0000
# 3 3.2277 49.9184 68.8301 0.0000 0.0000 0.0000
# 4 0.0000 0.0000 0.0000 14.5172 0.0000 0.0000
# 5 0.0000 0.0000 0.0000 0.0000 12.2768 0.0000
# 6 0.0000 0.0000 0.0000 0.0000 0.0000 -8.9574
#
#
#
# Elastic Compliance Matrix: (Units=1/GPa)
#
#
# Indices 1 2 3 4 5 6 
#
# 1 0.050566 -0.001456 -0.001315 0.000000 0.000000 0.000000
# 2 -0.001456 0.009924 -0.007129 0.000000 0.000000 0.000000
# 3 -0.001315 -0.007129 0.019760 0.000000 0.000000 0.000000
# 4 0.000000 0.000000 0.000000 0.068884 0.000000 0.000000
# 5 0.000000 0.000000 0.000000 0.000000 0.081454 0.000000
# 6 0.000000 0.000000 0.000000 0.000000 0.000000 -0.111640
#
#
# Mechanical properties :
#
#
# Convention : Reuss Voigt Hill
#
# Bulk Modulus (GPa) = 16.54262 38.11589 27.32926
# Shear Modulus (GPa) = 31.46663 14.75671 23.11167
#
# Velocity S-wave (km/s) = 4.29743 2.94292 3.68298
# Velocity P-wave (km/s) = 5.85941 5.82392 5.84169
#
# Compressibility (1/GPa) = 0.06044992
#
# Stress axis : x y z
#
# Youngs Moduli (GPa) = 19.77612 100.76970 50.60657
#
# Poissons Ratio (x) = 0.14672 0.06656
# Poissons Ratio (y) = 0.02879 0.36076
# Poissons Ratio (z) = 0.02601 0.71836
#
# Static dielectric constant tensor:
#      x y z
#    x 1.613510 0.000000 0.000000 
#    y 0.000000 1.623340 0.000000 
#    z 0.000000 0.000000 1.559840 
# 
# From -- ./inp_files/38362.got.cif
#   From: 2010.05.17/outbox.cif.g08.bks.cpg/sg53_20_cif.got.tgz:38362.got - 2010.06.03 12:45:16.
