data_PCOD9414154
_publ_section_title
;
Structure prediction by ZEFSAII (Michael W. Deem and Ramdas Pophale) SiO2 
 PCOD9414154
Probable space group: P M N A
;
_chemical_formula_sum "Si O2"
_cell_formula_units_Z 40
_cell_length_a 8.647062
_cell_length_b 14.501431
_cell_length_c 18.367258
_cell_angle_alpha 90.000000
_cell_angle_beta 90.000000
_cell_angle_gamma 90.000000
_cell_volume 2303.158147
_symmetry_space_group_name_H-M "P M N A"
_symmetry_group_IT_number 53
_symmetry_cell_setting 'orthorhombic'
loop_
_space_group_symop_operation_xyz
x,y,z
1/2-x,-y,1/2+z
x,-y,-z
1/2-x,y,1/2-z
-x,-y,-z
1/2+x,y,1/2-z
-x,y,z
1/2+x,-y,1/2+z
loop_
_atom_site_type_symbol
_atom_site_label
_atom_site_fract_x
_atom_site_fract_y
_atom_site_fract_z
Si Si1 0.184741 0.104558 0.020205
Si Si2 0.679240 0.528599 0.086000
Si Si3 0.321286 0.348677 0.371255
Si Si4 0.681324 0.832980 0.825522
Si Si5 0.815018 0.286601 0.524164
O O1 0.237354 0.125807 0.102880
O O2 0.000000 0.116186 0.014680
O O3 0.267830 0.180320 0.968793
O O4 0.224648 0.000000 0.000000
O O5 0.500000 0.515951 0.105979
O O6 0.778391 0.456297 0.131835
O O7 0.717350 0.637357 0.086239
O O8 0.691318 0.500000 0.000000
O O9 0.500000 0.332449 0.353892
O O10 0.214878 0.277052 0.328318
O O11 0.284210 0.319733 0.454664
O O12 0.750000 0.869133 0.750000
O O13 0.500000 0.849484 0.829976
O O14 0.000000 0.293277 0.508154
#
# Coordination Sequence:
#
# PCOD9414154 Si02
#       5
#     8   8   8   8   8
#     4  10  20  33  49  71  99 128 162 207 255 300
#     4   8  14  24  37  57  86 118 149 180 217 262
#     4  10  17  25  40  63  90 119 151 185 226 276
#     4  11  21  34  51  70  96 127 161 200 244 297
#     4   9  16  26  41  61  88 121 155 191 232 278
#
# _framework density 17.367457000000002
#
# number of rings (size 3 to 8) (size 9 to 14) (size 15 to 20)
#    0.000    2.400    0.000    8.400    0.000    6.000 
#    0.000    0.000    0.000    0.000    0.000    1.400 
#    0.000    3.200    0.000    0.000    0.000    0.000 
#
# Total GULP energy -222739.185171 kJ/mol
# GULP energy per Si atom -5568.479629 kJ/mol
# Density = 1.732793 g / cm^3
# Si number density = 17.367457 Si / 1000 Ang^3
#
#
#
# Elastic Constant Matrix: (Units=GPa)
#
#
# Indices 1 2 3 4 5 6 
#
# 1 50.9912 25.2882 0.0996 0.0000 0.0000 0.0000
# 2 25.2882 130.8578 18.8530 0.0000 0.0000 0.0000
# 3 0.0996 18.8530 26.9897 0.0000 0.0000 0.0000
# 4 0.0000 0.0000 0.0000 7.7416 0.0000 0.0000
# 5 0.0000 0.0000 0.0000 0.0000 2.2638 0.0000
# 6 0.0000 0.0000 0.0000 0.0000 0.0000 69.8946
#
#
#
# Elastic Compliance Matrix: (Units=1/GPa)
#
#
# Indices 1 2 3 4 5 6 
#
# 1 0.021936 -0.004701 0.003202 0.000000 0.000000 0.000000
# 2 -0.004701 0.009504 -0.006622 0.000000 0.000000 0.000000
# 3 0.003202 -0.006622 0.041665 0.000000 0.000000 0.000000
# 4 0.000000 0.000000 0.000000 0.129172 0.000000 0.000000
# 5 0.000000 0.000000 0.000000 0.000000 0.441732 0.000000
# 6 0.000000 0.000000 0.000000 0.000000 0.000000 0.014307
#
#
# Mechanical properties :
#
#
# Convention : Reuss Voigt Hill
#
# Bulk Modulus (GPa) = 17.58530 33.03559 25.31044
# Shear Modulus (GPa) = 7.20970 26.95322 17.08146
#
# Velocity S-wave (km/s) = 2.03968 3.94374 3.13953
# Velocity P-wave (km/s) = 3.96162 6.30875 5.26758
#
# Compressibility (1/GPa) = 0.05686568
#
# Stress axis : x y z
#
# Youngs Moduli (GPa) = 45.58694 105.21614 24.00117
#
# Poissons Ratio (x) = 0.49457 -0.07686
# Poissons Ratio (y) = 0.21428 0.15893
# Poissons Ratio (z) = -0.14599 0.69670
#
# Static dielectric constant tensor:
#      x y z
#    x 1.579830 0.000000 0.000000 
#    y 0.000000 1.661250 0.000000 
#    z 0.000000 0.000000 1.601830 
# 
# From -- ./inp_files/26004.got.cif
#   From: 2010.05.17/outbox.cif.g08.bks.cpg/sg53_14_cif.got.tgz:26004.got - 2010.06.03 12:45:16.
