data_PCOD9414668
_publ_section_title
;
Structure prediction by ZEFSAII (Michael W. Deem and Ramdas Pophale) SiO2 
 PCOD9414668
Probable space group: P M N A
;
_chemical_formula_sum "Si O2"
_cell_formula_units_Z 64
_cell_length_a 17.354563
_cell_length_b 12.242213
_cell_length_c 17.177967
_cell_angle_alpha 90.000000
_cell_angle_beta 90.000000
_cell_angle_gamma 90.000000
_cell_volume 3649.600924
_symmetry_space_group_name_H-M "P M N A"
_symmetry_group_IT_number 53
_symmetry_cell_setting 'orthorhombic'
loop_
_space_group_symop_operation_xyz
x,y,z
1/2-x,-y,1/2+z
x,-y,-z
1/2-x,y,1/2-z
-x,-y,-z
1/2+x,y,1/2-z
-x,y,z
1/2+x,-y,1/2+z
loop_
_atom_site_type_symbol
_atom_site_label
_atom_site_fract_x
_atom_site_fract_y
_atom_site_fract_z
Si Si1 0.586712 0.951715 0.584728
Si Si2 0.253975 0.229542 0.553436
Si Si3 0.262986 0.025038 0.663656
Si Si4 0.702215 0.539641 0.089777
Si Si5 0.210368 0.788453 0.627325
Si Si6 0.586981 0.287229 0.483099
Si Si7 0.334640 0.606100 0.653997
Si Si8 0.591075 0.612646 0.820986
O O1 0.500000 0.989107 0.602546
O O2 0.585793 0.822473 0.570053
O O3 0.608529 0.000000 0.500000
O O4 0.649283 0.988330 0.646346
O O5 0.245473 0.119056 0.601522
O O6 0.207902 0.330528 0.589856
O O7 0.224537 0.213348 0.465361
O O8 0.344177 0.266110 0.544317
O O9 0.250000 0.067810 0.750000
O O10 0.214956 0.912961 0.654383
O O11 0.773721 0.489495 0.137854
O O12 0.627138 0.484404 0.126952
O O13 0.709818 0.500000 0.000000
O O14 0.280839 0.714717 0.660608
O O15 0.133911 0.723023 0.650385
O O16 0.500000 0.302441 0.513556
O O17 0.613452 0.380433 0.423140
O O18 0.383251 0.593813 0.731772
O O19 0.500000 0.619970 0.827782
#
# Coordination Sequence:
#
# PCOD9414668 Si02
#       8
#     8   8   8   8   8   8   8   8
#     4  10  18  32  56  84 113 145 185 234 282 333
#     4  11  21  37  58  82 116 158 205 235 278 348
#     4  12  22  34  55  86 122 160 193 230 286 357
#     4  11  20  39  61  86 110 156 199 241 283 343
#     4  10  19  37  60  85 112 147 194 245 288 342
#     4  10  18  30  56  89 118 143 178 236 297 343
#     4  10  19  35  59  87 121 142 181 242 302 347
#     4  11  23  38  62  90 114 144 194 255 306 342
#
# _framework density 17.536162999999998
#
# number of rings (size 3 to 8) (size 9 to 14) (size 15 to 20)
#    0.000    1.375    7.500    3.000    0.000    1.250 
#    0.000    1.875    0.000    5.250    0.000    0.000 
#    0.000    0.000    0.000    0.000    0.000    0.000 
#
# Total GULP energy -357154.910827 kJ/mol
# GULP energy per Si atom -5580.545482 kJ/mol
# Density = 1.749625 g / cm^3
# Si number density = 17.536163 Si / 1000 Ang^3
#
#
#
# Elastic Constant Matrix: (Units=GPa)
#
#
# Indices 1 2 3 4 5 6 
#
# 1 114.7555 18.1283 41.2601 0.0000 0.0000 0.0000
# 2 18.1283 64.6934 15.9754 0.0000 0.0000 0.0000
# 3 41.2601 15.9754 65.6459 0.0000 0.0000 0.0000
# 4 0.0000 0.0000 0.0000 18.3646 0.0000 0.0000
# 5 0.0000 0.0000 0.0000 0.0000 20.5189 0.0000
# 6 0.0000 0.0000 0.0000 0.0000 0.0000 14.3215
#
#
#
# Elastic Compliance Matrix: (Units=1/GPa)
#
#
# Indices 1 2 3 4 5 6 
#
# 1 0.011396 -0.001516 -0.006794 0.000000 0.000000 0.000000
# 2 -0.001516 0.016647 -0.003099 0.000000 0.000000 0.000000
# 3 -0.006794 -0.003099 0.020258 0.000000 0.000000 0.000000
# 4 0.000000 0.000000 0.000000 0.054453 0.000000 0.000000
# 5 0.000000 0.000000 0.000000 0.000000 0.048735 0.000000
# 6 0.000000 0.000000 0.000000 0.000000 0.000000 0.069825
#
#
# Mechanical properties :
#
#
# Convention : Reuss Voigt Hill
#
# Bulk Modulus (GPa) = 39.23942 43.98029 41.60986
# Shear Modulus (GPa) = 19.79208 21.95640 20.87424
#
# Velocity S-wave (km/s) = 3.36317 3.54229 3.45389
# Velocity P-wave (km/s) = 6.12422 6.47029 6.29963
#
# Compressibility (1/GPa) = 0.02548457
#
# Stress axis : x y z
#
# Youngs Moduli (GPa) = 87.74676 60.06931 49.36426
#
# Poissons Ratio (x) = 0.09105 0.33538
# Poissons Ratio (y) = 0.13300 0.15296
# Poissons Ratio (z) = 0.59616 0.18613
#
# Static dielectric constant tensor:
#      x y z
#    x 1.607650 0.000000 0.000000 
#    y 0.000000 1.624900 0.000000 
#    z 0.000000 0.000000 1.640170 
# 
# From -- ./inp_files/29130.got.cif
#   From: 2010.05.17/outbox.cif.g08.bks.cpg/sg53_15_cif.got.tgz:29130.got - 2010.06.03 12:45:16.
