data_PCOD9414993
_publ_section_title
;
Structure prediction by ZEFSAII (Michael W. Deem and Ramdas Pophale) SiO2 
 PCOD9414993
Probable space group: P M N A
;
_chemical_formula_sum "Si O2"
_cell_formula_units_Z 36
_cell_length_a 7.872791
_cell_length_b 22.869237
_cell_length_c 9.219857
_cell_angle_alpha 90.000000
_cell_angle_beta 90.000000
_cell_angle_gamma 90.000000
_cell_volume 1659.986602
_symmetry_space_group_name_H-M "P M N A"
_symmetry_group_IT_number 53
_symmetry_cell_setting 'orthorhombic'
loop_
_space_group_symop_operation_xyz
x,y,z
1/2-x,-y,1/2+z
x,-y,-z
1/2-x,y,1/2-z
-x,-y,-z
1/2+x,y,1/2-z
-x,y,z
1/2+x,-y,1/2+z
loop_
_atom_site_type_symbol
_atom_site_label
_atom_site_fract_x
_atom_site_fract_y
_atom_site_fract_z
Si Si1 0.694456 0.083022 0.983115
Si Si2 0.704873 0.325267 0.918582
Si Si3 0.704652 0.209299 0.081269
Si Si4 0.750000 0.998673 0.750000
Si Si5 0.704851 0.441739 0.081184
O O1 0.500000 0.085123 0.923489
O O2 0.762096 0.147524 0.014833
O O3 0.677241 0.047769 0.134056
O O4 0.807228 0.046055 0.871521
O O5 0.750000 0.327400 0.750000
O O6 0.500000 0.324878 0.930183
O O7 0.767985 0.265864 0.994444
O O8 0.767719 0.382935 0.002431
O O9 0.750000 0.213230 0.250000
O O10 0.500000 0.207916 0.071579
O O11 0.750000 0.442291 0.250000
O O12 0.500000 0.441694 0.070283
O O13 0.767829 0.500000 0.000000
#
# Coordination Sequence:
#
# PCOD9414993 Si02
#       5
#     8   8   8   4   8
#     4  10  21  37  54  77 108 138 176 229 276 330
#     4  10  22  38  59  84 115 150 188 234 278 329
#     4  10  21  39  58  80 110 145 186 229 278 332
#     4  10  18  34  56  74 102 138 174 216 282 332
#     4  10  21  37  58  88 121 154 192 233 277 325
#
# _framework density 21.686921000000002
#
# number of rings (size 3 to 8) (size 9 to 14) (size 15 to 20)
#    0.000    2.000    1.111    2.667    1.556    2.222 
#    0.000   11.111    0.000    0.000    0.000    0.000 
#    0.000    0.000    0.000    0.000    0.000    0.000 
#
# Total GULP energy -200608.774577 kJ/mol
# GULP energy per Si atom -5572.465960 kJ/mol
# Density = 2.163756 g / cm^3
# Si number density = 21.686921 Si / 1000 Ang^3
#
#
#
# Elastic Constant Matrix: (Units=GPa)
#
#
# Indices 1 2 3 4 5 6 
#
# 1 28.4874 16.5698 6.6379 0.0000 0.0000 0.0000
# 2 16.5698 260.8328 118.2602 0.0000 0.0000 0.0000
# 3 6.6379 118.2602 162.7991 0.0000 0.0000 0.0000
# 4 0.0000 0.0000 0.0000 46.5631 0.0000 0.0000
# 5 0.0000 0.0000 0.0000 0.0000 25.2371 0.0000
# 6 0.0000 0.0000 0.0000 0.0000 0.0000 10.1307
#
#
#
# Elastic Compliance Matrix: (Units=1/GPa)
#
#
# Indices 1 2 3 4 5 6 
#
# 1 0.036459 -0.002449 0.000292 0.000000 0.000000 0.000000
# 2 -0.002449 0.005881 -0.004172 0.000000 0.000000 0.000000
# 3 0.000292 -0.004172 0.009161 0.000000 0.000000 0.000000
# 4 0.000000 0.000000 0.000000 0.021476 0.000000 0.000000
# 5 0.000000 0.000000 0.000000 0.000000 0.039624 0.000000
# 6 0.000000 0.000000 0.000000 0.000000 0.000000 0.098710
#
#
# Mechanical properties :
#
#
# Convention : Reuss Voigt Hill
#
# Bulk Modulus (GPa) = 25.74372 81.67279 53.70826
# Shear Modulus (GPa) = 21.10433 37.09628 29.10030
#
# Velocity S-wave (km/s) = 3.12290 4.14035 3.66708
# Velocity P-wave (km/s) = 4.98996 7.78449 6.53827
#
# Compressibility (1/GPa) = 0.03884443
#
# Stress axis : x y z
#
# Youngs Moduli (GPa) = 27.42778 170.03533 109.15273
#
# Poissons Ratio (x) = 0.41635 -0.03189
# Poissons Ratio (y) = 0.06716 0.45542
# Poissons Ratio (z) = -0.00801 0.70944
#
# Static dielectric constant tensor:
#      x y z
#    x 1.871140 0.000000 0.000000 
#    y 0.000000 1.794350 0.000000 
#    z 0.000000 0.000000 1.719910 
# 
# From -- ./inp_files/6150.got.cif
#   From: 2010.05.17/outbox.cif.g08.bks.cpg/sg53_4_cif.got.tgz:6150.got - 2010.06.03 12:45:16.
