data_PCOD9414678
_publ_section_title
;
Structure prediction by ZEFSAII (Michael W. Deem and Ramdas Pophale) SiO2 
 PCOD9414678
Probable space group: P M N A
;
_chemical_formula_sum "Si O2"
_cell_formula_units_Z 64
_cell_length_a 9.095304
_cell_length_b 17.313803
_cell_length_c 26.095899
_cell_angle_alpha 90.000000
_cell_angle_beta 90.000000
_cell_angle_gamma 90.000000
_cell_volume 4109.433472
_symmetry_space_group_name_H-M "P M N A"
_symmetry_group_IT_number 53
_symmetry_cell_setting 'orthorhombic'
loop_
_space_group_symop_operation_xyz
x,y,z
1/2-x,-y,1/2+z
x,-y,-z
1/2-x,y,1/2-z
-x,-y,-z
1/2+x,y,1/2-z
-x,y,z
1/2+x,-y,1/2+z
loop_
_atom_site_type_symbol
_atom_site_label
_atom_site_fract_x
_atom_site_fract_y
_atom_site_fract_z
Si Si1 0.175029 0.408701 0.496883
Si Si2 0.176012 0.409383 0.196288
Si Si3 0.824923 0.838808 0.560070
Si Si4 0.830881 0.002767 0.062239
Si Si5 0.175108 0.845365 0.438121
Si Si6 0.323419 0.316234 0.404987
Si Si7 0.676007 0.410256 0.695727
Si Si8 0.823609 0.321432 0.602942
O O1 0.203308 0.500000 0.500000
O O2 0.263780 0.368788 0.451368
O O3 0.210412 0.368597 0.550994
O O4 0.000000 0.397021 0.487680
O O5 0.250000 0.387865 0.250000
O O6 0.219675 0.356247 0.148591
O O7 0.212429 0.499335 0.185277
O O8 0.000000 0.404793 0.201932
O O9 0.760866 0.921492 0.576903
O O10 0.795557 0.831210 0.498736
O O11 0.746647 0.767962 0.587937
O O12 0.000000 0.835847 0.567064
O O13 0.000000 0.009472 0.078383
O O14 0.759610 0.922046 0.079022
O O15 0.827877 0.000000 0.000000
O O16 0.214168 0.767916 0.407676
O O17 0.000000 0.858332 0.433730
O O18 0.500000 0.311696 0.407333
O O19 0.750000 0.390342 0.750000
O O20 0.500000 0.403218 0.699023
O O21 0.740020 0.358332 0.650483
O O22 0.000000 0.326576 0.610879
#
# Coordination Sequence:
#
# PCOD9414678 Si02
#       8
#     8   8   8   8   8   8   8   8
#     4  10  20  33  48  68  97 134 170 198 236 295
#     4   9  20  36  52  71  95 125 165 211 254 294
#     4  10  18  31  48  68  97 133 168 197 237 291
#     4   9  17  28  44  68  96 126 163 201 242 285
#     4   9  17  30  46  66  97 132 165 199 237 286
#     4  11  21  32  48  72 102 129 161 206 251 291
#     4  10  20  35  53  72  94 125 166 210 255 295
#     4  10  19  32  48  71 100 130 165 204 242 287
#
# _framework density 15.573923000000001
#
# number of rings (size 3 to 8) (size 9 to 14) (size 15 to 20)
#    0.000    2.250    1.250    2.250    0.000    4.750 
#    0.000    0.000    0.000    0.000    0.000    0.875 
#    0.000    2.000    0.000    0.000    0.000    0.000 
#
# Total GULP energy -357060.486711 kJ/mol
# GULP energy per Si atom -5579.070105 kJ/mol
# Density = 1.553848 g / cm^3
# Si number density = 15.573923 Si / 1000 Ang^3
#
#
#
# Elastic Constant Matrix: (Units=GPa)
#
#
# Indices 1 2 3 4 5 6 
#
# 1 62.0613 69.7955 57.5248 0.0000 0.0000 0.0000
# 2 69.7955 139.5499 80.9244 0.0000 0.0000 0.0000
# 3 57.5248 80.9244 101.1383 0.0000 0.0000 0.0000
# 4 0.0000 0.0000 0.0000 15.5411 0.0000 0.0000
# 5 0.0000 0.0000 0.0000 0.0000 24.6202 0.0000
# 6 0.0000 0.0000 0.0000 0.0000 0.0000 28.9578
#
#
#
# Elastic Compliance Matrix: (Units=1/GPa)
#
#
# Indices 1 2 3 4 5 6 
#
# 1 0.045892 -0.014582 -0.014434 0.000000 0.000000 0.000000
# 2 -0.014582 0.018003 -0.006111 0.000000 0.000000 0.000000
# 3 -0.014434 -0.006111 0.022987 0.000000 0.000000 0.000000
# 4 0.000000 0.000000 0.000000 0.064346 0.000000 0.000000
# 5 0.000000 0.000000 0.000000 0.000000 0.040617 0.000000
# 6 0.000000 0.000000 0.000000 0.000000 0.000000 0.034533
#
#
# Mechanical properties :
#
#
# Convention : Reuss Voigt Hill
#
# Bulk Modulus (GPa) = 60.14371 79.91542 70.02957
# Shear Modulus (GPa) = 16.54682 20.12414 18.33548
#
# Velocity S-wave (km/s) = 3.26309 3.59857 3.43493
# Velocity P-wave (km/s) = 7.27317 8.28802 7.79713
#
# Compressibility (1/GPa) = 0.01662684
#
# Stress axis : x y z
#
# Youngs Moduli (GPa) = 21.79041 55.54728 43.50375
#
# Poissons Ratio (x) = 0.81001 0.62794
# Poissons Ratio (y) = 0.31775 0.26583
# Poissons Ratio (z) = 0.31453 0.33943
#
# Static dielectric constant tensor:
#      x y z
#    x 1.519660 0.000000 0.000000 
#    y 0.000000 1.513870 0.000000 
#    z 0.000000 0.000000 1.485540 
# 
# From -- ./inp_files/34450.got.cif
#   From: 2010.05.17/outbox.cif.g08.bks.cpg/sg53_18_cif.got.tgz:34450.got - 2010.06.03 12:45:16.
