data_PCOD9414288
_publ_section_title
;
Structure prediction by ZEFSAII (Michael W. Deem and Ramdas Pophale) SiO2 
 PCOD9414288
Probable space group: P M N A
;
_chemical_formula_sum "Si O2"
_cell_formula_units_Z 48
_cell_length_a 20.984704
_cell_length_b 9.436628
_cell_length_c 15.093496
_cell_angle_alpha 90.000000
_cell_angle_beta 90.000000
_cell_angle_gamma 90.000000
_cell_volume 2988.887211
_symmetry_space_group_name_H-M "P M N A"
_symmetry_group_IT_number 53
_symmetry_cell_setting 'orthorhombic'
loop_
_space_group_symop_operation_xyz
x,y,z
1/2-x,-y,1/2+z
x,-y,-z
1/2-x,y,1/2-z
-x,-y,-z
1/2+x,y,1/2-z
-x,y,z
1/2+x,-y,1/2+z
loop_
_atom_site_type_symbol
_atom_site_label
_atom_site_fract_x
_atom_site_fract_y
_atom_site_fract_z
Si Si1 0.109527 0.162284 0.482843
Si Si2 0.386782 0.581157 0.093250
Si Si3 0.429295 0.320974 0.196554
Si Si4 0.236196 0.835628 0.989443
Si Si5 0.742583 0.635468 0.348755
Si Si6 0.191951 0.328651 0.181858
O O1 0.090802 0.262068 0.566190
O O2 0.082618 0.225717 0.391424
O O3 0.186815 0.172857 0.476697
O O4 0.092023 0.000000 0.500000
O O5 0.423619 0.483919 0.162507
O O6 0.313356 0.585119 0.123370
O O7 0.389280 0.500000 0.000000
O O8 0.500000 0.293746 0.230813
O O9 0.373507 0.298547 0.267293
O O10 0.203220 0.763429 0.905448
O O11 0.221013 0.747008 0.078017
O O12 0.219534 0.000000 0.000000
O O13 0.750000 0.697206 0.250000
O O14 0.699298 0.495181 0.342800
O O15 0.250000 0.300319 0.250000
#
# Coordination Sequence:
#
# PCOD9414288 Si02
#       6
#     8   8   8   8   8   8
#     4   9  18  32  50  77 111 142 170 206 261 326
#     4   9  16  30  50  74 103 132 171 209 257 311
#     4  11  21  33  51  77 105 140 179 217 257 307
#     4  10  20  33  52  82 110 133 171 217 263 313
#     4  10  17  30  55  79 100 133 169 216 265 306
#     4  11  18  34  56  76 103 140 174 215 259 305
#
# _framework density 16.059488000000002
#
# number of rings (size 3 to 8) (size 9 to 14) (size 15 to 20)
#    0.000    2.000    5.000    2.500    0.000    4.000 
#    3.000    0.000    0.000    2.500    0.000    0.000 
#    0.000    0.000    0.000    0.000    0.000    0.000 
#
# Total GULP energy -267601.376274 kJ/mol
# GULP energy per Si atom -5575.028672 kJ/mol
# Density = 1.602294 g / cm^3
# Si number density = 16.059488 Si / 1000 Ang^3
#
#
#
# Elastic Constant Matrix: (Units=GPa)
#
#
# Indices 1 2 3 4 5 6 
#
# 1 76.0879 31.4636 37.4878 0.0000 0.0000 0.0000
# 2 31.4636 111.3731 62.2973 0.0000 0.0000 0.0000
# 3 37.4878 62.2973 109.1948 0.0000 0.0000 0.0000
# 4 0.0000 0.0000 0.0000 17.2414 0.0000 0.0000
# 5 0.0000 0.0000 0.0000 0.0000 14.4769 0.0000
# 6 0.0000 0.0000 0.0000 0.0000 0.0000 5.7711
#
#
#
# Elastic Compliance Matrix: (Units=1/GPa)
#
#
# Indices 1 2 3 4 5 6 
#
# 1 0.016161 -0.002147 -0.004323 0.000000 0.000000 0.000000
# 2 -0.002147 0.013472 -0.006949 0.000000 0.000000 0.000000
# 3 -0.004323 -0.006949 0.014607 0.000000 0.000000 0.000000
# 4 0.000000 0.000000 0.000000 0.058000 0.000000 0.000000
# 5 0.000000 0.000000 0.000000 0.000000 0.069075 0.000000
# 6 0.000000 0.000000 0.000000 0.000000 0.000000 0.173276
#
#
# Mechanical properties :
#
#
# Convention : Reuss Voigt Hill
#
# Bulk Modulus (GPa) = 57.46844 62.12811 59.79827
# Shear Modulus (GPa) = 13.25451 18.52504 15.88978
#
# Velocity S-wave (km/s) = 2.87599 3.40004 3.14894
# Velocity P-wave (km/s) = 6.84769 7.36098 7.10897
#
# Compressibility (1/GPa) = 0.01740086
#
# Stress axis : x y z
#
# Youngs Moduli (GPa) = 61.87902 74.22550 68.46217
#
# Poissons Ratio (x) = 0.15939 0.29596
# Poissons Ratio (y) = 0.13288 0.47575
# Poissons Ratio (z) = 0.26750 0.51580
#
# Static dielectric constant tensor:
#      x y z
#    x 1.530930 0.000000 0.000000 
#    y 0.000000 1.564440 0.000000 
#    z 0.000000 0.000000 1.525700 
# 
# From -- ./inp_files/23678.got.cif
#   From: 2010.05.17/outbox.cif.g08.bks.cpg/sg53_12_cif.got.tgz:23678.got - 2010.06.03 12:45:16.
