data_PCOD9414012
_publ_section_title
;
Structure prediction by ZEFSAII (Michael W. Deem and Ramdas Pophale) SiO2 
 PCOD9414012
Probable space group: P N N A
;
_chemical_formula_sum "Si O2"
_cell_formula_units_Z 48
_cell_length_a 18.000000
_cell_length_b 15.000000
_cell_length_c 9.000000
_cell_angle_alpha 90.000000
_cell_angle_beta 90.000000
_cell_angle_gamma 90.000000
_cell_volume 2430.000000
_symmetry_space_group_name_H-M "P N N A"
_symmetry_group_IT_number 52
_symmetry_cell_setting 'orthorhombic'
loop_
_space_group_symop_operation_xyz
x,y,z
1/2-x,-y,z
x,1/2-y,1/2-z
1/2-x,1/2+y,1/2-z
-x,-y,-z
1/2+x,y,-z
-x,1/2+y,1/2+z
1/2+x,1/2-y,1/2+z
loop_
_atom_site_type_symbol
_atom_site_label
_atom_site_fract_x
_atom_site_fract_y
_atom_site_fract_z
Si Si1 0.406783 0.838011 0.352423
Si Si2 0.198577 0.575485 0.433845
Si Si3 0.011120 0.232909 0.923659
Si Si4 0.148515 0.752139 0.926752
Si Si5 0.937190 0.942531 0.927964
Si Si6 0.241859 0.602211 0.089553
O O1 0.404073 0.750000 0.250000
O O2 0.456202 0.818583 0.493798
O O3 0.441811 0.910493 0.242207
O O4 0.324467 0.858889 0.405984
O O5 0.250000 0.500000 0.502514
O O6 0.199517 0.664312 0.528894
O O7 0.126026 0.516163 0.425613
O O8 0.218637 0.599920 0.263800
O O9 0.008185 0.250000 0.750000
O O10 0.928818 0.223880 0.991767
O O11 0.061895 0.148426 0.973588
O O12 0.137473 0.750000 0.750000
O O13 0.185801 0.663163 0.994721
O O14 0.000000 0.000000 0.000000
O O15 0.250000 0.500000 0.037998
#
# Coordination Sequence:
#
# PCOD9414012 Si02
#       6
#     8   8   8   8   8   8
#     4  10  21  41  68  96 134 176 223 276 340 403
#     4  11  22  42  71  99 131 181 225 274 340 410
#     4  11  25  44  65  97 136 186 228 282 348 412
#     4  12  26  44  66  97 140 179 227 288 346 407
#     4  11  21  40  69  99 138 173 229 281 335 410
#     4  11  23  44  71  99 130 178 230 277 338 414
#
# _framework density 19.753086
#
# number of rings (size 3 to 8) (size 9 to 14) (size 15 to 20)
#    0.000    1.000    5.000    4.000    2.333    1.333 
#    3.000    1.667    0.000    0.000    0.000    0.000 
#    0.000    0.000    0.000    0.000    0.000    0.000 
#
# Total GULP energy -267406.383457 kJ/mol
# GULP energy per Si atom -5570.966322 kJ/mol
# Density = 1.970813 g / cm^3
# Si number density = 19.753086 Si / 1000 Ang^3
#
#
#
# Elastic Constant Matrix: (Units=GPa)
#
#
# Indices 1 2 3 4 5 6 
#
# 1 19.4179 -0.9794 -7.4494 0.0000 0.0000 0.0000
# 2 -0.9794 82.2964 19.2275 0.0000 0.0000 0.0000
# 3 -7.4494 19.2275 71.8313 0.0000 0.0000 0.0000
# 4 0.0000 0.0000 0.0000 24.4411 0.0000 0.0000
# 5 0.0000 0.0000 0.0000 0.0000 20.3423 0.0000
# 6 0.0000 0.0000 0.0000 0.0000 0.0000 19.7136
#
#
#
# Elastic Compliance Matrix: (Units=1/GPa)
#
#
# Indices 1 2 3 4 5 6 
#
# 1 0.053671 -0.000706 0.005755 0.000000 0.000000 0.000000
# 2 -0.000706 0.012971 -0.003545 0.000000 0.000000 0.000000
# 3 0.005755 -0.003545 0.015467 0.000000 0.000000 0.000000
# 4 0.000000 0.000000 0.000000 0.040915 0.000000 0.000000
# 5 0.000000 0.000000 0.000000 0.000000 0.049159 0.000000
# 6 0.000000 0.000000 0.000000 0.000000 0.000000 0.050726
#
#
# Mechanical properties :
#
#
# Convention : Reuss Voigt Hill
#
# Bulk Modulus (GPa) = 11.74849 21.68255 16.71552
# Shear Modulus (GPa) = 20.13906 23.74920 21.94413
#
# Velocity S-wave (km/s) = 3.19649 3.47119 3.33667
# Velocity P-wave (km/s) = 4.42538 5.20251 4.82960
#
# Compressibility (1/GPa) = 0.08511734
#
# Stress axis : x y z
#
# Youngs Moduli (GPa) = 18.63202 77.09449 64.65247
#
# Poissons Ratio (x) = 0.05442 -0.37208
# Poissons Ratio (y) = 0.01315 0.22921
# Poissons Ratio (z) = -0.10723 0.27332
#
# Static dielectric constant tensor:
#      x y z
#    x 1.681370 0.000000 0.000000 
#    y 0.000000 1.734950 0.000000 
#    z 0.000000 0.000000 1.640680 
# 
# From -- ./inp_files/12057.got.cif
#   From: 2010.05.17/outbox.ucp.g08.bks.cvg/sg52_7_cif.got.tgz:12057.got - 2010.06.11 16:30:12.
