data_PCOD9414372
_publ_section_title
;
Structure prediction by ZEFSAII (Michael W. Deem and Ramdas Pophale) SiO2 
 PCOD9414372
Probable space group: P M N A
;
_chemical_formula_sum "Si O2"
_cell_formula_units_Z 48
_cell_length_a 9.163112
_cell_length_b 11.793718
_cell_length_c 26.764861
_cell_angle_alpha 90.000000
_cell_angle_beta 90.000000
_cell_angle_gamma 90.000000
_cell_volume 2892.402487
_symmetry_space_group_name_H-M "P M N A"
_symmetry_group_IT_number 53
_symmetry_cell_setting 'orthorhombic'
loop_
_space_group_symop_operation_xyz
x,y,z
1/2-x,-y,1/2+z
x,-y,-z
1/2-x,y,1/2-z
-x,-y,-z
1/2+x,y,1/2-z
-x,y,z
1/2+x,-y,1/2+z
loop_
_atom_site_type_symbol
_atom_site_label
_atom_site_fract_x
_atom_site_fract_y
_atom_site_fract_z
Si Si1 0.672656 0.160911 0.803096
Si Si2 0.826659 0.108586 0.302838
Si Si3 0.335102 0.714547 0.882907
Si Si4 0.163737 0.466913 0.294566
Si Si5 0.824763 0.469735 0.056147
Si Si6 0.174409 0.647857 0.143228
O O1 0.750000 0.187483 0.750000
O O2 0.500000 0.186350 0.800172
O O3 0.747659 0.232582 0.847249
O O4 0.690182 0.026011 0.810939
O O5 0.750000 0.136079 0.250000
O O6 0.774283 0.178417 0.351609
O O7 0.000000 0.134115 0.297954
O O8 0.500000 0.740646 0.900639
O O9 0.345307 0.619233 0.839993
O O10 0.243493 0.648683 0.924810
O O11 0.250000 0.408956 0.250000
O O12 0.261709 0.571491 0.311981
O O13 0.000000 0.501233 0.280608
O O14 0.787873 0.574380 0.093665
O O15 0.000000 0.458694 0.057692
O O16 0.779167 0.500000 0.000000
O O17 0.000000 0.658791 0.145738
#
# Coordination Sequence:
#
# PCOD9414372 Si02
#       6
#     8   8   8   8   8   8
#     4  10  19  31  47  68  97 130 162 192 223 264
#     4   9  18  31  47  69  98 130 161 192 224 265
#     4   9  18  31  47  69  94 120 152 189 230 276
#     4  10  18  27  41  63  92 121 149 182 222 271
#     4   9  19  35  53  72  92 116 150 195 244 287
#     4  10  19  31  47  66  90 119 152 190 232 277
#
# _framework density 16.595200999999999
#
# number of rings (size 3 to 8) (size 9 to 14) (size 15 to 20)
#    0.000    2.500    0.000    2.500    0.000    3.000 
#    0.000    0.000    0.000    1.000    0.000    7.000 
#    0.000    0.000    0.000    0.000    0.000    0.000 
#
# Total GULP energy -267298.686615 kJ/mol
# GULP energy per Si atom -5568.722638 kJ/mol
# Density = 1.655743 g / cm^3
# Si number density = 16.595201 Si / 1000 Ang^3
#
#
#
# Elastic Constant Matrix: (Units=GPa)
#
#
# Indices 1 2 3 4 5 6 
#
# 1 66.9228 37.4826 44.8049 0.0000 0.0000 0.0000
# 2 37.4826 81.7072 34.2982 0.0000 0.0000 0.0000
# 3 44.8049 34.2982 76.5272 0.0000 0.0000 0.0000
# 4 0.0000 0.0000 0.0000 22.0839 0.0000 0.0000
# 5 0.0000 0.0000 0.0000 0.0000 21.0763 0.0000
# 6 0.0000 0.0000 0.0000 0.0000 0.0000 18.2588
#
#
#
# Elastic Compliance Matrix: (Units=1/GPa)
#
#
# Indices 1 2 3 4 5 6 
#
# 1 0.027681 -0.007262 -0.012952 0.000000 0.000000 0.000000
# 2 -0.007262 0.016980 -0.003359 0.000000 0.000000 0.000000
# 3 -0.012952 -0.003359 0.022156 0.000000 0.000000 0.000000
# 4 0.000000 0.000000 0.000000 0.045282 0.000000 0.000000
# 5 0.000000 0.000000 0.000000 0.000000 0.047447 0.000000
# 6 0.000000 0.000000 0.000000 0.000000 0.000000 0.054768
#
#
# Mechanical properties :
#
#
# Convention : Reuss Voigt Hill
#
# Bulk Modulus (GPa) = 50.83356 50.92538 50.87947
# Shear Modulus (GPa) = 18.65563 19.52190 19.08876
#
# Velocity S-wave (km/s) = 3.35648 3.43353 3.39522
# Velocity P-wave (km/s) = 6.76160 6.81706 6.78939
#
# Compressibility (1/GPa) = 0.01967204
#
# Stress axis : x y z
#
# Youngs Moduli (GPa) = 36.12551 58.89323 45.13510
#
# Poissons Ratio (x) = 0.42766 0.58460
# Poissons Ratio (y) = 0.26233 0.15159
# Poissons Ratio (z) = 0.46790 0.19780
#
# Static dielectric constant tensor:
#      x y z
#    x 1.605190 0.000000 0.000000 
#    y 0.000000 1.589190 0.000000 
#    z 0.000000 0.000000 1.580050 
# 
# From -- ./inp_files/33857.got.cif
#   From: 2010.05.17/outbox.cif.g08.bks.cpg/sg53_17_cif.got.tgz:33857.got - 2010.06.03 12:45:16.
