data_PCOD9414054
_publ_section_title
;
Structure prediction by ZEFSAII (Michael W. Deem and Ramdas Pophale) SiO2 
 PCOD9414054
Probable space group: P M N A
;
_chemical_formula_sum "Si O2"
_cell_formula_units_Z 64
_cell_length_a 28.108005
_cell_length_b 7.209053
_cell_length_c 17.136345
_cell_angle_alpha 90.000000
_cell_angle_beta 90.000000
_cell_angle_gamma 90.000000
_cell_volume 3472.373535
_symmetry_space_group_name_H-M "P M N A"
_symmetry_group_IT_number 53
_symmetry_cell_setting 'orthorhombic'
loop_
_space_group_symop_operation_xyz
x,y,z
1/2-x,-y,1/2+z
x,-y,-z
1/2-x,y,1/2-z
-x,-y,-z
1/2+x,y,1/2-z
-x,y,z
1/2+x,-y,1/2+z
loop_
_atom_site_type_symbol
_atom_site_label
_atom_site_fract_x
_atom_site_fract_y
_atom_site_fract_z
Si Si1 0.208797 0.874495 0.812676
Si Si2 0.599870 0.398882 0.930542
Si Si3 0.285182 0.683949 0.351732
Si Si4 0.317882 0.792316 0.969864
Si Si5 0.146341 0.935652 0.679979
Si Si6 0.446005 0.028110 0.906845
Si Si7 0.822875 0.631013 0.312702
Si Si8 0.711352 0.222221 0.485155
O O1 0.250000 0.819899 0.750000
O O2 0.159011 0.873489 0.766245
O O3 0.202789 0.760363 0.892658
O O4 0.219679 0.092063 0.834076
O O5 0.565570 0.244589 0.894642
O O6 0.633979 0.469104 0.859568
O O7 0.570793 0.500000 0.000000
O O8 0.640073 0.312241 0.988118
O O9 0.316260 0.603657 0.280135
O O10 0.230970 0.607375 0.345075
O O11 0.308545 0.674528 0.437985
O O12 0.321112 0.817334 0.878083
O O13 0.266653 0.725476 0.993065
O O14 0.322311 0.000000 0.000000
O O15 0.093660 0.923566 0.644108
O O16 0.163119 0.150953 0.675146
O O17 0.500000 0.978774 0.887906
O O18 0.438797 0.000000 0.000000
O O19 0.705317 0.000000 0.500000
#
# Coordination Sequence:
#
# PCOD9414054 Si02
#       8
#     8   8   8   8   8   8   8   8
#     4  10  14  18  32  63  88 104 131 179 222 243
#     4  11  20  28  40  61  84 110 139 178 217 251
#     4   9  13  21  35  54  79 108 144 176 196 241
#     4  11  14  24  41  59  77 108 139 167 202 242
#     4  10  14  24  40  58  83 103 135 175 207 250
#     4  10  19  31  47  63  78 108 146 174 212 265
#     4   9  14  23  38  57  75 106 143 172 204 240
#     4   9  15  19  33  59  87 106 136 177 212 236
#
# _framework density 18.431197000000001
#
# number of rings (size 3 to 8) (size 9 to 14) (size 15 to 20)
#    0.000    2.125    8.750    0.750    0.000    0.250 
#    0.000    0.000    0.000    3.000    0.000    0.000 
#    0.000   24.500    0.000    0.000    0.000    3.750 
#
# Total GULP energy -356390.522425 kJ/mol
# GULP energy per Si atom -5568.601913 kJ/mol
# Density = 1.838925 g / cm^3
# Si number density = 18.431197 Si / 1000 Ang^3
#
#
#
# Elastic Constant Matrix: (Units=GPa)
#
#
# Indices 1 2 3 4 5 6 
#
# 1 65.9771 -1.5239 30.2898 0.0000 0.0000 0.0000
# 2 -1.5239 40.2495 15.1675 0.0000 0.0000 0.0000
# 3 30.2898 15.1675 153.0317 0.0000 0.0000 0.0000
# 4 0.0000 0.0000 0.0000 22.0726 0.0000 0.0000
# 5 0.0000 0.0000 0.0000 0.0000 19.0968 0.0000
# 6 0.0000 0.0000 0.0000 0.0000 0.0000 3.6805
#
#
#
# Elastic Compliance Matrix: (Units=1/GPa)
#
#
# Indices 1 2 3 4 5 6 
#
# 1 0.016820 0.001965 -0.003524 0.000000 0.000000 0.000000
# 2 0.001965 0.026038 -0.002970 0.000000 0.000000 0.000000
# 3 -0.003524 -0.002970 0.007526 0.000000 0.000000 0.000000
# 4 0.000000 0.000000 0.000000 0.045305 0.000000 0.000000
# 5 0.000000 0.000000 0.000000 0.000000 0.052365 0.000000
# 6 0.000000 0.000000 0.000000 0.000000 0.000000 0.271701
#
#
# Mechanical properties :
#
#
# Convention : Reuss Voigt Hill
#
# Bulk Modulus (GPa) = 24.19708 38.56944 31.38326
# Shear Modulus (GPa) = 11.29715 23.32498 17.31106
#
# Velocity S-wave (km/s) = 2.47844 3.56127 3.06800
# Velocity P-wave (km/s) = 4.62029 6.15482 5.44191
#
# Compressibility (1/GPa) = 0.04132730
#
# Stress axis : x y z
#
# Youngs Moduli (GPa) = 59.45306 38.40469 132.86512
#
# Poissons Ratio (x) = -0.07546 0.46821
# Poissons Ratio (y) = -0.11681 0.39456
# Poissons Ratio (z) = 0.20951 0.11405
#
# Static dielectric constant tensor:
#      x y z
#    x 1.604310 0.000000 0.000000 
#    y 0.000000 1.846080 0.000000 
#    z 0.000000 0.000000 1.753390 
# 
# From -- ./inp_files/29725.got.cif
#   From: 2010.05.17/outbox.cif.g08.bks.cpg/sg53_15_cif.got.tgz:29725.got - 2010.06.03 12:45:16.
