data_PCOD9414037
_publ_section_title
;
Structure prediction by ZEFSAII (Michael W. Deem and Ramdas Pophale) SiO2 
 PCOD9414037
Probable space group: P N N A
;
_chemical_formula_sum "Si O2"
_cell_formula_units_Z 56
_cell_length_a 12.000000
_cell_length_b 15.000000
_cell_length_c 15.000000
_cell_angle_alpha 90.000000
_cell_angle_beta 90.000000
_cell_angle_gamma 90.000000
_cell_volume 2700.000000
_symmetry_space_group_name_H-M "P N N A"
_symmetry_group_IT_number 52
_symmetry_cell_setting 'orthorhombic'
loop_
_space_group_symop_operation_xyz
x,y,z
1/2-x,-y,z
x,1/2-y,1/2-z
1/2-x,1/2+y,1/2-z
-x,-y,-z
1/2+x,y,-z
-x,1/2+y,1/2+z
1/2+x,1/2-y,1/2+z
loop_
_atom_site_type_symbol
_atom_site_label
_atom_site_fract_x
_atom_site_fract_y
_atom_site_fract_z
Si Si1 0.873186 0.792097 0.651097
Si Si2 0.961996 0.818684 0.321516
Si Si3 0.097737 0.626055 0.918252
Si Si4 0.168875 0.582164 0.110315
Si Si5 0.732238 0.598620 0.256116
Si Si6 0.077784 0.179270 0.984582
Si Si7 0.836866 0.330863 0.438647
O O1 0.882570 0.750000 0.750000
O O2 0.752821 0.835128 0.630197
O O3 0.894878 0.712894 0.582662
O O4 0.971199 0.860485 0.617678
O O5 0.011766 0.750000 0.250000
O O6 0.848322 0.854790 0.274821
O O7 0.939288 0.760097 0.411895
O O8 0.052706 0.895619 0.339613
O O9 0.163887 0.589131 0.834549
O O10 0.147417 0.724034 0.942443
O O11 0.126339 0.572172 0.007879
O O12 0.250000 0.500000 0.134590
O O13 0.750000 0.500000 0.293235
O O14 0.661470 0.648748 0.332296
O O15 0.205028 0.141505 0.959565
O O16 0.948934 0.137744 0.002845
#
# Coordination Sequence:
#
# PCOD9414037 Si02
#       7
#     8   8   8   8   8   8   8
#     4  11  22  40  65  95 130 176 223 275 336 403
#     4  12  22  44  73  95 131 186 237 265 331 425
#     4  11  21  40  66  93 129 176 221 274 338 427
#     4  12  26  40  62 102 144 170 209 287 368 406
#     4  12  25  40  66 100 133 174 227 288 338 398
#     4  11  20  41  70  98 127 167 245 277 325 405
#     4  11  21  41  68  98 128 177 232 285 327 418
#
# _framework density 20.740741
#
# number of rings (size 3 to 8) (size 9 to 14) (size 15 to 20)
#    0.000    0.571    7.143    3.000    2.000    0.571 
#    0.000    0.714    0.000    0.857    0.000    0.000 
#    0.000    0.000    0.000    0.000    0.000    0.000 
#
# Total GULP energy -311802.139881 kJ/mol
# GULP energy per Si atom -5567.895355 kJ/mol
# Density = 2.069353 g / cm^3
# Si number density = 20.740741 Si / 1000 Ang^3
#
#
#
# Elastic Constant Matrix: (Units=GPa)
#
#
# Indices 1 2 3 4 5 6 
#
# 1 141.7943 5.8747 18.8595 0.0000 0.0000 0.0000
# 2 5.8747 21.8862 17.7816 0.0000 0.0000 0.0000
# 3 18.8595 17.7816 119.0262 0.0000 0.0000 0.0000
# 4 0.0000 0.0000 0.0000 17.6049 0.0000 0.0000
# 5 0.0000 0.0000 0.0000 0.0000 40.3131 0.0000
# 6 0.0000 0.0000 0.0000 0.0000 0.0000 24.1302
#
#
#
# Elastic Compliance Matrix: (Units=1/GPa)
#
#
# Indices 1 2 3 4 5 6 
#
# 1 0.007230 -0.001149 -0.000974 0.000000 0.000000 0.000000
# 2 -0.001149 0.052186 -0.007614 0.000000 0.000000 0.000000
# 3 -0.000974 -0.007614 0.009693 0.000000 0.000000 0.000000
# 4 0.000000 0.000000 0.000000 0.056802 0.000000 0.000000
# 5 0.000000 0.000000 0.000000 0.000000 0.024806 0.000000
# 6 0.000000 0.000000 0.000000 0.000000 0.000000 0.041442
#
#
# Mechanical properties :
#
#
# Convention : Reuss Voigt Hill
#
# Bulk Modulus (GPa) = 20.14748 40.85980 30.50364
# Shear Modulus (GPa) = 21.91274 32.42235 27.16754
#
# Velocity S-wave (km/s) = 3.25392 3.95805 3.62313
# Velocity P-wave (km/s) = 4.88389 6.37426 5.67819
#
# Compressibility (1/GPa) = 0.04963401
#
# Stress axis : x y z
#
# Youngs Moduli (GPa) = 138.31999 19.16240 103.16416
#
# Poissons Ratio (x) = 0.02203 0.10046
# Poissons Ratio (y) = 0.15898 0.78549
# Poissons Ratio (z) = 0.13470 0.14590
#
# Static dielectric constant tensor:
#      x y z
#    x 1.827870 0.000000 0.000000 
#    y 0.000000 1.792820 0.000000 
#    z 0.000000 0.000000 1.751580 
# 
# From -- ./inp_files/26181.got.cif
#   From: 2010.05.17/outbox.ucp.g08.bks.cvg/sg52_14_cif.got.tgz:26181.got - 2010.06.11 16:30:12.
