data_PCOD9414462
_publ_section_title
;
Structure prediction by ZEFSAII (Michael W. Deem and Ramdas Pophale) SiO2 
 PCOD9414462
Probable space group: P M N A
;
_chemical_formula_sum "Si O2"
_cell_formula_units_Z 64
_cell_length_a 9.116650
_cell_length_b 17.546425
_cell_length_c 26.641759
_cell_angle_alpha 90.000000
_cell_angle_beta 90.000000
_cell_angle_gamma 90.000000
_cell_volume 4261.738734
_symmetry_space_group_name_H-M "P M N A"
_symmetry_group_IT_number 53
_symmetry_cell_setting 'orthorhombic'
loop_
_space_group_symop_operation_xyz
x,y,z
1/2-x,-y,1/2+z
x,-y,-z
1/2-x,y,1/2-z
-x,-y,-z
1/2+x,y,1/2-z
-x,y,z
1/2+x,-y,1/2+z
loop_
_atom_site_type_symbol
_atom_site_label
_atom_site_fract_x
_atom_site_fract_y
_atom_site_fract_z
Si Si1 0.169429 0.398545 0.963175
Si Si2 0.830011 0.286651 0.867206
Si Si3 0.825556 0.481460 0.396017
Si Si4 0.668800 0.983524 0.940019
Si Si5 0.824742 0.829484 0.958779
Si Si6 0.323618 0.862035 0.424257
Si Si7 0.174519 0.589352 0.303038
Si Si8 0.173982 0.672902 0.558673
O O1 0.172601 0.337279 0.917931
O O2 0.234523 0.475124 0.939030
O O3 0.000000 0.407240 0.979049
O O4 0.267814 0.366140 0.007669
O O5 0.780637 0.202900 0.884520
O O6 0.734327 0.332087 0.827087
O O7 0.000000 0.283216 0.850472
O O8 0.790683 0.523038 0.343663
O O9 0.797179 0.391422 0.399183
O O10 0.000000 0.492923 0.405665
O O11 0.500000 0.976131 0.924264
O O12 0.756434 0.904974 0.934035
O O13 0.746243 0.057135 0.916287
O O14 0.670296 0.000000 0.000000
O O15 0.756868 0.752638 0.936569
O O16 0.000000 0.829448 0.954360
O O17 0.789399 0.833839 0.018775
O O18 0.500000 0.870805 0.422303
O O19 0.250000 0.575265 0.250000
O O20 0.000000 0.592878 0.297420
O O21 0.000000 0.686125 0.555629
#
# Coordination Sequence:
#
# PCOD9414462 Si02
#       8
#     8   8   8   8   8   8   8   8
#     4  10  18  29  43  62  87 117 151 185 219 258
#     4   9  17  30  46  66  90 117 150 184 222 266
#     4   9  20  34  45  62  86 115 147 181 225 273
#     4   9  17  27  39  59  84 115 154 188 219 255
#     4  10  18  29  42  59  85 120 157 189 223 256
#     4   9  16  28  43  60  86 118 151 186 220 256
#     4  10  20  35  52  68  87 113 145 184 231 276
#     4  11  20  29  42  60  88 120 151 186 223 262
#
# _framework density 15.017344
#
# number of rings (size 3 to 8) (size 9 to 14) (size 15 to 20)
#    0.000    2.375    1.250    2.250    0.000    6.000 
#    0.000    0.000    0.000    0.000    0.000    0.000 
#    0.000    1.000    0.000    9.250    0.000    3.875 
#
# Total GULP energy -356816.411872 kJ/mol
# GULP energy per Si atom -5575.256436 kJ/mol
# Density = 1.498316 g / cm^3
# Si number density = 15.017344 Si / 1000 Ang^3
#
#
#
# Elastic Constant Matrix: (Units=GPa)
#
#
# Indices 1 2 3 4 5 6 
#
# 1 63.3626 61.6202 30.1771 0.0000 0.0000 0.0000
# 2 61.6202 144.7806 34.0027 0.0000 0.0000 0.0000
# 3 30.1771 34.0027 44.1201 0.0000 0.0000 0.0000
# 4 0.0000 0.0000 0.0000 10.7985 0.0000 0.0000
# 5 0.0000 0.0000 0.0000 0.0000 14.4107 0.0000
# 6 0.0000 0.0000 0.0000 0.0000 0.0000 28.5233
#
#
#
# Elastic Compliance Matrix: (Units=1/GPa)
#
#
# Indices 1 2 3 4 5 6 
#
# 1 0.032992 -0.010674 -0.014339 0.000000 0.000000 0.000000
# 2 -0.010674 0.011887 -0.001860 0.000000 0.000000 0.000000
# 3 -0.014339 -0.001860 0.033907 0.000000 0.000000 0.000000
# 4 0.000000 0.000000 0.000000 0.092606 0.000000 0.000000
# 5 0.000000 0.000000 0.000000 0.000000 0.069393 0.000000
# 6 0.000000 0.000000 0.000000 0.000000 0.000000 0.035059
#
#
# Mechanical properties :
#
#
# Convention : Reuss Voigt Hill
#
# Bulk Modulus (GPa) = 39.93875 55.98482 47.96179
# Shear Modulus (GPa) = 14.79564 19.17738 16.98651
#
# Velocity S-wave (km/s) = 3.14225 3.57741 3.36687
# Velocity P-wave (km/s) = 6.31014 7.37732 6.86450
#
# Compressibility (1/GPa) = 0.02503834
#
# Stress axis : x y z
#
# Youngs Moduli (GPa) = 30.31030 84.12629 29.49252
#
# Poissons Ratio (x) = 0.89797 0.42291
# Poissons Ratio (y) = 0.32353 0.05486
# Poissons Ratio (z) = 0.43463 0.15649
#
# Static dielectric constant tensor:
#      x y z
#    x 1.501100 0.000000 0.000000 
#    y 0.000000 1.513330 0.000000 
#    z 0.000000 0.000000 1.470250 
# 
# From -- ./inp_files/36518.got.cif
#   From: 2010.05.17/outbox.cif.g08.bks.cpg/sg53_19_cif.got.tgz:36518.got - 2010.06.03 12:45:16.
