data_PCOD9414817
_publ_section_title
;
Structure prediction by ZEFSAII (Michael W. Deem and Ramdas Pophale) SiO2 
 PCOD9414817
Probable space group: P M N A
;
_chemical_formula_sum "Si O2"
_cell_formula_units_Z 32
_cell_length_a 10.362420
_cell_length_b 19.888219
_cell_length_c 8.315314
_cell_angle_alpha 90.000000
_cell_angle_beta 90.000000
_cell_angle_gamma 90.000000
_cell_volume 1713.703714
_symmetry_space_group_name_H-M "P M N A"
_symmetry_group_IT_number 53
_symmetry_cell_setting 'orthorhombic'
loop_
_space_group_symop_operation_xyz
x,y,z
1/2-x,-y,1/2+z
x,-y,-z
1/2-x,y,1/2-z
-x,-y,-z
1/2+x,y,1/2-z
-x,y,z
1/2+x,-y,1/2+z
loop_
_atom_site_type_symbol
_atom_site_label
_atom_site_fract_x
_atom_site_fract_y
_atom_site_fract_z
Si Si1 0.500000 0.421577 0.551008
Si Si2 0.847021 0.800489 0.400139
Si Si3 0.000000 0.424995 0.560357
Si Si4 0.854183 0.934847 0.611300
Si Si5 0.245815 0.658430 0.446655
O O1 0.500000 0.500000 0.500000
O O2 0.500000 0.423025 0.745597
O O3 0.375451 0.378462 0.498266
O O4 0.750000 0.811039 0.250000
O O5 0.845151 0.867253 0.506300
O O6 0.787859 0.735164 0.489822
O O7 0.000000 0.786806 0.356698
O O8 0.000000 0.500000 0.500000
O O9 0.873486 0.386964 0.502161
O O10 0.750000 0.933810 0.750000
O O11 0.000000 0.938910 0.677518
O O12 0.834595 0.000000 0.500000
O O13 0.250000 0.659408 0.250000
#
# Coordination Sequence:
#
# PCOD9414817 Si02
#       5
#     4   8   4   8   8
#     4  10  20  34  50  76 103 134 181 228 271 332
#     4  10  20  35  58  86 112 146 190 235 280 334
#     4  10  18  32  52  72  99 138 173 218 277 326
#     4  10  22  40  60  87 121 153 189 231 275 329
#     4   9  18  32  52  75 103 136 179 226 269 331
#
# _framework density 18.673005
#
# number of rings (size 3 to 8) (size 9 to 14) (size 15 to 20)
#    0.000    2.250    1.250    1.500    5.250    1.500 
#    0.000    2.500    0.000    0.000    0.000    0.000 
#    0.000    0.000    0.000    0.000    0.000    0.000 
#
# Total GULP energy -178436.707903 kJ/mol
# GULP energy per Si atom -5576.147122 kJ/mol
# Density = 1.863050 g / cm^3
# Si number density = 18.673005 Si / 1000 Ang^3
#
#
#
# Elastic Constant Matrix: (Units=GPa)
#
#
# Indices 1 2 3 4 5 6 
#
# 1 199.1250 95.0264 53.7364 0.0000 0.0000 0.0000
# 2 95.0264 177.6781 27.0577 0.0000 0.0000 0.0000
# 3 53.7364 27.0577 26.3654 0.0000 0.0000 0.0000
# 4 0.0000 0.0000 0.0000 17.8912 0.0000 0.0000
# 5 0.0000 0.0000 0.0000 0.0000 22.8116 0.0000
# 6 0.0000 0.0000 0.0000 0.0000 0.0000 36.6636
#
#
#
# Elastic Compliance Matrix: (Units=1/GPa)
#
#
# Indices 1 2 3 4 5 6 
#
# 1 0.012659 -0.003368 -0.022345 0.000000 0.000000 0.000000
# 2 -0.003368 0.007567 -0.000902 0.000000 0.000000 0.000000
# 3 -0.022345 -0.000902 0.084396 0.000000 0.000000 0.000000
# 4 0.000000 0.000000 0.000000 0.055893 0.000000 0.000000
# 5 0.000000 0.000000 0.000000 0.000000 0.043837 0.000000
# 6 0.000000 0.000000 0.000000 0.000000 0.000000 0.027275
#
#
# Mechanical properties :
#
#
# Convention : Reuss Voigt Hill
#
# Bulk Modulus (GPa) = 19.45776 83.86771 51.66274
# Shear Modulus (GPa) = 16.55698 30.62982 23.59340
#
# Velocity S-wave (km/s) = 2.98095 4.05449 3.55843
# Velocity P-wave (km/s) = 4.72133 8.18107 6.67910
#
# Compressibility (1/GPa) = 0.05139338
#
# Stress axis : x y z
#
# Youngs Moduli (GPa) = 78.99405 132.16112 11.84886
#
# Poissons Ratio (x) = 0.44507 0.26476
# Poissons Ratio (y) = 0.26602 0.01068
# Poissons Ratio (z) = 1.76514 0.11915
#
# Static dielectric constant tensor:
#      x y z
#    x 1.667220 0.000000 0.000000 
#    y 0.000000 1.638190 0.000000 
#    z 0.000000 0.000000 1.632140 
# 
# From -- ./inp_files/6038.got.cif
#   From: 2010.05.17/outbox.cif.g08.bks.cpg/sg53_4_cif.got.tgz:6038.got - 2010.06.03 12:45:16.
