data_PCOD9414101
_publ_section_title
;
Structure prediction by ZEFSAII (Michael W. Deem and Ramdas Pophale) SiO2 
 PCOD9414101
Probable space group: P M N A
;
_chemical_formula_sum "Si O2"
_cell_formula_units_Z 32
_cell_length_a 10.490047
_cell_length_b 8.947916
_cell_length_c 19.243455
_cell_angle_alpha 90.000000
_cell_angle_beta 90.000000
_cell_angle_gamma 90.000000
_cell_volume 1806.268803
_symmetry_space_group_name_H-M "P M N A"
_symmetry_group_IT_number 53
_symmetry_cell_setting 'orthorhombic'
loop_
_space_group_symop_operation_xyz
x,y,z
1/2-x,-y,1/2+z
x,-y,-z
1/2-x,y,1/2-z
-x,-y,-z
1/2+x,y,1/2-z
-x,y,z
1/2+x,-y,1/2+z
loop_
_atom_site_type_symbol
_atom_site_label
_atom_site_fract_x
_atom_site_fract_y
_atom_site_fract_z
Si Si1 0.500000 0.851933 0.159717
Si Si2 0.000000 0.816732 0.493658
Si Si3 0.725933 0.833499 0.532873
Si Si4 0.765677 0.972772 0.826904
Si Si5 0.000000 0.796172 0.184667
Si Si6 0.000000 0.342841 0.960761
O O1 0.500000 0.768111 0.086685
O O2 0.628242 0.952546 0.157143
O O3 0.500000 0.761207 0.232411
O O4 0.132355 0.767924 0.526801
O O5 0.000000 0.000000 0.500000
O O6 0.623691 0.742711 0.489662
O O7 0.726569 0.000000 0.500000
O O8 0.696303 0.857021 0.613717
O O9 0.750000 0.907325 0.750000
O O10 0.874467 0.100409 0.825405
O O11 0.000000 0.672451 0.123535
O O12 0.000000 0.500000 0.000000
#
# Coordination Sequence:
#
# PCOD9414101 Si02
#       6
#     4   4   8   8   4   4
#     4  10  16  27  46  81 109 125 155 223 275 327
#     4  10  16  28  53  84 107 127 165 224 290 316
#     4  11  18  33  56  79 109 133 177 227 277 319
#     4  10  18  28  50  81 107 131 165 220 282 320
#     4  10  19  30  46  73 108 135 176 213 267 310
#     4  12  24  36  51  75 110 154 190 218 255 316
#
# _framework density 17.716080000000002
#
# number of rings (size 3 to 8) (size 9 to 14) (size 15 to 20)
#    0.000    1.500    7.500    1.125    0.000    0.000 
#    0.000    0.625    0.000    7.500    0.000    0.000 
#    0.000    0.000    0.000    0.000    0.000    0.000 
#
# Total GULP energy -178265.396213 kJ/mol
# GULP energy per Si atom -5570.793632 kJ/mol
# Density = 1.767576 g / cm^3
# Si number density = 17.716080 Si / 1000 Ang^3
#
#
#
# Elastic Constant Matrix: (Units=GPa)
#
#
# Indices 1 2 3 4 5 6 
#
# 1 95.8893 12.5934 -18.3898 0.0000 0.0000 0.0000
# 2 12.5934 28.9739 19.7978 0.0000 0.0000 0.0000
# 3 -18.3898 19.7978 140.3083 0.0000 0.0000 0.0000
# 4 0.0000 0.0000 0.0000 14.3820 0.0000 0.0000
# 5 0.0000 0.0000 0.0000 0.0000 28.2820 0.0000
# 6 0.0000 0.0000 0.0000 0.0000 0.0000 -15.0165
#
#
#
# Elastic Compliance Matrix: (Units=1/GPa)
#
#
# Indices 1 2 3 4 5 6 
#
# 1 0.011811 -0.006852 0.002515 0.000000 0.000000 0.000000
# 2 -0.006852 0.042172 -0.006849 0.000000 0.000000 0.000000
# 3 0.002515 -0.006849 0.008423 0.000000 0.000000 0.000000
# 4 0.000000 0.000000 0.000000 0.069531 0.000000 0.000000
# 5 0.000000 0.000000 0.000000 0.000000 0.035358 0.000000
# 6 0.000000 0.000000 0.000000 0.000000 0.000000 -0.066593
#
#
# Mechanical properties :
#
#
# Convention : Reuss Voigt Hill
#
# Bulk Modulus (GPa) = 24.97862 32.57493 28.77678
# Shear Modulus (GPa) = 36.65204 22.27416 29.46310
#
# Velocity S-wave (km/s) = 4.55340 3.54967 4.08250
# Velocity P-wave (km/s) = 6.46333 5.93526 6.20492
#
# Compressibility (1/GPa) = 0.04003424
#
# Stress axis : x y z
#
# Youngs Moduli (GPa) = 84.66769 23.71264 118.72075
#
# Poissons Ratio (x) = 0.16248 -0.29856
# Poissons Ratio (y) = 0.58014 0.81307
# Poissons Ratio (z) = -0.21293 0.16240
#
# Static dielectric constant tensor:
#      x y z
#    x 1.639600 0.000000 0.000000 
#    y 0.000000 1.572610 0.000000 
#    z 0.000000 0.000000 1.666370 
# 
# From -- ./inp_files/27321.got.cif
#   From: 2010.05.17/outbox.cif.g08.bks.cpg/sg53_14_cif.got.tgz:27321.got - 2010.06.03 12:45:16.
