data_PCOD9414391
_publ_section_title
;
Structure prediction by ZEFSAII (Michael W. Deem and Ramdas Pophale) SiO2 
 PCOD9414391
Probable space group: P M N A
;
_chemical_formula_sum "Si O2"
_cell_formula_units_Z 64
_cell_length_a 8.999634
_cell_length_b 17.501555
_cell_length_c 27.159864
_cell_angle_alpha 90.000000
_cell_angle_beta 90.000000
_cell_angle_gamma 90.000000
_cell_volume 4277.884708
_symmetry_space_group_name_H-M "P M N A"
_symmetry_group_IT_number 53
_symmetry_cell_setting 'orthorhombic'
loop_
_space_group_symop_operation_xyz
x,y,z
1/2-x,-y,1/2+z
x,-y,-z
1/2-x,y,1/2-z
-x,-y,-z
1/2+x,y,1/2-z
-x,y,z
1/2+x,-y,1/2+z
loop_
_atom_site_type_symbol
_atom_site_label
_atom_site_fract_x
_atom_site_fract_y
_atom_site_fract_z
Si Si1 0.678678 0.593599 0.196723
Si Si2 0.821823 0.339551 0.063757
Si Si3 0.672814 0.404788 0.542845
Si Si4 0.177642 0.172311 0.032516
Si Si5 0.173852 0.281021 0.870523
Si Si6 0.179021 0.854038 0.425286
Si Si7 0.170513 0.977701 0.558041
Si Si8 0.823604 0.524913 0.611548
O O1 0.750000 0.583343 0.250000
O O2 0.500000 0.598514 0.199419
O O3 0.744374 0.669792 0.171256
O O4 0.718079 0.522972 0.160384
O O5 0.780057 0.250572 0.060099
O O6 0.748650 0.392269 0.105011
O O7 0.000000 0.343814 0.068200
O O8 0.781319 0.376248 0.010742
O O9 0.500000 0.429183 0.540973
O O10 0.681894 0.333871 0.580474
O O11 0.767546 0.472294 0.566357
O O12 0.228426 0.096810 0.061729
O O13 0.000000 0.172611 0.025086
O O14 0.254654 0.168699 0.978777
O O15 0.253543 0.202492 0.884928
O O16 0.000000 0.270133 0.858774
O O17 0.000000 0.848276 0.427481
O O18 0.217216 0.943294 0.416275
O O19 0.000000 0.959456 0.571291
O O20 0.170633 0.000000 0.500000
O O21 0.000000 0.531279 0.610041
#
# Coordination Sequence:
#
# PCOD9414391 Si02
#       8
#     8   8   8   8   8   8   8   8
#     4  10  21  37  53  70  91 115 146 185 231 277
#     4  10  19  30  42  60  88 121 154 186 223 266
#     4   9  17  30  43  58  86 120 150 182 220 262
#     4  10  18  28  41  60  85 119 160 194 223 260
#     4  10  18  30  48  69  91 118 153 188 226 268
#     4  10  18  28  42  61  89 120 153 190 225 265
#     4   8  16  28  39  56  83 118 154 187 225 261
#     4  10  21  32  44  66  87 109 147 187 223 268
#
# _framework density 14.960666
#
# number of rings (size 3 to 8) (size 9 to 14) (size 15 to 20)
#    0.000    2.375    1.250    3.000    0.000    7.750 
#    0.000    0.000    0.000    0.000    0.000    0.000 
#    0.000    1.000    0.000    9.000    0.000    6.750 
#
# Total GULP energy -356775.632539 kJ/mol
# GULP energy per Si atom -5574.619258 kJ/mol
# Density = 1.492661 g / cm^3
# Si number density = 14.960666 Si / 1000 Ang^3
#
#
#
# Elastic Constant Matrix: (Units=GPa)
#
#
# Indices 1 2 3 4 5 6 
#
# 1 58.6949 58.5628 31.7657 0.0000 0.0000 0.0000
# 2 58.5628 136.4738 50.0731 0.0000 0.0000 0.0000
# 3 31.7657 50.0731 54.2041 0.0000 0.0000 0.0000
# 4 0.0000 0.0000 0.0000 11.1676 0.0000 0.0000
# 5 0.0000 0.0000 0.0000 0.0000 15.3054 0.0000
# 6 0.0000 0.0000 0.0000 0.0000 0.0000 27.2774
#
#
#
# Elastic Compliance Matrix: (Units=1/GPa)
#
#
# Indices 1 2 3 4 5 6 
#
# 1 0.032662 -0.010578 -0.009369 0.000000 0.000000 0.000000
# 2 -0.010578 0.014510 -0.007205 0.000000 0.000000 0.000000
# 3 -0.009369 -0.007205 0.030596 0.000000 0.000000 0.000000
# 4 0.000000 0.000000 0.000000 0.089545 0.000000 0.000000
# 5 0.000000 0.000000 0.000000 0.000000 0.065336 0.000000
# 6 0.000000 0.000000 0.000000 0.000000 0.000000 0.036660
#
#
# Mechanical properties :
#
#
# Convention : Reuss Voigt Hill
#
# Bulk Modulus (GPa) = 42.62072 58.90842 50.76457
# Shear Modulus (GPa) = 15.08583 18.01482 16.55033
#
# Velocity S-wave (km/s) = 3.17892 3.47384 3.32965
# Velocity P-wave (km/s) = 6.48263 7.45326 6.98483
#
# Compressibility (1/GPa) = 0.02346277
#
# Stress axis : x y z
#
# Youngs Moduli (GPa) = 30.61629 68.91667 32.68434
#
# Poissons Ratio (x) = 0.72901 0.30623
# Poissons Ratio (y) = 0.32386 0.23550
# Poissons Ratio (z) = 0.28686 0.49656
#
# Static dielectric constant tensor:
#      x y z
#    x 1.500160 0.000000 0.000000 
#    y 0.000000 1.524280 0.000000 
#    z 0.000000 0.000000 1.466600 
# 
# From -- ./inp_files/34535.got.cif
#   From: 2010.05.17/outbox.cif.g08.bks.cpg/sg53_18_cif.got.tgz:34535.got - 2010.06.03 12:45:16.
