data_PCOD9414915
_publ_section_title
;
Structure prediction by ZEFSAII (Michael W. Deem and Ramdas Pophale) SiO2 
 PCOD9414915
Probable space group: P M N A
;
_chemical_formula_sum "Si O2"
_cell_formula_units_Z 48
_cell_length_a 8.659810
_cell_length_b 15.593410
_cell_length_c 20.971783
_cell_angle_alpha 90.000000
_cell_angle_beta 90.000000
_cell_angle_gamma 90.000000
_cell_volume 2831.945015
_symmetry_space_group_name_H-M "P M N A"
_symmetry_group_IT_number 53
_symmetry_cell_setting 'orthorhombic'
loop_
_space_group_symop_operation_xyz
x,y,z
1/2-x,-y,1/2+z
x,-y,-z
1/2-x,y,1/2-z
-x,-y,-z
1/2+x,y,1/2-z
-x,y,z
1/2+x,-y,1/2+z
loop_
_atom_site_type_symbol
_atom_site_label
_atom_site_fract_x
_atom_site_fract_y
_atom_site_fract_z
Si Si1 0.679189 0.236390 0.008061
Si Si2 0.184037 0.616651 0.816873
Si Si3 0.821038 0.803447 0.656549
Si Si4 0.812706 0.421716 0.453152
Si Si5 0.812496 0.067275 0.555324
Si Si6 0.316964 0.012670 0.316288
O O1 0.500000 0.247774 0.988919
O O2 0.745479 0.162501 0.963093
O O3 0.679958 0.198167 0.079568
O O4 0.744914 0.331978 0.015700
O O5 0.250000 0.581537 0.750000
O O6 0.243329 0.715028 0.822152
O O7 0.245617 0.572393 0.881709
O O8 0.000000 0.614742 0.815674
O O9 0.734495 0.888014 0.678562
O O10 0.000000 0.805233 0.677546
O O11 0.776179 0.500000 0.500000
O O12 0.000000 0.415946 0.446801
O O13 0.000000 0.068350 0.555936
O O14 0.766372 0.000000 0.500000
O O15 0.752439 0.035204 0.622759
O O16 0.250000 0.978176 0.250000
O O17 0.500000 0.007044 0.316569
#
# Coordination Sequence:
#
# PCOD9414915 Si02
#       6
#     8   8   8   8   8   8
#     4   8  15  29  52  77 101 133 170 207 254 308
#     4  11  21  33  50  76 108 141 174 214 264 318
#     4  10  18  33  52  74 104 139 174 209 258 317
#     4   9  18  34  56  81 108 139 175 215 262 319
#     4  10  18  33  54  75 101 138 176 212 256 309
#     4  12  24  35  48  71 103 140 180 223 267 310
#
# _framework density 16.949482
#
# number of rings (size 3 to 8) (size 9 to 14) (size 15 to 20)
#    0.000    2.000    1.667    5.000    0.000    0.667 
#    0.000    0.833    0.000    1.000    0.000    0.000 
#    0.000    0.000    0.000    0.000    0.000    0.000 
#
# Total GULP energy -267768.756265 kJ/mol
# GULP energy per Si atom -5578.515756 kJ/mol
# Density = 1.691090 g / cm^3
# Si number density = 16.949482 Si / 1000 Ang^3
#
#
#
# Elastic Constant Matrix: (Units=GPa)
#
#
# Indices 1 2 3 4 5 6 
#
# 1 57.5475 22.2960 37.2977 0.0000 0.0000 0.0000
# 2 22.2960 78.8309 65.5201 0.0000 0.0000 0.0000
# 3 37.2977 65.5201 139.7837 0.0000 0.0000 0.0000
# 4 0.0000 0.0000 0.0000 14.6025 0.0000 0.0000
# 5 0.0000 0.0000 0.0000 0.0000 26.8967 0.0000
# 6 0.0000 0.0000 0.0000 0.0000 0.0000 17.9245
#
#
#
# Elastic Compliance Matrix: (Units=1/GPa)
#
#
# Indices 1 2 3 4 5 6 
#
# 1 0.021225 -0.002123 -0.004668 0.000000 0.000000 0.000000
# 2 -0.002123 0.020994 -0.009274 0.000000 0.000000 0.000000
# 3 -0.004668 -0.009274 0.012746 0.000000 0.000000 0.000000
# 4 0.000000 0.000000 0.000000 0.068482 0.000000 0.000000
# 5 0.000000 0.000000 0.000000 0.000000 0.037179 0.000000
# 6 0.000000 0.000000 0.000000 0.000000 0.000000 0.055790
#
#
# Mechanical properties :
#
#
# Convention : Reuss Voigt Hill
#
# Bulk Modulus (GPa) = 43.79266 58.48774 51.14020
# Shear Modulus (GPa) = 19.51924 21.95462 20.73693
#
# Velocity S-wave (km/s) = 3.39722 3.60293 3.50159
# Velocity P-wave (km/s) = 6.42506 7.20348 6.82538
#
# Compressibility (1/GPa) = 0.02283488
#
# Stress axis : x y z
#
# Youngs Moduli (GPa) = 47.11404 47.63319 78.45390
#
# Poissons Ratio (x) = 0.10114 0.36624
# Poissons Ratio (y) = 0.10003 0.72756
# Poissons Ratio (z) = 0.21994 0.44174
#
# Static dielectric constant tensor:
#      x y z
#    x 1.573450 0.000000 0.000000 
#    y 0.000000 1.575020 0.000000 
#    z 0.000000 0.000000 1.583570 
# 
# From -- ./inp_files/30516.got.cif
#   From: 2010.05.17/outbox.cif.g08.bks.cpg/sg53_16_cif.got.tgz:30516.got - 2010.06.03 12:45:16.
