data_PCOD9414187
_publ_section_title
;
Structure prediction by ZEFSAII (Michael W. Deem and Ramdas Pophale) SiO2 
 PCOD9414187
Probable space group: P M N A
;
_chemical_formula_sum "Si O2"
_cell_formula_units_Z 48
_cell_length_a 29.945097
_cell_length_b 9.085867
_cell_length_c 7.764992
_cell_angle_alpha 90.000000
_cell_angle_beta 90.000000
_cell_angle_gamma 90.000000
_cell_volume 2112.677038
_symmetry_space_group_name_H-M "P M N A"
_symmetry_group_IT_number 53
_symmetry_cell_setting 'orthorhombic'
loop_
_space_group_symop_operation_xyz
x,y,z
1/2-x,-y,1/2+z
x,-y,-z
1/2-x,y,1/2-z
-x,-y,-z
1/2+x,y,1/2-z
-x,y,z
1/2+x,-y,1/2+z
loop_
_atom_site_type_symbol
_atom_site_label
_atom_site_fract_x
_atom_site_fract_y
_atom_site_fract_z
Si Si1 0.946541 0.364781 0.750799
Si Si2 0.860163 0.207514 0.844551
Si Si3 0.267176 0.170955 0.551776
Si Si4 0.878445 0.911043 0.680419
Si Si5 0.552008 0.691535 0.839953
Si Si6 0.680150 0.325902 0.014347
O O1 0.909613 0.276765 0.861426
O O2 0.941637 0.317238 0.548605
O O3 0.933575 0.537515 0.745485
O O4 0.000000 0.349496 0.794264
O O5 0.817645 0.229284 0.967808
O O6 0.841011 0.272128 0.665680
O O7 0.863602 0.032886 0.813730
O O8 0.250000 0.175516 0.750000
O O9 0.230720 0.272028 0.460098
O O10 0.263685 0.000000 0.500000
O O11 0.925162 0.838267 0.725519
O O12 0.847954 0.767936 0.651611
O O13 0.880742 0.000000 0.500000
O O14 0.500000 0.698078 0.810121
O O15 0.676803 0.500000 0.000000
#
# Coordination Sequence:
#
# PCOD9414187 Si02
#       6
#     8   8   8   8   8   8
#     4   9  16  27  44  68 102 140 177 218 266 316
#     4  10  19  31  48  73 102 139 174 213 266 321
#     4  10  21  39  58  78 107 142 181 225 271 323
#     4  10  17  26  44  70 101 137 168 209 266 312
#     4   9  16  25  41  70 105 141 175 214 266 320
#     4  10  18  31  50  72 100 132 173 217 267 318
#
# _framework density 22.719989999999999
#
# number of rings (size 3 to 8) (size 9 to 14) (size 15 to 20)
#    0.000    2.333    3.333    4.500    0.000    1.000 
#    0.000    9.167    0.000    0.500    0.000    0.000 
#    0.000    3.333    0.000    0.000    0.000    0.000 
#
# Total GULP energy -267910.945121 kJ/mol
# GULP energy per Si atom -5581.478023 kJ/mol
# Density = 2.266828 g / cm^3
# Si number density = 22.719990 Si / 1000 Ang^3
#
#
#
# Elastic Constant Matrix: (Units=GPa)
#
#
# Indices 1 2 3 4 5 6 
#
# 1 116.5486 66.2903 2.7457 0.0000 0.0000 0.0000
# 2 66.2903 148.2596 9.9422 0.0000 0.0000 0.0000
# 3 2.7457 9.9422 44.4823 0.0000 0.0000 0.0000
# 4 0.0000 0.0000 0.0000 1.8308 0.0000 0.0000
# 5 0.0000 0.0000 0.0000 0.0000 -13.0654 0.0000
# 6 0.0000 0.0000 0.0000 0.0000 0.0000 71.8418
#
#
#
# Elastic Compliance Matrix: (Units=1/GPa)
#
#
# Indices 1 2 3 4 5 6 
#
# 1 0.011515 -0.005179 0.000447 0.000000 0.000000 0.000000
# 2 -0.005179 0.009177 -0.001731 0.000000 0.000000 0.000000
# 3 0.000447 -0.001731 0.022840 0.000000 0.000000 0.000000
# 4 0.000000 0.000000 0.000000 0.546196 0.000000 0.000000
# 5 0.000000 0.000000 0.000000 0.000000 -0.076538 0.000000
# 6 0.000000 0.000000 0.000000 0.000000 0.000000 0.013919
#
#
# Mechanical properties :
#
#
# Convention : Reuss Voigt Hill
#
# Bulk Modulus (GPa) = 32.67416 51.91634 42.29525
# Shear Modulus (GPa) = 9.08699 27.47559 18.28129
#
# Velocity S-wave (km/s) = 2.00206 3.48129 2.83969
# Velocity P-wave (km/s) = 4.44486 6.24974 5.42292
#
# Compressibility (1/GPa) = 0.03060522
#
# Stress axis : x y z
#
# Youngs Moduli (GPa) = 86.84269 108.97392 43.78237
#
# Poissons Ratio (x) = 0.56433 -0.01956
# Poissons Ratio (y) = 0.44972 0.07580
# Poissons Ratio (z) = -0.03879 0.18868
#
# Static dielectric constant tensor:
#      x y z
#    x 1.911410 0.000000 0.000000 
#    y 0.000000 2.307440 0.000000 
#    z 0.000000 0.000000 1.915660 
# 
# From -- ./inp_files/18699.got.cif
#   From: 2010.05.17/outbox.cif.g08.bks.cpg/sg53_10_cif.got.tgz:18699.got - 2010.06.03 12:45:16.
