data_PCOD9414661
_publ_section_title
;
Structure prediction by ZEFSAII (Michael W. Deem and Ramdas Pophale) SiO2 
 PCOD9414661
Probable space group: P M N A
;
_chemical_formula_sum "Si O2"
_cell_formula_units_Z 64
_cell_length_a 7.666310
_cell_length_b 15.869613
_cell_length_c 21.854391
_cell_angle_alpha 90.000000
_cell_angle_beta 90.000000
_cell_angle_gamma 90.000000
_cell_volume 2658.835212
_symmetry_space_group_name_H-M "P M N A"
_symmetry_group_IT_number 53
_symmetry_cell_setting 'orthorhombic'
loop_
_space_group_symop_operation_xyz
x,y,z
1/2-x,-y,1/2+z
x,-y,-z
1/2-x,y,1/2-z
-x,-y,-z
1/2+x,y,1/2-z
-x,y,z
1/2+x,-y,1/2+z
loop_
_atom_site_type_symbol
_atom_site_label
_atom_site_fract_x
_atom_site_fract_y
_atom_site_fract_z
Si Si1 0.700632 0.174862 0.471515
Si Si2 0.801228 0.784536 0.662738
Si Si3 0.208425 0.424618 0.630756
Si Si4 0.792893 0.963112 0.685392
Si Si5 0.792152 0.099692 0.910792
Si Si6 0.288465 0.356432 0.997382
Si Si7 0.212409 0.604980 0.637509
Si Si8 0.206277 0.242119 0.819594
O O1 0.500000 0.156183 0.454368
O O2 0.803741 0.194568 0.409905
O O3 0.773702 0.107660 0.519781
O O4 0.708582 0.263530 0.507870
O O5 0.713769 0.869015 0.687633
O O6 0.721032 0.691322 0.668429
O O7 0.000000 0.779590 0.685767
O O8 0.269321 0.410826 0.560689
O O9 0.274021 0.512946 0.658540
O O10 0.243056 0.338228 0.665965
O O11 0.000000 0.433966 0.627481
O O12 0.750000 0.006413 0.750000
O O13 0.000000 0.956115 0.680517
O O14 0.732914 0.014381 0.626554
O O15 0.718257 0.174172 0.867389
O O16 0.000000 0.111850 0.917617
O O17 0.500000 0.350116 0.994989
O O18 0.244579 0.389445 0.065002
O O19 0.000000 0.609741 0.641834
O O20 0.250000 0.220990 0.750000
O O21 0.000000 0.237317 0.825974
#
# Coordination Sequence:
#
# PCOD9414661 Si02
#       8
#     8   8   8   8   8   8   8   8
#     4  10  19  33  55  85 118 151 184 224 278 333
#     4   9  20  39  59  83 115 151 187 230 278 333
#     4  10  18  30  53  81 108 146 188 225 270 321
#     4  11  24  41  63  86 109 141 187 236 283 333
#     4  10  22  39  59  84 115 147 182 226 281 339
#     4   9  16  28  49  79 114 149 184 221 265 324
#     4   8  15  30  53  80 111 144 183 223 264 319
#     4  11  23  39  55  76 110 148 188 233 280 335
#
# _framework density 24.070691
#
# number of rings (size 3 to 8) (size 9 to 14) (size 15 to 20)
#    0.000    2.250    1.250    2.625    0.000    6.000 
#    0.000    5.625    0.000    5.250    0.000    0.000 
#    0.000    0.000    0.000    0.000    0.000    0.000 
#
# Total GULP energy -357406.851178 kJ/mol
# GULP energy per Si atom -5584.482050 kJ/mol
# Density = 2.401590 g / cm^3
# Si number density = 24.070691 Si / 1000 Ang^3
#
#
#
# Elastic Constant Matrix: (Units=GPa)
#
#
# Indices 1 2 3 4 5 6 
#
# 1 50.7640 0.1011 -2.7855 0.0000 0.0000 0.0000
# 2 0.1011 122.2114 21.1029 0.0000 0.0000 0.0000
# 3 -2.7855 21.1029 45.2832 0.0000 0.0000 0.0000
# 4 0.0000 0.0000 0.0000 3.8569 0.0000 0.0000
# 5 0.0000 0.0000 0.0000 0.0000 9.1264 0.0000
# 6 0.0000 0.0000 0.0000 0.0000 0.0000 4.8094
#
#
#
# Elastic Compliance Matrix: (Units=1/GPa)
#
#
# Indices 1 2 3 4 5 6 
#
# 1 0.019773 -0.000246 0.001331 0.000000 0.000000 0.000000
# 2 -0.000246 0.008902 -0.004164 0.000000 0.000000 0.000000
# 3 0.001331 -0.004164 0.024105 0.000000 0.000000 0.000000
# 4 0.000000 0.000000 0.000000 0.259276 0.000000 0.000000
# 5 0.000000 0.000000 0.000000 0.000000 0.109572 0.000000
# 6 0.000000 0.000000 0.000000 0.000000 0.000000 0.207927
#
#
# Mechanical properties :
#
#
# Convention : Reuss Voigt Hill
#
# Bulk Modulus (GPa) = 21.44900 28.34395 24.89647
# Shear Modulus (GPa) = 7.67751 16.88121 12.27936
#
# Velocity S-wave (km/s) = 1.78787 2.65111 2.26107
# Velocity P-wave (km/s) = 3.63210 4.60131 4.14513
#
# Compressibility (1/GPa) = 0.04662222
#
# Stress axis : x y z
#
# Youngs Moduli (GPa) = 50.57526 112.33832 41.48444
#
# Poissons Ratio (x) = 0.02766 -0.05522
# Poissons Ratio (y) = 0.01245 0.17272
# Poissons Ratio (z) = -0.06732 0.46772
#
# Static dielectric constant tensor:
#      x y z
#    x 1.895570 0.000000 0.000000 
#    y 0.000000 1.996230 0.000000 
#    z 0.000000 0.000000 1.925800 
# 
# From -- ./inp_files/34156.got.cif
#   From: 2010.05.17/outbox.cif.g08.bks.cpg/sg53_18_cif.got.tgz:34156.got - 2010.06.03 12:45:16.
