data_PCOD9414333
_publ_section_title
;
Structure prediction by ZEFSAII (Michael W. Deem and Ramdas Pophale) SiO2 
 PCOD9414333
Probable space group: P M N A
;
_chemical_formula_sum "Si O2"
_cell_formula_units_Z 48
_cell_length_a 15.222500
_cell_length_b 10.436963
_cell_length_c 15.561367
_cell_angle_alpha 90.000000
_cell_angle_beta 90.000000
_cell_angle_gamma 90.000000
_cell_volume 2472.338158
_symmetry_space_group_name_H-M "P M N A"
_symmetry_group_IT_number 53
_symmetry_cell_setting 'orthorhombic'
loop_
_space_group_symop_operation_xyz
x,y,z
1/2-x,-y,1/2+z
x,-y,-z
1/2-x,y,1/2-z
-x,-y,-z
1/2+x,y,1/2-z
-x,y,z
1/2+x,-y,1/2+z
loop_
_atom_site_type_symbol
_atom_site_label
_atom_site_fract_x
_atom_site_fract_y
_atom_site_fract_z
Si Si1 0.300451 0.577751 0.157287
Si Si2 0.901879 0.821696 0.305149
Si Si3 0.717435 0.019174 0.097367
Si Si4 0.597127 0.111662 0.606480
Si Si5 0.224564 0.699476 0.650623
Si Si6 0.843383 0.359413 0.990914
O O1 0.250000 0.581974 0.250000
O O2 0.377106 0.680308 0.164025
O O3 0.330490 0.431590 0.142220
O O4 0.234842 0.617694 0.079634
O O5 0.897755 0.830734 0.202395
O O6 0.000000 0.858176 0.332369
O O7 0.829782 0.916795 0.342849
O O8 0.691211 0.161342 0.125074
O O9 0.822022 0.987342 0.099001
O O10 0.688618 0.000000 0.000000
O O11 0.500000 0.053504 0.595856
O O12 0.607799 0.233664 0.543589
O O13 0.250000 0.708118 0.750000
O O14 0.304149 0.674134 0.584158
O O15 0.887772 0.500000 0.000000
#
# Coordination Sequence:
#
# PCOD9414333 Si02
#       6
#     8   8   8   8   8   8
#     4  10  17  35  62  86 117 157 200 248 302 363
#     4  11  22  37  63  93 120 159 211 255 301 363
#     4  12  22  41  62  86 124 166 205 258 303 361
#     4  11  22  37  62  93 124 162 205 251 305 371
#     4  10  21  34  59  87 116 162 203 242 304 360
#     4  10  19  35  59  90 120 154 199 249 305 362
#
# _framework density 19.414819000000001
#
# number of rings (size 3 to 8) (size 9 to 14) (size 15 to 20)
#    0.000    1.333    5.000    1.500    0.000    1.000 
#    0.000    0.833    0.000   13.500    0.000    0.000 
#    0.000    0.000    0.000    0.000    0.000    0.000 
#
# Total GULP energy -267710.551384 kJ/mol
# GULP energy per Si atom -5577.303154 kJ/mol
# Density = 1.937063 g / cm^3
# Si number density = 19.414819 Si / 1000 Ang^3
#
#
#
# Elastic Constant Matrix: (Units=GPa)
#
#
# Indices 1 2 3 4 5 6 
#
# 1 61.3855 22.3546 23.3226 0.0000 0.0000 0.0000
# 2 22.3546 124.3442 23.6900 0.0000 0.0000 0.0000
# 3 23.3226 23.6900 111.3891 0.0000 0.0000 0.0000
# 4 0.0000 0.0000 0.0000 39.6655 0.0000 0.0000
# 5 0.0000 0.0000 0.0000 0.0000 17.1157 0.0000
# 6 0.0000 0.0000 0.0000 0.0000 0.0000 -5.3489
#
#
#
# Elastic Compliance Matrix: (Units=1/GPa)
#
#
# Indices 1 2 3 4 5 6 
#
# 1 0.018530 -0.002702 -0.003305 0.000000 0.000000 0.000000
# 2 -0.002702 0.008776 -0.001301 0.000000 0.000000 0.000000
# 3 -0.003305 -0.001301 0.009946 0.000000 0.000000 0.000000
# 4 0.000000 0.000000 0.000000 0.025211 0.000000 0.000000
# 5 0.000000 0.000000 0.000000 0.000000 0.058426 0.000000
# 6 0.000000 0.000000 0.000000 0.000000 0.000000 -0.186954
#
#
# Mechanical properties :
#
#
# Convention : Reuss Voigt Hill
#
# Bulk Modulus (GPa) = 44.17581 48.42815 46.30198
# Shear Modulus (GPa) = -113.88381 25.46990 -44.20696
#
# Velocity S-wave (km/s) = -7.66717 3.62592 -4.77694
# Velocity P-wave (km/s) = 7.45504 6.52133 2.55440
#
# Compressibility (1/GPa) = 0.02263682
#
# Stress axis : x y z
#
# Youngs Moduli (GPa) = 53.96615 113.95094 100.54064
#
# Poissons Ratio (x) = 0.30785 0.33231
# Poissons Ratio (y) = 0.14580 0.13078
# Poissons Ratio (z) = 0.17837 0.14822
#
# Static dielectric constant tensor:
#      x y z
#    x 2.312120 0.000000 0.000000 
#    y 0.000000 1.712600 0.000000 
#    z 0.000000 0.000000 1.679760 
# 
# From -- ./inp_files/22664.got.cif
#   From: 2010.05.17/outbox.cif.g08.bks.cpg/sg53_12_cif.got.tgz:22664.got - 2010.06.03 12:45:16.
