data_PCOD9414991
_publ_section_title
;
Structure prediction by ZEFSAII (Michael W. Deem and Ramdas Pophale) SiO2 
 PCOD9414991
Probable space group: P M N A
;
_chemical_formula_sum "Si O2"
_cell_formula_units_Z 64
_cell_length_a 15.868028
_cell_length_b 22.630707
_cell_length_c 9.797116
_cell_angle_alpha 90.000000
_cell_angle_beta 90.000000
_cell_angle_gamma 90.000000
_cell_volume 3518.190327
_symmetry_space_group_name_H-M "P M N A"
_symmetry_group_IT_number 53
_symmetry_cell_setting 'orthorhombic'
loop_
_space_group_symop_operation_xyz
x,y,z
1/2-x,-y,1/2+z
x,-y,-z
1/2-x,y,1/2-z
-x,-y,-z
1/2+x,y,1/2-z
-x,y,z
1/2+x,-y,1/2+z
loop_
_atom_site_type_symbol
_atom_site_label
_atom_site_fract_x
_atom_site_fract_y
_atom_site_fract_z
Si Si1 0.673754 0.248252 0.514071
Si Si2 0.099068 0.835289 0.226415
Si Si3 0.150738 0.841442 0.786538
Si Si4 0.907258 0.351176 0.396506
Si Si5 0.097614 0.632592 0.929059
Si Si6 0.129598 0.219717 0.483341
Si Si7 0.256598 0.442675 0.087175
Si Si8 0.398846 0.066602 0.513038
O O1 0.649076 0.216310 0.651900
O O2 0.632476 0.212442 0.389292
O O3 0.637837 0.313358 0.511409
O O4 0.771985 0.237827 0.488885
O O5 0.109636 0.820280 0.385079
O O6 0.000000 0.830088 0.194999
O O7 0.128118 0.895538 0.147982
O O8 0.250000 0.846586 0.750000
O O9 0.109404 0.822141 0.645221
O O10 0.124136 0.897609 0.875732
O O11 0.899063 0.348648 0.231324
O O12 0.907933 0.285332 0.460519
O O13 0.827210 0.391542 0.437920
O O14 0.000000 0.378053 0.425940
O O15 0.163000 0.579700 0.950905
O O16 0.000000 0.621266 0.963110
O O17 0.250000 0.454273 0.250000
O O18 0.278927 0.500000 0.000000
O O19 0.500000 0.063136 0.520842
O O20 0.365104 0.000000 0.500000
#
# Coordination Sequence:
#
# PCOD9414991 Si02
#       8
#     8   8   8   8   8   8   8   8
#     4  10  18  34  55  80 113 148 182 225 287 354
#     4  10  21  34  50  80 115 147 186 236 291 344
#     4   9  19  32  56  84 109 142 186 236 280 342
#     4  10  20  34  58  86 114 152 189 233 293 351
#     4  10  19  34  60  86 110 149 196 235 280 342
#     4  11  19  33  55  85 119 142 181 241 301 346
#     4  10  22  41  60  81 112 151 194 242 282 338
#     4   9  19  38  58  75 108 157 200 233 276 343
#
# _framework density 18.19117
#
# number of rings (size 3 to 8) (size 9 to 14) (size 15 to 20)
#    0.000    2.125    2.500    1.125    0.000    2.000 
#    2.250    4.375    0.000    2.250    0.000    0.000 
#    0.000    0.000    0.000    0.000    0.000    0.000 
#
# Total GULP energy -356299.039477 kJ/mol
# GULP energy per Si atom -5567.172492 kJ/mol
# Density = 1.814977 g / cm^3
# Si number density = 18.191170 Si / 1000 Ang^3
#
#
#
# Elastic Constant Matrix: (Units=GPa)
#
#
# Indices 1 2 3 4 5 6 
#
# 1 76.1229 29.8402 10.5488 0.0000 0.0000 0.0000
# 2 29.8402 109.0574 33.9916 0.0000 0.0000 0.0000
# 3 10.5488 33.9916 75.3573 0.0000 0.0000 0.0000
# 4 0.0000 0.0000 0.0000 15.2407 0.0000 0.0000
# 5 0.0000 0.0000 0.0000 0.0000 24.3416 0.0000
# 6 0.0000 0.0000 0.0000 0.0000 0.0000 21.8370
#
#
#
# Elastic Compliance Matrix: (Units=1/GPa)
#
#
# Indices 1 2 3 4 5 6 
#
# 1 0.014720 -0.003939 -0.000284 0.000000 0.000000 0.000000
# 2 -0.003939 0.011724 -0.004737 0.000000 0.000000 0.000000
# 3 -0.000284 -0.004737 0.015446 0.000000 0.000000 0.000000
# 4 0.000000 0.000000 0.000000 0.065614 0.000000 0.000000
# 5 0.000000 0.000000 0.000000 0.000000 0.041082 0.000000
# 6 0.000000 0.000000 0.000000 0.000000 0.000000 0.045794
#
#
# Mechanical properties :
#
#
# Convention : Reuss Voigt Hill
#
# Bulk Modulus (GPa) = 41.71743 45.47764 43.59754
# Shear Modulus (GPa) = 22.69739 24.69434 23.69586
#
# Velocity S-wave (km/s) = 3.53613 3.68841 3.61307
# Velocity P-wave (km/s) = 6.29721 6.57216 6.43615
#
# Compressibility (1/GPa) = 0.02397080
#
# Stress axis : x y z
#
# Youngs Moduli (GPa) = 67.93401 85.29690 64.73969
#
# Poissons Ratio (x) = 0.33601 0.01836
# Poissons Ratio (y) = 0.26761 0.30666
# Poissons Ratio (z) = 0.01927 0.40404
#
# Static dielectric constant tensor:
#      x y z
#    x 1.655920 0.000000 0.000000 
#    y 0.000000 1.618640 0.000000 
#    z 0.000000 0.000000 1.687210 
# 
# From -- ./inp_files/8922.got.cif
#   From: 2010.05.17/outbox.cif.g08.bks.cpg/sg53_5_cif.got.tgz:8922.got - 2010.06.03 12:45:16.
