data_PCOD9414218
_publ_section_title
;
Structure prediction by ZEFSAII (Michael W. Deem and Ramdas Pophale) SiO2 
 PCOD9414218
Probable space group: P M N A
;
_chemical_formula_sum "Si O2"
_cell_formula_units_Z 48
_cell_length_a 8.895117
_cell_length_b 10.529112
_cell_length_c 31.008229
_cell_angle_alpha 90.000000
_cell_angle_beta 90.000000
_cell_angle_gamma 90.000000
_cell_volume 2904.158887
_symmetry_space_group_name_H-M "P M N A"
_symmetry_group_IT_number 53
_symmetry_cell_setting 'orthorhombic'
loop_
_space_group_symop_operation_xyz
x,y,z
1/2-x,-y,1/2+z
x,-y,-z
1/2-x,y,1/2-z
-x,-y,-z
1/2+x,y,1/2-z
-x,y,z
1/2+x,-y,1/2+z
loop_
_atom_site_type_symbol
_atom_site_label
_atom_site_fract_x
_atom_site_fract_y
_atom_site_fract_z
Si Si1 0.318527 0.129769 0.475207
Si Si2 0.681770 0.224375 0.111345
Si Si3 0.817466 0.621800 0.027543
Si Si4 0.327326 0.205060 0.206091
Si Si5 0.326244 0.485606 0.794241
Si Si6 0.180585 0.505771 0.116207
O O1 0.500000 0.136922 0.469419
O O2 0.241090 0.144315 0.428862
O O3 0.269318 0.248965 0.504714
O O4 0.283988 0.000000 0.500000
O O5 0.500000 0.232085 0.111687
O O6 0.732232 0.171774 0.158394
O O7 0.748854 0.366729 0.107345
O O8 0.774746 0.598009 0.077025
O O9 0.000000 0.622026 0.026459
O O10 0.766724 0.500000 0.000000
O O11 0.250000 0.160520 0.250000
O O12 0.500000 0.165653 0.208061
O O13 0.322254 0.359633 0.206513
O O14 0.250000 0.441502 0.750000
O O15 0.500000 0.447794 0.796288
O O16 0.239210 0.448495 0.837513
O O17 0.000000 0.492882 0.116840
#
# Coordination Sequence:
#
# PCOD9414218 Si02
#       6
#     8   8   8   8   8   8
#     4  10  20  34  51  70  92 124 165 202 237 287
#     4  10  19  30  44  66  97 126 156 195 241 287
#     4   9  16  29  48  70  94 121 157 197 237 281
#     4   8  15  25  38  59  87 118 148 183 224 273
#     4   9  16  26  39  61  94 125 157 192 237 288
#     4  10  17  27  46  67  92 125 160 197 241 282
#
# _framework density 16.528022
#
# number of rings (size 3 to 8) (size 9 to 14) (size 15 to 20)
#    0.000    2.667    1.667    2.500    0.000    5.000 
#    0.000    2.500    0.000    0.000    0.000    1.167 
#    0.000    2.667    0.000    0.000    0.000    0.000 
#
# Total GULP energy -267326.703253 kJ/mol
# GULP energy per Si atom -5569.306318 kJ/mol
# Density = 1.649040 g / cm^3
# Si number density = 16.528022 Si / 1000 Ang^3
#
#
#
# Elastic Constant Matrix: (Units=GPa)
#
#
# Indices 1 2 3 4 5 6 
#
# 1 51.7923 19.8367 55.9743 0.0000 0.0000 0.0000
# 2 19.8367 58.5623 52.9210 0.0000 0.0000 0.0000
# 3 55.9743 52.9210 195.8686 0.0000 0.0000 0.0000
# 4 0.0000 0.0000 0.0000 13.4415 0.0000 0.0000
# 5 0.0000 0.0000 0.0000 0.0000 32.0175 0.0000
# 6 0.0000 0.0000 0.0000 0.0000 0.0000 -2.5363
#
#
#
# Elastic Compliance Matrix: (Units=1/GPa)
#
#
# Indices 1 2 3 4 5 6 
#
# 1 0.028333 -0.003017 -0.007282 0.000000 0.000000 0.000000
# 2 -0.003017 0.022913 -0.005329 0.000000 0.000000 0.000000
# 3 -0.007282 -0.005329 0.008626 0.000000 0.000000 0.000000
# 4 0.000000 0.000000 0.000000 0.074396 0.000000 0.000000
# 5 0.000000 0.000000 0.000000 0.000000 0.031233 0.000000
# 6 0.000000 0.000000 0.000000 0.000000 0.000000 -0.394282
#
#
# Mechanical properties :
#
#
# Convention : Reuss Voigt Hill
#
# Bulk Modulus (GPa) = 34.94346 62.63192 48.78769
# Shear Modulus (GPa) = -26.59762 20.41730 -3.09016
#
# Velocity S-wave (km/s) = -4.01589 3.51852 -1.36883
# Velocity P-wave (km/s) = 0.56153 7.38128 5.20423
#
# Compressibility (1/GPa) = 0.02861766
#
# Stress axis : x y z
#
# Youngs Moduli (GPa) = 35.29442 43.64318 115.92687
#
# Poissons Ratio (x) = 0.13167 0.84415
# Poissons Ratio (y) = 0.10648 0.61773
# Poissons Ratio (z) = 0.25700 0.23256
#
# Static dielectric constant tensor:
#      x y z
#    x 1.559480 0.000000 0.000000 
#    y 0.000000 1.525070 0.000000 
#    z 0.000000 0.000000 1.587000 
# 
# From -- ./inp_files/37918.got.cif
#   From: 2010.05.17/outbox.cif.g08.bks.cpg/sg53_19_cif.got.tgz:37918.got - 2010.06.03 12:45:16.
