data_PCOD9414839
_publ_section_title
;
Structure prediction by ZEFSAII (Michael W. Deem and Ramdas Pophale) SiO2 
 PCOD9414839
Probable space group: P M N A
;
_chemical_formula_sum "Si O2"
_cell_formula_units_Z 40
_cell_length_a 27.587158
_cell_length_b 7.709285
_cell_length_c 8.382041
_cell_angle_alpha 90.000000
_cell_angle_beta 90.000000
_cell_angle_gamma 90.000000
_cell_volume 1782.669541
_symmetry_space_group_name_H-M "P M N A"
_symmetry_group_IT_number 53
_symmetry_cell_setting 'orthorhombic'
loop_
_space_group_symop_operation_xyz
x,y,z
1/2-x,-y,1/2+z
x,-y,-z
1/2-x,y,1/2-z
-x,-y,-z
1/2+x,y,1/2-z
-x,y,z
1/2+x,-y,1/2+z
loop_
_atom_site_type_symbol
_atom_site_label
_atom_site_fract_x
_atom_site_fract_y
_atom_site_fract_z
Si Si1 0.786734 0.000000 0.000000
Si Si2 0.053531 0.238130 0.109953
Si Si3 0.647710 0.116924 0.226530
Si Si4 0.846137 0.276404 0.601486
Si Si5 0.054749 0.368000 0.760597
Si Si6 0.750000 0.730855 0.250000
O O1 0.757864 0.861109 0.102303
O O2 0.817806 0.116629 0.120850
O O3 0.093998 0.141137 0.207861
O O4 0.053646 0.434931 0.175891
O O5 0.000000 0.164501 0.133726
O O6 0.063049 0.252904 0.920393
O O7 0.652612 0.922792 0.160660
O O8 0.659397 0.256275 0.088988
O O9 0.899241 0.348175 0.645854
O O10 0.800588 0.360083 0.698242
O O11 0.000000 0.330028 0.697350
#
# Coordination Sequence:
#
# PCOD9414839 Si02
#       6
#     4   8   8   8   8   4
#     4  10  18  32  53  78 103 136 174 218 264 318
#     4   9  18  34  56  78 103 139 177 214 263 318
#     4  10  20  33  52  79 106 137 173 216 264 311
#     4  10  21  34  52  79 109 138 174 218 258 309
#     4   9  19  36  56  78 105 138 176 218 264 314
#     4  10  18  32  54  76 104 138 174 212 262 310
#
# _framework density 22.438257
#
# number of rings (size 3 to 8) (size 9 to 14) (size 15 to 20)
#    0.000    2.400    0.000    6.000    0.000    2.400 
#    0.000    6.500    0.000   14.400    0.000    0.000 
#    0.000    0.000    0.000    0.000    0.000    0.000 
#
# Total GULP energy -223357.252347 kJ/mol
# GULP energy per Si atom -5583.931309 kJ/mol
# Density = 2.238719 g / cm^3
# Si number density = 22.438257 Si / 1000 Ang^3
#
#
#
# Elastic Constant Matrix: (Units=GPa)
#
#
# Indices 1 2 3 4 5 6 
#
# 1 173.9372 31.4099 75.0887 0.0000 0.0000 0.0000
# 2 31.4099 28.8608 24.0546 0.0000 0.0000 0.0000
# 3 75.0887 24.0546 106.2909 0.0000 0.0000 0.0000
# 4 0.0000 0.0000 0.0000 22.3525 0.0000 0.0000
# 5 0.0000 0.0000 0.0000 0.0000 31.5155 0.0000
# 6 0.0000 0.0000 0.0000 0.0000 0.0000 -36.3503
#
#
#
# Elastic Compliance Matrix: (Units=1/GPa)
#
#
# Indices 1 2 3 4 5 6 
#
# 1 0.008927 -0.005496 -0.005063 0.000000 0.000000 0.000000
# 2 -0.005496 0.046088 -0.006547 0.000000 0.000000 0.000000
# 3 -0.005063 -0.006547 0.014467 0.000000 0.000000 0.000000
# 4 0.000000 0.000000 0.000000 0.044738 0.000000 0.000000
# 5 0.000000 0.000000 0.000000 0.000000 0.031730 0.000000
# 6 0.000000 0.000000 0.000000 0.000000 0.000000 -0.027510
#
#
# Mechanical properties :
#
#
# Convention : Reuss Voigt Hill
#
# Bulk Modulus (GPa) = 28.35365 63.35505 45.85435
# Shear Modulus (GPa) = 30.41206 15.40590 22.90898
#
# Velocity S-wave (km/s) = 3.68552 2.62313 3.19874
# Velocity P-wave (km/s) = 5.54748 6.12136 5.84147
#
# Compressibility (1/GPa) = 0.03526882
#
# Stress axis : x y z
#
# Youngs Moduli (GPa) = 112.01555 21.69781 69.12517
#
# Poissons Ratio (x) = 0.11925 0.34997
# Poissons Ratio (y) = 0.61565 0.45259
# Poissons Ratio (z) = 0.56712 0.14206
#
# Static dielectric constant tensor:
#      x y z
#    x 1.876890 0.000000 0.000000 
#    y 0.000000 1.825730 0.000000 
#    z 0.000000 0.000000 1.859760 
# 
# From -- ./inp_files/11611.got.cif
#   From: 2010.05.17/outbox.cif.g08.bks.cpg/sg53_6_cif.got.tgz:11611.got - 2010.06.03 12:45:16.
