data_PCOD9414183
_publ_section_title
;
Structure prediction by ZEFSAII (Michael W. Deem and Ramdas Pophale) SiO2 
 PCOD9414183
Probable space group: P M N A
;
_chemical_formula_sum "Si O2"
_cell_formula_units_Z 48
_cell_length_a 8.661408
_cell_length_b 32.594779
_cell_length_c 9.610116
_cell_angle_alpha 90.000000
_cell_angle_beta 90.000000
_cell_angle_gamma 90.000000
_cell_volume 2713.096040
_symmetry_space_group_name_H-M "P M N A"
_symmetry_group_IT_number 53
_symmetry_cell_setting 'orthorhombic'
loop_
_space_group_symop_operation_xyz
x,y,z
1/2-x,-y,1/2+z
x,-y,-z
1/2-x,y,1/2-z
-x,-y,-z
1/2+x,y,1/2-z
-x,y,z
1/2+x,-y,1/2+z
loop_
_atom_site_type_symbol
_atom_site_label
_atom_site_fract_x
_atom_site_fract_y
_atom_site_fract_z
Si Si1 0.185989 0.298221 0.594010
Si Si2 0.314288 0.374426 0.094172
Si Si3 0.184002 0.124291 0.908135
Si Si4 0.685254 0.461289 0.405463
Si Si5 0.685155 0.207969 0.907835
Si Si6 0.684931 0.960823 0.093850
O O1 0.250000 0.301958 0.750000
O O2 0.236713 0.336145 0.499635
O O3 0.227302 0.252990 0.534559
O O4 0.000000 0.299176 0.602182
O O5 0.250000 0.369677 0.250000
O O6 0.500000 0.375565 0.098622
O O7 0.252504 0.418166 0.040432
O O8 0.250000 0.124207 0.750000
O O9 0.244467 0.166793 0.973660
O O10 0.246074 0.081453 0.967587
O O11 0.000000 0.124377 0.903626
O O12 0.728152 0.500000 0.500000
O O13 0.750000 0.466879 0.250000
O O14 0.500000 0.458316 0.399582
O O15 0.750000 0.209268 0.750000
O O16 0.500000 0.203991 0.903975
O O17 0.750000 0.966170 0.250000
O O18 0.500000 0.956817 0.101875
O O19 0.723946 0.000000 0.000000
#
# Coordination Sequence:
#
# PCOD9414183 Si02
#       6
#     8   8   8   8   8   8
#     4   9  19  32  49  74 101 128 160 200 243 286
#     4  10  20  35  53  74 100 132 167 200 240 289
#     4  10  17  26  43  67  94 124 159 197 239 286
#     4  10  21  36  54  76 100 129 165 202 243 289
#     4   9  15  26  43  65  94 123 154 195 241 284
#     4  10  20  33  50  72  97 127 162 199 242 290
#
# _framework density 17.691965
#
# number of rings (size 3 to 8) (size 9 to 14) (size 15 to 20)
#    0.000    2.333    0.000    6.500    0.000    5.333 
#    0.000    3.333    0.000    1.000    0.000    2.333 
#    0.000    0.000    0.000    0.000    0.000    0.000 
#
# Total GULP energy -267553.123896 kJ/mol
# GULP energy per Si atom -5574.023414 kJ/mol
# Density = 1.765170 g / cm^3
# Si number density = 17.691965 Si / 1000 Ang^3
#
#
#
# Elastic Constant Matrix: (Units=GPa)
#
#
# Indices 1 2 3 4 5 6 
#
# 1 73.0727 67.1004 19.7998 0.0000 0.0000 0.0000
# 2 67.1004 230.7152 63.3717 0.0000 0.0000 0.0000
# 3 19.7998 63.3717 32.6312 0.0000 0.0000 0.0000
# 4 0.0000 0.0000 0.0000 26.0004 0.0000 0.0000
# 5 0.0000 0.0000 0.0000 0.0000 14.5666 0.0000
# 6 0.0000 0.0000 0.0000 0.0000 0.0000 28.3931
#
#
#
# Elastic Compliance Matrix: (Units=1/GPa)
#
#
# Indices 1 2 3 4 5 6 
#
# 1 0.018715 -0.004981 -0.001683 0.000000 0.000000 0.000000
# 2 -0.004981 0.010615 -0.017594 0.000000 0.000000 0.000000
# 3 -0.001683 -0.017594 0.065835 0.000000 0.000000 0.000000
# 4 0.000000 0.000000 0.000000 0.038461 0.000000 0.000000
# 5 0.000000 0.000000 0.000000 0.000000 0.068650 0.000000
# 6 0.000000 0.000000 0.000000 0.000000 0.000000 0.035220
#
#
# Mechanical properties :
#
#
# Convention : Reuss Voigt Hill
#
# Bulk Modulus (GPa) = 21.43609 70.77367 46.10488
# Shear Modulus (GPa) = 16.58044 26.20183 21.39114
#
# Velocity S-wave (km/s) = 3.06465 3.85255 3.48097
# Velocity P-wave (km/s) = 4.96642 7.73820 6.50173
#
# Compressibility (1/GPa) = 0.04665029
#
# Stress axis : x y z
#
# Youngs Moduli (GPa) = 53.43429 94.20217 15.18958
#
# Poissons Ratio (x) = 0.46919 0.02556
# Poissons Ratio (y) = 0.26614 0.26724
# Poissons Ratio (z) = 0.08992 1.65737
#
# Static dielectric constant tensor:
#      x y z
#    x 1.595080 0.000000 0.000000 
#    y 0.000000 1.671310 0.000000 
#    z 0.000000 0.000000 1.574550 
# 
# From -- ./inp_files/14120.got.cif
#   From: 2010.05.17/outbox.cif.g08.bks.cpg/sg53_8_cif.got.tgz:14120.got - 2010.06.03 12:45:16.
