data_PCOD9414861
_publ_section_title
;
Structure prediction by ZEFSAII (Michael W. Deem and Ramdas Pophale) SiO2 
 PCOD9414861
Probable space group: P M N A
;
_chemical_formula_sum "Si O2"
_cell_formula_units_Z 60
_cell_length_a 24.388513
_cell_length_b 8.443726
_cell_length_c 15.588205
_cell_angle_alpha 90.000000
_cell_angle_beta 90.000000
_cell_angle_gamma 90.000000
_cell_volume 3210.077829
_symmetry_space_group_name_H-M "P M N A"
_symmetry_group_IT_number 53
_symmetry_cell_setting 'orthorhombic'
loop_
_space_group_symop_operation_xyz
x,y,z
1/2-x,-y,1/2+z
x,-y,-z
1/2-x,y,1/2-z
-x,-y,-z
1/2+x,y,1/2-z
-x,y,z
1/2+x,-y,1/2+z
loop_
_atom_site_type_symbol
_atom_site_label
_atom_site_fract_x
_atom_site_fract_y
_atom_site_fract_z
Si Si1 0.883809 0.871035 0.813927
Si Si2 0.339175 0.313129 0.162938
Si Si3 0.831043 0.621932 0.233605
Si Si4 0.934599 0.224246 0.830186
Si Si5 0.741480 0.073622 0.349604
Si Si6 0.260995 0.737351 0.114054
Si Si7 0.934868 0.179009 0.019849
Si Si8 0.672790 0.500000 0.000000
O O1 0.879777 0.798219 0.718341
O O2 0.821961 0.881748 0.850097
O O3 0.912877 0.043985 0.813460
O O4 0.913262 0.768515 0.887924
O O5 0.321808 0.445285 0.232639
O O6 0.286041 0.210293 0.136815
O O7 0.358255 0.410468 0.078438
O O8 0.894593 0.662185 0.222548
O O9 0.804659 0.729575 0.307932
O O10 0.795365 0.662442 0.149926
O O11 0.924366 0.266631 0.930648
O O12 0.000000 0.232158 0.814397
O O13 0.750000 0.024820 0.250000
O O14 0.751359 0.919538 0.406854
O O15 0.288126 0.630541 0.042539
O O16 0.000000 0.167388 0.028422
O O17 0.913857 0.000000 0.000000
#
# Coordination Sequence:
#
# PCOD9414861 Si02
#       8
#     8   8   8   8   8   8   8   4
#     4  10  18  32  55  80 110 157 194 245 290 347
#     4  10  23  36  54  80 118 153 200 247 304 359
#     4  10  19  36  56  81 114 162 187 239 295 360
#     4  10  19  36  59  87 118 153 199 242 296 362
#     4  10  18  32  54  81 109 148 196 245 286 353
#     4  10  19  36  56  81 120 152 200 239 300 352
#     4   8  16  31  51  80 115 145 186 240 282 332
#     4  10  24  36  52  84 120 162 192 252 308 364
#
# _framework density 18.691136
#
# number of rings (size 3 to 8) (size 9 to 14) (size 15 to 20)
#    0.000    2.267    2.667    2.000   11.200    1.600 
#    2.400    1.333    0.000    1.600    0.000   20.533 
#    0.000    0.000    0.000    0.000    0.000    0.000 
#
# Total GULP energy -334130.923670 kJ/mol
# GULP energy per Si atom -5568.848728 kJ/mol
# Density = 1.864859 g / cm^3
# Si number density = 18.691136 Si / 1000 Ang^3
#
#
#
# Elastic Constant Matrix: (Units=GPa)
#
#
# Indices 1 2 3 4 5 6 
#
# 1 71.9540 9.1477 29.1844 0.0000 0.0000 0.0000
# 2 9.1477 54.1864 21.4506 0.0000 0.0000 0.0000
# 3 29.1844 21.4506 81.5054 0.0000 0.0000 0.0000
# 4 0.0000 0.0000 0.0000 27.7561 0.0000 0.0000
# 5 0.0000 0.0000 0.0000 0.0000 23.6016 0.0000
# 6 0.0000 0.0000 0.0000 0.0000 0.0000 -36.5991
#
#
#
# Elastic Compliance Matrix: (Units=1/GPa)
#
#
# Indices 1 2 3 4 5 6 
#
# 1 0.016271 -0.000492 -0.005697 0.000000 0.000000 0.000000
# 2 -0.000492 0.020616 -0.005250 0.000000 0.000000 0.000000
# 3 -0.005697 -0.005250 0.015691 0.000000 0.000000 0.000000
# 4 0.000000 0.000000 0.000000 0.036028 0.000000 0.000000
# 5 0.000000 0.000000 0.000000 0.000000 0.042370 0.000000
# 6 0.000000 0.000000 0.000000 0.000000 0.000000 -0.027323
#
#
# Mechanical properties :
#
#
# Convention : Reuss Voigt Hill
#
# Bulk Modulus (GPa) = 33.66856 36.35680 35.01268
# Shear Modulus (GPa) = 36.64914 12.80925 24.72920
#
# Velocity S-wave (km/s) = 4.43287 2.62069 3.64131
# Velocity P-wave (km/s) = 6.65227 5.35265 6.03753
#
# Compressibility (1/GPa) = 0.02970130
#
# Stress axis : x y z
#
# Youngs Moduli (GPa) = 61.45966 48.50604 63.73275
#
# Poissons Ratio (x) = 0.02385 0.36306
# Poissons Ratio (y) = 0.03022 0.33458
# Poissons Ratio (z) = 0.35011 0.25464
#
# Static dielectric constant tensor:
#      x y z
#    x 1.640630 0.000000 0.000000 
#    y 0.000000 1.725600 0.000000 
#    z 0.000000 0.000000 1.699710 
# 
# From -- ./inp_files/24692.got.cif
#   From: 2010.05.17/outbox.cif.g08.bks.cpg/sg53_13_cif.got.tgz:24692.got - 2010.06.03 12:45:16.
