data_PCOD9414328
_publ_section_title
;
Structure prediction by ZEFSAII (Michael W. Deem and Ramdas Pophale) SiO2 
 PCOD9414328
Probable space group: P M N A
;
_chemical_formula_sum "Si O2"
_cell_formula_units_Z 48
_cell_length_a 17.349887
_cell_length_b 15.724599
_cell_length_c 9.329264
_cell_angle_alpha 90.000000
_cell_angle_beta 90.000000
_cell_angle_gamma 90.000000
_cell_volume 2545.209952
_symmetry_space_group_name_H-M "P M N A"
_symmetry_group_IT_number 53
_symmetry_cell_setting 'orthorhombic'
loop_
_space_group_symop_operation_xyz
x,y,z
1/2-x,-y,1/2+z
x,-y,-z
1/2-x,y,1/2-z
-x,-y,-z
1/2+x,y,1/2-z
-x,y,z
1/2+x,-y,1/2+z
loop_
_atom_site_type_symbol
_atom_site_label
_atom_site_fract_x
_atom_site_fract_y
_atom_site_fract_z
Si Si1 0.350064 0.918143 0.902230
Si Si2 0.593181 0.763696 0.368075
Si Si3 0.334372 0.677564 0.776629
Si Si4 0.588809 0.752968 0.037775
Si Si5 0.326937 0.140166 0.388890
Si Si6 0.090765 0.593436 0.972714
O O1 0.404526 0.844207 0.961390
O O2 0.260893 0.886821 0.919262
O O3 0.360157 0.925654 0.729555
O O4 0.361207 0.000000 0.000000
O O5 0.500000 0.768592 0.380188
O O6 0.629139 0.838585 0.464769
O O7 0.620127 0.672559 0.432244
O O8 0.614182 0.764914 0.201323
O O9 0.250000 0.640153 0.750000
O O10 0.358271 0.692471 0.940015
O O11 0.331365 0.770173 0.698350
O O12 0.395149 0.621685 0.690248
O O13 0.500000 0.723679 0.036285
O O14 0.000000 0.589223 0.003176
O O15 0.124236 0.500000 0.000000
#
# Coordination Sequence:
#
# PCOD9414328 Si02
#       6
#     8   8   8   8   8   8
#     4  10  20  34  53  78 104 138 177 224 271 318
#     4   9  19  34  55  79 105 140 182 221 262 318
#     4  10  17  35  56  76 106 140 181 221 261 323
#     4  10  20  35  54  80 106 138 181 223 265 320
#     4   9  18  35  52  75 105 141 182 220 262 325
#     4   9  18  34  55  78 105 142 179 216 266 319
#
# _framework density 18.858955999999999
#
# number of rings (size 3 to 8) (size 9 to 14) (size 15 to 20)
#    0.000    2.500    3.333    0.500    0.000    7.667 
#    0.000    2.500    0.000    6.500    0.000    0.000 
#    0.000    0.000    0.000    0.000    0.000    0.000 
#
# Total GULP energy -267261.218556 kJ/mol
# GULP energy per Si atom -5567.942053 kJ/mol
# Density = 1.881603 g / cm^3
# Si number density = 18.858956 Si / 1000 Ang^3
#
#
#
# Elastic Constant Matrix: (Units=GPa)
#
#
# Indices 1 2 3 4 5 6 
#
# 1 25.6765 2.0932 33.1145 0.0000 0.0000 0.0000
# 2 2.0932 43.3070 15.4752 0.0000 0.0000 0.0000
# 3 33.1145 15.4752 142.9342 0.0000 0.0000 0.0000
# 4 0.0000 0.0000 0.0000 1.9654 0.0000 0.0000
# 5 0.0000 0.0000 0.0000 0.0000 21.5303 0.0000
# 6 0.0000 0.0000 0.0000 0.0000 0.0000 15.1865
#
#
#
# Elastic Compliance Matrix: (Units=1/GPa)
#
#
# Indices 1 2 3 4 5 6 
#
# 1 0.055707 0.001996 -0.013122 0.000000 0.000000 0.000000
# 2 0.001996 0.024092 -0.003071 0.000000 0.000000 0.000000
# 3 -0.013122 -0.003071 0.010369 0.000000 0.000000 0.000000
# 4 0.000000 0.000000 0.000000 0.508802 0.000000 0.000000
# 5 0.000000 0.000000 0.000000 0.000000 0.046446 0.000000
# 6 0.000000 0.000000 0.000000 0.000000 0.000000 0.065848
#
#
# Mechanical properties :
#
#
# Convention : Reuss Voigt Hill
#
# Bulk Modulus (GPa) = 16.18799 34.80929 25.49864
# Shear Modulus (GPa) = 6.57680 18.48541 12.53111
#
# Velocity S-wave (km/s) = 1.86947 3.13420 2.58052
# Velocity P-wave (km/s) = 3.64174 5.62098 4.73591
#
# Compressibility (1/GPa) = 0.06177419
#
# Stress axis : x y z
#
# Youngs Moduli (GPa) = 17.95116 41.50785 96.44329
#
# Poissons Ratio (x) = -0.08287 1.26554
# Poissons Ratio (y) = -0.03584 0.29617
# Poissons Ratio (z) = 0.23556 0.12747
#
# Static dielectric constant tensor:
#      x y z
#    x 1.683620 0.000000 0.000000 
#    y 0.000000 1.675920 0.000000 
#    z 0.000000 0.000000 1.679610 
# 
# From -- ./inp_files/9939.got.cif
#   From: 2010.05.17/outbox.cif.g08.bks.cpg/sg53_5_cif.got.tgz:9939.got - 2010.06.03 12:45:16.
