data_PCOD9414508
_publ_section_title
;
Structure prediction by ZEFSAII (Michael W. Deem and Ramdas Pophale) SiO2 
 PCOD9414508
Probable space group: P M N A
;
_chemical_formula_sum "Si O2"
_cell_formula_units_Z 56
_cell_length_a 9.120643
_cell_length_b 21.900893
_cell_length_c 14.822834
_cell_angle_alpha 90.000000
_cell_angle_beta 90.000000
_cell_angle_gamma 90.000000
_cell_volume 2960.864448
_symmetry_space_group_name_H-M "P M N A"
_symmetry_group_IT_number 53
_symmetry_cell_setting 'orthorhombic'
loop_
_space_group_symop_operation_xyz
x,y,z
1/2-x,-y,1/2+z
x,-y,-z
1/2-x,y,1/2-z
-x,-y,-z
1/2+x,y,1/2-z
-x,y,z
1/2+x,-y,1/2+z
loop_
_atom_site_type_symbol
_atom_site_label
_atom_site_fract_x
_atom_site_fract_y
_atom_site_fract_z
Si Si1 0.663420 0.448598 0.919405
Si Si2 0.822544 0.758246 0.848420
Si Si3 0.175541 0.869333 0.543953
Si Si4 0.677969 0.027923 0.343848
Si Si5 0.842011 0.454866 0.175279
Si Si6 0.837041 0.644838 0.978837
Si Si7 0.175854 0.105606 0.659608
O O1 0.500000 0.442308 0.884951
O O2 0.770784 0.481371 0.850425
O O3 0.657619 0.500000 0.000000
O O4 0.723194 0.383068 0.950825
O O5 0.750000 0.749458 0.750000
O O6 0.749395 0.816343 0.896918
O O7 0.794533 0.701643 0.916418
O O8 0.000000 0.764724 0.839477
O O9 0.257161 0.930796 0.576380
O O10 0.195488 0.860532 0.436139
O O11 0.000000 0.873683 0.560724
O O12 0.750000 0.052091 0.250000
O O13 0.500000 0.028673 0.340881
O O14 0.742398 0.959606 0.351835
O O15 0.750000 0.420557 0.250000
O O16 0.850585 0.412468 0.088968
O O17 0.000000 0.464937 0.214586
O O18 0.000000 0.656472 0.017238
O O19 0.250000 0.133221 0.750000
O O20 0.000000 0.096768 0.673378
#
# Coordination Sequence:
#
# PCOD9414508 Si02
#       7
#     8   8   8   8   8   8   8
#     4   9  17  29  47  71  97 127 164 205 250 301
#     4  11  23  38  56  79 108 142 181 222 265 317
#     4  11  23  38  55  78 110 145 180 221 270 319
#     4  11  21  34  55  82 113 146 179 218 265 319
#     4  10  18  29  47  72 103 134 166 206 254 306
#     4   9  19  34  51  72 100 135 171 210 256 306
#     4  10  21  37  58  82 108 138 175 221 269 320
#
# _framework density 18.913395000000001
#
# number of rings (size 3 to 8) (size 9 to 14) (size 15 to 20)
#    0.000    1.857    0.000    5.571    0.000    7.429 
#    0.000    0.000    0.000    0.857    0.000    2.000 
#    0.000    0.000    0.000    0.000    0.000    0.000 
#
# Total GULP energy -312056.322215 kJ/mol
# GULP energy per Si atom -5572.434325 kJ/mol
# Density = 1.887035 g / cm^3
# Si number density = 18.913395 Si / 1000 Ang^3
#
#
#
# Elastic Constant Matrix: (Units=GPa)
#
#
# Indices 1 2 3 4 5 6 
#
# 1 115.1866 19.4041 15.8539 0.0000 0.0000 0.0000
# 2 19.4041 51.1407 4.2495 0.0000 0.0000 0.0000
# 3 15.8539 4.2495 45.6046 0.0000 0.0000 0.0000
# 4 0.0000 0.0000 0.0000 23.2814 0.0000 0.0000
# 5 0.0000 0.0000 0.0000 0.0000 27.4460 0.0000
# 6 0.0000 0.0000 0.0000 0.0000 0.0000 14.9080
#
#
#
# Elastic Compliance Matrix: (Units=1/GPa)
#
#
# Indices 1 2 3 4 5 6 
#
# 1 0.009677 -0.003419 -0.003045 0.000000 0.000000 0.000000
# 2 -0.003419 0.020914 -0.000760 0.000000 0.000000 0.000000
# 3 -0.003045 -0.000760 0.023057 0.000000 0.000000 0.000000
# 4 0.000000 0.000000 0.000000 0.042953 0.000000 0.000000
# 5 0.000000 0.000000 0.000000 0.000000 0.036435 0.000000
# 6 0.000000 0.000000 0.000000 0.000000 0.000000 0.067078
#
#
# Mechanical properties :
#
#
# Convention : Reuss Voigt Hill
#
# Bulk Modulus (GPa) = 25.51065 32.32743 28.91904
# Shear Modulus (GPa) = 21.96557 24.62204 23.29380
#
# Velocity S-wave (km/s) = 3.41159 3.61200 3.51323
# Velocity P-wave (km/s) = 5.38851 5.87579 5.63742
#
# Compressibility (1/GPa) = 0.03919931
#
# Stress axis : x y z
#
# Youngs Moduli (GPa) = 103.34205 47.81447 43.37045
#
# Poissons Ratio (x) = 0.16345 0.13208
# Poissons Ratio (y) = 0.35328 0.03298
# Poissons Ratio (z) = 0.31472 0.03636
#
# Static dielectric constant tensor:
#      x y z
#    x 1.670680 0.000000 0.000000 
#    y 0.000000 1.642680 0.000000 
#    z 0.000000 0.000000 1.724250 
# 
# From -- ./inp_files/20453.got.cif
#   From: 2010.05.17/outbox.cif.g08.bks.cpg/sg53_11_cif.got.tgz:20453.got - 2010.06.03 12:45:16.
