data_PCOD9414814
_publ_section_title
;
Structure prediction by ZEFSAII (Michael W. Deem and Ramdas Pophale) SiO2 
 PCOD9414814
Probable space group: P M N A
;
_chemical_formula_sum "Si O2"
_cell_formula_units_Z 48
_cell_length_a 10.291226
_cell_length_b 14.688883
_cell_length_c 15.023456
_cell_angle_alpha 90.000000
_cell_angle_beta 90.000000
_cell_angle_gamma 90.000000
_cell_volume 2271.044984
_symmetry_space_group_name_H-M "P M N A"
_symmetry_group_IT_number 53
_symmetry_cell_setting 'orthorhombic'
loop_
_space_group_symop_operation_xyz
x,y,z
1/2-x,-y,1/2+z
x,-y,-z
1/2-x,y,1/2-z
-x,-y,-z
1/2+x,y,1/2-z
-x,y,z
1/2+x,-y,1/2+z
loop_
_atom_site_type_symbol
_atom_site_label
_atom_site_fract_x
_atom_site_fract_y
_atom_site_fract_z
Si Si1 0.500000 0.043863 0.096761
Si Si2 0.248353 0.837970 0.857875
Si Si3 0.758167 0.745867 0.139843
Si Si4 0.500000 0.148373 0.653095
Si Si5 0.845828 0.446522 0.835604
Si Si6 0.000000 0.954616 0.904274
Si Si7 0.343402 0.648057 0.662408
Si Si8 0.000000 0.162565 0.645003
O O1 0.376560 0.108354 0.112967
O O2 0.500000 0.946908 0.147965
O O3 0.500000 0.000000 0.000000
O O4 0.250000 0.835766 0.750000
O O5 0.218664 0.734256 0.887947
O O6 0.126409 0.896268 0.888211
O O7 0.750000 0.746947 0.250000
O O8 0.871537 0.813120 0.109121
O O9 0.795913 0.643274 0.114040
O O10 0.626463 0.790214 0.104918
O O11 0.500000 0.189589 0.751488
O O12 0.500000 0.041251 0.659576
O O13 0.750000 0.449834 0.750000
O O14 0.837013 0.546723 0.879035
O O15 0.000000 0.335004 0.180940
O O16 0.000000 0.000000 0.000000
O O17 0.250000 0.642224 0.750000
O O18 0.500000 0.432957 0.687490
#
# Coordination Sequence:
#
# PCOD9414814 Si02
#       8
#     4   8   8   4   8   4   8   4
#     4  12  26  42  59  84 118 156 197 246 301 350
#     4  11  22  39  61  86 113 153 194 240 290 344
#     4   9  17  28  47  76 107 144 177 225 279 335
#     4  10  18  32  51  76 105 142 187 226 281 338
#     4   9  16  27  45  77 117 147 174 226 290 338
#     4  12  24  38  57  84 114 148 195 246 295 344
#     4   9  18  31  52  83 116 148 186 234 288 340
#     4  10  20  34  53  76 107 144 191 232 279 338
#
# _framework density 21.135643999999999
#
# number of rings (size 3 to 8) (size 9 to 14) (size 15 to 20)
#    0.000    2.000    1.667    3.000    7.000    1.333 
#    0.000    0.000    0.000    0.000    0.000    7.000 
#    0.000    0.000    0.000    0.000    0.000    0.000 
#
# Total GULP energy -267427.090128 kJ/mol
# GULP energy per Si atom -5571.397711 kJ/mol
# Density = 2.108754 g / cm^3
# Si number density = 21.135644 Si / 1000 Ang^3
#
#
#
# Elastic Constant Matrix: (Units=GPa)
#
#
# Indices 1 2 3 4 5 6 
#
# 1 206.9195 102.5159 5.4116 0.0000 0.0000 0.0000
# 2 102.5159 201.2234 -1.5930 0.0000 0.0000 0.0000
# 3 5.4116 -1.5930 35.6546 0.0000 0.0000 0.0000
# 4 0.0000 0.0000 0.0000 5.4926 0.0000 0.0000
# 5 0.0000 0.0000 0.0000 0.0000 13.9015 0.0000
# 6 0.0000 0.0000 0.0000 0.0000 0.0000 36.5111
#
#
#
# Elastic Compliance Matrix: (Units=1/GPa)
#
#
# Indices 1 2 3 4 5 6 
#
# 1 0.006510 -0.003326 -0.001137 0.000000 0.000000 0.000000
# 2 -0.003326 0.006670 0.000803 0.000000 0.000000 0.000000
# 3 -0.001137 0.000803 0.028255 0.000000 0.000000 0.000000
# 4 0.000000 0.000000 0.000000 0.182064 0.000000 0.000000
# 5 0.000000 0.000000 0.000000 0.000000 0.071935 0.000000
# 6 0.000000 0.000000 0.000000 0.000000 0.000000 0.027389
#
#
# Mechanical properties :
#
#
# Convention : Reuss Voigt Hill
#
# Bulk Modulus (GPa) = 29.31129 72.94071 51.12600
# Shear Modulus (GPa) = 14.64064 33.67857 24.15960
#
# Velocity S-wave (km/s) = 2.63477 3.99613 3.38461
# Velocity P-wave (km/s) = 4.81189 7.47514 6.28618
#
# Compressibility (1/GPa) = 0.03411654
#
# Stress axis : x y z
#
# Youngs Moduli (GPa) = 153.60494 149.91869 35.39160
#
# Poissons Ratio (x) = 0.49859 0.04023
# Poissons Ratio (y) = 0.51085 -0.02841
# Poissons Ratio (z) = 0.17460 -0.12035
#
# Static dielectric constant tensor:
#      x y z
#    x 1.342170 0.000000 0.000000 
#    y 0.000000 1.747750 0.000000 
#    z 0.000000 0.000000 1.668490 
# 
# From -- ./inp_files/26375.got.cif
#   From: 2010.05.17/outbox.cif.g08.bks.cpg/sg53_14_cif.got.tgz:26375.got - 2010.06.03 12:45:16.
