data_PCOD9414115
_publ_section_title
;
Structure prediction by ZEFSAII (Michael W. Deem and Ramdas Pophale) SiO2 
 PCOD9414115
Probable space group: P M N A
;
_chemical_formula_sum "Si O2"
_cell_formula_units_Z 32
_cell_length_a 14.644430
_cell_length_b 11.780291
_cell_length_c 7.809714
_cell_angle_alpha 90.000000
_cell_angle_beta 90.000000
_cell_angle_gamma 90.000000
_cell_volume 1347.297863
_symmetry_space_group_name_H-M "P M N A"
_symmetry_group_IT_number 53
_symmetry_cell_setting 'orthorhombic'
loop_
_space_group_symop_operation_xyz
x,y,z
1/2-x,-y,1/2+z
x,-y,-z
1/2-x,y,1/2-z
-x,-y,-z
1/2+x,y,1/2-z
-x,y,z
1/2+x,-y,1/2+z
loop_
_atom_site_type_symbol
_atom_site_label
_atom_site_fract_x
_atom_site_fract_y
_atom_site_fract_z
Si Si1 0.295634 0.366067 0.007977
Si Si2 0.602681 0.831601 0.140994
Si Si3 0.103686 0.697721 0.864899
Si Si4 0.142126 0.926165 0.738804
O O1 0.353575 0.332087 0.178188
O O2 0.186769 0.345429 0.019216
O O3 0.310183 0.500000 0.000000
O O4 0.335386 0.279712 0.867371
O O5 0.500000 0.795254 0.176476
O O6 0.625880 0.940033 0.258248
O O7 0.609015 0.886508 0.949408
O O8 0.100800 0.834953 0.868089
O O9 0.000000 0.654996 0.887932
O O10 0.250000 0.908453 0.750000
#
# Coordination Sequence:
#
# PCOD9414115 Si02
#       4
#     8   8   8   8
#     4  10  20  36  55  80 109 147 180 223 263 319
#     4  10  19  32  55  83 105 137 182 223 265 319
#     4  10  19  35  58  81 104 140 182 222 274 324
#     4  10  16  31  54  81 105 136 170 223 274 317
#
# _framework density 23.751242000000001
#
# number of rings (size 3 to 8) (size 9 to 14) (size 15 to 20)
#    0.000    2.000    5.000    5.250    0.000    2.500 
#    4.500    0.000    0.000    6.000    0.000    0.000 
#    0.000    0.000    0.000    0.000    0.000    0.000 
#
# Total GULP energy -178588.828252 kJ/mol
# GULP energy per Si atom -5580.900883 kJ/mol
# Density = 2.369718 g / cm^3
# Si number density = 23.751242 Si / 1000 Ang^3
#
#
#
# Elastic Constant Matrix: (Units=GPa)
#
#
# Indices 1 2 3 4 5 6 
#
# 1 224.1710 55.9126 -1.0954 0.0000 0.0000 0.0000
# 2 55.9126 220.7718 24.7334 0.0000 0.0000 0.0000
# 3 -1.0954 24.7334 41.3657 0.0000 0.0000 0.0000
# 4 0.0000 0.0000 0.0000 4.1317 0.0000 0.0000
# 5 0.0000 0.0000 0.0000 0.0000 -266.0049 0.0000
# 6 0.0000 0.0000 0.0000 0.0000 0.0000 -4.7399
#
#
#
# Elastic Compliance Matrix: (Units=1/GPa)
#
#
# Indices 1 2 3 4 5 6 
#
# 1 0.004794 -0.001316 0.000914 0.000000 0.000000 0.000000
# 2 -0.001316 0.005216 -0.003154 0.000000 0.000000 0.000000
# 3 0.000914 -0.003154 0.026085 0.000000 0.000000 0.000000
# 4 0.000000 0.000000 0.000000 0.242029 0.000000 0.000000
# 5 0.000000 0.000000 0.000000 0.000000 -0.003759 0.000000
# 6 0.000000 0.000000 0.000000 0.000000 0.000000 -0.210973
#
#
# Mechanical properties :
#
#
# Convention : Reuss Voigt Hill
#
# Bulk Modulus (GPa) = 34.50397 71.71219 53.10808
# Shear Modulus (GPa) = 62.37240 -26.20542 18.08349
#
# Velocity S-wave (km/s) = 5.13008 -3.32524 2.76229
# Velocity P-wave (km/s) = 7.04621 3.93898 5.70809
#
# Compressibility (1/GPa) = 0.02898217
#
# Stress axis : x y z
#
# Youngs Moduli (GPa) = 208.60731 191.70699 38.33692
#
# Poissons Ratio (x) = 0.25237 -0.03504
# Poissons Ratio (y) = 0.27462 0.12091
# Poissons Ratio (z) = -0.19068 0.60460
#
# Static dielectric constant tensor:
#      x y z
#    x 1.865170 0.000000 0.000000 
#    y 0.000000 1.944090 0.000000 
#    z 0.000000 0.000000 2.059670 
# 
# From -- ./inp_files/8017.got.cif
#   From: 2010.05.17/outbox.cif.g08.bks.cpg/sg53_5_cif.got.tgz:8017.got - 2010.06.03 12:45:16.
