data_PCOD9414666
_publ_section_title
;
Structure prediction by ZEFSAII (Michael W. Deem and Ramdas Pophale) SiO2 
 PCOD9414666
Probable space group: P M N A
;
_chemical_formula_sum "Si O2"
_cell_formula_units_Z 40
_cell_length_a 17.283523
_cell_length_b 13.356731
_cell_length_c 8.576274
_cell_angle_alpha 90.000000
_cell_angle_beta 90.000000
_cell_angle_gamma 90.000000
_cell_volume 1979.844580
_symmetry_space_group_name_H-M "P M N A"
_symmetry_group_IT_number 53
_symmetry_cell_setting 'orthorhombic'
loop_
_space_group_symop_operation_xyz
x,y,z
1/2-x,-y,1/2+z
x,-y,-z
1/2-x,y,1/2-z
-x,-y,-z
1/2+x,y,1/2-z
-x,y,z
1/2+x,-y,1/2+z
loop_
_atom_site_type_symbol
_atom_site_label
_atom_site_fract_x
_atom_site_fract_y
_atom_site_fract_z
Si Si1 0.337980 0.589257 0.199919
Si Si2 0.589748 0.206852 0.793080
Si Si3 0.408174 0.168463 0.157338
Si Si4 0.669028 0.980191 0.320918
Si Si5 0.908046 0.390014 0.354361
O O1 0.250000 0.572856 0.250000
O O2 0.364979 0.695939 0.266234
O O3 0.385195 0.488535 0.241720
O O4 0.358383 0.603822 0.014960
O O5 0.500000 0.233708 0.792182
O O6 0.607320 0.108013 0.696994
O O7 0.608934 0.177283 0.972449
O O8 0.500000 0.147101 0.174400
O O9 0.359868 0.080393 0.234793
O O10 0.393227 0.281184 0.220086
O O11 0.750000 0.944811 0.250000
O O12 0.681861 0.000000 0.500000
O O13 0.000000 0.393042 0.393474
#
# Coordination Sequence:
#
# PCOD9414666 Si02
#       5
#     8   8   8   8   8
#     4  10  18  30  54  86 115 144 188 237 280 327
#     4  10  20  37  60  84 114 151 189 228 279 346
#     4   9  19  37  62  86 110 147 191 231 276 340
#     4  12  25  39  57  81 113 148 187 238 290 338
#     4   9  18  36  59  82 112 153 195 229 278 350
#
# _framework density 20.203603999999999
#
# number of rings (size 3 to 8) (size 9 to 14) (size 15 to 20)
#    0.000    2.000    0.000    6.600    0.000    5.600 
#    0.000    4.000    0.000    0.000    0.000   23.800 
#    0.000    0.000    0.000    0.000    0.000    0.000 
#
# Total GULP energy -223141.600892 kJ/mol
# GULP energy per Si atom -5578.540022 kJ/mol
# Density = 2.015762 g / cm^3
# Si number density = 20.203604 Si / 1000 Ang^3
#
#
#
# Elastic Constant Matrix: (Units=GPa)
#
#
# Indices 1 2 3 4 5 6 
#
# 1 75.5237 10.7198 9.7761 0.0000 0.0000 0.0000
# 2 10.7198 77.0808 -9.5669 0.0000 0.0000 0.0000
# 3 9.7761 -9.5669 20.1612 0.0000 0.0000 0.0000
# 4 0.0000 0.0000 0.0000 -1.9938 0.0000 0.0000
# 5 0.0000 0.0000 0.0000 0.0000 21.6422 0.0000
# 6 0.0000 0.0000 0.0000 0.0000 0.0000 24.7584
#
#
#
# Elastic Compliance Matrix: (Units=1/GPa)
#
#
# Indices 1 2 3 4 5 6 
#
# 1 0.014808 -0.003135 -0.008668 0.000000 0.000000 0.000000
# 2 -0.003135 0.014449 0.008377 0.000000 0.000000 0.000000
# 3 -0.008668 0.008377 0.057778 0.000000 0.000000 0.000000
# 4 0.000000 0.000000 0.000000 -0.501557 0.000000 0.000000
# 5 0.000000 0.000000 0.000000 0.000000 0.046206 0.000000
# 6 0.000000 0.000000 0.000000 0.000000 0.000000 0.040390
#
#
# Mechanical properties :
#
#
# Convention : Reuss Voigt Hill
#
# Bulk Modulus (GPa) = 12.47160 21.62484 17.04822
# Shear Modulus (GPa) = -16.98688 19.67048 1.34180
#
# Velocity S-wave (km/s) = -2.90277 3.12366 0.81583
# Velocity P-wave (km/s) = 2.24687 4.87200 3.05679
#
# Compressibility (1/GPa) = 0.08018218
#
# Stress axis : x y z
#
# Youngs Moduli (GPa) = 67.53142 69.20844 17.30752
#
# Poissons Ratio (x) = 0.21698 0.15002
# Poissons Ratio (y) = 0.21173 -0.14498
# Poissons Ratio (z) = 0.58537 -0.57974
#
# Static dielectric constant tensor:
#      x y z
#    x 1.680300 0.000000 0.000000 
#    y 0.000000 1.762990 0.000000 
#    z 0.000000 0.000000 1.711740 
# 
# From -- ./inp_files/8364.got.cif
#   From: 2010.05.17/outbox.cif.g08.bks.cpg/sg53_5_cif.got.tgz:8364.got - 2010.06.03 12:45:16.
