data_PCOD9414871
_publ_section_title
;
Structure prediction by ZEFSAII (Michael W. Deem and Ramdas Pophale) SiO2 
 PCOD9414871
Probable space group: P M N A
;
_chemical_formula_sum "Si O2"
_cell_formula_units_Z 40
_cell_length_a 19.706083
_cell_length_b 7.368392
_cell_length_c 13.307051
_cell_angle_alpha 90.000000
_cell_angle_beta 90.000000
_cell_angle_gamma 90.000000
_cell_volume 1932.212340
_symmetry_space_group_name_H-M "P M N A"
_symmetry_group_IT_number 53
_symmetry_cell_setting 'orthorhombic'
loop_
_space_group_symop_operation_xyz
x,y,z
1/2-x,-y,1/2+z
x,-y,-z
1/2-x,y,1/2-z
-x,-y,-z
1/2+x,y,1/2-z
-x,y,z
1/2+x,-y,1/2+z
loop_
_atom_site_type_symbol
_atom_site_label
_atom_site_fract_x
_atom_site_fract_y
_atom_site_fract_z
Si Si1 0.579592 0.194274 0.629272
Si Si2 0.179408 0.166636 0.699285
Si Si3 0.826011 0.270104 0.279213
Si Si4 0.865883 0.790202 0.922622
Si Si5 0.280927 0.699512 0.983031
O O1 0.500000 0.209663 0.644025
O O2 0.620664 0.245580 0.729581
O O3 0.602334 0.286037 0.524559
O O4 0.600440 0.984173 0.604268
O O5 0.250000 0.222444 0.750000
O O6 0.185563 0.220647 0.582958
O O7 0.173879 0.948890 0.709906
O O8 0.750000 0.331022 0.250000
O O9 0.870681 0.318122 0.182447
O O10 0.835185 0.329860 0.393429
O O11 0.784801 0.813526 0.945561
O O12 0.251275 0.500000 0.000000
#
# Coordination Sequence:
#
# PCOD9414871 Si02
#       5
#     8   8   8   8   8
#     4  10  19  33  60  88 110 140 179 231 283 329
#     4  10  18  32  55  81 111 140 184 232 274 325
#     4   8  17  29  49  74 106 141 172 226 276 309
#     4   9  17  32  50  80 112 138 178 222 275 328
#     4  11  21  31  50  82 116 148 185 228 274 322
#
# _framework density 20.701657999999998
#
# number of rings (size 3 to 8) (size 9 to 14) (size 15 to 20)
#    0.000    2.400    2.000    3.000    5.600    2.400 
#    0.000    0.000    0.000   13.800    0.000    0.000 
#    0.000    0.000    0.000    0.000    0.000    0.000 
#
# Total GULP energy -222836.284057 kJ/mol
# GULP energy per Si atom -5570.907101 kJ/mol
# Density = 2.065454 g / cm^3
# Si number density = 20.701658 Si / 1000 Ang^3
#
#
#
# Elastic Constant Matrix: (Units=GPa)
#
#
# Indices 1 2 3 4 5 6 
#
# 1 99.2388 -0.4966 62.2018 0.0000 0.0000 0.0000
# 2 -0.4966 42.4008 -9.6666 0.0000 0.0000 0.0000
# 3 62.2018 -9.6666 195.2884 0.0000 0.0000 0.0000
# 4 0.0000 0.0000 0.0000 -5.1465 0.0000 0.0000
# 5 0.0000 0.0000 0.0000 0.0000 19.7852 0.0000
# 6 0.0000 0.0000 0.0000 0.0000 0.0000 1.0084
#
#
#
# Elastic Compliance Matrix: (Units=1/GPa)
#
#
# Indices 1 2 3 4 5 6 
#
# 1 0.012615 -0.000777 -0.004057 0.000000 0.000000 0.000000
# 2 -0.000777 0.023902 0.001431 0.000000 0.000000 0.000000
# 3 -0.004057 0.001431 0.006484 0.000000 0.000000 0.000000
# 4 0.000000 0.000000 0.000000 -0.194306 0.000000 0.000000
# 5 0.000000 0.000000 0.000000 0.000000 0.050543 0.000000
# 6 0.000000 0.000000 0.000000 0.000000 0.000000 0.991641
#
#
# Mechanical properties :
#
#
# Convention : Reuss Voigt Hill
#
# Bulk Modulus (GPa) = 27.62864 49.00055 38.31459
# Shear Modulus (GPa) = 5.49602 22.12205 13.80903
#
# Velocity S-wave (km/s) = 1.63114 3.27251 2.58553
# Velocity P-wave (km/s) = 4.11371 6.16444 5.24037
#
# Compressibility (1/GPa) = 0.03619433
#
# Stress axis : x y z
#
# Youngs Moduli (GPa) = 79.26770 41.83831 154.23669
#
# Poissons Ratio (x) = 0.03251 0.62568
# Poissons Ratio (y) = 0.06160 -0.22065
# Poissons Ratio (z) = 0.32156 -0.05985
#
# Static dielectric constant tensor:
#      x y z
#    x 1.690030 0.000000 0.000000 
#    y 0.000000 1.808590 0.000000 
#    z 0.000000 0.000000 1.876080 
# 
# From -- ./inp_files/17629.got.cif
#   From: 2010.05.17/outbox.cif.g08.bks.cpg/sg53_9_cif.got.tgz:17629.got - 2010.06.03 12:45:16.
