data_PCOD9414433
_publ_section_title
;
Structure prediction by ZEFSAII (Michael W. Deem and Ramdas Pophale) SiO2 
 PCOD9414433
Probable space group: P M N A
;
_chemical_formula_sum "Si O2"
_cell_formula_units_Z 56
_cell_length_a 9.612137
_cell_length_b 15.143411
_cell_length_c 19.918942
_cell_angle_alpha 90.000000
_cell_angle_beta 90.000000
_cell_angle_gamma 90.000000
_cell_volume 2899.411977
_symmetry_space_group_name_H-M "P M N A"
_symmetry_group_IT_number 53
_symmetry_cell_setting 'orthorhombic'
loop_
_space_group_symop_operation_xyz
x,y,z
1/2-x,-y,1/2+z
x,-y,-z
1/2-x,y,1/2-z
-x,-y,-z
1/2+x,y,1/2-z
-x,y,z
1/2+x,-y,1/2+z
loop_
_atom_site_type_symbol
_atom_site_label
_atom_site_fract_x
_atom_site_fract_y
_atom_site_fract_z
Si Si1 0.839481 0.412505 0.456186
Si Si2 0.336417 0.007715 0.682826
Si Si3 0.155761 0.556124 0.690777
Si Si4 0.345122 0.765904 0.809389
Si Si5 0.164526 0.147049 0.082700
Si Si6 0.665119 0.216923 0.683057
Si Si7 0.833979 0.734441 0.035084
O O1 0.846134 0.500000 0.500000
O O2 0.782858 0.444251 0.383924
O O3 0.749230 0.339741 0.494264
O O4 0.000000 0.380265 0.444895
O O5 0.250000 0.987394 0.750000
O O6 0.500000 0.993929 0.696722
O O7 0.315697 0.111819 0.670476
O O8 0.302617 0.947042 0.617752
O O9 0.250000 0.518521 0.750000
O O10 0.142549 0.661511 0.702652
O O11 0.000000 0.517664 0.690709
O O12 0.250000 0.801758 0.750000
O O13 0.500000 0.803853 0.810535
O O14 0.261310 0.785517 0.876555
O O15 0.000000 0.163316 0.095698
O O16 0.186477 0.172021 0.004723
O O17 0.750000 0.241301 0.750000
O O18 0.500000 0.231994 0.693522
O O19 0.708291 0.262119 0.613029
O O20 0.000000 0.716956 0.032761
#
# Coordination Sequence:
#
# PCOD9414433 Si02
#       7
#     8   8   8   8   8   8   8
#     4  10  21  39  60  82 110 143 179 220 273 330
#     4   9  18  32  50  74 107 145 185 222 262 308
#     4   9  18  32  51  76 103 137 174 210 255 312
#     4  10  18  28  44  68 101 139 176 210 247 300
#     4  10  19  30  47  75 108 141 175 216 264 314
#     4   9  19  37  58  79 104 140 184 229 270 316
#     4  10  21  36  56  82 109 137 177 223 273 325
#
# _framework density 19.314261999999999
#
# number of rings (size 3 to 8) (size 9 to 14) (size 15 to 20)
#    0.000    2.429    1.429    0.857    0.000    4.286 
#    0.000    3.571    0.000    3.429    0.000    6.000 
#    0.000    0.000    0.000    0.000    0.000    0.000 
#
# Total GULP energy -311926.890177 kJ/mol
# GULP energy per Si atom -5570.123039 kJ/mol
# Density = 1.927030 g / cm^3
# Si number density = 19.314262 Si / 1000 Ang^3
#
#
#
# Elastic Constant Matrix: (Units=GPa)
#
#
# Indices 1 2 3 4 5 6 
#
# 1 47.5229 9.8298 60.9117 0.0000 0.0000 0.0000
# 2 9.8298 19.2102 26.0235 0.0000 0.0000 0.0000
# 3 60.9117 26.0235 174.9558 0.0000 0.0000 0.0000
# 4 0.0000 0.0000 0.0000 10.1025 0.0000 0.0000
# 5 0.0000 0.0000 0.0000 0.0000 25.8562 0.0000
# 6 0.0000 0.0000 0.0000 0.0000 0.0000 -5.0305
#
#
#
# Elastic Compliance Matrix: (Units=1/GPa)
#
#
# Indices 1 2 3 4 5 6 
#
# 1 0.038055 -0.001909 -0.012965 0.000000 0.000000 0.000000
# 2 -0.001909 0.065287 -0.009046 0.000000 0.000000 0.000000
# 3 -0.012965 -0.009046 0.011575 0.000000 0.000000 0.000000
# 4 0.000000 0.000000 0.000000 0.098985 0.000000 0.000000
# 5 0.000000 0.000000 0.000000 0.000000 0.038675 0.000000
# 6 0.000000 0.000000 0.000000 0.000000 0.000000 -0.198789
#
#
# Mechanical properties :
#
#
# Convention : Reuss Voigt Hill
#
# Bulk Modulus (GPa) = 14.90837 48.35766 31.63301
# Shear Modulus (GPa) = 40.32592 15.84724 28.08658
#
# Velocity S-wave (km/s) = 4.57429 2.86753 3.81752
# Velocity P-wave (km/s) = 5.96946 6.00461 5.98706
#
# Compressibility (1/GPa) = 0.06707640
#
# Stress axis : x y z
#
# Youngs Moduli (GPa) = 26.27757 15.31689 86.39172
#
# Poissons Ratio (x) = 0.02924 1.12008
# Poissons Ratio (y) = 0.05017 0.78153
# Poissons Ratio (z) = 0.34069 0.13856
#
# Static dielectric constant tensor:
#      x y z
#    x 1.676200 0.000000 0.000000 
#    y 0.000000 1.698440 0.000000 
#    z 0.000000 0.000000 1.704210 
# 
# From -- ./inp_files/30874.got.cif
#   From: 2010.05.17/outbox.cif.g08.bks.cpg/sg53_16_cif.got.tgz:30874.got - 2010.06.03 12:45:16.
