data_PCOD9414853
_publ_section_title
;
Structure prediction by ZEFSAII (Michael W. Deem and Ramdas Pophale) SiO2 
 PCOD9414853
Probable space group: P M N A
;
_chemical_formula_sum "Si O2"
_cell_formula_units_Z 64
_cell_length_a 8.844849
_cell_length_b 20.751733
_cell_length_c 19.850900
_cell_angle_alpha 90.000000
_cell_angle_beta 90.000000
_cell_angle_gamma 90.000000
_cell_volume 3643.552197
_symmetry_space_group_name_H-M "P M N A"
_symmetry_group_IT_number 53
_symmetry_cell_setting 'orthorhombic'
loop_
_space_group_symop_operation_xyz
x,y,z
1/2-x,-y,1/2+z
x,-y,-z
1/2-x,y,1/2-z
-x,-y,-z
1/2+x,y,1/2-z
-x,y,z
1/2+x,-y,1/2+z
loop_
_atom_site_type_symbol
_atom_site_label
_atom_site_fract_x
_atom_site_fract_y
_atom_site_fract_z
Si Si1 0.182818 0.837122 0.073977
Si Si2 0.683416 0.901949 0.675601
Si Si3 0.326360 0.485900 0.080547
Si Si4 0.318843 0.645964 0.552569
Si Si5 0.820606 0.735883 0.322269
Si Si6 0.683594 0.790518 0.575356
Si Si7 0.683904 0.016468 0.575924
Si Si8 0.678842 0.617646 0.394561
O O1 0.257040 0.785968 0.123223
O O2 0.226903 0.910195 0.091728
O O3 0.000000 0.831546 0.078466
O O4 0.225168 0.821285 0.996746
O O5 0.750000 0.904839 0.750000
O O6 0.500000 0.902300 0.678891
O O7 0.731521 0.837344 0.635536
O O8 0.731429 0.963110 0.629949
O O9 0.500000 0.488742 0.102607
O O10 0.258437 0.414761 0.088285
O O11 0.230876 0.543843 0.112315
O O12 0.322751 0.500000 0.000000
O O13 0.500000 0.641116 0.561008
O O14 0.266285 0.716185 0.577097
O O15 0.290044 0.639472 0.472095
O O16 0.750000 0.750666 0.250000
O O17 0.767635 0.665308 0.346030
O O18 0.000000 0.739156 0.319227
O O19 0.500000 0.789250 0.576285
O O20 0.500000 0.014578 0.574553
O O21 0.734509 0.000000 0.500000
O O22 0.500000 0.623940 0.383517
#
# Coordination Sequence:
#
# PCOD9414853 Si02
#       8
#     8   8   8   8   8   8   8   8
#     4  10  18  34  58  83 106 137 185 235 277 328
#     4  10  20  35  55  82 112 145 182 224 273 329
#     4   9  17  28  44  73 110 141 171 216 269 322
#     4   9  16  28  49  77 103 135 179 227 272 321
#     4  12  25  39  54  76 109 148 187 228 279 337
#     4   9  16  30  55  80 106 141 184 227 273 329
#     4   9  16  30  58  86 107 140 188 230 268 323
#     4  10  18  32  54  77 104 138 179 227 276 326
#
# _framework density 17.565275
#
# number of rings (size 3 to 8) (size 9 to 14) (size 15 to 20)
#    0.000    2.250    2.500    1.875    0.000    2.500 
#    0.000    3.125    0.000    1.500    0.000    3.500 
#    0.000    0.000    0.000    0.000    0.000    0.000 
#
# Total GULP energy -357014.088033 kJ/mol
# GULP energy per Si atom -5578.345126 kJ/mol
# Density = 1.752530 g / cm^3
# Si number density = 17.565275 Si / 1000 Ang^3
#
#
#
# Elastic Constant Matrix: (Units=GPa)
#
#
# Indices 1 2 3 4 5 6 
#
# 1 39.0836 31.6245 30.8115 0.0000 0.0000 0.0000
# 2 31.6245 159.3037 62.1220 0.0000 0.0000 0.0000
# 3 30.8115 62.1220 103.8220 0.0000 0.0000 0.0000
# 4 0.0000 0.0000 0.0000 16.3868 0.0000 0.0000
# 5 0.0000 0.0000 0.0000 0.0000 20.6261 0.0000
# 6 0.0000 0.0000 0.0000 0.0000 0.0000 11.2750
#
#
#
# Elastic Compliance Matrix: (Units=1/GPa)
#
#
# Indices 1 2 3 4 5 6 
#
# 1 0.035069 -0.003787 -0.008142 0.000000 0.000000 0.000000
# 2 -0.003787 0.008597 -0.004020 0.000000 0.000000 0.000000
# 3 -0.008142 -0.004020 0.014453 0.000000 0.000000 0.000000
# 4 0.000000 0.000000 0.000000 0.061025 0.000000 0.000000
# 5 0.000000 0.000000 0.000000 0.000000 0.048482 0.000000
# 6 0.000000 0.000000 0.000000 0.000000 0.000000 0.088692
#
#
# Mechanical properties :
#
#
# Convention : Reuss Voigt Hill
#
# Bulk Modulus (GPa) = 38.13596 61.25838 49.69717
# Shear Modulus (GPa) = 16.83757 21.50100 19.16928
#
# Velocity S-wave (km/s) = 3.09944 3.50246 3.30709
# Velocity P-wave (km/s) = 5.87936 7.16287 6.55261
#
# Compressibility (1/GPa) = 0.02622197
#
# Stress axis : x y z
#
# Youngs Moduli (GPa) = 28.51550 116.32339 69.18769
#
# Poissons Ratio (x) = 0.44050 0.56329
# Poissons Ratio (y) = 0.10798 0.27814
# Poissons Ratio (z) = 0.23216 0.46762
#
# Static dielectric constant tensor:
#      x y z
#    x 1.589550 0.000000 0.000000 
#    y 0.000000 1.607800 0.000000 
#    z 0.000000 0.000000 1.574400 
# 
# From -- ./inp_files/27023.got.cif
#   From: 2010.05.17/outbox.cif.g08.bks.cpg/sg53_14_cif.got.tgz:27023.got - 2010.06.03 12:45:16.
