data_PCOD9414798
_publ_section_title
;
Structure prediction by ZEFSAII (Michael W. Deem and Ramdas Pophale) SiO2 
 PCOD9414798
Probable space group: P M N A
;
_chemical_formula_sum "Si O2"
_cell_formula_units_Z 64
_cell_length_a 8.617535
_cell_length_b 14.962696
_cell_length_c 31.360270
_cell_angle_alpha 90.000000
_cell_angle_beta 90.000000
_cell_angle_gamma 90.000000
_cell_volume 4043.642025
_symmetry_space_group_name_H-M "P M N A"
_symmetry_group_IT_number 53
_symmetry_cell_setting 'orthorhombic'
loop_
_space_group_symop_operation_xyz
x,y,z
1/2-x,-y,1/2+z
x,-y,-z
1/2-x,y,1/2-z
-x,-y,-z
1/2+x,y,1/2-z
-x,y,z
1/2+x,-y,1/2+z
loop_
_atom_site_type_symbol
_atom_site_label
_atom_site_fract_x
_atom_site_fract_y
_atom_site_fract_z
Si Si1 0.318393 0.928815 0.620574
Si Si2 0.682876 0.758618 0.025142
Si Si3 0.319802 0.747802 0.566592
Si Si4 0.815188 0.850347 0.703901
Si Si5 0.188892 0.441849 0.541447
Si Si6 0.312084 0.423794 0.114259
Si Si7 0.313311 0.643510 0.796065
Si Si8 0.187196 0.050365 0.956382
O O1 0.500000 0.947769 0.628340
O O2 0.307520 0.834457 0.596063
O O3 0.237298 0.914044 0.665688
O O4 0.256666 0.000704 0.586432
O O5 0.500000 0.764483 0.033972
O O6 0.741153 0.660898 0.039888
O O7 0.764816 0.846549 0.043092
O O8 0.714352 0.759749 0.974677
O O9 0.500000 0.739050 0.553382
O O10 0.263151 0.661645 0.591811
O O11 0.750000 0.876655 0.750000
O O12 0.762335 0.746917 0.695900
O O13 0.000000 0.848803 0.705718
O O14 0.240221 0.500000 0.500000
O O15 0.231924 0.491808 0.585155
O O16 0.000000 0.440080 0.539092
O O17 0.500000 0.415494 0.112172
O O18 0.266846 0.417907 0.163924
O O19 0.250000 0.616264 0.750000
O O20 0.500000 0.643864 0.794091
O O21 0.000000 0.043451 0.956638
O O22 0.240763 0.000000 0.000000
#
# Coordination Sequence:
#
# PCOD9414798 Si02
#       8
#     8   8   8   8   8   8   8   8
#     4  10  20  33  49  68  96 133 166 196 242 291
#     4  11  21  33  49  70  95 128 168 207 241 282
#     4  11  20  30  46  69  98 131 162 199 241 284
#     4  10  19  31  48  72 100 127 161 198 239 288
#     4   9  17  30  49  69  95 127 159 200 243 282
#     4  10  18  32  49  69  94 129 168 196 233 282
#     4   9  18  29  45  68  95 125 156 192 232 280
#     4  10  20  36  51  68  97 132 164 199 249 294
#
# _framework density 15.827316
#
# number of rings (size 3 to 8) (size 9 to 14) (size 15 to 20)
#    0.000    2.000    3.750    1.125    0.000    2.250 
#    0.000    1.875    0.000    0.000    0.000    0.875 
#    0.000    4.000    0.000    0.000    0.000    0.000 
#
# Total GULP energy -356806.620479 kJ/mol
# GULP energy per Si atom -5575.103445 kJ/mol
# Density = 1.579129 g / cm^3
# Si number density = 15.827316 Si / 1000 Ang^3
#
#
#
# Elastic Constant Matrix: (Units=GPa)
#
#
# Indices 1 2 3 4 5 6 
#
# 1 8.0442 15.0889 21.3670 0.0000 0.0000 0.0000
# 2 15.0889 92.4502 57.3904 0.0000 0.0000 0.0000
# 3 21.3670 57.3904 130.8965 0.0000 0.0000 0.0000
# 4 0.0000 0.0000 0.0000 20.6522 0.0000 0.0000
# 5 0.0000 0.0000 0.0000 0.0000 21.8862 0.0000
# 6 0.0000 0.0000 0.0000 0.0000 0.0000 11.1862
#
#
#
# Elastic Compliance Matrix: (Units=1/GPa)
#
#
# Indices 1 2 3 4 5 6 
#
# 1 0.245702 -0.020889 -0.030949 0.000000 0.000000 0.000000
# 2 -0.020889 0.016638 -0.003885 0.000000 0.000000 0.000000
# 3 -0.030949 -0.003885 0.014395 0.000000 0.000000 0.000000
# 4 0.000000 0.000000 0.000000 0.048421 0.000000 0.000000
# 5 0.000000 0.000000 0.000000 0.000000 0.045691 0.000000
# 6 0.000000 0.000000 0.000000 0.000000 0.000000 0.089396
#
#
# Mechanical properties :
#
#
# Convention : Reuss Voigt Hill
#
# Bulk Modulus (GPa) = 6.05000 46.56485 26.30743
# Shear Modulus (GPa) = 7.97723 19.91456 13.94589
#
# Velocity S-wave (km/s) = 2.24747 3.55102 2.97160
# Velocity P-wave (km/s) = 3.25048 6.80422 5.33212
#
# Compressibility (1/GPa) = 0.16528914
#
# Stress axis : x y z
#
# Youngs Moduli (GPa) = 4.06996 60.10512 69.46961
#
# Poissons Ratio (x) = 1.25556 2.15000
# Poissons Ratio (y) = 0.08502 0.26987
# Poissons Ratio (z) = 0.12596 0.23349
#
# Static dielectric constant tensor:
#      x y z
#    x 1.539530 0.000000 0.000000 
#    y 0.000000 1.528430 0.000000 
#    z 0.000000 0.000000 1.530500 
# 
# From -- ./inp_files/38495.got.cif
#   From: 2010.05.17/outbox.cif.g08.bks.cpg/sg53_20_cif.got.tgz:38495.got - 2010.06.03 12:45:16.
