data_PCOD9414807
_publ_section_title
;
Structure prediction by ZEFSAII (Michael W. Deem and Ramdas Pophale) SiO2 
 PCOD9414807
Probable space group: P M N A
;
_chemical_formula_sum "Si O2"
_cell_formula_units_Z 40
_cell_length_a 14.941378
_cell_length_b 5.089048
_cell_length_c 26.113326
_cell_angle_alpha 90.000000
_cell_angle_beta 90.000000
_cell_angle_gamma 90.000000
_cell_volume 1985.589149
_symmetry_space_group_name_H-M "P M N A"
_symmetry_group_IT_number 53
_symmetry_cell_setting 'orthorhombic'
loop_
_space_group_symop_operation_xyz
x,y,z
1/2-x,-y,1/2+z
x,-y,-z
1/2-x,y,1/2-z
-x,-y,-z
1/2+x,y,1/2-z
-x,y,z
1/2+x,-y,1/2+z
loop_
_atom_site_type_symbol
_atom_site_label
_atom_site_fract_x
_atom_site_fract_y
_atom_site_fract_z
Si Si1 0.841117 0.939713 0.717683
Si Si2 0.096714 0.255048 0.809682
Si Si3 0.785226 0.557489 0.945354
Si Si4 0.288171 0.443195 0.836201
Si Si5 0.398169 0.940384 0.422342
O O1 0.750000 0.928329 0.750000
O O2 0.904067 0.073479 0.759592
O O3 0.826232 0.153598 0.673135
O O4 0.849790 0.654268 0.692976
O O5 0.186414 0.433635 0.812015
O O6 0.000000 0.395421 0.813829
O O7 0.105495 0.075754 0.860466
O O8 0.724678 0.513037 0.895409
O O9 0.829877 0.842298 0.941954
O O10 0.865360 0.344562 0.940433
O O11 0.741000 0.500000 0.000000
O O12 0.500000 0.995536 0.437432
#
# Coordination Sequence:
#
# PCOD9414807 Si02
#       5
#     8   8   8   8   8
#     4  10  18  32  51  69  96 131 160 191 245 299
#     4   9  19  34  53  77 103 133 168 203 242 295
#     4  11  21  33  48  65  89 124 167 207 237 276
#     4  10  20  34  48  69  98 130 162 199 245 289
#     4  10  21  33  45  66  96 126 158 197 239 281
#
# _framework density 20.145156
#
# number of rings (size 3 to 8) (size 9 to 14) (size 15 to 20)
#    0.000    2.000    0.000    6.600    0.000    4.800 
#    0.000   13.000    0.000    0.000    0.000    0.000 
#    0.000    4.800    0.000    0.000    0.000    0.000 
#
# Total GULP energy -223234.172487 kJ/mol
# GULP energy per Si atom -5580.854312 kJ/mol
# Density = 2.009930 g / cm^3
# Si number density = 20.145156 Si / 1000 Ang^3
#
#
#
# Elastic Constant Matrix: (Units=GPa)
#
#
# Indices 1 2 3 4 5 6 
#
# 1 24.2845 -0.7810 11.8050 0.0000 0.0000 0.0000
# 2 -0.7810 83.6059 7.2452 0.0000 0.0000 0.0000
# 3 11.8050 7.2452 112.8182 0.0000 0.0000 0.0000
# 4 0.0000 0.0000 0.0000 21.6627 0.0000 0.0000
# 5 0.0000 0.0000 0.0000 0.0000 3.1995 0.0000
# 6 0.0000 0.0000 0.0000 0.0000 0.0000 11.0879
#
#
#
# Elastic Compliance Matrix: (Units=1/GPa)
#
#
# Indices 1 2 3 4 5 6 
#
# 1 0.043439 0.000804 -0.004597 0.000000 0.000000 0.000000
# 2 0.000804 0.012043 -0.000858 0.000000 0.000000 0.000000
# 3 -0.004597 -0.000858 0.009400 0.000000 0.000000 0.000000
# 4 0.000000 0.000000 0.000000 0.046162 0.000000 0.000000
# 5 0.000000 0.000000 0.000000 0.000000 0.312552 0.000000
# 6 0.000000 0.000000 0.000000 0.000000 0.000000 0.090188
#
#
# Mechanical properties :
#
#
# Convention : Reuss Voigt Hill
#
# Bulk Modulus (GPa) = 17.99177 28.58297 23.28737
# Shear Modulus (GPa) = 9.23170 20.68598 14.95884
#
# Velocity S-wave (km/s) = 2.14302 3.20792 2.72794
# Velocity P-wave (km/s) = 3.88250 5.28586 4.63757
#
# Compressibility (1/GPa) = 0.05558097
#
# Stress axis : x y z
#
# Youngs Moduli (GPa) = 23.02077 83.03779 106.38409
#
# Poissons Ratio (x) = -0.06678 0.48904
# Poissons Ratio (y) = -0.01851 0.09123
# Poissons Ratio (z) = 0.10583 0.07121
#
# Static dielectric constant tensor:
#      x y z
#    x 1.740320 0.000000 0.000000 
#    y 0.000000 1.715270 0.000000 
#    z 0.000000 0.000000 1.777960 
# 
# From -- ./inp_files/38779.got.cif
#   From: 2010.05.17/outbox.cif.g08.bks.cpg/sg53_20_cif.got.tgz:38779.got - 2010.06.03 12:45:16.
