data_PCOD9414650
_publ_section_title
;
Structure prediction by ZEFSAII (Michael W. Deem and Ramdas Pophale) SiO2 
 PCOD9414650
Probable space group: P M N A
;
_chemical_formula_sum "Si O2"
_cell_formula_units_Z 48
_cell_length_a 9.181023
_cell_length_b 17.489675
_cell_length_c 15.718098
_cell_angle_alpha 90.000000
_cell_angle_beta 90.000000
_cell_angle_gamma 90.000000
_cell_volume 2523.903855
_symmetry_space_group_name_H-M "P M N A"
_symmetry_group_IT_number 53
_symmetry_cell_setting 'orthorhombic'
loop_
_space_group_symop_operation_xyz
x,y,z
1/2-x,-y,1/2+z
x,-y,-z
1/2-x,y,1/2-z
-x,-y,-z
1/2+x,y,1/2-z
-x,y,z
1/2+x,-y,1/2+z
loop_
_atom_site_type_symbol
_atom_site_label
_atom_site_fract_x
_atom_site_fract_y
_atom_site_fract_z
Si Si1 0.667929 0.004986 0.896094
Si Si2 0.674885 0.838691 0.909818
Si Si3 0.326611 0.673647 0.837193
Si Si4 0.326901 0.590576 0.507015
Si Si5 0.825825 0.679619 0.164544
Si Si6 0.173938 0.156738 0.906589
O O1 0.500000 0.018273 0.871930
O O2 0.715526 0.920221 0.868140
O O3 0.764011 0.077195 0.870730
O O4 0.672990 0.000000 0.000000
O O5 0.500000 0.842481 0.925996
O O6 0.704632 0.763335 0.855701
O O7 0.756874 0.832260 0.999753
O O8 0.250000 0.650402 0.750000
O O9 0.500000 0.664108 0.831733
O O10 0.262140 0.626524 0.915798
O O11 0.305129 0.500000 0.500000
O O12 0.500000 0.604970 0.520472
O O13 0.284738 0.631520 0.418849
O O14 0.750000 0.652065 0.250000
O O15 0.786933 0.768226 0.147025
O O16 0.000000 0.674722 0.173790
O O17 0.000000 0.152738 0.913914
#
# Coordination Sequence:
#
# PCOD9414650 Si02
#       6
#     8   8   8   8   8   8
#     4   8  15  28  47  74 109 148 192 235 284 339
#     4   9  18  33  53  78 110 153 196 236 284 342
#     4  11  23  39  62  90 121 157 198 241 291 349
#     4  10  22  43  67  90 119 152 188 238 297 352
#     4  10  22  38  58  86 117 152 191 235 285 344
#     4  10  18  30  51  80 112 146 192 242 289 337
#
# _framework density 19.018159000000001
#
# number of rings (size 3 to 8) (size 9 to 14) (size 15 to 20)
#    0.000    2.333    1.667    2.000    0.000    6.667 
#    0.000    2.500    0.000    4.000    0.000    0.000 
#    0.000    0.000    0.000    0.000    0.000    0.000 
#
# Total GULP energy -267942.180327 kJ/mol
# GULP energy per Si atom -5582.128757 kJ/mol
# Density = 1.897487 g / cm^3
# Si number density = 19.018159 Si / 1000 Ang^3
#
#
#
# Elastic Constant Matrix: (Units=GPa)
#
#
# Indices 1 2 3 4 5 6 
#
# 1 45.0890 51.1923 53.4718 0.0000 0.0000 0.0000
# 2 51.1923 105.8852 60.3528 0.0000 0.0000 0.0000
# 3 53.4718 60.3528 123.5257 0.0000 0.0000 0.0000
# 4 0.0000 0.0000 0.0000 -5.7299 0.0000 0.0000
# 5 0.0000 0.0000 0.0000 0.0000 23.1400 0.0000
# 6 0.0000 0.0000 0.0000 0.0000 0.0000 45.9767
#
#
#
# Elastic Compliance Matrix: (Units=1/GPa)
#
#
# Indices 1 2 3 4 5 6 
#
# 1 0.072899 -0.023919 -0.019870 0.000000 0.000000 0.000000
# 2 -0.023919 0.020937 0.000124 0.000000 0.000000 0.000000
# 3 -0.019870 0.000124 0.016636 0.000000 0.000000 0.000000
# 4 0.000000 0.000000 0.000000 -0.174522 0.000000 0.000000
# 5 0.000000 0.000000 0.000000 0.000000 0.043215 0.000000
# 6 0.000000 0.000000 0.000000 0.000000 0.000000 0.021750
#
#
# Mechanical properties :
#
#
# Convention : Reuss Voigt Hill
#
# Bulk Modulus (GPa) = 43.20914 67.17041 55.18977
# Shear Modulus (GPa) = 52.10446 19.97621 36.04034
#
# Velocity S-wave (km/s) = 5.23991 3.24447 4.35794
# Velocity P-wave (km/s) = 7.70572 7.03073 7.37595
#
# Compressibility (1/GPa) = 0.02314325
#
# Stress axis : x y z
#
# Youngs Moduli (GPa) = 13.71752 47.76126 60.11006
#
# Poissons Ratio (x) = 1.14240 1.19440
# Poissons Ratio (y) = 0.32811 -0.00747
# Poissons Ratio (z) = 0.27257 -0.00594
#
# Static dielectric constant tensor:
#      x y z
#    x 1.632200 0.000000 0.000000 
#    y 0.000000 1.680900 0.000000 
#    z 0.000000 0.000000 1.644850 
# 
# From -- ./inp_files/20245.got.cif
#   From: 2010.05.17/outbox.cif.g08.bks.cpg/sg53_11_cif.got.tgz:20245.got - 2010.06.03 12:45:16.
