data_PCOD9414131
_publ_section_title
;
Structure prediction by ZEFSAII (Michael W. Deem and Ramdas Pophale) SiO2 
 PCOD9414131
Probable space group: P M N A
;
_chemical_formula_sum "Si O2"
_cell_formula_units_Z 56
_cell_length_a 9.162092
_cell_length_b 18.435508
_cell_length_c 20.153871
_cell_angle_alpha 90.000000
_cell_angle_beta 90.000000
_cell_angle_gamma 90.000000
_cell_volume 3404.146422
_symmetry_space_group_name_H-M "P M N A"
_symmetry_group_IT_number 53
_symmetry_cell_setting 'orthorhombic'
loop_
_space_group_symop_operation_xyz
x,y,z
1/2-x,-y,1/2+z
x,-y,-z
1/2-x,y,1/2-z
-x,-y,-z
1/2+x,y,1/2-z
-x,y,z
1/2+x,-y,1/2+z
loop_
_atom_site_type_symbol
_atom_site_label
_atom_site_fract_x
_atom_site_fract_y
_atom_site_fract_z
Si Si1 0.672858 0.717570 0.887707
Si Si2 0.172109 0.534891 0.072807
Si Si3 0.669073 0.996405 0.080951
Si Si4 0.672026 0.681881 0.043204
Si Si5 0.825143 0.433562 0.319850
Si Si6 0.826852 0.860634 0.909137
Si Si7 0.825474 0.157784 0.551412
O O1 0.500000 0.732822 0.883185
O O2 0.709254 0.648853 0.842519
O O3 0.760243 0.790836 0.872274
O O4 0.700404 0.693667 0.964354
O O5 0.231556 0.616724 0.069925
O O6 0.261272 0.487565 0.125228
O O7 0.000000 0.532968 0.087908
O O8 0.193744 0.500000 0.000000
O O9 0.500000 0.009855 0.097409
O O10 0.765716 0.060429 0.110831
O O11 0.706689 0.912539 0.096148
O O12 0.680399 0.000000 0.000000
O O13 0.500000 0.664282 0.050084
O O14 0.699281 0.760612 0.076306
O O15 0.750000 0.448637 0.250000
O O16 0.000000 0.440375 0.316261
O O17 0.000000 0.859536 0.907226
O O18 0.767378 0.850367 0.984373
O O19 0.000000 0.153367 0.534520
#
# Coordination Sequence:
#
# PCOD9414131 Si02
#       7
#     8   8   8   8   8   8   8
#     4   9  18  32  48  65  90 126 163 196 240 297
#     4  11  22  34  51  76 104 131 166 209 253 303
#     4   8  13  23  36  50  78 119 157 189 229 283
#     4   9  16  29  48  69  92 123 167 206 244 294
#     4  11  23  39  57  75  99 131 167 209 257 307
#     4  10  17  22  35  59  86 116 154 197 235 275
#     4   8  15  26  38  55  83 121 158 193 236 288
#
# _framework density 16.450527000000001
#
# number of rings (size 3 to 8) (size 9 to 14) (size 15 to 20)
#    0.000    2.571    1.429    3.857    0.000    6.571 
#    0.000    0.000    0.000    0.000    0.000    0.000 
#    0.000    1.143    0.000    7.429    0.000    7.857 
#
# Total GULP energy -311932.156711 kJ/mol
# GULP energy per Si atom -5570.217084 kJ/mol
# Density = 1.641308 g / cm^3
# Si number density = 16.450527 Si / 1000 Ang^3
#
#
#
# Elastic Constant Matrix: (Units=GPa)
#
#
# Indices 1 2 3 4 5 6 
#
# 1 73.4747 70.6540 29.7225 0.0000 0.0000 0.0000
# 2 70.6540 147.6826 28.8645 0.0000 0.0000 0.0000
# 3 29.7225 28.8645 35.1584 0.0000 0.0000 0.0000
# 4 0.0000 0.0000 0.0000 7.0641 0.0000 0.0000
# 5 0.0000 0.0000 0.0000 0.0000 11.5350 0.0000
# 6 0.0000 0.0000 0.0000 0.0000 0.0000 15.9185
#
#
#
# Elastic Compliance Matrix: (Units=1/GPa)
#
#
# Indices 1 2 3 4 5 6 
#
# 1 0.032161 -0.011998 -0.017339 0.000000 0.000000 0.000000
# 2 -0.011998 0.012541 -0.000153 0.000000 0.000000 0.000000
# 3 -0.017339 -0.000153 0.043227 0.000000 0.000000 0.000000
# 4 0.000000 0.000000 0.000000 0.141560 0.000000 0.000000
# 5 0.000000 0.000000 0.000000 0.000000 0.086693 0.000000
# 6 0.000000 0.000000 0.000000 0.000000 0.000000 0.062820
#
#
# Mechanical properties :
#
#
# Convention : Reuss Voigt Hill
#
# Bulk Modulus (GPa) = 34.54316 57.19974 45.87145
# Shear Modulus (GPa) = 11.16991 15.37518 13.27255
#
# Velocity S-wave (km/s) = 2.60859 3.06049 2.84353
# Velocity P-wave (km/s) = 5.48788 6.88005 6.22302
#
# Compressibility (1/GPa) = 0.02894929
#
# Stress axis : x y z
#
# Youngs Moduli (GPa) = 31.09340 79.73754 23.13384
#
# Poissons Ratio (x) = 0.95666 0.40111
# Poissons Ratio (y) = 0.37305 0.00355
# Poissons Ratio (z) = 0.53912 0.01224
#
# Static dielectric constant tensor:
#      x y z
#    x 1.540040 0.000000 0.000000 
#    y 0.000000 1.610380 0.000000 
#    z 0.000000 0.000000 1.529130 
# 
# From -- ./inp_files/31043.got.cif
#   From: 2010.05.17/outbox.cif.g08.bks.cpg/sg53_16_cif.got.tgz:31043.got - 2010.06.03 12:45:16.
