data_PCOD9414721
_publ_section_title
;
Structure prediction by ZEFSAII (Michael W. Deem and Ramdas Pophale) SiO2 
 PCOD9414721
Probable space group: P M N A
;
_chemical_formula_sum "Si O2"
_cell_formula_units_Z 56
_cell_length_a 8.545025
_cell_length_b 21.468385
_cell_length_c 14.129641
_cell_angle_alpha 90.000000
_cell_angle_beta 90.000000
_cell_angle_gamma 90.000000
_cell_volume 2592.052779
_symmetry_space_group_name_H-M "P M N A"
_symmetry_group_IT_number 53
_symmetry_cell_setting 'orthorhombic'
loop_
_space_group_symop_operation_xyz
x,y,z
1/2-x,-y,1/2+z
x,-y,-z
1/2-x,y,1/2-z
-x,-y,-z
1/2+x,y,1/2-z
-x,y,z
1/2+x,-y,1/2+z
loop_
_atom_site_type_symbol
_atom_site_label
_atom_site_fract_x
_atom_site_fract_y
_atom_site_fract_z
Si Si1 0.688597 0.403793 0.142779
Si Si2 0.323122 0.014359 0.387531
Si Si3 0.187063 0.466551 0.858472
Si Si4 0.190119 0.276548 0.456422
Si Si5 0.181549 0.886375 0.347617
Si Si6 0.810177 0.141495 0.438663
Si Si7 0.313098 0.666350 0.144691
O O1 0.750000 0.401100 0.250000
O O2 0.500000 0.407546 0.141111
O O3 0.755701 0.467897 0.099376
O O4 0.740910 0.339652 0.094504
O O5 0.500000 0.007559 0.350888
O O6 0.261726 0.084641 0.380098
O O7 0.327060 0.000000 0.500000
O O8 0.212026 0.960804 0.347627
O O9 0.250000 0.468011 0.750000
O O10 0.256043 0.401114 0.893127
O O11 0.000000 0.464210 0.859560
O O12 0.238792 0.211258 0.410938
O O13 0.235539 0.283167 0.566675
O O14 0.000000 0.276432 0.454638
O O15 0.250000 0.860351 0.250000
O O16 0.241474 0.865196 0.450744
O O17 0.000000 0.871982 0.347152
O O18 0.000000 0.135739 0.435900
O O19 0.250000 0.676764 0.250000
O O20 0.500000 0.664514 0.149929
#
# Coordination Sequence:
#
# PCOD9414721 Si02
#       7
#     8   8   8   8   8   8   8
#     4  10  19  35  56  77 100 131 172 220 269 317
#     4   9  17  31  51  74  99 127 162 204 247 290
#     4  10  18  31  51  76 103 133 169 216 271 319
#     4   9  20  36  55  76 104 144 183 213 255 320
#     4  10  19  31  52  79 106 134 168 210 254 302
#     4   9  18  35  54  73 100 138 176 207 249 307
#     4  10  19  34  53  76 105 139 177 217 262 314
#
# _framework density 21.604499000000001
#
# number of rings (size 3 to 8) (size 9 to 14) (size 15 to 20)
#    0.000    2.429    0.000    4.714    0.000    3.429 
#    0.000    9.286    0.000    1.714    0.000    0.000 
#    0.000    0.000    0.000    0.000    0.000    0.000 
#
# Total GULP energy -312520.848443 kJ/mol
# GULP energy per Si atom -5580.729436 kJ/mol
# Density = 2.155533 g / cm^3
# Si number density = 21.604499 Si / 1000 Ang^3
#
#
#
# Elastic Constant Matrix: (Units=GPa)
#
#
# Indices 1 2 3 4 5 6 
#
# 1 47.7200 -4.7060 -5.2548 0.0000 0.0000 0.0000
# 2 -4.7060 104.3646 -7.6070 0.0000 0.0000 0.0000
# 3 -5.2548 -7.6070 30.9257 0.0000 0.0000 0.0000
# 4 0.0000 0.0000 0.0000 12.0334 0.0000 0.0000
# 5 0.0000 0.0000 0.0000 0.0000 18.1638 0.0000
# 6 0.0000 0.0000 0.0000 0.0000 0.0000 19.6588
#
#
#
# Elastic Compliance Matrix: (Units=1/GPa)
#
#
# Indices 1 2 3 4 5 6 
#
# 1 0.021516 0.001259 0.003966 0.000000 0.000000 0.000000
# 2 0.001259 0.009830 0.002632 0.000000 0.000000 0.000000
# 3 0.003966 0.002632 0.033657 0.000000 0.000000 0.000000
# 4 0.000000 0.000000 0.000000 0.083102 0.000000 0.000000
# 5 0.000000 0.000000 0.000000 0.000000 0.055055 0.000000
# 6 0.000000 0.000000 0.000000 0.000000 0.000000 0.050868
#
#
# Mechanical properties :
#
#
# Convention : Reuss Voigt Hill
#
# Bulk Modulus (GPa) = 12.38883 16.43052 14.40968
# Shear Modulus (GPa) = 18.85227 23.34306 21.09766
#
# Velocity S-wave (km/s) = 2.95720 3.29062 3.12835
# Velocity P-wave (km/s) = 4.17215 4.69672 4.44219
#
# Compressibility (1/GPa) = 0.08071788
#
# Stress axis : x y z
#
# Youngs Moduli (GPa) = 46.47609 101.72502 29.71162
#
# Poissons Ratio (x) = -0.12810 -0.11783
# Poissons Ratio (y) = -0.05853 -0.07820
# Poissons Ratio (z) = -0.18431 -0.26774
#
# Static dielectric constant tensor:
#      x y z
#    x 1.741140 0.000000 0.000000 
#    y 0.000000 1.811060 0.000000 
#    z 0.000000 0.000000 1.820590 
# 
# From -- ./inp_files/20441.got.cif
#   From: 2010.05.17/outbox.cif.g08.bks.cpg/sg53_11_cif.got.tgz:20441.got - 2010.06.03 12:45:16.
