data_PCOD9414529
_publ_section_title
;
Structure prediction by ZEFSAII (Michael W. Deem and Ramdas Pophale) SiO2 
 PCOD9414529
Probable space group: P M N A
;
_chemical_formula_sum "Si O2"
_cell_formula_units_Z 56
_cell_length_a 23.991591
_cell_length_b 9.747254
_cell_length_c 12.404842
_cell_angle_alpha 90.000000
_cell_angle_beta 90.000000
_cell_angle_gamma 90.000000
_cell_volume 2900.898741
_symmetry_space_group_name_H-M "P M N A"
_symmetry_group_IT_number 53
_symmetry_cell_setting 'orthorhombic'
loop_
_space_group_symop_operation_xyz
x,y,z
1/2-x,-y,1/2+z
x,-y,-z
1/2-x,y,1/2-z
-x,-y,-z
1/2+x,y,1/2-z
-x,y,z
1/2+x,-y,1/2+z
loop_
_atom_site_type_symbol
_atom_site_label
_atom_site_fract_x
_atom_site_fract_y
_atom_site_fract_z
Si Si1 0.668658 0.181171 0.231420
Si Si2 0.560318 0.460470 0.747104
Si Si3 0.168426 0.483925 0.374023
Si Si4 0.436742 0.772632 0.655829
Si Si5 0.384049 0.348522 0.551539
Si Si6 0.748008 0.874787 0.569241
Si Si7 0.260387 0.702234 0.365976
O O1 0.671016 0.331952 0.176761
O O2 0.605914 0.147681 0.266464
O O3 0.698666 0.086797 0.142518
O O4 0.704876 0.181225 0.341723
O O5 0.500000 0.434629 0.798631
O O6 0.615643 0.444323 0.817209
O O7 0.560448 0.618054 0.704937
O O8 0.569263 0.367793 0.642096
O O9 0.157650 0.500000 0.500000
O O10 0.226930 0.560041 0.355015
O O11 0.500000 0.824010 0.647686
O O12 0.406666 0.751739 0.540720
O O13 0.374831 0.500000 0.500000
O O14 0.325652 0.309177 0.606630
O O15 0.763757 0.770066 0.474518
O O16 0.724035 0.000000 0.500000
O O17 0.250000 0.773870 0.250000
#
# Coordination Sequence:
#
# PCOD9414529 Si02
#       7
#     8   8   8   8   8   8   8
#     4  10  22  39  62  84 120 153 194 251 302 353
#     4   9  18  30  45  73 119 163 191 224 284 362
#     4  11  21  33  54  87 119 150 189 240 302 365
#     4   9  17  32  56  84 111 150 196 238 296 361
#     4  10  18  29  48  79 116 150 186 236 292 355
#     4  11  25  41  59  83 116 163 205 244 299 356
#     4  12  23  33  55  86 121 151 193 244 297 365
#
# _framework density 19.304362000000001
#
# number of rings (size 3 to 8) (size 9 to 14) (size 15 to 20)
#    0.000    1.714    4.286    0.857    4.000    2.000 
#    0.000    0.000    0.000    0.857    0.000    0.000 
#    0.000    0.000    0.000    0.000    0.000    0.000 
#
# Total GULP energy -312031.081380 kJ/mol
# GULP energy per Si atom -5571.983596 kJ/mol
# Density = 1.926042 g / cm^3
# Si number density = 19.304362 Si / 1000 Ang^3
#
#
#
# Elastic Constant Matrix: (Units=GPa)
#
#
# Indices 1 2 3 4 5 6 
#
# 1 129.0000 3.1084 47.0563 0.0000 0.0000 0.0000
# 2 3.1084 18.6064 18.9255 0.0000 0.0000 0.0000
# 3 47.0563 18.9255 141.3916 0.0000 0.0000 0.0000
# 4 0.0000 0.0000 0.0000 19.2324 0.0000 0.0000
# 5 0.0000 0.0000 0.0000 0.0000 22.0536 0.0000
# 6 0.0000 0.0000 0.0000 0.0000 0.0000 1.5239
#
#
#
# Elastic Compliance Matrix: (Units=1/GPa)
#
#
# Indices 1 2 3 4 5 6 
#
# 1 0.008873 0.001761 -0.003189 0.000000 0.000000 0.000000
# 2 0.001761 0.062565 -0.008961 0.000000 0.000000 0.000000
# 3 -0.003189 -0.008961 0.009333 0.000000 0.000000 0.000000
# 4 0.000000 0.000000 0.000000 0.051996 0.000000 0.000000
# 5 0.000000 0.000000 0.000000 0.000000 0.045344 0.000000
# 6 0.000000 0.000000 0.000000 0.000000 0.000000 0.656229
#
#
# Mechanical properties :
#
#
# Convention : Reuss Voigt Hill
#
# Bulk Modulus (GPa) = 16.66820 47.46427 32.06623
# Shear Modulus (GPa) = 5.71354 23.22249 14.46802
#
# Velocity S-wave (km/s) = 1.72225 3.47214 2.74061
# Velocity P-wave (km/s) = 3.55078 6.38084 5.16348
#
# Compressibility (1/GPa) = 0.05999449
#
# Stress axis : x y z
#
# Youngs Moduli (GPa) = 112.70612 15.98339 107.14518
#
# Poissons Ratio (x) = -0.02815 0.34164
# Poissons Ratio (y) = -0.19848 0.96008
# Poissons Ratio (z) = 0.35937 0.14322
#
# Static dielectric constant tensor:
#      x y z
#    x 1.696470 0.000000 0.000000 
#    y 0.000000 1.725260 0.000000 
#    z 0.000000 0.000000 1.707630 
# 
# From -- ./inp_files/18420.got.cif
#   From: 2010.05.17/outbox.cif.g08.bks.cpg/sg53_10_cif.got.tgz:18420.got - 2010.06.03 12:45:16.
