data_PCOD9414213
_publ_section_title
;
Structure prediction by ZEFSAII (Michael W. Deem and Ramdas Pophale) SiO2 
 PCOD9414213
Probable space group: P M N A
;
_chemical_formula_sum "Si O2"
_cell_formula_units_Z 64
_cell_length_a 8.628779
_cell_length_b 18.467239
_cell_length_c 23.352821
_cell_angle_alpha 90.000000
_cell_angle_beta 90.000000
_cell_angle_gamma 90.000000
_cell_volume 3721.265583
_symmetry_space_group_name_H-M "P M N A"
_symmetry_group_IT_number 53
_symmetry_cell_setting 'orthorhombic'
loop_
_space_group_symop_operation_xyz
x,y,z
1/2-x,-y,1/2+z
x,-y,-z
1/2-x,y,1/2-z
-x,-y,-z
1/2+x,y,1/2-z
-x,y,z
1/2+x,-y,1/2+z
loop_
_atom_site_type_symbol
_atom_site_label
_atom_site_fract_x
_atom_site_fract_y
_atom_site_fract_z
Si Si1 0.314767 0.065968 0.315175
Si Si2 0.684716 0.638045 0.631587
Si Si3 0.314759 0.782668 0.814829
Si Si4 0.685131 0.497060 0.811424
Si Si5 0.685451 0.584580 0.988957
Si Si6 0.184965 0.917162 0.315084
Si Si7 0.185437 0.765850 0.185683
Si Si8 0.185768 0.372818 0.892454
O O1 0.250000 0.066029 0.250000
O O2 0.500000 0.065707 0.313967
O O3 0.251279 0.141529 0.339278
O O4 0.252352 0.991036 0.341723
O O5 0.500000 0.641556 0.636581
O O6 0.758294 0.714507 0.648777
O O7 0.750002 0.576194 0.673694
O O8 0.734016 0.613581 0.568118
O O9 0.250000 0.774153 0.750000
O O10 0.500000 0.786089 0.812221
O O11 0.750000 0.473469 0.750000
O O12 0.500000 0.498186 0.811060
O O13 0.745315 0.441704 0.859196
O O14 0.500000 0.589169 0.982107
O O15 0.724997 0.500000 0.000000
O O16 0.741338 0.627940 0.044651
O O17 0.250000 0.915621 0.250000
O O18 0.242989 0.840380 0.338681
O O19 0.000000 0.920413 0.313858
O O20 0.250000 0.753587 0.250000
O O21 0.221463 0.698173 0.145087
O O22 0.000000 0.773953 0.189855
O O23 0.000000 0.380040 0.896405
#
# Coordination Sequence:
#
# PCOD9414213 Si02
#       8
#     8   8   8   8   8   8   8   8
#     4  10  17  28  46  71 104 141 179 215 258 310
#     4  12  24  39  58  79 105 138 178 221 269 317
#     4  11  21  35  53  78 112 144 179 219 266 319
#     4  12  24  38  55  78 107 140 176 215 263 320
#     4  11  23  40  61  82 103 134 177 226 272 317
#     4  10  17  27  45  70 102 141 179 214 259 309
#     4  10  20  33  50  76 109 142 178 217 265 316
#     4  11  23  38  57  80 105 139 178 222 270 318
#
# _framework density 17.198450999999999
#
# number of rings (size 3 to 8) (size 9 to 14) (size 15 to 20)
#    0.000    1.125    1.250    9.750    0.000    3.500 
#    0.000    0.000    0.000    0.000    0.000    0.875 
#    0.000    7.000    0.000    0.000    0.000    0.000 
#
# Total GULP energy -357569.935285 kJ/mol
# GULP energy per Si atom -5587.030239 kJ/mol
# Density = 1.715931 g / cm^3
# Si number density = 17.198451 Si / 1000 Ang^3
#
#
#
# Elastic Constant Matrix: (Units=GPa)
#
#
# Indices 1 2 3 4 5 6 
#
# 1 123.3759 56.6340 8.1526 0.0000 0.0000 0.0000
# 2 56.6340 122.5437 10.5551 0.0000 0.0000 0.0000
# 3 8.1526 10.5551 44.8248 0.0000 0.0000 0.0000
# 4 0.0000 0.0000 0.0000 3.7001 0.0000 0.0000
# 5 0.0000 0.0000 0.0000 0.0000 24.9857 0.0000
# 6 0.0000 0.0000 0.0000 0.0000 0.0000 31.6846
#
#
#
# Elastic Compliance Matrix: (Units=1/GPa)
#
#
# Indices 1 2 3 4 5 6 
#
# 1 0.010314 -0.004700 -0.000769 0.000000 0.000000 0.000000
# 2 -0.004700 0.010471 -0.001611 0.000000 0.000000 0.000000
# 3 -0.000769 -0.001611 0.022828 0.000000 0.000000 0.000000
# 4 0.000000 0.000000 0.000000 0.270262 0.000000 0.000000
# 5 0.000000 0.000000 0.000000 0.000000 0.040023 0.000000
# 6 0.000000 0.000000 0.000000 0.000000 0.000000 0.031561
#
#
# Mechanical properties :
#
#
# Convention : Reuss Voigt Hill
#
# Bulk Modulus (GPa) = 33.95242 49.04754 41.49998
# Shear Modulus (GPa) = 12.21188 26.43428 19.32308
#
# Velocity S-wave (km/s) = 2.66758 3.92473 3.35556
# Velocity P-wave (km/s) = 5.41040 7.00846 6.26063
#
# Compressibility (1/GPa) = 0.02945298
#
# Stress axis : x y z
#
# Youngs Moduli (GPa) = 96.95822 95.49868 43.80534
#
# Poissons Ratio (x) = 0.44887 0.03369
# Poissons Ratio (y) = 0.45573 0.07056
# Poissons Ratio (z) = 0.07456 0.15384
#
# Static dielectric constant tensor:
#      x y z
#    x 1.570720 0.000000 0.000000 
#    y 0.000000 1.625240 0.000000 
#    z 0.000000 0.000000 1.550670 
# 
# From -- ./inp_files/31145.got.cif
#   From: 2010.05.17/outbox.cif.g08.bks.cpg/sg53_16_cif.got.tgz:31145.got - 2010.06.03 12:45:16.
