data_PCOD9414826
_publ_section_title
;
Structure prediction by ZEFSAII (Michael W. Deem and Ramdas Pophale) SiO2 
 PCOD9414826
Probable space group: P M N A
;
_chemical_formula_sum "Si O2"
_cell_formula_units_Z 32
_cell_length_a 33.876512
_cell_length_b 5.363142
_cell_length_c 7.244929
_cell_angle_alpha 90.000000
_cell_angle_beta 90.000000
_cell_angle_gamma 90.000000
_cell_volume 1316.291624
_symmetry_space_group_name_H-M "P M N A"
_symmetry_group_IT_number 53
_symmetry_cell_setting 'orthorhombic'
loop_
_space_group_symop_operation_xyz
x,y,z
1/2-x,-y,1/2+z
x,-y,-z
1/2-x,y,1/2-z
-x,-y,-z
1/2+x,y,1/2-z
-x,y,z
1/2+x,-y,1/2+z
loop_
_atom_site_type_symbol
_atom_site_label
_atom_site_fract_x
_atom_site_fract_y
_atom_site_fract_z
Si Si1 0.077150 0.791347 0.793974
Si Si2 0.664240 0.981665 0.775755
Si Si3 0.045832 0.290492 0.787411
Si Si4 0.295684 0.483587 0.781207
O O1 0.121713 0.887370 0.789572
O O2 0.071167 0.518540 0.708304
O O3 0.052621 0.016974 0.705880
O O4 0.060492 0.749847 0.001113
O O5 0.694062 0.762012 0.714921
O O6 0.677287 0.256229 0.709997
O O7 0.663301 0.000000 0.000000
O O8 0.000000 0.359115 0.782965
O O9 0.250000 0.422510 0.750000
O O10 0.302317 0.500000 0.000000
#
# Coordination Sequence:
#
# PCOD9414826 Si02
#       4
#     8   8   8   8
#     4  10  18  32  52  79 104 139 186 216 274 327
#     4  10  21  37  58  77 111 146 181 229 281 331
#     4  10  19  33  54  77 113 147 176 231 287 322
#     4  10  21  40  58  81 109 149 184 226 286 343
#
# _framework density 24.310721999999998
#
# number of rings (size 3 to 8) (size 9 to 14) (size 15 to 20)
#    0.000    2.000    0.000    6.000    0.000    0.000 
#   13.500    0.000    0.000    8.250    0.000    0.000 
#    0.000    0.000    0.000    0.000    0.000    0.000 
#
# Total GULP energy -178826.669252 kJ/mol
# GULP energy per Si atom -5588.333414 kJ/mol
# Density = 2.425539 g / cm^3
# Si number density = 24.310722 Si / 1000 Ang^3
#
#
#
# Elastic Constant Matrix: (Units=GPa)
#
#
# Indices 1 2 3 4 5 6 
#
# 1 143.0326 57.9064 -9.2594 0.0000 0.0000 0.0000
# 2 57.9064 231.6410 14.7737 0.0000 0.0000 0.0000
# 3 -9.2594 14.7737 96.8290 0.0000 0.0000 0.0000
# 4 0.0000 0.0000 0.0000 -22.4232 0.0000 0.0000
# 5 0.0000 0.0000 0.0000 0.0000 570.8718 0.0000
# 6 0.0000 0.0000 0.0000 0.0000 0.0000 50.2265
#
#
#
# Elastic Compliance Matrix: (Units=1/GPa)
#
#
# Indices 1 2 3 4 5 6 
#
# 1 0.007886 -0.002039 0.001065 0.000000 0.000000 0.000000
# 2 -0.002039 0.004887 -0.000941 0.000000 0.000000 0.000000
# 3 0.001065 -0.000941 0.010573 0.000000 0.000000 0.000000
# 4 0.000000 0.000000 0.000000 -0.044597 0.000000 0.000000
# 5 0.000000 0.000000 0.000000 0.000000 0.001752 0.000000
# 6 0.000000 0.000000 0.000000 0.000000 0.000000 0.019910
#
#
# Mechanical properties :
#
#
# Convention : Reuss Voigt Hill
#
# Bulk Modulus (GPa) = 51.23914 66.48267 58.86091
# Shear Modulus (GPa) = 465.32078 146.94048 306.13063
#
# Velocity S-wave (km/s) = 13.84995 7.78292 11.23377
# Velocity P-wave (km/s) = 16.63983 10.40056 13.87544
#
# Compressibility (1/GPa) = 0.01951633
#
# Stress axis : x y z
#
# Youngs Moduli (GPa) = 126.80725 204.63252 94.58168
#
# Poissons Ratio (x) = 0.41731 -0.10075
# Poissons Ratio (y) = 0.25860 0.08897
# Poissons Ratio (z) = -0.13508 0.19248
#
# Static dielectric constant tensor:
#      x y z
#    x 1.870040 0.000000 0.000000 
#    y 0.000000 1.723650 0.000000 
#    z 0.000000 0.000000 1.920690 
# 
# From -- ./inp_files/12652.got.cif
#   From: 2010.05.17/outbox.cif.g08.bks.cpg/sg53_7_cif.got.tgz:12652.got - 2010.06.03 12:45:16.
