data_PCOD9414488
_publ_section_title
;
Structure prediction by ZEFSAII (Michael W. Deem and Ramdas Pophale) SiO2 
 PCOD9414488
Probable space group: P M N A
;
_chemical_formula_sum "Si O2"
_cell_formula_units_Z 64
_cell_length_a 8.570775
_cell_length_b 32.757223
_cell_length_c 14.287902
_cell_angle_alpha 90.000000
_cell_angle_beta 90.000000
_cell_angle_gamma 90.000000
_cell_volume 4011.396896
_symmetry_space_group_name_H-M "P M N A"
_symmetry_group_IT_number 53
_symmetry_cell_setting 'orthorhombic'
loop_
_space_group_symop_operation_xyz
x,y,z
1/2-x,-y,1/2+z
x,-y,-z
1/2-x,y,1/2-z
-x,-y,-z
1/2+x,y,1/2-z
-x,y,z
1/2+x,-y,1/2+z
loop_
_atom_site_type_symbol
_atom_site_label
_atom_site_fract_x
_atom_site_fract_y
_atom_site_fract_z
Si Si1 0.186417 0.935092 0.645866
Si Si2 0.312969 0.481236 0.354915
Si Si3 0.312269 0.728197 0.355815
Si Si4 0.812682 0.972717 0.355184
Si Si5 0.311019 0.817339 0.356147
Si Si6 0.311628 0.361793 0.643067
Si Si7 0.686431 0.103760 0.529782
Si Si8 0.313301 0.439893 0.963453
O O1 0.250000 0.929734 0.750000
O O2 0.253043 0.902164 0.574866
O O3 0.000000 0.933556 0.646282
O O4 0.231866 0.981285 0.614170
O O5 0.250000 0.474495 0.250000
O O6 0.500000 0.481401 0.353997
O O7 0.252161 0.524594 0.395188
O O8 0.252417 0.449166 0.432795
O O9 0.250000 0.728524 0.250000
O O10 0.500000 0.728151 0.354470
O O11 0.263096 0.772469 0.394682
O O12 0.265550 0.683667 0.393328
O O13 0.750000 0.968217 0.250000
O O14 0.745033 0.936014 0.415029
O O15 0.000000 0.970307 0.356642
O O16 0.250000 0.821687 0.250000
O O17 0.500000 0.818354 0.352589
O O18 0.257272 0.855196 0.418856
O O19 0.250000 0.366021 0.750000
O O20 0.500000 0.364904 0.644739
O O21 0.241627 0.397074 0.578888
O O22 0.500000 0.104129 0.530214
O O23 0.500000 0.442673 0.965344
#
# Coordination Sequence:
#
# PCOD9414488 Si02
#       8
#     8   8   8   8   8   8   8   8
#     4  10  21  36  51  66  87 116 152 192 231 269
#     4  11  21  35  51  69  95 128 164 201 240 282
#     4   8  15  28  45  64  91 123 154 186 226 273
#     4  10  20  33  48  67  92 121 152 186 224 267
#     4   9  18  31  46  68  96 125 153 184 223 271
#     4  10  18  29  46  69  95 126 160 196 235 276
#     4  11  21  31  47  70  95 122 153 186 224 271
#     4  11  21  33  48  70  97 127 163 201 238 279
#
# _framework density 15.954542999999999
#
# number of rings (size 3 to 8) (size 9 to 14) (size 15 to 20)
#    0.000    2.000    0.000    5.625    0.000    5.500 
#    0.000    0.000    0.000    0.000    0.000    0.875 
#    0.000    4.000    0.000    0.000    0.000    0.000 
#
# Total GULP energy -356934.654577 kJ/mol
# GULP energy per Si atom -5577.103978 kJ/mol
# Density = 1.591823 g / cm^3
# Si number density = 15.954543 Si / 1000 Ang^3
#
#
#
# Elastic Constant Matrix: (Units=GPa)
#
#
# Indices 1 2 3 4 5 6 
#
# 1 75.0846 40.7976 35.1204 0.0000 0.0000 0.0000
# 2 40.7976 146.1982 78.1307 0.0000 0.0000 0.0000
# 3 35.1204 78.1307 97.0939 0.0000 0.0000 0.0000
# 4 0.0000 0.0000 0.0000 22.2994 0.0000 0.0000
# 5 0.0000 0.0000 0.0000 0.0000 25.9719 0.0000
# 6 0.0000 0.0000 0.0000 0.0000 0.0000 14.8733
#
#
#
# Elastic Compliance Matrix: (Units=1/GPa)
#
#
# Indices 1 2 3 4 5 6 
#
# 1 0.016530 -0.002487 -0.003978 0.000000 0.000000 0.000000
# 2 -0.002487 0.012375 -0.009059 0.000000 0.000000 0.000000
# 3 -0.003978 -0.009059 0.019028 0.000000 0.000000 0.000000
# 4 0.000000 0.000000 0.000000 0.044844 0.000000 0.000000
# 5 0.000000 0.000000 0.000000 0.000000 0.038503 0.000000
# 6 0.000000 0.000000 0.000000 0.000000 0.000000 0.067235
#
#
# Mechanical properties :
#
#
# Convention : Reuss Voigt Hill
#
# Bulk Modulus (GPa) = 59.22114 69.60823 64.41469
# Shear Modulus (GPa) = 21.25935 23.58412 22.42174
#
# Velocity S-wave (km/s) = 3.65430 3.84892 3.75287
# Velocity P-wave (km/s) = 7.41650 7.96718 7.69677
#
# Compressibility (1/GPa) = 0.01688586
#
# Stress axis : x y z
#
# Youngs Moduli (GPa) = 60.49486 80.80770 52.55538
#
# Poissons Ratio (x) = 0.20097 0.20907
# Poissons Ratio (y) = 0.15045 0.47607
# Poissons Ratio (z) = 0.24065 0.73200
#
# Static dielectric constant tensor:
#      x y z
#    x 1.536810 0.000000 0.000000 
#    y 0.000000 1.563290 0.000000 
#    z 0.000000 0.000000 1.506710 
# 
# From -- ./inp_files/21078.got.cif
#   From: 2010.05.17/outbox.cif.g08.bks.cpg/sg53_11_cif.got.tgz:21078.got - 2010.06.03 12:45:16.
