data_PCOD9414398
_publ_section_title
;
Structure prediction by ZEFSAII (Michael W. Deem and Ramdas Pophale) SiO2 
 PCOD9414398
Probable space group: P M N A
;
_chemical_formula_sum "Si O2"
_cell_formula_units_Z 56
_cell_length_a 7.365950
_cell_length_b 18.091715
_cell_length_c 20.428300
_cell_angle_alpha 90.000000
_cell_angle_beta 90.000000
_cell_angle_gamma 90.000000
_cell_volume 2722.329763
_symmetry_space_group_name_H-M "P M N A"
_symmetry_group_IT_number 53
_symmetry_cell_setting 'orthorhombic'
loop_
_space_group_symop_operation_xyz
x,y,z
1/2-x,-y,1/2+z
x,-y,-z
1/2-x,y,1/2-z
-x,-y,-z
1/2+x,y,1/2-z
-x,y,z
1/2+x,-y,1/2+z
loop_
_atom_site_type_symbol
_atom_site_label
_atom_site_fract_x
_atom_site_fract_y
_atom_site_fract_z
Si Si1 0.220651 0.546433 0.595554
Si Si2 0.721995 0.774888 0.060839
Si Si3 0.716798 0.882317 0.175284
Si Si4 0.216352 0.681975 0.674526
Si Si5 0.222115 0.182694 0.415271
Si Si6 0.716812 0.050074 0.175058
Si Si7 0.779317 0.607339 0.452105
O O1 0.284103 0.601372 0.652186
O O2 0.281427 0.461398 0.592729
O O3 0.269546 0.584893 0.526417
O O4 0.000000 0.543660 0.597234
O O5 0.500000 0.774037 0.061516
O O6 0.784244 0.825600 0.120798
O O7 0.781675 0.689538 0.065058
O O8 0.776433 0.808059 0.990530
O O9 0.750000 0.858596 0.250000
O O10 0.000000 0.886349 0.333006
O O11 0.787678 0.966358 0.167904
O O12 0.250000 0.698127 0.750000
O O13 0.283163 0.746520 0.626836
O O14 0.000000 0.680579 0.665346
O O15 0.283671 0.109011 0.377782
O O16 0.000000 0.182379 0.414678
O O17 0.750000 0.074623 0.250000
O O18 0.500000 0.046646 0.167233
O O19 0.000000 0.608653 0.450701
#
# Coordination Sequence:
#
# PCOD9414398 Si02
#       7
#     8   8   8   8   8   8   8
#     4   8  13  22  38  60  84 110 140 174 211 249
#     4   9  15  25  43  67  89 109 140 185 225 253
#     4   9  18  31  47  65  86 114 145 177 218 263
#     4  10  18  28  42  63  91 119 144 176 217 258
#     4   9  16  26  42  65  90 112 142 183 220 251
#     4   9  17  29  44  63  88 118 147 175 211 258
#     4   8  12  21  39  62  85 106 136 179 217 247
#
# _framework density 20.570616000000001
#
# number of rings (size 3 to 8) (size 9 to 14) (size 15 to 20)
#    0.000    3.143    1.429    1.286    0.000    0.571 
#    0.000    3.571    0.000    1.714    0.000    6.000 
#    0.000    0.000    0.000    0.000    0.000    0.000 
#
# Total GULP energy -312409.212785 kJ/mol
# GULP energy per Si atom -5578.735943 kJ/mol
# Density = 2.052380 g / cm^3
# Si number density = 20.570616 Si / 1000 Ang^3
#
#
#
# Elastic Constant Matrix: (Units=GPa)
#
#
# Indices 1 2 3 4 5 6 
#
# 1 73.8099 6.9911 -0.2100 0.0000 0.0000 0.0000
# 2 6.9911 173.7198 121.0117 0.0000 0.0000 0.0000
# 3 -0.2100 121.0117 159.5573 0.0000 0.0000 0.0000
# 4 0.0000 0.0000 0.0000 29.7678 0.0000 0.0000
# 5 0.0000 0.0000 0.0000 0.0000 8.1947 0.0000
# 6 0.0000 0.0000 0.0000 0.0000 0.0000 -11.5895
#
#
#
# Elastic Compliance Matrix: (Units=1/GPa)
#
#
# Indices 1 2 3 4 5 6 
#
# 1 0.013664 -0.001192 0.000922 0.000000 0.000000 0.000000
# 2 -0.001192 0.012308 -0.009336 0.000000 0.000000 0.000000
# 3 0.000922 -0.009336 0.013349 0.000000 0.000000 0.000000
# 4 0.000000 0.000000 0.000000 0.033593 0.000000 0.000000
# 5 0.000000 0.000000 0.000000 0.000000 0.122030 0.000000
# 6 0.000000 0.000000 0.000000 0.000000 0.000000 -0.086285
#
#
# Mechanical properties :
#
#
# Convention : Reuss Voigt Hill
#
# Bulk Modulus (GPa) = 49.72980 73.63027 61.68004
# Shear Modulus (GPa) = 37.15430 23.89423 30.52426
#
# Velocity S-wave (km/s) = 4.25453 3.41188 3.85629
# Velocity P-wave (km/s) = 6.95431 7.16888 7.06241
#
# Compressibility (1/GPa) = 0.02010867
#
# Stress axis : x y z
#
# Youngs Moduli (GPa) = 73.18563 81.24927 74.91067
#
# Poissons Ratio (x) = 0.09688 -0.06909
# Poissons Ratio (y) = 0.08726 0.69937
# Poissons Ratio (z) = -0.06750 0.75855
#
# Static dielectric constant tensor:
#      x y z
#    x 1.940720 0.000000 0.000000 
#    y 0.000000 1.740890 0.000000 
#    z 0.000000 0.000000 1.688750 
# 
# From -- ./inp_files/30992.got.cif
#   From: 2010.05.17/outbox.cif.g08.bks.cpg/sg53_16_cif.got.tgz:30992.got - 2010.06.03 12:45:16.
