data_PCOD9414759
_publ_section_title
;
Structure prediction by ZEFSAII (Michael W. Deem and Ramdas Pophale) SiO2 
 PCOD9414759
Probable space group: P M N A
;
_chemical_formula_sum "Si O2"
_cell_formula_units_Z 40
_cell_length_a 8.633960
_cell_length_b 26.690068
_cell_length_c 9.163758
_cell_angle_alpha 90.000000
_cell_angle_beta 90.000000
_cell_angle_gamma 90.000000
_cell_volume 2111.705370
_symmetry_space_group_name_H-M "P M N A"
_symmetry_group_IT_number 53
_symmetry_cell_setting 'orthorhombic'
loop_
_space_group_symop_operation_xyz
x,y,z
1/2-x,-y,1/2+z
x,-y,-z
1/2-x,y,1/2-z
-x,-y,-z
1/2+x,y,1/2-z
-x,y,z
1/2+x,-y,1/2+z
loop_
_atom_site_type_symbol
_atom_site_label
_atom_site_fract_x
_atom_site_fract_y
_atom_site_fract_z
Si Si1 0.685444 0.051171 0.913225
Si Si2 0.185408 0.550456 0.413701
Si Si3 0.185183 0.853729 0.913307
Si Si4 0.684987 0.653761 0.415982
Si Si5 0.185323 0.758350 0.415351
O O1 0.750000 0.047795 0.750000
O O2 0.500000 0.058004 0.909496
O O3 0.761285 0.097941 0.995551
O O4 0.719440 0.000000 0.000000
O O5 0.224174 0.500000 0.500000
O O6 0.250000 0.545526 0.250000
O O7 0.257222 0.601205 0.481250
O O8 0.000000 0.556146 0.408326
O O9 0.250000 0.857803 0.750000
O O10 0.000000 0.850809 0.910885
O O11 0.253922 0.804511 0.990449
O O12 0.750000 0.652766 0.250000
O O13 0.500000 0.655703 0.413459
O O14 0.753083 0.705348 0.477916
O O15 0.250000 0.763446 0.250000
O O16 0.000000 0.757733 0.409720
#
# Coordination Sequence:
#
# PCOD9414759 Si02
#       5
#     8   8   8   8   8
#     4  11  24  42  65  93 124 159 199 242 289 340
#     4  10  20  34  53  78 108 143 184 229 280 337
#     4  12  25  42  62  87 120 156 195 238 289 344
#     4  10  18  31  53  80 109 143 185 231 282 337
#     4  11  21  37  60  86 115 148 190 237 286 339
#
# _framework density 18.942038
#
# number of rings (size 3 to 8) (size 9 to 14) (size 15 to 20)
#    0.000    1.200    0.000   10.200    0.000    4.800 
#    0.000    1.000    0.000    2.400    0.000    0.000 
#    0.000    0.000    0.000    0.000    0.000    0.000 
#
# Total GULP energy -223618.027564 kJ/mol
# GULP energy per Si atom -5590.450689 kJ/mol
# Density = 1.889893 g / cm^3
# Si number density = 18.942038 Si / 1000 Ang^3
#
#
#
# Elastic Constant Matrix: (Units=GPa)
#
#
# Indices 1 2 3 4 5 6 
#
# 1 176.8241 109.1490 56.9093 0.0000 0.0000 0.0000
# 2 109.1490 205.4513 80.0163 0.0000 0.0000 0.0000
# 3 56.9093 80.0163 102.5332 0.0000 0.0000 0.0000
# 4 0.0000 0.0000 0.0000 26.8712 0.0000 0.0000
# 5 0.0000 0.0000 0.0000 0.0000 25.7262 0.0000
# 6 0.0000 0.0000 0.0000 0.0000 0.0000 34.5498
#
#
#
# Elastic Compliance Matrix: (Units=1/GPa)
#
#
# Indices 1 2 3 4 5 6 
#
# 1 0.008626 -0.003905 -0.001740 0.000000 0.000000 0.000000
# 2 -0.003905 0.008760 -0.004669 0.000000 0.000000 0.000000
# 3 -0.001740 -0.004669 0.014363 0.000000 0.000000 0.000000
# 4 0.000000 0.000000 0.000000 0.037215 0.000000 0.000000
# 5 0.000000 0.000000 0.000000 0.000000 0.038871 0.000000
# 6 0.000000 0.000000 0.000000 0.000000 0.000000 0.028944
#
#
# Mechanical properties :
#
#
# Convention : Reuss Voigt Hill
#
# Bulk Modulus (GPa) = 89.92680 108.55086 99.23883
# Shear Modulus (GPa) = 31.03406 33.34503 32.18954
#
# Velocity S-wave (km/s) = 4.05207 4.20023 4.12681
# Velocity P-wave (km/s) = 8.33487 8.99744 8.67248
#
# Compressibility (1/GPa) = 0.01112016
#
# Stress axis : x y z
#
# Youngs Moduli (GPa) = 115.93182 114.15151 69.62479
#
# Poissons Ratio (x) = 0.44573 0.12117
# Poissons Ratio (y) = 0.45269 0.32509
# Poissons Ratio (z) = 0.20176 0.53300
#
# Static dielectric constant tensor:
#      x y z
#    x 1.631730 0.000000 0.000000 
#    y 0.000000 1.681910 0.000000 
#    z 0.000000 0.000000 1.639410 
# 
# From -- ./inp_files/6264.got.cif
#   From: 2010.05.17/outbox.cif.g08.bks.cpg/sg53_4_cif.got.tgz:6264.got - 2010.06.03 12:45:16.
