data_PCOD9414801
_publ_section_title
;
Structure prediction by ZEFSAII (Michael W. Deem and Ramdas Pophale) SiO2 
 PCOD9414801
Probable space group: P M N A
;
_chemical_formula_sum "Si O2"
_cell_formula_units_Z 64
_cell_length_a 8.933458
_cell_length_b 19.630783
_cell_length_c 21.613249
_cell_angle_alpha 90.000000
_cell_angle_beta 90.000000
_cell_angle_gamma 90.000000
_cell_volume 3790.332237
_symmetry_space_group_name_H-M "P M N A"
_symmetry_group_IT_number 53
_symmetry_cell_setting 'orthorhombic'
loop_
_space_group_symop_operation_xyz
x,y,z
1/2-x,-y,1/2+z
x,-y,-z
1/2-x,y,1/2-z
-x,-y,-z
1/2+x,y,1/2-z
-x,y,z
1/2+x,-y,1/2+z
loop_
_atom_site_type_symbol
_atom_site_label
_atom_site_fract_x
_atom_site_fract_y
_atom_site_fract_z
Si Si1 0.319564 0.312594 0.493240
Si Si2 0.680101 0.475324 0.816188
Si Si3 0.671180 0.839998 0.537438
Si Si4 0.819788 0.551041 0.556117
Si Si5 0.830401 0.972239 0.571148
Si Si6 0.820462 0.334404 0.861923
Si Si7 0.674282 0.199423 0.810681
Si Si8 0.167144 0.897831 0.102080
O O1 0.500000 0.314531 0.489748
O O2 0.273464 0.237740 0.469091
O O3 0.250361 0.375360 0.456214
O O4 0.280541 0.323403 0.565685
O O5 0.750000 0.496143 0.750000
O O6 0.500000 0.473005 0.810880
O O7 0.719068 0.521735 0.876057
O O8 0.743586 0.401121 0.834136
O O9 0.500000 0.839497 0.561604
O O10 0.773461 0.894701 0.572322
O O11 0.662574 0.870269 0.467968
O O12 0.772057 0.500000 0.500000
O O13 0.000000 0.555567 0.552759
O O14 0.000000 0.978120 0.594605
O O15 0.832872 0.000000 0.500000
O O16 0.715423 0.023719 0.603378
O O17 0.760875 0.268763 0.826262
O O18 0.000000 0.339735 0.857007
O O19 0.750000 0.169342 0.750000
O O20 0.500000 0.212655 0.802759
O O21 0.708304 0.146708 0.864720
O O22 0.000000 0.886881 0.128150
#
# Coordination Sequence:
#
# PCOD9414801 Si02
#       8
#     8   8   8   8   8   8   8   8
#     4  10  20  33  53  79 107 140 178 217 264 323
#     4  11  23  39  57  79 106 140 180 225 271 322
#     4   9  17  31  48  71 101 133 167 206 255 309
#     4  10  21  37  55  78 108 139 176 222 273 324
#     4   9  17  28  44  71  99 128 166 203 245 297
#     4  11  21  36  54  76 105 140 180 220 263 317
#     4  12  24  36  50  70 100 139 181 223 263 311
#     4  10  18  32  50  69  98 134 171 212 257 304
#
# _framework density 16.885062999999999
#
# number of rings (size 3 to 8) (size 9 to 14) (size 15 to 20)
#    0.000    1.750    2.500    3.000    0.000    4.250 
#    0.000    0.000    0.000    0.000    0.000    0.875 
#    0.000    4.000    0.000    0.000    0.000    0.000 
#
# Total GULP energy -356987.697997 kJ/mol
# GULP energy per Si atom -5577.932781 kJ/mol
# Density = 1.684663 g / cm^3
# Si number density = 16.885063 Si / 1000 Ang^3
#
#
#
# Elastic Constant Matrix: (Units=GPa)
#
#
# Indices 1 2 3 4 5 6 
#
# 1 51.4958 25.3718 19.1630 0.0000 0.0000 0.0000
# 2 25.3718 111.7998 23.1752 0.0000 0.0000 0.0000
# 3 19.1630 23.1752 42.3862 0.0000 0.0000 0.0000
# 4 0.0000 0.0000 0.0000 -13.7352 0.0000 0.0000
# 5 0.0000 0.0000 0.0000 0.0000 21.3632 0.0000
# 6 0.0000 0.0000 0.0000 0.0000 0.0000 21.2990
#
#
#
# Elastic Compliance Matrix: (Units=1/GPa)
#
#
# Indices 1 2 3 4 5 6 
#
# 1 0.024634 -0.003701 -0.009113 0.000000 0.000000 0.000000
# 2 -0.003701 0.010644 -0.004146 0.000000 0.000000 0.000000
# 3 -0.009113 -0.004146 0.029980 0.000000 0.000000 0.000000
# 4 0.000000 0.000000 0.000000 -0.072806 0.000000 0.000000
# 5 0.000000 0.000000 0.000000 0.000000 0.046810 0.000000
# 6 0.000000 0.000000 0.000000 0.000000 0.000000 0.046950
#
#
# Mechanical properties :
#
#
# Convention : Reuss Voigt Hill
#
# Bulk Modulus (GPa) = 31.91244 37.90022 34.90633
# Shear Modulus (GPa) = 38.29081 14.98353 26.63717
#
# Velocity S-wave (km/s) = 4.76724 2.98213 3.97616
# Velocity P-wave (km/s) = 7.01733 5.86107 6.46510
#
# Compressibility (1/GPa) = 0.03133574
#
# Stress axis : x y z
#
# Youngs Moduli (GPa) = 40.59429 93.94923 33.35565
#
# Poissons Ratio (x) = 0.34773 0.30398
# Poissons Ratio (y) = 0.15025 0.13831
# Poissons Ratio (z) = 0.36995 0.38955
#
# Static dielectric constant tensor:
#      x y z
#    x 1.575010 0.000000 0.000000 
#    y 0.000000 1.560230 0.000000 
#    z 0.000000 0.000000 1.632140 
# 
# From -- ./inp_files/31127.got.cif
#   From: 2010.05.17/outbox.cif.g08.bks.cpg/sg53_16_cif.got.tgz:31127.got - 2010.06.03 12:45:16.
