data_PCOD9414024
_publ_section_title
;
Structure prediction by ZEFSAII (Michael W. Deem and Ramdas Pophale) SiO2 
 PCOD9414024
Probable space group: P N N A
;
_chemical_formula_sum "Si O2"
_cell_formula_units_Z 48
_cell_length_a 9.000000
_cell_length_b 15.000000
_cell_length_c 18.000000
_cell_angle_alpha 90.000000
_cell_angle_beta 90.000000
_cell_angle_gamma 90.000000
_cell_volume 2430.000000
_symmetry_space_group_name_H-M "P N N A"
_symmetry_group_IT_number 52
_symmetry_cell_setting 'orthorhombic'
loop_
_space_group_symop_operation_xyz
x,y,z
1/2-x,-y,z
x,1/2-y,1/2-z
1/2-x,1/2+y,1/2-z
-x,-y,-z
1/2+x,y,-z
-x,1/2+y,1/2+z
1/2+x,1/2-y,1/2+z
loop_
_atom_site_type_symbol
_atom_site_label
_atom_site_fract_x
_atom_site_fract_y
_atom_site_fract_z
Si Si1 0.996896 0.990452 0.193254
Si Si2 0.750000 0.000000 0.310026
Si Si3 0.083041 0.647525 0.916319
Si Si4 0.276891 0.146022 0.419724
Si Si5 0.531460 0.856804 0.079533
Si Si6 0.750000 0.500000 0.802119
Si Si7 0.828846 0.147682 0.915566
O O1 0.083070 0.914335 0.144210
O O2 0.873007 0.959501 0.252885
O O3 0.928023 0.065012 0.137766
O O4 0.122592 0.035020 0.246526
O O5 0.832764 0.077658 0.360271
O O6 0.087424 0.755675 0.898858
O O7 0.903590 0.635333 0.922019
O O8 0.155689 0.631073 0.997926
O O9 0.318882 0.074962 0.356316
O O10 0.332494 0.245782 0.398814
O O11 0.350314 0.866121 0.078157
O O12 0.597206 0.870127 0.996540
#
# Coordination Sequence:
#
# PCOD9414024 Si02
#       7
#     8   4   8   8   8   4   8
#     4  12  25  42  64 100 138 179 220 279 347 406
#     4  12  27  42  63 100 142 182 222 282 347 408
#     4  10  23  44  67  96 130 177 231 278 337 398
#     4  10  23  42  69  94 130 177 228 285 330 402
#     4  10  22  43  70  95 130 176 227 281 333 402
#     4  12  23  42  63  96 134 180 222 274 349 404
#     4  10  22  43  68  98 127 176 233 277 334 401
#
# _framework density 19.753086
#
# number of rings (size 3 to 8) (size 9 to 14) (size 15 to 20)
#    0.000    1.333    3.333    1.000    4.667    2.667 
#    0.000    1.667    0.000    0.000    0.000    0.000 
#    0.000    0.000    0.000    0.000    0.000    0.000 
#
# Total GULP energy -267833.882910 kJ/mol
# GULP energy per Si atom -5579.872561 kJ/mol
# Density = 1.970813 g / cm^3
# Si number density = 19.753086 Si / 1000 Ang^3
#
#
#
# Elastic Constant Matrix: (Units=GPa)
#
#
# Indices 1 2 3 4 5 6 
#
# 1 93.2735 36.0189 50.1588 0.0000 0.0000 0.0000
# 2 36.0189 124.8972 84.6988 0.0000 0.0000 0.0000
# 3 50.1588 84.6988 147.3264 0.0000 0.0000 0.0000
# 4 0.0000 0.0000 0.0000 35.2558 0.0000 0.0000
# 5 0.0000 0.0000 0.0000 0.0000 49.6697 0.0000
# 6 0.0000 0.0000 0.0000 0.0000 0.0000 35.5715
#
#
#
# Elastic Compliance Matrix: (Units=1/GPa)
#
#
# Indices 1 2 3 4 5 6 
#
# 1 0.013242 -0.001248 -0.003791 0.000000 0.000000 0.000000
# 2 -0.001248 0.013240 -0.007187 0.000000 0.000000 0.000000
# 3 -0.003791 -0.007187 0.012210 0.000000 0.000000 0.000000
# 4 0.000000 0.000000 0.000000 0.028364 0.000000 0.000000
# 5 0.000000 0.000000 0.000000 0.000000 0.020133 0.000000
# 6 0.000000 0.000000 0.000000 0.000000 0.000000 0.028112
#
#
# Mechanical properties :
#
#
# Convention : Reuss Voigt Hill
#
# Bulk Modulus (GPa) = 70.22253 78.58334 74.40293
# Shear Modulus (GPa) = 34.60202 37.07410 35.83806
#
# Velocity S-wave (km/s) = 4.18990 4.33699 4.26408
# Velocity P-wave (km/s) = 7.68338 8.05906 7.87347
#
# Compressibility (1/GPa) = 0.01424044
#
# Stress axis : x y z
#
# Youngs Moduli (GPa) = 75.51945 75.52629 81.89915
#
# Poissons Ratio (x) = 0.09426 0.31046
# Poissons Ratio (y) = 0.09425 0.58862
# Poissons Ratio (z) = 0.28627 0.54281
#
# Static dielectric constant tensor:
#      x y z
#    x 1.735720 0.000000 0.000000 
#    y 0.000000 1.729640 0.000000 
#    z 0.000000 0.000000 1.682460 
# 
# From -- ./inp_files/31269.got.cif
#   From: 2010.05.17/outbox.ucp.g08.bks.cvg/sg52_16_cif.got.tgz:31269.got - 2010.06.11 16:30:12.
