data_PCOD9414223
_publ_section_title
;
Structure prediction by ZEFSAII (Michael W. Deem and Ramdas Pophale) SiO2 
 PCOD9414223
Probable space group: P M N A
;
_chemical_formula_sum "Si O2"
_cell_formula_units_Z 40
_cell_length_a 9.004334
_cell_length_b 7.907432
_cell_length_c 27.138148
_cell_angle_alpha 90.000000
_cell_angle_beta 90.000000
_cell_angle_gamma 90.000000
_cell_volume 1932.267586
_symmetry_space_group_name_H-M "P M N A"
_symmetry_group_IT_number 53
_symmetry_cell_setting 'orthorhombic'
loop_
_space_group_symop_operation_xyz
x,y,z
1/2-x,-y,1/2+z
x,-y,-z
1/2-x,y,1/2-z
-x,-y,-z
1/2+x,y,1/2-z
-x,y,z
1/2+x,-y,1/2+z
loop_
_atom_site_type_symbol
_atom_site_label
_atom_site_fract_x
_atom_site_fract_y
_atom_site_fract_z
Si Si1 0.179671 0.304476 0.798562
Si Si2 0.164910 0.799339 0.503945
Si Si3 0.822638 0.681746 0.700819
Si Si4 0.167924 0.705469 0.897380
Si Si5 0.832475 0.701308 0.093706
O O1 0.250000 0.219690 0.750000
O O2 0.258309 0.489183 0.800118
O O3 0.209821 0.225933 0.852492
O O4 0.000000 0.322607 0.794057
O O5 0.267785 0.758162 0.550193
O O6 0.227731 0.737080 0.451961
O O7 0.000000 0.728990 0.512838
O O8 0.156708 0.000000 0.500000
O O9 0.750000 0.759865 0.750000
O O10 0.767330 0.758511 0.649221
O O11 0.000000 0.679821 0.704330
O O12 0.163228 0.501078 0.899103
O O13 0.000000 0.767068 0.890364
O O14 0.000000 0.758735 0.081663
#
# Coordination Sequence:
#
# PCOD9414223 Si02
#       5
#     8   8   8   8   8
#     4   9  16  27  45  73 106 135 167 206 250 300
#     4  11  24  38  52  74 103 135 173 216 261 311
#     4  10  17  27  46  74 107 138 168 205 252 301
#     4  10  20  35  55  79 105 134 172 215 257 304
#     4   9  19  34  53  78 105 134 171 213 254 304
#
# _framework density 20.701067999999999
#
# number of rings (size 3 to 8) (size 9 to 14) (size 15 to 20)
#    0.000    2.200    0.000    6.600    0.000    8.800 
#    0.000    0.000    0.000    1.200    0.000    2.800 
#    0.000    0.000    0.000    0.000    0.000    0.000 
#
# Total GULP energy -223148.818530 kJ/mol
# GULP energy per Si atom -5578.720463 kJ/mol
# Density = 2.065395 g / cm^3
# Si number density = 20.701068 Si / 1000 Ang^3
#
#
#
# Elastic Constant Matrix: (Units=GPa)
#
#
# Indices 1 2 3 4 5 6 
#
# 1 153.5792 9.2335 91.2134 0.0000 0.0000 0.0000
# 2 9.2335 13.8963 9.4332 0.0000 0.0000 0.0000
# 3 91.2134 9.4332 183.2148 0.0000 0.0000 0.0000
# 4 0.0000 0.0000 0.0000 -32.1474 0.0000 0.0000
# 5 0.0000 0.0000 0.0000 0.0000 45.5752 0.0000
# 6 0.0000 0.0000 0.0000 0.0000 0.0000 -7.5984
#
#
#
# Elastic Compliance Matrix: (Units=1/GPa)
#
#
# Indices 1 2 3 4 5 6 
#
# 1 0.009378 -0.003173 -0.004505 0.000000 0.000000 0.000000
# 2 -0.003173 0.075641 -0.002315 0.000000 0.000000 0.000000
# 3 -0.004505 -0.002315 0.007820 0.000000 0.000000 0.000000
# 4 0.000000 0.000000 0.000000 -0.031107 0.000000 0.000000
# 5 0.000000 0.000000 0.000000 0.000000 0.021942 0.000000
# 6 0.000000 0.000000 0.000000 0.000000 0.000000 -0.131606
#
#
# Mechanical properties :
#
#
# Convention : Reuss Voigt Hill
#
# Bulk Modulus (GPa) = 13.72625 63.38338 38.55481
# Shear Modulus (GPa) = -1365.68214 17.21991 -674.23112
#
# Velocity S-wave (km/s) = -25.71280 2.88729 -18.06670
# Velocity P-wave (km/s) = 29.57846 6.46530 20.40938
#
# Compressibility (1/GPa) = 0.07285312
#
# Stress axis : x y z
#
# Youngs Moduli (GPa) = 106.63361 13.22029 127.87255
#
# Poissons Ratio (x) = 0.04195 0.57612
# Poissons Ratio (y) = 0.33833 0.29602
# Poissons Ratio (z) = 0.48043 0.03060
#
# Static dielectric constant tensor:
#      x y z
#    x 1.729540 0.000000 0.000000 
#    y 0.000000 1.744460 0.000000 
#    z 0.000000 0.000000 1.802360 
# 
# From -- ./inp_files/36025.got.cif
#   From: 2010.05.17/outbox.cif.g08.bks.cpg/sg53_19_cif.got.tgz:36025.got - 2010.06.03 12:45:16.
