data_PCOD9414996
_publ_section_title
;
Structure prediction by ZEFSAII (Michael W. Deem and Ramdas Pophale) SiO2 
 PCOD9414996
Probable space group: P M N A
;
_chemical_formula_sum "Si O2"
_cell_formula_units_Z 52
_cell_length_a 9.437213
_cell_length_b 11.927502
_cell_length_c 23.418922
_cell_angle_alpha 90.000000
_cell_angle_beta 90.000000
_cell_angle_gamma 90.000000
_cell_volume 2636.089526
_symmetry_space_group_name_H-M "P M N A"
_symmetry_group_IT_number 53
_symmetry_cell_setting 'orthorhombic'
loop_
_space_group_symop_operation_xyz
x,y,z
1/2-x,-y,1/2+z
x,-y,-z
1/2-x,y,1/2-z
-x,-y,-z
1/2+x,y,1/2-z
-x,y,z
1/2+x,-y,1/2+z
loop_
_atom_site_type_symbol
_atom_site_label
_atom_site_fract_x
_atom_site_fract_y
_atom_site_fract_z
Si Si1 0.164534 0.117193 0.475779
Si Si2 0.164070 0.892000 0.660974
Si Si3 0.167971 0.328943 0.194410
Si Si4 0.329720 0.560303 0.352923
Si Si5 0.334083 0.257554 0.559484
Si Si6 0.250000 0.704602 0.250000
Si Si7 0.155798 0.894348 0.171476
O O1 0.170625 0.111654 0.407810
O O2 0.246228 0.218364 0.505374
O O3 0.000000 0.124387 0.493270
O O4 0.223747 0.000000 0.500000
O O5 0.259330 0.788774 0.681014
O O6 0.228945 0.009819 0.681208
O O7 0.000000 0.880460 0.678813
O O8 0.250000 0.372393 0.250000
O O9 0.189646 0.427136 0.147956
O O10 0.000000 0.316683 0.203939
O O11 0.500000 0.579956 0.339823
O O12 0.299635 0.622881 0.412091
O O13 0.234697 0.620196 0.303796
O O14 0.500000 0.255622 0.545583
O O15 0.311557 0.169407 0.611819
O O16 0.150602 0.797217 0.219241
O O17 0.000000 0.946957 0.166848
#
# Coordination Sequence:
#
# PCOD9414996 Si02
#       7
#     8   8   8   8   8   4   8
#     4  10  20  37  57  82 116 152 190 237 291 343
#     4  11  24  40  58  82 117 156 196 237 285 346
#     4  11  23  42  64  85 116 155 196 237 283 340
#     4   9  19  37  59  86 116 150 191 240 287 341
#     4   9  18  34  59  88 115 144 188 236 285 342
#     4  10  18  34  56  82 116 148 184 238 288 344
#     4  10  21  35  54  85 119 150 187 236 290 344
#
# _framework density 19.726189999999999
#
# number of rings (size 3 to 8) (size 9 to 14) (size 15 to 20)
#    0.000    2.000    2.308    2.308    1.077    2.769 
#    0.000    6.923    0.000    4.615    0.000    0.000 
#    0.000    0.000    0.000    0.000    0.000    0.000 
#
# Total GULP energy -289746.376339 kJ/mol
# GULP energy per Si atom -5572.045699 kJ/mol
# Density = 1.968129 g / cm^3
# Si number density = 19.726190 Si / 1000 Ang^3
#
#
#
# Elastic Constant Matrix: (Units=GPa)
#
#
# Indices 1 2 3 4 5 6 
#
# 1 73.2316 41.3028 9.5524 0.0000 0.0000 0.0000
# 2 41.3028 89.4134 -9.0081 0.0000 0.0000 0.0000
# 3 9.5524 -9.0081 19.5219 0.0000 0.0000 0.0000
# 4 0.0000 0.0000 0.0000 18.8965 0.0000 0.0000
# 5 0.0000 0.0000 0.0000 0.0000 19.8801 0.0000
# 6 0.0000 0.0000 0.0000 0.0000 0.0000 -12.6082
#
#
#
# Elastic Compliance Matrix: (Units=1/GPa)
#
#
# Indices 1 2 3 4 5 6 
#
# 1 0.022702 -0.012172 -0.016725 0.000000 0.000000 0.000000
# 2 -0.012172 0.018255 0.014379 0.000000 0.000000 0.000000
# 3 -0.016725 0.014379 0.066043 0.000000 0.000000 0.000000
# 4 0.000000 0.000000 0.000000 0.052920 0.000000 0.000000
# 5 0.000000 0.000000 0.000000 0.000000 0.050301 0.000000
# 6 0.000000 0.000000 0.000000 0.000000 0.000000 -0.079313
#
#
# Mechanical properties :
#
#
# Convention : Reuss Voigt Hill
#
# Bulk Modulus (GPa) = 12.82610 29.54013 21.18311
# Shear Modulus (GPa) = 26.89172 14.58834 20.74003
#
# Velocity S-wave (km/s) = 3.69623 2.72240 3.24604
# Velocity P-wave (km/s) = 4.97316 4.98894 4.98106
#
# Compressibility (1/GPa) = 0.07796603
#
# Stress axis : x y z
#
# Youngs Moduli (GPa) = 44.04957 54.77922 15.14160
#
# Poissons Ratio (x) = 0.66675 0.25324
# Poissons Ratio (y) = 0.53615 -0.21773
# Poissons Ratio (z) = 0.73672 -0.78769
#
# Static dielectric constant tensor:
#      x y z
#    x 1.681860 0.000000 0.000000 
#    y 0.000000 1.707080 0.000000 
#    z 0.000000 0.000000 1.712620 
# 
# From -- ./inp_files/36291.got.cif
#   From: 2010.05.17/outbox.cif.g08.bks.cpg/sg53_19_cif.got.tgz:36291.got - 2010.06.03 12:45:16.
