data_PCOD9414239
_publ_section_title
;
Structure prediction by ZEFSAII (Michael W. Deem and Ramdas Pophale) SiO2 
 PCOD9414239
Probable space group: P M N A
;
_chemical_formula_sum "Si O2"
_cell_formula_units_Z 48
_cell_length_a 10.609044
_cell_length_b 10.300077
_cell_length_c 27.438823
_cell_angle_alpha 90.000000
_cell_angle_beta 90.000000
_cell_angle_gamma 90.000000
_cell_volume 2998.349124
_symmetry_space_group_name_H-M "P M N A"
_symmetry_group_IT_number 53
_symmetry_cell_setting 'orthorhombic'
loop_
_space_group_symop_operation_xyz
x,y,z
1/2-x,-y,1/2+z
x,-y,-z
1/2-x,y,1/2-z
-x,-y,-z
1/2+x,y,1/2-z
-x,y,z
1/2+x,-y,1/2+z
loop_
_atom_site_type_symbol
_atom_site_label
_atom_site_fract_x
_atom_site_fract_y
_atom_site_fract_z
Si Si1 0.647860 0.621833 0.536144
Si Si2 0.743420 0.479072 0.364209
Si Si3 0.000000 0.796394 0.311554
Si Si4 0.000000 0.203885 0.800688
Si Si5 0.000000 0.481097 0.310334
Si Si6 0.741763 0.205529 0.634144
Si Si7 0.651215 0.132273 0.529096
Si Si8 0.000000 0.481257 0.199192
O O1 0.656893 0.500000 0.500000
O O2 0.500000 0.635376 0.549962
O O3 0.725493 0.590169 0.584272
O O4 0.686091 0.748517 0.506125
O O5 0.873553 0.443353 0.338354
O O6 0.739580 0.636424 0.371137
O O7 0.625419 0.443998 0.329865
O O8 0.000000 0.842375 0.255327
O O9 0.000000 0.638798 0.309058
O O10 0.873162 0.832286 0.340479
O O11 0.874679 0.167974 0.830652
O O12 0.000000 0.361311 0.798948
O O13 0.000000 0.434398 0.254680
O O14 0.719821 0.145753 0.580855
O O15 0.500000 0.142636 0.538577
O O16 0.674770 0.000000 0.500000
#
# Coordination Sequence:
#
# PCOD9414239 Si02
#       8
#     8   8   4   4   4   8   8   4
#     4  10  18  29  50  73  95 124 164 198 236 284
#     4  10  17  28  46  72  97 131 161 197 244 287
#     4   9  18  28  42  71 103 130 157 197 244 295
#     4   9  16  26  46  69  97 130 165 195 238 289
#     4   9  18  28  40  68 109 129 153 199 248 293
#     4  10  17  29  47  70 101 129 158 199 246 283
#     4  10  20  33  50  74  98 128 165 205 244 285
#     4   9  16  26  44  68  97 133 165 193 238 291
#
# _framework density 16.00881
#
# number of rings (size 3 to 8) (size 9 to 14) (size 15 to 20)
#    0.000    2.333    3.333    1.000    0.000    4.000 
#    0.000    1.667    0.000    0.000    0.000    7.000 
#    0.000    0.000    0.000    0.000    0.000    0.000 
#
# Total GULP energy -267544.470361 kJ/mol
# GULP energy per Si atom -5573.843133 kJ/mol
# Density = 1.597237 g / cm^3
# Si number density = 16.008810 Si / 1000 Ang^3
#
#
#
# Elastic Constant Matrix: (Units=GPa)
#
#
# Indices 1 2 3 4 5 6 
#
# 1 134.8295 19.7788 90.5066 0.0000 0.0000 0.0000
# 2 19.7788 41.4532 32.3919 0.0000 0.0000 0.0000
# 3 90.5066 32.3919 171.7733 0.0000 0.0000 0.0000
# 4 0.0000 0.0000 0.0000 12.1249 0.0000 0.0000
# 5 0.0000 0.0000 0.0000 0.0000 4.3056 0.0000
# 6 0.0000 0.0000 0.0000 0.0000 0.0000 6.7934
#
#
#
# Elastic Compliance Matrix: (Units=1/GPa)
#
#
# Indices 1 2 3 4 5 6 
#
# 1 0.011503 -0.000883 -0.005894 0.000000 0.000000 0.000000
# 2 -0.000883 0.028360 -0.004883 0.000000 0.000000 0.000000
# 3 -0.005894 -0.004883 0.009848 0.000000 0.000000 0.000000
# 4 0.000000 0.000000 0.000000 0.082475 0.000000 0.000000
# 5 0.000000 0.000000 0.000000 0.000000 0.232256 0.000000
# 6 0.000000 0.000000 0.000000 0.000000 0.000000 0.147203
#
#
# Mechanical properties :
#
#
# Convention : Reuss Voigt Hill
#
# Bulk Modulus (GPa) = 37.89093 70.37894 54.13494
# Shear Modulus (GPa) = 9.19520 18.33669 13.76594
#
# Velocity S-wave (km/s) = 2.39923 3.38807 2.93558
# Velocity P-wave (km/s) = 5.60315 7.70476 6.73642
#
# Compressibility (1/GPa) = 0.02639154
#
# Stress axis : x y z
#
# Youngs Moduli (GPa) = 86.93394 35.26057 101.54150
#
# Poissons Ratio (x) = 0.03112 0.59853
# Poissons Ratio (y) = 0.07672 0.49583
# Poissons Ratio (z) = 0.51243 0.17218
#
# Static dielectric constant tensor:
#      x y z
#    x 1.531180 0.000000 0.000000 
#    y 0.000000 1.511890 0.000000 
#    z 0.000000 0.000000 1.525120 
# 
# From -- ./inp_files/34971.got.cif
#   From: 2010.05.17/outbox.cif.g08.bks.cpg/sg53_18_cif.got.tgz:34971.got - 2010.06.03 12:45:16.
