data_PCOD9414424
_publ_section_title
;
Structure prediction by ZEFSAII (Michael W. Deem and Ramdas Pophale) SiO2 
 PCOD9414424
Probable space group: P M N A
;
_chemical_formula_sum "Si O2"
_cell_formula_units_Z 56
_cell_length_a 9.063152
_cell_length_b 14.008116
_cell_length_c 28.861126
_cell_angle_alpha 90.000000
_cell_angle_beta 90.000000
_cell_angle_gamma 90.000000
_cell_volume 3664.141730
_symmetry_space_group_name_H-M "P M N A"
_symmetry_group_IT_number 53
_symmetry_cell_setting 'orthorhombic'
loop_
_space_group_symop_operation_xyz
x,y,z
1/2-x,-y,1/2+z
x,-y,-z
1/2-x,y,1/2-z
-x,-y,-z
1/2+x,y,1/2-z
-x,y,z
1/2+x,-y,1/2+z
loop_
_atom_site_type_symbol
_atom_site_label
_atom_site_fract_x
_atom_site_fract_y
_atom_site_fract_z
Si Si1 0.675828 0.714606 0.969276
Si Si2 0.823549 0.488512 0.701927
Si Si3 0.672240 0.604852 0.448740
Si Si4 0.677898 0.893569 0.484102
Si Si5 0.822684 0.568309 0.604499
Si Si6 0.172141 0.798549 0.110374
Si Si7 0.323808 0.264029 0.798826
O O1 0.500000 0.722601 0.974480
O O2 0.709112 0.670207 0.918910
O O3 0.738492 0.638412 0.006291
O O4 0.750706 0.814212 0.982729
O O5 0.750000 0.517552 0.750000
O O6 0.779424 0.551400 0.657732
O O7 0.785788 0.376625 0.693276
O O8 0.000000 0.493211 0.706750
O O9 0.500000 0.590517 0.459932
O O10 0.742282 0.512940 0.425172
O O11 0.681783 0.693940 0.413275
O O12 0.500000 0.881992 0.485842
O O13 0.721678 0.869357 0.430953
O O14 0.715497 0.000000 0.500000
O O15 0.000000 0.553031 0.601296
O O16 0.263690 0.794878 0.157501
O O17 0.000000 0.817260 0.120790
O O18 0.250000 0.236615 0.750000
O O19 0.500000 0.256733 0.795630
#
# Coordination Sequence:
#
# PCOD9414424 Si02
#       7
#     8   8   8   8   8   8   8
#     4  10  20  31  46  67  93 122 154 190 229 277
#     4   9  18  30  43  61  88 123 161 194 227 266
#     4  10  19  29  43  64  93 126 160 192 223 265
#     4   9  19  36  54  71  94 121 151 193 241 285
#     4  10  19  31  44  63  93 127 157 190 231 269
#     4   9  17  29  45  67  92 121 155 189 229 276
#     4  10  18  28  44  64  91 125 158 192 226 268
#
# _framework density 15.283251999999999
#
# number of rings (size 3 to 8) (size 9 to 14) (size 15 to 20)
#    0.000    2.429    1.429    2.571    0.000    6.571 
#    0.000    0.000    0.000    0.000    0.000    1.000 
#    0.000    4.571    0.000    0.000    0.000    0.000 
#
# Total GULP energy -312171.271334 kJ/mol
# GULP energy per Si atom -5574.486988 kJ/mol
# Density = 1.524847 g / cm^3
# Si number density = 15.283252 Si / 1000 Ang^3
#
#
#
# Elastic Constant Matrix: (Units=GPa)
#
#
# Indices 1 2 3 4 5 6 
#
# 1 34.5437 33.9028 47.5684 0.0000 0.0000 0.0000
# 2 33.9028 73.7690 73.5527 0.0000 0.0000 0.0000
# 3 47.5684 73.5527 130.3984 0.0000 0.0000 0.0000
# 4 0.0000 0.0000 0.0000 17.4303 0.0000 0.0000
# 5 0.0000 0.0000 0.0000 0.0000 25.6716 0.0000
# 6 0.0000 0.0000 0.0000 0.0000 0.0000 8.9256
#
#
#
# Elastic Compliance Matrix: (Units=1/GPa)
#
#
# Indices 1 2 3 4 5 6 
#
# 1 0.063930 -0.014004 -0.015422 0.000000 0.000000 0.000000
# 2 -0.014004 0.034046 -0.014095 0.000000 0.000000 0.000000
# 3 -0.015422 -0.014095 0.021245 0.000000 0.000000 0.000000
# 4 0.000000 0.000000 0.000000 0.057371 0.000000 0.000000
# 5 0.000000 0.000000 0.000000 0.000000 0.038954 0.000000
# 6 0.000000 0.000000 0.000000 0.000000 0.000000 0.112037
#
#
# Mechanical properties :
#
#
# Convention : Reuss Voigt Hill
#
# Bulk Modulus (GPa) = 31.07699 60.97321 46.02510
# Shear Modulus (GPa) = 11.75494 15.98463 13.86979
#
# Velocity S-wave (km/s) = 2.77634 3.23753 3.01577
# Velocity P-wave (km/s) = 5.53675 7.34558 6.50435
#
# Compressibility (1/GPa) = 0.03217815
#
# Stress axis : x y z
#
# Youngs Moduli (GPa) = 15.64202 29.37205 47.06938
#
# Poissons Ratio (x) = 0.41134 0.72590
# Poissons Ratio (y) = 0.21906 0.66346
# Poissons Ratio (z) = 0.24123 0.41401
#
# Static dielectric constant tensor:
#      x y z
#    x 1.509390 0.000000 0.000000 
#    y 0.000000 1.489160 0.000000 
#    z 0.000000 0.000000 1.518250 
# 
# From -- ./inp_files/38317.got.cif
#   From: 2010.05.17/outbox.cif.g08.bks.cpg/sg53_20_cif.got.tgz:38317.got - 2010.06.03 12:45:16.
