data_PCOD9414724
_publ_section_title
;
Structure prediction by ZEFSAII (Michael W. Deem and Ramdas Pophale) SiO2 
 PCOD9414724
Probable space group: P M N A
;
_chemical_formula_sum "Si O2"
_cell_formula_units_Z 48
_cell_length_a 21.401021
_cell_length_b 5.141145
_cell_length_c 18.792875
_cell_angle_alpha 90.000000
_cell_angle_beta 90.000000
_cell_angle_gamma 90.000000
_cell_volume 2067.700206
_symmetry_space_group_name_H-M "P M N A"
_symmetry_group_IT_number 53
_symmetry_cell_setting 'orthorhombic'
loop_
_space_group_symop_operation_xyz
x,y,z
1/2-x,-y,1/2+z
x,-y,-z
1/2-x,y,1/2-z
-x,-y,-z
1/2+x,y,1/2-z
-x,y,z
1/2+x,-y,1/2+z
loop_
_atom_site_type_symbol
_atom_site_label
_atom_site_fract_x
_atom_site_fract_y
_atom_site_fract_z
Si Si1 0.874611 0.087566 0.072661
Si Si2 0.652075 0.590771 0.101549
Si Si3 0.315385 0.343328 0.742216
Si Si4 0.569226 0.971558 0.719384
Si Si5 0.572504 0.882162 0.883036
Si Si6 0.206065 0.432473 0.909181
O O1 0.916189 0.154726 0.142151
O O2 0.829707 0.842113 0.089127
O O3 0.829821 0.329487 0.054888
O O4 0.909478 0.000000 0.000000
O O5 0.670022 0.525661 0.183442
O O6 0.612837 0.857662 0.102715
O O7 0.721793 0.609929 0.070068
O O8 0.608104 0.353991 0.078349
O O9 0.250000 0.184604 0.750000
O O10 0.376306 0.178469 0.727448
O O11 0.300709 0.518525 0.674442
O O12 0.500000 0.089389 0.714514
O O13 0.570248 0.831211 0.796650
O O14 0.500000 0.910447 0.904814
#
# Coordination Sequence:
#
# PCOD9414724 Si02
#       6
#     8   8   8   8   8   8
#     4  11  22  37  54  74 102 137 184 236 272 300
#     4  10  18  31  51  76 106 139 172 209 265 329
#     4   8  16  30  51  76 103 137 177 222 268 322
#     4   9  19  34  52  76 109 149 186 219 262 316
#     4  10  19  31  49  78 115 146 172 205 254 324
#     4  10  20  35  54  76 101 132 177 228 277 320
#
# _framework density 23.214196000000001
#
# number of rings (size 3 to 8) (size 9 to 14) (size 15 to 20)
#    0.000    2.333    0.000    3.000    0.000    2.333 
#    0.000   11.667    0.000    5.000    0.000    0.000 
#    0.000   46.667    0.000    3.667    0.000    1.333 
#
# Total GULP energy -267381.151705 kJ/mol
# GULP energy per Si atom -5570.440661 kJ/mol
# Density = 2.316136 g / cm^3
# Si number density = 23.214196 Si / 1000 Ang^3
#
#
#
# Elastic Constant Matrix: (Units=GPa)
#
#
# Indices 1 2 3 4 5 6 
#
# 1 160.0816 27.1596 -2.1334 0.0000 0.0000 0.0000
# 2 27.1596 91.2190 7.8626 0.0000 0.0000 0.0000
# 3 -2.1334 7.8626 55.2348 0.0000 0.0000 0.0000
# 4 0.0000 0.0000 0.0000 20.8503 0.0000 0.0000
# 5 0.0000 0.0000 0.0000 0.0000 4.8709 0.0000
# 6 0.0000 0.0000 0.0000 0.0000 0.0000 22.9753
#
#
#
# Elastic Compliance Matrix: (Units=1/GPa)
#
#
# Indices 1 2 3 4 5 6 
#
# 1 0.006595 -0.002010 0.000541 0.000000 0.000000 0.000000
# 2 -0.002010 0.011712 -0.001745 0.000000 0.000000 0.000000
# 3 0.000541 -0.001745 0.018374 0.000000 0.000000 0.000000
# 4 0.000000 0.000000 0.000000 0.047961 0.000000 0.000000
# 5 0.000000 0.000000 0.000000 0.000000 0.205303 0.000000
# 6 0.000000 0.000000 0.000000 0.000000 0.000000 0.043525
#
#
# Mechanical properties :
#
#
# Convention : Reuss Voigt Hill
#
# Bulk Modulus (GPa) = 33.05548 41.36811 37.21179
# Shear Modulus (GPa) = 14.28648 27.98242 21.13445
#
# Velocity S-wave (km/s) = 2.48346 3.47566 3.02057
# Velocity P-wave (km/s) = 4.74275 5.82802 5.31316
#
# Compressibility (1/GPa) = 0.03025217
#
# Stress axis : x y z
#
# Youngs Moduli (GPa) = 151.62815 85.38582 54.42538
#
# Poissons Ratio (x) = 0.17165 -0.02944
# Poissons Ratio (y) = 0.30481 0.09496
# Poissons Ratio (z) = -0.08201 0.14898
#
# Static dielectric constant tensor:
#      x y z
#    x 1.860850 0.000000 0.000000 
#    y 0.000000 1.806940 0.000000 
#    z 0.000000 0.000000 2.103120 
# 
# From -- ./inp_files/32950.got.cif
#   From: 2010.05.17/outbox.cif.g08.bks.cpg/sg53_17_cif.got.tgz:32950.got - 2010.06.03 12:45:16.
