data_PCOD9414177
_publ_section_title
;
Structure prediction by ZEFSAII (Michael W. Deem and Ramdas Pophale) SiO2 
 PCOD9414177
Probable space group: P M N A
;
_chemical_formula_sum "Si O2"
_cell_formula_units_Z 56
_cell_length_a 7.865408
_cell_length_b 14.320964
_cell_length_c 29.164833
_cell_angle_alpha 90.000000
_cell_angle_beta 90.000000
_cell_angle_gamma 90.000000
_cell_volume 3285.133346
_symmetry_space_group_name_H-M "P M N A"
_symmetry_group_IT_number 53
_symmetry_cell_setting 'orthorhombic'
loop_
_space_group_symop_operation_xyz
x,y,z
1/2-x,-y,1/2+z
x,-y,-z
1/2-x,y,1/2-z
-x,-y,-z
1/2+x,y,1/2-z
-x,y,z
1/2+x,-y,1/2+z
loop_
_atom_site_type_symbol
_atom_site_label
_atom_site_fract_x
_atom_site_fract_y
_atom_site_fract_z
Si Si1 0.706632 0.711762 0.035053
Si Si2 0.701758 0.479874 0.301312
Si Si3 0.705289 0.733488 0.698235
Si Si4 0.802440 0.807940 0.894578
Si Si5 0.798590 0.101274 0.487381
Si Si6 0.703531 0.428178 0.893395
Si Si7 0.706034 0.616725 0.941614
O O1 0.500000 0.719473 0.036666
O O2 0.767159 0.666378 0.082506
O O3 0.771689 0.812026 0.017478
O O4 0.744811 0.637751 0.994557
O O5 0.750000 0.508629 0.250000
O O6 0.500000 0.473426 0.304077
O O7 0.770050 0.373573 0.308431
O O8 0.759430 0.549936 0.340735
O O9 0.750000 0.761567 0.750000
O O10 0.500000 0.730968 0.694622
O O11 0.767638 0.800120 0.657194
O O12 0.721133 0.871765 0.933903
O O13 0.783712 0.702187 0.913273
O O14 0.000000 0.833884 0.892667
O O15 0.000000 0.098213 0.496862
O O16 0.726452 0.000000 0.500000
O O17 0.500000 0.427145 0.898537
O O18 0.765824 0.518532 0.921821
O O19 0.500000 0.621895 0.936989
#
# Coordination Sequence:
#
# PCOD9414177 Si02
#       7
#     8   8   8   8   8   8   8
#     4   8  15  27  43  65  89 114 148 185 217 260
#     4  10  19  31  43  60  88 121 158 191 221 260
#     4   9  18  29  42  61  88 120 152 184 216 258
#     4  10  18  29  44  66  93 120 149 185 229 269
#     4   9  18  33  51  69  89 116 152 190 227 273
#     4  10  17  26  43  64  88 120 153 184 221 258
#     4   9  16  26  41  61  88 122 154 180 209 254
#
# _framework density 17.046493000000002
#
# number of rings (size 3 to 8) (size 9 to 14) (size 15 to 20)
#    0.000    2.714    1.429    2.143    0.000    3.714 
#    0.000    2.857    0.000    4.286    0.000    1.000 
#    0.000    2.286    0.000    0.000    0.000    0.000 
#
# Total GULP energy -311946.053848 kJ/mol
# GULP energy per Si atom -5570.465247 kJ/mol
# Density = 1.700769 g / cm^3
# Si number density = 17.046493 Si / 1000 Ang^3
#
#
#
# Elastic Constant Matrix: (Units=GPa)
#
#
# Indices 1 2 3 4 5 6 
#
# 1 13.5344 5.8601 -4.4456 0.0000 0.0000 0.0000
# 2 5.8601 86.4122 73.9963 0.0000 0.0000 0.0000
# 3 -4.4456 73.9963 124.8847 0.0000 0.0000 0.0000
# 4 0.0000 0.0000 0.0000 16.5800 0.0000 0.0000
# 5 0.0000 0.0000 0.0000 0.0000 16.6461 0.0000
# 6 0.0000 0.0000 0.0000 0.0000 0.0000 11.7843
#
#
#
# Elastic Compliance Matrix: (Units=1/GPa)
#
#
# Indices 1 2 3 4 5 6 
#
# 1 0.085608 -0.017082 0.013169 0.000000 0.000000 0.000000
# 2 -0.017082 0.026900 -0.016547 0.000000 0.000000 0.000000
# 3 0.013169 -0.016547 0.018281 0.000000 0.000000 0.000000
# 4 0.000000 0.000000 0.000000 0.060314 0.000000 0.000000
# 5 0.000000 0.000000 0.000000 0.000000 0.060074 0.000000
# 6 0.000000 0.000000 0.000000 0.000000 0.000000 0.084859
#
#
# Mechanical properties :
#
#
# Convention : Reuss Voigt Hill
#
# Bulk Modulus (GPa) = 11.12747 41.73922 26.43334
# Shear Modulus (GPa) = 12.28766 18.96344 15.62555
#
# Velocity S-wave (km/s) = 2.68774 3.33897 3.03090
# Velocity P-wave (km/s) = 4.02167 6.27723 5.27150
#
# Compressibility (1/GPa) = 0.08986772
#
# Stress axis : x y z
#
# Youngs Moduli (GPa) = 11.68121 37.17414 54.70291
#
# Poissons Ratio (x) = 0.63503 -0.72039
# Poissons Ratio (y) = 0.19954 0.90517
# Poissons Ratio (z) = -0.15383 0.61512
#
# Static dielectric constant tensor:
#      x y z
#    x 1.615730 0.000000 0.000000 
#    y 0.000000 1.576200 0.000000 
#    z 0.000000 0.000000 1.597620 
# 
# From -- ./inp_files/38316.got.cif
#   From: 2010.05.17/outbox.cif.g08.bks.cpg/sg53_20_cif.got.tgz:38316.got - 2010.06.03 12:45:16.
