data_PCOD9414141
_publ_section_title
;
Structure prediction by ZEFSAII (Michael W. Deem and Ramdas Pophale) SiO2 
 PCOD9414141
Probable space group: P M N A
;
_chemical_formula_sum "Si O2"
_cell_formula_units_Z 40
_cell_length_a 8.404835
_cell_length_b 14.554214
_cell_length_c 18.490946
_cell_angle_alpha 90.000000
_cell_angle_beta 90.000000
_cell_angle_gamma 90.000000
_cell_volume 2261.919156
_symmetry_space_group_name_H-M "P M N A"
_symmetry_group_IT_number 53
_symmetry_cell_setting 'orthorhombic'
loop_
_space_group_symop_operation_xyz
x,y,z
1/2-x,-y,1/2+z
x,-y,-z
1/2-x,y,1/2-z
-x,-y,-z
1/2+x,y,1/2-z
-x,y,z
1/2+x,-y,1/2+z
loop_
_atom_site_type_symbol
_atom_site_label
_atom_site_fract_x
_atom_site_fract_y
_atom_site_fract_z
Si Si1 0.691734 0.461609 0.920189
Si Si2 0.188939 0.102906 0.480921
Si Si3 0.313841 0.710598 0.479114
Si Si4 0.815040 0.837713 0.826266
Si Si5 0.813913 0.650609 0.632123
O O1 0.500000 0.454162 0.918602
O O2 0.768543 0.361070 0.916128
O O3 0.736469 0.543807 0.865423
O O4 0.738321 0.500000 0.000000
O O5 0.274061 0.182092 0.528061
O O6 0.226533 0.123561 0.396776
O O7 0.000000 0.110187 0.492497
O O8 0.240821 0.000000 0.500000
O O9 0.500000 0.700311 0.496967
O O10 0.207327 0.679721 0.547876
O O11 0.750000 0.872808 0.750000
O O12 0.787635 0.727338 0.827873
O O13 0.000000 0.857435 0.833709
O O14 0.000000 0.658736 0.651485
#
# Coordination Sequence:
#
# PCOD9414141 Si02
#       5
#     8   8   8   8   8
#     4   8  14  24  38  57  85 119 149 179 216 262
#     4  10  20  34  51  70  95 127 164 208 256 301
#     4  10  17  24  39  63  91 120 151 190 233 279
#     4  11  21  33  50  71  98 128 160 199 243 297
#     4   9  16  27  42  61  88 120 153 187 226 273
#
# _framework density 17.684097999999999
#
# number of rings (size 3 to 8) (size 9 to 14) (size 15 to 20)
#    0.000    2.400    0.000    8.400    0.000    6.000 
#    0.000    0.000    0.000    0.000    0.000    1.400 
#    0.000    0.000    0.000    0.000    0.000    0.000 
#
# Total GULP energy -222729.674439 kJ/mol
# GULP energy per Si atom -5568.241861 kJ/mol
# Density = 1.764385 g / cm^3
# Si number density = 17.684098 Si / 1000 Ang^3
#
#
#
# Elastic Constant Matrix: (Units=GPa)
#
#
# Indices 1 2 3 4 5 6 
#
# 1 34.0233 11.8309 -4.5602 0.0000 0.0000 0.0000
# 2 11.8309 129.5069 20.0906 0.0000 0.0000 0.0000
# 3 -4.5602 20.0906 26.4129 0.0000 0.0000 0.0000
# 4 0.0000 0.0000 0.0000 6.5612 0.0000 0.0000
# 5 0.0000 0.0000 0.0000 0.0000 2.4157 0.0000
# 6 0.0000 0.0000 0.0000 0.0000 0.0000 19.9869
#
#
#
# Elastic Compliance Matrix: (Units=1/GPa)
#
#
# Indices 1 2 3 4 5 6 
#
# 1 0.032065 -0.004295 0.008803 0.000000 0.000000 0.000000
# 2 -0.004295 0.009330 -0.007838 0.000000 0.000000 0.000000
# 3 0.008803 -0.007838 0.045342 0.000000 0.000000 0.000000
# 4 0.000000 0.000000 0.000000 0.152412 0.000000 0.000000
# 5 0.000000 0.000000 0.000000 0.000000 0.413953 0.000000
# 6 0.000000 0.000000 0.000000 0.000000 0.000000 0.050033
#
#
# Mechanical properties :
#
#
# Convention : Reuss Voigt Hill
#
# Bulk Modulus (GPa) = 12.48808 27.18509 19.83658
# Shear Modulus (GPa) = 6.78899 16.63156 11.71028
#
# Velocity S-wave (km/s) = 1.96147 3.07005 2.57610
# Velocity P-wave (km/s) = 3.49384 5.28895 4.48218
#
# Compressibility (1/GPa) = 0.08007636
#
# Stress axis : x y z
#
# Youngs Moduli (GPa) = 31.18679 107.18248 22.05462
#
# Poissons Ratio (x) = 0.46033 -0.19414
# Poissons Ratio (y) = 0.13394 0.17287
# Poissons Ratio (z) = -0.27453 0.84011
#
# Static dielectric constant tensor:
#      x y z
#    x 1.583580 0.000000 0.000000 
#    y 0.000000 1.679760 0.000000 
#    z 0.000000 0.000000 1.630020 
# 
# From -- ./inp_files/25993.got.cif
#   From: 2010.05.17/outbox.cif.g08.bks.cpg/sg53_13_cif.got.tgz:25993.got - 2010.06.03 12:45:16.
