data_PCOD9414507
_publ_section_title
;
Structure prediction by ZEFSAII (Michael W. Deem and Ramdas Pophale) SiO2 
 PCOD9414507
Probable space group: P M N A
;
_chemical_formula_sum "Si O2"
_cell_formula_units_Z 56
_cell_length_a 9.311461
_cell_length_b 22.486075
_cell_length_c 14.339533
_cell_angle_alpha 90.000000
_cell_angle_beta 90.000000
_cell_angle_gamma 90.000000
_cell_volume 3002.385758
_symmetry_space_group_name_H-M "P M N A"
_symmetry_group_IT_number 53
_symmetry_cell_setting 'orthorhombic'
loop_
_space_group_symop_operation_xyz
x,y,z
1/2-x,-y,1/2+z
x,-y,-z
1/2-x,y,1/2-z
-x,-y,-z
1/2+x,y,1/2-z
-x,y,z
1/2+x,-y,1/2+z
loop_
_atom_site_type_symbol
_atom_site_label
_atom_site_fract_x
_atom_site_fract_y
_atom_site_fract_z
Si Si1 0.344575 0.456339 0.175062
Si Si2 0.159022 0.360225 0.485052
Si Si3 0.671894 0.899486 0.340600
Si Si4 0.673383 0.248617 0.149839
Si Si5 0.336070 0.018313 0.108123
Si Si6 0.339797 0.449894 0.583116
Si Si7 0.827458 0.864011 0.944082
O O1 0.250000 0.422565 0.250000
O O2 0.500000 0.465038 0.215867
O O3 0.354064 0.416343 0.084454
O O4 0.271813 0.518271 0.150608
O O5 0.194352 0.304309 0.420188
O O6 0.279569 0.385708 0.553185
O O7 0.000000 0.350743 0.527515
O O8 0.750000 0.870979 0.250000
O O9 0.500000 0.903081 0.326204
O O10 0.695523 0.869801 0.443126
O O11 0.744622 0.964589 0.349065
O O12 0.750000 0.257681 0.250000
O O13 0.500000 0.240967 0.161724
O O14 0.747793 0.192579 0.099552
O O15 0.500000 0.024227 0.145603
O O16 0.245106 0.078892 0.105881
O O17 0.350229 0.000000 0.000000
O O18 0.348105 0.500000 0.500000
O O19 0.500000 0.443753 0.619563
O O20 0.000000 0.862818 0.928954
#
# Coordination Sequence:
#
# PCOD9414507 Si02
#       7
#     8   8   8   8   8   8   8
#     4  10  18  29  47  72 103 133 163 202 250 303
#     4   9  19  34  51  72  99 132 168 209 255 304
#     4  10  20  34  55  82 110 140 176 219 266 319
#     4  11  23  38  56  78 105 139 180 222 266 317
#     4   9  17  31  52  77 105 136 170 210 258 310
#     4   9  17  29  47  71  97 127 163 202 247 299
#     4  10  21  37  55  78 110 144 179 222 270 317
#
# _framework density 18.651833
#
# number of rings (size 3 to 8) (size 9 to 14) (size 15 to 20)
#    0.000    2.286    0.000    3.000    0.000    7.429 
#    0.000    2.857    0.000    0.857    0.000    2.000 
#    0.000    0.000    0.000    0.000    0.000    0.000 
#
# Total GULP energy -311830.802218 kJ/mol
# GULP energy per Si atom -5568.407182 kJ/mol
# Density = 1.860938 g / cm^3
# Si number density = 18.651833 Si / 1000 Ang^3
#
#
#
# Elastic Constant Matrix: (Units=GPa)
#
#
# Indices 1 2 3 4 5 6 
#
# 1 123.0624 45.8986 13.3962 0.0000 0.0000 0.0000
# 2 45.8986 100.9873 11.2598 0.0000 0.0000 0.0000
# 3 13.3962 11.2598 27.1554 0.0000 0.0000 0.0000
# 4 0.0000 0.0000 0.0000 19.6058 0.0000 0.0000
# 5 0.0000 0.0000 0.0000 0.0000 25.2147 0.0000
# 6 0.0000 0.0000 0.0000 0.0000 0.0000 20.1175
#
#
#
# Elastic Compliance Matrix: (Units=1/GPa)
#
#
# Indices 1 2 3 4 5 6 
#
# 1 0.010045 -0.004207 -0.003211 0.000000 0.000000 0.000000
# 2 -0.004207 0.012144 -0.002960 0.000000 0.000000 0.000000
# 3 -0.003211 -0.002960 0.039636 0.000000 0.000000 0.000000
# 4 0.000000 0.000000 0.000000 0.051005 0.000000 0.000000
# 5 0.000000 0.000000 0.000000 0.000000 0.039659 0.000000
# 6 0.000000 0.000000 0.000000 0.000000 0.000000 0.049708
#
#
# Mechanical properties :
#
#
# Convention : Reuss Voigt Hill
#
# Bulk Modulus (GPa) = 24.34906 43.59046 33.96976
# Shear Modulus (GPa) = 21.12879 25.03098 23.07988
#
# Velocity S-wave (km/s) = 3.36936 3.66732 3.52149
# Velocity P-wave (km/s) = 5.31222 6.43068 5.89802
#
# Compressibility (1/GPa) = 0.04106934
#
# Stress axis : x y z
#
# Youngs Moduli (GPa) = 99.55540 82.34189 25.22942
#
# Poissons Ratio (x) = 0.34644 0.08100
# Poissons Ratio (y) = 0.41886 0.07468
# Poissons Ratio (z) = 0.31964 0.24374
#
# Static dielectric constant tensor:
#      x y z
#    x 1.672460 0.000000 0.000000 
#    y 0.000000 1.618770 0.000000 
#    z 0.000000 0.000000 1.747340 
# 
# From -- ./inp_files/20656.got.cif
#   From: 2010.05.17/outbox.cif.g08.bks.cpg/sg53_11_cif.got.tgz:20656.got - 2010.06.03 12:45:16.
