data_PCOD9414939
_publ_section_title
;
Structure prediction by ZEFSAII (Michael W. Deem and Ramdas Pophale) SiO2 
 PCOD9414939
Probable space group: P M N A
;
_chemical_formula_sum "Si O2"
_cell_formula_units_Z 36
_cell_length_a 14.730105
_cell_length_b 5.670870
_cell_length_c 19.829472
_cell_angle_alpha 90.000000
_cell_angle_beta 90.000000
_cell_angle_gamma 90.000000
_cell_volume 1656.405579
_symmetry_space_group_name_H-M "P M N A"
_symmetry_group_IT_number 53
_symmetry_cell_setting 'orthorhombic'
loop_
_space_group_symop_operation_xyz
x,y,z
1/2-x,-y,1/2+z
x,-y,-z
1/2-x,y,1/2-z
-x,-y,-z
1/2+x,y,1/2-z
-x,y,z
1/2+x,-y,1/2+z
loop_
_atom_site_type_symbol
_atom_site_label
_atom_site_fract_x
_atom_site_fract_y
_atom_site_fract_z
Si Si1 0.321192 0.000000 0.000000
Si Si2 0.727749 0.374629 0.427463
Si Si3 0.350124 0.426466 0.286499
Si Si4 0.399628 0.673856 0.101444
Si Si5 0.141275 0.072729 0.735447
O O1 0.254228 0.892268 0.944379
O O2 0.384110 0.201591 0.970168
O O3 0.707525 0.500000 0.500000
O O4 0.657693 0.399799 0.367136
O O5 0.819135 0.487862 0.396246
O O6 0.250000 0.434946 0.250000
O O7 0.391031 0.683849 0.270874
O O8 0.392803 0.183990 0.258307
O O9 0.500000 0.575557 0.108727
O O10 0.382268 0.871304 0.158181
O O11 0.250000 0.063796 0.750000
#
# Coordination Sequence:
#
# PCOD9414939 Si02
#       5
#     4   8   8   8   8
#     4  10  21  34  50  70 114 154 187 216 263 318
#     4  10  21  34  51  79 108 148 185 230 270 332
#     4  10  18  33  56  73 102 138 183 227 285 306
#     4  11  22  35  50  78 112 154 191 223 266 329
#     4  10  19  34  56  74  99 142 186 231 273 308
#
# _framework density 21.733809999999998
#
# number of rings (size 3 to 8) (size 9 to 14) (size 15 to 20)
#    0.000    1.778    4.444    3.000    3.111    4.889 
#    0.000    0.000    0.000    0.000    0.000    0.000 
#    0.000    5.333    0.000    0.000    0.000    0.000 
#
# Total GULP energy -200756.700650 kJ/mol
# GULP energy per Si atom -5576.575018 kJ/mol
# Density = 2.168434 g / cm^3
# Si number density = 21.733810 Si / 1000 Ang^3
#
#
#
# Elastic Constant Matrix: (Units=GPa)
#
#
# Indices 1 2 3 4 5 6 
#
# 1 30.2931 -1.0516 -1.3650 0.0000 0.0000 0.0000
# 2 -1.0516 120.6117 4.7754 0.0000 0.0000 0.0000
# 3 -1.3650 4.7754 99.1856 0.0000 0.0000 0.0000
# 4 0.0000 0.0000 0.0000 39.8405 0.0000 0.0000
# 5 0.0000 0.0000 0.0000 0.0000 6.4585 0.0000
# 6 0.0000 0.0000 0.0000 0.0000 0.0000 -0.7343
#
#
#
# Elastic Compliance Matrix: (Units=1/GPa)
#
#
# Indices 1 2 3 4 5 6 
#
# 1 0.033040 0.000271 0.000442 0.000000 0.000000 0.000000
# 2 0.000271 0.008309 -0.000396 0.000000 0.000000 0.000000
# 3 0.000442 -0.000396 0.010107 0.000000 0.000000 0.000000
# 4 0.000000 0.000000 0.000000 0.025100 0.000000 0.000000
# 5 0.000000 0.000000 0.000000 0.000000 0.154834 0.000000
# 6 0.000000 0.000000 0.000000 0.000000 0.000000 -1.361791
#
#
# Mechanical properties :
#
#
# Convention : Reuss Voigt Hill
#
# Bulk Modulus (GPa) = 19.19818 28.31202 23.75510
# Shear Modulus (GPa) = -4.48966 25.62838 10.56936
#
# Velocity S-wave (km/s) = -1.43883 3.43766 2.20763
# Velocity P-wave (km/s) = 2.46824 5.36765 4.17755
#
# Compressibility (1/GPa) = 0.05208828
#
# Stress axis : x y z
#
# Youngs Moduli (GPa) = 30.26628 120.34969 98.93870
#
# Poissons Ratio (x) = -0.03256 -0.04370
# Poissons Ratio (y) = -0.00819 0.03921
# Poissons Ratio (z) = -0.01337 0.04770
#
# Static dielectric constant tensor:
#      x y z
#    x 1.960900 0.000000 0.000000 
#    y 0.000000 1.838400 0.000000 
#    z 0.000000 0.000000 1.838410 
# 
# From -- ./inp_files/29194.got.cif
#   From: 2010.05.17/outbox.cif.g08.bks.cpg/sg53_15_cif.got.tgz:29194.got - 2010.06.03 12:45:16.
