data_PCOD9414305
_publ_section_title
;
Structure prediction by ZEFSAII (Michael W. Deem and Ramdas Pophale) SiO2 
 PCOD9414305
Probable space group: P M N A
;
_chemical_formula_sum "Si O2"
_cell_formula_units_Z 48
_cell_length_a 19.942220
_cell_length_b 12.480518
_cell_length_c 8.410086
_cell_angle_alpha 90.000000
_cell_angle_beta 90.000000
_cell_angle_gamma 90.000000
_cell_volume 2093.179876
_symmetry_space_group_name_H-M "P M N A"
_symmetry_group_IT_number 53
_symmetry_cell_setting 'orthorhombic'
loop_
_space_group_symop_operation_xyz
x,y,z
1/2-x,-y,1/2+z
x,-y,-z
1/2-x,y,1/2-z
-x,-y,-z
1/2+x,y,1/2-z
-x,y,z
1/2+x,-y,1/2+z
loop_
_atom_site_type_symbol
_atom_site_label
_atom_site_fract_x
_atom_site_fract_y
_atom_site_fract_z
Si Si1 0.425863 0.138181 0.409290
Si Si2 0.075984 0.056566 0.661907
Si Si3 0.321223 0.486659 0.809850
Si Si4 0.270162 0.120090 0.438480
Si Si5 0.575070 0.341501 0.180297
Si Si6 0.660230 0.255133 0.882360
O O1 0.500000 0.136019 0.495303
O O2 0.349167 0.138497 0.468140
O O3 0.428501 0.244352 0.302656
O O4 0.425268 0.032604 0.297593
O O5 0.121638 0.157359 0.698260
O O6 0.000000 0.092472 0.627641
O O7 0.100603 0.000000 0.500000
O O8 0.250000 0.527228 0.750000
O O9 0.381630 0.560392 0.751919
O O10 0.328511 0.360433 0.776864
O O11 0.320720 0.500000 0.000000
O O12 0.250000 0.127700 0.250000
O O13 0.226598 0.205688 0.537424
O O14 0.255075 0.000000 0.500000
O O15 0.500000 0.376828 0.139217
O O16 0.612319 0.294660 0.026026
#
# Coordination Sequence:
#
# PCOD9414305 Si02
#       6
#     8   8   8   8   8   8
#     4  10  21  36  59  88 120 164 208 248 301 369
#     4  10  17  31  56  86 123 156 193 247 306 361
#     4  10  25  41  63  90 124 161 205 259 311 371
#     4  12  24  39  64  93 130 167 208 254 307 373
#     4  10  20  37  63  89 117 156 209 259 306 366
#     4  11  21  34  58  92 125 158 201 255 314 366
#
# _framework density 22.931616999999999
#
# number of rings (size 3 to 8) (size 9 to 14) (size 15 to 20)
#    0.000    1.500    3.333    2.000    4.667    6.000 
#    0.000    0.000    0.000    1.500    0.000    0.000 
#    0.000    0.000    0.000    0.000    0.000    0.000 
#
# Total GULP energy -268446.480028 kJ/mol
# GULP energy per Si atom -5592.635001 kJ/mol
# Density = 2.287942 g / cm^3
# Si number density = 22.931617 Si / 1000 Ang^3
#
#
#
# Elastic Constant Matrix: (Units=GPa)
#
#
# Indices 1 2 3 4 5 6 
#
# 1 234.9611 84.9710 28.3130 0.0000 0.0000 0.0000
# 2 84.9710 140.1860 28.0630 0.0000 0.0000 0.0000
# 3 28.3130 28.0630 36.8952 0.0000 0.0000 0.0000
# 4 0.0000 0.0000 0.0000 16.0104 0.0000 0.0000
# 5 0.0000 0.0000 0.0000 0.0000 -9.4030 0.0000
# 6 0.0000 0.0000 0.0000 0.0000 0.0000 37.6319
#
#
#
# Elastic Compliance Matrix: (Units=1/GPa)
#
#
# Indices 1 2 3 4 5 6 
#
# 1 0.005575 -0.002976 -0.002015 0.000000 0.000000 0.000000
# 2 -0.002976 0.010003 -0.005325 0.000000 0.000000 0.000000
# 3 -0.002015 -0.005325 0.032700 0.000000 0.000000 0.000000
# 4 0.000000 0.000000 0.000000 0.062459 0.000000 0.000000
# 5 0.000000 0.000000 0.000000 0.000000 -0.106349 0.000000
# 6 0.000000 0.000000 0.000000 0.000000 0.000000 0.026573
#
#
# Mechanical properties :
#
#
# Convention : Reuss Voigt Hill
#
# Bulk Modulus (GPa) = 36.16991 77.19291 56.68141
# Shear Modulus (GPa) = 82.22605 26.89421 54.56013
#
# Velocity S-wave (km/s) = 5.99457 3.42833 4.88305
# Velocity P-wave (km/s) = 7.98251 7.02898 7.52087
#
# Compressibility (1/GPa) = 0.02764729
#
# Stress axis : x y z
#
# Youngs Moduli (GPa) = 179.37284 99.96915 30.58099
#
# Poissons Ratio (x) = 0.29749 0.06161
# Poissons Ratio (y) = 0.53379 0.16284
# Poissons Ratio (z) = 0.36138 0.53232
#
# Static dielectric constant tensor:
#      x y z
#    x 1.920850 0.000000 0.000000 
#    y 0.000000 1.850770 0.000000 
#    z 0.000000 0.000000 1.899360 
# 
# From -- ./inp_files/16902.got.cif
#   From: 2010.05.17/outbox.cif.g08.bks.cpg/sg53_9_cif.got.tgz:16902.got - 2010.06.03 12:45:16.
