data_PCOD9414171
_publ_section_title
;
Structure prediction by ZEFSAII (Michael W. Deem and Ramdas Pophale) SiO2 
 PCOD9414171
Probable space group: P M N A
;
_chemical_formula_sum "Si O2"
_cell_formula_units_Z 56
_cell_length_a 24.676204
_cell_length_b 26.093851
_cell_length_c 5.080488
_cell_angle_alpha 90.000000
_cell_angle_beta 90.000000
_cell_angle_gamma 90.000000
_cell_volume 3271.311949
_symmetry_space_group_name_H-M "P M N A"
_symmetry_group_IT_number 53
_symmetry_cell_setting 'orthorhombic'
loop_
_space_group_symop_operation_xyz
x,y,z
1/2-x,-y,1/2+z
x,-y,-z
1/2-x,y,1/2-z
-x,-y,-z
1/2+x,y,1/2-z
-x,y,z
1/2+x,-y,1/2+z
loop_
_atom_site_type_symbol
_atom_site_label
_atom_site_fract_x
_atom_site_fract_y
_atom_site_fract_z
Si Si1 0.937483 0.536324 0.253132
Si Si2 0.936531 0.120589 0.396240
Si Si3 0.062170 0.051743 0.880491
Si Si4 0.371914 0.361733 0.670019
Si Si5 0.687588 0.319120 0.171961
Si Si6 0.113404 0.225791 0.261202
Si Si7 0.439148 0.735301 0.259656
O O1 0.925826 0.500000 0.500000
O O2 0.894981 0.582284 0.225197
O O3 0.000000 0.555505 0.279600
O O4 0.935332 0.500000 0.000000
O O5 0.917338 0.081376 0.623110
O O6 0.895847 0.168069 0.358650
O O7 0.000000 0.136498 0.457829
O O8 0.938874 0.091406 0.119830
O O9 0.000000 0.037479 0.805649
O O10 0.087894 0.000000 0.000000
O O11 0.345911 0.352168 0.385505
O O12 0.422447 0.322792 0.686521
O O13 0.329058 0.341453 0.887902
O O14 0.750000 0.322261 0.250000
O O15 0.667066 0.259839 0.191447
O O16 0.071111 0.255028 0.452570
O O17 0.098234 0.231103 0.954485
O O18 0.500000 0.747152 0.331030
#
# Coordination Sequence:
#
# PCOD9414171 Si02
#       7
#     8   8   8   8   8   8   8
#     4  10  20  34  54  80 109 135 159 194 240 289
#     4  10  17  26  41  61  91 123 153 192 232 274
#     4   9  17  27  39  57  85 126 166 191 217 263
#     4  10  20  34  54  75  96 129 166 197 238 291
#     4  10  21  37  55  72  95 128 165 208 248 289
#     4  10  20  30  45  70  94 124 159 194 243 292
#     4  10  18  29  45  68  99 125 152 188 231 293
#
# _framework density 17.118514000000001
#
# number of rings (size 3 to 8) (size 9 to 14) (size 15 to 20)
#    0.000    2.143    0.000    4.286    0.000    2.857 
#    0.000    4.286    0.000    8.571    0.000    0.000 
#    0.000    2.286    0.000    0.143    0.000    0.000 
#
# Total GULP energy -311955.340493 kJ/mol
# GULP energy per Si atom -5570.631080 kJ/mol
# Density = 1.707955 g / cm^3
# Si number density = 17.118514 Si / 1000 Ang^3
#
#
#
# Elastic Constant Matrix: (Units=GPa)
#
#
# Indices 1 2 3 4 5 6 
#
# 1 24.7297 13.3640 -13.4722 0.0000 0.0000 0.0000
# 2 13.3640 67.4431 -0.6612 0.0000 0.0000 0.0000
# 3 -13.4722 -0.6612 73.2382 0.0000 0.0000 0.0000
# 4 0.0000 0.0000 0.0000 21.9662 0.0000 0.0000
# 5 0.0000 0.0000 0.0000 0.0000 10.4092 0.0000
# 6 0.0000 0.0000 0.0000 0.0000 0.0000 12.0451
#
#
#
# Elastic Compliance Matrix: (Units=1/GPa)
#
#
# Indices 1 2 3 4 5 6 
#
# 1 0.050888 -0.009993 0.009271 0.000000 0.000000 0.000000
# 2 -0.009993 0.016791 -0.001687 0.000000 0.000000 0.000000
# 3 0.009271 -0.001687 0.015344 0.000000 0.000000 0.000000
# 4 0.000000 0.000000 0.000000 0.045524 0.000000 0.000000
# 5 0.000000 0.000000 0.000000 0.000000 0.096069 0.000000
# 6 0.000000 0.000000 0.000000 0.000000 0.000000 0.083021
#
#
# Mechanical properties :
#
#
# Convention : Reuss Voigt Hill
#
# Bulk Modulus (GPa) = 12.78683 18.20801 15.49742
# Shear Modulus (GPa) = 14.77005 19.96280 17.36643
#
# Velocity S-wave (km/s) = 2.94055 3.41860 3.18855
# Velocity P-wave (km/s) = 4.36061 5.12269 4.75694
#
# Compressibility (1/GPa) = 0.07820545
#
# Stress axis : x y z
#
# Youngs Moduli (GPa) = 19.65119 59.55634 65.17131
#
# Poissons Ratio (x) = 0.59512 -0.60418
# Poissons Ratio (y) = 0.19637 0.10991
# Poissons Ratio (z) = -0.18218 0.10044
#
# Static dielectric constant tensor:
#      x y z
#    x 1.561960 0.000000 0.000000 
#    y 0.000000 1.602790 0.000000 
#    z 0.000000 0.000000 1.584640 
# 
# From -- ./inp_files/3809.got.cif
#   From: 2010.05.17/outbox.cif.g08.bks.cpg/sg53_2_cif.got.tgz:3809.got - 2010.06.03 12:45:16.
