data_PCOD9414596
_publ_section_title
;
Structure prediction by ZEFSAII (Michael W. Deem and Ramdas Pophale) SiO2 
 PCOD9414596
Probable space group: P M N A
;
_chemical_formula_sum "Si O2"
_cell_formula_units_Z 48
_cell_length_a 8.919489
_cell_length_b 19.538327
_cell_length_c 15.791912
_cell_angle_alpha 90.000000
_cell_angle_beta 90.000000
_cell_angle_gamma 90.000000
_cell_volume 2752.086394
_symmetry_space_group_name_H-M "P M N A"
_symmetry_group_IT_number 53
_symmetry_cell_setting 'orthorhombic'
loop_
_space_group_symop_operation_xyz
x,y,z
1/2-x,-y,1/2+z
x,-y,-z
1/2-x,y,1/2-z
-x,-y,-z
1/2+x,y,1/2-z
-x,y,z
1/2+x,-y,1/2+z
loop_
_atom_site_type_symbol
_atom_site_label
_atom_site_fract_x
_atom_site_fract_y
_atom_site_fract_z
Si Si1 0.174275 0.944159 0.338208
Si Si2 0.821982 0.426355 0.462899
Si Si3 0.676464 0.280195 0.997203
Si Si4 0.321970 0.145192 0.518198
Si Si5 0.174585 0.890349 0.661136
Si Si6 0.322202 0.667981 0.659141
O O1 0.250000 0.922352 0.250000
O O2 0.257719 0.911026 0.417621
O O3 0.000000 0.924159 0.340163
O O4 0.181361 0.026639 0.341070
O O5 0.785121 0.500000 0.500000
O O6 0.799724 0.360662 0.525543
O O7 0.723519 0.405332 0.381900
O O8 0.000000 0.425480 0.441017
O O9 0.500000 0.266012 0.994688
O O10 0.739592 0.281698 0.093407
O O11 0.765501 0.220175 0.951899
O O12 0.500000 0.142512 0.515454
O O13 0.255939 0.132909 0.424433
O O14 0.250000 0.868051 0.750000
O O15 0.000000 0.869720 0.659947
O O16 0.250000 0.675212 0.750000
O O17 0.500000 0.677785 0.659387
#
# Coordination Sequence:
#
# PCOD9414596 Si02
#       6
#     8   8   8   8   8   8
#     4  10  21  38  59  81 106 140 184 232 279 327
#     4   8  16  32  53  75 100 134 171 210 255 305
#     4   9  19  34  51  74 103 137 173 215 262 317
#     4  12  23  35  54  81 112 147 185 226 274 331
#     4  10  21  37  56  80 110 144 183 227 276 330
#     4  10  18  30  48  74 104 135 170 209 256 310
#
# _framework density 17.441313000000001
#
# number of rings (size 3 to 8) (size 9 to 14) (size 15 to 20)
#    1.000    1.167    0.000    4.500    0.000    5.000 
#    0.000    3.333    0.000    1.000    0.000    4.667 
#    0.000    0.000    0.000    0.000    0.000    0.000 
#
# Total GULP energy -267341.990443 kJ/mol
# GULP energy per Si atom -5569.624801 kJ/mol
# Density = 1.740162 g / cm^3
# Si number density = 17.441313 Si / 1000 Ang^3
#
#
#
# Elastic Constant Matrix: (Units=GPa)
#
#
# Indices 1 2 3 4 5 6 
#
# 1 129.9167 35.5426 34.4534 0.0000 0.0000 0.0000
# 2 35.5426 45.3792 20.4806 0.0000 0.0000 0.0000
# 3 34.4534 20.4806 58.1640 0.0000 0.0000 0.0000
# 4 0.0000 0.0000 0.0000 10.3628 0.0000 0.0000
# 5 0.0000 0.0000 0.0000 0.0000 28.7400 0.0000
# 6 0.0000 0.0000 0.0000 0.0000 0.0000 31.8809
#
#
#
# Elastic Compliance Matrix: (Units=1/GPa)
#
#
# Indices 1 2 3 4 5 6 
#
# 1 0.010510 -0.006446 -0.003956 0.000000 0.000000 0.000000
# 2 -0.006446 0.030154 -0.006799 0.000000 0.000000 0.000000
# 3 -0.003956 -0.006799 0.021930 0.000000 0.000000 0.000000
# 4 0.000000 0.000000 0.000000 0.096499 0.000000 0.000000
# 5 0.000000 0.000000 0.000000 0.000000 0.034795 0.000000
# 6 0.000000 0.000000 0.000000 0.000000 0.000000 0.031367
#
#
# Mechanical properties :
#
#
# Convention : Reuss Voigt Hill
#
# Bulk Modulus (GPa) = 35.47176 46.04590 40.75883
# Shear Modulus (GPa) = 18.58358 23.72896 21.15627
#
# Velocity S-wave (km/s) = 3.26773 3.69250 3.48659
# Velocity P-wave (km/s) = 5.88382 6.68111 6.29510
#
# Compressibility (1/GPa) = 0.02819144
#
# Stress axis : x y z
#
# Youngs Moduli (GPa) = 95.14860 33.16277 45.59956
#
# Poissons Ratio (x) = 0.21378 0.18037
# Poissons Ratio (y) = 0.61337 0.31005
# Poissons Ratio (z) = 0.37637 0.22548
#
# Static dielectric constant tensor:
#      x y z
#    x 1.578300 0.000000 0.000000 
#    y 0.000000 1.660470 0.000000 
#    z 0.000000 0.000000 1.574090 
# 
# From -- ./inp_files/20250.got.cif
#   From: 2010.05.17/outbox.cif.g08.bks.cpg/sg53_11_cif.got.tgz:20250.got - 2010.06.03 12:45:16.
