data_PCOD9414818
_publ_section_title
;
Structure prediction by ZEFSAII (Michael W. Deem and Ramdas Pophale) SiO2 
 PCOD9414818
Probable space group: P M N A
;
_chemical_formula_sum "Si O2"
_cell_formula_units_Z 64
_cell_length_a 7.577980
_cell_length_b 12.580626
_cell_length_c 32.235557
_cell_angle_alpha 90.000000
_cell_angle_beta 90.000000
_cell_angle_gamma 90.000000
_cell_volume 3073.200430
_symmetry_space_group_name_H-M "P M N A"
_symmetry_group_IT_number 53
_symmetry_cell_setting 'orthorhombic'
loop_
_space_group_symop_operation_xyz
x,y,z
1/2-x,-y,1/2+z
x,-y,-z
1/2-x,y,1/2-z
-x,-y,-z
1/2+x,y,1/2-z
-x,y,z
1/2+x,-y,1/2+z
loop_
_atom_site_type_symbol
_atom_site_label
_atom_site_fract_x
_atom_site_fract_y
_atom_site_fract_z
Si Si1 0.713390 0.619454 0.512439
Si Si2 0.716095 0.641106 0.607498
Si Si3 0.288396 0.979538 0.047242
Si Si4 0.711784 0.744669 0.296972
Si Si5 0.787488 0.125876 0.125443
Si Si6 0.704546 0.414358 0.635460
Si Si7 0.202455 0.252052 0.565971
Si Si8 0.712071 0.985679 0.297521
O O1 0.765965 0.500000 0.500000
O O2 0.500000 0.625099 0.509612
O O3 0.766751 0.640744 0.559312
O O4 0.789222 0.704399 0.480683
O O5 0.500000 0.638685 0.608281
O O6 0.774672 0.752353 0.626706
O O7 0.780621 0.530904 0.627327
O O8 0.500000 0.967665 0.043822
O O9 0.220608 0.866777 0.065449
O O10 0.253500 0.070217 0.081311
O O11 0.223132 0.000000 0.000000
O O12 0.750000 0.713629 0.250000
O O13 0.500000 0.750144 0.302825
O O14 0.784740 0.658743 0.328819
O O15 0.779557 0.864828 0.303015
O O16 0.000000 0.128269 0.128002
O O17 0.721530 0.058743 0.164945
O O18 0.500000 0.432435 0.646516
O O19 0.708274 0.341187 0.594392
O O20 0.000000 0.246765 0.580132
O O21 0.750000 0.019401 0.250000
O O22 0.500000 0.982614 0.300894
#
# Coordination Sequence:
#
# PCOD9414818 Si02
#       8
#     8   8   8   8   8   8   8   8
#     4  10  18  32  52  73 100 138 178 213 253 306
#     4   9  18  33  53  76 102 135 174 217 258 297
#     4  10  22  38  52  72 108 146 176 212 266 322
#     4   9  18  32  53  76 100 130 162 203 257 309
#     4  10  20  35  56  80 104 134 181 227 260 307
#     4  10  19  35  55  75 102 136 170 206 255 308
#     4  11  22  33  50  77 104 133 171 217 260 299
#     4   9  18  33  53  79 104 130 169 216 264 317
#
# _framework density 20.825195999999998
#
# number of rings (size 3 to 8) (size 9 to 14) (size 15 to 20)
#    0.000    2.250    1.250    1.875    0.000    3.500 
#    0.000    3.750    0.000    0.000    0.000    0.000 
#    0.000    0.000    0.000    0.000    0.000    0.000 
#
# Total GULP energy -357337.971369 kJ/mol
# GULP energy per Si atom -5583.405803 kJ/mol
# Density = 2.077780 g / cm^3
# Si number density = 20.825196 Si / 1000 Ang^3
#
#
#
# Elastic Constant Matrix: (Units=GPa)
#
#
# Indices 1 2 3 4 5 6 
#
# 1 45.4365 4.5381 -2.0871 0.0000 0.0000 0.0000
# 2 4.5381 163.1631 94.0727 0.0000 0.0000 0.0000
# 3 -2.0871 94.0727 148.9662 0.0000 0.0000 0.0000
# 4 0.0000 0.0000 0.0000 36.4198 0.0000 0.0000
# 5 0.0000 0.0000 0.0000 0.0000 20.4795 0.0000
# 6 0.0000 0.0000 0.0000 0.0000 0.0000 6.2942
#
#
#
# Elastic Compliance Matrix: (Units=1/GPa)
#
#
# Indices 1 2 3 4 5 6 
#
# 1 0.022184 -0.001252 0.001102 0.000000 0.000000 0.000000
# 2 -0.001252 0.009709 -0.006149 0.000000 0.000000 0.000000
# 3 0.001102 -0.006149 0.010611 0.000000 0.000000 0.000000
# 4 0.000000 0.000000 0.000000 0.027458 0.000000 0.000000
# 5 0.000000 0.000000 0.000000 0.000000 0.048829 0.000000
# 6 0.000000 0.000000 0.000000 0.000000 0.000000 0.158877
#
#
# Mechanical properties :
#
#
# Convention : Reuss Voigt Hill
#
# Bulk Modulus (GPa) = 33.43819 61.17924 47.30872
# Shear Modulus (GPa) = 16.65363 30.04151 23.34757
#
# Velocity S-wave (km/s) = 2.83094 3.80222 3.35195
# Velocity P-wave (km/s) = 5.17466 6.97977 6.14387
#
# Compressibility (1/GPa) = 0.02990592
#
# Stress axis : x y z
#
# Youngs Moduli (GPa) = 45.07673 103.00060 94.23979
#
# Poissons Ratio (x) = 0.12897 -0.10381
# Poissons Ratio (y) = 0.05644 0.57944
# Poissons Ratio (z) = -0.04965 0.63331
#
# Static dielectric constant tensor:
#      x y z
#    x 1.822390 0.000000 0.000000 
#    y 0.000000 1.761730 0.000000 
#    z 0.000000 0.000000 1.894550 
# 
# From -- ./inp_files/38292.got.cif
#   From: 2010.05.17/outbox.cif.g08.bks.cpg/sg53_20_cif.got.tgz:38292.got - 2010.06.03 12:45:16.
