data_PCOD9414950
_publ_section_title
;
Structure prediction by ZEFSAII (Michael W. Deem and Ramdas Pophale) SiO2 
 PCOD9414950
Probable space group: P M N A
;
_chemical_formula_sum "Si O2"
_cell_formula_units_Z 48
_cell_length_a 15.254540
_cell_length_b 14.981125
_cell_length_c 9.372010
_cell_angle_alpha 90.000000
_cell_angle_beta 90.000000
_cell_angle_gamma 90.000000
_cell_volume 2141.787044
_symmetry_space_group_name_H-M "P M N A"
_symmetry_group_IT_number 53
_symmetry_cell_setting 'orthorhombic'
loop_
_space_group_symop_operation_xyz
x,y,z
1/2-x,-y,1/2+z
x,-y,-z
1/2-x,y,1/2-z
-x,-y,-z
1/2+x,y,1/2-z
-x,y,z
1/2+x,-y,1/2+z
loop_
_atom_site_type_symbol
_atom_site_label
_atom_site_fract_x
_atom_site_fract_y
_atom_site_fract_z
Si Si1 0.901599 0.756292 0.943263
Si Si2 0.105766 0.878980 0.172102
Si Si3 0.392666 0.416757 0.596921
Si Si4 0.834447 0.759876 0.655164
Si Si5 0.398039 0.954410 0.846104
Si Si6 0.105939 0.699457 0.355648
O O1 0.906385 0.744636 0.776353
O O2 0.000000 0.754587 0.001318
O O3 0.865437 0.847437 0.013256
O O4 0.859556 0.669647 0.011125
O O5 0.126393 0.792243 0.270491
O O6 0.000000 0.891933 0.178141
O O7 0.138497 0.972139 0.235366
O O8 0.362955 0.500000 0.500000
O O9 0.500000 0.422718 0.598531
O O10 0.369366 0.387013 0.759369
O O11 0.750000 0.738241 0.750000
O O12 0.841666 0.865855 0.633638
O O13 0.850090 0.708210 0.509766
O O14 0.500000 0.930218 0.806792
O O15 0.402876 0.000000 0.000000
O O16 0.000000 0.698747 0.373782
#
# Coordination Sequence:
#
# PCOD9414950 Si02
#       6
#     8   8   8   8   8   8
#     4   9  18  34  55  78 108 141 178 230 296 356
#     4   8  15  30  53  77  96 133 193 244 284 340
#     4   8  15  31  60  93 113 130 174 241 295 344
#     4  12  24  35  46  75 115 156 195 244 287 344
#     4  10  18  33  57  76  97 140 207 259 291 343
#     4   9  16  32  57  79 108 151 191 227 289 363
#
# _framework density 22.411192
#
# number of rings (size 3 to 8) (size 9 to 14) (size 15 to 20)
#    0.000    2.667    1.667    3.500    0.000    0.667 
#    3.000    6.667    0.000    6.000    0.000    0.000 
#    0.000    0.000    0.000    0.000    0.000    6.833 
#
# Total GULP energy -267220.218398 kJ/mol
# GULP energy per Si atom -5567.087883 kJ/mol
# Density = 2.236018 g / cm^3
# Si number density = 22.411192 Si / 1000 Ang^3
#
#
#
# Elastic Constant Matrix: (Units=GPa)
#
#
# Indices 1 2 3 4 5 6 
#
# 1 53.4030 13.3061 29.4118 0.0000 0.0000 0.0000
# 2 13.3061 95.8487 81.6910 0.0000 0.0000 0.0000
# 3 29.4118 81.6910 166.1525 0.0000 0.0000 0.0000
# 4 0.0000 0.0000 0.0000 47.9655 0.0000 0.0000
# 5 0.0000 0.0000 0.0000 0.0000 9.5341 0.0000
# 6 0.0000 0.0000 0.0000 0.0000 0.0000 -10.2834
#
#
#
# Elastic Compliance Matrix: (Units=1/GPa)
#
#
# Indices 1 2 3 4 5 6 
#
# 1 0.020759 0.000430 -0.003886 0.000000 0.000000 0.000000
# 2 0.000430 0.017967 -0.008910 0.000000 0.000000 0.000000
# 3 -0.003886 -0.008910 0.011087 0.000000 0.000000 0.000000
# 4 0.000000 0.000000 0.000000 0.020848 0.000000 0.000000
# 5 0.000000 0.000000 0.000000 0.000000 0.104887 0.000000
# 6 0.000000 0.000000 0.000000 0.000000 0.000000 -0.097244
#
#
# Mechanical properties :
#
#
# Convention : Reuss Voigt Hill
#
# Bulk Modulus (GPa) = 39.87011 62.69135 51.28073
# Shear Modulus (GPa) = 44.88481 22.17626 33.53053
#
# Velocity S-wave (km/s) = 4.48010 3.14907 3.87221
# Velocity P-wave (km/s) = 6.67762 6.42310 6.55160
#
# Compressibility (1/GPa) = 0.02508145
#
# Stress axis : x y z
#
# Youngs Moduli (GPa) = 48.17269 55.65656 90.19370
#
# Poissons Ratio (x) = -0.02396 0.35052
# Poissons Ratio (y) = -0.02074 0.80363
# Poissons Ratio (z) = 0.18721 0.49590
#
# Static dielectric constant tensor:
#      x y z
#    x 1.985640 0.000000 0.000000 
#    y 0.000000 1.863890 0.000000 
#    z 0.000000 0.000000 1.894650 
# 
# From -- ./inp_files/9925.got.cif
#   From: 2010.05.17/outbox.cif.g08.bks.cpg/sg53_5_cif.got.tgz:9925.got - 2010.06.03 12:45:16.
