data_PCOD9414163
_publ_section_title
;
Structure prediction by ZEFSAII (Michael W. Deem and Ramdas Pophale) SiO2 
 PCOD9414163
Probable space group: P M N A
;
_chemical_formula_sum "Si O2"
_cell_formula_units_Z 56
_cell_length_a 8.927661
_cell_length_b 21.262463
_cell_length_c 17.311803
_cell_angle_alpha 90.000000
_cell_angle_beta 90.000000
_cell_angle_gamma 90.000000
_cell_volume 3286.196761
_symmetry_space_group_name_H-M "P M N A"
_symmetry_group_IT_number 53
_symmetry_cell_setting 'orthorhombic'
loop_
_space_group_symop_operation_xyz
x,y,z
1/2-x,-y,1/2+z
x,-y,-z
1/2-x,y,1/2-z
-x,-y,-z
1/2+x,y,1/2-z
-x,y,z
1/2+x,-y,1/2+z
loop_
_atom_site_type_symbol
_atom_site_label
_atom_site_fract_x
_atom_site_fract_y
_atom_site_fract_z
Si Si1 0.678721 0.936227 0.168130
Si Si2 0.820713 0.413991 0.945579
Si Si3 0.819311 0.707441 0.500891
Si Si4 0.671800 0.043799 0.423112
Si Si5 0.820751 0.468322 0.395600
Si Si6 0.679467 0.852764 0.020286
Si Si7 0.677815 0.662871 0.828323
O O1 0.750000 0.920042 0.250000
O O2 0.500000 0.937120 0.173869
O O3 0.721428 0.886575 0.100874
O O4 0.737225 0.004228 0.139778
O O5 0.754533 0.463752 0.883896
O O6 0.000000 0.416504 0.946490
O O7 0.760509 0.342886 0.945142
O O8 0.751517 0.439997 0.026105
O O9 0.784152 0.779229 0.480722
O O10 0.773528 0.693482 0.590118
O O11 0.000000 0.697831 0.496483
O O12 0.500000 0.051630 0.399046
O O13 0.743616 0.108872 0.451015
O O14 0.674635 0.000000 0.500000
O O15 0.792658 0.412148 0.335808
O O16 0.000000 0.475133 0.405111
O O17 0.500000 0.859236 0.011807
O O18 0.750000 0.687635 0.750000
O O19 0.500000 0.671377 0.823808
#
# Coordination Sequence:
#
# PCOD9414163 Si02
#       7
#     8   8   8   8   8   8   8
#     4  10  19  32  52  77 101 127 161 203 249 294
#     4  10  17  25  42  69  92 112 146 195 238 273
#     4   9  18  33  49  67  94 131 168 198 237 293
#     4   9  17  30  49  73 100 127 157 197 241 284
#     4   9  16  28  44  62  86 118 150 185 234 288
#     4   9  18  33  53  73  97 132 170 202 237 290
#     4   9  18  30  46  66  90 121 157 198 243 290
#
# _framework density 17.040975
#
# number of rings (size 3 to 8) (size 9 to 14) (size 15 to 20)
#    0.000    2.714    0.000    4.286    0.000    5.714 
#    0.000    0.714    0.000    2.571    0.000    2.000 
#    0.000    0.000    0.000    0.000    0.000    0.000 
#
# Total GULP energy -311849.448246 kJ/mol
# GULP energy per Si atom -5568.740147 kJ/mol
# Density = 1.700219 g / cm^3
# Si number density = 17.040975 Si / 1000 Ang^3
#
#
#
# Elastic Constant Matrix: (Units=GPa)
#
#
# Indices 1 2 3 4 5 6 
#
# 1 61.7435 50.7290 29.1596 0.0000 0.0000 0.0000
# 2 50.7290 124.7741 30.3826 0.0000 0.0000 0.0000
# 3 29.1596 30.3826 59.7648 0.0000 0.0000 0.0000
# 4 0.0000 0.0000 0.0000 12.5022 0.0000 0.0000
# 5 0.0000 0.0000 0.0000 0.0000 21.7780 0.0000
# 6 0.0000 0.0000 0.0000 0.0000 0.0000 22.5056
#
#
#
# Elastic Compliance Matrix: (Units=1/GPa)
#
#
# Indices 1 2 3 4 5 6 
#
# 1 0.027992 -0.009193 -0.008984 0.000000 0.000000 0.000000
# 2 -0.009193 0.012166 -0.001699 0.000000 0.000000 0.000000
# 3 -0.008984 -0.001699 0.021980 0.000000 0.000000 0.000000
# 4 0.000000 0.000000 0.000000 0.079986 0.000000 0.000000
# 5 0.000000 0.000000 0.000000 0.000000 0.045918 0.000000
# 6 0.000000 0.000000 0.000000 0.000000 0.000000 0.044433
#
#
# Mechanical properties :
#
#
# Convention : Reuss Voigt Hill
#
# Bulk Modulus (GPa) = 44.67379 51.86944 48.27161
# Shear Modulus (GPa) = 17.87701 20.42457 19.15079
#
# Velocity S-wave (km/s) = 3.24243 3.46577 3.35596
# Velocity P-wave (km/s) = 6.34746 6.82053 6.58824
#
# Compressibility (1/GPa) = 0.02238449
#
# Stress axis : x y z
#
# Youngs Moduli (GPa) = 35.72464 82.19730 45.49689
#
# Poissons Ratio (x) = 0.75564 0.40874
# Poissons Ratio (y) = 0.32842 0.07732
# Poissons Ratio (z) = 0.32095 0.13969
#
# Static dielectric constant tensor:
#      x y z
#    x 1.570400 0.000000 0.000000 
#    y 0.000000 1.607970 0.000000 
#    z 0.000000 0.000000 1.583040 
# 
# From -- ./inp_files/26700.got.cif
#   From: 2010.05.17/outbox.cif.g08.bks.cpg/sg53_14_cif.got.tgz:26700.got - 2010.06.03 12:45:16.
