data_PCOD9414116
_publ_section_title
;
Structure prediction by ZEFSAII (Michael W. Deem and Ramdas Pophale) SiO2 
 PCOD9414116
Probable space group: P M N A
;
_chemical_formula_sum "Si O2"
_cell_formula_units_Z 26
_cell_length_a 15.048009
_cell_length_b 9.828705
_cell_length_c 7.548769
_cell_angle_alpha 90.000000
_cell_angle_beta 90.000000
_cell_angle_gamma 90.000000
_cell_volume 1116.481364
_symmetry_space_group_name_H-M "P M N A"
_symmetry_group_IT_number 53
_symmetry_cell_setting 'orthorhombic'
loop_
_space_group_symop_operation_xyz
x,y,z
1/2-x,-y,1/2+z
x,-y,-z
1/2-x,y,1/2-z
-x,-y,-z
1/2+x,y,1/2-z
-x,y,z
1/2+x,-y,1/2+z
loop_
_atom_site_type_symbol
_atom_site_label
_atom_site_fract_x
_atom_site_fract_y
_atom_site_fract_z
Si Si1 0.637581 0.736402 0.075409
Si Si2 0.000000 0.937001 0.289997
Si Si3 0.822950 0.658948 0.017872
Si Si4 0.000000 0.500000 0.500000
Si Si5 0.000000 0.788677 0.904969
O O1 0.584798 0.875892 0.107735
O O2 0.733047 0.742694 0.981297
O O3 0.653809 0.684715 0.276927
O O4 0.576331 0.620276 0.993179
O O5 0.000000 0.095445 0.243387
O O6 0.000000 0.864527 0.096190
O O7 0.803659 0.500000 0.000000
O O8 0.909984 0.700699 0.907055
#
# Coordination Sequence:
#
# PCOD9414116 Si02
#       5
#     8   4   8   2   4
#     4   9  18  30  54  82 115 144 187 231 286 347
#     4   8  16  32  50  79 101 154 189 219 276 335
#     4  10  18  31  51  88 114 144 184 242 286 337
#     4  10  16  32  50  84 112 150 174 234 294 342
#     4   9  17  29  52  77 109 149 187 226 271 336
#
# _framework density 23.287445000000002
#
# number of rings (size 3 to 8) (size 9 to 14) (size 15 to 20)
#    0.000    2.769    1.538    1.385    0.000    0.000 
#    0.000    0.000    0.000   29.538   16.000   10.769 
#    0.000    5.231    0.000    0.000    0.000    0.000 
#
# Total GULP energy -144804.209914 kJ/mol
# GULP energy per Si atom -5569.392689 kJ/mol
# Density = 2.323444 g / cm^3
# Si number density = 23.287445 Si / 1000 Ang^3
#
#
#
# Elastic Constant Matrix: (Units=GPa)
#
#
# Indices 1 2 3 4 5 6 
#
# 1 226.7817 58.3277 38.8318 0.0000 0.0000 0.0000
# 2 58.3277 107.1566 32.7268 0.0000 0.0000 0.0000
# 3 38.8318 32.7268 81.6316 0.0000 0.0000 0.0000
# 4 0.0000 0.0000 0.0000 29.3343 0.0000 0.0000
# 5 0.0000 0.0000 0.0000 0.0000 -2.6711 0.0000
# 6 0.0000 0.0000 0.0000 0.0000 0.0000 17.2394
#
#
#
# Elastic Compliance Matrix: (Units=1/GPa)
#
#
# Indices 1 2 3 4 5 6 
#
# 1 0.005295 -0.002408 -0.001553 0.000000 0.000000 0.000000
# 2 -0.002408 0.011729 -0.003557 0.000000 0.000000 0.000000
# 3 -0.001553 -0.003557 0.014415 0.000000 0.000000 0.000000
# 4 0.000000 0.000000 0.000000 0.034090 0.000000 0.000000
# 5 0.000000 0.000000 0.000000 0.000000 -0.374384 0.000000
# 6 0.000000 0.000000 0.000000 0.000000 0.000000 0.058007
#
#
# Mechanical properties :
#
#
# Convention : Reuss Voigt Hill
#
# Bulk Modulus (GPa) = 60.96510 75.03805 68.00158
# Shear Modulus (GPa) = -21.70656 27.82610 3.05977
#
# Velocity S-wave (km/s) = -3.05637 3.46048 1.14751
# Velocity P-wave (km/s) = 3.71228 6.94687 5.56956
#
# Compressibility (1/GPa) = 0.01640283
#
# Stress axis : x y z
#
# Youngs Moduli (GPa) = 188.86611 85.25891 69.37152
#
# Poissons Ratio (x) = 0.20527 0.10777
# Poissons Ratio (y) = 0.45472 0.24675
# Poissons Ratio (z) = 0.29340 0.30326
#
# Static dielectric constant tensor:
#      x y z
#    x 1.900510 0.000000 0.000000 
#    y 0.000000 1.792790 0.000000 
#    z 0.000000 0.000000 1.951960 
# 
# From -- ./inp_files/15338.got.cif
#   From: 2010.05.17/outbox.cif.g08.bks.cpg/sg53_8_cif.got.tgz:15338.got - 2010.06.03 12:45:16.
