data_PCOD9414793
_publ_section_title
;
Structure prediction by ZEFSAII (Michael W. Deem and Ramdas Pophale) SiO2 
 PCOD9414793
Probable space group: P M N A
;
_chemical_formula_sum "Si O2"
_cell_formula_units_Z 40
_cell_length_a 14.394119
_cell_length_b 9.584984
_cell_length_c 12.358347
_cell_angle_alpha 90.000000
_cell_angle_beta 90.000000
_cell_angle_gamma 90.000000
_cell_volume 1705.049008
_symmetry_space_group_name_H-M "P M N A"
_symmetry_group_IT_number 53
_symmetry_cell_setting 'orthorhombic'
loop_
_space_group_symop_operation_xyz
x,y,z
1/2-x,-y,1/2+z
x,-y,-z
1/2-x,y,1/2-z
-x,-y,-z
1/2+x,y,1/2-z
-x,y,z
1/2+x,-y,1/2+z
loop_
_atom_site_type_symbol
_atom_site_label
_atom_site_fract_x
_atom_site_fract_y
_atom_site_fract_z
Si Si1 0.110686 0.782467 0.171108
Si Si2 0.156827 0.069126 0.114281
Si Si3 0.602800 0.364496 0.310197
Si Si4 0.740581 0.309653 0.476030
Si Si5 0.391972 0.426611 0.868899
O O1 0.162961 0.720573 0.067526
O O2 0.125908 0.681057 0.271178
O O3 0.000000 0.794437 0.152907
O O4 0.153588 0.935574 0.189875
O O5 0.102377 0.197583 0.169858
O O6 0.249436 0.156465 0.081066
O O7 0.121506 0.000000 0.000000
O O8 0.500000 0.419351 0.340314
O O9 0.686958 0.406295 0.389187
O O10 0.621732 0.423349 0.190708
O O11 0.829288 0.370208 0.534323
O O12 0.500000 0.417855 0.898747
#
# Coordination Sequence:
#
# PCOD9414793 Si02
#       5
#     8   8   8   8   8
#     4  10  18  31  59  91 123 156 204 273 338 392
#     4   8  17  31  58  91 127 157 203 269 342 390
#     4   9  18  33  60  94 126 165 218 274 328 387
#     4   9  19  33  57  86 129 168 212 262 331 386
#     4  10  21  36  57  90 130 174 219 264 320 395
#
# _framework density 23.459735999999999
#
# number of rings (size 3 to 8) (size 9 to 14) (size 15 to 20)
#    1.200    1.600    0.000    1.800    0.000    2.400 
#    0.000    3.000    4.400   10.200    0.000    4.200 
#    0.000    0.000    0.000    0.800    0.000    0.000 
#
# Total GULP energy -223010.492104 kJ/mol
# GULP energy per Si atom -5575.262303 kJ/mol
# Density = 2.340634 g / cm^3
# Si number density = 23.459736 Si / 1000 Ang^3
#
#
#
# Elastic Constant Matrix: (Units=GPa)
#
#
# Indices 1 2 3 4 5 6 
#
# 1 140.6012 23.3326 61.8104 0.0000 0.0000 0.0000
# 2 23.3326 160.3079 35.0694 0.0000 0.0000 0.0000
# 3 61.8104 35.0694 100.0209 0.0000 0.0000 0.0000
# 4 0.0000 0.0000 0.0000 15.6082 0.0000 0.0000
# 5 0.0000 0.0000 0.0000 0.0000 -41.7887 0.0000
# 6 0.0000 0.0000 0.0000 0.0000 0.0000 11.4552
#
#
#
# Elastic Compliance Matrix: (Units=1/GPa)
#
#
# Indices 1 2 3 4 5 6 
#
# 1 0.009767 -0.000110 -0.005997 0.000000 0.000000 0.000000
# 2 -0.000110 0.006757 -0.002302 0.000000 0.000000 0.000000
# 3 -0.005997 -0.002302 0.014511 0.000000 0.000000 0.000000
# 4 0.000000 0.000000 0.000000 0.064069 0.000000 0.000000
# 5 0.000000 0.000000 0.000000 0.000000 -0.023930 0.000000
# 6 0.000000 0.000000 0.000000 0.000000 0.000000 0.087296
#
#
# Mechanical properties :
#
#
# Convention : Reuss Voigt Hill
#
# Bulk Modulus (GPa) = 70.33071 71.26166 70.79619
# Shear Modulus (GPa) = 27.77355 15.76945 21.77150
#
# Velocity S-wave (km/s) = 3.44449 2.59548 3.04967
# Velocity P-wave (km/s) = 6.77228 6.27886 6.53023
#
# Compressibility (1/GPa) = 0.01421854
#
# Stress axis : x y z
#
# Youngs Moduli (GPa) = 102.38530 147.98492 68.91269
#
# Poissons Ratio (x) = 0.01622 0.41329
# Poissons Ratio (y) = 0.01122 0.15861
# Poissons Ratio (z) = 0.61404 0.34060
#
# Static dielectric constant tensor:
#      x y z
#    x 1.895640 0.000000 0.000000 
#    y 0.000000 1.981120 0.000000 
#    z 0.000000 0.000000 1.979850 
# 
# From -- ./inp_files/28083.got.cif
#   From: 2010.05.17/outbox.cif.g08.bks.cpg/sg53_15_cif.got.tgz:28083.got - 2010.06.03 12:45:16.
