data_PCOD9414243
_publ_section_title
;
Structure prediction by ZEFSAII (Michael W. Deem and Ramdas Pophale) SiO2 
 PCOD9414243
Probable space group: P M N A
;
_chemical_formula_sum "Si O2"
_cell_formula_units_Z 64
_cell_length_a 8.636077
_cell_length_b 15.335360
_cell_length_c 30.410844
_cell_angle_alpha 90.000000
_cell_angle_beta 90.000000
_cell_angle_gamma 90.000000
_cell_volume 4027.531584
_symmetry_space_group_name_H-M "P M N A"
_symmetry_group_IT_number 53
_symmetry_cell_setting 'orthorhombic'
loop_
_space_group_symop_operation_xyz
x,y,z
1/2-x,-y,1/2+z
x,-y,-z
1/2-x,y,1/2-z
-x,-y,-z
1/2+x,y,1/2-z
-x,y,z
1/2+x,-y,1/2+z
loop_
_atom_site_type_symbol
_atom_site_label
_atom_site_fract_x
_atom_site_fract_y
_atom_site_fract_z
Si Si1 0.688473 0.448568 0.064328
Si Si2 0.812186 0.172448 0.538927
Si Si3 0.683138 0.801862 0.704270
Si Si4 0.816230 0.040696 0.889587
Si Si5 0.184307 0.997019 0.702779
Si Si6 0.188490 0.371471 0.530581
Si Si7 0.814655 0.708488 0.621073
Si Si8 0.684737 0.874272 0.940300
O O1 0.500000 0.448524 0.064724
O O2 0.738364 0.549295 0.062340
O O3 0.737787 0.385456 0.103431
O O4 0.733451 0.402396 0.018398
O O5 0.745327 0.116223 0.578490
O O6 0.760752 0.273523 0.540498
O O7 0.767796 0.132538 0.491303
O O8 0.000000 0.170251 0.540679
O O9 0.750000 0.766642 0.750000
O O10 0.500000 0.814288 0.707468
O O11 0.727920 0.741013 0.663970
O O12 0.760827 0.896574 0.697575
O O13 0.744874 0.044847 0.840752
O O14 0.000000 0.043739 0.886078
O O15 0.766835 0.949827 0.912819
O O16 0.250000 0.027533 0.750000
O O17 0.000000 0.999608 0.704140
O O18 0.000000 0.369578 0.530952
O O19 0.790239 0.781115 0.583105
O O20 0.000000 0.706708 0.629394
O O21 0.500000 0.891951 0.939047
#
# Coordination Sequence:
#
# PCOD9414243 Si02
#       8
#     8   8   8   8   8   8   8   8
#     4   8  13  23  44  73  99 123 156 199 242 285
#     4  10  19  32  49  70  97 134 173 210 249 290
#     4  11  21  33  49  71  97 128 161 199 241 290
#     4  12  24  35  47  68  97 134 172 207 244 289
#     4  11  21  36  55  74  96 123 157 201 247 295
#     4   8  13  24  44  71  98 123 159 203 242 283
#     4  10  17  28  48  73 100 131 163 198 241 290
#     4  10  19  31  47  68  97 134 172 205 240 288
#
# _framework density 15.890625999999999
#
# number of rings (size 3 to 8) (size 9 to 14) (size 15 to 20)
#    0.000    2.000    2.500    5.250    0.000    2.000 
#    0.000    0.000    0.000    0.750    0.000    2.625 
#    0.000    4.000    0.000    0.000    0.000    0.000 
#
# Total GULP energy -357012.912998 kJ/mol
# GULP energy per Si atom -5578.326766 kJ/mol
# Density = 1.585446 g / cm^3
# Si number density = 15.890626 Si / 1000 Ang^3
#
#
#
# Elastic Constant Matrix: (Units=GPa)
#
#
# Indices 1 2 3 4 5 6 
#
# 1 64.6746 28.3436 48.0920 0.0000 0.0000 0.0000
# 2 28.3436 63.5208 43.2151 0.0000 0.0000 0.0000
# 3 48.0920 43.2151 131.3301 0.0000 0.0000 0.0000
# 4 0.0000 0.0000 0.0000 22.6995 0.0000 0.0000
# 5 0.0000 0.0000 0.0000 0.0000 20.6530 0.0000
# 6 0.0000 0.0000 0.0000 0.0000 0.0000 2.0349
#
#
#
# Elastic Compliance Matrix: (Units=1/GPa)
#
#
# Indices 1 2 3 4 5 6 
#
# 1 0.022787 -0.005786 -0.006440 0.000000 0.000000 0.000000
# 2 -0.005786 0.021753 -0.005039 0.000000 0.000000 0.000000
# 3 -0.006440 -0.005039 0.011631 0.000000 0.000000 0.000000
# 4 0.000000 0.000000 0.000000 0.044054 0.000000 0.000000
# 5 0.000000 0.000000 0.000000 0.000000 0.048419 0.000000
# 6 0.000000 0.000000 0.000000 0.000000 0.000000 0.491416
#
#
# Mechanical properties :
#
#
# Convention : Reuss Voigt Hill
#
# Bulk Modulus (GPa) = 46.21177 55.42521 50.81849
# Shear Modulus (GPa) = 7.33349 18.40248 12.86799
#
# Velocity S-wave (km/s) = 2.15058 3.40674 2.84876
# Velocity P-wave (km/s) = 5.94230 7.10136 6.54753
#
# Compressibility (1/GPa) = 0.02163951
#
# Stress axis : x y z
#
# Youngs Moduli (GPa) = 43.88502 45.97069 85.97729
#
# Poissons Ratio (x) = 0.26599 0.55373
# Poissons Ratio (y) = 0.25392 0.43325
# Poissons Ratio (z) = 0.28264 0.23165
#
# Static dielectric constant tensor:
#      x y z
#    x 1.539190 0.000000 0.000000 
#    y 0.000000 1.531400 0.000000 
#    z 0.000000 0.000000 1.524580 
# 
# From -- ./inp_files/38476.got.cif
#   From: 2010.05.17/outbox.cif.g08.bks.cpg/sg53_20_cif.got.tgz:38476.got - 2010.06.03 12:45:16.
