data_PCOD9414417
_publ_section_title
;
Structure prediction by ZEFSAII (Michael W. Deem and Ramdas Pophale) SiO2 
 PCOD9414417
Probable space group: P M N A
;
_chemical_formula_sum "Si O2"
_cell_formula_units_Z 48
_cell_length_a 7.331898
_cell_length_b 15.592586
_cell_length_c 19.273719
_cell_angle_alpha 90.000000
_cell_angle_beta 90.000000
_cell_angle_gamma 90.000000
_cell_volume 2203.434198
_symmetry_space_group_name_H-M "P M N A"
_symmetry_group_IT_number 53
_symmetry_cell_setting 'orthorhombic'
loop_
_space_group_symop_operation_xyz
x,y,z
1/2-x,-y,1/2+z
x,-y,-z
1/2-x,y,1/2-z
-x,-y,-z
1/2+x,y,1/2-z
-x,y,z
1/2+x,-y,1/2+z
loop_
_atom_site_type_symbol
_atom_site_label
_atom_site_fract_x
_atom_site_fract_y
_atom_site_fract_z
Si Si1 0.283098 0.719829 0.671665
Si Si2 0.221705 0.623812 0.054344
Si Si3 0.721406 0.443632 0.400895
Si Si4 0.717464 0.032157 0.668880
Si Si5 0.777061 0.126083 0.075306
Si Si6 0.777554 0.817111 0.076474
O O1 0.250000 0.747292 0.750000
O O2 0.500000 0.716944 0.661529
O O3 0.214368 0.623995 0.656222
O O4 0.215737 0.789605 0.617055
O O5 0.282886 0.542175 0.099793
O O6 0.284632 0.718420 0.074883
O O7 0.000000 0.552587 0.898878
O O8 0.269649 0.598664 0.975246
O O9 0.500000 0.625883 0.444041
O O10 0.750000 0.017077 0.750000
O O11 0.500000 0.032223 0.660418
O O12 0.782729 0.124002 0.640419
O O13 0.785172 0.956634 0.618341
O O14 0.000000 0.124759 0.075530
O O15 0.724012 0.135951 0.995303
O O16 0.000000 0.813988 0.076752
#
# Coordination Sequence:
#
# PCOD9414417 Si02
#       6
#     8   8   8   8   8   8
#     4  10  18  28  43  65  94 122 147 182 227 273
#     4   8  12  21  40  65  88 108 140 187 227 253
#     4   8  13  22  38  62  90 114 138 178 227 263
#     4  10  20  32  47  67  93 122 149 182 226 273
#     4   9  16  28  46  68  90 114 150 193 229 259
#     4   9  15  26  46  70  89 111 151 197 227 254
#
# _framework density 21.784178000000001
#
# number of rings (size 3 to 8) (size 9 to 14) (size 15 to 20)
#    0.000    3.000    1.667    2.000    0.000    2.000 
#    0.000    0.833    0.000    3.000    0.000    2.333 
#    0.000    0.000    0.000    0.000    0.000    0.000 
#
# Total GULP energy -267850.754704 kJ/mol
# GULP energy per Si atom -5580.224056 kJ/mol
# Density = 2.173460 g / cm^3
# Si number density = 21.784178 Si / 1000 Ang^3
#
#
#
# Elastic Constant Matrix: (Units=GPa)
#
#
# Indices 1 2 3 4 5 6 
#
# 1 82.3915 8.6058 -2.5668 0.0000 0.0000 0.0000
# 2 8.6058 154.1479 25.6645 0.0000 0.0000 0.0000
# 3 -2.5668 25.6645 40.1137 0.0000 0.0000 0.0000
# 4 0.0000 0.0000 0.0000 21.6898 0.0000 0.0000
# 5 0.0000 0.0000 0.0000 0.0000 3.9418 0.0000
# 6 0.0000 0.0000 0.0000 0.0000 0.0000 -17.6966
#
#
#
# Elastic Compliance Matrix: (Units=1/GPa)
#
#
# Indices 1 2 3 4 5 6 
#
# 1 0.012275 -0.000913 0.001370 0.000000 0.000000 0.000000
# 2 -0.000913 0.007329 -0.004747 0.000000 0.000000 0.000000
# 3 0.001370 -0.004747 0.028054 0.000000 0.000000 0.000000
# 4 0.000000 0.000000 0.000000 0.046105 0.000000 0.000000
# 5 0.000000 0.000000 0.000000 0.000000 0.253694 0.000000
# 6 0.000000 0.000000 0.000000 0.000000 0.000000 -0.056508
#
#
# Mechanical properties :
#
#
# Convention : Reuss Voigt Hill
#
# Bulk Modulus (GPa) = 25.59094 37.78446 31.68770
# Shear Modulus (GPa) = 15.99715 17.91696 16.95705
#
# Velocity S-wave (km/s) = 2.71282 2.87100 2.79303
# Velocity P-wave (km/s) = 4.64602 5.32660 4.99791
#
# Compressibility (1/GPa) = 0.03907633
#
# Stress axis : x y z
#
# Youngs Moduli (GPa) = 81.46471 136.45078 35.64550
#
# Poissons Ratio (x) = 0.12463 -0.04883
# Poissons Ratio (y) = 0.07441 0.16922
# Poissons Ratio (z) = -0.11159 0.64777
#
# Static dielectric constant tensor:
#      x y z
#    x 1.897600 0.000000 0.000000 
#    y 0.000000 1.815500 0.000000 
#    z 0.000000 0.000000 1.748170 
# 
# From -- ./inp_files/21784.got.cif
#   From: 2010.05.17/outbox.cif.g08.bks.cpg/sg53_11_cif.got.tgz:21784.got - 2010.06.03 12:45:16.
