data_PCOD9414589
_publ_section_title
;
Structure prediction by ZEFSAII (Michael W. Deem and Ramdas Pophale) SiO2 
 PCOD9414589
Probable space group: P M N A
;
_chemical_formula_sum "Si O2"
_cell_formula_units_Z 40
_cell_length_a 20.373996
_cell_length_b 5.304054
_cell_length_c 20.334549
_cell_angle_alpha 90.000000
_cell_angle_beta 90.000000
_cell_angle_gamma 90.000000
_cell_volume 2197.448462
_symmetry_space_group_name_H-M "P M N A"
_symmetry_group_IT_number 53
_symmetry_cell_setting 'orthorhombic'
loop_
_space_group_symop_operation_xyz
x,y,z
1/2-x,-y,1/2+z
x,-y,-z
1/2-x,y,1/2-z
-x,-y,-z
1/2+x,y,1/2-z
-x,y,z
1/2+x,-y,1/2+z
loop_
_atom_site_type_symbol
_atom_site_label
_atom_site_fract_x
_atom_site_fract_y
_atom_site_fract_z
Si Si1 0.803513 0.062777 0.652204
Si Si2 0.842950 0.957045 0.798997
Si Si3 0.696830 0.563267 0.927107
Si Si4 0.076394 0.114725 0.909210
Si Si5 0.149838 0.383257 0.090980
O O1 0.835669 0.995075 0.722162
O O2 0.724601 0.058412 0.667012
O O3 0.820254 0.334363 0.622182
O O4 0.820567 0.837183 0.601917
O O5 0.905596 0.091018 0.831285
O O6 0.847253 0.674271 0.829683
O O7 0.776216 0.574250 0.930603
O O8 0.671797 0.500000 0.000000
O O9 0.105788 0.382075 0.927814
O O10 0.000000 0.092040 0.922368
O O11 0.117049 0.874054 0.935082
#
# Coordination Sequence:
#
# PCOD9414589 Si02
#       5
#     8   8   8   8   8
#     4  10  19  30  49  69  95 120 155 192 236 288
#     4   8  19  29  49  71  94 118 153 188 249 277
#     4  11  20  32  47  68  95 130 161 189 229 274
#     4  10  18  30  48  70  95 122 156 192 241 279
#     4   9  18  32  45  69  90 131 150 194 235 274
#
# _framework density 18.202931
#
# number of rings (size 3 to 8) (size 9 to 14) (size 15 to 20)
#    1.200    1.200    2.000    1.200    2.800    1.600 
#    0.000    0.000    0.000    3.600    0.000    0.000 
#    0.000    4.800    0.000    0.000    0.000    0.000 
#
# Total GULP energy -222695.852091 kJ/mol
# GULP energy per Si atom -5567.396302 kJ/mol
# Density = 1.816150 g / cm^3
# Si number density = 18.202931 Si / 1000 Ang^3
#
#
#
# Elastic Constant Matrix: (Units=GPa)
#
#
# Indices 1 2 3 4 5 6 
#
# 1 23.3415 12.1376 10.6472 0.0000 0.0000 0.0000
# 2 12.1376 112.1153 20.9201 0.0000 0.0000 0.0000
# 3 10.6472 20.9201 73.1609 0.0000 0.0000 0.0000
# 4 0.0000 0.0000 0.0000 24.0583 0.0000 0.0000
# 5 0.0000 0.0000 0.0000 0.0000 -6.0489 0.0000
# 6 0.0000 0.0000 0.0000 0.0000 0.0000 17.8520
#
#
#
# Elastic Compliance Matrix: (Units=1/GPa)
#
#
# Indices 1 2 3 4 5 6 
#
# 1 0.047590 -0.004077 -0.005760 0.000000 0.000000 0.000000
# 2 -0.004077 0.009771 -0.002201 0.000000 0.000000 0.000000
# 3 -0.005760 -0.002201 0.015136 0.000000 0.000000 0.000000
# 4 0.000000 0.000000 0.000000 0.041566 0.000000 0.000000
# 5 0.000000 0.000000 0.000000 0.000000 -0.165320 0.000000
# 6 0.000000 0.000000 0.000000 0.000000 0.000000 0.056016
#
#
# Mechanical properties :
#
#
# Convention : Reuss Voigt Hill
#
# Bulk Modulus (GPa) = 20.65204 32.89195 26.77200
# Shear Modulus (GPa) = 111.17143 18.16648 64.66896
#
# Velocity S-wave (km/s) = 7.82342 3.16254 5.96689
# Velocity P-wave (km/s) = 9.64251 5.60753 7.88741
#
# Compressibility (1/GPa) = 0.04842136
#
# Stress axis : x y z
#
# Youngs Moduli (GPa) = 21.01291 102.33907 66.06748
#
# Poissons Ratio (x) = 0.41727 0.38054
# Poissons Ratio (y) = 0.08568 0.14540
# Poissons Ratio (z) = 0.12103 0.22522
#
# Static dielectric constant tensor:
#      x y z
#    x 1.585330 0.000000 0.000000 
#    y 0.000000 1.654590 0.000000 
#    z 0.000000 0.000000 1.714830 
# 
# From -- ./inp_files/29641.got.cif
#   From: 2010.05.17/outbox.cif.g08.bks.cpg/sg53_15_cif.got.tgz:29641.got - 2010.06.03 12:45:16.
