data_PCOD9414359
_publ_section_title
;
Structure prediction by ZEFSAII (Michael W. Deem and Ramdas Pophale) SiO2 
 PCOD9414359
Probable space group: P M N A
;
_chemical_formula_sum "Si O2"
_cell_formula_units_Z 64
_cell_length_a 8.900831
_cell_length_b 19.179616
_cell_length_c 25.617762
_cell_angle_alpha 90.000000
_cell_angle_beta 90.000000
_cell_angle_gamma 90.000000
_cell_volume 4373.323960
_symmetry_space_group_name_H-M "P M N A"
_symmetry_group_IT_number 53
_symmetry_cell_setting 'orthorhombic'
loop_
_space_group_symop_operation_xyz
x,y,z
1/2-x,-y,1/2+z
x,-y,-z
1/2-x,y,1/2-z
-x,-y,-z
1/2+x,y,1/2-z
-x,y,z
1/2+x,-y,1/2+z
loop_
_atom_site_type_symbol
_atom_site_label
_atom_site_fract_x
_atom_site_fract_y
_atom_site_fract_z
Si Si1 0.179565 0.220422 0.695306
Si Si2 0.320882 0.314434 0.606328
Si Si3 0.818204 0.985541 0.420095
Si Si4 0.180066 0.942689 0.304839
Si Si5 0.678194 0.452178 0.923664
Si Si6 0.681897 0.105504 0.491268
Si Si7 0.177122 0.598563 0.544002
Si Si8 0.679632 0.265484 0.489393
O O1 0.250000 0.243581 0.750000
O O2 0.243349 0.266964 0.649223
O O3 0.221530 0.138945 0.688362
O O4 0.000000 0.224723 0.697043
O O5 0.500000 0.311196 0.611283
O O6 0.265387 0.394283 0.608917
O O7 0.279048 0.284709 0.549085
O O8 0.777531 0.980088 0.359006
O O9 0.750249 0.921389 0.453752
O O10 0.000000 0.984892 0.424813
O O11 0.749619 0.053550 0.447997
O O12 0.250000 0.967342 0.250000
O O13 0.000000 0.946605 0.300094
O O14 0.500000 0.450109 0.912053
O O15 0.731322 0.532562 0.921813
O O16 0.694954 0.427469 0.984018
O O17 0.500000 0.099602 0.493057
O O18 0.723850 0.185544 0.479902
O O19 0.253228 0.673801 0.546816
O O20 0.000000 0.606182 0.553374
O O21 0.500000 0.269386 0.485673
#
# Coordination Sequence:
#
# PCOD9414359 Si02
#       8
#     8   8   8   8   8   8   8   8
#     4  10  19  31  44  59  80 106 135 171 209 246
#     4  10  18  27  40  59  81 109 141 172 204 242
#     4  10  19  31  45  63  85 110 142 180 215 253
#     4   9  19  32  47  65  84 108 140 176 217 257
#     4   8  14  25  38  55  78 105 135 166 197 233
#     4  10  19  30  43  61  85 117 148 175 212 257
#     4   8  14  24  39  56  77 105 136 166 198 233
#     4   9  18  28  39  58  84 110 140 173 205 243
#
# _framework density 14.634176999999999
#
# number of rings (size 3 to 8) (size 9 to 14) (size 15 to 20)
#    0.000    2.750    0.000    3.750    0.000    3.500 
#    0.000    2.500    0.000    0.000    0.000    0.000 
#    0.000    1.000    0.000    9.000    0.000    7.250 
#
# Total GULP energy -356390.583509 kJ/mol
# GULP energy per Si atom -5568.602867 kJ/mol
# Density = 1.460087 g / cm^3
# Si number density = 14.634177 Si / 1000 Ang^3
#
#
#
# Elastic Constant Matrix: (Units=GPa)
#
#
# Indices 1 2 3 4 5 6 
#
# 1 31.6147 27.1728 23.6010 0.0000 0.0000 0.0000
# 2 27.1728 98.4417 28.0341 0.0000 0.0000 0.0000
# 3 23.6010 28.0341 69.3653 0.0000 0.0000 0.0000
# 4 0.0000 0.0000 0.0000 14.6141 0.0000 0.0000
# 5 0.0000 0.0000 0.0000 0.0000 19.2957 0.0000
# 6 0.0000 0.0000 0.0000 0.0000 0.0000 23.2768
#
#
#
# Elastic Compliance Matrix: (Units=1/GPa)
#
#
# Indices 1 2 3 4 5 6 
#
# 1 0.049963 -0.010114 -0.012912 0.000000 0.000000 0.000000
# 2 -0.010114 0.013527 -0.002026 0.000000 0.000000 0.000000
# 3 -0.012912 -0.002026 0.019628 0.000000 0.000000 0.000000
# 4 0.000000 0.000000 0.000000 0.068427 0.000000 0.000000
# 5 0.000000 0.000000 0.000000 0.000000 0.051825 0.000000
# 6 0.000000 0.000000 0.000000 0.000000 0.000000 0.042961
#
#
# Mechanical properties :
#
#
# Convention : Reuss Voigt Hill
#
# Bulk Modulus (GPa) = 30.28946 39.67084 34.98015
# Shear Modulus (GPa) = 16.26332 19.47822 17.87077
#
# Velocity S-wave (km/s) = 3.33727 3.65226 3.49831
# Velocity P-wave (km/s) = 5.96595 6.70466 6.34606
#
# Compressibility (1/GPa) = 0.03301478
#
# Stress axis : x y z
#
# Youngs Moduli (GPa) = 20.01481 73.92623 50.94702
#
# Poissons Ratio (x) = 0.74771 0.65782
# Poissons Ratio (y) = 0.20243 0.10320
# Poissons Ratio (z) = 0.25843 0.14975
#
# Static dielectric constant tensor:
#      x y z
#    x 1.489270 0.000000 0.000000 
#    y 0.000000 1.502350 0.000000 
#    z 0.000000 0.000000 1.475970 
# 
# From -- ./inp_files/36470.got.cif
#   From: 2010.05.17/outbox.cif.g08.bks.cpg/sg53_19_cif.got.tgz:36470.got - 2010.06.03 12:45:16.
