data_PCOD9414880
_publ_section_title
;
Structure prediction by ZEFSAII (Michael W. Deem and Ramdas Pophale) SiO2 
 PCOD9414880
Probable space group: P M N A
;
_chemical_formula_sum "Si O2"
_cell_formula_units_Z 48
_cell_length_a 15.508859
_cell_length_b 16.102084
_cell_length_c 9.616609
_cell_angle_alpha 90.000000
_cell_angle_beta 90.000000
_cell_angle_gamma 90.000000
_cell_volume 2401.507205
_symmetry_space_group_name_H-M "P M N A"
_symmetry_group_IT_number 53
_symmetry_cell_setting 'orthorhombic'
loop_
_space_group_symop_operation_xyz
x,y,z
1/2-x,-y,1/2+z
x,-y,-z
1/2-x,y,1/2-z
-x,-y,-z
1/2+x,y,1/2-z
-x,y,z
1/2+x,-y,1/2+z
loop_
_atom_site_type_symbol
_atom_site_label
_atom_site_fract_x
_atom_site_fract_y
_atom_site_fract_z
Si Si1 0.735498 0.365997 0.899666
Si Si2 0.680680 0.823397 0.144051
Si Si3 0.597934 0.407102 0.440355
Si Si4 0.500000 0.892560 0.152138
Si Si5 0.599927 0.372052 0.121795
Si Si6 0.000000 0.915570 0.684767
Si Si7 0.837850 0.183136 0.333842
O O1 0.750000 0.408499 0.750000
O O2 0.697337 0.275131 0.865264
O O3 0.826124 0.358565 0.980907
O O4 0.666251 0.403963 0.005902
O O5 0.750000 0.859568 0.250000
O O6 0.585368 0.844156 0.194354
O O7 0.686468 0.853805 0.985147
O O8 0.601179 0.500000 0.500000
O O9 0.500000 0.374468 0.461827
O O10 0.613511 0.408981 0.275193
O O11 0.500000 0.986419 0.206076
O O12 0.500000 0.898351 0.982844
O O13 0.500000 0.383416 0.081230
O O14 0.619909 0.273696 0.141182
O O15 0.912057 0.872654 0.735519
O O16 0.750000 0.192436 0.250000
#
# Coordination Sequence:
#
# PCOD9414880 Si02
#       7
#     8   8   8   4   8   4   8
#     4  10  21  35  56  88 113 148 199 251 292 346
#     4   9  19  35  53  81 107 151 195 236 294 350
#     4  10  22  40  59  84 119 157 193 241 309 370
#     4   9  18  34  57  73 118 153 196 235 301 357
#     4  10  19  35  61  86 115 156 199 243 296 358
#     4   9  18  32  51  87 108 157 191 243 293 355
#     4  10  18  32  56  83 115 144 196 249 287 346
#
# _framework density 19.987448000000001
#
# number of rings (size 3 to 8) (size 9 to 14) (size 15 to 20)
#    0.000    2.333    0.833    2.500    3.500    2.667 
#    4.500    0.833    0.000    4.500    0.000    0.000 
#    0.000    0.000    0.000    0.000    0.000    0.000 
#
# Total GULP energy -267754.302933 kJ/mol
# GULP energy per Si atom -5578.214644 kJ/mol
# Density = 1.994196 g / cm^3
# Si number density = 19.987448 Si / 1000 Ang^3
#
#
#
# Elastic Constant Matrix: (Units=GPa)
#
#
# Indices 1 2 3 4 5 6 
#
# 1 171.4254 45.1624 81.6519 0.0000 0.0000 0.0000
# 2 45.1624 59.7264 6.2738 0.0000 0.0000 0.0000
# 3 81.6519 6.2738 107.4591 0.0000 0.0000 0.0000
# 4 0.0000 0.0000 0.0000 1.8056 0.0000 0.0000
# 5 0.0000 0.0000 0.0000 0.0000 1.5228 0.0000
# 6 0.0000 0.0000 0.0000 0.0000 0.0000 2.3731
#
#
#
# Elastic Compliance Matrix: (Units=1/GPa)
#
#
# Indices 1 2 3 4 5 6 
#
# 1 0.012211 -0.008310 -0.008793 0.000000 0.000000 0.000000
# 2 -0.008310 0.022501 0.005000 0.000000 0.000000 0.000000
# 3 -0.008793 0.005000 0.015695 0.000000 0.000000 0.000000
# 4 0.000000 0.000000 0.000000 0.553830 0.000000 0.000000
# 5 0.000000 0.000000 0.000000 0.000000 0.656682 0.000000
# 6 0.000000 0.000000 0.000000 0.000000 0.000000 0.421397
#
#
# Mechanical properties :
#
#
# Convention : Reuss Voigt Hill
#
# Bulk Modulus (GPa) = 38.16448 67.19857 52.68152
# Shear Modulus (GPa) = 2.91502 14.84181 8.87841
#
# Velocity S-wave (km/s) = 1.20896 2.72795 2.10989
# Velocity P-wave (km/s) = 4.59178 6.60421 5.68771
#
# Compressibility (1/GPa) = 0.02620238
#
# Stress axis : x y z
#
# Youngs Moduli (GPa) = 81.89337 44.44208 63.71279
#
# Poissons Ratio (x) = 0.36930 0.56024
# Poissons Ratio (y) = 0.68051 -0.31859
# Poissons Ratio (z) = 0.72011 -0.22223
#
# Static dielectric constant tensor:
#      x y z
#    x 1.740560 0.000000 0.000000 
#    y 0.000000 1.706520 0.000000 
#    z 0.000000 0.000000 1.741590 
# 
# From -- ./inp_files/8714.got.cif
#   From: 2010.05.17/outbox.cif.g08.bks.cpg/sg53_5_cif.got.tgz:8714.got - 2010.06.03 12:45:16.
