data_PCOD9414619
_publ_section_title
;
Structure prediction by ZEFSAII (Michael W. Deem and Ramdas Pophale) SiO2 
 PCOD9414619
Probable space group: P M N A
;
_chemical_formula_sum "Si O2"
_cell_formula_units_Z 40
_cell_length_a 24.247614
_cell_length_b 9.160620
_cell_length_c 7.630080
_cell_angle_alpha 90.000000
_cell_angle_beta 90.000000
_cell_angle_gamma 90.000000
_cell_volume 1694.817616
_symmetry_space_group_name_H-M "P M N A"
_symmetry_group_IT_number 53
_symmetry_cell_setting 'orthorhombic'
loop_
_space_group_symop_operation_xyz
x,y,z
1/2-x,-y,1/2+z
x,-y,-z
1/2-x,y,1/2-z
-x,-y,-z
1/2+x,y,1/2-z
-x,y,z
1/2+x,-y,1/2+z
loop_
_atom_site_type_symbol
_atom_site_label
_atom_site_fract_x
_atom_site_fract_y
_atom_site_fract_z
Si Si1 0.939141 0.292881 0.851061
Si Si2 0.439825 0.376658 0.233738
Si Si3 0.321352 0.238400 0.583641
Si Si4 0.738090 0.000000 0.000000
Si Si5 0.827186 0.262728 0.335727
Si Si6 0.754692 0.500000 0.000000
O O1 0.934451 0.448918 0.754656
O O2 0.000000 0.228980 0.809454
O O3 0.939686 0.323945 0.062019
O O4 0.880365 0.214259 0.825833
O O5 0.500000 0.342262 0.159043
O O6 0.390060 0.306398 0.126577
O O7 0.326726 0.251878 0.373752
O O8 0.294643 0.397527 0.620877
O O9 0.280508 0.104179 0.605998
O O10 0.697913 0.886366 0.905876
O O11 0.785797 0.385016 0.407836
#
# Coordination Sequence:
#
# PCOD9414619 Si02
#       6
#     8   8   8   4   8   4
#     4   8  14  27  52  81 100 120 161 210 257 301
#     4   8  14  28  52  78 101 127 160 206 256 295
#     4  10  19  34  51  72 102 132 161 207 256 294
#     4  10  20  32  46  68 102 140 170 196 240 300
#     4  10  20  35  50  71 101 132 166 208 249 295
#     4  10  18  30  50  72  94 128 170 204 242 298
#
# _framework density 23.601361000000001
#
# number of rings (size 3 to 8) (size 9 to 14) (size 15 to 20)
#    0.000    2.800    0.000    6.000    0.000    0.000 
#    0.000   25.500    0.000    0.000    0.000    0.000 
#    0.000    0.000    0.000    0.000    0.000    0.000 
#
# Total GULP energy -223429.971706 kJ/mol
# GULP energy per Si atom -5585.749293 kJ/mol
# Density = 2.354764 g / cm^3
# Si number density = 23.601361 Si / 1000 Ang^3
#
#
#
# Elastic Constant Matrix: (Units=GPa)
#
#
# Indices 1 2 3 4 5 6 
#
# 1 267.3625 70.1781 37.5132 0.0000 0.0000 0.0000
# 2 70.1781 112.1148 30.5885 0.0000 0.0000 0.0000
# 3 37.5132 30.5885 37.8009 0.0000 0.0000 0.0000
# 4 0.0000 0.0000 0.0000 22.8442 0.0000 0.0000
# 5 0.0000 0.0000 0.0000 0.0000 18.9220 0.0000
# 6 0.0000 0.0000 0.0000 0.0000 0.0000 29.2212
#
#
#
# Elastic Compliance Matrix: (Units=1/GPa)
#
#
# Indices 1 2 3 4 5 6 
#
# 1 0.004717 -0.002150 -0.002941 0.000000 0.000000 0.000000
# 2 -0.002150 0.012427 -0.007922 0.000000 0.000000 0.000000
# 3 -0.002941 -0.007922 0.035784 0.000000 0.000000 0.000000
# 4 0.000000 0.000000 0.000000 0.043775 0.000000 0.000000
# 5 0.000000 0.000000 0.000000 0.000000 0.052849 0.000000
# 6 0.000000 0.000000 0.000000 0.000000 0.000000 0.034222
#
#
# Mechanical properties :
#
#
# Convention : Reuss Voigt Hill
#
# Bulk Modulus (GPa) = 37.17356 77.09308 57.13332
# Shear Modulus (GPa) = 22.85540 32.79739 27.82639
#
# Velocity S-wave (km/s) = 3.11528 3.73183 3.43741
# Velocity P-wave (km/s) = 5.35955 7.16270 6.32570
#
# Compressibility (1/GPa) = 0.02690084
#
# Stress axis : x y z
#
# Youngs Moduli (GPa) = 211.98257 80.47180 27.94565
#
# Poissons Ratio (x) = 0.17304 0.08220
# Poissons Ratio (y) = 0.45583 0.22138
# Poissons Ratio (z) = 0.62353 0.63748
#
# Static dielectric constant tensor:
#      x y z
#    x 1.954290 0.000000 0.000000 
#    y 0.000000 1.890670 0.000000 
#    z 0.000000 0.000000 2.004970 
# 
# From -- ./inp_files/12363.got.cif
#   From: 2010.05.17/outbox.cif.g08.bks.cpg/sg53_7_cif.got.tgz:12363.got - 2010.06.03 12:45:16.
