data_PCOD9414299
_publ_section_title
;
Structure prediction by ZEFSAII (Michael W. Deem and Ramdas Pophale) SiO2 
 PCOD9414299
Probable space group: P M N A
;
_chemical_formula_sum "Si O2"
_cell_formula_units_Z 48
_cell_length_a 19.685942
_cell_length_b 10.112603
_cell_length_c 13.700835
_cell_angle_alpha 90.000000
_cell_angle_beta 90.000000
_cell_angle_gamma 90.000000
_cell_volume 2727.509019
_symmetry_space_group_name_H-M "P M N A"
_symmetry_group_IT_number 53
_symmetry_cell_setting 'orthorhombic'
loop_
_space_group_symop_operation_xyz
x,y,z
1/2-x,-y,1/2+z
x,-y,-z
1/2-x,y,1/2-z
-x,-y,-z
1/2+x,y,1/2-z
-x,y,z
1/2+x,-y,1/2+z
loop_
_atom_site_type_symbol
_atom_site_label
_atom_site_fract_x
_atom_site_fract_y
_atom_site_fract_z
Si Si1 0.851375 0.043490 0.712631
Si Si2 0.713877 0.104296 0.588962
Si Si3 0.577031 0.853671 0.043359
Si Si4 0.190009 0.360916 0.036909
Si Si5 0.150908 0.620787 0.564126
Si Si6 0.333103 0.258029 0.256342
O O1 0.785600 0.077050 0.644249
O O2 0.838726 0.085037 0.823332
O O3 0.909821 0.123399 0.657760
O O4 0.858933 0.885383 0.721251
O O5 0.700742 0.248460 0.544400
O O6 0.708695 0.000000 0.500000
O O7 0.500000 0.811487 0.023250
O O8 0.628124 0.752184 0.992856
O O9 0.587550 0.000000 0.000000
O O10 0.267708 0.392685 0.066829
O O11 0.153883 0.299182 0.132148
O O12 0.159957 0.500000 0.000000
O O13 0.123026 0.500000 0.500000
O O14 0.135507 0.639086 0.678556
O O15 0.250000 0.248531 0.250000
#
# Coordination Sequence:
#
# PCOD9414299 Si02
#       6
#     8   8   8   8   8   8
#     4  11  19  30  54  76 103 133 177 213 251 313
#     4  11  18  30  53  79  98 136 173 203 258 315
#     4  11  22  35  53  74 102 137 180 224 256 299
#     4  10  20  32  48  77 113 138 167 206 259 321
#     4  10  20  33  51  73 108 141 170 210 258 316
#     4  10  17  31  50  74 105 143 164 207 260 306
#
# _framework density 17.598476000000002
#
# number of rings (size 3 to 8) (size 9 to 14) (size 15 to 20)
#    0.000    1.500    6.667    1.500    0.000    1.667 
#    6.000    0.000    0.000    0.500    0.000    0.000 
#    0.000    3.333    0.000    0.000    0.000    0.000 
#
# Total GULP energy -267235.111768 kJ/mol
# GULP energy per Si atom -5567.398162 kJ/mol
# Density = 1.755842 g / cm^3
# Si number density = 17.598476 Si / 1000 Ang^3
#
#
#
# Elastic Constant Matrix: (Units=GPa)
#
#
# Indices 1 2 3 4 5 6 
#
# 1 3.6257 -6.6367 -2.0587 0.0000 0.0000 0.0000
# 2 -6.6367 84.3520 44.8540 0.0000 0.0000 0.0000
# 3 -2.0587 44.8540 124.2888 0.0000 0.0000 0.0000
# 4 0.0000 0.0000 0.0000 -13.1641 0.0000 0.0000
# 5 0.0000 0.0000 0.0000 0.0000 7.4925 0.0000
# 6 0.0000 0.0000 0.0000 0.0000 0.0000 2.7444
#
#
#
# Elastic Compliance Matrix: (Units=1/GPa)
#
#
# Indices 1 2 3 4 5 6 
#
# 1 0.324459 0.028054 -0.004750 0.000000 0.000000 0.000000
# 2 0.028054 0.017096 -0.005705 0.000000 0.000000 0.000000
# 3 -0.004750 -0.005705 0.010026 0.000000 0.000000 0.000000
# 4 0.000000 0.000000 0.000000 -0.075964 0.000000 0.000000
# 5 0.000000 0.000000 0.000000 0.000000 0.133467 0.000000
# 6 0.000000 0.000000 0.000000 0.000000 0.000000 0.364385
#
#
# Mechanical properties :
#
#
# Convention : Reuss Voigt Hill
#
# Bulk Modulus (GPa) = 2.58546 31.62045 17.10296
# Shear Modulus (GPa) = 5.76570 11.15508 8.46039
#
# Velocity S-wave (km/s) = 1.81200 2.52040 2.19497
# Velocity P-wave (km/s) = 2.41871 5.14554 4.02037
#
# Compressibility (1/GPa) = 0.38677823
#
# Stress axis : x y z
#
# Youngs Moduli (GPa) = 3.08205 58.49355 99.74119
#
# Poissons Ratio (x) = -1.64095 0.47377
# Poissons Ratio (y) = -0.08646 0.56902
# Poissons Ratio (z) = 0.01464 0.33371
#
# Static dielectric constant tensor:
#      x y z
#    x 1.615360 0.000000 0.000000 
#    y 0.000000 1.623620 0.000000 
#    z 0.000000 0.000000 1.636280 
# 
# From -- ./inp_files/18364.got.cif
#   From: 2010.05.17/outbox.cif.g08.bks.cpg/sg53_10_cif.got.tgz:18364.got - 2010.06.03 12:45:16.
