data_PCOD9414100
_publ_section_title
;
Structure prediction by ZEFSAII (Michael W. Deem and Ramdas Pophale) SiO2 
 PCOD9414100
Probable space group: P M N A
;
_chemical_formula_sum "Si O2"
_cell_formula_units_Z 48
_cell_length_a 19.457217
_cell_length_b 13.493429
_cell_length_c 10.416054
_cell_angle_alpha 90.000000
_cell_angle_beta 90.000000
_cell_angle_gamma 90.000000
_cell_volume 2734.678482
_symmetry_space_group_name_H-M "P M N A"
_symmetry_group_IT_number 53
_symmetry_cell_setting 'orthorhombic'
loop_
_space_group_symop_operation_xyz
x,y,z
1/2-x,-y,1/2+z
x,-y,-z
1/2-x,y,1/2-z
-x,-y,-z
1/2+x,y,1/2-z
-x,y,z
1/2+x,-y,1/2+z
loop_
_atom_site_type_symbol
_atom_site_label
_atom_site_fract_x
_atom_site_fract_y
_atom_site_fract_z
Si Si1 0.500000 0.537266 0.854235
Si Si2 0.220229 0.390784 0.051787
Si Si3 0.082088 0.047459 0.859233
Si Si4 0.117992 0.249135 0.949834
Si Si5 0.081701 0.841120 0.768806
Si Si6 0.000000 0.408655 0.897557
Si Si7 0.357388 0.347682 0.179958
O O1 0.500000 0.453322 0.744905
O O2 0.430602 0.599781 0.832419
O O3 0.500000 0.500000 0.000000
O O4 0.301041 0.377978 0.075956
O O5 0.178413 0.377080 0.185074
O O6 0.205734 0.500000 0.000000
O O7 0.190596 0.303317 0.963719
O O8 0.115809 0.155324 0.854877
O O9 0.000000 0.063038 0.848729
O O10 0.101489 0.956868 0.766198
O O11 0.094528 0.000000 0.000000
O O12 0.064969 0.336773 0.917644
O O13 0.093940 0.203195 0.087422
O O14 0.126556 0.769335 0.680849
O O15 0.000000 0.833539 0.743190
O O16 0.000000 0.500000 0.000000
#
# Coordination Sequence:
#
# PCOD9414100 Si02
#       7
#     4   8   8   8   8   4   8
#     4  12  24  36  51  75 107 145 186 232 262 323
#     4  10  20  32  48  73 105 140 179 224 274 330
#     4   8  13  22  41  75 112 129 151 206 280 326
#     4  10  16  27  46  78 110 133 162 220 286 327
#     4   9  14  26  48  77 109 133 166 221 271 323
#     4  12  20  30  52  81 109 139 177 228 279 321
#     4  10  20  34  50  72 101 144 184 215 268 325
#
# _framework density 17.552337999999999
#
# number of rings (size 3 to 8) (size 9 to 14) (size 15 to 20)
#    0.000    2.167    2.500    5.000    0.000    0.000 
#    0.000    0.000    0.000    0.000    0.000   70.000 
#    0.000    0.000    0.000    0.000    0.000    0.000 
#
# Total GULP energy -267392.253406 kJ/mol
# GULP energy per Si atom -5570.671946 kJ/mol
# Density = 1.751239 g / cm^3
# Si number density = 17.552338 Si / 1000 Ang^3
#
#
#
# Elastic Constant Matrix: (Units=GPa)
#
#
# Indices 1 2 3 4 5 6 
#
# 1 96.6362 51.7987 9.2756 0.0000 0.0000 0.0000
# 2 51.7987 165.3210 28.8953 0.0000 0.0000 0.0000
# 3 9.2756 28.8953 27.5402 0.0000 0.0000 0.0000
# 4 0.0000 0.0000 0.0000 9.5657 0.0000 0.0000
# 5 0.0000 0.0000 0.0000 0.0000 10.3460 0.0000
# 6 0.0000 0.0000 0.0000 0.0000 0.0000 17.0597
#
#
#
# Elastic Compliance Matrix: (Units=1/GPa)
#
#
# Indices 1 2 3 4 5 6 
#
# 1 0.012437 -0.003875 -0.000123 0.000000 0.000000 0.000000
# 2 -0.003875 0.008615 -0.007733 0.000000 0.000000 0.000000
# 3 -0.000123 -0.007733 0.044466 0.000000 0.000000 0.000000
# 4 0.000000 0.000000 0.000000 0.104540 0.000000 0.000000
# 5 0.000000 0.000000 0.000000 0.000000 0.096656 0.000000
# 6 0.000000 0.000000 0.000000 0.000000 0.000000 0.058618
#
#
# Mechanical properties :
#
#
# Convention : Reuss Voigt Hill
#
# Bulk Modulus (GPa) = 23.77858 52.15960 37.96909
# Shear Modulus (GPa) = 13.78122 20.69613 17.23867
#
# Velocity S-wave (km/s) = 2.80509 3.43754 3.13729
# Velocity P-wave (km/s) = 4.90592 6.74809 5.89935
#
# Compressibility (1/GPa) = 0.04205465
#
# Stress axis : x y z
#
# Youngs Moduli (GPa) = 80.40430 116.08016 22.48915
#
# Poissons Ratio (x) = 0.44985 0.00276
# Poissons Ratio (y) = 0.31160 0.17392
# Poissons Ratio (z) = 0.00987 0.89769
#
# Static dielectric constant tensor:
#      x y z
#    x 1.596640 0.000000 0.000000 
#    y 0.000000 1.619940 0.000000 
#    z 0.000000 0.000000 1.629010 
# 
# From -- ./inp_files/17802.got.cif
#   From: 2010.05.17/outbox.cif.g08.bks.cpg/sg53_9_cif.got.tgz:17802.got - 2010.06.03 12:45:16.
