data_PCOD9414908
_publ_section_title
;
Structure prediction by ZEFSAII (Michael W. Deem and Ramdas Pophale) SiO2 
 PCOD9414908
Probable space group: P M N A
;
_chemical_formula_sum "Si O2"
_cell_formula_units_Z 48
_cell_length_a 18.115402
_cell_length_b 5.029740
_cell_length_c 30.533433
_cell_angle_alpha 90.000000
_cell_angle_beta 90.000000
_cell_angle_gamma 90.000000
_cell_volume 2782.077016
_symmetry_space_group_name_H-M "P M N A"
_symmetry_group_IT_number 53
_symmetry_cell_setting 'orthorhombic'
loop_
_space_group_symop_operation_xyz
x,y,z
1/2-x,-y,1/2+z
x,-y,-z
1/2-x,y,1/2-z
-x,-y,-z
1/2+x,y,1/2-z
-x,y,z
1/2+x,-y,1/2+z
loop_
_atom_site_type_symbol
_atom_site_label
_atom_site_fract_x
_atom_site_fract_y
_atom_site_fract_z
Si Si1 0.582687 0.066892 0.064161
Si Si2 0.320234 0.435645 0.953239
Si Si3 0.322551 0.331840 0.719036
Si Si4 0.774398 0.484268 0.357317
Si Si5 0.914330 0.841924 0.755123
Si Si6 0.631592 0.013072 0.840078
O O1 0.500000 0.015149 0.048875
O O2 0.612115 0.356595 0.051776
O O3 0.584412 0.043793 0.116824
O O4 0.642778 0.853905 0.047888
O O5 0.271012 0.479666 0.909797
O O6 0.284307 0.500000 0.000000
O O7 0.250000 0.299253 0.750000
O O8 0.294355 0.426215 0.671655
O O9 0.374156 0.560316 0.739297
O O10 0.367630 0.059292 0.718034
O O11 0.798356 0.185580 0.345250
O O12 0.840292 0.684813 0.342649
O O13 0.907144 0.941401 0.704993
O O14 0.000000 0.828308 0.767478
#
# Coordination Sequence:
#
# PCOD9414908 Si02
#       6
#     8   8   8   8   8   8
#     4  10  20  31  46  66  94 131 167 202 250 295
#     4  10  21  34  48  67  93 122 163 216 254 287
#     4  12  21  36  56  76 103 140 179 209 250 311
#     4  10  20  33  53  72  94 130 174 209 244 297
#     4  12  23  34  52  79 110 137 172 216 256 296
#     4  10  18  33  48  71  99 133 171 210 244 285
#
# _framework density 17.253298000000001
#
# number of rings (size 3 to 8) (size 9 to 14) (size 15 to 20)
#    0.000    1.333    3.333    3.500    0.000    2.000 
#    0.000    5.000    0.000    0.000    0.000    0.000 
#    0.000    4.000    0.000    0.000    0.000    0.000 
#
# Total GULP energy -268100.462114 kJ/mol
# GULP energy per Si atom -5585.426294 kJ/mol
# Density = 1.721403 g / cm^3
# Si number density = 17.253298 Si / 1000 Ang^3
#
#
#
# Elastic Constant Matrix: (Units=GPa)
#
#
# Indices 1 2 3 4 5 6 
#
# 1 68.3300 4.7932 19.0110 0.0000 0.0000 0.0000
# 2 4.7932 56.5495 -15.0501 0.0000 0.0000 0.0000
# 3 19.0110 -15.0501 94.6542 0.0000 0.0000 0.0000
# 4 0.0000 0.0000 0.0000 22.2545 0.0000 0.0000
# 5 0.0000 0.0000 0.0000 0.0000 -6.8179 0.0000
# 6 0.0000 0.0000 0.0000 0.0000 0.0000 12.0629
#
#
#
# Elastic Compliance Matrix: (Units=1/GPa)
#
#
# Indices 1 2 3 4 5 6 
#
# 1 0.015777 -0.002277 -0.003531 0.000000 0.000000 0.000000
# 2 -0.002277 0.018794 0.003446 0.000000 0.000000 0.000000
# 3 -0.003531 0.003446 0.011822 0.000000 0.000000 0.000000
# 4 0.000000 0.000000 0.000000 0.044935 0.000000 0.000000
# 5 0.000000 0.000000 0.000000 0.000000 -0.146674 0.000000
# 6 0.000000 0.000000 0.000000 0.000000 0.000000 0.082899
#
#
# Mechanical properties :
#
#
# Convention : Reuss Voigt Hill
#
# Bulk Modulus (GPa) = 23.99931 26.33798 25.16864
# Shear Modulus (GPa) = 108.30548 19.55188 63.92868
#
# Velocity S-wave (km/s) = 7.93159 3.36999 6.09372
# Velocity P-wave (km/s) = 9.89041 5.51734 8.00816
#
# Compressibility (1/GPa) = 0.04166787
#
# Stress axis : x y z
#
# Youngs Moduli (GPa) = 63.38369 53.20955 84.58978
#
# Poissons Ratio (x) = 0.12116 0.29867
# Poissons Ratio (y) = 0.14432 -0.29146
# Poissons Ratio (z) = 0.22379 -0.18333
#
# Static dielectric constant tensor:
#      x y z
#    x 1.550100 0.000000 0.000000 
#    y 0.000000 1.589470 0.000000 
#    z 0.000000 0.000000 1.639200 
# 
# From -- ./inp_files/38808.got.cif
#   From: 2010.05.17/outbox.cif.g08.bks.cpg/sg53_20_cif.got.tgz:38808.got - 2010.06.03 12:45:16.
