data_PCOD9414519
_publ_section_title
;
Structure prediction by ZEFSAII (Michael W. Deem and Ramdas Pophale) SiO2 
 PCOD9414519
Probable space group: P M N A
;
_chemical_formula_sum "Si O2"
_cell_formula_units_Z 64
_cell_length_a 7.923365
_cell_length_b 18.250963
_cell_length_c 20.342958
_cell_angle_alpha 90.000000
_cell_angle_beta 90.000000
_cell_angle_gamma 90.000000
_cell_volume 2941.775657
_symmetry_space_group_name_H-M "P M N A"
_symmetry_group_IT_number 53
_symmetry_cell_setting 'orthorhombic'
loop_
_space_group_symop_operation_xyz
x,y,z
1/2-x,-y,1/2+z
x,-y,-z
1/2-x,y,1/2-z
-x,-y,-z
1/2+x,y,1/2-z
-x,y,z
1/2+x,-y,1/2+z
loop_
_atom_site_type_symbol
_atom_site_label
_atom_site_fract_x
_atom_site_fract_y
_atom_site_fract_z
Si Si1 0.703656 0.869727 0.326396
Si Si2 0.692141 0.245264 0.321728
Si Si3 0.298583 0.374115 0.003284
Si Si4 0.299786 0.067341 0.541460
Si Si5 0.198297 0.786139 0.531663
Si Si6 0.197746 0.405906 0.343584
Si Si7 0.802416 0.553878 0.378446
Si Si8 0.298720 0.291673 0.674358
O O1 0.750000 0.883105 0.250000
O O2 0.500000 0.868861 0.327120
O O3 0.766570 0.923184 0.383932
O O4 0.758028 0.788150 0.350177
O O5 0.750000 0.217901 0.250000
O O6 0.500000 0.223994 0.331240
O O7 0.784204 0.220065 0.388721
O O8 0.708118 0.333962 0.319163
O O9 0.500000 0.369096 0.989622
O O10 0.230540 0.290822 0.002440
O O11 0.286423 0.400964 0.077425
O O12 0.227051 0.431015 0.950659
O O13 0.500000 0.054226 0.548741
O O14 0.278122 0.142280 0.500399
O O15 0.226220 0.000000 0.500000
O O16 0.000000 0.788491 0.517057
O O17 0.266051 0.488280 0.332663
O O18 0.000000 0.397103 0.324471
O O19 0.787944 0.635181 0.350446
O O20 0.000000 0.533490 0.384897
O O21 0.250000 0.287358 0.750000
O O22 0.500000 0.299133 0.665185
#
# Coordination Sequence:
#
# PCOD9414519 Si02
#       8
#     8   8   8   8   8   8   8   8
#     4   9  19  36  58  83 112 150 192 231 274 328
#     4  11  22  38  59  80 106 143 190 241 292 345
#     4   8  15  29  50  74  99 131 172 217 266 323
#     4  10  21  38  60  88 123 157 187 226 281 338
#     4  10  20  36  59  86 114 145 186 233 282 340
#     4   9  18  32  49  72 102 136 177 224 275 331
#     4  10  18  29  48  72 100 135 174 220 274 328
#     4  10  20  33  48  68  96 129 171 218 261 312
#
# _framework density 21.755568
#
# number of rings (size 3 to 8) (size 9 to 14) (size 15 to 20)
#    0.000    2.375    0.000    3.750    0.000    3.750 
#    0.000    3.125    0.000    5.250    0.000    0.000 
#    0.000    0.000    0.000    0.000    0.000    0.000 
#
# Total GULP energy -356785.524202 kJ/mol
# GULP energy per Si atom -5574.773816 kJ/mol
# Density = 2.170605 g / cm^3
# Si number density = 21.755568 Si / 1000 Ang^3
#
#
#
# Elastic Constant Matrix: (Units=GPa)
#
#
# Indices 1 2 3 4 5 6 
#
# 1 24.1853 -3.3037 -11.0247 0.0000 0.0000 0.0000
# 2 -3.3037 95.0910 43.2621 0.0000 0.0000 0.0000
# 3 -11.0247 43.2621 92.3657 0.0000 0.0000 0.0000
# 4 0.0000 0.0000 0.0000 16.1506 0.0000 0.0000
# 5 0.0000 0.0000 0.0000 0.0000 17.1737 0.0000
# 6 0.0000 0.0000 0.0000 0.0000 0.0000 5.0231
#
#
#
# Elastic Compliance Matrix: (Units=1/GPa)
#
#
# Indices 1 2 3 4 5 6 
#
# 1 0.043815 -0.001089 0.005740 0.000000 0.000000 0.000000
# 2 -0.001089 0.013391 -0.006402 0.000000 0.000000 0.000000
# 3 0.005740 -0.006402 0.014510 0.000000 0.000000 0.000000
# 4 0.000000 0.000000 0.000000 0.061917 0.000000 0.000000
# 5 0.000000 0.000000 0.000000 0.000000 0.058228 0.000000
# 6 0.000000 0.000000 0.000000 0.000000 0.000000 0.199081
#
#
# Mechanical properties :
#
#
# Convention : Reuss Voigt Hill
#
# Bulk Modulus (GPa) = 14.65983 29.94549 22.30266
# Shear Modulus (GPa) = 11.98513 19.85004 15.91758
#
# Velocity S-wave (km/s) = 2.34967 3.02389 2.70785
# Velocity P-wave (km/s) = 3.75690 5.09768 4.47776
#
# Compressibility (1/GPa) = 0.06821363
#
# Stress axis : x y z
#
# Youngs Moduli (GPa) = 22.82320 74.67662 68.91685
#
# Poissons Ratio (x) = 0.08133 -0.39557
# Poissons Ratio (y) = 0.02486 0.44121
# Poissons Ratio (z) = -0.13100 0.47809
#
# Static dielectric constant tensor:
#      x y z
#    x 1.794400 0.000000 0.000000 
#    y 0.000000 1.858700 0.000000 
#    z 0.000000 0.000000 1.864090 
# 
# From -- ./inp_files/31199.got.cif
#   From: 2010.05.17/outbox.cif.g08.bks.cpg/sg53_16_cif.got.tgz:31199.got - 2010.06.03 12:45:16.
