data_PCOD9414838
_publ_section_title
;
Structure prediction by ZEFSAII (Michael W. Deem and Ramdas Pophale) SiO2 
 PCOD9414838
Probable space group: P M N A
;
_chemical_formula_sum "Si O2"
_cell_formula_units_Z 56
_cell_length_a 9.579859
_cell_length_b 15.424173
_cell_length_c 19.724723
_cell_angle_alpha 90.000000
_cell_angle_beta 90.000000
_cell_angle_gamma 90.000000
_cell_volume 2914.552735
_symmetry_space_group_name_H-M "P M N A"
_symmetry_group_IT_number 53
_symmetry_cell_setting 'orthorhombic'
loop_
_space_group_symop_operation_xyz
x,y,z
1/2-x,-y,1/2+z
x,-y,-z
1/2-x,y,1/2-z
-x,-y,-z
1/2+x,y,1/2-z
-x,y,z
1/2+x,-y,1/2+z
loop_
_atom_site_type_symbol
_atom_site_label
_atom_site_fract_x
_atom_site_fract_y
_atom_site_fract_z
Si Si1 0.332614 0.964172 0.867144
Si Si2 0.840027 0.886208 0.984795
Si Si3 0.658925 0.405992 0.535546
Si Si4 0.656319 0.774722 0.808403
Si Si5 0.658775 0.720933 0.955676
Si Si6 0.159069 0.125321 0.852590
Si Si7 0.834356 0.673797 0.182211
O O1 0.500000 0.972522 0.874036
O O2 0.259430 0.948225 0.940243
O O3 0.302276 0.873234 0.829015
O O4 0.264976 0.048603 0.832370
O O5 0.772833 0.793829 0.969694
O O6 0.000000 0.898869 0.961206
O O7 0.844046 0.885114 0.065952
O O8 0.653282 0.500000 0.500000
O O9 0.500000 0.368836 0.525586
O O10 0.783663 0.359627 0.495967
O O11 0.687604 0.387404 0.615743
O O12 0.750000 0.738756 0.750000
O O13 0.500000 0.781785 0.782730
O O14 0.658280 0.715326 0.874705
O O15 0.500000 0.746141 0.975526
O O16 0.200339 0.224702 0.835814
O O17 0.000000 0.110946 0.827459
O O18 0.750000 0.649612 0.250000
O O19 0.000000 0.671787 0.196347
#
# Coordination Sequence:
#
# PCOD9414838 Si02
#       7
#     8   8   8   8   8   8   8
#     4  10  21  33  47  76 114 150 199 253 299 341
#     4  10  18  32  53  77 110 151 195 241 287 339
#     4  10  21  41  68  93 118 151 192 233 281 353
#     4   9  20  36  52  75 109 151 195 243 289 341
#     4  10  20  35  57  87 118 145 185 238 292 344
#     4  10  20  34  52  76 110 151 198 241 283 343
#     4  10  22  41  61  88 121 155 195 237 289 352
#
# _framework density 19.213926000000001
#
# number of rings (size 3 to 8) (size 9 to 14) (size 15 to 20)
#    0.000    2.143    1.429    2.571    0.000    8.286 
#    0.000    3.571    0.000    3.429    0.000    0.000 
#    0.000    0.000    0.000    0.000    0.000    0.000 
#
# Total GULP energy -311769.087462 kJ/mol
# GULP energy per Si atom -5567.305133 kJ/mol
# Density = 1.917019 g / cm^3
# Si number density = 19.213926 Si / 1000 Ang^3
#
#
#
# Elastic Constant Matrix: (Units=GPa)
#
#
# Indices 1 2 3 4 5 6 
#
# 1 68.3308 22.8921 55.8889 0.0000 0.0000 0.0000
# 2 22.8921 50.2717 38.7434 0.0000 0.0000 0.0000
# 3 55.8889 38.7434 86.7884 0.0000 0.0000 0.0000
# 4 0.0000 0.0000 0.0000 1.8822 0.0000 0.0000
# 5 0.0000 0.0000 0.0000 0.0000 21.5815 0.0000
# 6 0.0000 0.0000 0.0000 0.0000 0.0000 61.1221
#
#
#
# Elastic Compliance Matrix: (Units=1/GPa)
#
#
# Indices 1 2 3 4 5 6 
#
# 1 0.031044 0.001937 -0.020856 0.000000 0.000000 0.000000
# 2 0.001937 0.030446 -0.014839 0.000000 0.000000 0.000000
# 3 -0.020856 -0.014839 0.031577 0.000000 0.000000 0.000000
# 4 0.000000 0.000000 0.000000 0.531288 0.000000 0.000000
# 5 0.000000 0.000000 0.000000 0.000000 0.046336 0.000000
# 6 0.000000 0.000000 0.000000 0.000000 0.000000 0.016361
#
#
# Mechanical properties :
#
#
# Convention : Reuss Voigt Hill
#
# Bulk Modulus (GPa) = 39.13690 48.93776 44.03733
# Shear Modulus (GPa) = 6.55235 22.77493 14.66364
#
# Velocity S-wave (km/s) = 1.84868 3.44660 2.76556
# Velocity P-wave (km/s) = 4.99701 6.43149 5.75908
#
# Compressibility (1/GPa) = 0.02555133
#
# Stress axis : x y z
#
# Youngs Moduli (GPa) = 32.21183 32.84526 31.66845
#
# Poissons Ratio (x) = -0.06362 0.66049
# Poissons Ratio (y) = -0.06239 0.46992
# Poissons Ratio (z) = 0.67182 0.48738
#
# Static dielectric constant tensor:
#      x y z
#    x 1.680940 0.000000 0.000000 
#    y 0.000000 1.740230 0.000000 
#    z 0.000000 0.000000 1.705110 
# 
# From -- ./inp_files/30857.got.cif
#   From: 2010.05.17/outbox.cif.g08.bks.cpg/sg53_16_cif.got.tgz:30857.got - 2010.06.03 12:45:16.
