data_PCOD9414422
_publ_section_title
;
Structure prediction by ZEFSAII (Michael W. Deem and Ramdas Pophale) SiO2 
 PCOD9414422
Probable space group: P M N A
;
_chemical_formula_sum "Si O2"
_cell_formula_units_Z 56
_cell_length_a 8.829325
_cell_length_b 16.580696
_cell_length_c 25.538046
_cell_angle_alpha 90.000000
_cell_angle_beta 90.000000
_cell_angle_gamma 90.000000
_cell_volume 3738.676815
_symmetry_space_group_name_H-M "P M N A"
_symmetry_group_IT_number 53
_symmetry_cell_setting 'orthorhombic'
loop_
_space_group_symop_operation_xyz
x,y,z
1/2-x,-y,1/2+z
x,-y,-z
1/2-x,y,1/2-z
-x,-y,-z
1/2+x,y,1/2-z
-x,y,z
1/2+x,-y,1/2+z
loop_
_atom_site_type_symbol
_atom_site_label
_atom_site_fract_x
_atom_site_fract_y
_atom_site_fract_z
Si Si1 0.183966 0.523519 0.416700
Si Si2 0.682031 0.195697 0.487075
Si Si3 0.316788 0.629685 0.984781
Si Si4 0.180841 0.875450 0.406544
Si Si5 0.681991 0.776218 0.194874
Si Si6 0.817248 0.587791 0.305673
Si Si7 0.674764 0.033234 0.440107
O O1 0.227692 0.438104 0.442182
O O2 0.227871 0.593017 0.458368
O O3 0.235059 0.540831 0.357695
O O4 0.000000 0.524598 0.416048
O O5 0.500000 0.195232 0.488894
O O6 0.744282 0.283917 0.475049
O O7 0.745006 0.168120 0.543479
O O8 0.728103 0.125429 0.445939
O O9 0.500000 0.636634 0.984440
O O10 0.230671 0.830429 0.353873
O O11 0.000000 0.868631 0.411310
O O12 0.228838 0.969046 0.407916
O O13 0.750000 0.803091 0.250000
O O14 0.500000 0.779315 0.197769
O O15 0.724184 0.682227 0.186974
O O16 0.750000 0.560847 0.250000
O O17 0.000000 0.582954 0.302901
O O18 0.500000 0.031421 0.422528
O O19 0.676715 0.000000 0.500000
#
# Coordination Sequence:
#
# PCOD9414422 Si02
#       7
#     8   8   8   8   8   8   8
#     4   8  15  28  45  63  85 111 140 176 217 254
#     4  10  19  29  41  61  89 116 139 168 210 253
#     4   9  16  28  46  64  82 111 146 177 212 254
#     4  10  18  28  44  64  84 110 145 178 204 239
#     4   9  18  29  42  62  86 111 140 172 204 243
#     4   9  16  28  43  60  84 112 140 170 205 247
#     4   8  16  29  41  57  84 113 137 164 205 250
#
# _framework density 14.978562
#
# number of rings (size 3 to 8) (size 9 to 14) (size 15 to 20)
#    0.000    3.000    0.000    3.429    0.000    6.571 
#    0.000    5.714    0.000    0.000    0.000    1.000 
#    0.000    2.286    0.000    0.000    0.000    0.000 
#
# Total GULP energy -311845.400840 kJ/mol
# GULP energy per Si atom -5568.667872 kJ/mol
# Density = 1.494447 g / cm^3
# Si number density = 14.978562 Si / 1000 Ang^3
#
#
#
# Elastic Constant Matrix: (Units=GPa)
#
#
# Indices 1 2 3 4 5 6 
#
# 1 18.7397 23.1702 21.4021 0.0000 0.0000 0.0000
# 2 23.1702 105.9200 49.6396 0.0000 0.0000 0.0000
# 3 21.4021 49.6396 104.1318 0.0000 0.0000 0.0000
# 4 0.0000 0.0000 0.0000 23.0796 0.0000 0.0000
# 5 0.0000 0.0000 0.0000 0.0000 19.9981 0.0000
# 6 0.0000 0.0000 0.0000 0.0000 0.0000 23.4077
#
#
#
# Elastic Compliance Matrix: (Units=1/GPa)
#
#
# Indices 1 2 3 4 5 6 
#
# 1 0.081324 -0.012821 -0.010603 0.000000 0.000000 0.000000
# 2 -0.012821 0.014178 -0.004124 0.000000 0.000000 0.000000
# 3 -0.010603 -0.004124 0.013748 0.000000 0.000000 0.000000
# 4 0.000000 0.000000 0.000000 0.043328 0.000000 0.000000
# 5 0.000000 0.000000 0.000000 0.000000 0.050005 0.000000
# 6 0.000000 0.000000 0.000000 0.000000 0.000000 0.042721
#
#
# Mechanical properties :
#
#
# Convention : Reuss Voigt Hill
#
# Bulk Modulus (GPa) = 18.46525 46.35726 32.41125
# Shear Modulus (GPa) = 15.70101 22.26904 18.98503
#
# Velocity S-wave (km/s) = 3.24115 3.85999 3.56403
# Velocity P-wave (km/s) = 5.13433 7.13319 6.21465
#
# Compressibility (1/GPa) = 0.05415579
#
# Stress axis : x y z
#
# Youngs Moduli (GPa) = 12.29651 70.53060 72.73688
#
# Poissons Ratio (x) = 0.90426 0.77121
# Poissons Ratio (y) = 0.15765 0.29995
# Poissons Ratio (z) = 0.13038 0.29085
#
# Static dielectric constant tensor:
#      x y z
#    x 1.505850 0.000000 0.000000 
#    y 0.000000 1.507290 0.000000 
#    z 0.000000 0.000000 1.483640 
# 
# From -- ./inp_files/34375.got.cif
#   From: 2010.05.17/outbox.cif.g08.bks.cpg/sg53_18_cif.got.tgz:34375.got - 2010.06.03 12:45:16.
