data_PCOD9414175
_publ_section_title
;
Structure prediction by ZEFSAII (Michael W. Deem and Ramdas Pophale) SiO2 
 PCOD9414175
Probable space group: P M N A
;
_chemical_formula_sum "Si O2"
_cell_formula_units_Z 48
_cell_length_a 8.672774
_cell_length_b 10.477153
_cell_length_c 31.095190
_cell_angle_alpha 90.000000
_cell_angle_beta 90.000000
_cell_angle_gamma 90.000000
_cell_volume 2825.494917
_symmetry_space_group_name_H-M "P M N A"
_symmetry_group_IT_number 53
_symmetry_cell_setting 'orthorhombic'
loop_
_space_group_symop_operation_xyz
x,y,z
1/2-x,-y,1/2+z
x,-y,-z
1/2-x,y,1/2-z
-x,-y,-z
1/2+x,y,1/2-z
-x,y,z
1/2+x,-y,1/2+z
loop_
_atom_site_type_symbol
_atom_site_label
_atom_site_fract_x
_atom_site_fract_y
_atom_site_fract_z
Si Si1 0.685556 0.877187 0.473077
Si Si2 0.683922 0.281450 0.294579
Si Si3 0.313471 0.372271 0.474383
Si Si4 0.315397 0.992791 0.206984
Si Si5 0.315299 0.981498 0.112209
Si Si6 0.815063 0.281229 0.385533
O O1 0.500000 0.877763 0.473066
O O2 0.736085 0.749295 0.497085
O O3 0.740315 0.000000 0.500000
O O4 0.742289 0.897164 0.424841
O O5 0.750000 0.338859 0.250000
O O6 0.500000 0.284751 0.293465
O O7 0.743199 0.134656 0.294460
O O8 0.745787 0.331044 0.340412
O O9 0.271212 0.500000 0.500000
O O10 0.500000 0.369253 0.470139
O O11 0.242060 0.357393 0.427131
O O12 0.250000 0.928976 0.250000
O O13 0.500000 0.004951 0.210157
O O14 0.276945 0.935551 0.160475
O O15 0.500000 0.979700 0.107782
O O16 0.267044 0.131294 0.108350
O O17 0.000000 0.282894 0.382402
#
# Coordination Sequence:
#
# PCOD9414175 Si02
#       6
#     8   8   8   8   8   8
#     4  10  19  31  49  72  94 122 165 201 235 288
#     4  10  17  26  42  65  95 128 161 198 243 290
#     4  10  21  36  51  70  98 130 163 204 251 296
#     4   9  16  26  39  62  94 127 160 194 240 291
#     4   9  18  29  44  68  96 126 159 199 243 287
#     4  10  19  31  47  69  97 128 164 201 244 292
#
# _framework density 16.988173
#
# number of rings (size 3 to 8) (size 9 to 14) (size 15 to 20)
#    0.000    2.333    1.667    4.500    0.000    4.667 
#    0.000    0.000    0.000    0.000    0.000    1.167 
#    0.000    2.667    0.000    0.000    0.000    0.000 
#
# Total GULP energy -267469.072820 kJ/mol
# GULP energy per Si atom -5572.272350 kJ/mol
# Density = 1.694951 g / cm^3
# Si number density = 16.988173 Si / 1000 Ang^3
#
#
#
# Elastic Constant Matrix: (Units=GPa)
#
#
# Indices 1 2 3 4 5 6 
#
# 1 56.5944 20.5695 57.0416 0.0000 0.0000 0.0000
# 2 20.5695 58.9290 52.5091 0.0000 0.0000 0.0000
# 3 57.0416 52.5091 203.2630 0.0000 0.0000 0.0000
# 4 0.0000 0.0000 0.0000 14.4091 0.0000 0.0000
# 5 0.0000 0.0000 0.0000 0.0000 37.1631 0.0000
# 6 0.0000 0.0000 0.0000 0.0000 0.0000 9.0023
#
#
#
# Elastic Compliance Matrix: (Units=1/GPa)
#
#
# Indices 1 2 3 4 5 6 
#
# 1 0.025103 -0.003228 -0.006211 0.000000 0.000000 0.000000
# 2 -0.003228 0.022459 -0.004896 0.000000 0.000000 0.000000
# 3 -0.006211 -0.004896 0.007927 0.000000 0.000000 0.000000
# 4 0.000000 0.000000 0.000000 0.069401 0.000000 0.000000
# 5 0.000000 0.000000 0.000000 0.000000 0.026908 0.000000
# 6 0.000000 0.000000 0.000000 0.000000 0.000000 0.111083
#
#
# Mechanical properties :
#
#
# Convention : Reuss Voigt Hill
#
# Bulk Modulus (GPa) = 37.28633 64.33630 50.81131
# Shear Modulus (GPa) = 16.63949 24.69264 20.66607
#
# Velocity S-wave (km/s) = 3.13305 3.81664 3.49162
# Velocity P-wave (km/s) = 5.92318 7.57468 6.79926
#
# Compressibility (1/GPa) = 0.02681948
#
# Stress axis : x y z
#
# Youngs Moduli (GPa) = 39.83657 44.52572 126.14525
#
# Poissons Ratio (x) = 0.14374 0.78343
# Poissons Ratio (y) = 0.12860 0.61759
# Poissons Ratio (z) = 0.24741 0.21799
#
# Static dielectric constant tensor:
#      x y z
#    x 1.571630 0.000000 0.000000 
#    y 0.000000 1.549990 0.000000 
#    z 0.000000 0.000000 1.627870 
# 
# From -- ./inp_files/37904.got.cif
#   From: 2010.05.17/outbox.cif.g08.bks.cpg/sg53_19_cif.got.tgz:37904.got - 2010.06.03 12:45:16.
