data_PCOD9414877
_publ_section_title
;
Structure prediction by ZEFSAII (Michael W. Deem and Ramdas Pophale) SiO2 
 PCOD9414877
Probable space group: P M N A
;
_chemical_formula_sum "Si O2"
_cell_formula_units_Z 48
_cell_length_a 10.275381
_cell_length_b 17.509122
_cell_length_c 15.918508
_cell_angle_alpha 90.000000
_cell_angle_beta 90.000000
_cell_angle_gamma 90.000000
_cell_volume 2863.944930
_symmetry_space_group_name_H-M "P M N A"
_symmetry_group_IT_number 53
_symmetry_cell_setting 'orthorhombic'
loop_
_space_group_symop_operation_xyz
x,y,z
1/2-x,-y,1/2+z
x,-y,-z
1/2-x,y,1/2-z
-x,-y,-z
1/2+x,y,1/2-z
-x,y,z
1/2+x,-y,1/2+z
loop_
_atom_site_type_symbol
_atom_site_label
_atom_site_fract_x
_atom_site_fract_y
_atom_site_fract_z
Si Si1 0.655577 0.673423 0.503271
Si Si2 0.250000 0.821495 0.250000
Si Si3 0.751639 0.822966 0.064573
Si Si4 0.500000 0.929751 0.248596
Si Si5 0.650525 0.411699 0.323168
Si Si6 0.650908 0.404075 0.675536
Si Si7 0.000000 0.069427 0.563907
Si Si8 0.500000 0.065650 0.568394
O O1 0.500000 0.689213 0.502390
O O2 0.730642 0.753653 0.499302
O O3 0.683846 0.625474 0.586964
O O4 0.683117 0.627552 0.417117
O O5 0.251477 0.784428 0.341806
O O6 0.375427 0.875307 0.249242
O O7 0.624866 0.875408 0.054872
O O8 0.874618 0.879804 0.060345
O O9 0.500000 0.967563 0.157637
O O10 0.500000 0.971265 0.337891
O O11 0.750000 0.388136 0.250000
O O12 0.500000 0.391529 0.303242
O O13 0.655818 0.503724 0.329880
O O14 0.750000 0.380858 0.750000
O O15 0.500000 0.381801 0.695062
O O16 0.000000 0.000000 0.500000
O O17 0.500000 0.000000 0.500000
#
# Coordination Sequence:
#
# PCOD9414877 Si02
#       8
#     8   4   8   4   8   8   4   4
#     4  10  19  33  54  78 108 138 178 217 265 310
#     4   8  16  28  46  68  98 124 152 196 252 312
#     4  10  19  33  50  77 102 133 168 210 260 313
#     4   8  16  30  48  72  90 120 156 192 248 304
#     4   9  18  35  57  75 101 144 186 219 256 305
#     4   9  18  33  52  81 111 141 177 213 258 310
#     4  10  20  36  54  70 103 137 166 204 260 317
#     4  10  18  32  56  76  97 125 168 212 252 305
#
# _framework density 16.760099
#
# number of rings (size 3 to 8) (size 9 to 14) (size 15 to 20)
#    0.000    2.667    0.833    1.000    1.167    2.000 
#    3.000    0.000    3.667    4.000    0.000    0.000 
#    0.000    0.000    0.000    0.000    0.000    0.000 
#
# Total GULP energy -267269.650416 kJ/mol
# GULP energy per Si atom -5568.117717 kJ/mol
# Density = 1.672195 g / cm^3
# Si number density = 16.760099 Si / 1000 Ang^3
#
#
#
# Elastic Constant Matrix: (Units=GPa)
#
#
# Indices 1 2 3 4 5 6 
#
# 1 115.8187 37.5338 62.0454 0.0000 0.0000 0.0000
# 2 37.5338 54.5914 55.2292 0.0000 0.0000 0.0000
# 3 62.0454 55.2292 143.8188 0.0000 0.0000 0.0000
# 4 0.0000 0.0000 0.0000 32.7156 0.0000 0.0000
# 5 0.0000 0.0000 0.0000 0.0000 26.3789 0.0000
# 6 0.0000 0.0000 0.0000 0.0000 0.0000 13.4170
#
#
#
# Elastic Compliance Matrix: (Units=1/GPa)
#
#
# Indices 1 2 3 4 5 6 
#
# 1 0.011987 -0.004922 -0.003281 0.000000 0.000000 0.000000
# 2 -0.004922 0.031977 -0.010156 0.000000 0.000000 0.000000
# 3 -0.003281 -0.010156 0.012269 0.000000 0.000000 0.000000
# 4 0.000000 0.000000 0.000000 0.030566 0.000000 0.000000
# 5 0.000000 0.000000 0.000000 0.000000 0.037909 0.000000
# 6 0.000000 0.000000 0.000000 0.000000 0.000000 0.074532
#
#
# Mechanical properties :
#
#
# Convention : Reuss Voigt Hill
#
# Bulk Modulus (GPa) = 51.24567 69.31618 60.28092
# Shear Modulus (GPa) = 20.62155 25.13032 22.87594
#
# Velocity S-wave (km/s) = 3.51150 3.87643 3.69847
# Velocity P-wave (km/s) = 6.86172 7.84112 7.36772
#
# Compressibility (1/GPa) = 0.01951384
#
# Stress axis : x y z
#
# Youngs Moduli (GPa) = 83.42314 31.27245 81.50625
#
# Poissons Ratio (x) = 0.15392 0.26744
# Poissons Ratio (y) = 0.41061 0.82781
# Poissons Ratio (z) = 0.27373 0.31761
#
# Static dielectric constant tensor:
#      x y z
#    x 1.568360 0.000000 0.000000 
#    y 0.000000 1.539730 0.000000 
#    z 0.000000 0.000000 1.608690 
# 
# From -- ./inp_files/20305.got.cif
#   From: 2010.05.17/outbox.cif.g08.bks.cpg/sg53_11_cif.got.tgz:20305.got - 2010.06.03 12:45:16.
