data_PCOD9414837
_publ_section_title
;
Structure prediction by ZEFSAII (Michael W. Deem and Ramdas Pophale) SiO2 
 PCOD9414837
Probable space group: P M N A
;
_chemical_formula_sum "Si O2"
_cell_formula_units_Z 64
_cell_length_a 8.506040
_cell_length_b 20.470894
_cell_length_c 20.379063
_cell_angle_alpha 90.000000
_cell_angle_beta 90.000000
_cell_angle_gamma 90.000000
_cell_volume 3548.529680
_symmetry_space_group_name_H-M "P M N A"
_symmetry_group_IT_number 53
_symmetry_cell_setting 'orthorhombic'
loop_
_space_group_symop_operation_xyz
x,y,z
1/2-x,-y,1/2+z
x,-y,-z
1/2-x,y,1/2-z
-x,-y,-z
1/2+x,y,1/2-z
-x,y,z
1/2+x,-y,1/2+z
loop_
_atom_site_type_symbol
_atom_site_label
_atom_site_fract_x
_atom_site_fract_y
_atom_site_fract_z
Si Si1 0.310511 0.155300 0.177576
Si Si2 0.683659 0.272555 0.087079
Si Si3 0.187150 0.038444 0.411224
Si Si4 0.310416 0.625459 0.416140
Si Si5 0.685028 0.589322 0.561821
Si Si6 0.318683 0.767784 0.064219
Si Si7 0.684297 0.906343 0.453334
Si Si8 0.809840 0.509469 0.175746
O O1 0.250000 0.160766 0.250000
O O2 0.500000 0.155901 0.174778
O O3 0.256921 0.217507 0.135939
O O4 0.259335 0.087733 0.144875
O O5 0.500000 0.288701 0.100893
O O6 0.785002 0.337761 0.087622
O O7 0.688466 0.242468 0.014400
O O8 0.223686 0.076228 0.479418
O O9 0.000000 0.027448 0.407939
O O10 0.273978 0.969278 0.409606
O O11 0.500000 0.626922 0.420366
O O12 0.253633 0.593196 0.486018
O O13 0.252053 0.699781 0.409503
O O14 0.265977 0.579899 0.355014
O O15 0.500000 0.574207 0.555774
O O16 0.746484 0.540899 0.618541
O O17 0.500000 0.772936 0.084176
O O18 0.234372 0.836785 0.076334
O O19 0.500000 0.905333 0.468094
O O20 0.750000 0.498997 0.250000
O O21 0.000000 0.505191 0.178239
#
# Coordination Sequence:
#
# PCOD9414837 Si02
#       8
#     8   8   8   8   8   8   8   8
#     4  10  21  35  50  69  99 140 178 211 251 302
#     4   9  18  33  49  71 102 134 169 209 252 303
#     4  10  19  34  51  71 102 138 172 211 259 305
#     4   9  18  34  55  79 104 135 176 223 268 311
#     4   9  18  33  54  78 102 136 177 219 264 310
#     4  10  18  32  53  77 106 135 165 208 263 316
#     4  11  20  30  50  80 106 130 166 214 259 305
#     4  10  21  36  54  76 107 140 175 218 266 323
#
# _framework density 18.035637000000001
#
# number of rings (size 3 to 8) (size 9 to 14) (size 15 to 20)
#    0.000    2.250    1.250    3.000    0.000    5.000 
#    0.000    2.500    0.000    4.500    0.000    5.250 
#    0.000    0.000    0.000    0.000    0.000    0.000 
#
# Total GULP energy -356719.255523 kJ/mol
# GULP energy per Si atom -5573.738368 kJ/mol
# Density = 1.799459 g / cm^3
# Si number density = 18.035637 Si / 1000 Ang^3
#
#
#
# Elastic Constant Matrix: (Units=GPa)
#
#
# Indices 1 2 3 4 5 6 
#
# 1 13.5903 9.2580 1.2678 0.0000 0.0000 0.0000
# 2 9.2580 91.2325 24.5947 0.0000 0.0000 0.0000
# 3 1.2678 24.5947 37.4074 0.0000 0.0000 0.0000
# 4 0.0000 0.0000 0.0000 17.2898 0.0000 0.0000
# 5 0.0000 0.0000 0.0000 0.0000 207.8402 0.0000
# 6 0.0000 0.0000 0.0000 0.0000 0.0000 33.4738
#
#
#
# Elastic Compliance Matrix: (Units=1/GPa)
#
#
# Indices 1 2 3 4 5 6 
#
# 1 0.079354 -0.008906 0.003166 0.000000 0.000000 0.000000
# 2 -0.008906 0.014322 -0.009115 0.000000 0.000000 0.000000
# 3 0.003166 -0.009115 0.032618 0.000000 0.000000 0.000000
# 4 0.000000 0.000000 0.000000 0.057838 0.000000 0.000000
# 5 0.000000 0.000000 0.000000 0.000000 0.004811 0.000000
# 6 0.000000 0.000000 0.000000 0.000000 0.000000 0.029874
#
#
# Mechanical properties :
#
#
# Convention : Reuss Voigt Hill
#
# Bulk Modulus (GPa) = 10.35361 23.60790 16.98075
# Shear Modulus (GPa) = 17.81129 58.86139 38.33634
#
# Velocity S-wave (km/s) = 3.14596 5.71900 4.61541
# Velocity P-wave (km/s) = 4.35306 7.53176 6.15128
#
# Compressibility (1/GPa) = 0.09658471
#
# Stress axis : x y z
#
# Youngs Moduli (GPa) = 12.60178 69.82313 30.65790
#
# Poissons Ratio (x) = 0.62185 -0.09707
# Poissons Ratio (y) = 0.11223 0.27943
# Poissons Ratio (z) = -0.03990 0.63641
#
# Static dielectric constant tensor:
#      x y z
#    x 1.630140 0.000000 0.000000 
#    y 0.000000 1.634150 0.000000 
#    z 0.000000 0.000000 1.928380 
# 
# From -- ./inp_files/31371.got.cif
#   From: 2010.05.17/outbox.cif.g08.bks.cpg/sg53_16_cif.got.tgz:31371.got - 2010.06.03 12:45:16.
