data_PCOD9414622
_publ_section_title
;
Structure prediction by ZEFSAII (Michael W. Deem and Ramdas Pophale) SiO2 
 PCOD9414622
Probable space group: P M N A
;
_chemical_formula_sum "Si O2"
_cell_formula_units_Z 40
_cell_length_a 8.588182
_cell_length_b 26.848348
_cell_length_c 9.844414
_cell_angle_alpha 90.000000
_cell_angle_beta 90.000000
_cell_angle_gamma 90.000000
_cell_volume 2269.910204
_symmetry_space_group_name_H-M "P M N A"
_symmetry_group_IT_number 53
_symmetry_cell_setting 'orthorhombic'
loop_
_space_group_symop_operation_xyz
x,y,z
1/2-x,-y,1/2+z
x,-y,-z
1/2-x,y,1/2-z
-x,-y,-z
1/2+x,y,1/2-z
-x,y,z
1/2+x,-y,1/2+z
loop_
_atom_site_type_symbol
_atom_site_label
_atom_site_fract_x
_atom_site_fract_y
_atom_site_fract_z
Si Si1 0.688150 0.956169 0.401409
Si Si2 0.687849 0.155973 0.598315
Si Si3 0.313283 0.546078 0.596501
Si Si4 0.814242 0.349553 0.404443
Si Si5 0.687205 0.245474 0.403520
O O1 0.750000 0.964176 0.250000
O O2 0.500000 0.957257 0.398790
O O3 0.735860 0.900109 0.443911
O O4 0.743014 0.000000 0.500000
O O5 0.750000 0.164694 0.750000
O O6 0.500000 0.156900 0.602789
O O7 0.738185 0.198876 0.494915
O O8 0.270977 0.500000 0.500000
O O9 0.250000 0.539145 0.750000
O O10 0.500000 0.549875 0.603782
O O11 0.246604 0.598110 0.538487
O O12 0.750000 0.349757 0.250000
O O13 0.749478 0.297870 0.462910
O O14 0.000000 0.348768 0.403132
O O15 0.750000 0.240154 0.250000
O O16 0.500000 0.247454 0.398501
#
# Coordination Sequence:
#
# PCOD9414622 Si02
#       5
#     8   8   8   8   8
#     4   9  18  33  51  72  99 129 163 202 244 291
#     4   9  19  34  51  71  98 132 164 199 245 294
#     4  10  20  34  53  76 102 132 165 202 245 291
#     4  10  18  30  50  73  98 129 164 201 244 290
#     4  10  19  32  50  73  99 126 162 204 244 288
#
# _framework density 17.621842000000001
#
# number of rings (size 3 to 8) (size 9 to 14) (size 15 to 20)
#    0.000    2.400    0.000    5.400    0.000    4.400 
#    0.000    1.000    0.000    0.000    0.000    0.000 
#    0.000    0.000    0.000    0.000    0.000    0.000 
#
# Total GULP energy -223015.764676 kJ/mol
# GULP energy per Si atom -5575.394117 kJ/mol
# Density = 1.758173 g / cm^3
# Si number density = 17.621842 Si / 1000 Ang^3
#
#
#
# Elastic Constant Matrix: (Units=GPa)
#
#
# Indices 1 2 3 4 5 6 
#
# 1 55.2083 51.5633 23.2117 0.0000 0.0000 0.0000
# 2 51.5633 217.4413 92.6566 0.0000 0.0000 0.0000
# 3 23.2117 92.6566 61.2028 0.0000 0.0000 0.0000
# 4 0.0000 0.0000 0.0000 42.6932 0.0000 0.0000
# 5 0.0000 0.0000 0.0000 0.0000 24.7322 0.0000
# 6 0.0000 0.0000 0.0000 0.0000 0.0000 -21.7573
#
#
#
# Elastic Compliance Matrix: (Units=1/GPa)
#
#
# Indices 1 2 3 4 5 6 
#
# 1 0.023305 -0.004960 -0.001330 0.000000 0.000000 0.000000
# 2 -0.004960 0.014015 -0.019336 0.000000 0.000000 0.000000
# 3 -0.001330 -0.019336 0.046117 0.000000 0.000000 0.000000
# 4 0.000000 0.000000 0.000000 0.023423 0.000000 0.000000
# 5 0.000000 0.000000 0.000000 0.000000 0.040433 0.000000
# 6 0.000000 0.000000 0.000000 0.000000 0.000000 -0.045962
#
#
# Mechanical properties :
#
#
# Convention : Reuss Voigt Hill
#
# Bulk Modulus (GPa) = 31.07055 74.30173 52.68614
# Shear Modulus (GPa) = 30.61660 20.22835 25.42247
#
# Velocity S-wave (km/s) = 4.17276 3.39176 3.80237
# Velocity P-wave (km/s) = 6.39422 7.58913 7.01715
#
# Compressibility (1/GPa) = 0.03218482
#
# Stress axis : x y z
#
# Youngs Moduli (GPa) = 42.90999 71.35409 21.68401
#
# Poissons Ratio (x) = 0.35389 0.02884
# Poissons Ratio (y) = 0.21282 0.41928
# Poissons Ratio (z) = 0.05707 1.37971
#
# Static dielectric constant tensor:
#      x y z
#    x 1.594850 0.000000 0.000000 
#    y 0.000000 1.648900 0.000000 
#    z 0.000000 0.000000 1.618790 
# 
# From -- ./inp_files/6444.got.cif
#   From: 2010.05.17/outbox.cif.g08.bks.cpg/sg53_4_cif.got.tgz:6444.got - 2010.06.03 12:45:16.
