data_PCOD9414926
_publ_section_title
;
Structure prediction by ZEFSAII (Michael W. Deem and Ramdas Pophale) SiO2 
 PCOD9414926
Probable space group: P M N A
;
_chemical_formula_sum "Si O2"
_cell_formula_units_Z 40
_cell_length_a 9.049703
_cell_length_b 12.914555
_cell_length_c 19.889790
_cell_angle_alpha 90.000000
_cell_angle_beta 90.000000
_cell_angle_gamma 90.000000
_cell_volume 2324.577182
_symmetry_space_group_name_H-M "P M N A"
_symmetry_group_IT_number 53
_symmetry_cell_setting 'orthorhombic'
loop_
_space_group_symop_operation_xyz
x,y,z
1/2-x,-y,1/2+z
x,-y,-z
1/2-x,y,1/2-z
-x,-y,-z
1/2+x,y,1/2-z
-x,y,z
1/2+x,-y,1/2+z
loop_
_atom_site_type_symbol
_atom_site_label
_atom_site_fract_x
_atom_site_fract_y
_atom_site_fract_z
Si Si1 0.176253 0.621022 0.177966
Si Si2 0.325158 0.226119 0.055908
Si Si3 0.169607 0.019023 0.080830
Si Si4 0.175978 0.462847 0.423502
Si Si5 0.825057 0.809961 0.396637
O O1 0.250000 0.603028 0.250000
O O2 0.231468 0.532609 0.126913
O O3 0.236498 0.729453 0.148597
O O4 0.000000 0.622417 0.182792
O O5 0.500000 0.208703 0.066050
O O6 0.235848 0.133177 0.089900
O O7 0.287965 0.341135 0.080403
O O8 0.300842 0.220589 0.975157
O O9 0.000000 0.012259 0.102971
O O10 0.266474 0.926757 0.111570
O O11 0.172718 0.000000 0.000000
O O12 0.201048 0.500000 0.500000
O O13 0.000000 0.476385 0.410243
O O14 0.000000 0.802922 0.383531
#
# Coordination Sequence:
#
# PCOD9414926 Si02
#       5
#     8   8   8   8   8
#     4  12  25  39  56  80 111 148 189 232 283 337
#     4   9  17  30  52  79 109 145 180 220 274 330
#     4   9  17  28  45  75 111 141 174 219 267 317
#     4  10  19  36  58  82 112 147 187 231 280 334
#     4  10  18  33  54  77 107 143 182 223 274 331
#
# _framework density 17.207429999999999
#
# number of rings (size 3 to 8) (size 9 to 14) (size 15 to 20)
#    0.000    2.000    2.000    3.000    0.000    4.400 
#    0.000    0.000    0.000    1.200    0.000    2.800 
#    0.000    0.000    0.000    0.000    0.000    0.000 
#
# Total GULP energy -223266.321000 kJ/mol
# GULP energy per Si atom -5581.658025 kJ/mol
# Density = 1.716827 g / cm^3
# Si number density = 17.207430 Si / 1000 Ang^3
#
#
#
# Elastic Constant Matrix: (Units=GPa)
#
#
# Indices 1 2 3 4 5 6 
#
# 1 124.0998 82.1035 62.7092 0.0000 0.0000 0.0000
# 2 82.1035 139.5374 47.4295 0.0000 0.0000 0.0000
# 3 62.7092 47.4295 60.1657 0.0000 0.0000 0.0000
# 4 0.0000 0.0000 0.0000 8.2561 0.0000 0.0000
# 5 0.0000 0.0000 0.0000 0.0000 17.8279 0.0000
# 6 0.0000 0.0000 0.0000 0.0000 0.0000 32.7809
#
#
#
# Elastic Compliance Matrix: (Units=1/GPa)
#
#
# Indices 1 2 3 4 5 6 
#
# 1 0.020708 -0.006623 -0.016362 0.000000 0.000000 0.000000
# 2 -0.006623 0.011908 -0.002484 0.000000 0.000000 0.000000
# 3 -0.016362 -0.002484 0.035633 0.000000 0.000000 0.000000
# 4 0.000000 0.000000 0.000000 0.121122 0.000000 0.000000
# 5 0.000000 0.000000 0.000000 0.000000 0.056092 0.000000
# 6 0.000000 0.000000 0.000000 0.000000 0.000000 0.030506
#
#
# Mechanical properties :
#
#
# Convention : Reuss Voigt Hill
#
# Bulk Modulus (GPa) = 57.77035 78.69858 68.23447
# Shear Modulus (GPa) = 15.02958 20.54367 17.78663
#
# Velocity S-wave (km/s) = 2.95860 3.45901 3.21855
# Velocity P-wave (km/s) = 6.73178 7.86050 7.31794
#
# Compressibility (1/GPa) = 0.01730992
#
# Stress axis : x y z
#
# Youngs Moduli (GPa) = 48.29133 83.97869 28.06363
#
# Poissons Ratio (x) = 0.55617 0.45919
# Poissons Ratio (y) = 0.31982 0.06972
# Poissons Ratio (z) = 0.79016 0.20864
#
# Static dielectric constant tensor:
#      x y z
#    x 1.571750 0.000000 0.000000 
#    y 0.000000 1.581920 0.000000 
#    z 0.000000 0.000000 1.563840 
# 
# From -- ./inp_files/25845.got.cif
#   From: 2010.05.17/outbox.cif.g08.bks.cpg/sg53_13_cif.got.tgz:25845.got - 2010.06.03 12:45:16.
