data_PCOD9414606
_publ_section_title
;
Structure prediction by ZEFSAII (Michael W. Deem and Ramdas Pophale) SiO2 
 PCOD9414606
Probable space group: P M N A
;
_chemical_formula_sum "Si O2"
_cell_formula_units_Z 40
_cell_length_a 7.819216
_cell_length_b 12.232788
_cell_length_c 21.741172
_cell_angle_alpha 90.000000
_cell_angle_beta 90.000000
_cell_angle_gamma 90.000000
_cell_volume 2079.560748
_symmetry_space_group_name_H-M "P M N A"
_symmetry_group_IT_number 53
_symmetry_cell_setting 'orthorhombic'
loop_
_space_group_symop_operation_xyz
x,y,z
1/2-x,-y,1/2+z
x,-y,-z
1/2-x,y,1/2-z
-x,-y,-z
1/2+x,y,1/2-z
-x,y,z
1/2+x,-y,1/2+z
loop_
_atom_site_type_symbol
_atom_site_label
_atom_site_fract_x
_atom_site_fract_y
_atom_site_fract_z
Si Si1 0.803384 0.015813 0.321945
Si Si2 0.204834 0.737202 0.820090
Si Si3 0.207942 0.445758 0.088744
Si Si4 0.799066 0.913509 0.050796
Si Si5 0.208191 0.332901 0.958756
O O1 0.750000 0.999059 0.250000
O O2 0.780775 0.144655 0.335843
O O3 0.000000 0.984682 0.325389
O O4 0.713999 0.954897 0.378841
O O5 0.250000 0.717169 0.750000
O O6 0.269738 0.635290 0.858956
O O7 0.000000 0.747292 0.827876
O O8 0.267406 0.571421 0.087695
O O9 0.000000 0.449618 0.092180
O O10 0.248543 0.384552 0.025041
O O11 0.726176 0.790371 0.047004
O O12 0.000000 0.903277 0.035326
O O13 0.728145 0.000000 0.000000
O O14 0.000000 0.328434 0.953991
#
# Coordination Sequence:
#
# PCOD9414606 Si02
#       5
#     8   8   8   8   8
#     4  11  22  36  53  73 101 135 171 212 257 303
#     4  10  18  30  49  72  96 123 159 200 245 296
#     4   8  14  26  46  71  97 125 158 198 241 287
#     4  10  19  32  53  80 107 136 171 209 250 299
#     4   8  14  26  46  72  99 126 159 199 242 288
#
# _framework density 19.234831
#
# number of rings (size 3 to 8) (size 9 to 14) (size 15 to 20)
#    0.000    2.600    0.000    6.000    0.000    3.600 
#    0.000    1.000    0.000    4.800    0.000    8.400 
#    0.000    0.000    0.000    0.000    0.000    0.000 
#
# Total GULP energy -222805.591290 kJ/mol
# GULP energy per Si atom -5570.139782 kJ/mol
# Density = 1.919105 g / cm^3
# Si number density = 19.234831 Si / 1000 Ang^3
#
#
#
# Elastic Constant Matrix: (Units=GPa)
#
#
# Indices 1 2 3 4 5 6 
#
# 1 20.0682 -13.1656 -13.1330 0.0000 0.0000 0.0000
# 2 -13.1656 180.0151 79.8316 0.0000 0.0000 0.0000
# 3 -13.1330 79.8316 52.3577 0.0000 0.0000 0.0000
# 4 0.0000 0.0000 0.0000 29.0275 0.0000 0.0000
# 5 0.0000 0.0000 0.0000 0.0000 20.2691 0.0000
# 6 0.0000 0.0000 0.0000 0.0000 0.0000 7.3597
#
#
#
# Elastic Compliance Matrix: (Units=1/GPa)
#
#
# Indices 1 2 3 4 5 6 
#
# 1 0.062629 -0.007369 0.026945 0.000000 0.000000 0.000000
# 2 -0.007369 0.018022 -0.029327 0.000000 0.000000 0.000000
# 3 0.026945 -0.029327 0.070574 0.000000 0.000000 0.000000
# 4 0.000000 0.000000 0.000000 0.034450 0.000000 0.000000
# 5 0.000000 0.000000 0.000000 0.000000 0.049336 0.000000
# 6 0.000000 0.000000 0.000000 0.000000 0.000000 0.135876
#
#
# Mechanical properties :
#
#
# Convention : Reuss Voigt Hill
#
# Bulk Modulus (GPa) = 7.59166 39.94521 23.76844
# Shear Modulus (GPa) = 11.51290 24.59179 18.05235
#
# Velocity S-wave (km/s) = 2.44917 3.57950 3.06686
# Velocity P-wave (km/s) = 3.45736 6.15597 4.99246
#
# Compressibility (1/GPa) = 0.13172348
#
# Stress axis : x y z
#
# Youngs Moduli (GPa) = 15.96700 55.48852 14.16959
#
# Poissons Ratio (x) = 0.40889 -0.38180
# Poissons Ratio (y) = 0.11766 0.41555
# Poissons Ratio (z) = -0.43023 1.62730
#
# Static dielectric constant tensor:
#      x y z
#    x 1.703700 0.000000 0.000000 
#    y 0.000000 1.701190 0.000000 
#    z 0.000000 0.000000 1.676460 
# 
# From -- ./inp_files/30342.got.cif
#   From: 2010.05.17/outbox.cif.g08.bks.cpg/sg53_16_cif.got.tgz:30342.got - 2010.06.03 12:45:16.
