data_PCOD9414114
_publ_section_title
;
Structure prediction by ZEFSAII (Michael W. Deem and Ramdas Pophale) SiO2 
 PCOD9414114
Probable space group: P M N A
;
_chemical_formula_sum "Si O2"
_cell_formula_units_Z 64
_cell_length_a 28.971908
_cell_length_b 7.910321
_cell_length_c 16.871122
_cell_angle_alpha 90.000000
_cell_angle_beta 90.000000
_cell_angle_gamma 90.000000
_cell_volume 3866.474683
_symmetry_space_group_name_H-M "P M N A"
_symmetry_group_IT_number 53
_symmetry_cell_setting 'orthorhombic'
loop_
_space_group_symop_operation_xyz
x,y,z
1/2-x,-y,1/2+z
x,-y,-z
1/2-x,y,1/2-z
-x,-y,-z
1/2+x,y,1/2-z
-x,y,z
1/2+x,-y,1/2+z
loop_
_atom_site_type_symbol
_atom_site_label
_atom_site_fract_x
_atom_site_fract_y
_atom_site_fract_z
Si Si1 0.207001 0.832169 0.804961
Si Si2 0.614068 0.367425 0.929935
Si Si3 0.280013 0.779583 0.352661
Si Si4 0.309435 0.819452 0.971893
Si Si5 0.138591 0.933043 0.682271
Si Si6 0.446178 0.057346 0.908368
Si Si7 0.821785 0.688157 0.302890
Si Si8 0.713209 0.683248 0.523589
O O1 0.250000 0.764956 0.750000
O O2 0.158360 0.837373 0.758647
O O3 0.199661 0.745635 0.889774
O O4 0.220993 0.027510 0.822705
O O5 0.570864 0.252481 0.905281
O O6 0.643210 0.430093 0.852887
O O7 0.603802 0.500000 0.000000
O O8 0.650399 0.238138 0.970052
O O9 0.310009 0.668416 0.290323
O O10 0.228141 0.704782 0.345394
O O11 0.296820 0.785856 0.442975
O O12 0.331659 0.853183 0.887936
O O13 0.268870 0.686396 0.969505
O O14 0.289775 0.000000 0.000000
O O15 0.086420 0.947665 0.650076
O O16 0.154375 0.127422 0.693309
O O17 0.500000 0.040559 0.889857
O O18 0.439017 0.000000 0.000000
O O19 0.695926 0.500000 0.500000
#
# Coordination Sequence:
#
# PCOD9414114 Si02
#       8
#     8   8   8   8   8   8   8   8
#     4  11  19  33  52  71  87 129 179 212 245 294
#     4  11  20  30  45  73 101 132 168 205 256 308
#     4  10  17  32  49  63  89 127 172 213 244 279
#     4  12  17  30  50  66  90 133 170 208 238 281
#     4  10  16  31  51  71  90 118 176 210 244 286
#     4  10  19  33  52  74  98 130 169 212 260 308
#     4   9  16  28  46  67  87 123 169 207 238 287
#     4  12  24  33  41  69 106 136 165 206 253 301
#
# _framework density 16.552547000000001
#
# number of rings (size 3 to 8) (size 9 to 14) (size 15 to 20)
#    0.000    1.375    8.750    1.500    0.000    0.250 
#    4.500    0.000    0.000    0.000    0.000    0.000 
#    0.000   18.500    0.000    0.000    0.000   10.125 
#
# Total GULP energy -356550.265877 kJ/mol
# GULP energy per Si atom -5571.097904 kJ/mol
# Density = 1.651487 g / cm^3
# Si number density = 16.552547 Si / 1000 Ang^3
#
#
#
# Elastic Constant Matrix: (Units=GPa)
#
#
# Indices 1 2 3 4 5 6 
#
# 1 85.0706 8.3478 50.6892 0.0000 0.0000 0.0000
# 2 8.3478 31.0301 26.1645 0.0000 0.0000 0.0000
# 3 50.6892 26.1645 145.6021 0.0000 0.0000 0.0000
# 4 0.0000 0.0000 0.0000 23.8230 0.0000 0.0000
# 5 0.0000 0.0000 0.0000 0.0000 14.4477 0.0000
# 6 0.0000 0.0000 0.0000 0.0000 0.0000 3.6313
#
#
#
# Elastic Compliance Matrix: (Units=1/GPa)
#
#
# Indices 1 2 3 4 5 6 
#
# 1 0.014836 0.000429 -0.005242 0.000000 0.000000 0.000000
# 2 0.000429 0.037994 -0.006977 0.000000 0.000000 0.000000
# 3 -0.005242 -0.006977 0.009947 0.000000 0.000000 0.000000
# 4 0.000000 0.000000 0.000000 0.041976 0.000000 0.000000
# 5 0.000000 0.000000 0.000000 0.000000 0.069215 0.000000
# 6 0.000000 0.000000 0.000000 0.000000 0.000000 0.275381
#
#
# Mechanical properties :
#
#
# Convention : Reuss Voigt Hill
#
# Bulk Modulus (GPa) = 25.51205 48.01174 36.76190
# Shear Modulus (GPa) = 10.28815 20.14715 15.21765
#
# Velocity S-wave (km/s) = 2.49578 3.49257 3.03537
# Velocity P-wave (km/s) = 4.87355 6.73296 5.87725
#
# Compressibility (1/GPa) = 0.03919716
#
# Stress axis : x y z
#
# Youngs Moduli (GPa) = 67.40190 26.31977 100.53561
#
# Poissons Ratio (x) = -0.01129 0.52702
# Poissons Ratio (y) = -0.02890 0.70142
# Poissons Ratio (z) = 0.35333 0.18363
#
# Static dielectric constant tensor:
#      x y z
#    x 1.536730 0.000000 0.000000 
#    y 0.000000 1.637370 0.000000 
#    z 0.000000 0.000000 1.658630 
# 
# From -- ./inp_files/29726.got.cif
#   From: 2010.05.17/outbox.cif.g08.bks.cpg/sg53_15_cif.got.tgz:29726.got - 2010.06.03 12:45:16.
