data_PCOD9414540
_publ_section_title
;
Structure prediction by ZEFSAII (Michael W. Deem and Ramdas Pophale) SiO2 
 PCOD9414540
Probable space group: P M N A
;
_chemical_formula_sum "Si O2"
_cell_formula_units_Z 64
_cell_length_a 20.103589
_cell_length_b 8.371150
_cell_length_c 20.111328
_cell_angle_alpha 90.000000
_cell_angle_beta 90.000000
_cell_angle_gamma 90.000000
_cell_volume 3384.538588
_symmetry_space_group_name_H-M "P M N A"
_symmetry_group_IT_number 53
_symmetry_cell_setting 'orthorhombic'
loop_
_space_group_symop_operation_xyz
x,y,z
1/2-x,-y,1/2+z
x,-y,-z
1/2-x,y,1/2-z
-x,-y,-z
1/2+x,y,1/2-z
-x,y,z
1/2+x,-y,1/2+z
loop_
_atom_site_type_symbol
_atom_site_label
_atom_site_fract_x
_atom_site_fract_y
_atom_site_fract_z
Si Si1 0.214138 0.533094 0.679882
Si Si2 0.700275 0.418021 0.566177
Si Si3 0.927300 0.802873 0.197460
Si Si4 0.150038 0.987668 0.717122
Si Si5 0.576640 0.323821 0.222339
Si Si6 0.134668 0.070092 0.933851
Si Si7 0.769153 0.884164 0.848166
Si Si8 0.074049 0.548194 0.863377
O O1 0.250000 0.497140 0.750000
O O2 0.244447 0.416221 0.624344
O O3 0.135536 0.563545 0.692877
O O4 0.242389 0.705162 0.655203
O O5 0.727677 0.500000 0.500000
O O6 0.670495 0.241075 0.555450
O O7 0.636718 0.528772 0.588607
O O8 0.911634 0.899979 0.130046
O O9 0.925725 0.620268 0.175920
O O10 0.000000 0.846574 0.221465
O O11 0.876717 0.846830 0.255268
O O12 0.094178 0.856718 0.700603
O O13 0.204420 0.995804 0.660059
O O14 0.187789 0.913892 0.781637
O O15 0.500000 0.367732 0.206736
O O16 0.582301 0.328284 0.303155
O O17 0.188271 0.938873 0.910364
O O18 0.101668 0.000000 0.000000
O O19 0.000000 0.568142 0.894025
#
# Coordination Sequence:
#
# PCOD9414540 Si02
#       8
#     8   8   8   8   8   8   8   8
#     4  11  18  34  54  77 105 134 169 213 255 303
#     4  11  22  35  52  74 102 139 177 215 258 305
#     4   9  18  30  45  66  98 133 167 203 244 291
#     4   9  15  27  45  70  96 125 162 201 249 292
#     4  10  18  29  50  77 105 132 166 206 253 302
#     4  10  21  34  48  70  99 134 173 210 248 299
#     4   9  16  30  48  70  97 128 161 209 251 291
#     4   9  18  32  47  70 102 137 172 211 250 296
#
# _framework density 18.909520000000001
#
# number of rings (size 3 to 8) (size 9 to 14) (size 15 to 20)
#    0.000    2.250    3.750    1.125    0.000    2.500 
#    2.250    0.000    0.000    0.375    0.000    0.000 
#    0.000   17.000    0.000    0.000    0.000    0.000 
#
# Total GULP energy -356686.837692 kJ/mol
# GULP energy per Si atom -5573.231839 kJ/mol
# Density = 1.886648 g / cm^3
# Si number density = 18.909520 Si / 1000 Ang^3
#
#
#
# Elastic Constant Matrix: (Units=GPa)
#
#
# Indices 1 2 3 4 5 6 
#
# 1 85.2161 7.8108 11.9488 0.0000 0.0000 0.0000
# 2 7.8108 28.3968 2.5414 0.0000 0.0000 0.0000
# 3 11.9488 2.5414 35.5153 0.0000 0.0000 0.0000
# 4 0.0000 0.0000 0.0000 20.3982 0.0000 0.0000
# 5 0.0000 0.0000 0.0000 0.0000 11.2705 0.0000
# 6 0.0000 0.0000 0.0000 0.0000 0.0000 8.5642
#
#
#
# Elastic Compliance Matrix: (Units=1/GPa)
#
#
# Indices 1 2 3 4 5 6 
#
# 1 0.012582 -0.003102 -0.004011 0.000000 0.000000 0.000000
# 2 -0.003102 0.036207 -0.001547 0.000000 0.000000 0.000000
# 3 -0.004011 -0.001547 0.029617 0.000000 0.000000 0.000000
# 4 0.000000 0.000000 0.000000 0.049024 0.000000 0.000000
# 5 0.000000 0.000000 0.000000 0.000000 0.088727 0.000000
# 6 0.000000 0.000000 0.000000 0.000000 0.000000 0.116765
#
#
# Mechanical properties :
#
#
# Convention : Reuss Voigt Hill
#
# Bulk Modulus (GPa) = 16.37052 21.52557 18.94804
# Shear Modulus (GPa) = 13.49150 16.50174 14.99662
#
# Velocity S-wave (km/s) = 2.67400 2.95730 2.81921
# Velocity P-wave (km/s) = 4.26729 4.80302 4.54306
#
# Compressibility (1/GPa) = 0.06108543
#
# Stress axis : x y z
#
# Youngs Moduli (GPa) = 79.48131 27.61911 33.76428
#
# Poissons Ratio (x) = 0.08567 0.13543
# Poissons Ratio (y) = 0.24653 0.05224
# Poissons Ratio (z) = 0.31880 0.04274
#
# Static dielectric constant tensor:
#      x y z
#    x 1.702500 0.000000 0.000000 
#    y 0.000000 1.717240 0.000000 
#    z 0.000000 0.000000 1.651160 
# 
# From -- ./inp_files/33078.got.cif
#   From: 2010.05.17/outbox.cif.g08.bks.cpg/sg53_17_cif.got.tgz:33078.got - 2010.06.03 12:45:16.
