data_PCOD9414419
_publ_section_title
;
Structure prediction by ZEFSAII (Michael W. Deem and Ramdas Pophale) SiO2 
 PCOD9414419
Probable space group: P M N A
;
_chemical_formula_sum "Si O2"
_cell_formula_units_Z 48
_cell_length_a 8.775244
_cell_length_b 11.858011
_cell_length_c 27.347228
_cell_angle_alpha 90.000000
_cell_angle_beta 90.000000
_cell_angle_gamma 90.000000
_cell_volume 2845.668860
_symmetry_space_group_name_H-M "P M N A"
_symmetry_group_IT_number 53
_symmetry_cell_setting 'orthorhombic'
loop_
_space_group_symop_operation_xyz
x,y,z
1/2-x,-y,1/2+z
x,-y,-z
1/2-x,y,1/2-z
-x,-y,-z
1/2+x,y,1/2-z
-x,y,z
1/2+x,-y,1/2+z
loop_
_atom_site_type_symbol
_atom_site_label
_atom_site_fract_x
_atom_site_fract_y
_atom_site_fract_z
Si Si1 0.183573 0.892760 0.303034
Si Si2 0.818517 0.158873 0.302969
Si Si3 0.179772 0.650329 0.863966
Si Si4 0.672130 0.281909 0.880168
Si Si5 0.315157 0.481712 0.943455
Si Si6 0.328718 0.472103 0.797522
O O1 0.250000 0.858677 0.250000
O O2 0.242266 0.822746 0.350261
O O3 0.000000 0.875878 0.301129
O O4 0.214367 0.025724 0.309091
O O5 0.750000 0.192652 0.250000
O O6 0.750576 0.230903 0.347577
O O7 0.000000 0.174492 0.301384
O O8 0.251464 0.583132 0.909937
O O9 0.223906 0.570496 0.818366
O O10 0.000000 0.659174 0.870226
O O11 0.500000 0.248108 0.895493
O O12 0.740526 0.358708 0.923696
O O13 0.661597 0.376164 0.837962
O O14 0.500000 0.481755 0.937977
O O15 0.277742 0.500000 0.000000
O O16 0.250000 0.424033 0.750000
O O17 0.500000 0.513915 0.788174
#
# Coordination Sequence:
#
# PCOD9414419 Si02
#       6
#     8   8   8   8   8   8
#     4   9  17  29  46  68  96 128 159 191 225 270
#     4  10  19  31  47  68  96 129 163 194 228 271
#     4  11  21  32  47  67  93 123 157 195 234 279
#     4   8  15  28  46  69  94 120 152 190 233 281
#     4   9  18  34  55  75  95 120 152 195 246 293
#     4  10  18  28  43  65  95 125 154 189 231 281
#
# _framework density 16.867739
#
# number of rings (size 3 to 8) (size 9 to 14) (size 15 to 20)
#    0.000    2.500    0.000    4.500    0.000    1.000 
#    0.000    3.333    0.000    1.000    0.000    7.000 
#    0.000    0.000    0.000    0.000    0.000    0.000 
#
# Total GULP energy -267222.184040 kJ/mol
# GULP energy per Si atom -5567.128834 kJ/mol
# Density = 1.682935 g / cm^3
# Si number density = 16.867739 Si / 1000 Ang^3
#
#
#
# Elastic Constant Matrix: (Units=GPa)
#
#
# Indices 1 2 3 4 5 6 
#
# 1 42.0716 27.1705 35.1664 0.0000 0.0000 0.0000
# 2 27.1705 88.0457 44.8522 0.0000 0.0000 0.0000
# 3 35.1664 44.8522 88.5673 0.0000 0.0000 0.0000
# 4 0.0000 0.0000 0.0000 24.2711 0.0000 0.0000
# 5 0.0000 0.0000 0.0000 0.0000 19.0917 0.0000
# 6 0.0000 0.0000 0.0000 0.0000 0.0000 16.0794
#
#
#
# Elastic Compliance Matrix: (Units=1/GPa)
#
#
# Indices 1 2 3 4 5 6 
#
# 1 0.037359 -0.005353 -0.012123 0.000000 0.000000 0.000000
# 2 -0.005353 0.016074 -0.006014 0.000000 0.000000 0.000000
# 3 -0.012123 -0.006014 0.019150 0.000000 0.000000 0.000000
# 4 0.000000 0.000000 0.000000 0.041201 0.000000 0.000000
# 5 0.000000 0.000000 0.000000 0.000000 0.052379 0.000000
# 6 0.000000 0.000000 0.000000 0.000000 0.000000 0.062191
#
#
# Mechanical properties :
#
#
# Convention : Reuss Voigt Hill
#
# Bulk Modulus (GPa) = 39.05942 48.11809 43.58875
# Shear Modulus (GPa) = 17.61371 19.32147 18.46759
#
# Velocity S-wave (km/s) = 3.23495 3.38815 3.31244
# Velocity P-wave (km/s) = 6.09588 6.62531 6.36610
#
# Compressibility (1/GPa) = 0.02560202
#
# Stress axis : x y z
#
# Youngs Moduli (GPa) = 26.76702 62.21379 52.21897
#
# Poissons Ratio (x) = 0.33305 0.63304
# Poissons Ratio (y) = 0.14329 0.31407
# Poissons Ratio (z) = 0.32449 0.37418
#
# Static dielectric constant tensor:
#      x y z
#    x 1.597370 0.000000 0.000000 
#    y 0.000000 1.607750 0.000000 
#    z 0.000000 0.000000 1.603690 
# 
# From -- ./inp_files/36152.got.cif
#   From: 2010.05.17/outbox.cif.g08.bks.cpg/sg53_19_cif.got.tgz:36152.got - 2010.06.03 12:45:16.
