data_PCOD9414080
_publ_section_title
;
Structure prediction by ZEFSAII (Michael W. Deem and Ramdas Pophale) SiO2 
 PCOD9414080
Probable space group: P M N A
;
_chemical_formula_sum "Si O2"
_cell_formula_units_Z 56
_cell_length_a 7.696154
_cell_length_b 15.138183
_cell_length_c 27.791860
_cell_angle_alpha 90.000000
_cell_angle_beta 90.000000
_cell_angle_gamma 90.000000
_cell_volume 3237.912540
_symmetry_space_group_name_H-M "P M N A"
_symmetry_group_IT_number 53
_symmetry_cell_setting 'orthorhombic'
loop_
_space_group_symop_operation_xyz
x,y,z
1/2-x,-y,1/2+z
x,-y,-z
1/2-x,y,1/2-z
-x,-y,-z
1/2+x,y,1/2-z
-x,y,z
1/2+x,-y,1/2+z
loop_
_atom_site_type_symbol
_atom_site_label
_atom_site_fract_x
_atom_site_fract_y
_atom_site_fract_z
Si Si1 0.792135 0.428234 0.934626
Si Si2 0.788194 0.017320 0.385060
Si Si3 0.708762 0.120519 0.805822
Si Si4 0.209025 0.379295 0.040748
Si Si5 0.208168 0.815778 0.564403
Si Si6 0.291821 0.734167 0.122363
Si Si7 0.788194 0.130310 0.540694
O O1 0.730326 0.529691 0.934327
O O2 0.752078 0.366418 0.889468
O O3 0.000000 0.431480 0.938439
O O4 0.727444 0.384857 0.985057
O O5 0.729031 0.117444 0.394147
O O6 0.000000 0.017196 0.382476
O O7 0.727400 0.961272 0.338900
O O8 0.740912 0.960202 0.432506
O O9 0.750000 0.113587 0.750000
O O10 0.500000 0.120215 0.809810
O O11 0.771010 0.211968 0.830897
O O12 0.256246 0.288111 0.066143
O O13 0.000000 0.381543 0.039124
O O14 0.275160 0.851108 0.512785
O O15 0.000000 0.824825 0.563331
O O16 0.500000 0.738994 0.122927
O O17 0.230815 0.791944 0.076615
O O18 0.000000 0.131098 0.539133
#
# Coordination Sequence:
#
# PCOD9414080 Si02
#       7
#     8   8   8   8   8   8   8
#     4   9  17  29  42  57  83 122 154 174 209 257
#     4   8  15  26  41  62  87 112 141 177 214 253
#     4   9  18  32  48  67  90 113 139 177 222 265
#     4   9  18  29  39  56  88 123 150 177 209 248
#     4  10  16  24  42  64  83 113 152 181 207 246
#     4   9  16  27  44  66  88 109 142 186 219 247
#     4   8  13  22  37  60  86 111 139 172 208 246
#
# _framework density 17.295093999999999
#
# number of rings (size 3 to 8) (size 9 to 14) (size 15 to 20)
#    0.000    3.143    1.429    3.000    0.000    2.857 
#    0.000    2.143    0.000    2.571    0.000    1.000 
#    0.000    2.286    0.000    0.000    0.000    0.000 
#
# Total GULP energy -311788.310124 kJ/mol
# GULP energy per Si atom -5567.648395 kJ/mol
# Density = 1.725573 g / cm^3
# Si number density = 17.295094 Si / 1000 Ang^3
#
#
#
# Elastic Constant Matrix: (Units=GPa)
#
#
# Indices 1 2 3 4 5 6 
#
# 1 25.0143 3.8650 8.1139 0.0000 0.0000 0.0000
# 2 3.8650 161.4428 73.5509 0.0000 0.0000 0.0000
# 3 8.1139 73.5509 90.1927 0.0000 0.0000 0.0000
# 4 0.0000 0.0000 0.0000 14.0908 0.0000 0.0000
# 5 0.0000 0.0000 0.0000 0.0000 12.9198 0.0000
# 6 0.0000 0.0000 0.0000 0.0000 0.0000 27.3681
#
#
#
# Elastic Compliance Matrix: (Units=1/GPa)
#
#
# Indices 1 2 3 4 5 6 
#
# 1 0.041306 0.001120 -0.004629 0.000000 0.000000 0.000000
# 2 0.001120 0.009886 -0.008163 0.000000 0.000000 0.000000
# 3 -0.004629 -0.008163 0.018161 0.000000 0.000000 0.000000
# 4 0.000000 0.000000 0.000000 0.070968 0.000000 0.000000
# 5 0.000000 0.000000 0.000000 0.000000 0.077400 0.000000
# 6 0.000000 0.000000 0.000000 0.000000 0.000000 0.036539
#
#
# Mechanical properties :
#
#
# Convention : Reuss Voigt Hill
#
# Bulk Modulus (GPa) = 21.73524 49.74549 35.74037
# Shear Modulus (GPa) = 17.06832 23.61707 20.34270
#
# Velocity S-wave (km/s) = 3.14489 3.69932 3.43332
# Velocity P-wave (km/s) = 5.07756 6.86090 6.03546
#
# Compressibility (1/GPa) = 0.04600823
#
# Stress axis : x y z
#
# Youngs Moduli (GPa) = 24.20977 101.15127 55.06452
#
# Poissons Ratio (x) = -0.11331 0.25492
# Poissons Ratio (y) = -0.02712 0.44948
# Poissons Ratio (z) = 0.11208 0.82568
#
# Static dielectric constant tensor:
#      x y z
#    x 1.652620 0.000000 0.000000 
#    y 0.000000 1.637940 0.000000 
#    z 0.000000 0.000000 1.573160 
# 
# From -- ./inp_files/38345.got.cif
#   From: 2010.05.17/outbox.cif.g08.bks.cpg/sg53_20_cif.got.tgz:38345.got - 2010.06.03 12:45:16.
