data_PCOD9414244
_publ_section_title
;
Structure prediction by ZEFSAII (Michael W. Deem and Ramdas Pophale) SiO2 
 PCOD9414244
Probable space group: P M N A
;
_chemical_formula_sum "Si O2"
_cell_formula_units_Z 28
_cell_length_a 5.551986
_cell_length_b 11.291895
_cell_length_c 19.040584
_cell_angle_alpha 90.000000
_cell_angle_beta 90.000000
_cell_angle_gamma 90.000000
_cell_volume 1193.700726
_symmetry_space_group_name_H-M "P M N A"
_symmetry_group_IT_number 53
_symmetry_cell_setting 'orthorhombic'
loop_
_space_group_symop_operation_xyz
x,y,z
1/2-x,-y,1/2+z
x,-y,-z
1/2-x,y,1/2-z
-x,-y,-z
1/2+x,y,1/2-z
-x,y,z
1/2+x,-y,1/2+z
loop_
_atom_site_type_symbol
_atom_site_label
_atom_site_fract_x
_atom_site_fract_y
_atom_site_fract_z
Si Si1 0.500000 0.651028 0.590445
Si Si2 0.500000 0.442205 0.109806
Si Si3 0.500000 0.723290 0.749746
Si Si4 0.500000 0.905632 0.062695
Si Si5 0.500000 0.354061 0.790226
Si Si6 0.000000 0.929668 0.287806
Si Si7 0.500000 0.140990 0.514240
O O1 0.752239 0.589863 0.571039
O O2 0.500000 0.655308 0.675500
O O3 0.500000 0.781195 0.556124
O O4 0.500000 0.362413 0.182441
O O5 0.500000 0.575301 0.137316
O O6 0.750000 0.791877 0.750000
O O7 0.500000 0.980079 0.134077
O O8 0.248668 0.835312 0.055584
O O9 0.500000 0.000000 0.000000
O O10 0.750000 0.386067 0.750000
O O11 0.500000 0.213195 0.798821
O O12 0.250000 0.955515 0.250000
O O13 0.500000 0.000000 0.500000
#
# Coordination Sequence:
#
# PCOD9414244 Si02
#       7
#     4   4   4   4   4   4   4
#     4  10  18  29  49  75 106 148 194 238 279 346
#     4  10  17  28  48  77 113 152 191 238 297 354
#     4   8  14  23  39  64  96 133 171 217 269 319
#     4  10  21  40  65  87 115 159 202 246 312 376
#     4  10  18  30  51  84 121 156 195 242 302 359
#     4  10  21  37  63  95 123 152 198 259 305 350
#     4  10  21  37  59  80 104 149 205 246 294 360
#
# _framework density 23.456464
#
# number of rings (size 3 to 8) (size 9 to 14) (size 15 to 20)
#    0.000    2.286    0.000    5.143    0.000    0.000 
#    0.000    0.000    0.000   66.857    0.000    0.000 
#    0.000    0.000    0.000    0.000    0.000    0.000 
#
# Total GULP energy -156267.683330 kJ/mol
# GULP energy per Si atom -5580.988690 kJ/mol
# Density = 2.340308 g / cm^3
# Si number density = 23.456464 Si / 1000 Ang^3
#
#
#
# Elastic Constant Matrix: (Units=GPa)
#
#
# Indices 1 2 3 4 5 6 
#
# 1 283.3025 23.2337 39.6507 0.0000 0.0000 0.0000
# 2 23.2337 80.2508 6.6552 0.0000 0.0000 0.0000
# 3 39.6507 6.6552 93.0223 0.0000 0.0000 0.0000
# 4 0.0000 0.0000 0.0000 25.4227 0.0000 0.0000
# 5 0.0000 0.0000 0.0000 0.0000 24.4763 0.0000
# 6 0.0000 0.0000 0.0000 0.0000 0.0000 20.3004
#
#
#
# Elastic Compliance Matrix: (Units=1/GPa)
#
#
# Indices 1 2 3 4 5 6 
#
# 1 0.003829 -0.000979 -0.001562 0.000000 0.000000 0.000000
# 2 -0.000979 0.012786 -0.000497 0.000000 0.000000 0.000000
# 3 -0.001562 -0.000497 0.011451 0.000000 0.000000 0.000000
# 4 0.000000 0.000000 0.000000 0.039335 0.000000 0.000000
# 5 0.000000 0.000000 0.000000 0.000000 0.040856 0.000000
# 6 0.000000 0.000000 0.000000 0.000000 0.000000 0.049260
#
#
# Mechanical properties :
#
#
# Convention : Reuss Voigt Hill
#
# Bulk Modulus (GPa) = 45.47710 66.18389 55.83050
# Shear Modulus (GPa) = 29.25296 39.84229 34.54763
#
# Velocity S-wave (km/s) = 3.53529 4.12583 3.84192
# Velocity P-wave (km/s) = 6.00785 7.13958 6.59802
#
# Compressibility (1/GPa) = 0.02198909
#
# Stress axis : x y z
#
# Youngs Moduli (GPa) = 261.18630 78.21300 87.32495
#
# Poissons Ratio (x) = 0.07656 0.13640
# Poissons Ratio (y) = 0.25568 0.04344
# Poissons Ratio (z) = 0.40796 0.03891
#
# Static dielectric constant tensor:
#      x y z
#    x 1.899230 0.000000 0.000000 
#    y 0.000000 1.847510 0.000000 
#    z 0.000000 0.000000 1.885940 
# 
# From -- ./inp_files/29869.got.cif
#   From: 2010.05.17/outbox.cif.g08.bks.cpg/sg53_15_cif.got.tgz:29869.got - 2010.06.03 12:45:16.
