data_PCOD9414579
_publ_section_title
;
Structure prediction by ZEFSAII (Michael W. Deem and Ramdas Pophale) SiO2 
 PCOD9414579
Probable space group: P M N A
;
_chemical_formula_sum "Si O2"
_cell_formula_units_Z 64
_cell_length_a 9.204556
_cell_length_b 20.636517
_cell_length_c 19.767598
_cell_angle_alpha 90.000000
_cell_angle_beta 90.000000
_cell_angle_gamma 90.000000
_cell_volume 3754.854773
_symmetry_space_group_name_H-M "P M N A"
_symmetry_group_IT_number 53
_symmetry_cell_setting 'orthorhombic'
loop_
_space_group_symop_operation_xyz
x,y,z
1/2-x,-y,1/2+z
x,-y,-z
1/2-x,y,1/2-z
-x,-y,-z
1/2+x,y,1/2-z
-x,y,z
1/2+x,-y,1/2+z
loop_
_atom_site_type_symbol
_atom_site_label
_atom_site_fract_x
_atom_site_fract_y
_atom_site_fract_z
Si Si1 0.672629 0.978060 0.077499
Si Si2 0.174620 0.649592 0.543501
Si Si3 0.826534 0.259823 0.819630
Si Si4 0.326410 0.384000 0.598023
Si Si5 0.174284 0.796420 0.570882
Si Si6 0.673861 0.155359 0.565602
Si Si7 0.333123 0.511843 0.918504
Si Si8 0.174267 0.903461 0.677769
O O1 0.500000 0.964671 0.084039
O O2 0.710293 0.035804 0.128974
O O3 0.763715 0.913414 0.089165
O O4 0.697663 0.000000 0.000000
O O5 0.255792 0.641127 0.472114
O O6 0.206588 0.719831 0.574400
O O7 0.212674 0.586725 0.588742
O O8 0.000000 0.645455 0.531601
O O9 0.750000 0.243296 0.750000
O O10 0.787228 0.331841 0.844931
O O11 0.788450 0.210008 0.879302
O O12 0.000000 0.257325 0.810886
O O13 0.500000 0.385289 0.590398
O O14 0.265762 0.455682 0.611810
O O15 0.253573 0.825571 0.505498
O O16 0.214369 0.838381 0.636469
O O17 0.000000 0.803788 0.561247
O O18 0.500000 0.153028 0.558437
O O19 0.500000 0.503921 0.896327
O O20 0.330371 0.500000 0.000000
O O21 0.250000 0.907771 0.750000
O O22 0.000000 0.903516 0.686692
#
# Coordination Sequence:
#
# PCOD9414579 Si02
#       8
#     8   8   8   8   8   8   8   8
#     4  10  20  38  60  82 109 143 183 220 258 316
#     4   9  17  29  50  77 103 135 177 218 258 311
#     4  10  23  38  51  73 106 142 184 227 272 327
#     4  10  18  30  47  71 104 136 171 220 272 318
#     4  10  19  35  58  81 107 146 184 217 265 323
#     4  11  22  36  55  83 112 137 176 230 275 317
#     4   8  15  27  43  71 103 131 170 214 256 310
#     4  10  22  39  59  83 112 142 179 220 264 320
#
# _framework density 17.044601
#
# number of rings (size 3 to 8) (size 9 to 14) (size 15 to 20)
#    0.000    2.250    2.500    1.500    0.000    6.000 
#    0.000    2.500    0.000    0.750    0.000    3.500 
#    0.000    0.000    0.000    0.000    0.000    0.000 
#
# Total GULP energy -356927.233981 kJ/mol
# GULP energy per Si atom -5576.988031 kJ/mol
# Density = 1.700581 g / cm^3
# Si number density = 17.044601 Si / 1000 Ang^3
#
#
#
# Elastic Constant Matrix: (Units=GPa)
#
#
# Indices 1 2 3 4 5 6 
#
# 1 28.9550 44.5311 36.4554 0.0000 0.0000 0.0000
# 2 44.5311 146.3056 56.9698 0.0000 0.0000 0.0000
# 3 36.4554 56.9698 103.0612 0.0000 0.0000 0.0000
# 4 0.0000 0.0000 0.0000 17.2700 0.0000 0.0000
# 5 0.0000 0.0000 0.0000 0.0000 24.5278 0.0000
# 6 0.0000 0.0000 0.0000 0.0000 0.0000 27.5668
#
#
#
# Elastic Compliance Matrix: (Units=1/GPa)
#
#
# Indices 1 2 3 4 5 6 
#
# 1 0.091886 -0.019511 -0.021717 0.000000 0.000000 0.000000
# 2 -0.019511 0.012853 -0.000203 0.000000 0.000000 0.000000
# 3 -0.021717 -0.000203 0.017497 0.000000 0.000000 0.000000
# 4 0.000000 0.000000 0.000000 0.057904 0.000000 0.000000
# 5 0.000000 0.000000 0.000000 0.000000 0.040770 0.000000
# 6 0.000000 0.000000 0.000000 0.000000 0.000000 0.036276
#
#
# Mechanical properties :
#
#
# Convention : Reuss Voigt Hill
#
# Bulk Modulus (GPa) = 25.39805 61.58159 43.48982
# Shear Modulus (GPa) = 14.15742 23.23062 18.69402
#
# Velocity S-wave (km/s) = 2.88516 3.69579 3.31535
# Velocity P-wave (km/s) = 5.10217 7.37699 6.34240
#
# Compressibility (1/GPa) = 0.03937311
#
# Stress axis : x y z
#
# Youngs Moduli (GPa) = 10.88310 77.80506 57.15204
#
# Poissons Ratio (x) = 1.51804 1.24118
# Poissons Ratio (y) = 0.21234 0.01161
# Poissons Ratio (z) = 0.23635 0.01581
#
# Static dielectric constant tensor:
#      x y z
#    x 1.567540 0.000000 0.000000 
#    y 0.000000 1.609640 0.000000 
#    z 0.000000 0.000000 1.541990 
# 
# From -- ./inp_files/26963.got.cif
#   From: 2010.05.17/outbox.cif.g08.bks.cpg/sg53_14_cif.got.tgz:26963.got - 2010.06.03 12:45:16.
