data_PCOD9414728
_publ_section_title
;
Structure prediction by ZEFSAII (Michael W. Deem and Ramdas Pophale) SiO2 
 PCOD9414728
Probable space group: P M N A
;
_chemical_formula_sum "Si O2"
_cell_formula_units_Z 24
_cell_length_a 14.727993
_cell_length_b 13.027146
_cell_length_c 5.067992
_cell_angle_alpha 90.000000
_cell_angle_beta 90.000000
_cell_angle_gamma 90.000000
_cell_volume 972.363773
_symmetry_space_group_name_H-M "P M N A"
_symmetry_group_IT_number 53
_symmetry_cell_setting 'orthorhombic'
loop_
_space_group_symop_operation_xyz
x,y,z
1/2-x,-y,1/2+z
x,-y,-z
1/2-x,y,1/2-z
-x,-y,-z
1/2+x,y,1/2-z
-x,y,z
1/2+x,-y,1/2+z
loop_
_atom_site_type_symbol
_atom_site_label
_atom_site_fract_x
_atom_site_fract_y
_atom_site_fract_z
Si Si1 0.144810 0.299013 0.722595
Si Si2 0.895074 0.067565 0.759955
Si Si3 0.640722 0.591889 0.704253
O O1 0.250000 0.328852 0.750000
O O2 0.141927 0.178471 0.673487
O O3 0.106880 0.375693 0.496626
O O4 0.110452 0.314185 0.019085
O O5 0.000000 0.087790 0.836650
O O6 0.892739 0.000000 0.500000
O O7 0.853204 0.000000 0.000000
O O8 0.615836 0.500000 0.500000
O O9 0.750000 0.582510 0.750000
#
# Coordination Sequence:
#
# PCOD9414728 Si02
#       3
#     8   8   8
#     4  10  20  32  52  80 105 133 173 218 260 302
#     4  10  21  37  55  74 101 140 178 213 263 322
#     4  10  18  31  51  77 108 138 170 210 258 313
#
# _framework density 24.682120999999999
#
# number of rings (size 3 to 8) (size 9 to 14) (size 15 to 20)
#    0.000    2.000    0.000    6.000    0.000    1.333 
#    0.000    0.000    0.000    6.000    0.000    0.000 
#    0.000   12.000    0.000    0.000    0.000    0.000 
#
# Total GULP energy -133608.531143 kJ/mol
# GULP energy per Si atom -5567.022131 kJ/mol
# Density = 2.462594 g / cm^3
# Si number density = 24.682121 Si / 1000 Ang^3
#
#
#
# Elastic Constant Matrix: (Units=GPa)
#
#
# Indices 1 2 3 4 5 6 
#
# 1 63.4656 -1.6610 8.4978 0.0000 0.0000 0.0000
# 2 -1.6610 143.8960 57.4992 0.0000 0.0000 0.0000
# 3 8.4978 57.4992 178.9274 0.0000 0.0000 0.0000
# 4 0.0000 0.0000 0.0000 53.6952 0.0000 0.0000
# 5 0.0000 0.0000 0.0000 0.0000 -11.1498 0.0000
# 6 0.0000 0.0000 0.0000 0.0000 0.0000 61.2878
#
#
#
# Elastic Compliance Matrix: (Units=1/GPa)
#
#
# Indices 1 2 3 4 5 6 
#
# 1 0.015896 0.000557 -0.000934 0.000000 0.000000 0.000000
# 2 0.000557 0.007993 -0.002595 0.000000 0.000000 0.000000
# 3 -0.000934 -0.002595 0.006467 0.000000 0.000000 0.000000
# 4 0.000000 0.000000 0.000000 0.018624 0.000000 0.000000
# 5 0.000000 0.000000 0.000000 0.000000 -0.089687 0.000000
# 6 0.000000 0.000000 0.000000 0.000000 0.000000 0.016316
#
#
# Mechanical properties :
#
#
# Convention : Reuss Voigt Hill
#
# Bulk Modulus (GPa) = 40.96382 57.21787 49.09084
# Shear Modulus (GPa) = -484.98602 42.23015 -221.37794
#
# Velocity S-wave (km/s) = -14.03280 4.14086 -9.48084
# Velocity P-wave (km/s) = 15.68205 6.78930 9.99580
#
# Compressibility (1/GPa) = 0.02441179
#
# Stress axis : x y z
#
# Youngs Moduli (GPa) = 62.90819 125.11252 154.62846
#
# Poissons Ratio (x) = -0.06964 0.14440
# Poissons Ratio (y) = -0.03502 0.40126
# Poissons Ratio (z) = 0.05875 0.32466
#
# Static dielectric constant tensor:
#      x y z
#    x 2.058420 0.000000 0.000000 
#    y 0.000000 2.191460 0.000000 
#    z 0.000000 0.000000 1.973610 
# 
# From -- ./inp_files/1055.got.cif
#   From: 2010.05.17/outbox.cif.g08.bks.cpg/sg53_1_cif.got.tgz:1055.got - 2010.06.03 12:45:16.
