data_PCOD9414521
_publ_section_title
;
Structure prediction by ZEFSAII (Michael W. Deem and Ramdas Pophale) SiO2 
 PCOD9414521
Probable space group: P M N A
;
_chemical_formula_sum "Si O2"
_cell_formula_units_Z 56
_cell_length_a 8.607723
_cell_length_b 13.907683
_cell_length_c 29.043192
_cell_angle_alpha 90.000000
_cell_angle_beta 90.000000
_cell_angle_gamma 90.000000
_cell_volume 3476.861667
_symmetry_space_group_name_H-M "P M N A"
_symmetry_group_IT_number 53
_symmetry_cell_setting 'orthorhombic'
loop_
_space_group_symop_operation_xyz
x,y,z
1/2-x,-y,1/2+z
x,-y,-z
1/2-x,y,1/2-z
-x,-y,-z
1/2+x,y,1/2-z
-x,y,z
1/2+x,-y,1/2+z
loop_
_atom_site_type_symbol
_atom_site_label
_atom_site_fract_x
_atom_site_fract_y
_atom_site_fract_z
Si Si1 0.813838 0.701382 0.031081
Si Si2 0.685485 0.492692 0.300325
Si Si3 0.815482 0.722329 0.700235
Si Si4 0.815401 0.796115 0.890107
Si Si5 0.310945 0.101877 0.480873
Si Si6 0.685411 0.414490 0.890092
Si Si7 0.685101 0.612563 0.942220
O O1 0.757702 0.673823 0.081812
O O2 0.000000 0.693288 0.027862
O O3 0.767902 0.807723 0.013223
O O4 0.735843 0.628038 0.994761
O O5 0.750000 0.519204 0.250000
O O6 0.500000 0.490029 0.299550
O O7 0.747396 0.384322 0.309799
O O8 0.745525 0.563024 0.340096
O O9 0.750000 0.751470 0.750000
O O10 0.765800 0.792799 0.659221
O O11 0.000000 0.713789 0.702378
O O12 0.762876 0.873348 0.928502
O O13 0.775473 0.694318 0.914011
O O14 0.000000 0.804237 0.883832
O O15 0.500000 0.099897 0.480389
O O16 0.255296 0.000000 0.500000
O O17 0.500000 0.404693 0.887187
O O18 0.720950 0.509603 0.920570
O O19 0.500000 0.628396 0.937942
#
# Coordination Sequence:
#
# PCOD9414521 Si02
#       7
#     8   8   8   8   8   8   8
#     4  10  20  31  47  70  94 123 162 202 240 285
#     4  11  21  33  49  68  95 129 169 205 237 279
#     4  11  20  31  46  67  97 131 165 200 237 281
#     4  10  18  29  48  72  96 127 164 201 240 286
#     4   8  16  32  52  73  97 124 158 200 247 298
#     4  11  21  32  46  66  96 132 165 197 237 281
#     4  10  19  30  44  63  94 131 163 194 233 279
#
# _framework density 16.106479
#
# number of rings (size 3 to 8) (size 9 to 14) (size 15 to 20)
#    0.000    1.857    1.429    6.429    0.000    3.429 
#    0.000    0.000    0.000   15.429    0.000    1.000 
#    0.000    4.571    0.000    0.000    0.000    0.000 
#
# Total GULP energy -312490.332429 kJ/mol
# GULP energy per Si atom -5580.184508 kJ/mol
# Density = 1.606982 g / cm^3
# Si number density = 16.106479 Si / 1000 Ang^3
#
#
#
# Elastic Constant Matrix: (Units=GPa)
#
#
# Indices 1 2 3 4 5 6 
#
# 1 60.2124 20.4045 29.8124 0.0000 0.0000 0.0000
# 2 20.4045 54.8095 51.2330 0.0000 0.0000 0.0000
# 3 29.8124 51.2330 138.7638 0.0000 0.0000 0.0000
# 4 0.0000 0.0000 0.0000 18.3682 0.0000 0.0000
# 5 0.0000 0.0000 0.0000 0.0000 30.3411 0.0000
# 6 0.0000 0.0000 0.0000 0.0000 0.0000 -0.6877
#
#
#
# Elastic Compliance Matrix: (Units=1/GPa)
#
#
# Indices 1 2 3 4 5 6 
#
# 1 0.019475 -0.005099 -0.002302 0.000000 0.000000 0.000000
# 2 -0.005099 0.029195 -0.009684 0.000000 0.000000 0.000000
# 3 -0.002302 -0.009684 0.011276 0.000000 0.000000 0.000000
# 4 0.000000 0.000000 0.000000 0.054442 0.000000 0.000000
# 5 0.000000 0.000000 0.000000 0.000000 0.032959 0.000000
# 6 0.000000 0.000000 0.000000 0.000000 0.000000 -1.454042
#
#
# Mechanical properties :
#
#
# Convention : Reuss Voigt Hill
#
# Bulk Modulus (GPa) = 38.79221 50.74283 44.76752
# Shear Modulus (GPa) = -3.95590 19.76002 7.90206
#
# Velocity S-wave (km/s) = -1.56889 3.50642 2.21738
# Velocity P-wave (km/s) = 4.56675 6.92577 5.86607
#
# Compressibility (1/GPa) = 0.02577837
#
# Stress axis : x y z
#
# Youngs Moduli (GPa) = 51.34697 34.25252 88.68200
#
# Poissons Ratio (x) = 0.17465 0.20411
# Poissons Ratio (y) = 0.26181 0.85876
# Poissons Ratio (z) = 0.11818 0.33169
#
# Static dielectric constant tensor:
#      x y z
#    x 1.539850 0.000000 0.000000 
#    y 0.000000 1.521840 0.000000 
#    z 0.000000 0.000000 1.569470 
# 
# From -- ./inp_files/38380.got.cif
#   From: 2010.05.17/outbox.cif.g08.bks.cpg/sg53_20_cif.got.tgz:38380.got - 2010.06.03 12:45:16.
