data_PCOD9414772
_publ_section_title
;
Structure prediction by ZEFSAII (Michael W. Deem and Ramdas Pophale) SiO2 
 PCOD9414772
Probable space group: P M N A
;
_chemical_formula_sum "Si O2"
_cell_formula_units_Z 56
_cell_length_a 21.925388
_cell_length_b 9.494723
_cell_length_c 14.328033
_cell_angle_alpha 90.000000
_cell_angle_beta 90.000000
_cell_angle_gamma 90.000000
_cell_volume 2982.745229
_symmetry_space_group_name_H-M "P M N A"
_symmetry_group_IT_number 53
_symmetry_cell_setting 'orthorhombic'
loop_
_space_group_symop_operation_xyz
x,y,z
1/2-x,-y,1/2+z
x,-y,-z
1/2-x,y,1/2-z
-x,-y,-z
1/2+x,y,1/2-z
-x,y,z
1/2+x,-y,1/2+z
loop_
_atom_site_type_symbol
_atom_site_label
_atom_site_fract_x
_atom_site_fract_y
_atom_site_fract_z
Si Si1 0.280606 0.638369 0.446498
Si Si2 0.348808 0.540151 0.109325
Si Si3 0.689433 0.122099 0.684497
Si Si4 0.067912 0.983375 0.281392
Si Si5 0.624929 0.236537 0.151118
Si Si6 0.738311 0.893617 0.923281
Si Si7 0.929933 0.780536 0.444008
O O1 0.305256 0.500000 0.500000
O O2 0.221308 0.586642 0.388177
O O3 0.318267 0.735844 0.376298
O O4 0.257837 0.750978 0.524425
O O5 0.364339 0.401359 0.167621
O O6 0.393744 0.670492 0.121586
O O7 0.357264 0.500000 0.000000
O O8 0.750000 0.139737 0.750000
O O9 0.625657 0.086377 0.732047
O O10 0.708410 0.988552 0.619897
O O11 0.070249 0.926390 0.388115
O O12 0.000000 0.948965 0.245937
O O13 0.079053 0.150804 0.284559
O O14 0.689097 0.153491 0.152775
O O15 0.601726 0.220687 0.044323
O O16 0.709528 0.000000 0.000000
O O17 0.000000 0.735791 0.456225
#
# Coordination Sequence:
#
# PCOD9414772 Si02
#       7
#     8   8   8   8   8   8   8
#     4  10  18  36  56  80 110 141 181 237 281 329
#     4   9  17  28  48  75 108 137 172 220 258 310
#     4  11  22  34  57  83 111 144 186 230 290 334
#     4  11  23  37  52  76 112 149 188 232 276 327
#     4  11  18  30  51  79 114 146 180 216 263 334
#     4  10  18  31  54  78 109 138 177 223 273 327
#     4  10  19  31  49  74 109 155 187 205 252 333
#
# _framework density 18.774652
#
# number of rings (size 3 to 8) (size 9 to 14) (size 15 to 20)
#    0.000    1.714    5.714    2.571    0.000    4.286 
#    0.000    3.571    0.000    4.286    0.000    0.000 
#    0.000    0.000    0.000    0.000    0.000    0.000 
#
# Total GULP energy -312129.326395 kJ/mol
# GULP energy per Si atom -5573.737971 kJ/mol
# Density = 1.873192 g / cm^3
# Si number density = 18.774652 Si / 1000 Ang^3
#
#
#
# Elastic Constant Matrix: (Units=GPa)
#
#
# Indices 1 2 3 4 5 6 
#
# 1 97.7061 34.7278 29.8545 0.0000 0.0000 0.0000
# 2 34.7278 127.7626 21.8631 0.0000 0.0000 0.0000
# 3 29.8545 21.8631 28.6477 0.0000 0.0000 0.0000
# 4 0.0000 0.0000 0.0000 22.8704 0.0000 0.0000
# 5 0.0000 0.0000 0.0000 0.0000 18.6886 0.0000
# 6 0.0000 0.0000 0.0000 0.0000 0.0000 12.3515
#
#
#
# Elastic Compliance Matrix: (Units=1/GPa)
#
#
# Indices 1 2 3 4 5 6 
#
# 1 0.015312 -0.001646 -0.014700 0.000000 0.000000 0.000000
# 2 -0.001646 0.009180 -0.005290 0.000000 0.000000 0.000000
# 3 -0.014700 -0.005290 0.054263 0.000000 0.000000 0.000000
# 4 0.000000 0.000000 0.000000 0.043725 0.000000 0.000000
# 5 0.000000 0.000000 0.000000 0.000000 0.053509 0.000000
# 6 0.000000 0.000000 0.000000 0.000000 0.000000 0.080962
#
#
# Mechanical properties :
#
#
# Convention : Reuss Voigt Hill
#
# Bulk Modulus (GPa) = 28.18356 47.44526 37.81441
# Shear Modulus (GPa) = 16.02307 21.96017 18.99162
#
# Velocity S-wave (km/s) = 2.92454 3.42376 3.18395
# Velocity P-wave (km/s) = 5.14276 6.39963 5.80531
#
# Compressibility (1/GPa) = 0.03548168
#
# Stress axis : x y z
#
# Youngs Moduli (GPa) = 65.30975 108.93521 18.42865
#
# Poissons Ratio (x) = 0.17935 0.27090
# Poissons Ratio (y) = 0.10753 0.09749
# Poissons Ratio (z) = 0.96006 0.57626
#
# Static dielectric constant tensor:
#      x y z
#    x 1.659390 0.000000 0.000000 
#    y 0.000000 1.700410 0.000000 
#    z 0.000000 0.000000 1.683400 
# 
# From -- ./inp_files/24352.got.cif
#   From: 2010.05.17/outbox.cif.g08.bks.cpg/sg53_13_cif.got.tgz:24352.got - 2010.06.03 12:45:16.
