data_PCOD9414722
_publ_section_title
;
Structure prediction by ZEFSAII (Michael W. Deem and Ramdas Pophale) SiO2 
 PCOD9414722
Probable space group: P M N A
;
_chemical_formula_sum "Si O2"
_cell_formula_units_Z 64
_cell_length_a 7.698631
_cell_length_b 21.052618
_cell_length_c 20.089046
_cell_angle_alpha 90.000000
_cell_angle_beta 90.000000
_cell_angle_gamma 90.000000
_cell_volume 3255.959001
_symmetry_space_group_name_H-M "P M N A"
_symmetry_group_IT_number 53
_symmetry_cell_setting 'orthorhombic'
loop_
_space_group_symop_operation_xyz
x,y,z
1/2-x,-y,1/2+z
x,-y,-z
1/2-x,y,1/2-z
-x,-y,-z
1/2+x,y,1/2-z
-x,y,z
1/2+x,-y,1/2+z
loop_
_atom_site_type_symbol
_atom_site_label
_atom_site_fract_x
_atom_site_fract_y
_atom_site_fract_z
Si Si1 0.209449 0.152114 0.452681
Si Si2 0.798915 0.982931 0.579130
Si Si3 0.794502 0.760694 0.175271
Si Si4 0.291057 0.403969 0.327712
Si Si5 0.212024 0.483665 0.924484
Si Si6 0.291731 0.705614 0.576759
Si Si7 0.707205 0.117811 0.899817
Si Si8 0.287087 0.659514 0.431392
O O1 0.276080 0.088020 0.416471
O O2 0.252086 0.219713 0.421170
O O3 0.271967 0.147169 0.529738
O O4 0.000000 0.147571 0.454359
O O5 0.000000 0.978027 0.601111
O O6 0.799405 0.000000 0.500000
O O7 0.720847 0.046693 0.610992
O O8 0.750000 0.742576 0.250000
O O9 0.736894 0.831636 0.157420
O O10 0.723059 0.711659 0.120848
O O11 0.000000 0.759682 0.168291
O O12 0.250000 0.407690 0.250000
O O13 0.500000 0.404352 0.332902
O O14 0.227918 0.464144 0.371273
O O15 0.227589 0.339313 0.363624
O O16 0.265922 0.411379 0.911293
O O17 0.000000 0.485116 0.923848
O O18 0.264660 0.500000 0.000000
O O19 0.500000 0.700261 0.575898
O O20 0.229482 0.677833 0.505799
O O21 0.500000 0.110190 0.907793
O O22 0.500000 0.660163 0.432099
#
# Coordination Sequence:
#
# PCOD9414722 Si02
#       8
#     8   8   8   8   8   8   8   8
#     4   9  16  27  48  77 103 130 163 206 255 301
#     4   7  12  24  43  69  99 127 157 195 243 298
#     4  11  22  34  48  69 101 137 173 214 258 307
#     4  10  21  35  55  79 105 135 169 210 254 304
#     4   9  15  29  54  79  99 129 173 210 244 294
#     4  10  18  31  51  76 103 134 170 211 253 298
#     4   9  16  29  49  71  98 131 168 207 251 304
#     4   9  17  30  50  74  99 128 169 214 253 296
#
# _framework density 19.656268000000001
#
# number of rings (size 3 to 8) (size 9 to 14) (size 15 to 20)
#    0.000    2.750    2.500    1.875    0.000    1.000 
#    0.000    0.625    0.000    4.875    0.000    1.750 
#    0.000    0.000    0.000    0.000    0.000    0.000 
#
# Total GULP energy -356735.177234 kJ/mol
# GULP energy per Si atom -5573.987144 kJ/mol
# Density = 1.961153 g / cm^3
# Si number density = 19.656268 Si / 1000 Ang^3
#
#
#
# Elastic Constant Matrix: (Units=GPa)
#
#
# Indices 1 2 3 4 5 6 
#
# 1 31.9162 7.6114 3.9126 0.0000 0.0000 0.0000
# 2 7.6114 190.1206 78.0108 0.0000 0.0000 0.0000
# 3 3.9126 78.0108 113.3402 0.0000 0.0000 0.0000
# 4 0.0000 0.0000 0.0000 24.3326 0.0000 0.0000
# 5 0.0000 0.0000 0.0000 0.0000 1.3331 0.0000
# 6 0.0000 0.0000 0.0000 0.0000 0.0000 15.8416
#
#
#
# Elastic Compliance Matrix: (Units=1/GPa)
#
#
# Indices 1 2 3 4 5 6 
#
# 1 0.031642 -0.001141 -0.000307 0.000000 0.000000 0.000000
# 2 -0.001141 0.007371 -0.005034 0.000000 0.000000 0.000000
# 3 -0.000307 -0.005034 0.012298 0.000000 0.000000 0.000000
# 4 0.000000 0.000000 0.000000 0.041097 0.000000 0.000000
# 5 0.000000 0.000000 0.000000 0.000000 0.750130 0.000000
# 6 0.000000 0.000000 0.000000 0.000000 0.000000 0.063125
#
#
# Mechanical properties :
#
#
# Convention : Reuss Voigt Hill
#
# Bulk Modulus (GPa) = 26.07736 57.16075 41.61905
# Shear Modulus (GPa) = 5.36820 24.69092 15.02956
#
# Velocity S-wave (km/s) = 1.65438 3.54804 2.76817
# Velocity P-wave (km/s) = 4.11640 6.77703 5.60682
#
# Compressibility (1/GPa) = 0.03834744
#
# Stress axis : x y z
#
# Youngs Moduli (GPa) = 31.60379 135.66543 81.31089
#
# Poissons Ratio (x) = 0.15476 0.02497
# Poissons Ratio (y) = 0.03605 0.40932
# Poissons Ratio (z) = 0.00971 0.68295
#
# Static dielectric constant tensor:
#      x y z
#    x 1.747470 0.000000 0.000000 
#    y 0.000000 1.734720 0.000000 
#    z 0.000000 0.000000 1.650850 
# 
# From -- ./inp_files/31345.got.cif
#   From: 2010.05.17/outbox.cif.g08.bks.cpg/sg53_16_cif.got.tgz:31345.got - 2010.06.03 12:45:16.
