data_PCOD9414111
_publ_section_title
;
Structure prediction by ZEFSAII (Michael W. Deem and Ramdas Pophale) SiO2 
 PCOD9414111
Probable space group: P M N A
;
_chemical_formula_sum "Si O2"
_cell_formula_units_Z 32
_cell_length_a 10.853480
_cell_length_b 10.306708
_cell_length_c 14.019326
_cell_angle_alpha 90.000000
_cell_angle_beta 90.000000
_cell_angle_gamma 90.000000
_cell_volume 1568.252965
_symmetry_space_group_name_H-M "P M N A"
_symmetry_group_IT_number 53
_symmetry_cell_setting 'orthorhombic'
loop_
_space_group_symop_operation_xyz
x,y,z
1/2-x,-y,1/2+z
x,-y,-z
1/2-x,y,1/2-z
-x,-y,-z
1/2+x,y,1/2-z
-x,y,z
1/2+x,-y,1/2+z
loop_
_atom_site_type_symbol
_atom_site_label
_atom_site_fract_x
_atom_site_fract_y
_atom_site_fract_z
Si Si1 0.000000 0.223586 0.313041
Si Si2 0.500000 0.844668 0.596777
Si Si3 0.000000 0.516922 0.384294
Si Si4 0.739832 0.623496 0.071743
Si Si5 0.000000 0.627322 0.066426
Si Si6 0.720400 0.878054 0.939197
O O1 0.000000 0.221361 0.199549
O O2 0.000000 0.373431 0.343695
O O3 0.876892 0.155897 0.355890
O O4 0.500000 0.745486 0.508543
O O5 0.636885 0.908829 0.590817
O O6 0.000000 0.500000 0.500000
O O7 0.876457 0.595170 0.362844
O O8 0.872131 0.631665 0.121663
O O9 0.748345 0.500000 0.000000
O O10 0.721404 0.750717 0.006973
O O11 0.000000 0.500000 0.000000
O O12 0.675114 0.000000 0.000000
#
# Coordination Sequence:
#
# PCOD9414111 Si02
#       6
#     4   4   4   8   4   8
#     4  12  21  36  57  91 118 149 191 256 295 333
#     4  10  23  37  55  88 121 149 191 255 296 332
#     4  10  16  30  53  81 118 141 182 232 275 337
#     4   9  15  30  51  81 108 135 188 232 263 324
#     4   8  16  29  52  78 107 141 185 227 269 338
#     4  11  21  36  58  89 109 156 202 238 281 358
#
# _framework density 20.404872000000001
#
# number of rings (size 3 to 8) (size 9 to 14) (size 15 to 20)
#    0.000    2.000    5.000    1.500    0.000    0.000 
#    0.000    0.000    0.000    0.000   78.000    0.000 
#    0.000    0.000    0.000    0.000    0.000    0.000 
#
# Total GULP energy -178242.469197 kJ/mol
# GULP energy per Si atom -5570.077162 kJ/mol
# Density = 2.035843 g / cm^3
# Si number density = 20.404872 Si / 1000 Ang^3
#
#
#
# Elastic Constant Matrix: (Units=GPa)
#
#
# Indices 1 2 3 4 5 6 
#
# 1 214.2014 8.1034 27.5802 0.0000 0.0000 0.0000
# 2 8.1034 71.3057 15.9870 0.0000 0.0000 0.0000
# 3 27.5802 15.9870 56.1971 0.0000 0.0000 0.0000
# 4 0.0000 0.0000 0.0000 9.0072 0.0000 0.0000
# 5 0.0000 0.0000 0.0000 0.0000 10.7152 0.0000
# 6 0.0000 0.0000 0.0000 0.0000 0.0000 11.9854
#
#
#
# Elastic Compliance Matrix: (Units=1/GPa)
#
#
# Indices 1 2 3 4 5 6 
#
# 1 0.004983 -0.000019 -0.002440 0.000000 0.000000 0.000000
# 2 -0.000019 0.014980 -0.004252 0.000000 0.000000 0.000000
# 3 -0.002440 -0.004252 0.020202 0.000000 0.000000 0.000000
# 4 0.000000 0.000000 0.000000 0.111022 0.000000 0.000000
# 5 0.000000 0.000000 0.000000 0.000000 0.093326 0.000000
# 6 0.000000 0.000000 0.000000 0.000000 0.000000 0.083435
#
#
# Mechanical properties :
#
#
# Convention : Reuss Voigt Hill
#
# Bulk Modulus (GPa) = 37.39457 49.44949 43.42203
# Shear Modulus (GPa) = 14.27414 25.67714 19.97564
#
# Velocity S-wave (km/s) = 2.64776 3.55122 3.13223
# Velocity P-wave (km/s) = 5.26437 6.41106 5.86580
#
# Compressibility (1/GPa) = 0.02674185
#
# Stress axis : x y z
#
# Youngs Moduli (GPa) = 200.66466 66.75740 49.50062
#
# Poissons Ratio (x) = 0.00128 0.12080
# Poissons Ratio (y) = 0.00386 0.21048
# Poissons Ratio (z) = 0.48968 0.28385
#
# Static dielectric constant tensor:
#      x y z
#    x 1.945700 0.000000 0.000000 
#    y 0.000000 1.602740 0.000000 
#    z 0.000000 0.000000 1.663840 
# 
# From -- ./inp_files/21515.got.cif
#   From: 2010.05.17/outbox.cif.g08.bks.cpg/sg53_11_cif.got.tgz:21515.got - 2010.06.03 12:45:16.
