data_PCOD9414976
_publ_section_title
;
Structure prediction by ZEFSAII (Michael W. Deem and Ramdas Pophale) SiO2 
 PCOD9414976
Probable space group: P M N A
;
_chemical_formula_sum "Si O2"
_cell_formula_units_Z 56
_cell_length_a 22.107271
_cell_length_b 14.497095
_cell_length_c 8.491885
_cell_angle_alpha 90.000000
_cell_angle_beta 90.000000
_cell_angle_gamma 90.000000
_cell_volume 2721.574481
_symmetry_space_group_name_H-M "P M N A"
_symmetry_group_IT_number 53
_symmetry_cell_setting 'orthorhombic'
loop_
_space_group_symop_operation_xyz
x,y,z
1/2-x,-y,1/2+z
x,-y,-z
1/2-x,y,1/2-z
-x,-y,-z
1/2+x,y,1/2-z
-x,y,z
1/2+x,-y,1/2+z
loop_
_atom_site_type_symbol
_atom_site_label
_atom_site_fract_x
_atom_site_fract_y
_atom_site_fract_z
Si Si1 0.810026 0.705772 0.650015
Si Si2 0.828853 0.183841 0.824026
Si Si3 0.725148 0.889959 0.003793
Si Si4 0.430334 0.897730 0.479765
Si Si5 0.068259 0.418371 0.873286
Si Si6 0.568735 0.280703 0.339969
Si Si7 0.187217 0.383521 0.697890
O O1 0.750000 0.680564 0.750000
O O2 0.804225 0.816739 0.615991
O O3 0.873694 0.688959 0.737895
O O4 0.810563 0.650375 0.483402
O O5 0.804811 0.135877 0.668999
O O6 0.794413 0.143618 0.975723
O O7 0.813685 0.290192 0.803607
O O8 0.897279 0.155580 0.840861
O O9 0.721913 0.000000 0.000000
O O10 0.500000 0.908203 0.439543
O O11 0.426456 0.829024 0.628179
O O12 0.404378 0.000000 0.500000
O O13 0.123130 0.427324 0.749123
O O14 0.000000 0.419054 0.804029
O O15 0.072608 0.500000 0.000000
O O16 0.072982 0.329760 0.988951
O O17 0.500000 0.301002 0.280674
O O18 0.250000 0.432678 0.750000
#
# Coordination Sequence:
#
# PCOD9414976 Si02
#       7
#     8   8   8   8   8   8   8
#     4  11  22  35  58  88 121 165 202 252 309 370
#     4  10  18  34  52  76 109 151 202 249 297 360
#     4  10  21  31  49  80 111 156 206 257 301 348
#     4  10  20  32  52  79 111 155 201 247 302 367
#     4  10  22  43  71  95 118 157 207 257 313 384
#     4  10  21  38  59  85 118 153 198 253 310 371
#     4  11  20  40  62  88 124 157 201 253 309 375
#
# _framework density 20.576326000000002
#
# number of rings (size 3 to 8) (size 9 to 14) (size 15 to 20)
#    0.000    1.714    4.286    2.143    4.000    0.571 
#    0.000    5.000    0.000    3.429    0.000    0.000 
#    0.000    0.000    0.000    0.000    0.000    0.000 
#
# Total GULP energy -311989.642021 kJ/mol
# GULP energy per Si atom -5571.243608 kJ/mol
# Density = 2.052949 g / cm^3
# Si number density = 20.576326 Si / 1000 Ang^3
#
#
#
# Elastic Constant Matrix: (Units=GPa)
#
#
# Indices 1 2 3 4 5 6 
#
# 1 178.4674 10.6150 71.8755 0.0000 0.0000 0.0000
# 2 10.6150 54.5164 4.2800 0.0000 0.0000 0.0000
# 3 71.8755 4.2800 63.9397 0.0000 0.0000 0.0000
# 4 0.0000 0.0000 0.0000 6.9110 0.0000 0.0000
# 5 0.0000 0.0000 0.0000 0.0000 41.2346 0.0000
# 6 0.0000 0.0000 0.0000 0.0000 0.0000 12.7200
#
#
#
# Elastic Compliance Matrix: (Units=1/GPa)
#
#
# Indices 1 2 3 4 5 6 
#
# 1 0.010304 -0.001103 -0.011509 0.000000 0.000000 0.000000
# 2 -0.001103 0.018558 -0.000003 0.000000 0.000000 0.000000
# 3 -0.011509 -0.000003 0.028577 0.000000 0.000000 0.000000
# 4 0.000000 0.000000 0.000000 0.144697 0.000000 0.000000
# 5 0.000000 0.000000 0.000000 0.000000 0.024251 0.000000
# 6 0.000000 0.000000 0.000000 0.000000 0.000000 0.078616
#
#
# Mechanical properties :
#
#
# Convention : Reuss Voigt Hill
#
# Bulk Modulus (GPa) = 31.04572 52.27384 41.65978
# Shear Modulus (GPa) = 14.66408 26.18332 20.42370
#
# Velocity S-wave (km/s) = 2.67248 3.57108 3.15395
# Velocity P-wave (km/s) = 4.96424 6.51640 5.79255
#
# Compressibility (1/GPa) = 0.03221055
#
# Stress axis : x y z
#
# Youngs Moduli (GPa) = 97.05015 53.88505 34.99279
#
# Poissons Ratio (x) = 0.05942 0.40273
# Poissons Ratio (y) = 0.10702 0.00009
# Poissons Ratio (z) = 1.11695 0.00014
#
# Static dielectric constant tensor:
#      x y z
#    x 1.848280 0.000000 0.000000 
#    y 0.000000 1.873490 0.000000 
#    z 0.000000 0.000000 1.720040 
# 
# From -- ./inp_files/11063.got.cif
#   From: 2010.05.17/outbox.cif.g08.bks.cpg/sg53_6_cif.got.tgz:11063.got - 2010.06.03 12:45:16.
