data_PCOD9414291
_publ_section_title
;
Structure prediction by ZEFSAII (Michael W. Deem and Ramdas Pophale) SiO2 
 PCOD9414291
Probable space group: P M N A
;
_chemical_formula_sum "Si O2"
_cell_formula_units_Z 32
_cell_length_a 28.083992
_cell_length_b 6.224633
_cell_length_c 9.831023
_cell_angle_alpha 90.000000
_cell_angle_beta 90.000000
_cell_angle_gamma 90.000000
_cell_volume 1718.586135
_symmetry_space_group_name_H-M "P M N A"
_symmetry_group_IT_number 53
_symmetry_cell_setting 'orthorhombic'
loop_
_space_group_symop_operation_xyz
x,y,z
1/2-x,-y,1/2+z
x,-y,-z
1/2-x,y,1/2-z
-x,-y,-z
1/2+x,y,1/2-z
-x,y,z
1/2+x,-y,1/2+z
loop_
_atom_site_type_symbol
_atom_site_label
_atom_site_fract_x
_atom_site_fract_y
_atom_site_fract_z
Si Si1 0.219755 0.652401 0.878466
Si Si2 0.604680 0.500000 0.000000
Si Si3 0.709209 0.000000 0.000000
Si Si4 0.858803 0.133693 0.297097
Si Si5 0.946368 0.123646 0.645389
O O1 0.250000 0.557545 0.750000
O O2 0.173421 0.772987 0.821720
O O3 0.257152 0.813601 0.947553
O O4 0.205043 0.500000 0.000000
O O5 0.632889 0.671527 0.905949
O O6 0.573152 0.357967 0.895750
O O7 0.673970 0.957372 0.125801
O O8 0.908440 0.014908 0.268377
O O9 0.000000 0.130959 0.699744
O O10 0.947535 0.000000 0.500000
#
# Coordination Sequence:
#
# PCOD9414291 Si02
#       5
#     8   4   4   8   8
#     4  10  24  37  57  81 110 152 194 233 280 337
#     4  10  17  30  56  80 112 144 184 230 287 336
#     4  10  20  36  49  76 107 148 184 232 278 322
#     4  10  20  35  54  80 114 146 184 236 283 335
#     4   9  17  30  51  80 113 145 183 230 284 338
#
# _framework density 18.619956999999999
#
# number of rings (size 3 to 8) (size 9 to 14) (size 15 to 20)
#    0.000    2.250    3.750    0.375    7.000    6.000 
#    0.000    0.000    0.000    0.750    0.000    2.625 
#    0.000    0.000    0.000    0.000    0.000    0.000 
#
# Total GULP energy -178194.542875 kJ/mol
# GULP energy per Si atom -5568.579465 kJ/mol
# Density = 1.857758 g / cm^3
# Si number density = 18.619957 Si / 1000 Ang^3
#
#
#
# Elastic Constant Matrix: (Units=GPa)
#
#
# Indices 1 2 3 4 5 6 
#
# 1 163.7198 51.4858 50.0538 0.0000 0.0000 0.0000
# 2 51.4858 64.4035 36.2187 0.0000 0.0000 0.0000
# 3 50.0538 36.2187 77.3425 0.0000 0.0000 0.0000
# 4 0.0000 0.0000 0.0000 23.1830 0.0000 0.0000
# 5 0.0000 0.0000 0.0000 0.0000 -19.7526 0.0000
# 6 0.0000 0.0000 0.0000 0.0000 0.0000 18.8784
#
#
#
# Elastic Compliance Matrix: (Units=1/GPa)
#
#
# Indices 1 2 3 4 5 6 
#
# 1 0.008715 -0.005152 -0.003227 0.000000 0.000000 0.000000
# 2 -0.005152 0.024124 -0.007963 0.000000 0.000000 0.000000
# 3 -0.003227 -0.007963 0.018747 0.000000 0.000000 0.000000
# 4 0.000000 0.000000 0.000000 0.043135 0.000000 0.000000
# 5 0.000000 0.000000 0.000000 0.000000 -0.050626 0.000000
# 6 0.000000 0.000000 0.000000 0.000000 0.000000 0.052971
#
#
# Mechanical properties :
#
#
# Convention : Reuss Voigt Hill
#
# Bulk Modulus (GPa) = 52.90578 64.55359 58.72969
# Shear Modulus (GPa) = 36.75137 15.64227 26.19682
#
# Velocity S-wave (km/s) = 4.44752 2.90156 3.75496
# Velocity P-wave (km/s) = 7.40602 6.78010 7.09996
#
# Compressibility (1/GPa) = 0.01890153
#
# Stress axis : x y z
#
# Youngs Moduli (GPa) = 114.74684 41.45318 53.34172
#
# Poissons Ratio (x) = 0.21356 0.17216
# Poissons Ratio (y) = 0.59116 0.42474
# Poissons Ratio (z) = 0.37034 0.33008
#
# Static dielectric constant tensor:
#      x y z
#    x 1.702890 0.000000 0.000000 
#    y 0.000000 1.755280 0.000000 
#    z 0.000000 0.000000 1.633480 
# 
# From -- ./inp_files/12688.got.cif
#   From: 2010.05.17/outbox.cif.g08.bks.cpg/sg53_7_cif.got.tgz:12688.got - 2010.06.03 12:45:16.
