data_PCOD9414968
_publ_section_title
;
Structure prediction by ZEFSAII (Michael W. Deem and Ramdas Pophale) SiO2 
 PCOD9414968
Probable space group: P M N A
;
_chemical_formula_sum "Si O2"
_cell_formula_units_Z 64
_cell_length_a 8.413564
_cell_length_b 12.240139
_cell_length_c 31.942363
_cell_angle_alpha 90.000000
_cell_angle_beta 90.000000
_cell_angle_gamma 90.000000
_cell_volume 3289.526529
_symmetry_space_group_name_H-M "P M N A"
_symmetry_group_IT_number 53
_symmetry_cell_setting 'orthorhombic'
loop_
_space_group_symop_operation_xyz
x,y,z
1/2-x,-y,1/2+z
x,-y,-z
1/2-x,y,1/2-z
-x,-y,-z
1/2+x,y,1/2-z
-x,y,z
1/2+x,-y,1/2+z
loop_
_atom_site_type_symbol
_atom_site_label
_atom_site_fract_x
_atom_site_fract_y
_atom_site_fract_z
Si Si1 0.692152 0.262093 0.048565
Si Si2 0.189690 0.502956 0.177432
Si Si3 0.689252 0.735631 0.205222
Si Si4 0.307768 0.499859 0.082326
Si Si5 0.306182 0.731856 0.045286
Si Si6 0.190177 0.119219 0.125676
Si Si7 0.307799 0.872242 0.124806
Si Si8 0.691891 0.736629 0.704744
O O1 0.500000 0.255869 0.049571
O O2 0.736659 0.386639 0.060192
O O3 0.757698 0.182195 0.083865
O O4 0.746224 0.237084 0.001329
O O5 0.261242 0.610059 0.198602
O O6 0.236103 0.503815 0.128624
O O7 0.246783 0.388072 0.196678
O O8 0.000000 0.507573 0.181591
O O9 0.750000 0.775549 0.250000
O O10 0.500000 0.741132 0.205122
O O11 0.749052 0.805851 0.165685
O O12 0.500000 0.502089 0.086144
O O13 0.260225 0.607829 0.056845
O O14 0.500000 0.733882 0.044971
O O15 0.252834 0.811377 0.082513
O O16 0.246519 0.187877 0.166263
O O17 0.000000 0.115983 0.127098
O O18 0.255241 0.996933 0.126176
O O19 0.500000 0.867984 0.124764
O O20 0.750000 0.774455 0.750000
O O21 0.500000 0.736104 0.704393
#
# Coordination Sequence:
#
# PCOD9414968 Si02
#       8
#     8   8   8   8   8   8   8   8
#     4  10  20  35  62  91 116 153 195 237 289 348
#     4  11  21  36  59  88 122 156 190 231 289 352
#     4  11  23  40  62  90 121 154 193 240 292 347
#     4  10  18  33  59  90 120 152 190 236 292 348
#     4   9  18  36  60  89 120 149 191 243 288 340
#     4  11  24  42  59  81 118 154 194 245 295 345
#     4  10  22  41  62  83 113 153 199 244 287 340
#     4  10  23  40  59  84 115 151 188 236 287 340
#
# _framework density 19.455687999999999
#
# number of rings (size 3 to 8) (size 9 to 14) (size 15 to 20)
#    0.000    1.750    2.500    1.875    0.000    6.500 
#    0.000    6.250    0.000    1.500    0.000    0.000 
#    0.000    0.000    0.000    0.000    0.000    0.000 
#
# Total GULP energy -357588.851166 kJ/mol
# GULP energy per Si atom -5587.325799 kJ/mol
# Density = 1.941141 g / cm^3
# Si number density = 19.455688 Si / 1000 Ang^3
#
#
#
# Elastic Constant Matrix: (Units=GPa)
#
#
# Indices 1 2 3 4 5 6 
#
# 1 11.4270 16.7366 20.4969 0.0000 0.0000 0.0000
# 2 16.7366 146.6061 82.1954 0.0000 0.0000 0.0000
# 3 20.4969 82.1954 192.7827 0.0000 0.0000 0.0000
# 4 0.0000 0.0000 0.0000 5.1641 0.0000 0.0000
# 5 0.0000 0.0000 0.0000 0.0000 28.7228 0.0000
# 6 0.0000 0.0000 0.0000 0.0000 0.0000 37.6521
#
#
#
# Elastic Compliance Matrix: (Units=1/GPa)
#
#
# Indices 1 2 3 4 5 6 
#
# 1 0.115282 -0.008264 -0.008733 0.000000 0.000000 0.000000
# 2 -0.008264 0.009556 -0.003196 0.000000 0.000000 0.000000
# 3 -0.008733 -0.003196 0.007478 0.000000 0.000000 0.000000
# 4 0.000000 0.000000 0.000000 0.193643 0.000000 0.000000
# 5 0.000000 0.000000 0.000000 0.000000 0.034815 0.000000
# 6 0.000000 0.000000 0.000000 0.000000 0.000000 0.026559
#
#
# Mechanical properties :
#
#
# Convention : Reuss Voigt Hill
#
# Bulk Modulus (GPa) = 10.87787 65.51928 38.19858
# Shear Modulus (GPa) = 10.90837 29.73360 20.32098
#
# Velocity S-wave (km/s) = 2.37043 3.91355 3.23534
# Velocity P-wave (km/s) = 3.61872 7.36006 5.79938
#
# Compressibility (1/GPa) = 0.09192973
#
# Stress axis : x y z
#
# Youngs Moduli (GPa) = 8.67438 104.64470 133.72090
#
# Poissons Ratio (x) = 0.86481 1.16783
# Poissons Ratio (y) = 0.07169 0.42733
# Poissons Ratio (z) = 0.07576 0.33442
#
# Static dielectric constant tensor:
#      x y z
#    x 1.678000 0.000000 0.000000 
#    y 0.000000 1.654540 0.000000 
#    z 0.000000 0.000000 1.679610 
# 
# From -- ./inp_files/38196.got.cif
#   From: 2010.05.17/outbox.cif.g08.bks.cpg/sg53_20_cif.got.tgz:38196.got - 2010.06.03 12:45:16.
