data_PCOD9414056
_publ_section_title
;
Structure prediction by ZEFSAII (Michael W. Deem and Ramdas Pophale) SiO2 
 PCOD9414056
Probable space group: P M N A
;
_chemical_formula_sum "Si O2"
_cell_formula_units_Z 56
_cell_length_a 14.201874
_cell_length_b 20.640811
_cell_length_c 6.878343
_cell_angle_alpha 90.000000
_cell_angle_beta 90.000000
_cell_angle_gamma 90.000000
_cell_volume 2016.305066
_symmetry_space_group_name_H-M "P M N A"
_symmetry_group_IT_number 53
_symmetry_cell_setting 'orthorhombic'
loop_
_space_group_symop_operation_xyz
x,y,z
1/2-x,-y,1/2+z
x,-y,-z
1/2-x,y,1/2-z
-x,-y,-z
1/2+x,y,1/2-z
-x,y,z
1/2+x,-y,1/2+z
loop_
_atom_site_type_symbol
_atom_site_label
_atom_site_fract_x
_atom_site_fract_y
_atom_site_fract_z
Si Si1 0.884695 0.845384 0.351429
Si Si2 0.611914 0.016800 0.769001
Si Si3 0.855153 0.739194 0.822952
Si Si4 0.113032 0.879641 0.797209
Si Si5 0.685572 0.425911 0.004078
Si Si6 0.890772 0.396357 0.061545
Si Si7 0.104357 0.706792 0.389103
O O1 0.854510 0.909777 0.235748
O O2 0.858736 0.862508 0.574864
O O3 0.850825 0.772985 0.308462
O O4 0.000000 0.843138 0.342276
O O5 0.500000 0.020005 0.728757
O O6 0.649415 0.952280 0.663065
O O7 0.619922 0.000000 0.000000
O O8 0.750000 0.728913 0.750000
O O9 0.865658 0.811882 0.901429
O O10 0.883354 0.681335 0.964812
O O11 0.906569 0.727362 0.618003
O O12 0.000000 0.884846 0.803069
O O13 0.798747 0.429195 0.966139
O O14 0.643103 0.406056 0.215008
O O15 0.651570 0.363419 0.882763
O O16 0.651118 0.500000 0.000000
O O17 0.000000 0.417148 0.030251
O O18 0.000000 0.698440 0.312108
#
# Coordination Sequence:
#
# PCOD9414056 Si02
#       7
#     8   8   8   8   8   8   8
#     4   7  10  16  28  44  67  97 124 152 189 237
#     4   7   9  14  23  40  65  91 118 145 177 220
#     4  10  14  22  34  50  75 107 140 166 200 246
#     4   8  12  16  26  44  66  96 128 153 184 231
#     4  10  19  31  45  65  89 114 147 185 230 270
#     4  10  19  32  46  62  86 119 150 178 220 272
#     4   9  15  24  37  55  78 108 140 169 211 261
#
# _framework density 27.773574
#
# number of rings (size 3 to 8) (size 9 to 14) (size 15 to 20)
#    0.000    3.286    2.857    5.143    0.000    1.429 
#    0.000    0.000    0.000    0.000    0.000    0.000 
#    4.286    0.000    0.000    5.143    0.000    0.000 
#
# Total GULP energy -312629.276288 kJ/mol
# GULP energy per Si atom -5582.665648 kJ/mol
# Density = 2.771036 g / cm^3
# Si number density = 27.773574 Si / 1000 Ang^3
#
#
#
# Elastic Constant Matrix: (Units=GPa)
#
#
# Indices 1 2 3 4 5 6 
#
# 1 160.3298 46.3999 -2.4578 0.0000 0.0000 0.0000
# 2 46.3999 352.9961 56.3750 0.0000 0.0000 0.0000
# 3 -2.4578 56.3750 85.0721 0.0000 0.0000 0.0000
# 4 0.0000 0.0000 0.0000 27.3150 0.0000 0.0000
# 5 0.0000 0.0000 0.0000 0.0000 9.7849 0.0000
# 6 0.0000 0.0000 0.0000 0.0000 0.0000 9.7691
#
#
#
# Elastic Compliance Matrix: (Units=1/GPa)
#
#
# Indices 1 2 3 4 5 6 
#
# 1 0.006538 -0.000995 0.000848 0.000000 0.000000 0.000000
# 2 -0.000995 0.003320 -0.002229 0.000000 0.000000 0.000000
# 3 0.000848 -0.002229 0.013256 0.000000 0.000000 0.000000
# 4 0.000000 0.000000 0.000000 0.036610 0.000000 0.000000
# 5 0.000000 0.000000 0.000000 0.000000 0.102198 0.000000
# 6 0.000000 0.000000 0.000000 0.000000 0.000000 0.102364
#
#
# Mechanical properties :
#
#
# Convention : Reuss Voigt Hill
#
# Bulk Modulus (GPa) = 54.45677 88.78134 71.61906
# Shear Modulus (GPa) = 18.17142 42.57920 30.37531
#
# Velocity S-wave (km/s) = 2.56065 3.91971 3.31067
# Velocity P-wave (km/s) = 5.32846 7.24714 6.36056
#
# Compressibility (1/GPa) = 0.01836319
#
# Stress axis : x y z
#
# Youngs Moduli (GPa) = 152.95061 301.24411 75.43744
#
# Poissons Ratio (x) = 0.29969 -0.06398
# Poissons Ratio (y) = 0.15216 0.16811
# Poissons Ratio (z) = -0.12973 0.67133
#
# Static dielectric constant tensor:
#      x y z
#    x 2.328610 0.000000 0.000000 
#    y 0.000000 2.182380 0.000000 
#    z 0.000000 0.000000 2.271190 
# 
# From -- ./inp_files/23025.got.cif
#   From: 2010.05.17/outbox.cif.g08.bks.cpg/sg53_12_cif.got.tgz:23025.got - 2010.06.03 12:45:16.
