data_PCOD9414559
_publ_section_title
;
Structure prediction by ZEFSAII (Michael W. Deem and Ramdas Pophale) SiO2 
 PCOD9414559
Probable space group: P M N A
;
_chemical_formula_sum "Si O2"
_cell_formula_units_Z 64
_cell_length_a 7.818502
_cell_length_b 15.579054
_cell_length_c 30.759169
_cell_angle_alpha 90.000000
_cell_angle_beta 90.000000
_cell_angle_gamma 90.000000
_cell_volume 3746.616423
_symmetry_space_group_name_H-M "P M N A"
_symmetry_group_IT_number 53
_symmetry_cell_setting 'orthorhombic'
loop_
_space_group_symop_operation_xyz
x,y,z
1/2-x,-y,1/2+z
x,-y,-z
1/2-x,y,1/2-z
-x,-y,-z
1/2+x,y,1/2-z
-x,y,z
1/2+x,-y,1/2+z
loop_
_atom_site_type_symbol
_atom_site_label
_atom_site_fract_x
_atom_site_fract_y
_atom_site_fract_z
Si Si1 0.208190 0.445793 0.562805
Si Si2 0.794497 0.989960 0.201960
Si Si3 0.706006 0.375679 0.032224
Si Si4 0.796109 0.792341 0.202150
Si Si5 0.789984 0.958738 0.891946
Si Si6 0.704625 0.179213 0.460749
Si Si7 0.799565 0.125424 0.944897
Si Si8 0.299549 0.714622 0.112848
O O1 0.256846 0.401771 0.516907
O O2 0.266981 0.544505 0.561850
O O3 0.265053 0.379670 0.599662
O O4 0.000000 0.449718 0.563680
O O5 0.750000 0.023716 0.250000
O O6 0.734078 0.037646 0.158371
O O7 0.000000 0.987058 0.200137
O O8 0.731685 0.890998 0.199158
O O9 0.500000 0.375176 0.032882
O O10 0.762739 0.280298 0.043288
O O11 0.750000 0.760196 0.250000
O O12 0.723983 0.737179 0.162946
O O13 0.000000 0.794580 0.197318
O O14 0.733205 0.877493 0.920332
O O15 0.000000 0.959585 0.891125
O O16 0.731510 0.044635 0.917547
O O17 0.500000 0.168255 0.462221
O O18 0.773787 0.144220 0.507159
O O19 0.784775 0.210861 0.915980
O O20 0.000000 0.106206 0.951163
O O21 0.500000 0.718218 0.101836
#
# Coordination Sequence:
#
# PCOD9414559 Si02
#       8
#     8   8   8   8   8   8   8   8
#     4   8  16  29  47  65  87 123 157 183 225 280
#     4   9  17  30  47  64  87 117 151 187 225 270
#     4   9  16  31  48  63  88 122 156 189 227 273
#     4  10  19  32  48  69  94 123 155 189 232 279
#     4   9  17  31  46  63  90 127 158 184 227 282
#     4  10  19  29  46  68  91 121 160 199 232 267
#     4  10  18  30  44  63  92 128 162 188 220 272
#     4  11  19  29  47  70  93 122 158 194 230 273
#
# _framework density 17.082080000000001
#
# number of rings (size 3 to 8) (size 9 to 14) (size 15 to 20)
#    0.000    2.500    2.500    1.875    0.000    2.000 
#    0.000    3.750    0.000    1.500    0.000    0.875 
#    0.000    4.000    0.000    0.000    0.000    0.000 
#
# Total GULP energy -356733.557700 kJ/mol
# GULP energy per Si atom -5573.961839 kJ/mol
# Density = 1.704320 g / cm^3
# Si number density = 17.082080 Si / 1000 Ang^3
#
#
#
# Elastic Constant Matrix: (Units=GPa)
#
#
# Indices 1 2 3 4 5 6 
#
# 1 17.6217 1.4166 -0.9008 0.0000 0.0000 0.0000
# 2 1.4166 106.9534 82.2244 0.0000 0.0000 0.0000
# 3 -0.9008 82.2244 145.2037 0.0000 0.0000 0.0000
# 4 0.0000 0.0000 0.0000 24.0604 0.0000 0.0000
# 5 0.0000 0.0000 0.0000 0.0000 19.3293 0.0000
# 6 0.0000 0.0000 0.0000 0.0000 0.0000 16.5356
#
#
#
# Elastic Compliance Matrix: (Units=1/GPa)
#
#
# Indices 1 2 3 4 5 6 
#
# 1 0.056965 -0.001817 0.001383 0.000000 0.000000 0.000000
# 2 -0.001817 0.016616 -0.009421 0.000000 0.000000 0.000000
# 3 0.001383 -0.009421 0.012230 0.000000 0.000000 0.000000
# 4 0.000000 0.000000 0.000000 0.041562 0.000000 0.000000
# 5 0.000000 0.000000 0.000000 0.000000 0.051735 0.000000
# 6 0.000000 0.000000 0.000000 0.000000 0.000000 0.060476
#
#
# Mechanical properties :
#
#
# Convention : Reuss Voigt Hill
#
# Bulk Modulus (GPa) = 15.12845 48.36212 31.74529
# Shear Modulus (GPa) = 17.77281 24.45430 21.11355
#
# Velocity S-wave (km/s) = 3.22908 3.78772 3.51950
# Velocity P-wave (km/s) = 4.77265 6.89218 5.92791
#
# Compressibility (1/GPa) = 0.06610061
#
# Stress axis : x y z
#
# Youngs Moduli (GPa) = 17.55461 60.18157 81.76578
#
# Poissons Ratio (x) = 0.10937 -0.11304
# Poissons Ratio (y) = 0.03190 0.77028
# Poissons Ratio (z) = -0.02427 0.56695
#
# Static dielectric constant tensor:
#      x y z
#    x 1.638580 0.000000 0.000000 
#    y 0.000000 1.576650 0.000000 
#    z 0.000000 0.000000 1.583350 
# 
# From -- ./inp_files/38412.got.cif
#   From: 2010.05.17/outbox.cif.g08.bks.cpg/sg53_20_cif.got.tgz:38412.got - 2010.06.03 12:45:16.
