data_PCOD9414495
_publ_section_title
;
Structure prediction by ZEFSAII (Michael W. Deem and Ramdas Pophale) SiO2 
 PCOD9414495
Probable space group: P M N A
;
_chemical_formula_sum "Si O2"
_cell_formula_units_Z 56
_cell_length_a 24.780680
_cell_length_b 12.585879
_cell_length_c 10.042626
_cell_angle_alpha 90.000000
_cell_angle_beta 90.000000
_cell_angle_gamma 90.000000
_cell_volume 3132.160880
_symmetry_space_group_name_H-M "P M N A"
_symmetry_group_IT_number 53
_symmetry_cell_setting 'orthorhombic'
loop_
_space_group_symop_operation_xyz
x,y,z
1/2-x,-y,1/2+z
x,-y,-z
1/2-x,y,1/2-z
-x,-y,-z
1/2+x,y,1/2-z
-x,y,z
1/2+x,-y,1/2+z
loop_
_atom_site_type_symbol
_atom_site_label
_atom_site_fract_x
_atom_site_fract_y
_atom_site_fract_z
Si Si1 0.642306 0.740818 0.337293
Si Si2 0.436220 0.375751 0.469285
Si Si3 0.230659 0.309632 0.057045
Si Si4 0.697666 0.574350 0.151977
Si Si5 0.179339 0.843597 0.594707
Si Si6 0.856615 0.362993 0.273101
Si Si7 0.686810 0.932586 0.204591
O O1 0.589937 0.695001 0.412294
O O2 0.688852 0.719374 0.443943
O O3 0.662341 0.671828 0.211033
O O4 0.647726 0.863786 0.298493
O O5 0.425379 0.500000 0.500000
O O6 0.500000 0.358751 0.461153
O O7 0.406581 0.357706 0.328243
O O8 0.273730 0.387344 0.985410
O O9 0.260963 0.204790 0.102059
O O10 0.195835 0.354763 0.176760
O O11 0.750000 0.558968 0.250000
O O12 0.655382 0.476289 0.158423
O O13 0.143200 0.741715 0.634372
O O14 0.176737 0.885829 0.443697
O O15 0.173321 0.943056 0.692850
O O16 0.750000 0.918478 0.250000
#
# Coordination Sequence:
#
# PCOD9414495 Si02
#       7
#     8   8   8   8   8   8   8
#     4  10  18  34  55  78 110 149 186 230 277 326
#     4  10  21  39  63  84 108 142 187 245 301 338
#     4  10  19  33  47  79 115 155 184 212 268 332
#     4  10  18  29  46  75 117 150 174 216 267 335
#     4  11  22  33  53  80 115 161 192 220 271 324
#     4  11  22  34  50  84 115 147 187 232 279 338
#     4  11  20  37  53  77 120 158 194 223 260 334
#
# _framework density 17.879028999999999
#
# number of rings (size 3 to 8) (size 9 to 14) (size 15 to 20)
#    0.000    1.571    4.286    2.571    0.000    2.857 
#    0.000    0.000    0.000    2.571    0.000    5.000 
#    0.000    0.000    0.000    0.000    0.000    0.000 
#
# Total GULP energy -312090.770775 kJ/mol
# GULP energy per Si atom -5573.049478 kJ/mol
# Density = 1.783834 g / cm^3
# Si number density = 17.879029 Si / 1000 Ang^3
#
#
#
# Elastic Constant Matrix: (Units=GPa)
#
#
# Indices 1 2 3 4 5 6 
#
# 1 59.3863 26.6321 9.7751 0.0000 0.0000 0.0000
# 2 26.6321 121.0269 19.0695 0.0000 0.0000 0.0000
# 3 9.7751 19.0695 40.4345 0.0000 0.0000 0.0000
# 4 0.0000 0.0000 0.0000 30.1216 0.0000 0.0000
# 5 0.0000 0.0000 0.0000 0.0000 17.5379 0.0000
# 6 0.0000 0.0000 0.0000 0.0000 0.0000 15.4418
#
#
#
# Elastic Compliance Matrix: (Units=1/GPa)
#
#
# Indices 1 2 3 4 5 6 
#
# 1 0.018977 -0.003730 -0.002829 0.000000 0.000000 0.000000
# 2 -0.003730 0.009659 -0.003654 0.000000 0.000000 0.000000
# 3 -0.002829 -0.003654 0.027138 0.000000 0.000000 0.000000
# 4 0.000000 0.000000 0.000000 0.033199 0.000000 0.000000
# 5 0.000000 0.000000 0.000000 0.000000 0.057019 0.000000
# 6 0.000000 0.000000 0.000000 0.000000 0.000000 0.064759
#
#
# Mechanical properties :
#
#
# Convention : Reuss Voigt Hill
#
# Bulk Modulus (GPa) = 28.28863 36.86678 32.57771
# Shear Modulus (GPa) = 20.57948 23.64499 22.11224
#
# Velocity S-wave (km/s) = 3.39638 3.64056 3.52059
# Velocity P-wave (km/s) = 5.58902 6.19165 5.89803
#
# Compressibility (1/GPa) = 0.03534989
#
# Stress axis : x y z
#
# Youngs Moduli (GPa) = 52.69434 103.52871 36.84837
#
# Poissons Ratio (x) = 0.38619 0.10423
# Poissons Ratio (y) = 0.19657 0.13463
# Poissons Ratio (z) = 0.14905 0.37825
#
# Static dielectric constant tensor:
#      x y z
#    x 1.574960 0.000000 0.000000 
#    y 0.000000 1.678070 0.000000 
#    z 0.000000 0.000000 1.703640 
# 
# From -- ./inp_files/18432.got.cif
#   From: 2010.05.17/outbox.cif.g08.bks.cpg/sg53_10_cif.got.tgz:18432.got - 2010.06.03 12:45:16.
