data_PCOD9414929
_publ_section_title
;
Structure prediction by ZEFSAII (Michael W. Deem and Ramdas Pophale) SiO2 
 PCOD9414929
Probable space group: P M N A
;
_chemical_formula_sum "Si O2"
_cell_formula_units_Z 64
_cell_length_a 8.571857
_cell_length_b 21.125426
_cell_length_c 19.909082
_cell_angle_alpha 90.000000
_cell_angle_beta 90.000000
_cell_angle_gamma 90.000000
_cell_volume 3605.218808
_symmetry_space_group_name_H-M "P M N A"
_symmetry_group_IT_number 53
_symmetry_cell_setting 'orthorhombic'
loop_
_space_group_symop_operation_xyz
x,y,z
1/2-x,-y,1/2+z
x,-y,-z
1/2-x,y,1/2-z
-x,-y,-z
1/2+x,y,1/2-z
-x,y,z
1/2+x,-y,1/2+z
loop_
_atom_site_type_symbol
_atom_site_label
_atom_site_fract_x
_atom_site_fract_y
_atom_site_fract_z
Si Si1 0.813213 0.437516 0.458592
Si Si2 0.186999 0.488676 0.177262
Si Si3 0.185420 0.992854 0.321858
Si Si4 0.190192 0.813564 0.964083
Si Si5 0.312715 0.864665 0.677459
Si Si6 0.688778 0.315049 0.535081
Si Si7 0.812253 0.363599 0.822487
Si Si8 0.688319 0.061072 0.544677
O O1 0.762970 0.500000 0.500000
O O2 0.755283 0.447638 0.382944
O O3 0.743645 0.375703 0.493312
O O4 0.000000 0.434170 0.460209
O O5 0.250000 0.469128 0.250000
O O6 0.234867 0.562618 0.167485
O O7 0.000000 0.485986 0.176267
O O8 0.250000 0.970925 0.250000
O O9 0.255644 0.063184 0.333440
O O10 0.000000 0.998044 0.318914
O O11 0.238572 0.948507 0.382468
O O12 0.238649 0.823548 0.886695
O O13 0.000000 0.812899 0.963802
O O14 0.243483 0.749295 0.999551
O O15 0.237213 0.875187 0.006750
O O16 0.250000 0.843592 0.750000
O O17 0.500000 0.865570 0.679680
O O18 0.500000 0.314419 0.535521
O O19 0.740307 0.324265 0.612478
O O20 0.750000 0.342658 0.750000
O O21 0.000000 0.362205 0.820099
O O22 0.500000 0.061466 0.550846
O O23 0.731074 0.000000 0.500000
#
# Coordination Sequence:
#
# PCOD9414929 Si02
#       8
#     8   8   8   8   8   8   8   8
#     4  11  22  35  54  81 111 143 181 226 272 321
#     4  10  19  33  54  82 110 141 178 225 275 325
#     4  11  21  33  52  81 111 143 182 229 277 325
#     4   9  19  35  57  80 108 145 185 222 272 332
#     4  10  18  33  54  80 107 141 181 224 274 326
#     4  10  20  37  57  80 108 146 188 225 269 331
#     4   9  18  31  52  78 105 136 176 220 268 322
#     4  10  18  34  57  80 108 143 180 222 272 328
#
# _framework density 17.752043
#
# number of rings (size 3 to 8) (size 9 to 14) (size 15 to 20)
#    0.000    2.000    2.500    3.000    0.000    1.750 
#    0.000    3.125    0.000    3.000    0.000    0.000 
#    0.000    0.000    0.000    0.000    0.000    0.000 
#
# Total GULP energy -357214.652126 kJ/mol
# GULP energy per Si atom -5581.478939 kJ/mol
# Density = 1.771164 g / cm^3
# Si number density = 17.752043 Si / 1000 Ang^3
#
#
#
# Elastic Constant Matrix: (Units=GPa)
#
#
# Indices 1 2 3 4 5 6 
#
# 1 30.9649 22.9307 31.9354 0.0000 0.0000 0.0000
# 2 22.9307 113.8803 87.3828 0.0000 0.0000 0.0000
# 3 31.9354 87.3828 196.4867 0.0000 0.0000 0.0000
# 4 0.0000 0.0000 0.0000 25.8792 0.0000 0.0000
# 5 0.0000 0.0000 0.0000 0.0000 30.8613 0.0000
# 6 0.0000 0.0000 0.0000 0.0000 0.0000 15.1528
#
#
#
# Elastic Compliance Matrix: (Units=1/GPa)
#
#
# Indices 1 2 3 4 5 6 
#
# 1 0.040390 -0.004699 -0.004475 0.000000 0.000000 0.000000
# 2 -0.004699 0.013877 -0.005408 0.000000 0.000000 0.000000
# 3 -0.004475 -0.005408 0.008222 0.000000 0.000000 0.000000
# 4 0.000000 0.000000 0.000000 0.038641 0.000000 0.000000
# 5 0.000000 0.000000 0.000000 0.000000 0.032403 0.000000
# 6 0.000000 0.000000 0.000000 0.000000 0.000000 0.065994
#
#
# Mechanical properties :
#
#
# Convention : Reuss Voigt Hill
#
# Bulk Modulus (GPa) = 30.00763 69.53664 49.77214
# Shear Modulus (GPa) = 20.85091 27.65085 24.25088
#
# Velocity S-wave (km/s) = 3.43091 3.95094 3.70007
# Velocity P-wave (km/s) = 5.71273 7.75044 6.80826
#
# Compressibility (1/GPa) = 0.03332485
#
# Stress axis : x y z
#
# Youngs Moduli (GPa) = 24.75886 72.06315 121.63097
#
# Poissons Ratio (x) = 0.33864 0.54427
# Poissons Ratio (y) = 0.11635 0.65773
# Poissons Ratio (z) = 0.11079 0.38969
#
# Static dielectric constant tensor:
#      x y z
#    x 1.601260 0.000000 0.000000 
#    y 0.000000 1.583630 0.000000 
#    z 0.000000 0.000000 1.612770 
# 
# From -- ./inp_files/31398.got.cif
#   From: 2010.05.17/outbox.cif.g08.bks.cpg/sg53_16_cif.got.tgz:31398.got - 2010.06.03 12:45:16.
