data_PCOD9414664
_publ_section_title
;
Structure prediction by ZEFSAII (Michael W. Deem and Ramdas Pophale) SiO2 
 PCOD9414664
Probable space group: P M N A
;
_chemical_formula_sum "Si O2"
_cell_formula_units_Z 48
_cell_length_a 14.045567
_cell_length_b 15.160774
_cell_length_c 10.403945
_cell_angle_alpha 90.000000
_cell_angle_beta 90.000000
_cell_angle_gamma 90.000000
_cell_volume 2215.433392
_symmetry_space_group_name_H-M "P M N A"
_symmetry_group_IT_number 53
_symmetry_cell_setting 'orthorhombic'
loop_
_space_group_symop_operation_xyz
x,y,z
1/2-x,-y,1/2+z
x,-y,-z
1/2-x,y,1/2-z
-x,-y,-z
1/2+x,y,1/2-z
-x,y,z
1/2+x,-y,1/2+z
loop_
_atom_site_type_symbol
_atom_site_label
_atom_site_fract_x
_atom_site_fract_y
_atom_site_fract_z
Si Si1 0.820453 0.957130 0.869982
Si Si2 0.191931 0.218784 0.023814
Si Si3 0.603007 0.799960 0.019480
Si Si4 0.180388 0.409897 0.938209
Si Si5 0.893792 0.608527 0.347280
Si Si6 0.103251 0.866323 0.209259
O O1 0.750000 0.954002 0.750000
O O2 0.894249 0.033541 0.836632
O O3 0.860474 0.859872 0.901270
O O4 0.774377 0.000000 0.000000
O O5 0.302008 0.203057 0.063000
O O6 0.169969 0.322299 0.026684
O O7 0.177684 0.189996 0.874116
O O8 0.500000 0.814209 0.956890
O O9 0.601101 0.706296 0.093502
O O10 0.615922 0.866254 0.138251
O O11 0.126501 0.391697 0.804651
O O12 0.293398 0.424842 0.906574
O O13 0.144084 0.500000 0.000000
O O14 0.000000 0.568404 0.371013
O O15 0.000000 0.825670 0.182293
#
# Coordination Sequence:
#
# PCOD9414664 Si02
#       6
#     8   8   8   8   8   8
#     4  10  21  36  55  79 110 153 189 229 285 344
#     4  10  19  33  52  77 112 140 179 233 285 334
#     4   9  16  30  56  82 103 135 180 233 285 332
#     4  10  20  34  54  84 110 146 191 236 291 355
#     4   9  18  34  55  80 110 141 187 243 288 339
#     4  10  18  30  54  82 107 139 181 225 277 338
#
# _framework density 21.666191000000001
#
# number of rings (size 3 to 8) (size 9 to 14) (size 15 to 20)
#    0.000    2.333    1.667    2.500    0.000    3.667 
#    3.000    0.833    0.000    7.000    0.000    0.000 
#    0.000    0.000    0.000    0.000    0.000    0.000 
#
# Total GULP energy -267218.399519 kJ/mol
# GULP energy per Si atom -5567.049990 kJ/mol
# Density = 2.161688 g / cm^3
# Si number density = 21.666191 Si / 1000 Ang^3
#
#
#
# Elastic Constant Matrix: (Units=GPa)
#
#
# Indices 1 2 3 4 5 6 
#
# 1 66.7367 0.6571 -11.4824 0.0000 0.0000 0.0000
# 2 0.6571 114.0183 15.6769 0.0000 0.0000 0.0000
# 3 -11.4824 15.6769 32.3620 0.0000 0.0000 0.0000
# 4 0.0000 0.0000 0.0000 20.5222 0.0000 0.0000
# 5 0.0000 0.0000 0.0000 0.0000 1.1198 0.0000
# 6 0.0000 0.0000 0.0000 0.0000 0.0000 16.7376
#
#
#
# Elastic Compliance Matrix: (Units=1/GPa)
#
#
# Indices 1 2 3 4 5 6 
#
# 1 0.016052 -0.000938 0.006150 0.000000 0.000000 0.000000
# 2 -0.000938 0.009451 -0.004911 0.000000 0.000000 0.000000
# 3 0.006150 -0.004911 0.035462 0.000000 0.000000 0.000000
# 4 0.000000 0.000000 0.000000 0.048728 0.000000 0.000000
# 5 0.000000 0.000000 0.000000 0.000000 0.892979 0.000000
# 6 0.000000 0.000000 0.000000 0.000000 0.000000 0.059746
#
#
# Mechanical properties :
#
#
# Convention : Reuss Voigt Hill
#
# Bulk Modulus (GPa) = 16.24295 24.75781 20.50038
# Shear Modulus (GPa) = 4.61963 21.56027 13.08995
#
# Velocity S-wave (km/s) = 1.46178 3.15796 2.46064
# Velocity P-wave (km/s) = 3.21905 4.97481 4.18993
#
# Compressibility (1/GPa) = 0.06156519
#
# Stress axis : x y z
#
# Youngs Moduli (GPa) = 62.29914 105.80665 28.19954
#
# Poissons Ratio (x) = 0.09925 -0.17342
# Poissons Ratio (y) = 0.05844 0.13849
# Poissons Ratio (z) = -0.38312 0.51964
#
# Static dielectric constant tensor:
#      x y z
#    x 1.859750 0.000000 0.000000 
#    y 0.000000 1.795640 0.000000 
#    z 0.000000 0.000000 1.811290 
# 
# From -- ./inp_files/15910.got.cif
#   From: 2010.05.17/outbox.cif.g08.bks.cpg/sg53_8_cif.got.tgz:15910.got - 2010.06.03 12:45:16.
