data_PCOD9414486
_publ_section_title
;
Structure prediction by ZEFSAII (Michael W. Deem and Ramdas Pophale) SiO2 
 PCOD9414486
Probable space group: P M N A
;
_chemical_formula_sum "Si O2"
_cell_formula_units_Z 64
_cell_length_a 8.094872
_cell_length_b 15.435752
_cell_length_c 30.884025
_cell_angle_alpha 90.000000
_cell_angle_beta 90.000000
_cell_angle_gamma 90.000000
_cell_volume 3858.972410
_symmetry_space_group_name_H-M "P M N A"
_symmetry_group_IT_number 53
_symmetry_cell_setting 'orthorhombic'
loop_
_space_group_symop_operation_xyz
x,y,z
1/2-x,-y,1/2+z
x,-y,-z
1/2-x,y,1/2-z
-x,-y,-z
1/2+x,y,1/2-z
-x,y,z
1/2+x,-y,1/2+z
loop_
_atom_site_type_symbol
_atom_site_label
_atom_site_fract_x
_atom_site_fract_y
_atom_site_fract_z
Si Si1 0.801431 0.448995 0.063160
Si Si2 0.697255 0.176292 0.539292
Si Si3 0.198856 0.793154 0.703227
Si Si4 0.698896 0.037319 0.891537
Si Si5 0.199037 0.993479 0.702783
Si Si6 0.298268 0.371957 0.529598
Si Si7 0.801304 0.708150 0.615432
Si Si8 0.699589 0.866784 0.943667
O O1 0.745729 0.548846 0.060627
O O2 0.746393 0.388119 0.101916
O O3 0.000000 0.450148 0.062361
O O4 0.747136 0.401583 0.018630
O O5 0.500000 0.179207 0.540089
O O6 0.755442 0.119214 0.579479
O O7 0.760675 0.275549 0.539995
O O8 0.749043 0.133883 0.493610
O O9 0.250000 0.758820 0.750000
O O10 0.259185 0.738704 0.662346
O O11 0.000000 0.795552 0.701324
O O12 0.256653 0.893076 0.700018
O O13 0.500000 0.031470 0.890178
O O14 0.757089 0.038552 0.841604
O O15 0.757600 0.950371 0.916523
O O16 0.250000 0.027999 0.750000
O O17 0.000000 0.993023 0.702237
O O18 0.500000 0.370028 0.529829
O O19 0.741803 0.778840 0.580048
O O20 0.000000 0.713345 0.615533
O O21 0.500000 0.867319 0.942430
#
# Coordination Sequence:
#
# PCOD9414486 Si02
#       8
#     8   8   8   8   8   8   8   8
#     4   9  16  30  49  65  86 120 154 182 225 278
#     4  11  21  32  46  67  93 121 159 203 232 256
#     4   9  17  30  46  66  92 121 151 186 226 270
#     4  10  20  34  48  64  91 130 161 182 224 283
#     4   9  17  31  49  67  89 118 153 189 227 271
#     4   8  16  30  46  64  89 119 150 188 231 271
#     4  10  18  29  46  69  95 121 152 190 227 265
#     4  10  19  32  46  62  92 132 162 181 218 274
#
# _framework density 16.584724999999999
#
# number of rings (size 3 to 8) (size 9 to 14) (size 15 to 20)
#    0.000    2.500    2.500    1.500    0.000    3.000 
#    0.000    2.500    0.000    0.000    0.000    0.875 
#    0.000    0.000    0.000    0.000    0.000    0.000 
#
# Total GULP energy -356735.423702 kJ/mol
# GULP energy per Si atom -5573.990995 kJ/mol
# Density = 1.654698 g / cm^3
# Si number density = 16.584725 Si / 1000 Ang^3
#
#
#
# Elastic Constant Matrix: (Units=GPa)
#
#
# Indices 1 2 3 4 5 6 
#
# 1 8.7115 8.8741 12.1124 0.0000 0.0000 0.0000
# 2 8.8741 88.3130 62.0394 0.0000 0.0000 0.0000
# 3 12.1124 62.0394 150.2829 0.0000 0.0000 0.0000
# 4 0.0000 0.0000 0.0000 23.6960 0.0000 0.0000
# 5 0.0000 0.0000 0.0000 0.0000 21.5611 0.0000
# 6 0.0000 0.0000 0.0000 0.0000 0.0000 20.0912
#
#
#
# Elastic Compliance Matrix: (Units=1/GPa)
#
#
# Indices 1 2 3 4 5 6 
#
# 1 0.133406 -0.008242 -0.007350 0.000000 0.000000 0.000000
# 2 -0.008242 0.016458 -0.006130 0.000000 0.000000 0.000000
# 3 -0.007350 -0.006130 0.009777 0.000000 0.000000 0.000000
# 4 0.000000 0.000000 0.000000 0.042201 0.000000 0.000000
# 5 0.000000 0.000000 0.000000 0.000000 0.046380 0.000000
# 6 0.000000 0.000000 0.000000 0.000000 0.000000 0.049773
#
#
# Mechanical properties :
#
#
# Convention : Reuss Voigt Hill
#
# Bulk Modulus (GPa) = 8.60602 45.92882 27.26742
# Shear Modulus (GPa) = 13.15198 24.02173 18.58685
#
# Velocity S-wave (km/s) = 2.81911 3.80995 3.35135
# Velocity P-wave (km/s) = 3.97453 6.86351 5.60824
#
# Compressibility (1/GPa) = 0.11619768
#
# Stress axis : x y z
#
# Youngs Moduli (GPa) = 7.49590 60.76189 102.28153
#
# Poissons Ratio (x) = 0.50081 0.75174
# Poissons Ratio (y) = 0.06178 0.62696
# Poissons Ratio (z) = 0.05509 0.37245
#
# Static dielectric constant tensor:
#      x y z
#    x 1.592810 0.000000 0.000000 
#    y 0.000000 1.563430 0.000000 
#    z 0.000000 0.000000 1.560780 
# 
# From -- ./inp_files/38397.got.cif
#   From: 2010.05.17/outbox.cif.g08.bks.cpg/sg53_20_cif.got.tgz:38397.got - 2010.06.03 12:45:16.
