data_PCOD9414096
_publ_section_title
;
Structure prediction by ZEFSAII (Michael W. Deem and Ramdas Pophale) SiO2 
 PCOD9414096
Probable space group: P M N A
;
_chemical_formula_sum "Si O2"
_cell_formula_units_Z 24
_cell_length_a 27.088709
_cell_length_b 7.042612
_cell_length_c 5.151959
_cell_angle_alpha 90.000000
_cell_angle_beta 90.000000
_cell_angle_gamma 90.000000
_cell_volume 982.866354
_symmetry_space_group_name_H-M "P M N A"
_symmetry_group_IT_number 53
_symmetry_cell_setting 'orthorhombic'
loop_
_space_group_symop_operation_xyz
x,y,z
1/2-x,-y,1/2+z
x,-y,-z
1/2-x,y,1/2-z
-x,-y,-z
1/2+x,y,1/2-z
-x,y,z
1/2+x,-y,1/2+z
loop_
_atom_site_type_symbol
_atom_site_label
_atom_site_fract_x
_atom_site_fract_y
_atom_site_fract_z
Si Si1 0.647534 0.228334 0.445014
Si Si2 0.398791 0.220993 0.941093
Si Si3 0.750000 0.866725 0.750000
Si Si4 0.000000 0.633877 0.251415
O O1 0.640000 0.303768 0.734544
O O2 0.701605 0.250444 0.325793
O O3 0.642344 0.000000 0.500000
O O4 0.607779 0.299372 0.232537
O O5 0.450769 0.243181 0.794822
O O6 0.390055 0.000000 0.000000
O O7 0.761380 0.000000 0.500000
O O8 0.000000 0.500000 0.500000
O O9 0.000000 0.500000 0.000000
#
# Coordination Sequence:
#
# PCOD9414096 Si02
#       4
#     8   8   4   4
#     4   9  17  29  50  80 112 142 174 216 269 322
#     4  10  20  36  56  80 109 143 182 224 271 328
#     4  10  16  26  46  80 118 144 168 214 270 320
#     4  12  25  40  57  80 106 142 186 234 285 330
#
# _framework density 24.418375000000001
#
# number of rings (size 3 to 8) (size 9 to 14) (size 15 to 20)
#    0.000    2.000    0.000    7.500    0.000    0.000 
#    0.000    6.667    0.000    0.000    0.000   23.333 
#    0.000    0.000    0.000    0.000    0.000    0.000 
#
# Total GULP energy -133970.387740 kJ/mol
# GULP energy per Si atom -5582.099489 kJ/mol
# Density = 2.436280 g / cm^3
# Si number density = 24.418375 Si / 1000 Ang^3
#
#
#
# Elastic Constant Matrix: (Units=GPa)
#
#
# Indices 1 2 3 4 5 6 
#
# 1 139.9336 -9.9909 73.7751 0.0000 0.0000 0.0000
# 2 -9.9909 59.7921 28.9666 0.0000 0.0000 0.0000
# 3 73.7751 28.9666 217.7519 0.0000 0.0000 0.0000
# 4 0.0000 0.0000 0.0000 8.2573 0.0000 0.0000
# 5 0.0000 0.0000 0.0000 0.0000 40.9610 0.0000
# 6 0.0000 0.0000 0.0000 0.0000 0.0000 9.4921
#
#
#
# Elastic Compliance Matrix: (Units=1/GPa)
#
#
# Indices 1 2 3 4 5 6 
#
# 1 0.009266 0.003280 -0.003576 0.000000 0.000000 0.000000
# 2 0.003280 0.019038 -0.003644 0.000000 0.000000 0.000000
# 3 -0.003576 -0.003644 0.006289 0.000000 0.000000 0.000000
# 4 0.000000 0.000000 0.000000 0.121106 0.000000 0.000000
# 5 0.000000 0.000000 0.000000 0.000000 0.024413 0.000000
# 6 0.000000 0.000000 0.000000 0.000000 0.000000 0.105351
#
#
# Mechanical properties :
#
#
# Convention : Reuss Voigt Hill
#
# Bulk Modulus (GPa) = 37.43360 66.99767 52.21563
# Shear Modulus (GPa) = 16.54286 33.39053 24.96669
#
# Velocity S-wave (km/s) = 2.60566 3.70190 3.20105
# Velocity P-wave (km/s) = 4.94125 6.76528 5.92389
#
# Compressibility (1/GPa) = 0.02671397
#
# Stress axis : x y z
#
# Youngs Moduli (GPa) = 107.92649 52.52621 159.01930
#
# Poissons Ratio (x) = -0.17231 0.56859
# Poissons Ratio (y) = -0.35405 0.57946
# Poissons Ratio (z) = 0.38590 0.19140
#
# Static dielectric constant tensor:
#      x y z
#    x 2.965820 0.000000 0.000000 
#    y 0.000000 1.882350 0.000000 
#    z 0.000000 0.000000 1.940230 
# 
# From -- ./inp_files/4098.got.cif
#   From: 2010.05.17/outbox.cif.g08.bks.cpg/sg53_3_cif.got.tgz:4098.got - 2010.06.03 12:45:16.
