data_PCOD9414254
_publ_section_title
;
Structure prediction by ZEFSAII (Michael W. Deem and Ramdas Pophale) SiO2 
 PCOD9414254
Probable space group: P M N A
;
_chemical_formula_sum "Si O2"
_cell_formula_units_Z 48
_cell_length_a 8.830752
_cell_length_b 15.513787
_cell_length_c 22.043500
_cell_angle_alpha 90.000000
_cell_angle_beta 90.000000
_cell_angle_gamma 90.000000
_cell_volume 3019.924353
_symmetry_space_group_name_H-M "P M N A"
_symmetry_group_IT_number 53
_symmetry_cell_setting 'orthorhombic'
loop_
_space_group_symop_operation_xyz
x,y,z
1/2-x,-y,1/2+z
x,-y,-z
1/2-x,y,1/2-z
-x,-y,-z
1/2+x,y,1/2-z
-x,y,z
1/2+x,-y,1/2+z
loop_
_atom_site_type_symbol
_atom_site_label
_atom_site_fract_x
_atom_site_fract_y
_atom_site_fract_z
Si Si1 0.317592 0.446534 0.583972
Si Si2 0.325114 0.973403 0.928724
Si Si3 0.317676 0.305999 0.683415
Si Si4 0.181813 0.149048 0.901538
Si Si5 0.319101 0.382334 0.043238
Si Si6 0.319838 0.200997 0.459331
O O1 0.500000 0.449676 0.578061
O O2 0.277654 0.387727 0.641395
O O3 0.249428 0.542311 0.585173
O O4 0.249875 0.402581 0.523422
O O5 0.500000 0.959936 0.912787
O O6 0.233267 0.884667 0.924380
O O7 0.256296 0.055552 0.894486
O O8 0.318066 0.000000 0.000000
O O9 0.250000 0.310778 0.750000
O O10 0.500000 0.303625 0.687063
O O11 0.269044 0.219693 0.647466
O O12 0.000000 0.139838 0.898882
O O13 0.216828 0.184532 0.969238
O O14 0.500000 0.388428 0.041115
O O15 0.265081 0.287159 0.060828
O O16 0.500000 0.212349 0.454613
#
# Coordination Sequence:
#
# PCOD9414254 Si02
#       6
#     8   8   8   8   8   8
#     4  10  19  34  49  66  94 130 165 198 242 300
#     4   9  17  27  41  67  96 122 154 193 235 275
#     4  10  21  35  51  71  95 128 169 206 242 286
#     4   9  17  31  46  64  92 128 164 194 232 287
#     4  11  20  29  46  73  99 125 159 203 249 291
#     4  10  17  29  47  67  95 131 161 189 234 293
#
# _framework density 15.894439
#
# number of rings (size 3 to 8) (size 9 to 14) (size 15 to 20)
#    0.000    2.167    1.667    4.000    0.000    4.667 
#    0.000    0.000    0.000    0.000    0.000    1.167 
#    0.000    0.000    0.000    0.000    0.000    0.000 
#
# Total GULP energy -267697.114297 kJ/mol
# GULP energy per Si atom -5577.023215 kJ/mol
# Density = 1.585826 g / cm^3
# Si number density = 15.894439 Si / 1000 Ang^3
#
#
#
# Elastic Constant Matrix: (Units=GPa)
#
#
# Indices 1 2 3 4 5 6 
#
# 1 70.8591 60.8366 29.5450 0.0000 0.0000 0.0000
# 2 60.8366 158.6359 56.1516 0.0000 0.0000 0.0000
# 3 29.5450 56.1516 70.3776 0.0000 0.0000 0.0000
# 4 0.0000 0.0000 0.0000 15.4947 0.0000 0.0000
# 5 0.0000 0.0000 0.0000 0.0000 19.4238 0.0000
# 6 0.0000 0.0000 0.0000 0.0000 0.0000 23.0910
#
#
#
# Elastic Compliance Matrix: (Units=1/GPa)
#
#
# Indices 1 2 3 4 5 6 
#
# 1 0.021618 -0.007077 -0.003429 0.000000 0.000000 0.000000
# 2 -0.007077 0.011101 -0.005886 0.000000 0.000000 0.000000
# 3 -0.003429 -0.005886 0.020345 0.000000 0.000000 0.000000
# 4 0.000000 0.000000 0.000000 0.064538 0.000000 0.000000
# 5 0.000000 0.000000 0.000000 0.000000 0.051483 0.000000
# 6 0.000000 0.000000 0.000000 0.000000 0.000000 0.043307
#
#
# Mechanical properties :
#
#
# Convention : Reuss Voigt Hill
#
# Bulk Modulus (GPa) = 49.30988 65.88213 57.59601
# Shear Modulus (GPa) = 19.84619 21.82451 20.83535
#
# Velocity S-wave (km/s) = 3.53742 3.70954 3.62450
# Velocity P-wave (km/s) = 6.91196 7.73870 7.33698
#
# Compressibility (1/GPa) = 0.02027991
#
# Stress axis : x y z
#
# Youngs Moduli (GPa) = 46.25766 90.08027 49.15160
#
# Poissons Ratio (x) = 0.63747 0.16855
# Poissons Ratio (y) = 0.32735 0.28933
# Poissons Ratio (z) = 0.15863 0.53025
#
# Static dielectric constant tensor:
#      x y z
#    x 1.531130 0.000000 0.000000 
#    y 0.000000 1.549340 0.000000 
#    z 0.000000 0.000000 1.496810 
# 
# From -- ./inp_files/30501.got.cif
#   From: 2010.05.17/outbox.cif.g08.bks.cpg/sg53_16_cif.got.tgz:30501.got - 2010.06.03 12:45:16.
