data_PCOD9414401
_publ_section_title
;
Structure prediction by ZEFSAII (Michael W. Deem and Ramdas Pophale) SiO2 
 PCOD9414401
Probable space group: P M N A
;
_chemical_formula_sum "Si O2"
_cell_formula_units_Z 64
_cell_length_a 9.121481
_cell_length_b 17.406451
_cell_length_c 27.163028
_cell_angle_alpha 90.000000
_cell_angle_beta 90.000000
_cell_angle_gamma 90.000000
_cell_volume 4312.744907
_symmetry_space_group_name_H-M "P M N A"
_symmetry_group_IT_number 53
_symmetry_cell_setting 'orthorhombic'
loop_
_space_group_symop_operation_xyz
x,y,z
1/2-x,-y,1/2+z
x,-y,-z
1/2-x,y,1/2-z
-x,-y,-z
1/2+x,y,1/2-z
-x,y,z
1/2+x,-y,1/2+z
loop_
_atom_site_type_symbol
_atom_site_label
_atom_site_fract_x
_atom_site_fract_y
_atom_site_fract_z
Si Si1 0.173535 0.369518 0.422586
Si Si2 0.827049 0.834025 0.062947
Si Si3 0.831643 0.521787 0.058149
Si Si4 0.174628 0.915557 0.697702
Si Si5 0.825240 0.324621 0.536145
Si Si6 0.172258 0.901178 0.954044
Si Si7 0.824795 0.788591 0.620729
Si Si8 0.824460 0.971956 0.391672
O O1 0.262831 0.447566 0.415716
O O2 0.205419 0.335668 0.477446
O O3 0.204239 0.301774 0.383821
O O4 0.000000 0.386998 0.421945
O O5 0.752464 0.751325 0.056392
O O6 0.749314 0.889208 0.102351
O O7 0.000000 0.826266 0.072658
O O8 0.809603 0.877049 0.010380
O O9 0.737335 0.599066 0.062132
O O10 0.000000 0.534763 0.072361
O O11 0.829153 0.500000 0.000000
O O12 0.250000 0.923461 0.750000
O O13 0.208107 0.834158 0.670899
O O14 0.000000 0.919354 0.704045
O O15 0.215215 0.981861 0.658258
O O16 0.000000 0.319047 0.541673
O O17 0.231468 0.831293 0.920951
O O18 0.000000 0.915957 0.945160
O O19 0.264488 0.973799 0.935514
O O20 0.000000 0.799706 0.610643
O O21 0.000000 0.966502 0.394524
#
# Coordination Sequence:
#
# PCOD9414401 Si02
#       8
#     8   8   8   8   8   8   8   8
#     4   9  16  27  43  61  84 115 154 188 215 257
#     4  11  21  30  42  63  91 118 149 188 227 262
#     4   9  17  27  39  57  85 117 150 188 223 252
#     4   9  19  34  51  68  88 113 144 184 229 273
#     4  10  18  28  43  60  83 121 159 186 219 258
#     4  10  19  29  42  62  89 117 147 184 224 262
#     4   9  17  30  46  66  89 117 152 186 221 266
#     4  10  21  34  47  63  84 114 151 184 220 270
#
# _framework density 14.839736
#
# number of rings (size 3 to 8) (size 9 to 14) (size 15 to 20)
#    0.000    2.375    1.250    3.000    0.000    8.000 
#    0.000    0.000    0.000    0.000    0.000    0.000 
#    0.000    1.000    0.000    6.250    0.000    4.250 
#
# Total GULP energy -356736.789227 kJ/mol
# GULP energy per Si atom -5574.012332 kJ/mol
# Density = 1.480596 g / cm^3
# Si number density = 14.839736 Si / 1000 Ang^3
#
#
#
# Elastic Constant Matrix: (Units=GPa)
#
#
# Indices 1 2 3 4 5 6 
#
# 1 67.7576 65.9121 36.9884 0.0000 0.0000 0.0000
# 2 65.9121 128.1270 44.2598 0.0000 0.0000 0.0000
# 3 36.9884 44.2598 52.9667 0.0000 0.0000 0.0000
# 4 0.0000 0.0000 0.0000 9.3639 0.0000 0.0000
# 5 0.0000 0.0000 0.0000 0.0000 17.3667 0.0000
# 6 0.0000 0.0000 0.0000 0.0000 0.0000 21.6586
#
#
#
# Elastic Compliance Matrix: (Units=1/GPa)
#
#
# Indices 1 2 3 4 5 6 
#
# 1 0.035108 -0.013483 -0.013250 0.000000 0.000000 0.000000
# 2 -0.013483 0.016150 -0.004079 0.000000 0.000000 0.000000
# 3 -0.013250 -0.004079 0.031542 0.000000 0.000000 0.000000
# 4 0.000000 0.000000 0.000000 0.106793 0.000000 0.000000
# 5 0.000000 0.000000 0.000000 0.000000 0.057581 0.000000
# 6 0.000000 0.000000 0.000000 0.000000 0.000000 0.046171
#
#
# Mechanical properties :
#
#
# Convention : Reuss Voigt Hill
#
# Bulk Modulus (GPa) = 47.22811 60.35244 53.79027
# Shear Modulus (GPa) = 13.81109 16.45725 15.13417
#
# Velocity S-wave (km/s) = 3.05402 3.33378 3.19696
# Velocity P-wave (km/s) = 6.65812 7.45497 7.06778
#
# Compressibility (1/GPa) = 0.02117383
#
# Stress axis : x y z
#
# Youngs Moduli (GPa) = 28.48391 61.91902 31.70419
#
# Poissons Ratio (x) = 0.83487 0.42008
# Poissons Ratio (y) = 0.38406 0.12934
# Poissons Ratio (z) = 0.37741 0.25260
#
# Static dielectric constant tensor:
#      x y z
#    x 1.495310 0.000000 0.000000 
#    y 0.000000 1.504710 0.000000 
#    z 0.000000 0.000000 1.465590 
# 
# From -- ./inp_files/36472.got.cif
#   From: 2010.05.17/outbox.cif.g08.bks.cpg/sg53_19_cif.got.tgz:36472.got - 2010.06.03 12:45:16.
