data_PCOD9414918
_publ_section_title
;
Structure prediction by ZEFSAII (Michael W. Deem and Ramdas Pophale) SiO2 
 PCOD9414918
Probable space group: P M N A
;
_chemical_formula_sum "Si O2"
_cell_formula_units_Z 64
_cell_length_a 13.643601
_cell_length_b 8.753529
_cell_length_c 30.810157
_cell_angle_alpha 90.000000
_cell_angle_beta 90.000000
_cell_angle_gamma 90.000000
_cell_volume 3679.646483
_symmetry_space_group_name_H-M "P M N A"
_symmetry_group_IT_number 53
_symmetry_cell_setting 'orthorhombic'
loop_
_space_group_symop_operation_xyz
x,y,z
1/2-x,-y,1/2+z
x,-y,-z
1/2-x,y,1/2-z
-x,-y,-z
1/2+x,y,1/2-z
-x,y,z
1/2+x,-y,1/2+z
loop_
_atom_site_type_symbol
_atom_site_label
_atom_site_fract_x
_atom_site_fract_y
_atom_site_fract_z
Si Si1 0.615176 0.674359 0.253021
Si Si2 0.222769 0.661747 0.094805
Si Si3 0.116617 0.415678 0.659550
Si Si4 0.113135 0.628435 0.941651
Si Si5 0.116947 0.161515 0.834583
Si Si6 0.227332 0.616872 0.794611
Si Si7 0.885854 0.161600 0.975706
Si Si8 0.383891 0.168359 0.360144
O O1 0.500000 0.642917 0.257085
O O2 0.632489 0.694154 0.201727
O O3 0.639712 0.815148 0.283971
O O4 0.669127 0.529708 0.274924
O O5 0.330601 0.641676 0.115636
O O6 0.185247 0.507208 0.071891
O O7 0.159254 0.699213 0.137604
O O8 0.191976 0.796178 0.061499
O O9 0.177617 0.561486 0.678019
O O10 0.000000 0.440049 0.654378
O O11 0.130369 0.767279 0.908281
O O12 0.000000 0.574916 0.936135
O O13 0.121242 0.701680 0.989110
O O14 0.000000 0.164426 0.839686
O O15 0.155387 0.001465 0.852582
O O16 0.250000 0.706151 0.750000
O O17 0.162384 0.713711 0.826832
O O18 0.000000 0.158710 0.959276
O O19 0.869986 0.000000 0.000000
O O20 0.500000 0.163573 0.352558
#
# Coordination Sequence:
#
# PCOD9414918 Si02
#       8
#     8   8   8   8   8   8   8   8
#     4   9  17  32  53  77 106 137 177 225 274 322
#     4  12  20  33  55  78 106 145 181 214 260 325
#     4  10  21  35  54  76 102 138 190 242 265 288
#     4  10  19  32  54  83 112 137 167 209 258 328
#     4  10  19  30  50  81 114 144 173 213 266 329
#     4  10  18  33  52  77  99 143 181 223 269 312
#     4  10  21  36  55  85 118 139 160 205 273 340
#     4  10  19  32  50  80 115 141 167 208 265 328
#
# _framework density 17.392975
#
# number of rings (size 3 to 8) (size 9 to 14) (size 15 to 20)
#    0.000    1.875    2.500    2.625    0.000    5.500 
#    2.250    0.000    0.000    2.625    0.000    0.000 
#    0.000    0.000    0.000    0.000    0.000    0.000 
#
# Total GULP energy -356516.905260 kJ/mol
# GULP energy per Si atom -5570.576645 kJ/mol
# Density = 1.735339 g / cm^3
# Si number density = 17.392975 Si / 1000 Ang^3
#
#
#
# Elastic Constant Matrix: (Units=GPa)
#
#
# Indices 1 2 3 4 5 6 
#
# 1 62.4073 29.1636 33.6279 0.0000 0.0000 0.0000
# 2 29.1636 53.5224 20.4642 0.0000 0.0000 0.0000
# 3 33.6279 20.4642 89.8609 0.0000 0.0000 0.0000
# 4 0.0000 0.0000 0.0000 14.0067 0.0000 0.0000
# 5 0.0000 0.0000 0.0000 0.0000 26.6016 0.0000
# 6 0.0000 0.0000 0.0000 0.0000 0.0000 -3.3355
#
#
#
# Elastic Compliance Matrix: (Units=1/GPa)
#
#
# Indices 1 2 3 4 5 6 
#
# 1 0.024778 -0.010906 -0.006789 0.000000 0.000000 0.000000
# 2 -0.010906 0.025266 -0.001673 0.000000 0.000000 0.000000
# 3 -0.006789 -0.001673 0.014050 0.000000 0.000000 0.000000
# 4 0.000000 0.000000 0.000000 0.071395 0.000000 0.000000
# 5 0.000000 0.000000 0.000000 0.000000 0.037592 0.000000
# 6 0.000000 0.000000 0.000000 0.000000 0.000000 -0.299807
#
#
# Mechanical properties :
#
#
# Convention : Reuss Voigt Hill
#
# Bulk Modulus (GPa) = 39.43347 41.36688 40.40017
# Shear Modulus (GPa) = -62.86214 15.62355 -23.61930
#
# Velocity S-wave (km/s) = -6.01837 3.00036 -3.68907
# Velocity P-wave (km/s) = 5.05698 5.98650 2.26552
#
# Compressibility (1/GPa) = 0.02535917
#
# Stress axis : x y z
#
# Youngs Moduli (GPa) = 40.35788 39.57956 71.17516
#
# Poissons Ratio (x) = 0.43164 0.48321
# Poissons Ratio (y) = 0.44013 0.11905
# Poissons Ratio (z) = 0.27399 0.06620
#
# Static dielectric constant tensor:
#      x y z
#    x 1.597130 0.000000 0.000000 
#    y 0.000000 1.618500 0.000000 
#    z 0.000000 0.000000 1.658800 
# 
# From -- ./inp_files/38986.got.cif
#   From: 2010.05.17/outbox.cif.g08.bks.cpg/sg53_20_cif.got.tgz:38986.got - 2010.06.03 12:45:16.
