data_PCOD9414637
_publ_section_title
;
Structure prediction by ZEFSAII (Michael W. Deem and Ramdas Pophale) SiO2 
 PCOD9414637
Probable space group: P M N A
;
_chemical_formula_sum "Si O2"
_cell_formula_units_Z 64
_cell_length_a 15.651847
_cell_length_b 8.847165
_cell_length_c 25.412399
_cell_angle_alpha 90.000000
_cell_angle_beta 90.000000
_cell_angle_gamma 90.000000
_cell_volume 3518.968558
_symmetry_space_group_name_H-M "P M N A"
_symmetry_group_IT_number 53
_symmetry_cell_setting 'orthorhombic'
loop_
_space_group_symop_operation_xyz
x,y,z
1/2-x,-y,1/2+z
x,-y,-z
1/2-x,y,1/2-z
-x,-y,-z
1/2+x,y,1/2-z
-x,y,z
1/2+x,-y,1/2+z
loop_
_atom_site_type_symbol
_atom_site_label
_atom_site_fract_x
_atom_site_fract_y
_atom_site_fract_z
Si Si1 0.405615 0.906906 0.553528
Si Si2 0.283645 0.131687 0.849541
Si Si3 0.093838 0.889806 0.158121
Si Si4 0.265098 0.812536 0.905536
Si Si5 0.184430 0.340488 0.297625
Si Si6 0.096225 0.403920 0.645601
Si Si7 0.403478 0.035599 0.230549
Si Si8 0.903328 0.617776 0.544033
O O1 0.500000 0.835300 0.549632
O O2 0.326262 0.799908 0.566394
O O3 0.390661 0.000000 0.500000
O O4 0.408534 0.021476 0.603044
O O5 0.186578 0.189521 0.840443
O O6 0.343753 0.265015 0.869283
O O7 0.279039 0.986726 0.888174
O O8 0.331769 0.066281 0.797833
O O9 0.000000 0.812140 0.163894
O O10 0.099950 0.006020 0.207121
O O11 0.270041 0.715986 0.851522
O O12 0.339336 0.753156 0.943668
O O13 0.250000 0.348056 0.250000
O O14 0.138708 0.499381 0.307810
O O15 0.117373 0.207750 0.284122
O O16 0.091854 0.520894 0.597467
O O17 0.000000 0.355008 0.658476
O O18 0.500000 0.998162 0.212723
O O19 0.873165 0.500000 0.500000
O O20 0.000000 0.667322 0.530195
#
# Coordination Sequence:
#
# PCOD9414637 Si02
#       8
#     8   8   8   8   8   8   8   8
#     4   9  17  30  49  74 102 129 162 207 255 296
#     4  10  19  32  51  76 102 131 166 206 251 298
#     4   9  18  31  48  72  99 128 164 206 247 290
#     4   9  19  33  54  78 100 131 171 210 247 294
#     4  10  19  33  51  72 100 135 171 206 246 297
#     4  10  21  35  50  72 103 134 164 202 253 304
#     4  10  18  30  51  75 100 131 167 204 245 296
#     4   9  19  36  55  74 100 135 169 203 247 298
#
# _framework density 18.187147
#
# number of rings (size 3 to 8) (size 9 to 14) (size 15 to 20)
#    0.000    2.500    0.000    3.375    0.000    6.500 
#    0.000    0.625    0.000    6.750    0.000    0.000 
#    0.000    0.000    0.000    0.000    0.000    0.000 
#
# Total GULP energy -356446.966434 kJ/mol
# GULP energy per Si atom -5569.483851 kJ/mol
# Density = 1.814575 g / cm^3
# Si number density = 18.187147 Si / 1000 Ang^3
#
#
#
# Elastic Constant Matrix: (Units=GPa)
#
#
# Indices 1 2 3 4 5 6 
#
# 1 166.4376 44.4696 24.7255 0.0000 0.0000 0.0000
# 2 44.4696 37.6532 -1.9772 0.0000 0.0000 0.0000
# 3 24.7255 -1.9772 40.3069 0.0000 0.0000 0.0000
# 4 0.0000 0.0000 0.0000 7.5257 0.0000 0.0000
# 5 0.0000 0.0000 0.0000 0.0000 19.5370 0.0000
# 6 0.0000 0.0000 0.0000 0.0000 0.0000 17.7029
#
#
#
# Elastic Compliance Matrix: (Units=1/GPa)
#
#
# Indices 1 2 3 4 5 6 
#
# 1 0.010449 -0.012710 -0.007033 0.000000 0.000000 0.000000
# 2 -0.012710 0.042087 0.009861 0.000000 0.000000 0.000000
# 3 -0.007033 0.009861 0.029608 0.000000 0.000000 0.000000
# 4 0.000000 0.000000 0.000000 0.132879 0.000000 0.000000
# 5 0.000000 0.000000 0.000000 0.000000 0.051185 0.000000
# 6 0.000000 0.000000 0.000000 0.000000 0.000000 0.056488
#
#
# Mechanical properties :
#
#
# Convention : Reuss Voigt Hill
#
# Bulk Modulus (GPa) = 16.03086 42.09261 29.06173
# Shear Modulus (GPa) = 13.76453 20.76509 17.26481
#
# Velocity S-wave (km/s) = 2.75403 3.38264 3.08439
# Velocity P-wave (km/s) = 4.35275 6.20086 5.35711
#
# Compressibility (1/GPa) = 0.06237970
#
# Stress axis : x y z
#
# Youngs Moduli (GPa) = 95.70297 23.76040 33.77494
#
# Poissons Ratio (x) = 0.30199 0.23755
# Poissons Ratio (y) = 1.21638 -0.33306
# Poissons Ratio (z) = 0.67310 -0.23431
#
# Static dielectric constant tensor:
#      x y z
#    x 1.681640 0.000000 0.000000 
#    y 0.000000 1.598820 0.000000 
#    z 0.000000 0.000000 1.637090 
# 
# From -- ./inp_files/35343.got.cif
#   From: 2010.05.17/outbox.cif.g08.bks.cpg/sg53_18_cif.got.tgz:35343.got - 2010.06.03 12:45:16.
