data_PCOD9414360
_publ_section_title
;
Structure prediction by ZEFSAII (Michael W. Deem and Ramdas Pophale) SiO2 
 PCOD9414360
Probable space group: P M N A
;
_chemical_formula_sum "Si O2"
_cell_formula_units_Z 64
_cell_length_a 9.026737
_cell_length_b 27.135204
_cell_length_c 18.727216
_cell_angle_alpha 90.000000
_cell_angle_beta 90.000000
_cell_angle_gamma 90.000000
_cell_volume 4587.088295
_symmetry_space_group_name_H-M "P M N A"
_symmetry_group_IT_number 53
_symmetry_cell_setting 'orthorhombic'
loop_
_space_group_symop_operation_xyz
x,y,z
1/2-x,-y,1/2+z
x,-y,-z
1/2-x,y,1/2-z
-x,-y,-z
1/2+x,y,1/2-z
-x,y,z
1/2+x,-y,1/2+z
loop_
_atom_site_type_symbol
_atom_site_label
_atom_site_fract_x
_atom_site_fract_y
_atom_site_fract_z
Si Si1 0.822515 0.102533 0.577451
Si Si2 0.178708 0.490685 0.827271
Si Si3 0.323096 0.005882 0.827657
Si Si4 0.676917 0.599038 0.085562
Si Si5 0.177754 0.306256 0.673815
Si Si6 0.170804 0.049758 0.048203
Si Si7 0.321431 0.806518 0.173431
Si Si8 0.829794 0.447434 0.041605
O O1 0.789617 0.058067 0.633079
O O2 0.744282 0.090386 0.502811
O O3 0.777065 0.153579 0.614404
O O4 0.000000 0.102505 0.566627
O O5 0.250000 0.495800 0.750000
O O6 0.243967 0.441790 0.864822
O O7 0.215782 0.536962 0.878841
O O8 0.000000 0.486851 0.824218
O O9 0.250000 0.004417 0.750000
O O10 0.500000 0.001601 0.822015
O O11 0.259014 0.963976 0.880263
O O12 0.500000 0.592731 0.090667
O O13 0.717467 0.652790 0.115553
O O14 0.729912 0.588629 0.005012
O O15 0.250000 0.318641 0.750000
O O16 0.219642 0.249967 0.655426
O O17 0.000000 0.307466 0.682168
O O18 0.000000 0.061013 0.064011
O O19 0.174868 0.000000 0.000000
O O20 0.250000 0.818401 0.250000
O O21 0.500000 0.809060 0.180305
O O22 0.000000 0.430214 0.041539
O O23 0.827638 0.500000 0.000000
#
# Coordination Sequence:
#
# PCOD9414360 Si02
#       8
#     8   8   8   8   8   8   8   8
#     4   9  17  28  42  58  78 107 137 166 200 236
#     4  10  19  29  41  58  80 105 133 164 198 236
#     4  10  18  27  40  59  82 106 135 166 197 235
#     4  10  18  27  41  59  79 106 138 167 197 234
#     4   9  18  29  40  57  80 106 136 169 200 231
#     4   9  17  28  41  57  78 104 133 165 199 236
#     4   9  17  29  42  57  80 107 136 169 202 233
#     4   8  16  29  41  55  77 103 130 162 198 235
#
# _framework density 13.952206
#
# number of rings (size 3 to 8) (size 9 to 14) (size 15 to 20)
#    0.000    2.750    0.000    3.000    0.000    7.250 
#    0.000    0.000    0.000    0.000    0.000    0.000 
#    0.000    1.000    0.000    4.250    0.000    3.875 
#
# Total GULP energy -356497.909914 kJ/mol
# GULP energy per Si atom -5570.279842 kJ/mol
# Density = 1.392045 g / cm^3
# Si number density = 13.952206 Si / 1000 Ang^3
#
#
#
# Elastic Constant Matrix: (Units=GPa)
#
#
# Indices 1 2 3 4 5 6 
#
# 1 46.5907 33.6030 45.9907 0.0000 0.0000 0.0000
# 2 33.6030 72.0595 45.6832 0.0000 0.0000 0.0000
# 3 45.9907 45.6832 98.7394 0.0000 0.0000 0.0000
# 4 0.0000 0.0000 0.0000 25.6658 0.0000 0.0000
# 5 0.0000 0.0000 0.0000 0.0000 26.8711 0.0000
# 6 0.0000 0.0000 0.0000 0.0000 0.0000 13.7314
#
#
#
# Elastic Compliance Matrix: (Units=1/GPa)
#
#
# Indices 1 2 3 4 5 6 
#
# 1 0.045073 -0.010909 -0.015947 0.000000 0.000000 0.000000
# 2 -0.010909 0.022277 -0.005226 0.000000 0.000000 0.000000
# 3 -0.015947 -0.005226 0.019973 0.000000 0.000000 0.000000
# 4 0.000000 0.000000 0.000000 0.038962 0.000000 0.000000
# 5 0.000000 0.000000 0.000000 0.000000 0.037215 0.000000
# 6 0.000000 0.000000 0.000000 0.000000 0.000000 0.072826
#
#
# Mechanical properties :
#
#
# Convention : Reuss Voigt Hill
#
# Bulk Modulus (GPa) = 43.17706 51.99372 47.58539
# Shear Modulus (GPa) = 16.22271 19.39450 17.80860
#
# Velocity S-wave (km/s) = 3.41359 3.73240 3.57655
# Velocity P-wave (km/s) = 6.82278 7.47803 7.15791
#
# Compressibility (1/GPa) = 0.02316045
#
# Stress axis : x y z
#
# Youngs Moduli (GPa) = 22.18629 44.88834 50.06694
#
# Poissons Ratio (x) = 0.48968 0.79841
# Poissons Ratio (y) = 0.24202 0.26165
# Poissons Ratio (z) = 0.35380 0.23458
#
# Static dielectric constant tensor:
#      x y z
#    x 1.466090 0.000000 0.000000 
#    y 0.000000 1.452610 0.000000 
#    z 0.000000 0.000000 1.451020 
# 
# From -- ./inp_files/27084.got.cif
#   From: 2010.05.17/outbox.cif.g08.bks.cpg/sg53_14_cif.got.tgz:27084.got - 2010.06.03 12:45:16.
