data_PCOD9414490
_publ_section_title
;
Structure prediction by ZEFSAII (Michael W. Deem and Ramdas Pophale) SiO2 
 PCOD9414490
Probable space group: P M N A
;
_chemical_formula_sum "Si O2"
_cell_formula_units_Z 56
_cell_length_a 8.833250
_cell_length_b 19.884092
_cell_length_c 18.328349
_cell_angle_alpha 90.000000
_cell_angle_beta 90.000000
_cell_angle_gamma 90.000000
_cell_volume 3219.212400
_symmetry_space_group_name_H-M "P M N A"
_symmetry_group_IT_number 53
_symmetry_cell_setting 'orthorhombic'
loop_
_space_group_symop_operation_xyz
x,y,z
1/2-x,-y,1/2+z
x,-y,-z
1/2-x,y,1/2-z
-x,-y,-z
1/2+x,y,1/2-z
-x,y,z
1/2+x,-y,1/2+z
loop_
_atom_site_type_symbol
_atom_site_label
_atom_site_fract_x
_atom_site_fract_y
_atom_site_fract_z
Si Si1 0.182210 0.093282 0.168140
Si Si2 0.682380 0.575215 0.520969
Si Si3 0.318850 0.358122 0.326117
Si Si4 0.319984 0.773395 0.894321
Si Si5 0.179466 0.704504 0.450581
Si Si6 0.818148 0.946206 0.168857
Si Si7 0.318366 0.798900 0.331155
O O1 0.250000 0.097700 0.250000
O O2 0.248449 0.154736 0.122673
O O3 0.000000 0.098279 0.171902
O O4 0.223904 0.019071 0.136764
O O5 0.729334 0.500000 0.500000
O O6 0.500000 0.579439 0.515029
O O7 0.722309 0.595811 0.604124
O O8 0.754356 0.631352 0.468909
O O9 0.250000 0.382284 0.250000
O O10 0.500000 0.354841 0.321147
O O11 0.253806 0.284063 0.343713
O O12 0.500000 0.775023 0.881634
O O13 0.291708 0.749235 0.976964
O O14 0.256090 0.740949 0.382710
O O15 0.000000 0.700253 0.439775
O O16 0.750000 0.946469 0.250000
O O17 0.774620 0.873334 0.137377
O O18 0.000000 0.946178 0.173939
O O19 0.250000 0.793848 0.250000
O O20 0.500000 0.795525 0.326996
#
# Coordination Sequence:
#
# PCOD9414490 Si02
#       7
#     8   8   8   8   8   8   8
#     4  10  18  29  46  69  98 131 170 212 255 301
#     4   9  19  37  59  80 104 137 172 206 250 303
#     4  10  19  32  52  77 104 134 169 207 248 295
#     4  10  20  33  48  69 100 135 171 209 249 296
#     4  10  21  36  54  77 103 132 167 206 251 303
#     4   8  16  29  46  69  95 127 166 209 255 301
#     4  10  19  34  56  78 101 130 168 213 258 303
#
# _framework density 17.395558999999999
#
# number of rings (size 3 to 8) (size 9 to 14) (size 15 to 20)
#    0.000    2.429    0.000    2.571    0.000    3.714 
#    0.000    1.429    0.000    6.000    0.000    0.000 
#    0.000    0.000    0.000    0.000    0.000    0.000 
#
# Total GULP energy -312213.329829 kJ/mol
# GULP energy per Si atom -5575.238033 kJ/mol
# Density = 1.735597 g / cm^3
# Si number density = 17.395559 Si / 1000 Ang^3
#
#
#
# Elastic Constant Matrix: (Units=GPa)
#
#
# Indices 1 2 3 4 5 6 
#
# 1 45.6749 56.1397 42.0822 0.0000 0.0000 0.0000
# 2 56.1397 181.0966 76.5473 0.0000 0.0000 0.0000
# 3 42.0822 76.5473 68.9781 0.0000 0.0000 0.0000
# 4 0.0000 0.0000 0.0000 18.9705 0.0000 0.0000
# 5 0.0000 0.0000 0.0000 0.0000 24.6165 0.0000
# 6 0.0000 0.0000 0.0000 0.0000 0.0000 20.1695
#
#
#
# Elastic Compliance Matrix: (Units=1/GPa)
#
#
# Indices 1 2 3 4 5 6 
#
# 1 0.052425 -0.005147 -0.026272 0.000000 0.000000 0.000000
# 2 -0.005147 0.010906 -0.008962 0.000000 0.000000 0.000000
# 3 -0.026272 -0.008962 0.040471 0.000000 0.000000 0.000000
# 4 0.000000 0.000000 0.000000 0.052713 0.000000 0.000000
# 5 0.000000 0.000000 0.000000 0.000000 0.040623 0.000000
# 6 0.000000 0.000000 0.000000 0.000000 0.000000 0.049580
#
#
# Mechanical properties :
#
#
# Convention : Reuss Voigt Hill
#
# Bulk Modulus (GPa) = 43.40320 71.69866 57.55093
# Shear Modulus (GPa) = 14.91818 20.81667 17.86742
#
# Velocity S-wave (km/s) = 2.93163 3.46304 3.20836
# Velocity P-wave (km/s) = 6.03856 7.56943 6.84692
#
# Compressibility (1/GPa) = 0.02303978
#
# Stress axis : x y z
#
# Youngs Moduli (GPa) = 19.07470 91.69431 24.70887
#
# Poissons Ratio (x) = 0.47195 0.64915
# Poissons Ratio (y) = 0.09818 0.22145
# Poissons Ratio (z) = 0.50113 0.82181
#
# Static dielectric constant tensor:
#      x y z
#    x 1.577530 0.000000 0.000000 
#    y 0.000000 1.603130 0.000000 
#    z 0.000000 0.000000 1.570940 
# 
# From -- ./inp_files/20623.got.cif
#   From: 2010.05.17/outbox.cif.g08.bks.cpg/sg53_11_cif.got.tgz:20623.got - 2010.06.03 12:45:16.
