data_PCOD9414804
_publ_section_title
;
Structure prediction by ZEFSAII (Michael W. Deem and Ramdas Pophale) SiO2 
 PCOD9414804
Probable space group: P M N A
;
_chemical_formula_sum "Si O2"
_cell_formula_units_Z 32
_cell_length_a 14.633405
_cell_length_b 5.172620
_cell_length_c 17.638657
_cell_angle_alpha 90.000000
_cell_angle_beta 90.000000
_cell_angle_gamma 90.000000
_cell_volume 1335.123629
_symmetry_space_group_name_H-M "P M N A"
_symmetry_group_IT_number 53
_symmetry_cell_setting 'orthorhombic'
loop_
_space_group_symop_operation_xyz
x,y,z
1/2-x,-y,1/2+z
x,-y,-z
1/2-x,y,1/2-z
-x,-y,-z
1/2+x,y,1/2-z
-x,y,z
1/2+x,-y,1/2+z
loop_
_atom_site_type_symbol
_atom_site_label
_atom_site_fract_x
_atom_site_fract_y
_atom_site_fract_z
Si Si1 0.158588 0.975354 0.874261
Si Si2 0.710467 0.000000 0.000000
Si Si3 0.150189 0.149277 0.653151
Si Si4 0.860417 0.352291 0.259198
Si Si5 0.000000 0.748045 0.052884
O O1 0.240386 0.125415 0.832312
O O2 0.089448 0.197672 0.898249
O O3 0.111430 0.759528 0.822747
O O4 0.216907 0.853255 0.944484
O O5 0.650713 0.158702 0.939032
O O6 0.110625 0.382327 0.701758
O O7 0.113763 0.876319 0.682511
O O8 0.750000 0.362057 0.250000
O O9 0.000000 0.500000 0.000000
O O10 0.000000 0.000000 0.000000
#
# Coordination Sequence:
#
# PCOD9414804 Si02
#       5
#     8   4   8   8   4
#     4   9  20  37  53  83 112 161 195 236 279 349
#     4   8  18  35  52  82 110 145 192 232 286 350
#     4   9  19  32  51  73 104 142 181 237 290 329
#     4  10  18  32  50  72 102 145 183 235 286 331
#     4  12  24  38  54  80 122 163 203 235 268 341
#
# _framework density 23.967818999999999
#
# number of rings (size 3 to 8) (size 9 to 14) (size 15 to 20)
#    1.500    1.000    1.250    2.250    0.000    9.000 
#    0.000    0.000    0.000    0.000    0.000    0.000 
#    0.000    6.000    0.000    0.375    0.000    0.125 
#
# Total GULP energy -178141.139054 kJ/mol
# GULP energy per Si atom -5566.910595 kJ/mol
# Density = 2.391327 g / cm^3
# Si number density = 23.967819 Si / 1000 Ang^3
#
#
#
# Elastic Constant Matrix: (Units=GPa)
#
#
# Indices 1 2 3 4 5 6 
#
# 1 50.4605 3.5173 -4.8486 0.0000 0.0000 0.0000
# 2 3.5173 165.3759 56.5562 0.0000 0.0000 0.0000
# 3 -4.8486 56.5562 163.6139 0.0000 0.0000 0.0000
# 4 0.0000 0.0000 0.0000 42.7223 0.0000 0.0000
# 5 0.0000 0.0000 0.0000 0.0000 -11.8758 0.0000
# 6 0.0000 0.0000 0.0000 0.0000 0.0000 217.7565
#
#
#
# Elastic Compliance Matrix: (Units=1/GPa)
#
#
# Indices 1 2 3 4 5 6 
#
# 1 0.019947 -0.000710 0.000837 0.000000 0.000000 0.000000
# 2 -0.000710 0.006883 -0.002400 0.000000 0.000000 0.000000
# 3 0.000837 -0.002400 0.006966 0.000000 0.000000 0.000000
# 4 0.000000 0.000000 0.000000 0.023407 0.000000 0.000000
# 5 0.000000 0.000000 0.000000 0.000000 -0.084205 0.000000
# 6 0.000000 0.000000 0.000000 0.000000 0.000000 0.004592
#
#
# Mechanical properties :
#
#
# Convention : Reuss Voigt Hill
#
# Bulk Modulus (GPa) = 34.18948 54.43335 44.31142
# Shear Modulus (GPa) = -616.41805 71.33561 -272.54122
#
# Velocity S-wave (km/s) = -16.05441 5.46147 -10.67512
# Velocity P-wave (km/s) = 18.14836 7.90763 11.55059
#
# Compressibility (1/GPa) = 0.02924877
#
# Stress axis : x y z
#
# Youngs Moduli (GPa) = 50.13185 145.29020 143.54571
#
# Poissons Ratio (x) = 0.10321 -0.12010
# Poissons Ratio (y) = 0.03561 0.34454
# Poissons Ratio (z) = -0.04194 0.34873
#
# Static dielectric constant tensor:
#      x y z
#    x 2.082160 0.000000 0.000000 
#    y 0.000000 1.921330 0.000000 
#    z 0.000000 0.000000 2.005220 
# 
# From -- ./inp_files/23223.got.cif
#   From: 2010.05.17/outbox.cif.g08.bks.cpg/sg53_12_cif.got.tgz:23223.got - 2010.06.03 12:45:16.
