data_PCOD9414185
_publ_section_title
;
Structure prediction by ZEFSAII (Michael W. Deem and Ramdas Pophale) SiO2 
 PCOD9414185
Probable space group: P M N A
;
_chemical_formula_sum "Si O2"
_cell_formula_units_Z 64
_cell_length_a 8.718329
_cell_length_b 20.266278
_cell_length_c 20.636224
_cell_angle_alpha 90.000000
_cell_angle_beta 90.000000
_cell_angle_gamma 90.000000
_cell_volume 3646.174781
_symmetry_space_group_name_H-M "P M N A"
_symmetry_group_IT_number 53
_symmetry_cell_setting 'orthorhombic'
loop_
_space_group_symop_operation_xyz
x,y,z
1/2-x,-y,1/2+z
x,-y,-z
1/2-x,y,1/2-z
-x,-y,-z
1/2+x,y,1/2-z
-x,y,z
1/2+x,-y,1/2+z
loop_
_atom_site_type_symbol
_atom_site_label
_atom_site_fract_x
_atom_site_fract_y
_atom_site_fract_z
Si Si1 0.184482 0.936957 0.043528
Si Si2 0.816925 0.447694 0.943876
Si Si3 0.180927 0.565794 0.313172
Si Si4 0.683538 0.970981 0.180643
Si Si5 0.683039 0.874102 0.818621
Si Si6 0.683000 0.713926 0.316271
Si Si7 0.186392 0.704219 0.041600
Si Si8 0.315158 0.816117 0.551281
O O1 0.255409 0.937174 0.115241
O O2 0.000000 0.940549 0.050850
O O3 0.222061 0.873021 0.000952
O O4 0.233567 0.000000 0.000000
O O5 0.726457 0.468142 0.879746
O O6 0.768978 0.372666 0.961604
O O7 0.000000 0.445677 0.929938
O O8 0.790777 0.500000 0.000000
O O9 0.250000 0.531443 0.250000
O O10 0.264845 0.637182 0.316256
O O11 0.000000 0.575521 0.306979
O O12 0.750000 0.947556 0.250000
O O13 0.500000 0.966612 0.183052
O O14 0.728854 0.048584 0.173953
O O15 0.750000 0.850945 0.750000
O O16 0.500000 0.871611 0.816474
O O17 0.743886 0.834210 0.880014
O O18 0.750000 0.744160 0.250000
O O19 0.500000 0.717832 0.312360
O O20 0.732845 0.735488 0.388514
O O21 0.000000 0.705574 0.041762
O O22 0.237702 0.747964 0.981402
O O23 0.500000 0.815160 0.558358
#
# Coordination Sequence:
#
# PCOD9414185 Si02
#       8
#     8   8   8   8   8   8   8   8
#     4  10  19  31  49  73  99 129 163 197 240 288
#     4   9  17  31  51  73  98 127 160 199 244 294
#     4  10  17  26  43  68  97 125 157 196 237 280
#     4  10  20  33  51  72  99 130 164 208 249 290
#     4  10  20  33  51  75  98 124 162 206 249 291
#     4   9  15  26  44  66  92 123 162 198 234 279
#     4   8  16  30  48  71  97 129 163 195 239 291
#     4  10  19  33  52  72 100 133 163 200 242 291
#
# _framework density 17.552643
#
# number of rings (size 3 to 8) (size 9 to 14) (size 15 to 20)
#    0.000    2.500    1.250    3.750    0.000    2.000 
#    0.000    3.750    0.000    2.250    0.000    0.000 
#    0.000    0.000    0.000    0.000    0.000    0.000 
#
# Total GULP energy -356664.816922 kJ/mol
# GULP energy per Si atom -5572.887764 kJ/mol
# Density = 1.751269 g / cm^3
# Si number density = 17.552643 Si / 1000 Ang^3
#
#
#
# Elastic Constant Matrix: (Units=GPa)
#
#
# Indices 1 2 3 4 5 6 
#
# 1 32.7161 17.4859 47.4899 0.0000 0.0000 0.0000
# 2 17.4859 43.5595 43.3800 0.0000 0.0000 0.0000
# 3 47.4899 43.3800 168.5606 0.0000 0.0000 0.0000
# 4 0.0000 0.0000 0.0000 19.8768 0.0000 0.0000
# 5 0.0000 0.0000 0.0000 0.0000 34.7196 0.0000
# 6 0.0000 0.0000 0.0000 0.0000 0.0000 21.6167
#
#
#
# Elastic Compliance Matrix: (Units=1/GPa)
#
#
# Indices 1 2 3 4 5 6 
#
# 1 0.054110 -0.008793 -0.012982 0.000000 0.000000 0.000000
# 2 -0.008793 0.032297 -0.005835 0.000000 0.000000 0.000000
# 3 -0.012982 -0.005835 0.011092 0.000000 0.000000 0.000000
# 4 0.000000 0.000000 0.000000 0.050310 0.000000 0.000000
# 5 0.000000 0.000000 0.000000 0.000000 0.028802 0.000000
# 6 0.000000 0.000000 0.000000 0.000000 0.000000 0.046260
#
#
# Mechanical properties :
#
#
# Convention : Reuss Voigt Hill
#
# Bulk Modulus (GPa) = 23.65167 51.28308 37.46738
# Shear Modulus (GPa) = 17.11258 24.34132 20.72695
#
# Velocity S-wave (km/s) = 3.12577 3.72796 3.44007
# Velocity P-wave (km/s) = 5.15085 6.91451 6.09679
#
# Compressibility (1/GPa) = 0.04228031
#
# Stress axis : x y z
#
# Youngs Moduli (GPa) = 18.48099 30.96237 90.15761
#
# Poissons Ratio (x) = 0.27224 1.17042
# Poissons Ratio (y) = 0.16249 0.52604
# Poissons Ratio (z) = 0.23992 0.18066
#
# Static dielectric constant tensor:
#      x y z
#    x 1.593120 0.000000 0.000000 
#    y 0.000000 1.603480 0.000000 
#    z 0.000000 0.000000 1.632540 
# 
# From -- ./inp_files/27065.got.cif
#   From: 2010.05.17/outbox.cif.g08.bks.cpg/sg53_14_cif.got.tgz:27065.got - 2010.06.03 12:45:16.
