data_PCOD9414450
_publ_section_title
;
Structure prediction by ZEFSAII (Michael W. Deem and Ramdas Pophale) SiO2 
 PCOD9414450
Probable space group: P M N A
;
_chemical_formula_sum "Si O2"
_cell_formula_units_Z 64
_cell_length_a 8.973486
_cell_length_b 22.122397
_cell_length_c 18.213978
_cell_angle_alpha 90.000000
_cell_angle_beta 90.000000
_cell_angle_gamma 90.000000
_cell_volume 3615.748203
_symmetry_space_group_name_H-M "P M N A"
_symmetry_group_IT_number 53
_symmetry_cell_setting 'orthorhombic'
loop_
_space_group_symop_operation_xyz
x,y,z
1/2-x,-y,1/2+z
x,-y,-z
1/2-x,y,1/2-z
-x,-y,-z
1/2+x,y,1/2-z
-x,y,z
1/2+x,-y,1/2+z
loop_
_atom_site_type_symbol
_atom_site_label
_atom_site_fract_x
_atom_site_fract_y
_atom_site_fract_z
Si Si1 0.823058 0.124071 0.327408
Si Si2 0.325361 0.623098 0.409323
Si Si3 0.177822 0.263633 0.670030
Si Si4 0.177963 0.751056 0.595046
Si Si5 0.824990 0.626586 0.912967
Si Si6 0.822684 0.188466 0.952623
Si Si7 0.671881 0.501549 0.910596
Si Si8 0.177739 0.935751 0.967775
O O1 0.750000 0.109342 0.250000
O O2 0.791203 0.194116 0.348954
O O3 0.758485 0.083633 0.393178
O O4 0.000000 0.117029 0.323835
O O5 0.500000 0.629285 0.391348
O O6 0.232041 0.675471 0.370760
O O7 0.310814 0.628442 0.497816
O O8 0.263670 0.557387 0.387063
O O9 0.250000 0.262169 0.750000
O O10 0.241870 0.209122 0.620896
O O11 0.000000 0.261704 0.673736
O O12 0.245845 0.686682 0.616607
O O13 0.254662 0.772217 0.519186
O O14 0.000000 0.746207 0.584741
O O15 0.747423 0.564519 0.888238
O O16 0.000000 0.626284 0.895652
O O17 0.000000 0.199795 0.947817
O O18 0.797880 0.118848 0.974765
O O19 0.500000 0.498247 0.887049
O O20 0.673008 0.500000 0.000000
O O21 0.000000 0.938512 0.953736
O O22 0.226256 0.000000 0.000000
#
# Coordination Sequence:
#
# PCOD9414450 Si02
#       8
#     8   8   8   8   8   8   8   8
#     4  10  21  36  56  84 116 150 186 227 271 322
#     4  10  19  32  49  71 101 134 176 224 276 331
#     4  12  24  37  54  75 104 141 185 231 280 331
#     4  10  19  31  51  78 107 140 179 221 270 324
#     4  10  18  28  47  74 104 136 174 221 274 328
#     4  10  19  34  55  80 109 139 176 221 268 319
#     4   9  17  28  44  68  99 133 171 216 270 324
#     4   9  19  37  62  89 117 150 185 223 269 321
#
# _framework density 17.700347000000001
#
# number of rings (size 3 to 8) (size 9 to 14) (size 15 to 20)
#    0.000    2.000    1.250    3.375    0.000    4.750 
#    0.000    0.625    0.000    0.750    0.000    3.500 
#    0.000    0.000    0.000    0.000    0.000    0.000 
#
# Total GULP energy -357325.531913 kJ/mol
# GULP energy per Si atom -5583.211436 kJ/mol
# Density = 1.766006 g / cm^3
# Si number density = 17.700347 Si / 1000 Ang^3
#
#
#
# Elastic Constant Matrix: (Units=GPa)
#
#
# Indices 1 2 3 4 5 6 
#
# 1 113.6396 64.2650 49.0281 0.0000 0.0000 0.0000
# 2 64.2650 136.4941 38.6434 0.0000 0.0000 0.0000
# 3 49.0281 38.6434 68.4106 0.0000 0.0000 0.0000
# 4 0.0000 0.0000 0.0000 10.1333 0.0000 0.0000
# 5 0.0000 0.0000 0.0000 0.0000 23.1068 0.0000
# 6 0.0000 0.0000 0.0000 0.0000 0.0000 22.4962
#
#
#
# Elastic Compliance Matrix: (Units=1/GPa)
#
#
# Indices 1 2 3 4 5 6 
#
# 1 0.014961 -0.004772 -0.008027 0.000000 0.000000 0.000000
# 2 -0.004772 0.010243 -0.002366 0.000000 0.000000 0.000000
# 3 -0.008027 -0.002366 0.021707 0.000000 0.000000 0.000000
# 4 0.000000 0.000000 0.000000 0.098684 0.000000 0.000000
# 5 0.000000 0.000000 0.000000 0.000000 0.043277 0.000000
# 6 0.000000 0.000000 0.000000 0.000000 0.000000 0.044452
#
#
# Mechanical properties :
#
#
# Convention : Reuss Voigt Hill
#
# Bulk Modulus (GPa) = 60.30845 69.15747 64.73296
# Shear Modulus (GPa) = 18.57482 22.25445 20.41464
#
# Velocity S-wave (km/s) = 3.24297 3.54967 3.39978
# Velocity P-wave (km/s) = 6.94034 7.48040 7.21542
#
# Compressibility (1/GPa) = 0.01658142
#
# Stress axis : x y z
#
# Youngs Moduli (GPa) = 66.83908 97.62923 46.06811
#
# Poissons Ratio (x) = 0.46585 0.36979
# Poissons Ratio (y) = 0.31893 0.10901
# Poissons Ratio (z) = 0.53652 0.23101
#
# Static dielectric constant tensor:
#      x y z
#    x 1.586560 0.000000 0.000000 
#    y 0.000000 1.602000 0.000000 
#    z 0.000000 0.000000 1.586480 
# 
# From -- ./inp_files/26915.got.cif
#   From: 2010.05.17/outbox.cif.g08.bks.cpg/sg53_14_cif.got.tgz:26915.got - 2010.06.03 12:45:16.
