data_PCOD9414744
_publ_section_title
;
Structure prediction by ZEFSAII (Michael W. Deem and Ramdas Pophale) SiO2 
 PCOD9414744
Probable space group: P M N A
;
_chemical_formula_sum "Si O2"
_cell_formula_units_Z 48
_cell_length_a 12.496302
_cell_length_b 8.191660
_cell_length_c 25.229732
_cell_angle_alpha 90.000000
_cell_angle_beta 90.000000
_cell_angle_gamma 90.000000
_cell_volume 2582.653052
_symmetry_space_group_name_H-M "P M N A"
_symmetry_group_IT_number 53
_symmetry_cell_setting 'orthorhombic'
loop_
_space_group_symop_operation_xyz
x,y,z
1/2-x,-y,1/2+z
x,-y,-z
1/2-x,y,1/2-z
-x,-y,-z
1/2+x,y,1/2-z
-x,y,z
1/2+x,-y,1/2+z
loop_
_atom_site_type_symbol
_atom_site_label
_atom_site_fract_x
_atom_site_fract_y
_atom_site_fract_z
Si Si1 0.879030 0.431852 0.407521
Si Si2 0.819151 0.627927 0.042423
Si Si3 0.732659 0.614449 0.689069
Si Si4 0.880430 0.715325 0.158916
Si Si5 0.785368 0.132450 0.464071
Si Si6 0.371833 0.924563 0.633284
O O1 0.792049 0.549854 0.435332
O O2 0.837811 0.395233 0.348086
O O3 0.865045 0.263600 0.439329
O O4 0.000000 0.492305 0.409307
O O5 0.880241 0.674355 0.095711
O O6 0.867438 0.500000 0.000000
O O7 0.791700 0.780561 0.006479
O O8 0.750000 0.655674 0.750000
O O9 0.685197 0.431503 0.684795
O O10 0.657803 0.755605 0.663264
O O11 0.000000 0.704450 0.179983
O O12 0.846410 0.904963 0.163733
O O13 0.706570 0.074085 0.417397
O O14 0.843392 0.000000 0.500000
O O15 0.500000 0.926796 0.621472
#
# Coordination Sequence:
#
# PCOD9414744 Si02
#       6
#     8   8   8   8   8   8
#     4   9  20  36  52  74 104 143 188 231 271 317
#     4   9  18  31  50  75 110 148 180 219 259 319
#     4  10  22  39  60  80 106 143 182 235 288 334
#     4  10  20  35  56  83 112 141 178 222 273 333
#     4  10  18  31  52  78 113 146 179 215 263 324
#     4  10  21  36  57  86 117 143 178 227 275 335
#
# _framework density 18.585540000000002
#
# number of rings (size 3 to 8) (size 9 to 14) (size 15 to 20)
#    0.000    2.333    1.667    1.500    0.000    6.667 
#    0.000    0.000    0.000    0.000    0.000    0.000 
#    0.000    0.000    0.000    0.000    0.000    0.000 
#
# Total GULP energy -267241.233480 kJ/mol
# GULP energy per Si atom -5567.525697 kJ/mol
# Density = 1.854324 g / cm^3
# Si number density = 18.585540 Si / 1000 Ang^3
#
#
#
# Elastic Constant Matrix: (Units=GPa)
#
#
# Indices 1 2 3 4 5 6 
#
# 1 75.1165 23.8159 6.9665 0.0000 0.0000 0.0000
# 2 23.8159 86.1536 5.9144 0.0000 0.0000 0.0000
# 3 6.9665 5.9144 68.5491 0.0000 0.0000 0.0000
# 4 0.0000 0.0000 0.0000 19.7466 0.0000 0.0000
# 5 0.0000 0.0000 0.0000 0.0000 2.2302 0.0000
# 6 0.0000 0.0000 0.0000 0.0000 0.0000 7.2152
#
#
#
# Elastic Compliance Matrix: (Units=1/GPa)
#
#
# Indices 1 2 3 4 5 6 
#
# 1 0.014681 -0.003979 -0.001149 0.000000 0.000000 0.000000
# 2 -0.003979 0.012755 -0.000696 0.000000 0.000000 0.000000
# 3 -0.001149 -0.000696 0.014765 0.000000 0.000000 0.000000
# 4 0.000000 0.000000 0.000000 0.050642 0.000000 0.000000
# 5 0.000000 0.000000 0.000000 0.000000 0.448390 0.000000
# 6 0.000000 0.000000 0.000000 0.000000 0.000000 0.138597
#
#
# Mechanical properties :
#
#
# Convention : Reuss Voigt Hill
#
# Bulk Modulus (GPa) = 32.73063 33.69031 33.21047
# Shear Modulus (GPa) = 7.12594 18.71322 12.91958
#
# Velocity S-wave (km/s) = 1.96022 3.17656 2.63941
# Velocity P-wave (km/s) = 4.77203 5.62322 5.21502
#
# Compressibility (1/GPa) = 0.03055242
#
# Stress axis : x y z
#
# Youngs Moduli (GPa) = 68.11579 78.40049 67.72832
#
# Poissons Ratio (x) = 0.31199 0.07780
# Poissons Ratio (y) = 0.27106 0.04714
# Poissons Ratio (z) = 0.07824 0.05457
#
# Static dielectric constant tensor:
#      x y z
#    x 1.665980 0.000000 0.000000 
#    y 0.000000 1.724280 0.000000 
#    z 0.000000 0.000000 1.642460 
# 
# From -- ./inp_files/34886.got.cif
#   From: 2010.05.17/outbox.cif.g08.bks.cpg/sg53_18_cif.got.tgz:34886.got - 2010.06.03 12:45:16.
