data_PCOD9414745
_publ_section_title
;
Structure prediction by ZEFSAII (Michael W. Deem and Ramdas Pophale) SiO2 
 PCOD9414745
Probable space group: P M N A
;
_chemical_formula_sum "Si O2"
_cell_formula_units_Z 40
_cell_length_a 13.881084
_cell_length_b 12.447390
_cell_length_c 11.843815
_cell_angle_alpha 90.000000
_cell_angle_beta 90.000000
_cell_angle_gamma 90.000000
_cell_volume 2046.413040
_symmetry_space_group_name_H-M "P M N A"
_symmetry_group_IT_number 53
_symmetry_cell_setting 'orthorhombic'
loop_
_space_group_symop_operation_xyz
x,y,z
1/2-x,-y,1/2+z
x,-y,-z
1/2-x,y,1/2-z
-x,-y,-z
1/2+x,y,1/2-z
-x,y,z
1/2+x,-y,1/2+z
loop_
_atom_site_type_symbol
_atom_site_label
_atom_site_fract_x
_atom_site_fract_y
_atom_site_fract_z
Si Si1 0.193255 0.602719 0.929592
Si Si2 0.798444 0.840846 0.016108
Si Si3 0.615351 0.003594 0.325194
Si Si4 0.390132 0.121826 0.101387
Si Si5 0.891914 0.633857 0.684256
O O1 0.187477 0.714245 0.998655
O O2 0.304431 0.587322 0.889423
O O3 0.132498 0.614554 0.814921
O O4 0.161933 0.500000 0.000000
O O5 0.686367 0.870161 0.998257
O O6 0.850263 0.903712 0.912262
O O7 0.839864 0.893396 0.128918
O O8 0.500000 0.997587 0.331607
O O9 0.640103 0.038284 0.198323
O O10 0.500000 0.102874 0.066003
O O11 0.387621 0.238218 0.161938
O O12 0.000000 0.596658 0.656380
#
# Coordination Sequence:
#
# PCOD9414745 Si02
#       5
#     8   8   8   8   8
#     4  10  20  33  54  81 107 136 177 216 259 309
#     4  10  18  31  52  79 105 135 172 214 263 305
#     4  10  19  31  53  80 105 132 172 218 262 310
#     4   9  17  32  55  78 101 134 176 218 254 303
#     4   9  18  34  55  79 104 134 178 219 256 305
#
# _framework density 19.546396999999999
#
# number of rings (size 3 to 8) (size 9 to 14) (size 15 to 20)
#    0.000    2.400    2.000    1.800    0.000    1.600 
#    0.000    2.000   17.600    2.400    0.000    0.000 
#    0.000    0.000    0.000    0.000    0.000    0.000 
#
# Total GULP energy -223396.404001 kJ/mol
# GULP energy per Si atom -5584.910100 kJ/mol
# Density = 1.950191 g / cm^3
# Si number density = 19.546397 Si / 1000 Ang^3
#
#
#
# Elastic Constant Matrix: (Units=GPa)
#
#
# Indices 1 2 3 4 5 6 
#
# 1 77.6948 7.0219 11.8966 0.0000 0.0000 0.0000
# 2 7.0219 96.1339 32.3150 0.0000 0.0000 0.0000
# 3 11.8966 32.3150 33.6452 0.0000 0.0000 0.0000
# 4 0.0000 0.0000 0.0000 34.9426 0.0000 0.0000
# 5 0.0000 0.0000 0.0000 0.0000 1.6137 0.0000
# 6 0.0000 0.0000 0.0000 0.0000 0.0000 19.5454
#
#
#
# Elastic Compliance Matrix: (Units=1/GPa)
#
#
# Indices 1 2 3 4 5 6 
#
# 1 0.013663 0.000924 -0.005719 0.000000 0.000000 0.000000
# 2 0.000924 0.015424 -0.015141 0.000000 0.000000 0.000000
# 3 -0.005719 -0.015141 0.046287 0.000000 0.000000 0.000000
# 4 0.000000 0.000000 0.000000 0.028618 0.000000 0.000000
# 5 0.000000 0.000000 0.000000 0.000000 0.619679 0.000000
# 6 0.000000 0.000000 0.000000 0.000000 0.000000 0.051163
#
#
# Mechanical properties :
#
#
# Convention : Reuss Voigt Hill
#
# Bulk Modulus (GPa) = 28.16717 34.43789 31.30253
# Shear Modulus (GPa) = 6.04931 21.63637 13.84284
#
# Velocity S-wave (km/s) = 1.76113 3.33066 2.66410
# Velocity P-wave (km/s) = 4.31012 5.69630 5.05099
#
# Compressibility (1/GPa) = 0.03550233
#
# Stress axis : x y z
#
# Youngs Moduli (GPa) = 73.19033 64.83252 21.60440
#
# Poissons Ratio (x) = -0.05993 0.12355
# Poissons Ratio (y) = -0.06766 0.32712
# Poissons Ratio (z) = 0.41857 0.98166
#
# Static dielectric constant tensor:
#      x y z
#    x 1.724940 0.000000 0.000000 
#    y 0.000000 1.664940 0.000000 
#    z 0.000000 0.000000 1.674100 
# 
# From -- ./inp_files/15783.got.cif
#   From: 2010.05.17/outbox.cif.g08.bks.cpg/sg53_8_cif.got.tgz:15783.got - 2010.06.03 12:45:16.
