data_PCOD9414506
_publ_section_title
;
Structure prediction by ZEFSAII (Michael W. Deem and Ramdas Pophale) SiO2 
 PCOD9414506
Probable space group: P M N A
;
_chemical_formula_sum "Si O2"
_cell_formula_units_Z 48
_cell_length_a 9.046152
_cell_length_b 15.727597
_cell_length_c 20.240450
_cell_angle_alpha 90.000000
_cell_angle_beta 90.000000
_cell_angle_gamma 90.000000
_cell_volume 2879.694500
_symmetry_space_group_name_H-M "P M N A"
_symmetry_group_IT_number 53
_symmetry_cell_setting 'orthorhombic'
loop_
_space_group_symop_operation_xyz
x,y,z
1/2-x,-y,1/2+z
x,-y,-z
1/2-x,y,1/2-z
-x,-y,-z
1/2+x,y,1/2-z
-x,y,z
1/2+x,-y,1/2+z
loop_
_atom_site_type_symbol
_atom_site_label
_atom_site_fract_x
_atom_site_fract_y
_atom_site_fract_z
Si Si1 0.676250 0.245520 0.890772
Si Si2 0.826842 0.925210 0.090999
Si Si3 0.824356 0.459026 0.072447
Si Si4 0.674496 0.109592 0.433095
Si Si5 0.323377 0.718710 0.955170
Si Si6 0.321857 0.418219 0.820451
O O1 0.500000 0.236934 0.887985
O O2 0.746457 0.154100 0.875838
O O3 0.721168 0.322928 0.843867
O O4 0.713191 0.271961 0.966462
O O5 0.000000 0.922901 0.107237
O O6 0.773841 0.022101 0.101582
O O7 0.814228 0.908507 0.011967
O O8 0.758128 0.364425 0.071350
O O9 0.740839 0.516666 0.125621
O O10 0.000000 0.457659 0.085326
O O11 0.801000 0.500000 0.000000
O O12 0.500000 0.122198 0.419106
O O13 0.765832 0.194879 0.421076
O O14 0.500000 0.710587 0.949113
O O15 0.250000 0.436266 0.750000
O O16 0.500000 0.423000 0.818106
#
# Coordination Sequence:
#
# PCOD9414506 Si02
#       6
#     8   8   8   8   8   8
#     4   9  18  30  46  69  99 132 166 207 255 304
#     4   8  14  24  41  63  93 130 165 200 242 294
#     4  11  22  35  54  78 102 135 177 219 265 319
#     4   8  14  25  39  63  97 130 163 203 247 295
#     4  10  18  29  47  72 101 134 169 210 260 309
#     4  11  23  39  55  75 105 138 175 219 265 315
#
# _framework density 16.668434000000001
#
# number of rings (size 3 to 8) (size 9 to 14) (size 15 to 20)
#    0.000    2.500    1.667    2.500    0.000    3.333 
#    0.000    3.333    0.000    0.000    0.000    1.167 
#    0.000    5.333    0.000    0.000    0.000    0.000 
#
# Total GULP energy -267496.211141 kJ/mol
# GULP energy per Si atom -5572.837732 kJ/mol
# Density = 1.663050 g / cm^3
# Si number density = 16.668434 Si / 1000 Ang^3
#
#
#
# Elastic Constant Matrix: (Units=GPa)
#
#
# Indices 1 2 3 4 5 6 
#
# 1 58.1582 63.0461 36.7332 0.0000 0.0000 0.0000
# 2 63.0461 156.7857 40.6606 0.0000 0.0000 0.0000
# 3 36.7332 40.6606 53.1975 0.0000 0.0000 0.0000
# 4 0.0000 0.0000 0.0000 11.9415 0.0000 0.0000
# 5 0.0000 0.0000 0.0000 0.0000 11.4515 0.0000
# 6 0.0000 0.0000 0.0000 0.0000 0.0000 34.1913
#
#
#
# Elastic Compliance Matrix: (Units=1/GPa)
#
#
# Indices 1 2 3 4 5 6 
#
# 1 0.043354 -0.012060 -0.020718 0.000000 0.000000 0.000000
# 2 -0.012060 0.011310 -0.000317 0.000000 0.000000 0.000000
# 3 -0.020718 -0.000317 0.033346 0.000000 0.000000 0.000000
# 4 0.000000 0.000000 0.000000 0.083741 0.000000 0.000000
# 5 0.000000 0.000000 0.000000 0.000000 0.087325 0.000000
# 6 0.000000 0.000000 0.000000 0.000000 0.000000 0.029247
#
#
# Mechanical properties :
#
#
# Convention : Reuss Voigt Hill
#
# Bulk Modulus (GPa) = 45.83063 61.00233 53.41648
# Shear Modulus (GPa) = 13.82023 20.03028 16.92526
#
# Velocity S-wave (km/s) = 2.88258 3.47030 3.19000
# Velocity P-wave (km/s) = 6.21564 7.26184 6.75901
#
# Compressibility (1/GPa) = 0.02181947
#
# Stress axis : x y z
#
# Youngs Moduli (GPa) = 23.06572 88.41739 29.98851
#
# Poissons Ratio (x) = 1.06635 0.62131
# Poissons Ratio (y) = 0.27818 0.00950
# Poissons Ratio (z) = 0.47788 0.02801
#
# Static dielectric constant tensor:
#      x y z
#    x 1.551440 0.000000 0.000000 
#    y 0.000000 1.580220 0.000000 
#    z 0.000000 0.000000 1.546110 
# 
# From -- ./inp_files/26256.got.cif
#   From: 2010.05.17/outbox.cif.g08.bks.cpg/sg53_14_cif.got.tgz:26256.got - 2010.06.03 12:45:16.
