data_PCOD9414314
_publ_section_title
;
Structure prediction by ZEFSAII (Michael W. Deem and Ramdas Pophale) SiO2 
 PCOD9414314
Probable space group: P M N A
;
_chemical_formula_sum "Si O2"
_cell_formula_units_Z 40
_cell_length_a 14.682851
_cell_length_b 7.188942
_cell_length_c 18.713409
_cell_angle_alpha 90.000000
_cell_angle_beta 90.000000
_cell_angle_gamma 90.000000
_cell_volume 1975.278247
_symmetry_space_group_name_H-M "P M N A"
_symmetry_group_IT_number 53
_symmetry_cell_setting 'orthorhombic'
loop_
_space_group_symop_operation_xyz
x,y,z
1/2-x,-y,1/2+z
x,-y,-z
1/2-x,y,1/2-z
-x,-y,-z
1/2+x,y,1/2-z
-x,y,z
1/2+x,-y,1/2+z
loop_
_atom_site_type_symbol
_atom_site_label
_atom_site_fract_x
_atom_site_fract_y
_atom_site_fract_z
Si Si1 0.230366 0.077926 0.421494
Si Si2 0.604577 0.180758 0.850818
Si Si3 0.397601 0.579591 0.723085
Si Si4 0.778327 0.519564 0.635969
Si Si5 0.156522 0.015202 0.210996
O O1 0.134283 0.010946 0.387958
O O2 0.308010 0.988098 0.369454
O O3 0.240908 0.000000 0.500000
O O4 0.230965 0.301884 0.414785
O O5 0.500000 0.228275 0.862486
O O6 0.673844 0.328399 0.886628
O O7 0.621300 0.144176 0.765188
O O8 0.500000 0.503285 0.720472
O O9 0.349093 0.566374 0.799857
O O10 0.322577 0.494033 0.669237
O O11 0.403131 0.800707 0.708784
O O12 0.250000 0.076155 0.250000
#
# Coordination Sequence:
#
# PCOD9414314 Si02
#       5
#     8   8   8   8   8
#     4  10  22  40  58  82 126 174 196 240 303 369
#     4  11  22  36  62  91 118 154 205 258 302 359
#     4  10  17  32  58  84 114 148 186 244 306 346
#     4  10  21  36  55  88 121 150 198 248 300 351
#     4   9  17  35  57  84 114 150 200 248 292 347
#
# _framework density 20.250312999999998
#
# number of rings (size 3 to 8) (size 9 to 14) (size 15 to 20)
#    0.000    2.000    6.000    1.200    8.400    2.000 
#    0.000    1.000    0.000   15.000    0.000    5.600 
#    0.000    0.000    0.000    0.000    0.000    0.000 
#
# Total GULP energy -222685.713143 kJ/mol
# GULP energy per Si atom -5567.142829 kJ/mol
# Density = 2.020422 g / cm^3
# Si number density = 20.250313 Si / 1000 Ang^3
#
#
#
# Elastic Constant Matrix: (Units=GPa)
#
#
# Indices 1 2 3 4 5 6 
#
# 1 131.7075 0.9723 11.4163 0.0000 0.0000 0.0000
# 2 0.9723 45.2699 -1.2730 0.0000 0.0000 0.0000
# 3 11.4163 -1.2730 79.5112 0.0000 0.0000 0.0000
# 4 0.0000 0.0000 0.0000 14.5052 0.0000 0.0000
# 5 0.0000 0.0000 0.0000 0.0000 3.8480 0.0000
# 6 0.0000 0.0000 0.0000 0.0000 0.0000 25.8963
#
#
#
# Elastic Compliance Matrix: (Units=1/GPa)
#
#
# Indices 1 2 3 4 5 6 
#
# 1 0.007690 -0.000196 -0.001107 0.000000 0.000000 0.000000
# 2 -0.000196 0.022105 0.000382 0.000000 0.000000 0.000000
# 3 -0.001107 0.000382 0.012742 0.000000 0.000000 0.000000
# 4 0.000000 0.000000 0.000000 0.068941 0.000000 0.000000
# 5 0.000000 0.000000 0.000000 0.000000 0.259876 0.000000
# 6 0.000000 0.000000 0.000000 0.000000 0.000000 0.038616
#
#
# Mechanical properties :
#
#
# Convention : Reuss Voigt Hill
#
# Bulk Modulus (GPa) = 24.57386 30.96888 27.77137
# Shear Modulus (GPa) = 11.75430 25.20810 18.48120
#
# Velocity S-wave (km/s) = 2.41187 3.53204 3.02427
# Velocity P-wave (km/s) = 4.46291 5.65331 5.09301
#
# Compressibility (1/GPa) = 0.04069365
#
# Stress axis : x y z
#
# Youngs Moduli (GPa) = 130.03887 45.23924 78.48094
#
# Poissons Ratio (x) = 0.00888 0.08690
# Poissons Ratio (y) = 0.02553 -0.02999
# Poissons Ratio (z) = 0.14399 -0.01728
#
# Static dielectric constant tensor:
#      x y z
#    x 1.712590 0.000000 0.000000 
#    y 0.000000 1.868340 0.000000 
#    z 0.000000 0.000000 1.754470 
# 
# From -- ./inp_files/32205.got.cif
#   From: 2010.05.17/outbox.cif.g08.bks.cpg/sg53_17_cif.got.tgz:32205.got - 2010.06.03 12:45:16.
