data_PCOD9414466
_publ_section_title
;
Structure prediction by ZEFSAII (Michael W. Deem and Ramdas Pophale) SiO2 
 PCOD9414466
Probable space group: P M N A
;
_chemical_formula_sum "Si O2"
_cell_formula_units_Z 64
_cell_length_a 8.913093
_cell_length_b 25.027816
_cell_length_c 13.598532
_cell_angle_alpha 90.000000
_cell_angle_beta 90.000000
_cell_angle_gamma 90.000000
_cell_volume 3033.495947
_symmetry_space_group_name_H-M "P M N A"
_symmetry_group_IT_number 53
_symmetry_cell_setting 'orthorhombic'
loop_
_space_group_symop_operation_xyz
x,y,z
1/2-x,-y,1/2+z
x,-y,-z
1/2-x,y,1/2-z
-x,-y,-z
1/2+x,y,1/2-z
-x,y,z
1/2+x,-y,1/2+z
loop_
_atom_site_type_symbol
_atom_site_label
_atom_site_fract_x
_atom_site_fract_y
_atom_site_fract_z
Si Si1 0.168312 0.993704 0.119149
Si Si2 0.330063 0.114221 0.884962
Si Si3 0.323115 0.641531 0.646057
Si Si4 0.679753 0.776710 0.423463
Si Si5 0.334172 0.901442 0.878995
Si Si6 0.677329 0.561626 0.978441
Si Si7 0.326212 0.796743 0.650913
Si Si8 0.176884 0.328861 0.550656
O O1 0.000000 0.003492 0.155999
O O2 0.287757 0.038825 0.147339
O O3 0.224936 0.934825 0.145863
O O4 0.160836 0.000000 0.000000
O O5 0.500000 0.112002 0.845675
O O6 0.257314 0.172652 0.871581
O O7 0.340534 0.104302 0.002818
O O8 0.250000 0.651151 0.750000
O O9 0.500000 0.651097 0.644274
O O10 0.282011 0.581652 0.610060
O O11 0.237349 0.674344 0.561701
O O12 0.500000 0.780474 0.415858
O O13 0.723220 0.782280 0.539820
O O14 0.736762 0.717841 0.392172
O O15 0.500000 0.886522 0.842186
O O16 0.207159 0.860064 0.847295
O O17 0.500000 0.567773 0.952588
O O18 0.703602 0.606798 0.064218
O O19 0.704236 0.500000 0.000000
O O20 0.250000 0.774452 0.750000
O O21 0.500000 0.783936 0.656937
O O22 0.000000 0.318899 0.557501
#
# Coordination Sequence:
#
# PCOD9414466 Si02
#       8
#     8   8   8   8   8   8   8   8
#     4   9  15  23  36  54  73  93 118 152 194 240
#     4   9  16  25  38  54  73  97 126 159 198 243
#     4  10  18  29  44  64  88 115 149 186 224 261
#     4  10  19  30  41  56  78 106 138 176 212 250
#     4   9  16  26  39  53  70  92 122 159 198 240
#     4   8  16  31  48  66  88 115 147 184 227 272
#     4  10  20  31  41  53  71  99 135 172 211 246
#     4   9  18  30  44  61  82 112 145 180 220 261
#
# _framework density 21.097771000000002
#
# number of rings (size 3 to 8) (size 9 to 14) (size 15 to 20)
#    0.750    2.000    0.000    3.000    0.000    6.750 
#    0.000    1.250    0.000    0.000    0.000    0.000 
#    0.000    0.000    0.000    1.125    0.000   16.625 
#
# Total GULP energy -356510.670087 kJ/mol
# GULP energy per Si atom -5570.479220 kJ/mol
# Density = 2.104975 g / cm^3
# Si number density = 21.097771 Si / 1000 Ang^3
#
#
#
# Elastic Constant Matrix: (Units=GPa)
#
#
# Indices 1 2 3 4 5 6 
#
# 1 71.5138 40.3460 4.5108 0.0000 0.0000 0.0000
# 2 40.3460 156.8365 -7.2231 0.0000 0.0000 0.0000
# 3 4.5108 -7.2231 35.0270 0.0000 0.0000 0.0000
# 4 0.0000 0.0000 0.0000 -9.2854 0.0000 0.0000
# 5 0.0000 0.0000 0.0000 0.0000 12.6270 0.0000
# 6 0.0000 0.0000 0.0000 0.0000 0.0000 291.3921
#
#
#
# Elastic Compliance Matrix: (Units=1/GPa)
#
#
# Indices 1 2 3 4 5 6 
#
# 1 0.016676 -0.004431 -0.003061 0.000000 0.000000 0.000000
# 2 -0.004431 0.007615 0.002141 0.000000 0.000000 0.000000
# 3 -0.003061 0.002141 0.029385 0.000000 0.000000 0.000000
# 4 0.000000 0.000000 0.000000 -0.107696 0.000000 0.000000
# 5 0.000000 0.000000 0.000000 0.000000 0.079195 0.000000
# 6 0.000000 0.000000 0.000000 0.000000 0.000000 0.003432
#
#
# Mechanical properties :
#
#
# Convention : Reuss Voigt Hill
#
# Bulk Modulus (GPa) = 23.27037 37.62719 30.44878
# Shear Modulus (GPa) = 93.22412 73.99632 83.61022
#
# Velocity S-wave (km/s) = 6.65452 5.92868 6.30206
# Velocity P-wave (km/s) = 8.37241 8.04605 8.21085
#
# Compressibility (1/GPa) = 0.04297311
#
# Stress axis : x y z
#
# Youngs Moduli (GPa) = 59.96574 131.32821 34.03084
#
# Poissons Ratio (x) = 0.58190 0.10418
# Poissons Ratio (y) = 0.26570 -0.07285
# Poissons Ratio (z) = 0.18357 -0.28115
#
# Static dielectric constant tensor:
#      x y z
#    x 1.734490 0.000000 0.000000 
#    y 0.000000 1.823000 0.000000 
#    z 0.000000 0.000000 1.814070 
# 
# From -- ./inp_files/34574.got.cif
#   From: 2010.05.17/outbox.cif.g08.bks.cpg/sg53_18_cif.got.tgz:34574.got - 2010.06.03 12:45:16.
