data_PCOD9414971
_publ_section_title
;
Structure prediction by ZEFSAII (Michael W. Deem and Ramdas Pophale) SiO2 
 PCOD9414971
Probable space group: P M N A
;
_chemical_formula_sum "Si O2"
_cell_formula_units_Z 64
_cell_length_a 8.715813
_cell_length_b 12.913326
_cell_length_c 30.201578
_cell_angle_alpha 90.000000
_cell_angle_beta 90.000000
_cell_angle_gamma 90.000000
_cell_volume 3399.191670
_symmetry_space_group_name_H-M "P M N A"
_symmetry_group_IT_number 53
_symmetry_cell_setting 'orthorhombic'
loop_
_space_group_symop_operation_xyz
x,y,z
1/2-x,-y,1/2+z
x,-y,-z
1/2-x,y,1/2-z
-x,-y,-z
1/2+x,y,1/2-z
-x,y,z
1/2+x,-y,1/2+z
loop_
_atom_site_type_symbol
_atom_site_label
_atom_site_fract_x
_atom_site_fract_y
_atom_site_fract_z
Si Si1 0.680717 0.411782 0.079149
Si Si2 0.815979 0.625474 0.109692
Si Si3 0.317969 0.878245 0.703521
Si Si4 0.185263 0.783058 0.963028
Si Si5 0.816300 0.428227 0.704089
Si Si6 0.187507 0.046490 0.108582
Si Si7 0.819255 0.339599 0.320220
Si Si8 0.313140 0.836320 0.438688
O O1 0.500000 0.424619 0.071800
O O2 0.757180 0.524089 0.083642
O O3 0.751729 0.332145 0.044355
O O4 0.702162 0.357837 0.127327
O O5 0.750945 0.621003 0.159516
O O6 0.767060 0.730912 0.085739
O O7 0.000000 0.378126 0.888577
O O8 0.250000 0.914987 0.750000
O O9 0.500000 0.888407 0.705401
O O10 0.261071 0.935345 0.658982
O O11 0.274825 0.757644 0.696809
O O12 0.234686 0.858826 0.923219
O O13 0.000000 0.778315 0.962327
O O14 0.233850 0.830245 0.010076
O O15 0.750000 0.386079 0.750000
O O16 0.775250 0.550458 0.700853
O O17 0.000000 0.420765 0.703262
O O18 0.000000 0.046655 0.109003
O O19 0.238853 0.938841 0.086903
O O20 0.000000 0.320913 0.311854
O O21 0.500000 0.839279 0.438587
#
# Coordination Sequence:
#
# PCOD9414971 Si02
#       8
#     8   8   8   8   8   8   8   8
#     4  10  20  34  53  79 115 149 176 220 275 330
#     4  10  20  35  55  79 110 148 186 228 273 326
#     4  11  21  32  51  79 109 142 177 215 265 324
#     4  10  18  33  60  88 109 137 181 229 279 335
#     4  10  20  34  53  79 108 144 184 229 277 327
#     4   9  18  34  56  83 111 140 179 228 275 324
#     4   9  18  32  50  74 107 141 172 212 263 319
#     4   9  19  35  57  83 109 140 184 234 277 322
#
# _framework density 18.828005999999998
#
# number of rings (size 3 to 8) (size 9 to 14) (size 15 to 20)
#    0.000    2.250    1.250    3.000    0.000    5.500 
#    0.000    4.375    0.000    9.000    0.000    0.000 
#    0.000    0.000    0.000    0.000    0.000    0.000 
#
# Total GULP energy -357221.723548 kJ/mol
# GULP energy per Si atom -5581.589430 kJ/mol
# Density = 1.878515 g / cm^3
# Si number density = 18.828006 Si / 1000 Ang^3
#
#
#
# Elastic Constant Matrix: (Units=GPa)
#
#
# Indices 1 2 3 4 5 6 
#
# 1 22.0273 21.1606 26.7905 0.0000 0.0000 0.0000
# 2 21.1606 96.3147 51.4582 0.0000 0.0000 0.0000
# 3 26.7905 51.4582 114.5318 0.0000 0.0000 0.0000
# 4 0.0000 0.0000 0.0000 -2.5836 0.0000 0.0000
# 5 0.0000 0.0000 0.0000 0.0000 23.6926 0.0000
# 6 0.0000 0.0000 0.0000 0.0000 0.0000 5.1576
#
#
#
# Elastic Compliance Matrix: (Units=1/GPa)
#
#
# Indices 1 2 3 4 5 6 
#
# 1 0.068384 -0.008524 -0.012166 0.000000 0.000000 0.000000
# 2 -0.008524 0.014725 -0.004622 0.000000 0.000000 0.000000
# 3 -0.012166 -0.004622 0.013654 0.000000 0.000000 0.000000
# 4 0.000000 0.000000 0.000000 -0.387056 0.000000 0.000000
# 5 0.000000 0.000000 0.000000 0.000000 0.042207 0.000000
# 6 0.000000 0.000000 0.000000 0.000000 0.000000 0.193890
#
#
# Mechanical properties :
#
#
# Convention : Reuss Voigt Hill
#
# Bulk Modulus (GPa) = 21.67402 47.96582 34.81992
# Shear Modulus (GPa) = 423.49288 14.15094 218.82191
#
# Velocity S-wave (km/s) = 15.01384 2.74449 10.79230
# Velocity P-wave (km/s) = 17.66608 5.96440 13.18455
#
# Compressibility (1/GPa) = 0.04613818
#
# Stress axis : x y z
#
# Youngs Moduli (GPa) = 14.62332 67.91313 73.24111
#
# Poissons Ratio (x) = 0.57890 0.89106
# Poissons Ratio (y) = 0.12465 0.33850
# Poissons Ratio (z) = 0.17791 0.31388
#
# Static dielectric constant tensor:
#      x y z
#    x 1.632620 0.000000 0.000000 
#    y 0.000000 1.627420 0.000000 
#    z 0.000000 0.000000 1.670780 
# 
# From -- ./inp_files/38150.got.cif
#   From: 2010.05.17/outbox.cif.g08.bks.cpg/sg53_20_cif.got.tgz:38150.got - 2010.06.03 12:45:16.
