data_PCOD9414952
_publ_section_title
;
Structure prediction by ZEFSAII (Michael W. Deem and Ramdas Pophale) SiO2 
 PCOD9414952
Probable space group: P M N A
;
_chemical_formula_sum "Si O2"
_cell_formula_units_Z 48
_cell_length_a 8.430931
_cell_length_b 16.909765
_cell_length_c 18.310799
_cell_angle_alpha 90.000000
_cell_angle_beta 90.000000
_cell_angle_gamma 90.000000
_cell_volume 2610.480194
_symmetry_space_group_name_H-M "P M N A"
_symmetry_group_IT_number 53
_symmetry_cell_setting 'orthorhombic'
loop_
_space_group_symop_operation_xyz
x,y,z
1/2-x,-y,1/2+z
x,-y,-z
1/2-x,y,1/2-z
-x,-y,-z
1/2+x,y,1/2-z
-x,y,z
1/2+x,-y,1/2+z
loop_
_atom_site_type_symbol
_atom_site_label
_atom_site_fract_x
_atom_site_fract_y
_atom_site_fract_z
Si Si1 0.313079 0.842297 0.329606
Si Si2 0.309343 0.349275 0.167687
Si Si3 0.311057 0.088460 0.978631
Si Si4 0.693211 0.491802 0.915747
Si Si5 0.813649 0.247192 0.039361
Si Si6 0.312295 0.682892 0.108404
O O1 0.250000 0.863855 0.250000
O O2 0.500000 0.854616 0.334277
O O3 0.230302 0.890227 0.395012
O O4 0.275032 0.749855 0.345156
O O5 0.250000 0.344132 0.250000
O O6 0.500000 0.345673 0.165461
O O7 0.258072 0.432667 0.131264
O O8 0.239128 0.280634 0.116887
O O9 0.500000 0.095973 0.988697
O O10 0.226519 0.155443 0.026894
O O11 0.262846 0.000000 0.000000
O O12 0.500000 0.490373 0.917296
O O13 0.743152 0.407313 0.883005
O O14 0.746253 0.500000 0.000000
O O15 0.000000 0.260131 0.027447
O O16 0.718084 0.293891 0.976204
O O17 0.500000 0.688226 0.123467
#
# Coordination Sequence:
#
# PCOD9414952 Si02
#       6
#     8   8   8   8   8   8
#     4  11  22  37  57  84 119 153 188 231 284 336
#     4  11  22  38  56  78 111 148 192 240 289 336
#     4  10  21  39  64  91 116 146 185 227 277 338
#     4   9  17  32  55  80 107 148 192 235 284 333
#     4  11  21  35  56  83 112 146 186 226 274 331
#     4  10  18  33  57  82 110 147 190 232 279 334
#
# _framework density 18.387422000000001
#
# number of rings (size 3 to 8) (size 9 to 14) (size 15 to 20)
#    0.000    1.667    1.667    6.500    0.000    2.000 
#    0.000    6.667    0.000    4.000    0.000    0.000 
#    0.000    0.000    0.000    0.000    0.000    0.000 
#
# Total GULP energy -268138.726542 kJ/mol
# GULP energy per Si atom -5586.223470 kJ/mol
# Density = 1.834557 g / cm^3
# Si number density = 18.387422 Si / 1000 Ang^3
#
#
#
# Elastic Constant Matrix: (Units=GPa)
#
#
# Indices 1 2 3 4 5 6 
#
# 1 33.4757 4.1014 -6.1758 0.0000 0.0000 0.0000
# 2 4.1014 116.9431 48.8157 0.0000 0.0000 0.0000
# 3 -6.1758 48.8157 99.0775 0.0000 0.0000 0.0000
# 4 0.0000 0.0000 0.0000 16.0636 0.0000 0.0000
# 5 0.0000 0.0000 0.0000 0.0000 21.5758 0.0000
# 6 0.0000 0.0000 0.0000 0.0000 0.0000 13.2034
#
#
#
# Elastic Compliance Matrix: (Units=1/GPa)
#
#
# Indices 1 2 3 4 5 6 
#
# 1 0.030730 -0.002363 0.003080 0.000000 0.000000 0.000000
# 2 -0.002363 0.010947 -0.005541 0.000000 0.000000 0.000000
# 3 0.003080 -0.005541 0.013015 0.000000 0.000000 0.000000
# 4 0.000000 0.000000 0.000000 0.062252 0.000000 0.000000
# 5 0.000000 0.000000 0.000000 0.000000 0.046348 0.000000
# 6 0.000000 0.000000 0.000000 0.000000 0.000000 0.075738
#
#
# Mechanical properties :
#
#
# Convention : Reuss Voigt Hill
#
# Bulk Modulus (GPa) = 22.20072 38.10877 30.15475
# Shear Modulus (GPa) = 18.96135 23.68557 21.32346
#
# Velocity S-wave (km/s) = 3.21473 3.59296 3.40910
# Velocity P-wave (km/s) = 5.08718 6.16303 5.65077
#
# Compressibility (1/GPa) = 0.04504358
#
# Stress axis : x y z
#
# Youngs Moduli (GPa) = 32.54123 91.34907 76.83365
#
# Poissons Ratio (x) = 0.21590 -0.23665
# Poissons Ratio (y) = 0.07691 0.42573
# Poissons Ratio (z) = -0.10023 0.50616
#
# Static dielectric constant tensor:
#      x y z
#    x 1.616080 0.000000 0.000000 
#    y 0.000000 1.635160 0.000000 
#    z 0.000000 0.000000 1.612330 
# 
# From -- ./inp_files/26436.got.cif
#   From: 2010.05.17/outbox.cif.g08.bks.cpg/sg53_14_cif.got.tgz:26436.got - 2010.06.03 12:45:16.
