data_PCOD9414235
_publ_section_title
;
Structure prediction by ZEFSAII (Michael W. Deem and Ramdas Pophale) SiO2 
 PCOD9414235
Probable space group: P M N A
;
_chemical_formula_sum "Si O2"
_cell_formula_units_Z 44
_cell_length_a 18.315539
_cell_length_b 18.954061
_cell_length_c 5.559902
_cell_angle_alpha 90.000000
_cell_angle_beta 90.000000
_cell_angle_gamma 90.000000
_cell_volume 1930.141349
_symmetry_space_group_name_H-M "P M N A"
_symmetry_group_IT_number 53
_symmetry_cell_setting 'orthorhombic'
loop_
_space_group_symop_operation_xyz
x,y,z
1/2-x,-y,1/2+z
x,-y,-z
1/2-x,y,1/2-z
-x,-y,-z
1/2+x,y,1/2-z
-x,y,z
1/2+x,-y,1/2+z
loop_
_atom_site_type_symbol
_atom_site_label
_atom_site_fract_x
_atom_site_fract_y
_atom_site_fract_z
Si Si1 0.500000 0.455862 0.743374
Si Si2 0.325276 0.138015 0.011422
Si Si3 0.500000 0.220326 0.697603
Si Si4 0.375091 0.659724 0.324918
Si Si5 0.660413 0.917201 0.496238
Si Si6 0.500000 0.777558 0.801932
Si Si7 0.344100 0.705715 0.839190
O O1 0.500000 0.500000 0.500000
O O2 0.429101 0.406223 0.706723
O O3 0.500000 0.500000 0.000000
O O4 0.360958 0.121850 0.752200
O O5 0.367079 0.112340 0.248946
O O6 0.248076 0.097222 0.002843
O O7 0.309929 0.219544 0.075208
O O8 0.429260 0.271871 0.689870
O O9 0.500000 0.181333 0.446187
O O10 0.500000 0.181267 0.949452
O O11 0.331453 0.671059 0.576624
O O12 0.331518 0.659051 0.074389
O O13 0.646358 0.000000 0.500000
O O14 0.430024 0.726217 0.813877
#
# Coordination Sequence:
#
# PCOD9414235 Si02
#       7
#     4   8   4   8   8   4   8
#     4  11  20  31  48  68  92 136 177 198 229 278
#     4  10  18  28  47  70  90 121 159 189 237 300
#     4   7  12  22  36  49  72 110 136 168 209 242
#     4   9  17  28  40  60  91 119 154 196 228 264
#     4  10  19  33  48  69  96 122 152 199 245 293
#     4   8  14  23  36  55  81 106 141 176 209 260
#     4  10  17  28  44  65  91 124 155 192 238 285
#
# _framework density 22.796258999999999
#
# number of rings (size 3 to 8) (size 9 to 14) (size 15 to 20)
#    0.000    2.545    0.000    6.000    0.000    1.455 
#    0.000    0.000    0.000    0.000    0.000    7.000 
#    0.000    0.000    0.000  183.273    0.000    0.000 
#
# Total GULP energy -245030.840757 kJ/mol
# GULP energy per Si atom -5568.882744 kJ/mol
# Density = 2.274437 g / cm^3
# Si number density = 22.796259 Si / 1000 Ang^3
#
#
#
# Elastic Constant Matrix: (Units=GPa)
#
#
# Indices 1 2 3 4 5 6 
#
# 1 45.1015 7.7145 28.7971 0.0000 0.0000 0.0000
# 2 7.7145 120.6350 77.8827 0.0000 0.0000 0.0000
# 3 28.7971 77.8827 346.4909 0.0000 0.0000 0.0000
# 4 0.0000 0.0000 0.0000 36.3904 0.0000 0.0000
# 5 0.0000 0.0000 0.0000 0.0000 11.5914 0.0000
# 6 0.0000 0.0000 0.0000 0.0000 0.0000 154.6583
#
#
#
# Elastic Compliance Matrix: (Units=1/GPa)
#
#
# Indices 1 2 3 4 5 6 
#
# 1 0.023423 -0.000282 -0.001883 0.000000 0.000000 0.000000
# 2 -0.000282 0.009700 -0.002157 0.000000 0.000000 0.000000
# 3 -0.001883 -0.002157 0.003527 0.000000 0.000000 0.000000
# 4 0.000000 0.000000 0.000000 0.027480 0.000000 0.000000
# 5 0.000000 0.000000 0.000000 0.000000 0.086271 0.000000
# 6 0.000000 0.000000 0.000000 0.000000 0.000000 0.006466
#
#
# Mechanical properties :
#
#
# Convention : Reuss Voigt Hill
#
# Bulk Modulus (GPa) = 35.70668 82.33512 59.02090
# Shear Modulus (GPa) = 28.59650 67.05021 47.82335
#
# Velocity S-wave (km/s) = 3.54565 5.42924 4.58521
# Velocity P-wave (km/s) = 5.69733 8.68898 7.34704
#
# Compressibility (1/GPa) = 0.02800596
#
# Stress axis : x y z
#
# Youngs Moduli (GPa) = 42.69318 103.09279 283.49344
#
# Poissons Ratio (x) = 0.02907 0.53391
# Poissons Ratio (y) = 0.01204 0.61146
# Poissons Ratio (z) = 0.08040 0.22236
#
# Static dielectric constant tensor:
#      x y z
#    x 1.913620 0.000000 0.000000 
#    y 0.000000 1.883820 0.000000 
#    z 0.000000 0.000000 2.022920 
# 
# From -- ./inp_files/4451.got.cif
#   From: 2010.05.17/outbox.cif.g08.bks.cpg/sg53_3_cif.got.tgz:4451.got - 2010.06.03 12:45:16.
