data_PCOD9414750
_publ_section_title
;
Structure prediction by ZEFSAII (Michael W. Deem and Ramdas Pophale) SiO2 
 PCOD9414750
Probable space group: P M N A
;
_chemical_formula_sum "Si O2"
_cell_formula_units_Z 64
_cell_length_a 9.217724
_cell_length_b 20.505501
_cell_length_c 19.566044
_cell_angle_alpha 90.000000
_cell_angle_beta 90.000000
_cell_angle_gamma 90.000000
_cell_volume 3698.257193
_symmetry_space_group_name_H-M "P M N A"
_symmetry_group_IT_number 53
_symmetry_cell_setting 'orthorhombic'
loop_
_space_group_symop_operation_xyz
x,y,z
1/2-x,-y,1/2+z
x,-y,-z
1/2-x,y,1/2-z
-x,-y,-z
1/2+x,y,1/2-z
-x,y,z
1/2+x,-y,1/2+z
loop_
_atom_site_type_symbol
_atom_site_label
_atom_site_fract_x
_atom_site_fract_y
_atom_site_fract_z
Si Si1 0.328327 0.844356 0.067097
Si Si2 0.673976 0.901609 0.677191
Si Si3 0.333397 0.485052 0.081673
Si Si4 0.329014 0.643283 0.554108
Si Si5 0.828068 0.732800 0.319790
Si Si6 0.674597 0.792725 0.569119
Si Si7 0.673235 0.021810 0.578005
Si Si8 0.671221 0.614590 0.392345
O O1 0.500000 0.851953 0.056048
O O2 0.305599 0.787907 0.122861
O O3 0.258936 0.912007 0.091542
O O4 0.251245 0.822711 0.997134
O O5 0.750000 0.904339 0.750000
O O6 0.500000 0.902229 0.686016
O O7 0.711978 0.836574 0.634499
O O8 0.711796 0.963619 0.629625
O O9 0.500000 0.486930 0.104705
O O10 0.262856 0.413949 0.088777
O O11 0.238771 0.542653 0.114258
O O12 0.332512 0.500000 0.000000
O O13 0.500000 0.633365 0.568109
O O14 0.287534 0.716466 0.575176
O O15 0.310686 0.636201 0.471925
O O16 0.750000 0.752332 0.250000
O O17 0.756173 0.666238 0.346583
O O18 0.000000 0.724343 0.309612
O O19 0.500000 0.796790 0.559026
O O20 0.500000 0.033385 0.582942
O O21 0.703074 0.000000 0.500000
O O22 0.500000 0.614710 0.377400
#
# Coordination Sequence:
#
# PCOD9414750 Si02
#       8
#     8   8   8   8   8   8   8   8
#     4  11  23  36  56  86 115 142 183 239 285 329
#     4  10  22  39  60  85 114 148 185 226 276 333
#     4   9  17  28  45  73 111 144 174 224 279 329
#     4   9  17  29  51  80 106 139 185 232 274 328
#     4  11  24  39  54  77 111 150 191 233 285 343
#     4  10  19  36  59  82 112 151 190 227 279 341
#     4  10  20  38  62  83 110 149 190 227 271 333
#     4  10  18  31  53  77 105 142 184 232 281 332
#
# _framework density 17.305447999999998
#
# number of rings (size 3 to 8) (size 9 to 14) (size 15 to 20)
#    0.000    2.000    2.500    1.500    0.000    5.750 
#    0.000    2.500    0.000    0.750    0.000    3.500 
#    0.000    0.000    0.000    0.000    0.000    0.000 
#
# Total GULP energy -357250.253169 kJ/mol
# GULP energy per Si atom -5582.035206 kJ/mol
# Density = 1.726606 g / cm^3
# Si number density = 17.305448 Si / 1000 Ang^3
#
#
#
# Elastic Constant Matrix: (Units=GPa)
#
#
# Indices 1 2 3 4 5 6 
#
# 1 70.0550 65.4593 54.2558 0.0000 0.0000 0.0000
# 2 65.4593 152.6596 57.8785 0.0000 0.0000 0.0000
# 3 54.2558 57.8785 94.2389 0.0000 0.0000 0.0000
# 4 0.0000 0.0000 0.0000 17.1012 0.0000 0.0000
# 5 0.0000 0.0000 0.0000 0.0000 27.3389 0.0000
# 6 0.0000 0.0000 0.0000 0.0000 0.0000 0.1568
#
#
#
# Elastic Compliance Matrix: (Units=1/GPa)
#
#
# Indices 1 2 3 4 5 6 
#
# 1 0.033334 -0.009147 -0.013573 0.000000 0.000000 0.000000
# 2 -0.009147 0.011049 -0.001520 0.000000 0.000000 0.000000
# 3 -0.013573 -0.001520 0.019359 0.000000 0.000000 0.000000
# 4 0.000000 0.000000 0.000000 0.058475 0.000000 0.000000
# 5 0.000000 0.000000 0.000000 0.000000 0.036578 0.000000
# 6 0.000000 0.000000 0.000000 0.000000 0.000000 6.377198
#
#
# Mechanical properties :
#
#
# Convention : Reuss Voigt Hill
#
# Bulk Modulus (GPa) = 65.52342 74.68232 70.10287
# Shear Modulus (GPa) = 0.75878 18.21005 9.48441
#
# Velocity S-wave (km/s) = 0.66288 3.24739 2.34361
# Velocity P-wave (km/s) = 6.20733 7.57033 6.92246
#
# Compressibility (1/GPa) = 0.01526172
#
# Stress axis : x y z
#
# Youngs Moduli (GPa) = 29.99968 90.50669 51.65545
#
# Poissons Ratio (x) = 0.82788 0.70113
# Poissons Ratio (y) = 0.27441 0.07850
# Poissons Ratio (z) = 0.40719 0.13753
#
# Static dielectric constant tensor:
#      x y z
#    x 1.575190 0.000000 0.000000 
#    y 0.000000 1.582480 0.000000 
#    z 0.000000 0.000000 1.564690 
# 
# From -- ./inp_files/27022.got.cif
#   From: 2010.05.17/outbox.cif.g08.bks.cpg/sg53_14_cif.got.tgz:27022.got - 2010.06.03 12:45:16.
