data_PCOD9414538
_publ_section_title
;
Structure prediction by ZEFSAII (Michael W. Deem and Ramdas Pophale) SiO2 
 PCOD9414538
Probable space group: P M N A
;
_chemical_formula_sum "Si O2"
_cell_formula_units_Z 64
_cell_length_a 20.828836
_cell_length_b 10.480957
_cell_length_c 18.490186
_cell_angle_alpha 90.000000
_cell_angle_beta 90.000000
_cell_angle_gamma 90.000000
_cell_volume 4036.521031
_symmetry_space_group_name_H-M "P M N A"
_symmetry_group_IT_number 53
_symmetry_cell_setting 'orthorhombic'
loop_
_space_group_symop_operation_xyz
x,y,z
1/2-x,-y,1/2+z
x,-y,-z
1/2-x,y,1/2-z
-x,-y,-z
1/2+x,y,1/2-z
-x,y,z
1/2+x,-y,1/2+z
loop_
_atom_site_type_symbol
_atom_site_label
_atom_site_fract_x
_atom_site_fract_y
_atom_site_fract_z
Si Si1 0.613679 0.122536 0.951061
Si Si2 0.073623 0.719312 0.696529
Si Si3 0.572674 0.020559 0.801124
Si Si4 0.731822 0.877172 0.451213
Si Si5 0.689316 0.978003 0.302358
Si Si6 0.310528 0.717797 0.696898
Si Si7 0.230262 0.628172 0.957061
Si Si8 0.385512 0.628327 0.957399
O O1 0.690914 0.124147 0.940407
O O2 0.582508 0.102595 0.873190
O O3 0.595670 0.249989 0.993925
O O4 0.597640 0.000000 0.000000
O O5 0.083987 0.870587 0.679715
O O6 0.125319 0.686117 0.758100
O O7 0.085548 0.643708 0.622317
O O8 0.000000 0.703438 0.720109
O O9 0.500000 0.032449 0.774715
O O10 0.625127 0.053675 0.741306
O O11 0.713441 0.750017 0.493791
O O12 0.717260 0.000000 0.500000
O O13 0.698780 0.897310 0.374410
O O14 0.750000 0.957259 0.250000
O O15 0.688879 0.129888 0.319889
O O16 0.250000 0.695415 0.750000
O O17 0.300624 0.643822 0.621969
O O18 0.307924 0.630627 0.948142
O O19 0.213292 0.500000 0.000000
O O20 0.402968 0.500000 0.000000
#
# Coordination Sequence:
#
# PCOD9414538 Si02
#       8
#     8   8   8   8   8   8   8   8
#     4  10  18  29  50  74 102 135 171 202 247 306
#     4  10  20  33  51  76 104 136 174 213 251 303
#     4  10  20  32  49  76 107 137 170 213 260 303
#     4  10  18  30  52  79 102 128 170 212 253 299
#     4  10  18  30  52  79 102 132 172 218 255 295
#     4  10  18  31  55  76 100 136 173 209 256 303
#     4  10  20  34  52  80 108 136 167 213 262 305
#     4  10  20  33  49  75 110 141 171 204 251 308
#
# _framework density 15.855238
#
# number of rings (size 3 to 8) (size 9 to 14) (size 15 to 20)
#    0.000    2.000    5.000    0.000    0.000    1.000 
#    0.000    1.875    0.000    1.500    0.000    0.000 
#    0.000    0.000    0.000    0.000    0.000    0.000 
#
# Total GULP energy -357031.756224 kJ/mol
# GULP energy per Si atom -5578.621191 kJ/mol
# Density = 1.581915 g / cm^3
# Si number density = 15.855238 Si / 1000 Ang^3
#
#
#
# Elastic Constant Matrix: (Units=GPa)
#
#
# Indices 1 2 3 4 5 6 
#
# 1 71.9579 33.3952 55.2590 0.0000 0.0000 0.0000
# 2 33.3952 89.2529 51.3631 0.0000 0.0000 0.0000
# 3 55.2590 51.3631 116.5874 0.0000 0.0000 0.0000
# 4 0.0000 0.0000 0.0000 25.1664 0.0000 0.0000
# 5 0.0000 0.0000 0.0000 0.0000 21.9974 0.0000
# 6 0.0000 0.0000 0.0000 0.0000 0.0000 10.4900
#
#
#
# Elastic Compliance Matrix: (Units=1/GPa)
#
#
# Indices 1 2 3 4 5 6 
#
# 1 0.022453 -0.003050 -0.009298 0.000000 0.000000 0.000000
# 2 -0.003050 0.015424 -0.005349 0.000000 0.000000 0.000000
# 3 -0.009298 -0.005349 0.015341 0.000000 0.000000 0.000000
# 4 0.000000 0.000000 0.000000 0.039736 0.000000 0.000000
# 5 0.000000 0.000000 0.000000 0.000000 0.045460 0.000000
# 6 0.000000 0.000000 0.000000 0.000000 0.000000 0.095329
#
#
# Mechanical properties :
#
#
# Convention : Reuss Voigt Hill
#
# Bulk Modulus (GPa) = 56.10950 61.98142 59.04546
# Shear Modulus (GPa) = 18.17662 20.71615 19.44638
#
# Velocity S-wave (km/s) = 3.38954 3.61859 3.50594
# Velocity P-wave (km/s) = 7.12630 7.52568 7.32871
#
# Compressibility (1/GPa) = 0.01782230
#
# Stress axis : x y z
#
# Youngs Moduli (GPa) = 44.53732 64.83485 65.18445
#
# Poissons Ratio (x) = 0.19775 0.60611
# Poissons Ratio (y) = 0.13584 0.34869
# Poissons Ratio (z) = 0.41412 0.34682
#
# Static dielectric constant tensor:
#      x y z
#    x 1.529770 0.000000 0.000000 
#    y 0.000000 1.525280 0.000000 
#    z 0.000000 0.000000 1.505550 
# 
# From -- ./inp_files/29100.got.cif
#   From: 2010.05.17/outbox.cif.g08.bks.cpg/sg53_15_cif.got.tgz:29100.got - 2010.06.03 12:45:16.
