data_PCOD9414514
_publ_section_title
;
Structure prediction by ZEFSAII (Michael W. Deem and Ramdas Pophale) SiO2 
 PCOD9414514
Probable space group: P M N A
;
_chemical_formula_sum "Si O2"
_cell_formula_units_Z 64
_cell_length_a 8.363108
_cell_length_b 17.083325
_cell_length_c 24.416727
_cell_angle_alpha 90.000000
_cell_angle_beta 90.000000
_cell_angle_gamma 90.000000
_cell_volume 3488.410266
_symmetry_space_group_name_H-M "P M N A"
_symmetry_group_IT_number 53
_symmetry_cell_setting 'orthorhombic'
loop_
_space_group_symop_operation_xyz
x,y,z
1/2-x,-y,1/2+z
x,-y,-z
1/2-x,y,1/2-z
-x,-y,-z
1/2+x,y,1/2-z
-x,y,z
1/2+x,-y,1/2+z
loop_
_atom_site_type_symbol
_atom_site_label
_atom_site_fract_x
_atom_site_fract_y
_atom_site_fract_z
Si Si1 0.687126 0.883473 0.688832
Si Si2 0.313023 0.805506 0.528013
Si Si3 0.693688 0.131931 0.584753
Si Si4 0.306670 0.770108 0.312418
Si Si5 0.686224 0.730252 0.866655
Si Si6 0.185191 0.041758 0.416843
Si Si7 0.807353 0.573786 0.813165
Si Si8 0.807482 0.402429 0.812667
O O1 0.750000 0.891357 0.750000
O O2 0.500000 0.902213 0.685474
O O3 0.715631 0.794824 0.667798
O O4 0.783027 0.937824 0.646673
O O5 0.500000 0.785632 0.531440
O O6 0.262798 0.809639 0.464823
O O7 0.219646 0.749963 0.569851
O O8 0.287506 0.893865 0.550621
O O9 0.500000 0.125346 0.584547
O O10 0.745930 0.165896 0.643356
O O11 0.764899 0.046887 0.573191
O O12 0.250000 0.782213 0.250000
O O13 0.500000 0.770999 0.311447
O O14 0.254619 0.683126 0.332892
O O15 0.500000 0.742980 0.854714
O O16 0.737203 0.644309 0.848366
O O17 0.000000 0.054136 0.430520
O O18 0.750000 0.581483 0.750000
O O19 0.756301 0.487381 0.834761
O O20 0.000000 0.578194 0.813588
O O21 0.750000 0.403295 0.750000
O O22 0.000000 0.402467 0.814339
#
# Coordination Sequence:
#
# PCOD9414514 Si02
#       8
#     8   8   8   8   8   8   8   8
#     4  11  21  35  52  71 100 135 169 204 248 299
#     4  10  20  36  55  73  96 130 169 209 254 297
#     4  10  21  36  55  76 100 130 166 208 252 299
#     4   9  18  34  54  78 105 132 162 200 247 296
#     4  11  21  33  49  72 101 132 167 207 249 293
#     4  11  22  35  52  75 101 130 167 210 253 297
#     4  10  18  29  47  74 104 134 168 203 242 290
#     4   8  15  28  48  72 100 131 163 200 241 287
#
# _framework density 18.346467000000001
#
# number of rings (size 3 to 8) (size 9 to 14) (size 15 to 20)
#    0.000    2.000    0.000    6.375    0.000    4.000 
#    0.000    1.250    0.000    0.750    0.000    5.250 
#    0.000    0.000    0.000    0.000    0.000    0.000 
#
# Total GULP energy -357024.245783 kJ/mol
# GULP energy per Si atom -5578.503840 kJ/mol
# Density = 1.830471 g / cm^3
# Si number density = 18.346467 Si / 1000 Ang^3
#
#
#
# Elastic Constant Matrix: (Units=GPa)
#
#
# Indices 1 2 3 4 5 6 
#
# 1 27.5077 -0.9471 -2.0090 0.0000 0.0000 0.0000
# 2 -0.9471 42.8871 0.2881 0.0000 0.0000 0.0000
# 3 -2.0090 0.2881 67.5815 0.0000 0.0000 0.0000
# 4 0.0000 0.0000 0.0000 15.0027 0.0000 0.0000
# 5 0.0000 0.0000 0.0000 0.0000 20.2348 0.0000
# 6 0.0000 0.0000 0.0000 0.0000 0.0000 19.3658
#
#
#
# Elastic Compliance Matrix: (Units=1/GPa)
#
#
# Indices 1 2 3 4 5 6 
#
# 1 0.036460 0.000798 0.001080 0.000000 0.000000 0.000000
# 2 0.000798 0.023335 -0.000076 0.000000 0.000000 0.000000
# 3 0.001080 -0.000076 0.014829 0.000000 0.000000 0.000000
# 4 0.000000 0.000000 0.000000 0.066655 0.000000 0.000000
# 5 0.000000 0.000000 0.000000 0.000000 0.049420 0.000000
# 6 0.000000 0.000000 0.000000 0.000000 0.000000 0.051637
#
#
# Mechanical properties :
#
#
# Convention : Reuss Voigt Hill
#
# Bulk Modulus (GPa) = 12.78290 14.73781 13.76035
# Shear Modulus (GPa) = 18.88164 20.29696 19.58930
#
# Velocity S-wave (km/s) = 3.21155 3.32974 3.27118
# Velocity P-wave (km/s) = 4.55354 4.77843 4.66734
#
# Compressibility (1/GPa) = 0.07822954
#
# Stress axis : x y z
#
# Youngs Moduli (GPa) = 27.42743 42.85378 67.43363
#
# Poissons Ratio (x) = -0.03419 -0.07286
# Poissons Ratio (y) = -0.02188 0.00511
# Poissons Ratio (z) = -0.02963 0.00325
#
# Static dielectric constant tensor:
#      x y z
#    x 1.628000 0.000000 0.000000 
#    y 0.000000 1.650430 0.000000 
#    z 0.000000 0.000000 1.625770 
# 
# From -- ./inp_files/34483.got.cif
#   From: 2010.05.17/outbox.cif.g08.bks.cpg/sg53_18_cif.got.tgz:34483.got - 2010.06.03 12:45:16.
