data_PCOD9414899
_publ_section_title
;
Structure prediction by ZEFSAII (Michael W. Deem and Ramdas Pophale) SiO2 
 PCOD9414899
Probable space group: P M N A
;
_chemical_formula_sum "Si O2"
_cell_formula_units_Z 64
_cell_length_a 15.898454
_cell_length_b 24.459979
_cell_length_c 8.640711
_cell_angle_alpha 90.000000
_cell_angle_beta 90.000000
_cell_angle_gamma 90.000000
_cell_volume 3360.163843
_symmetry_space_group_name_H-M "P M N A"
_symmetry_group_IT_number 53
_symmetry_cell_setting 'orthorhombic'
loop_
_space_group_symop_operation_xyz
x,y,z
1/2-x,-y,1/2+z
x,-y,-z
1/2-x,y,1/2-z
-x,-y,-z
1/2+x,y,1/2-z
-x,y,z
1/2+x,-y,1/2+z
loop_
_atom_site_type_symbol
_atom_site_label
_atom_site_fract_x
_atom_site_fract_y
_atom_site_fract_z
Si Si1 0.850682 0.756689 0.934294
Si Si2 0.905703 0.871057 0.065499
Si Si3 0.149318 0.243311 0.434294
Si Si4 0.405703 0.871057 0.065499
Si Si5 0.250000 0.561144 0.562336
Si Si6 0.906050 0.364417 0.438603
Si Si7 0.250000 0.060916 0.066300
Si Si8 0.093950 0.635583 0.938603
O O1 0.866979 0.762456 0.750000
O O2 0.750000 0.757229 0.955861
O O3 0.885507 0.697851 0.985055
O O4 0.890517 0.808006 0.020041
O O5 0.899776 0.876750 0.250000
O O6 0.000000 0.887232 0.016105
O O7 0.832443 0.906622 0.989669
O O8 0.109483 0.191994 0.520041
O O9 0.114493 0.302149 0.485055
O O10 0.500000 0.887232 0.016105
O O11 0.332443 0.906622 0.989669
O O12 0.250000 0.500000 0.500000
O O13 0.250000 0.560051 0.750000
O O14 0.167305 0.594672 0.511095
O O15 0.332695 0.594672 0.511095
O O16 0.904508 0.364394 0.250000
O O17 0.000000 0.379896 0.488465
O O18 0.250000 0.059058 0.250000
O O19 0.250000 0.000000 0.000000
O O20 0.000000 0.620104 0.988465
#
# Coordination Sequence:
#
# PCOD9414899 Si02
#       8
#     8   8   8   8   8   8   8   8
#     4  10  18  32  58  89 116 148 189 235 287 344
#     4  11  24  41  62  91 127 163 196 236 291 353
#     4  10  18  32  58  89 116 148 189 235 287 344
#     4  11  24  41  62  91 127 163 196 236 291 353
#     4  10  20  35  52  73 101 138 186 232 281 334
#     4   9  17  31  53  79 108 142 181 227 279 339
#     4  12  26  45  68  91 119 158 204 252 297 342
#     4   9  17  31  53  79 108 142 181 227 279 339
#
# _framework density 19.046690999999999
#
# number of rings (size 3 to 8) (size 9 to 14) (size 15 to 20)
#    0.000    1.750    2.500    2.625    0.000    4.000 
#    0.000    1.250    0.000    1.500    0.000    0.000 
#    0.000    0.000    0.000    0.000    0.000    0.000 
#
# Total GULP energy -357584.371929 kJ/mol
# GULP energy per Si atom -5587.255811 kJ/mol
# Density = 1.900334 g / cm^3
# Si number density = 19.046691 Si / 1000 Ang^3
#
#
#
# Elastic Constant Matrix: (Units=GPa)
#
#
# Indices 1 2 3 4 5 6 
#
# 1 191.0109 102.8461 56.1780 0.0000 0.0000 0.0000
# 2 102.8461 158.9336 35.8278 0.0000 0.0000 0.0000
# 3 56.1780 35.8278 42.5296 0.0000 0.0000 0.0000
# 4 0.0000 0.0000 0.0000 33.2947 0.0000 0.0000
# 5 0.0000 0.0000 0.0000 0.0000 2.3341 0.0000
# 6 0.0000 0.0000 0.0000 0.0000 0.0000 -2.3861
#
#
#
# Elastic Compliance Matrix: (Units=1/GPa)
#
#
# Indices 1 2 3 4 5 6 
#
# 1 0.010769 -0.004644 -0.010312 0.000000 0.000000 0.000000
# 2 -0.004644 0.009769 -0.002096 0.000000 0.000000 0.000000
# 3 -0.010312 -0.002096 0.038901 0.000000 0.000000 0.000000
# 4 0.000000 0.000000 0.000000 0.030035 0.000000 0.000000
# 5 0.000000 0.000000 0.000000 0.000000 0.428439 0.000000
# 6 0.000000 0.000000 0.000000 0.000000 0.000000 -0.419097
#
#
# Mechanical properties :
#
#
# Convention : Reuss Voigt Hill
#
# Bulk Modulus (GPa) = 39.47219 86.90864 63.19042
# Shear Modulus (GPa) = 35.36953 19.82335 27.59644
#
# Velocity S-wave (km/s) = 4.31396 3.22961 3.81055
# Velocity P-wave (km/s) = 6.75148 7.72240 7.25321
#
# Compressibility (1/GPa) = 0.02533429
#
# Stress axis : x y z
#
# Youngs Moduli (GPa) = 92.86276 102.36092 25.70651
#
# Poissons Ratio (x) = 0.47533 0.26510
# Poissons Ratio (y) = 0.43122 0.05388
# Poissons Ratio (z) = 0.95764 0.21455
#
# Static dielectric constant tensor:
#      x y z
#    x 1.673600 0.000000 0.000000 
#    y 0.000000 1.622420 0.000000 
#    z 0.000000 0.000000 1.647720 
# 
# From -- ./inp_files/8965.got.cif
#   From: 2010.05.17/outbox.cif.g08.bks.cpg/sg53_5_cif.got.tgz:8965.got - 2010.06.03 12:45:16.
