data_PCOD9414293
_publ_section_title
;
Structure prediction by ZEFSAII (Michael W. Deem and Ramdas Pophale) SiO2 
 PCOD9414293
Probable space group: P M N A
;
_chemical_formula_sum "Si O2"
_cell_formula_units_Z 44
_cell_length_a 32.475394
_cell_length_b 5.560659
_cell_length_c 15.347281
_cell_angle_alpha 90.000000
_cell_angle_beta 90.000000
_cell_angle_gamma 90.000000
_cell_volume 2771.482477
_symmetry_space_group_name_H-M "P M N A"
_symmetry_group_IT_number 53
_symmetry_cell_setting 'orthorhombic'
loop_
_space_group_symop_operation_xyz
x,y,z
1/2-x,-y,1/2+z
x,-y,-z
1/2-x,y,1/2-z
-x,-y,-z
1/2+x,y,1/2-z
-x,y,z
1/2+x,-y,1/2+z
loop_
_atom_site_type_symbol
_atom_site_label
_atom_site_fract_x
_atom_site_fract_y
_atom_site_fract_z
Si Si1 0.213375 0.532983 0.322594
Si Si2 0.238663 0.500000 0.000000
Si Si3 0.048649 0.786582 0.100307
Si Si4 0.419946 0.709708 0.598732
Si Si5 0.700157 0.026667 0.240925
Si Si6 0.332484 0.826652 0.575040
O O1 0.250000 0.523633 0.250000
O O2 0.233819 0.564327 0.416972
O O3 0.191476 0.274584 0.310910
O O4 0.188059 0.773670 0.301803
O O5 0.207661 0.296640 0.034654
O O6 0.058877 0.524359 0.140096
O O7 0.000000 0.831174 0.102440
O O8 0.071381 0.023949 0.137429
O O9 0.062588 0.746600 0.999530
O O10 0.371114 0.657665 0.596023
O O11 0.750000 0.018698 0.250000
O O12 0.681179 0.045488 0.336740
O O13 0.348876 0.000000 0.500000
#
# Coordination Sequence:
#
# PCOD9414293 Si02
#       6
#     8   4   8   8   8   8
#     4  10  20  36  46  67  86 107 161 182 242 307
#     4  12  22  32  56  64  85 130 148 212 259 276
#     4  10  17  31  44  57  90 118 143 196 225 263
#     4  10  19  28  40  67  83 106 159 182 230 277
#     4  10  20  36  45  62  92 114 145 194 244 296
#     4  12  22  31  49  67  93 118 152 212 254 269
#
# _framework density 15.875978999999999
#
# number of rings (size 3 to 8) (size 9 to 14) (size 15 to 20)
#    0.000    1.455    5.455    6.000    0.000    0.000 
#    0.000    0.000    0.000    0.000    0.000    0.000 
#    0.000    0.000    0.000    0.000    0.000    0.000 
#
# Total GULP energy -245038.783155 kJ/mol
# GULP energy per Si atom -5569.063254 kJ/mol
# Density = 1.583984 g / cm^3
# Si number density = 15.875979 Si / 1000 Ang^3
#
#
#
# Elastic Constant Matrix: (Units=GPa)
#
#
# Indices 1 2 3 4 5 6 
#
# 1 32.6552 -0.3360 18.5100 0.0000 0.0000 0.0000
# 2 -0.3360 129.2519 10.7621 0.0000 0.0000 0.0000
# 3 18.5100 10.7621 63.5686 0.0000 0.0000 0.0000
# 4 0.0000 0.0000 0.0000 84.8755 0.0000 0.0000
# 5 0.0000 0.0000 0.0000 0.0000 -0.5498 0.0000
# 6 0.0000 0.0000 0.0000 0.0000 0.0000 15.8451
#
#
#
# Elastic Compliance Matrix: (Units=1/GPa)
#
#
# Indices 1 2 3 4 5 6 
#
# 1 0.036804 0.001002 -0.010886 0.000000 0.000000 0.000000
# 2 0.001002 0.007875 -0.001625 0.000000 0.000000 0.000000
# 3 -0.010886 -0.001625 0.019176 0.000000 0.000000 0.000000
# 4 0.000000 0.000000 0.000000 0.011782 0.000000 0.000000
# 5 0.000000 0.000000 0.000000 0.000000 -1.818847 0.000000
# 6 0.000000 0.000000 0.000000 0.000000 0.000000 0.063111
#
#
# Mechanical properties :
#
#
# Convention : Reuss Voigt Hill
#
# Bulk Modulus (GPa) = 24.48794 31.48311 27.98552
# Shear Modulus (GPa) = -3.04235 33.13679 15.04722
#
# Velocity S-wave (km/s) = -1.38581 4.57358 3.08197
# Velocity P-wave (km/s) = 3.59129 6.91114 5.50732
#
# Compressibility (1/GPa) = 0.04083643
#
# Stress axis : x y z
#
# Youngs Moduli (GPa) = 27.17095 126.98835 52.14842
#
# Poissons Ratio (x) = -0.12726 0.56770
# Poissons Ratio (y) = -0.02723 0.08474
# Poissons Ratio (z) = 0.29579 0.20635
#
# Static dielectric constant tensor:
#      x y z
#    x 2.763630 0.000000 0.000000 
#    y 0.000000 1.678420 0.000000 
#    z 0.000000 0.000000 1.497360 
# 
# From -- ./inp_files/25061.got.cif
#   From: 2010.05.17/outbox.cif.g08.bks.cpg/sg53_13_cif.got.tgz:25061.got - 2010.06.03 12:45:16.
