data_PCOD9414215
_publ_section_title
;
Structure prediction by ZEFSAII (Michael W. Deem and Ramdas Pophale) SiO2 
 PCOD9414215
Probable space group: P M N A
;
_chemical_formula_sum "Si O2"
_cell_formula_units_Z 64
_cell_length_a 8.326901
_cell_length_b 17.304969
_cell_length_c 24.589978
_cell_angle_alpha 90.000000
_cell_angle_beta 90.000000
_cell_angle_gamma 90.000000
_cell_volume 3543.336249
_symmetry_space_group_name_H-M "P M N A"
_symmetry_group_IT_number 53
_symmetry_cell_setting 'orthorhombic'
loop_
_space_group_symop_operation_xyz
x,y,z
1/2-x,-y,1/2+z
x,-y,-z
1/2-x,y,1/2-z
-x,-y,-z
1/2+x,y,1/2-z
-x,y,z
1/2+x,-y,1/2+z
loop_
_atom_site_type_symbol
_atom_site_label
_atom_site_fract_x
_atom_site_fract_y
_atom_site_fract_z
Si Si1 0.807305 0.880942 0.688985
Si Si2 0.190222 0.812419 0.522941
Si Si3 0.307606 0.136422 0.588066
Si Si4 0.194267 0.763829 0.187896
Si Si5 0.695144 0.724084 0.872245
Si Si6 0.309827 0.037593 0.415196
Si Si7 0.808140 0.571092 0.687451
Si Si8 0.808066 0.407437 0.812417
O O1 0.750000 0.892651 0.750000
O O2 0.764608 0.794457 0.668442
O O3 0.722700 0.938706 0.647074
O O4 0.000000 0.889339 0.684641
O O5 0.267333 0.811186 0.463738
O O6 0.250496 0.750793 0.567880
O O7 0.225915 0.896489 0.549168
O O8 0.000000 0.803210 0.517475
O O9 0.500000 0.130472 0.592669
O O10 0.247482 0.173391 0.644345
O O11 0.248419 0.049395 0.576945
O O12 0.250000 0.775545 0.250000
O O13 0.243214 0.677546 0.167848
O O14 0.000000 0.765172 0.188748
O O15 0.500000 0.721026 0.874473
O O16 0.752936 0.642957 0.848336
O O17 0.500000 0.040621 0.427458
O O18 0.750000 0.578329 0.750000
O O19 0.758042 0.487470 0.664182
O O20 0.000000 0.574062 0.688957
O O21 0.750000 0.408231 0.750000
O O22 0.000000 0.411199 0.813984
#
# Coordination Sequence:
#
# PCOD9414215 Si02
#       8
#     8   8   8   8   8   8   8   8
#     4  10  19  32  48  68  98 133 167 200 241 291
#     4  10  20  35  53  73  97 126 163 203 242 285
#     4  10  21  36  53  74  97 124 159 200 244 288
#     4   9  19  35  53  73 100 128 156 194 239 288
#     4   8  17  31  46  67  96 128 161 199 236 276
#     4  10  20  34  51  71  97 128 163 204 247 288
#     4  10  17  27  45  70  99 127 157 193 233 278
#     4   9  16  28  46  69  96 125 156 191 233 280
#
# _framework density 18.062072000000001
#
# number of rings (size 3 to 8) (size 9 to 14) (size 15 to 20)
#    0.000    2.500    0.000    4.125    0.000    4.000 
#    0.000    8.125    0.000    0.750    0.000    5.250 
#    0.000    0.000    0.000    0.000    0.000    0.000 
#
# Total GULP energy -356761.597346 kJ/mol
# GULP energy per Si atom -5574.399959 kJ/mol
# Density = 1.802096 g / cm^3
# Si number density = 18.062072 Si / 1000 Ang^3
#
#
#
# Elastic Constant Matrix: (Units=GPa)
#
#
# Indices 1 2 3 4 5 6 
#
# 1 10.4490 2.7994 -10.6653 0.0000 0.0000 0.0000
# 2 2.7994 58.0031 14.5599 0.0000 0.0000 0.0000
# 3 -10.6653 14.5599 75.6934 0.0000 0.0000 0.0000
# 4 0.0000 0.0000 0.0000 15.7482 0.0000 0.0000
# 5 0.0000 0.0000 0.0000 0.0000 23.8059 0.0000
# 6 0.0000 0.0000 0.0000 0.0000 0.0000 38.1670
#
#
#
# Elastic Compliance Matrix: (Units=1/GPa)
#
#
# Indices 1 2 3 4 5 6 
#
# 1 0.117372 -0.010314 0.018522 0.000000 0.000000 0.000000
# 2 -0.010314 0.019021 -0.005112 0.000000 0.000000 0.000000
# 3 0.018522 -0.005112 0.016804 0.000000 0.000000 0.000000
# 4 0.000000 0.000000 0.000000 0.063499 0.000000 0.000000
# 5 0.000000 0.000000 0.000000 0.000000 0.042006 0.000000
# 6 0.000000 0.000000 0.000000 0.000000 0.000000 0.026201
#
#
# Mechanical properties :
#
#
# Convention : Reuss Voigt Hill
#
# Bulk Modulus (GPa) = 6.27397 17.50370 11.88884
# Shear Modulus (GPa) = 15.06741 24.70764 19.88752
#
# Velocity S-wave (km/s) = 2.89139 3.70257 3.32183
# Velocity P-wave (km/s) = 3.82465 5.29061 4.61619
#
# Compressibility (1/GPa) = 0.15938863
#
# Stress axis : x y z
#
# Youngs Moduli (GPa) = 8.51995 52.57215 59.50869
#
# Poissons Ratio (x) = 0.54223 -1.10221
# Poissons Ratio (y) = 0.08787 0.30421
# Poissons Ratio (z) = -0.15780 0.26875
#
# Static dielectric constant tensor:
#      x y z
#    x 1.624420 0.000000 0.000000 
#    y 0.000000 1.655950 0.000000 
#    z 0.000000 0.000000 1.605020 
# 
# From -- ./inp_files/34487.got.cif
#   From: 2010.05.17/outbox.cif.g08.bks.cpg/sg53_18_cif.got.tgz:34487.got - 2010.06.03 12:45:16.
