data_PCOD9414989
_publ_section_title
;
Structure prediction by ZEFSAII (Michael W. Deem and Ramdas Pophale) SiO2 
 PCOD9414989
Probable space group: P M N A
;
_chemical_formula_sum "Si O2"
_cell_formula_units_Z 64
_cell_length_a 15.370464
_cell_length_b 8.784002
_cell_length_c 25.284556
_cell_angle_alpha 90.000000
_cell_angle_beta 90.000000
_cell_angle_gamma 90.000000
_cell_volume 3413.773760
_symmetry_space_group_name_H-M "P M N A"
_symmetry_group_IT_number 53
_symmetry_cell_setting 'orthorhombic'
loop_
_space_group_symop_operation_xyz
x,y,z
1/2-x,-y,1/2+z
x,-y,-z
1/2-x,y,1/2-z
-x,-y,-z
1/2+x,y,1/2-z
-x,y,z
1/2+x,-y,1/2+z
loop_
_atom_site_type_symbol
_atom_site_label
_atom_site_fract_x
_atom_site_fract_y
_atom_site_fract_z
Si Si1 0.402621 0.081098 0.835774
Si Si2 0.097331 0.362158 0.876615
Si Si3 0.723900 0.085152 0.350251
Si Si4 0.224996 0.334241 0.498779
Si Si5 0.599276 0.618510 0.094693
Si Si6 0.850816 0.091237 0.950642
Si Si7 0.245763 0.402544 0.382323
Si Si8 0.600690 0.128162 0.714012
O O1 0.500000 0.012645 0.838478
O O2 0.398481 0.218459 0.877200
O O3 0.391383 0.147408 0.776606
O O4 0.323117 0.970272 0.846884
O O5 0.098607 0.223488 0.919002
O O6 0.172783 0.482795 0.888399
O O7 0.117142 0.279158 0.820706
O O8 0.000000 0.428303 0.875573
O O9 0.724687 0.266422 0.344934
O O10 0.682530 0.024755 0.405625
O O11 0.666702 0.999879 0.306172
O O12 0.273287 0.500000 0.500000
O O13 0.142393 0.363470 0.536632
O O14 0.273515 0.190403 0.523114
O O15 0.216045 0.315910 0.436332
O O16 0.500000 0.565369 0.091708
O O17 0.662207 0.507648 0.128104
O O18 0.892022 0.000000 0.000000
O O19 0.500000 0.084657 0.702518
#
# Coordination Sequence:
#
# PCOD9414989 Si02
#       8
#     8   8   8   8   8   8   8   8
#     4  10  20  38  61  85 108 142 189 242 288 335
#     4  10  21  39  59  84 113 151 197 238 280 342
#     4  11  21  34  58  82 114 150 184 226 285 341
#     4  10  18  34  55  78 115 150 183 219 282 319
#     4  10  20  36  61  84 111 152 196 229 275 340
#     4  11  19  34  58  80 113 151 188 235 276 327
#     4  11  22  35  55  82 120 155 183 228 282 337
#     4   9  20  39  62  82 108 143 190 242 291 335
#
# _framework density 18.747579999999999
#
# number of rings (size 3 to 8) (size 9 to 14) (size 15 to 20)
#    0.000    1.750    5.000    1.125    0.000    3.500 
#    0.000    3.750    0.000    5.250    0.000    0.000 
#    0.000    0.000    0.000    0.000    0.000    0.000 
#
# Total GULP energy -356427.844986 kJ/mol
# GULP energy per Si atom -5569.185078 kJ/mol
# Density = 1.870491 g / cm^3
# Si number density = 18.747580 Si / 1000 Ang^3
#
#
#
# Elastic Constant Matrix: (Units=GPa)
#
#
# Indices 1 2 3 4 5 6 
#
# 1 110.8540 50.9798 22.5093 0.0000 0.0000 0.0000
# 2 50.9798 74.2482 9.0227 0.0000 0.0000 0.0000
# 3 22.5093 9.0227 67.3885 0.0000 0.0000 0.0000
# 4 0.0000 0.0000 0.0000 13.2511 0.0000 0.0000
# 5 0.0000 0.0000 0.0000 0.0000 16.6531 0.0000
# 6 0.0000 0.0000 0.0000 0.0000 0.0000 0.7162
#
#
#
# Elastic Compliance Matrix: (Units=1/GPa)
#
#
# Indices 1 2 3 4 5 6 
#
# 1 0.013921 -0.009142 -0.003426 0.000000 0.000000 0.000000
# 2 -0.009142 0.019695 0.000417 0.000000 0.000000 0.000000
# 3 -0.003426 0.000417 0.015928 0.000000 0.000000 0.000000
# 4 0.000000 0.000000 0.000000 0.075466 0.000000 0.000000
# 5 0.000000 0.000000 0.000000 0.000000 0.060049 0.000000
# 6 0.000000 0.000000 0.000000 0.000000 0.000000 1.396198
#
#
# Mechanical properties :
#
#
# Convention : Reuss Voigt Hill
#
# Bulk Modulus (GPa) = 39.61783 46.39047 43.00415
# Shear Modulus (GPa) = 3.09795 17.45601 10.27698
#
# Velocity S-wave (km/s) = 1.28687 3.05472 2.34386
# Velocity P-wave (km/s) = 4.83592 6.10248 5.50574
#
# Compressibility (1/GPa) = 0.02524116
#
# Stress axis : x y z
#
# Youngs Moduli (GPa) = 71.83567 50.77534 62.78311
#
# Poissons Ratio (x) = 0.46418 0.21508
# Poissons Ratio (y) = 0.65671 -0.02616
# Poissons Ratio (z) = 0.24610 -0.02116
#
# Static dielectric constant tensor:
#      x y z
#    x 1.655210 0.000000 0.000000 
#    y 0.000000 1.651390 0.000000 
#    z 0.000000 0.000000 1.696270 
# 
# From -- ./inp_files/35392.got.cif
#   From: 2010.05.17/outbox.cif.g08.bks.cpg/sg53_18_cif.got.tgz:35392.got - 2010.06.03 12:45:16.
