data_PCOD9414161
_publ_section_title
;
Structure prediction by ZEFSAII (Michael W. Deem and Ramdas Pophale) SiO2 
 PCOD9414161
Probable space group: P M N A
;
_chemical_formula_sum "Si O2"
_cell_formula_units_Z 48
_cell_length_a 8.605905
_cell_length_b 15.894905
_cell_length_c 20.555845
_cell_angle_alpha 90.000000
_cell_angle_beta 90.000000
_cell_angle_gamma 90.000000
_cell_volume 2811.834909
_symmetry_space_group_name_H-M "P M N A"
_symmetry_group_IT_number 53
_symmetry_cell_setting 'orthorhombic'
loop_
_space_group_symop_operation_xyz
x,y,z
1/2-x,-y,1/2+z
x,-y,-z
1/2-x,y,1/2-z
-x,-y,-z
1/2+x,y,1/2-z
-x,y,z
1/2+x,-y,1/2+z
loop_
_atom_site_type_symbol
_atom_site_label
_atom_site_fract_x
_atom_site_fract_y
_atom_site_fract_z
Si Si1 0.813190 0.907562 0.321404
Si Si2 0.812778 0.960276 0.568571
Si Si3 0.813494 0.746646 0.106165
Si Si4 0.686945 0.779978 0.544398
Si Si5 0.685667 0.596865 0.565704
Si Si6 0.315381 0.425661 0.919530
O O1 0.750000 0.925738 0.250000
O O2 0.747732 0.818772 0.346716
O O3 0.000000 0.904000 0.320878
O O4 0.763501 0.979255 0.372774
O O5 0.754116 0.865190 0.573186
O O6 0.000000 0.959141 0.567309
O O7 0.758248 0.000000 0.500000
O O8 0.742551 0.654804 0.120554
O O9 0.000000 0.741629 0.107997
O O10 0.766199 0.771987 0.031927
O O11 0.500000 0.783691 0.545323
O O12 0.733046 0.693055 0.580254
O O13 0.500000 0.589546 0.571019
O O14 0.764278 0.518859 0.602522
O O15 0.733487 0.586563 0.489870
O O16 0.500000 0.423152 0.927661
#
# Coordination Sequence:
#
# PCOD9414161 Si02
#       6
#     8   8   8   8   8   8
#     4  11  23  38  54  75 103 136 173 215 262 312
#     4  10  20  34  52  75 102 133 170 217 264 310
#     4  10  19  32  49  71  99 134 169 208 255 306
#     4   9  18  29  47  73 100 132 170 210 255 306
#     4   9  16  27  40  63  98 132 165 204 250 299
#     4  10  17  25  41  66  95 131 167 202 246 298
#
# _framework density 17.070703999999999
#
# number of rings (size 3 to 8) (size 9 to 14) (size 15 to 20)
#    0.000    2.167    1.667    5.000    0.000    5.000 
#    0.000    0.000    0.000    0.000    0.000    1.167 
#    0.000    5.333    0.000    0.000    0.000    0.000 
#
# Total GULP energy -267585.390351 kJ/mol
# GULP energy per Si atom -5574.695632 kJ/mol
# Density = 1.703185 g / cm^3
# Si number density = 17.070704 Si / 1000 Ang^3
#
#
#
# Elastic Constant Matrix: (Units=GPa)
#
#
# Indices 1 2 3 4 5 6 
#
# 1 22.2283 25.9873 15.6891 0.0000 0.0000 0.0000
# 2 25.9873 179.8951 54.3486 0.0000 0.0000 0.0000
# 3 15.6891 54.3486 66.6431 0.0000 0.0000 0.0000
# 4 0.0000 0.0000 0.0000 15.0190 0.0000 0.0000
# 5 0.0000 0.0000 0.0000 0.0000 6.5930 0.0000
# 6 0.0000 0.0000 0.0000 0.0000 0.0000 32.1216
#
#
#
# Elastic Compliance Matrix: (Units=1/GPa)
#
#
# Indices 1 2 3 4 5 6 
#
# 1 0.057968 -0.005641 -0.009047 0.000000 0.000000 0.000000
# 2 -0.005641 0.007925 -0.005135 0.000000 0.000000 0.000000
# 3 -0.009047 -0.005135 0.021323 0.000000 0.000000 0.000000
# 4 0.000000 0.000000 0.000000 0.066582 0.000000 0.000000
# 5 0.000000 0.000000 0.000000 0.000000 0.151676 0.000000
# 6 0.000000 0.000000 0.000000 0.000000 0.000000 0.031132
#
#
# Mechanical properties :
#
#
# Convention : Reuss Voigt Hill
#
# Bulk Modulus (GPa) = 21.02139 51.20182 36.11160
# Shear Modulus (GPa) = 12.75161 22.26283 17.50722
#
# Velocity S-wave (km/s) = 2.73607 3.61523 3.20593
# Velocity P-wave (km/s) = 4.72467 6.89098 5.90796
#
# Compressibility (1/GPa) = 0.04757060
#
# Stress axis : x y z
#
# Youngs Moduli (GPa) = 17.25102 126.18283 46.89830
#
# Poissons Ratio (x) = 0.71177 0.42427
# Poissons Ratio (y) = 0.09731 0.24082
# Poissons Ratio (z) = 0.15606 0.64795
#
# Static dielectric constant tensor:
#      x y z
#    x 1.571390 0.000000 0.000000 
#    y 0.000000 1.628650 0.000000 
#    z 0.000000 0.000000 1.558620 
# 
# From -- ./inp_files/30496.got.cif
#   From: 2010.05.17/outbox.cif.g08.bks.cpg/sg53_16_cif.got.tgz:30496.got - 2010.06.03 12:45:16.
