data_PCOD9414368
_publ_section_title
;
Structure prediction by ZEFSAII (Michael W. Deem and Ramdas Pophale) SiO2 
 PCOD9414368
Probable space group: P M N A
;
_chemical_formula_sum "Si O2"
_cell_formula_units_Z 56
_cell_length_a 7.315035
_cell_length_b 18.287118
_cell_length_c 19.344607
_cell_angle_alpha 90.000000
_cell_angle_beta 90.000000
_cell_angle_gamma 90.000000
_cell_volume 2587.745648
_symmetry_space_group_name_H-M "P M N A"
_symmetry_group_IT_number 53
_symmetry_cell_setting 'orthorhombic'
loop_
_space_group_symop_operation_xyz
x,y,z
1/2-x,-y,1/2+z
x,-y,-z
1/2-x,y,1/2-z
-x,-y,-z
1/2+x,y,1/2-z
-x,y,z
1/2+x,-y,1/2+z
loop_
_atom_site_type_symbol
_atom_site_label
_atom_site_fract_x
_atom_site_fract_y
_atom_site_fract_z
Si Si1 0.782116 0.534038 0.669153
Si Si2 0.718591 0.024120 0.080022
Si Si3 0.222763 0.657736 0.573373
Si Si4 0.716996 0.725551 0.173908
Si Si5 0.222672 0.821668 0.542243
Si Si6 0.722486 0.129478 0.886359
Si Si7 0.723393 0.599201 0.073669
O O1 0.750000 0.521056 0.750000
O O2 0.717834 0.612494 0.640523
O O3 0.714107 0.470532 0.617666
O O4 0.000000 0.533686 0.660943
O O5 0.500000 0.027696 0.090429
O O6 0.785361 0.107320 0.085861
O O7 0.787819 0.953842 0.122120
O O8 0.746730 0.000000 0.000000
O O9 0.284565 0.741599 0.565573
O O10 0.276546 0.610664 0.505676
O O11 0.000000 0.660940 0.573016
O O12 0.750000 0.695702 0.250000
O O13 0.500000 0.729165 0.163771
O O14 0.786696 0.808130 0.165802
O O15 0.784529 0.670840 0.115633
O O16 0.270651 0.839498 0.462583
O O17 0.000000 0.820975 0.543863
O O18 0.500000 0.125794 0.884634
O O19 0.500000 0.597255 0.073527
#
# Coordination Sequence:
#
# PCOD9414368 Si02
#       7
#     8   8   8   8   8   8   8
#     4  10  20  32  47  66  89 116 144 176 215 260
#     4   7  10  15  28  51  80 107 127 158 210 255
#     4   9  15  25  44  67  86 107 143 186 220 249
#     4  10  18  27  41  60  86 118 145 174 215 261
#     4   8  11  18  34  59  84 103 131 176 218 246
#     4   8  12  20  33  53  82 111 135 166 211 254
#     4   9  16  28  45  65  86 110 144 183 218 253
#
# _framework density 21.640459
#
# number of rings (size 3 to 8) (size 9 to 14) (size 15 to 20)
#    0.000    3.286    1.429    2.571    0.000    1.714 
#    0.000    0.000    0.000    3.429    0.000    0.000 
#    0.000    5.143    0.000    0.000    0.000    0.000 
#
# Total GULP energy -312166.417326 kJ/mol
# GULP energy per Si atom -5574.400309 kJ/mol
# Density = 2.159120 g / cm^3
# Si number density = 21.640459 Si / 1000 Ang^3
#
#
#
# Elastic Constant Matrix: (Units=GPa)
#
#
# Indices 1 2 3 4 5 6 
#
# 1 82.2296 7.5747 -1.4405 0.0000 0.0000 0.0000
# 2 7.5747 167.2785 41.0677 0.0000 0.0000 0.0000
# 3 -1.4405 41.0677 44.6672 0.0000 0.0000 0.0000
# 4 0.0000 0.0000 0.0000 14.1124 0.0000 0.0000
# 5 0.0000 0.0000 0.0000 0.0000 -1.9345 0.0000
# 6 0.0000 0.0000 0.0000 0.0000 0.0000 -20.8495
#
#
#
# Elastic Compliance Matrix: (Units=1/GPa)
#
#
# Indices 1 2 3 4 5 6 
#
# 1 0.012259 -0.000842 0.001170 0.000000 0.000000 0.000000
# 2 -0.000842 0.007779 -0.007179 0.000000 0.000000 0.000000
# 3 0.001170 -0.007179 0.029026 0.000000 0.000000 0.000000
# 4 0.000000 0.000000 0.000000 0.070859 0.000000 0.000000
# 5 0.000000 0.000000 0.000000 0.000000 -0.516927 0.000000
# 6 0.000000 0.000000 0.000000 0.000000 0.000000 -0.047963
#
#
# Mechanical properties :
#
#
# Convention : Reuss Voigt Hill
#
# Bulk Modulus (GPa) = 28.27993 43.17545 35.72769
# Shear Modulus (GPa) = -11.91961 14.73060 1.40550
#
# Velocity S-wave (km/s) = -2.34946 2.61185 0.80678
# Velocity P-wave (km/s) = 2.39510 5.39354 4.17293
#
# Compressibility (1/GPa) = 0.03536076
#
# Stress axis : x y z
#
# Youngs Moduli (GPa) = 81.57171 128.55667 34.45191
#
# Poissons Ratio (x) = 0.10828 -0.04030
# Poissons Ratio (y) = 0.06871 0.24733
# Poissons Ratio (z) = -0.09542 0.92291
#
# Static dielectric constant tensor:
#      x y z
#    x 1.987490 0.000000 0.000000 
#    y 0.000000 1.840830 0.000000 
#    z 0.000000 0.000000 1.747240 
# 
# From -- ./inp_files/27718.got.cif
#   From: 2010.05.17/outbox.cif.g08.bks.cpg/sg53_14_cif.got.tgz:27718.got - 2010.06.03 12:45:16.
