data_PCOD9414895
_publ_section_title
;
Structure prediction by ZEFSAII (Michael W. Deem and Ramdas Pophale) SiO2 
 PCOD9414895
Probable space group: P M N A
;
_chemical_formula_sum "Si O2"
_cell_formula_units_Z 56
_cell_length_a 7.577275
_cell_length_b 17.358193
_cell_length_c 19.475091
_cell_angle_alpha 90.000000
_cell_angle_beta 90.000000
_cell_angle_gamma 90.000000
_cell_volume 2561.515910
_symmetry_space_group_name_H-M "P M N A"
_symmetry_group_IT_number 53
_symmetry_cell_setting 'orthorhombic'
loop_
_space_group_symop_operation_xyz
x,y,z
1/2-x,-y,1/2+z
x,-y,-z
1/2-x,y,1/2-z
-x,-y,-z
1/2+x,y,1/2-z
-x,y,z
1/2+x,-y,1/2+z
loop_
_atom_site_type_symbol
_atom_site_label
_atom_site_fract_x
_atom_site_fract_y
_atom_site_fract_z
Si Si1 0.705357 0.169195 0.924099
Si Si2 0.210581 0.517292 0.169769
Si Si3 0.290510 0.688838 0.330251
Si Si4 0.711604 0.142833 0.169436
Si Si5 0.785223 0.997400 0.419304
Si Si6 0.217134 0.743449 0.556298
Si Si7 0.702393 0.571999 0.958650
O O1 0.500000 0.154150 0.938357
O O2 0.717267 0.240251 0.872580
O O3 0.774621 0.087997 0.896233
O O4 0.778406 0.198673 0.996532
O O5 0.250000 0.506486 0.250000
O O6 0.274672 0.603462 0.149572
O O7 0.294096 0.454762 0.120271
O O8 0.000000 0.514677 0.160783
O O9 0.250000 0.697964 0.250000
O O10 0.500000 0.688952 0.339732
O O11 0.750000 0.141501 0.250000
O O12 0.500000 0.142159 0.163088
O O13 0.771816 0.219351 0.128560
O O14 0.778994 0.067524 0.127962
O O15 0.000000 0.002776 0.416507
O O16 0.737145 0.000000 0.500000
O O17 0.280507 0.657446 0.538600
O O18 0.000000 0.739944 0.555598
O O19 0.500000 0.578429 0.983283
O O20 0.784975 0.500000 0.000000
#
# Coordination Sequence:
#
# PCOD9414895 Si02
#       7
#     8   8   8   8   8   8   8
#     4  10  18  32  58  84 106 139 182 223 268 320
#     4  10  21  37  56  76 103 142 183 225 275 331
#     4  10  21  36  53  77 109 142 178 222 273 327
#     4  10  20  36  56  80 111 145 185 226 268 322
#     4   9  16  31  57  83 105 139 184 224 264 319
#     4   9  18  33  55  80 107 144 184 221 266 326
#     4  10  20  34  54  82 113 142 180 229 276 325
#
# _framework density 21.862053
#
# number of rings (size 3 to 8) (size 9 to 14) (size 15 to 20)
#    0.000    2.286    1.429    1.714    0.000    4.286 
#    0.000    5.714    0.000    0.857    0.000    0.000 
#    0.000    0.000    0.000    0.000    0.000    0.000 
#
# Total GULP energy -312604.825957 kJ/mol
# GULP energy per Si atom -5582.229035 kJ/mol
# Density = 2.181229 g / cm^3
# Si number density = 21.862053 Si / 1000 Ang^3
#
#
#
# Elastic Constant Matrix: (Units=GPa)
#
#
# Indices 1 2 3 4 5 6 
#
# 1 51.9102 10.5213 -1.1384 0.0000 0.0000 0.0000
# 2 10.5213 139.2969 50.8149 0.0000 0.0000 0.0000
# 3 -1.1384 50.8149 80.8467 0.0000 0.0000 0.0000
# 4 0.0000 0.0000 0.0000 38.5717 0.0000 0.0000
# 5 0.0000 0.0000 0.0000 0.0000 18.2295 0.0000
# 6 0.0000 0.0000 0.0000 0.0000 0.0000 4.6374
#
#
#
# Elastic Compliance Matrix: (Units=1/GPa)
#
#
# Indices 1 2 3 4 5 6 
#
# 1 0.019717 -0.002064 0.001575 0.000000 0.000000 0.000000
# 2 -0.002064 0.009531 -0.006019 0.000000 0.000000 0.000000
# 3 0.001575 -0.006019 0.016175 0.000000 0.000000 0.000000
# 4 0.000000 0.000000 0.000000 0.025926 0.000000 0.000000
# 5 0.000000 0.000000 0.000000 0.000000 0.054856 0.000000
# 6 0.000000 0.000000 0.000000 0.000000 0.000000 0.215639
#
#
# Mechanical properties :
#
#
# Convention : Reuss Voigt Hill
#
# Bulk Modulus (GPa) = 30.85901 43.60549 37.23225
# Shear Modulus (GPa) = 13.67384 26.41145 20.04264
#
# Velocity S-wave (km/s) = 2.50363 3.47954 3.03112
# Velocity P-wave (km/s) = 4.74379 6.01099 5.41459
#
# Compressibility (1/GPa) = 0.03240545
#
# Stress axis : x y z
#
# Youngs Moduli (GPa) = 50.71803 104.92483 61.82516
#
# Poissons Ratio (x) = 0.21653 -0.09736
# Poissons Ratio (y) = 0.10467 0.37215
# Poissons Ratio (z) = -0.07987 0.63158
#
# Static dielectric constant tensor:
#      x y z
#    x 1.947700 0.000000 0.000000 
#    y 0.000000 1.826530 0.000000 
#    z 0.000000 0.000000 1.775700 
# 
# From -- ./inp_files/30775.got.cif
#   From: 2010.05.17/outbox.cif.g08.bks.cpg/sg53_16_cif.got.tgz:30775.got - 2010.06.03 12:45:16.
