data_PCOD9414747
_publ_section_title
;
Structure prediction by ZEFSAII (Michael W. Deem and Ramdas Pophale) SiO2 
 PCOD9414747
Probable space group: P M N A
;
_chemical_formula_sum "Si O2"
_cell_formula_units_Z 64
_cell_length_a 17.424705
_cell_length_b 20.479683
_cell_length_c 9.663096
_cell_angle_alpha 90.000000
_cell_angle_beta 90.000000
_cell_angle_gamma 90.000000
_cell_volume 3448.299335
_symmetry_space_group_name_H-M "P M N A"
_symmetry_group_IT_number 53
_symmetry_cell_setting 'orthorhombic'
loop_
_space_group_symop_operation_xyz
x,y,z
1/2-x,-y,1/2+z
x,-y,-z
1/2-x,y,1/2-z
-x,-y,-z
1/2+x,y,1/2-z
-x,y,z
1/2+x,-y,1/2+z
loop_
_atom_site_type_symbol
_atom_site_label
_atom_site_fract_x
_atom_site_fract_y
_atom_site_fract_z
Si Si1 0.761008 0.064973 0.413226
Si Si2 0.406651 0.615534 0.843163
Si Si3 0.093819 0.507311 0.158708
Si Si4 0.090786 0.251248 0.188853
Si Si5 0.855670 0.775857 0.337644
Si Si6 0.690477 0.191886 0.546238
Si Si7 0.084598 0.142077 0.422085
Si Si8 0.092934 0.629695 0.339742
O O1 0.750000 0.054866 0.250000
O O2 0.707886 0.123708 0.470192
O O3 0.847939 0.090143 0.434971
O O4 0.746650 0.000000 0.500000
O O5 0.500000 0.614671 0.844898
O O6 0.381396 0.553879 0.752535
O O7 0.384752 0.683579 0.770566
O O8 0.382363 0.612882 0.003083
O O9 0.118143 0.574516 0.231698
O O10 0.000000 0.507087 0.158197
O O11 0.118793 0.500000 0.000000
O O12 0.099251 0.189732 0.291807
O O13 0.000000 0.257508 0.154734
O O14 0.141469 0.237267 0.054902
O O15 0.850533 0.815116 0.194268
O O16 0.772959 0.777909 0.413205
O O17 0.911783 0.810482 0.445152
O O18 0.878093 0.701856 0.306273
O O19 0.000000 0.113136 0.408299
O O20 0.000000 0.630851 0.338650
#
# Coordination Sequence:
#
# PCOD9414747 Si02
#       8
#     8   8   8   8   8   8   8   8
#     4  11  24  41  67  88 119 160 198 234 280 349
#     4   9  17  30  48  78 111 145 188 236 287 345
#     4   9  18  29  44  73 112 149 191 238 287 347
#     4  10  19  34  59  87 117 149 192 245 303 350
#     4  10  21  35  57  85 119 152 196 240 287 352
#     4  10  23  40  57  89 115 152 192 239 289 347
#     4  10  20  38  62  91 122 151 194 246 290 343
#     4  10  18  31  52  79 112 152 192 237 293 338
#
# _framework density 18.559874000000001
#
# number of rings (size 3 to 8) (size 9 to 14) (size 15 to 20)
#    0.000    2.125    2.500    0.750    5.250    2.750 
#    0.000    0.000    0.000    0.750   13.000    0.000 
#    0.000    0.000    0.000    0.000    0.000    0.000 
#
# Total GULP energy -357156.424822 kJ/mol
# GULP energy per Si atom -5580.569138 kJ/mol
# Density = 1.851763 g / cm^3
# Si number density = 18.559874 Si / 1000 Ang^3
#
#
#
# Elastic Constant Matrix: (Units=GPa)
#
#
# Indices 1 2 3 4 5 6 
#
# 1 23.2183 19.4434 35.2790 0.0000 0.0000 0.0000
# 2 19.4434 107.2025 58.6672 0.0000 0.0000 0.0000
# 3 35.2790 58.6672 149.9380 0.0000 0.0000 0.0000
# 4 0.0000 0.0000 0.0000 33.9726 0.0000 0.0000
# 5 0.0000 0.0000 0.0000 0.0000 19.2326 0.0000
# 6 0.0000 0.0000 0.0000 0.0000 0.0000 11.8547
#
#
#
# Elastic Compliance Matrix: (Units=1/GPa)
#
#
# Indices 1 2 3 4 5 6 
#
# 1 0.068776 -0.004604 -0.014381 0.000000 0.000000 0.000000
# 2 -0.004604 0.012178 -0.003682 0.000000 0.000000 0.000000
# 3 -0.014381 -0.003682 0.011494 0.000000 0.000000 0.000000
# 4 0.000000 0.000000 0.000000 0.029435 0.000000 0.000000
# 5 0.000000 0.000000 0.000000 0.000000 0.051995 0.000000
# 6 0.000000 0.000000 0.000000 0.000000 0.000000 0.084355
#
#
# Mechanical properties :
#
#
# Convention : Reuss Voigt Hill
#
# Bulk Modulus (GPa) = 21.22488 56.34867 38.78678
# Shear Modulus (GPa) = 15.66069 24.14327 19.90198
#
# Velocity S-wave (km/s) = 2.90796 3.61062 3.27817
# Velocity P-wave (km/s) = 4.76820 6.91437 5.93903
#
# Compressibility (1/GPa) = 0.04711451
#
# Stress axis : x y z
#
# Youngs Moduli (GPa) = 14.53997 82.11538 87.00440
#
# Poissons Ratio (x) = 0.37805 1.25120
# Poissons Ratio (y) = 0.06694 0.32032
# Poissons Ratio (z) = 0.20910 0.30232
#
# Static dielectric constant tensor:
#      x y z
#    x 1.656980 0.000000 0.000000 
#    y 0.000000 1.616790 0.000000 
#    z 0.000000 0.000000 1.636570 
# 
# From -- ./inp_files/11254.got.cif
#   From: 2010.05.17/outbox.cif.g08.bks.cpg/sg53_6_cif.got.tgz:11254.got - 2010.06.03 12:45:16.
