data_PCOD9414828
_publ_section_title
;
Structure prediction by ZEFSAII (Michael W. Deem and Ramdas Pophale) SiO2 
 PCOD9414828
Probable space group: P M N A
;
_chemical_formula_sum "Si O2"
_cell_formula_units_Z 52
_cell_length_a 9.673826
_cell_length_b 13.352821
_cell_length_c 21.125614
_cell_angle_alpha 90.000000
_cell_angle_beta 90.000000
_cell_angle_gamma 90.000000
_cell_volume 2728.856127
_symmetry_space_group_name_H-M "P M N A"
_symmetry_group_IT_number 53
_symmetry_cell_setting 'orthorhombic'
loop_
_space_group_symop_operation_xyz
x,y,z
1/2-x,-y,1/2+z
x,-y,-z
1/2-x,y,1/2-z
-x,-y,-z
1/2+x,y,1/2-z
-x,y,z
1/2+x,-y,1/2+z
loop_
_atom_site_type_symbol
_atom_site_label
_atom_site_fract_x
_atom_site_fract_y
_atom_site_fract_z
Si Si1 0.830933 0.229093 0.060749
Si Si2 0.849035 0.317388 0.871838
Si Si3 0.347419 0.895495 0.444341
Si Si4 0.662708 0.808384 0.810476
Si Si5 0.250000 0.209321 0.750000
Si Si6 0.660526 0.613853 0.023281
Si Si7 0.148752 0.963191 0.340581
O O1 0.750668 0.218149 0.126834
O O2 0.000000 0.239477 0.065766
O O3 0.804280 0.132472 0.015270
O O4 0.758030 0.320775 0.023186
O O5 0.853191 0.213497 0.910787
O O6 0.824834 0.281194 0.800223
O O7 0.727385 0.377387 0.906547
O O8 0.000000 0.366481 0.878286
O O9 0.500000 0.938063 0.443954
O O10 0.256399 0.957152 0.396632
O O11 0.750000 0.771308 0.750000
O O12 0.500000 0.775925 0.812682
O O13 0.658034 0.929814 0.807137
O O14 0.335654 0.130165 0.792693
O O15 0.500000 0.649441 0.023136
O O16 0.662024 0.500000 0.000000
O O17 0.000000 0.954757 0.371576
#
# Coordination Sequence:
#
# PCOD9414828 Si02
#       7
#     8   8   8   8   4   8   8
#     4  10  21  38  59  83 110 144 184 232 284 335
#     4   9  18  31  52  82 114 150 187 226 278 338
#     4   8  17  32  50  75 107 142 182 227 277 326
#     4  11  23  38  55  78 109 151 196 236 277 326
#     4  10  18  32  52  80 116 152 188 232 276 324
#     4  10  21  38  62  89 114 142 179 229 286 346
#     4  10  20  32  50  76 108 150 193 231 272 321
#
# _framework density 19.055605
#
# number of rings (size 3 to 8) (size 9 to 14) (size 15 to 20)
#    0.000    2.308    0.769    2.769    0.000   10.462 
#    0.000    3.077    1.692    0.000    0.000    0.000 
#    0.000    0.000    0.000    0.000    0.000    0.000 
#
# Total GULP energy -289604.509074 kJ/mol
# GULP energy per Si atom -5569.317482 kJ/mol
# Density = 1.901223 g / cm^3
# Si number density = 19.055605 Si / 1000 Ang^3
#
#
#
# Elastic Constant Matrix: (Units=GPa)
#
#
# Indices 1 2 3 4 5 6 
#
# 1 126.5212 21.7153 66.2318 0.0000 0.0000 0.0000
# 2 21.7153 23.5432 12.8207 0.0000 0.0000 0.0000
# 3 66.2318 12.8207 141.6479 0.0000 0.0000 0.0000
# 4 0.0000 0.0000 0.0000 21.6600 0.0000 0.0000
# 5 0.0000 0.0000 0.0000 0.0000 21.3666 0.0000
# 6 0.0000 0.0000 0.0000 0.0000 0.0000 33.8728
#
#
#
# Elastic Compliance Matrix: (Units=1/GPa)
#
#
# Indices 1 2 3 4 5 6 
#
# 1 0.011833 -0.008311 -0.004781 0.000000 0.000000 0.000000
# 2 -0.008311 0.050514 -0.000686 0.000000 0.000000 0.000000
# 3 -0.004781 -0.000686 0.009357 0.000000 0.000000 0.000000
# 4 0.000000 0.000000 0.000000 0.046168 0.000000 0.000000
# 5 0.000000 0.000000 0.000000 0.000000 0.046802 0.000000
# 6 0.000000 0.000000 0.000000 0.000000 0.000000 0.029522
#
#
# Mechanical properties :
#
#
# Convention : Reuss Voigt Hill
#
# Bulk Modulus (GPa) = 22.65046 54.80532 38.72789
# Shear Modulus (GPa) = 21.14454 28.10952 24.62703
#
# Velocity S-wave (km/s) = 3.33471 3.84491 3.59886
# Velocity P-wave (km/s) = 5.17102 6.96666 6.13489
#
# Compressibility (1/GPa) = 0.04414921
#
# Stress axis : x y z
#
# Youngs Moduli (GPa) = 84.51115 19.79641 106.87011
#
# Poissons Ratio (x) = 0.16452 0.51090
# Poissons Ratio (y) = 0.70235 0.07333
# Poissons Ratio (z) = 0.40401 0.01358
#
# Static dielectric constant tensor:
#      x y z
#    x 1.705390 0.000000 0.000000 
#    y 0.000000 1.662400 0.000000 
#    z 0.000000 0.000000 1.679970 
# 
# From -- ./inp_files/30673.got.cif
#   From: 2010.05.17/outbox.cif.g08.bks.cpg/sg53_16_cif.got.tgz:30673.got - 2010.06.03 12:45:16.
