data_PCOD9414384
_publ_section_title
;
Structure prediction by ZEFSAII (Michael W. Deem and Ramdas Pophale) SiO2 
 PCOD9414384
Probable space group: P M N A
;
_chemical_formula_sum "Si O2"
_cell_formula_units_Z 64
_cell_length_a 9.022944
_cell_length_b 22.172945
_cell_length_c 18.477014
_cell_angle_alpha 90.000000
_cell_angle_beta 90.000000
_cell_angle_gamma 90.000000
_cell_volume 3696.608260
_symmetry_space_group_name_H-M "P M N A"
_symmetry_group_IT_number 53
_symmetry_cell_setting 'orthorhombic'
loop_
_space_group_symop_operation_xyz
x,y,z
1/2-x,-y,1/2+z
x,-y,-z
1/2-x,y,1/2-z
-x,-y,-z
1/2+x,y,1/2-z
-x,y,z
1/2+x,-y,1/2+z
loop_
_atom_site_type_symbol
_atom_site_label
_atom_site_fract_x
_atom_site_fract_y
_atom_site_fract_z
Si Si1 0.829364 0.999806 0.588177
Si Si2 0.678047 0.619427 0.326054
Si Si3 0.676784 0.565531 0.032212
Si Si4 0.176949 0.878143 0.917384
Si Si5 0.676353 0.676602 0.541209
Si Si6 0.674957 0.747380 0.392708
Si Si7 0.178055 0.760799 0.827400
Si Si8 0.677675 0.132518 0.924329
O O1 0.781373 0.067319 0.609483
O O2 0.000000 0.989872 0.610234
O O3 0.827369 0.000000 0.500000
O O4 0.729799 0.943468 0.610186
O O5 0.750000 0.602360 0.250000
O O6 0.500000 0.614563 0.324691
O O7 0.742500 0.580280 0.392104
O O8 0.715264 0.689699 0.343800
O O9 0.500000 0.569973 0.042272
O O10 0.712056 0.500000 0.000000
O O11 0.733053 0.617077 0.977532
O O12 0.220209 0.824849 0.862991
O O13 0.000000 0.877028 0.926926
O O14 0.251527 0.866475 0.995389
O O15 0.500000 0.662974 0.542015
O O16 0.698491 0.723258 0.474776
O O17 0.719266 0.709037 0.615232
O O18 0.500000 0.759454 0.384087
O O19 0.764953 0.808675 0.382785
O O20 0.250000 0.752356 0.750000
O O21 0.000000 0.760163 0.821175
O O22 0.500000 0.133311 0.930922
#
# Coordination Sequence:
#
# PCOD9414384 Si02
#       8
#     8   8   8   8   8   8   8   8
#     4   8  16  28  40  63  95 123 159 207 258 312
#     4  10  21  37  58  84 115 147 180 220 265 314
#     4  10  21  37  59  88 117 145 182 220 255 307
#     4  10  18  30  46  65  94 128 167 217 267 318
#     4   9  18  35  54  75 106 138 173 219 264 309
#     4   9  17  31  51  75 104 135 169 213 261 310
#     4  10  21  35  50  72 101 134 176 224 270 321
#     4  10  18  27  44  71 100 129 165 212 263 315
#
# _framework density 17.313168000000001
#
# number of rings (size 3 to 8) (size 9 to 14) (size 15 to 20)
#    0.000    2.500    1.250    3.000    0.000    7.750 
#    0.000    0.625    0.000    2.250    0.000    0.000 
#    0.000    0.000    0.000    0.000    0.000    0.000 
#
# Total GULP energy -356883.579813 kJ/mol
# GULP energy per Si atom -5576.305935 kJ/mol
# Density = 1.727376 g / cm^3
# Si number density = 17.313168 Si / 1000 Ang^3
#
#
#
# Elastic Constant Matrix: (Units=GPa)
#
#
# Indices 1 2 3 4 5 6 
#
# 1 51.8505 60.0777 36.1394 0.0000 0.0000 0.0000
# 2 60.0777 138.0724 51.2752 0.0000 0.0000 0.0000
# 3 36.1394 51.2752 89.5960 0.0000 0.0000 0.0000
# 4 0.0000 0.0000 0.0000 14.7528 0.0000 0.0000
# 5 0.0000 0.0000 0.0000 0.0000 29.7961 0.0000
# 6 0.0000 0.0000 0.0000 0.0000 0.0000 31.1891
#
#
#
# Elastic Compliance Matrix: (Units=1/GPa)
#
#
# Indices 1 2 3 4 5 6 
#
# 1 0.043480 -0.015754 -0.008522 0.000000 0.000000 0.000000
# 2 -0.015754 0.014905 -0.002176 0.000000 0.000000 0.000000
# 3 -0.008522 -0.002176 0.015844 0.000000 0.000000 0.000000
# 4 0.000000 0.000000 0.000000 0.067784 0.000000 0.000000
# 5 0.000000 0.000000 0.000000 0.000000 0.033561 0.000000
# 6 0.000000 0.000000 0.000000 0.000000 0.000000 0.032062
#
#
# Mechanical properties :
#
#
# Convention : Reuss Voigt Hill
#
# Bulk Modulus (GPa) = 46.89245 63.83372 55.36309
# Shear Modulus (GPa) = 18.68120 23.94937 21.31529
#
# Velocity S-wave (km/s) = 3.28840 3.72331 3.51260
# Velocity P-wave (km/s) = 6.44684 7.44541 6.96405
#
# Compressibility (1/GPa) = 0.02132540
#
# Stress axis : x y z
#
# Youngs Moduli (GPa) = 22.99922 67.08981 63.11610
#
# Poissons Ratio (x) = 1.05693 0.53788
# Poissons Ratio (y) = 0.36233 0.13732
# Poissons Ratio (z) = 0.19600 0.14597
#
# Static dielectric constant tensor:
#      x y z
#    x 1.576450 0.000000 0.000000 
#    y 0.000000 1.605330 0.000000 
#    z 0.000000 0.000000 1.568290 
# 
# From -- ./inp_files/27011.got.cif
#   From: 2010.05.17/outbox.cif.g08.bks.cpg/sg53_14_cif.got.tgz:27011.got - 2010.06.03 12:45:16.
