data_PCOD9414548
_publ_section_title
;
Structure prediction by ZEFSAII (Michael W. Deem and Ramdas Pophale) SiO2 
 PCOD9414548
Probable space group: P M N A
;
_chemical_formula_sum "Si O2"
_cell_formula_units_Z 64
_cell_length_a 27.480243
_cell_length_b 10.136539
_cell_length_c 14.767537
_cell_angle_alpha 90.000000
_cell_angle_beta 90.000000
_cell_angle_gamma 90.000000
_cell_volume 4113.564696
_symmetry_space_group_name_H-M "P M N A"
_symmetry_group_IT_number 53
_symmetry_cell_setting 'orthorhombic'
loop_
_space_group_symop_operation_xyz
x,y,z
1/2-x,-y,1/2+z
x,-y,-z
1/2-x,y,1/2-z
-x,-y,-z
1/2+x,y,1/2-z
-x,y,z
1/2+x,-y,1/2+z
loop_
_atom_site_type_symbol
_atom_site_label
_atom_site_fract_x
_atom_site_fract_y
_atom_site_fract_z
Si Si1 0.300123 0.826927 0.195523
Si Si2 0.891647 0.757458 0.840210
Si Si3 0.623722 0.244882 0.669629
Si Si4 0.555408 0.990029 0.390567
Si Si5 0.558083 0.510122 0.390233
Si Si6 0.824927 0.159166 0.999935
Si Si7 0.695295 0.852424 0.789590
Si Si8 0.285604 0.157608 0.011882
O O1 0.250000 0.795268 0.250000
O O2 0.347518 0.756438 0.236746
O O3 0.307181 0.986344 0.209619
O O4 0.296728 0.792235 0.089010
O O5 0.918619 0.618226 0.842504
O O6 0.863981 0.775620 0.935446
O O7 0.848793 0.790970 0.768767
O O8 0.932016 0.871860 0.843886
O O9 0.590934 0.116393 0.652496
O O10 0.589621 0.367126 0.645499
O O11 0.666830 0.221671 0.597352
O O12 0.500000 0.950717 0.375770
O O13 0.561864 0.000000 0.500000
O O14 0.563342 0.500000 0.500000
O O15 0.500000 0.522413 0.372496
O O16 0.770806 0.185410 0.031814
O O17 0.830525 0.000000 0.000000
O O18 0.750000 0.822117 0.750000
O O19 0.688931 0.806110 0.893933
O O20 0.290706 0.000000 0.000000
#
# Coordination Sequence:
#
# PCOD9414548 Si02
#       8
#     8   8   8   8   8   8   8   8
#     4  10  18  29  51  81 109 138 173 209 252 306
#     4  12  19  33  51  74 105 143 172 207 257 312
#     4  12  19  33  51  74 105 143 172 207 257 312
#     4  11  20  30  49  75  99 127 173 224 259 301
#     4  11  24  38  51  73 107 141 173 214 267 319
#     4  11  16  27  50  80 106 135 173 207 247 300
#     4  10  18  29  51  81 109 138 173 209 252 306
#     4   9  18  28  47  80 115 139 169 209 251 300
#
# _framework density 15.558282
#
# number of rings (size 3 to 8) (size 9 to 14) (size 15 to 20)
#    0.000    1.250    7.500    0.750    0.000    2.000 
#    0.000    0.625    0.000    0.750    0.000    5.250 
#    0.000    0.000    0.000    0.000    0.000    0.000 
#
# Total GULP energy -356421.749493 kJ/mol
# GULP energy per Si atom -5569.089836 kJ/mol
# Density = 1.552287 g / cm^3
# Si number density = 15.558282 Si / 1000 Ang^3
#
#
#
# Elastic Constant Matrix: (Units=GPa)
#
#
# Indices 1 2 3 4 5 6 
#
# 1 77.0395 18.0959 30.5230 0.0000 0.0000 0.0000
# 2 18.0959 65.4263 8.0195 0.0000 0.0000 0.0000
# 3 30.5230 8.0195 72.1946 0.0000 0.0000 0.0000
# 4 0.0000 0.0000 0.0000 11.3089 0.0000 0.0000
# 5 0.0000 0.0000 0.0000 0.0000 23.4611 0.0000
# 6 0.0000 0.0000 0.0000 0.0000 0.0000 -6.1917
#
#
#
# Elastic Compliance Matrix: (Units=1/GPa)
#
#
# Indices 1 2 3 4 5 6 
#
# 1 0.016452 -0.003749 -0.006539 0.000000 0.000000 0.000000
# 2 -0.003749 0.016350 -0.000231 0.000000 0.000000 0.000000
# 3 -0.006539 -0.000231 0.016642 0.000000 0.000000 0.000000
# 4 0.000000 0.000000 0.000000 0.088426 0.000000 0.000000
# 5 0.000000 0.000000 0.000000 0.000000 0.042624 0.000000
# 6 0.000000 0.000000 0.000000 0.000000 0.000000 -0.161506
#
#
# Mechanical properties :
#
#
# Convention : Reuss Voigt Hill
#
# Bulk Modulus (GPa) = 35.20531 36.43749 35.82140
# Shear Modulus (GPa) = 101.02262 16.25044 58.63653
#
# Velocity S-wave (km/s) = 8.06676 3.23536 6.14574
# Velocity P-wave (km/s) = 10.46139 6.11781 8.56937
#
# Compressibility (1/GPa) = 0.02840480
#
# Stress axis : x y z
#
# Youngs Moduli (GPa) = 60.78388 61.16372 60.08961
#
# Poissons Ratio (x) = 0.22929 0.39294
# Poissons Ratio (y) = 0.22786 0.01389
# Poissons Ratio (z) = 0.39748 0.01414
#
# Static dielectric constant tensor:
#      x y z
#    x 1.509070 0.000000 0.000000 
#    y 0.000000 1.533550 0.000000 
#    z 0.000000 0.000000 1.544090 
# 
# From -- ./inp_files/25239.got.cif
#   From: 2010.05.17/outbox.cif.g08.bks.cpg/sg53_13_cif.got.tgz:25239.got - 2010.06.03 12:45:16.
