data_PCOD9414575
_publ_section_title
;
Structure prediction by ZEFSAII (Michael W. Deem and Ramdas Pophale) SiO2 
 PCOD9414575
Probable space group: P M N A
;
_chemical_formula_sum "Si O2"
_cell_formula_units_Z 28
_cell_length_a 13.947732
_cell_length_b 5.123138
_cell_length_c 18.999545
_cell_angle_alpha 90.000000
_cell_angle_beta 90.000000
_cell_angle_gamma 90.000000
_cell_volume 1357.634448
_symmetry_space_group_name_H-M "P M N A"
_symmetry_group_IT_number 53
_symmetry_cell_setting 'orthorhombic'
loop_
_space_group_symop_operation_xyz
x,y,z
1/2-x,-y,1/2+z
x,-y,-z
1/2-x,y,1/2-z
-x,-y,-z
1/2+x,y,1/2-z
-x,y,z
1/2+x,-y,1/2+z
loop_
_atom_site_type_symbol
_atom_site_label
_atom_site_fract_x
_atom_site_fract_y
_atom_site_fract_z
Si Si1 0.500000 0.247304 0.951040
Si Si2 0.388483 0.382019 0.682325
Si Si3 0.107082 0.477762 0.343458
Si Si4 0.223612 0.882049 0.833063
O O1 0.409433 0.291796 0.899411
O O2 0.500000 0.500000 0.000000
O O3 0.500000 0.000000 0.000000
O O4 0.500000 0.319629 0.671153
O O5 0.317905 0.165679 0.649856
O O6 0.316187 0.737654 0.865182
O O7 0.360871 0.670185 0.656928
O O8 0.000000 0.354435 0.337210
O O9 0.128215 0.600982 0.267154
O O10 0.250000 0.890237 0.750000
#
# Coordination Sequence:
#
# PCOD9414575 Si02
#       4
#     4   8   8   8
#     4  10  22  36  54  74 104 146 190 220 256 304
#     4  10  19  31  47  72 101 135 166 204 251 316
#     4   8  19  36  49  74 107 142 171 221 259 305
#     4  10  18  30  47  70  97 135 171 196 254 321
#
# _framework density 20.624109000000001
#
# number of rings (size 3 to 8) (size 9 to 14) (size 15 to 20)
#    0.857    1.714    0.000    3.429    0.000    8.000 
#    0.000    0.000    0.000    0.000    0.000    0.000 
#    0.000   22.857    0.000    0.000    0.000    0.000 
#
# Total GULP energy -156036.945291 kJ/mol
# GULP energy per Si atom -5572.748046 kJ/mol
# Density = 2.057717 g / cm^3
# Si number density = 20.624109 Si / 1000 Ang^3
#
#
#
# Elastic Constant Matrix: (Units=GPa)
#
#
# Indices 1 2 3 4 5 6 
#
# 1 112.3347 25.9066 -3.5824 0.0000 0.0000 0.0000
# 2 25.9066 102.0167 0.1179 0.0000 0.0000 0.0000
# 3 -3.5824 0.1179 18.1522 0.0000 0.0000 0.0000
# 4 0.0000 0.0000 0.0000 12.2563 0.0000 0.0000
# 5 0.0000 0.0000 0.0000 0.0000 10.5275 0.0000
# 6 0.0000 0.0000 0.0000 0.0000 0.0000 20.1496
#
#
#
# Elastic Compliance Matrix: (Units=1/GPa)
#
#
# Indices 1 2 3 4 5 6 
#
# 1 0.009520 -0.002420 0.001895 0.000000 0.000000 0.000000
# 2 -0.002420 0.010417 -0.000545 0.000000 0.000000 0.000000
# 3 0.001895 -0.000545 0.055467 0.000000 0.000000 0.000000
# 4 0.000000 0.000000 0.000000 0.081590 0.000000 0.000000
# 5 0.000000 0.000000 0.000000 0.000000 0.094989 0.000000
# 6 0.000000 0.000000 0.000000 0.000000 0.000000 0.049629
#
#
# Mechanical properties :
#
#
# Convention : Reuss Voigt Hill
#
# Bulk Modulus (GPa) = 13.64925 30.82087 22.23506
# Shear Modulus (GPa) = 15.23572 22.59079 18.91326
#
# Velocity S-wave (km/s) = 2.72091 3.31321 3.03156
# Velocity P-wave (km/s) = 4.06247 5.44178 4.80191
#
# Compressibility (1/GPa) = 0.07326409
#
# Stress axis : x y z
#
# Youngs Moduli (GPa) = 105.03700 95.99276 18.02869
#
# Poissons Ratio (x) = 0.23229 -0.03416
# Poissons Ratio (y) = 0.25417 0.00983
# Poissons Ratio (z) = -0.19901 0.05234
#
# Static dielectric constant tensor:
#      x y z
#    x 1.837680 0.000000 0.000000 
#    y 0.000000 1.782060 0.000000 
#    z 0.000000 0.000000 1.649070 
# 
# From -- ./inp_files/35085.got.cif
#   From: 2010.05.17/outbox.cif.g08.bks.cpg/sg53_18_cif.got.tgz:35085.got - 2010.06.03 12:45:16.
