data_PCOD9414478
_publ_section_title
;
Structure prediction by ZEFSAII (Michael W. Deem and Ramdas Pophale) SiO2 
 PCOD9414478
Probable space group: P M N A
;
_chemical_formula_sum "Si O2"
_cell_formula_units_Z 56
_cell_length_a 8.908171
_cell_length_b 20.889407
_cell_length_c 18.826522
_cell_angle_alpha 90.000000
_cell_angle_beta 90.000000
_cell_angle_gamma 90.000000
_cell_volume 3503.359885
_symmetry_space_group_name_H-M "P M N A"
_symmetry_group_IT_number 53
_symmetry_cell_setting 'orthorhombic'
loop_
_space_group_symop_operation_xyz
x,y,z
1/2-x,-y,1/2+z
x,-y,-z
1/2-x,y,1/2-z
-x,-y,-z
1/2+x,y,1/2-z
-x,y,z
1/2+x,-y,1/2+z
loop_
_atom_site_type_symbol
_atom_site_label
_atom_site_fract_x
_atom_site_fract_y
_atom_site_fract_z
Si Si1 0.825909 0.072885 0.470065
Si Si2 0.179882 0.632164 0.078842
Si Si3 0.182218 0.119664 0.617235
Si Si4 0.679407 0.492437 0.672198
Si Si5 0.320046 0.248983 0.675124
Si Si6 0.181695 0.021729 0.325539
Si Si7 0.326650 0.564727 0.952243
O O1 0.763453 0.114297 0.535055
O O2 0.000000 0.092162 0.462326
O O3 0.826718 0.000000 0.500000
O O4 0.762177 0.065974 0.390977
O O5 0.220586 0.574855 0.133641
O O6 0.220181 0.699177 0.115002
O O7 0.000000 0.629322 0.069763
O O8 0.255963 0.618011 0.003455
O O9 0.255096 0.179774 0.655286
O O10 0.219340 0.052174 0.655025
O O11 0.000000 0.124960 0.617605
O O12 0.750000 0.496014 0.750000
O O13 0.500000 0.495167 0.677065
O O14 0.738715 0.547700 0.619462
O O15 0.250000 0.269573 0.750000
O O16 0.500000 0.246465 0.681092
O O17 0.250000 0.038584 0.250000
O O18 0.000000 0.025329 0.323817
O O19 0.500000 0.578258 0.936715
O O20 0.319318 0.500000 0.000000
#
# Coordination Sequence:
#
# PCOD9414478 Si02
#       7
#     8   8   8   8   8   8   8
#     4   7  12  25  43  60  80 110 145 177 213 261
#     4   9  19  33  46  62  88 122 153 183 219 258
#     4   9  17  30  46  62  84 116 151 183 216 256
#     4  10  18  29  46  67  92 119 148 182 221 263
#     4  11  22  33  45  64  91 121 153 184 215 253
#     4   9  16  26  42  64  88 113 142 178 220 264
#     4   9  17  29  46  67  89 114 146 183 223 268
#
# _framework density 15.984655999999999
#
# number of rings (size 3 to 8) (size 9 to 14) (size 15 to 20)
#    0.000    2.857    0.000    3.857    0.000    5.143 
#    0.000    0.714    0.000    2.571    0.000    1.000 
#    0.000    4.571    0.000    0.000    0.000    0.000 
#
# Total GULP energy -311878.102530 kJ/mol
# GULP energy per Si atom -5569.251831 kJ/mol
# Density = 1.594827 g / cm^3
# Si number density = 15.984656 Si / 1000 Ang^3
#
#
#
# Elastic Constant Matrix: (Units=GPa)
#
#
# Indices 1 2 3 4 5 6 
#
# 1 26.4962 6.9501 22.4395 0.0000 0.0000 0.0000
# 2 6.9501 15.3833 -3.3047 0.0000 0.0000 0.0000
# 3 22.4395 -3.3047 88.4982 0.0000 0.0000 0.0000
# 4 0.0000 0.0000 0.0000 24.5512 0.0000 0.0000
# 5 0.0000 0.0000 0.0000 0.0000 30.2280 0.0000
# 6 0.0000 0.0000 0.0000 0.0000 0.0000 -11.1421
#
#
#
# Elastic Compliance Matrix: (Units=1/GPa)
#
#
# Indices 1 2 3 4 5 6 
#
# 1 0.059411 -0.030321 -0.016197 0.000000 0.000000 0.000000
# 2 -0.030321 0.081006 0.010713 0.000000 0.000000 0.000000
# 3 -0.016197 0.010713 0.015807 0.000000 0.000000 0.000000
# 4 0.000000 0.000000 0.000000 0.040731 0.000000 0.000000
# 5 0.000000 0.000000 0.000000 0.000000 0.033082 0.000000
# 6 0.000000 0.000000 0.000000 0.000000 0.000000 -0.089750
#
#
# Mechanical properties :
#
#
# Convention : Reuss Voigt Hill
#
# Bulk Modulus (GPa) = 11.81826 20.28304 16.05065
# Shear Modulus (GPa) = 20.82455 15.68029 18.25242
#
# Velocity S-wave (km/s) = 3.61333 3.13542 3.38282
# Velocity P-wave (km/s) = 4.98174 5.08178 5.03201
#
# Compressibility (1/GPa) = 0.08461483
#
# Stress axis : x y z
#
# Youngs Moduli (GPa) = 16.83179 12.34478 63.26505
#
# Poissons Ratio (x) = 0.37431 1.02468
# Poissons Ratio (y) = 0.51036 -0.67777
# Poissons Ratio (z) = 0.27262 -0.13225
#
# Static dielectric constant tensor:
#      x y z
#    x 1.538450 0.000000 0.000000 
#    y 0.000000 1.519630 0.000000 
#    z 0.000000 0.000000 1.554630 
# 
# From -- ./inp_files/26654.got.cif
#   From: 2010.05.17/outbox.cif.g08.bks.cpg/sg53_14_cif.got.tgz:26654.got - 2010.06.03 12:45:16.
