data_PCOD9414313
_publ_section_title
;
Structure prediction by ZEFSAII (Michael W. Deem and Ramdas Pophale) SiO2 
 PCOD9414313
Probable space group: P M N A
;
_chemical_formula_sum "Si O2"
_cell_formula_units_Z 42
_cell_length_a 22.546127
_cell_length_b 13.810240
_cell_length_c 5.295244
_cell_angle_alpha 90.000000
_cell_angle_beta 90.000000
_cell_angle_gamma 90.000000
_cell_volume 1648.766489
_symmetry_space_group_name_H-M "P M N A"
_symmetry_group_IT_number 53
_symmetry_cell_setting 'orthorhombic'
loop_
_space_group_symop_operation_xyz
x,y,z
1/2-x,-y,1/2+z
x,-y,-z
1/2-x,y,1/2-z
-x,-y,-z
1/2+x,y,1/2-z
-x,y,z
1/2+x,-y,1/2+z
loop_
_atom_site_type_symbol
_atom_site_label
_atom_site_fract_x
_atom_site_fract_y
_atom_site_fract_z
Si Si1 0.713437 0.500000 0.500000
Si Si2 0.772458 0.807968 0.510403
Si Si3 0.000000 0.500000 0.000000
Si Si4 0.067133 0.707710 0.241206
Si Si5 0.606843 0.384571 0.253806
Si Si6 0.807859 0.000000 0.000000
Si Si7 0.106695 0.093325 0.593453
O O1 0.750000 0.462800 0.750000
O O2 0.668095 0.428805 0.350500
O O3 0.750000 0.749262 0.750000
O O4 0.840491 0.841323 0.535736
O O5 0.733831 0.907148 0.517609
O O6 0.750000 0.762571 0.250000
O O7 0.946843 0.541635 0.809448
O O8 0.101866 0.652323 0.465558
O O9 0.066556 0.821115 0.303379
O O10 0.000000 0.665309 0.226335
O O11 0.093714 0.698484 0.962555
O O12 0.851544 0.968517 0.219412
O O13 0.070427 0.000000 0.500000
#
# Coordination Sequence:
#
# PCOD9414313 Si02
#       7
#     4   8   2   8   8   4   8
#     4  11  24  49  82 115 160 189 226 280 376 505
#     4  10  17  32  55  80 111 152 238 301 310 399
#     4  10  20  46  88 106 126 186 250 274 342 438
#     4  12  26  46  66 107 157 176 250 324 352 416
#     4  11  25  47  78 113 144 193 235 301 370 425
#     4  10  18  36  57  86 115 170 264 290 328 422
#     4  11  23  37  64  88 133 194 241 290 373 410
#
# _framework density 25.473587999999999
#
# number of rings (size 3 to 8) (size 9 to 14) (size 15 to 20)
#    0.000    1.143    4.762    1.714    2.667    3.429 
#    0.000   11.905    0.000    0.000    0.000    0.000 
#    0.000    0.000    0.000    0.000    0.000    0.000 
#
# Total GULP energy -233809.185982 kJ/mol
# GULP energy per Si atom -5566.885381 kJ/mol
# Density = 2.541561 g / cm^3
# Si number density = 25.473588 Si / 1000 Ang^3
#
#
#
# Elastic Constant Matrix: (Units=GPa)
#
#
# Indices 1 2 3 4 5 6 
#
# 1 120.8320 26.5832 25.9657 0.0000 0.0000 0.0000
# 2 26.5832 79.4278 7.1845 0.0000 0.0000 0.0000
# 3 25.9657 7.1845 146.3180 0.0000 0.0000 0.0000
# 4 0.0000 0.0000 0.0000 9.4665 0.0000 0.0000
# 5 0.0000 0.0000 0.0000 0.0000 14.3301 0.0000
# 6 0.0000 0.0000 0.0000 0.0000 0.0000 8.7303
#
#
#
# Elastic Compliance Matrix: (Units=1/GPa)
#
#
# Indices 1 2 3 4 5 6 
#
# 1 0.009249 -0.002960 -0.001496 0.000000 0.000000 0.000000
# 2 -0.002960 0.013594 -0.000142 0.000000 0.000000 0.000000
# 3 -0.001496 -0.000142 0.007107 0.000000 0.000000 0.000000
# 4 0.000000 0.000000 0.000000 0.105635 0.000000 0.000000
# 5 0.000000 0.000000 0.000000 0.000000 0.069783 0.000000
# 6 0.000000 0.000000 0.000000 0.000000 0.000000 0.114544
#
#
# Mechanical properties :
#
#
# Convention : Reuss Voigt Hill
#
# Bulk Modulus (GPa) = 48.18629 51.78272 49.98451
# Shear Modulus (GPa) = 14.87982 25.62835 20.25408
#
# Velocity S-wave (km/s) = 2.41949 3.17531 2.82281
# Velocity P-wave (km/s) = 5.17325 5.81512 5.50355
#
# Compressibility (1/GPa) = 0.02075279
#
# Stress axis : x y z
#
# Youngs Moduli (GPa) = 108.12408 73.56405 140.70880
#
# Poissons Ratio (x) = 0.21775 0.21049
# Poissons Ratio (y) = 0.32005 0.02001
# Poissons Ratio (z) = 0.16175 0.01046
#
# Static dielectric constant tensor:
#      x y z
#    x 5.369260 0.000000 0.000000 
#    y 0.000000 1.873770 0.000000 
#    z 0.000000 0.000000 -4.141170 
# 
# From -- ./inp_files/3725.got.cif
#   From: 2010.05.17/outbox.cif.g08.bks.cpg/sg53_2_cif.got.tgz:3725.got - 2010.06.03 12:45:16.
