data_PCOD9414468
_publ_section_title
;
Structure prediction by ZEFSAII (Michael W. Deem and Ramdas Pophale) SiO2 
 PCOD9414468
Probable space group: P M N A
;
_chemical_formula_sum "Si O2"
_cell_formula_units_Z 56
_cell_length_a 8.944960
_cell_length_b 18.522340
_cell_length_c 21.803510
_cell_angle_alpha 90.000000
_cell_angle_beta 90.000000
_cell_angle_gamma 90.000000
_cell_volume 3612.440213
_symmetry_space_group_name_H-M "P M N A"
_symmetry_group_IT_number 53
_symmetry_cell_setting 'orthorhombic'
loop_
_space_group_symop_operation_xyz
x,y,z
1/2-x,-y,1/2+z
x,-y,-z
1/2-x,y,1/2-z
-x,-y,-z
1/2+x,y,1/2-z
-x,y,z
1/2+x,-y,1/2+z
loop_
_atom_site_type_symbol
_atom_site_label
_atom_site_fract_x
_atom_site_fract_y
_atom_site_fract_z
Si Si1 0.180893 0.951281 0.592056
Si Si2 0.823322 0.564809 0.915939
Si Si3 0.681157 0.103452 0.955242
Si Si4 0.321518 0.262580 0.959230
Si Si5 0.678540 0.838344 0.682875
Si Si6 0.322378 0.711713 0.895910
Si Si7 0.824660 0.591677 0.062783
O O1 0.217656 0.915512 0.525940
O O2 0.261211 0.906899 0.644722
O O3 0.000000 0.946874 0.599288
O O4 0.226297 0.035268 0.585963
O O5 0.732324 0.629713 0.885768
O O6 0.770225 0.482449 0.905521
O O7 0.000000 0.569828 0.900941
O O8 0.811231 0.577724 0.989448
O O9 0.500000 0.104921 0.953184
O O10 0.734924 0.183604 0.939112
O O11 0.500000 0.264930 0.952074
O O12 0.254103 0.332311 0.926040
O O13 0.291717 0.269464 0.032453
O O14 0.750000 0.838480 0.750000
O O15 0.500000 0.838855 0.686199
O O16 0.735732 0.767869 0.646357
O O17 0.500000 0.718479 0.886337
O O18 0.000000 0.598211 0.076255
#
# Coordination Sequence:
#
# PCOD9414468 Si02
#       7
#     8   8   8   8   8   8   8
#     4   9  16  31  50  66  87 117 152 185 226 274
#     4   8  14  25  38  54  81 115 149 179 213 255
#     4   8  14  26  47  68  90 120 149 182 224 276
#     4   9  15  24  40  63  89 117 150 182 215 263
#     4  12  24  36  49  65  88 117 152 193 233 273
#     4  10  18  29  45  63  85 113 150 187 223 266
#     4   8  14  23  35  54  83 118 148 177 213 251
#
# _framework density 15.501986
#
# number of rings (size 3 to 8) (size 9 to 14) (size 15 to 20)
#    0.000    2.857    1.429    3.429    0.000    1.143 
#    0.000    5.000    0.000    0.000    0.000    0.000 
#    0.000    1.143    0.000    8.857    0.000    5.857 
#
# Total GULP energy -311743.207223 kJ/mol
# GULP energy per Si atom -5566.842986 kJ/mol
# Density = 1.546670 g / cm^3
# Si number density = 15.501986 Si / 1000 Ang^3
#
#
#
# Elastic Constant Matrix: (Units=GPa)
#
#
# Indices 1 2 3 4 5 6 
#
# 1 52.2267 53.5918 32.1962 0.0000 0.0000 0.0000
# 2 53.5918 180.0939 36.4326 0.0000 0.0000 0.0000
# 3 32.1962 36.4326 37.3676 0.0000 0.0000 0.0000
# 4 0.0000 0.0000 0.0000 6.8580 0.0000 0.0000
# 5 0.0000 0.0000 0.0000 0.0000 6.9927 0.0000
# 6 0.0000 0.0000 0.0000 0.0000 0.0000 27.8256
#
#
#
# Elastic Compliance Matrix: (Units=1/GPa)
#
#
# Indices 1 2 3 4 5 6 
#
# 1 0.047445 -0.007286 -0.033776 0.000000 0.000000 0.000000
# 2 -0.007286 0.008036 -0.001557 0.000000 0.000000 0.000000
# 3 -0.033776 -0.001557 0.057381 0.000000 0.000000 0.000000
# 4 0.000000 0.000000 0.000000 0.145815 0.000000 0.000000
# 5 0.000000 0.000000 0.000000 0.000000 0.143007 0.000000
# 6 0.000000 0.000000 0.000000 0.000000 0.000000 0.035938
#
#
# Mechanical properties :
#
#
# Convention : Reuss Voigt Hill
#
# Bulk Modulus (GPa) = 36.19990 57.12552 46.66271
# Shear Modulus (GPa) = 9.39732 18.16644 13.78188
#
# Velocity S-wave (km/s) = 2.46479 3.42698 2.98491
# Velocity P-wave (km/s) = 5.61273 7.25186 6.48429
#
# Compressibility (1/GPa) = 0.02762439
#
# Stress axis : x y z
#
# Youngs Moduli (GPa) = 21.07688 124.44346 17.42747
#
# Poissons Ratio (x) = 0.90668 0.58862
# Poissons Ratio (y) = 0.15356 0.02714
# Poissons Ratio (z) = 0.71189 0.19377
#
# Static dielectric constant tensor:
#      x y z
#    x 1.516430 0.000000 0.000000 
#    y 0.000000 1.565210 0.000000 
#    z 0.000000 0.000000 1.480730 
# 
# From -- ./inp_files/31004.got.cif
#   From: 2010.05.17/outbox.cif.g08.bks.cpg/sg53_16_cif.got.tgz:31004.got - 2010.06.03 12:45:16.
