data_PCOD9414425
_publ_section_title
;
Structure prediction by ZEFSAII (Michael W. Deem and Ramdas Pophale) SiO2 
 PCOD9414425
Probable space group: P M N A
;
_chemical_formula_sum "Si O2"
_cell_formula_units_Z 64
_cell_length_a 8.670102
_cell_length_b 21.293212
_cell_length_c 21.244867
_cell_angle_alpha 90.000000
_cell_angle_beta 90.000000
_cell_angle_gamma 90.000000
_cell_volume 3922.106674
_symmetry_space_group_name_H-M "P M N A"
_symmetry_group_IT_number 53
_symmetry_cell_setting 'orthorhombic'
loop_
_space_group_symop_operation_xyz
x,y,z
1/2-x,-y,1/2+z
x,-y,-z
1/2-x,y,1/2-z
-x,-y,-z
1/2+x,y,1/2-z
-x,y,z
1/2+x,-y,1/2+z
loop_
_atom_site_type_symbol
_atom_site_label
_atom_site_fract_x
_atom_site_fract_y
_atom_site_fract_z
Si Si1 0.684935 0.479798 0.316053
Si Si2 0.178758 0.785614 0.837532
Si Si3 0.681194 0.668569 0.002541
Si Si4 0.183336 0.654611 0.647963
Si Si5 0.813850 0.943550 0.543165
Si Si6 0.684732 0.197475 0.028097
Si Si7 0.817433 0.081420 0.314814
Si Si8 0.815029 0.545255 0.056259
O O1 0.750000 0.503565 0.250000
O O2 0.500000 0.479863 0.314248
O O3 0.742926 0.408760 0.326352
O O4 0.739197 0.519753 0.376390
O O5 0.243171 0.716996 0.822237
O O6 0.205975 0.790972 0.912445
O O7 0.277365 0.844484 0.814074
O O8 0.000000 0.792395 0.820608
O O9 0.500000 0.658004 0.012634
O O10 0.710761 0.657626 0.927788
O O11 0.712849 0.742345 0.015982
O O12 0.770933 0.616496 0.041294
O O13 0.000000 0.654898 0.658134
O O14 0.787856 0.875121 0.511421
O O15 0.759085 0.942140 0.616325
O O16 0.000000 0.950249 0.547154
O O17 0.753663 0.000000 0.500000
O O18 0.500000 0.202057 0.046384
O O19 0.750000 0.053797 0.250000
O O20 0.000000 0.073384 0.313735
O O21 0.000000 0.540166 0.056173
O O22 0.755920 0.500000 0.000000
#
# Coordination Sequence:
#
# PCOD9414425 Si02
#       8
#     8   8   8   8   8   8   8   8
#     4  11  23  37  50  67  93 123 156 197 246 295
#     4  10  18  28  44  65  91 125 162 195 231 272
#     4   9  17  28  47  72  96 122 155 199 240 277
#     4  10  19  32  48  68  94 125 160 196 235 278
#     4   8  14  27  49  73  97 127 160 195 233 276
#     4   8  15  28  44  69 100 125 156 196 235 279
#     4  10  19  31  46  66  94 125 162 200 234 277
#     4  10  20  34  51  71  94 120 156 201 244 288
#
# _framework density 16.317761000000001
#
# number of rings (size 3 to 8) (size 9 to 14) (size 15 to 20)
#    0.000    2.500    1.250    3.750    0.000    3.750 
#    0.000    2.500    0.000    9.375    0.000    0.875 
#    0.000    4.000    0.000    0.000    0.000    0.125 
#
# Total GULP energy -356468.259704 kJ/mol
# GULP energy per Si atom -5569.816558 kJ/mol
# Density = 1.628062 g / cm^3
# Si number density = 16.317761 Si / 1000 Ang^3
#
#
#
# Elastic Constant Matrix: (Units=GPa)
#
#
# Indices 1 2 3 4 5 6 
#
# 1 25.4880 17.6345 21.9638 0.0000 0.0000 0.0000
# 2 17.6345 98.5221 60.4761 0.0000 0.0000 0.0000
# 3 21.9638 60.4761 95.0694 0.0000 0.0000 0.0000
# 4 0.0000 0.0000 0.0000 2.6268 0.0000 0.0000
# 5 0.0000 0.0000 0.0000 0.0000 23.7141 0.0000
# 6 0.0000 0.0000 0.0000 0.0000 0.0000 9.0469
#
#
#
# Elastic Compliance Matrix: (Units=1/GPa)
#
#
# Indices 1 2 3 4 5 6 
#
# 1 0.049529 -0.003021 -0.009521 0.000000 0.000000 0.000000
# 2 -0.003021 0.016837 -0.010012 0.000000 0.000000 0.000000
# 3 -0.009521 -0.010012 0.019087 0.000000 0.000000 0.000000
# 4 0.000000 0.000000 0.000000 0.380693 0.000000 0.000000
# 5 0.000000 0.000000 0.000000 0.000000 0.042169 0.000000
# 6 0.000000 0.000000 0.000000 0.000000 0.000000 0.110535
#
#
# Mechanical properties :
#
#
# Convention : Reuss Voigt Hill
#
# Bulk Modulus (GPa) = 24.78657 46.58094 35.68376
# Shear Modulus (GPa) = 7.38110 15.01123 11.19617
#
# Velocity S-wave (km/s) = 2.12912 3.03633 2.62226
# Velocity P-wave (km/s) = 4.61163 6.39535 5.57529
#
# Compressibility (1/GPa) = 0.04034443
#
# Stress axis : x y z
#
# Youngs Moduli (GPa) = 20.19029 59.39448 52.39080
#
# Poissons Ratio (x) = 0.17943 0.49881
# Poissons Ratio (y) = 0.06099 0.52455
# Poissons Ratio (z) = 0.19223 0.59467
#
# Static dielectric constant tensor:
#      x y z
#    x 1.552090 0.000000 0.000000 
#    y 0.000000 1.555150 0.000000 
#    z 0.000000 0.000000 1.594070 
# 
# From -- ./inp_files/31385.got.cif
#   From: 2010.05.17/outbox.cif.g08.bks.cpg/sg53_16_cif.got.tgz:31385.got - 2010.06.03 12:45:16.
