data_PCOD9414356
_publ_section_title
;
Structure prediction by ZEFSAII (Michael W. Deem and Ramdas Pophale) SiO2 
 PCOD9414356
Probable space group: P M N A
;
_chemical_formula_sum "Si O2"
_cell_formula_units_Z 64
_cell_length_a 9.000535
_cell_length_b 27.372464
_cell_length_c 18.590921
_cell_angle_alpha 90.000000
_cell_angle_beta 90.000000
_cell_angle_gamma 90.000000
_cell_volume 4580.186093
_symmetry_space_group_name_H-M "P M N A"
_symmetry_group_IT_number 53
_symmetry_cell_setting 'orthorhombic'
loop_
_space_group_symop_operation_xyz
x,y,z
1/2-x,-y,1/2+z
x,-y,-z
1/2-x,y,1/2-z
-x,-y,-z
1/2+x,y,1/2-z
-x,y,z
1/2+x,-y,1/2+z
loop_
_atom_site_type_symbol
_atom_site_label
_atom_site_fract_x
_atom_site_fract_y
_atom_site_fract_z
Si Si1 0.177126 0.010985 0.828100
Si Si2 0.677100 0.492682 0.828009
Si Si3 0.678093 0.397071 0.923461
Si Si4 0.678345 0.194990 0.826976
Si Si5 0.679712 0.100722 0.914846
Si Si6 0.171048 0.549236 0.951203
Si Si7 0.179155 0.306687 0.672634
Si Si8 0.170829 0.047406 0.447393
O O1 0.250000 0.005956 0.750000
O O2 0.241595 0.060063 0.865512
O O3 0.000000 0.013795 0.823044
O O4 0.227639 0.966837 0.880489
O O5 0.750000 0.493921 0.750000
O O6 0.500000 0.496428 0.822441
O O7 0.711943 0.441153 0.867667
O O8 0.739980 0.535027 0.879737
O O9 0.500000 0.397031 0.933999
O O10 0.723988 0.346403 0.886552
O O11 0.755983 0.409809 0.998472
O O12 0.750000 0.182905 0.750000
O O13 0.500000 0.193851 0.819004
O O14 0.718479 0.154050 0.885149
O O15 0.720616 0.250736 0.845667
O O16 0.500000 0.093869 0.909086
O O17 0.717848 0.090369 0.998240
O O18 0.000000 0.560199 0.934878
O O19 0.175181 0.500000 0.000000
O O20 0.250000 0.318328 0.750000
O O21 0.000000 0.309142 0.679297
O O22 0.000000 0.054744 0.423865
O O23 0.171427 0.000000 0.500000
#
# Coordination Sequence:
#
# PCOD9414356 Si02
#       8
#     8   8   8   8   8   8   8   8
#     4  11  20  28  40  58  80 105 134 165 197 235
#     4  10  18  27  40  58  81 107 135 165 198 236
#     4   9  17  28  41  57  79 108 137 166 200 235
#     4   9  17  28  41  58  80 107 137 168 199 230
#     4   9  17  29  43  58  79 107 136 165 199 236
#     4   9  17  28  41  57  77 102 133 167 200 236
#     4   9  17  28  41  58  81 107 137 170 200 231
#     4   8  15  28  42  56  77 103 130 162 198 234
#
# _framework density 13.973231999999999
#
# number of rings (size 3 to 8) (size 9 to 14) (size 15 to 20)
#    0.000    2.750    0.000    3.375    0.000    6.250 
#    0.000    0.000    0.000    0.000    0.000    0.000 
#    0.000    1.000    0.000    5.500    0.000    2.875 
#
# Total GULP energy -356513.892350 kJ/mol
# GULP energy per Si atom -5570.529568 kJ/mol
# Density = 1.394143 g / cm^3
# Si number density = 13.973232 Si / 1000 Ang^3
#
#
#
# Elastic Constant Matrix: (Units=GPa)
#
#
# Indices 1 2 3 4 5 6 
#
# 1 49.4586 27.1625 47.9425 0.0000 0.0000 0.0000
# 2 27.1625 74.0809 43.7777 0.0000 0.0000 0.0000
# 3 47.9425 43.7777 89.9679 0.0000 0.0000 0.0000
# 4 0.0000 0.0000 0.0000 27.3521 0.0000 0.0000
# 5 0.0000 0.0000 0.0000 0.0000 25.9275 0.0000
# 6 0.0000 0.0000 0.0000 0.0000 0.0000 15.7569
#
#
#
# Elastic Compliance Matrix: (Units=1/GPa)
#
#
# Indices 1 2 3 4 5 6 
#
# 1 0.042315 -0.003074 -0.021053 0.000000 0.000000 0.000000
# 2 -0.003074 0.019170 -0.007690 0.000000 0.000000 0.000000
# 3 -0.021053 -0.007690 0.026076 0.000000 0.000000 0.000000
# 4 0.000000 0.000000 0.000000 0.036560 0.000000 0.000000
# 5 0.000000 0.000000 0.000000 0.000000 0.038569 0.000000
# 6 0.000000 0.000000 0.000000 0.000000 0.000000 0.063464
#
#
# Mechanical properties :
#
#
# Convention : Reuss Voigt Hill
#
# Bulk Modulus (GPa) = 41.79426 50.14140 45.96783
# Shear Modulus (GPa) = 16.79178 20.11561 18.45370
#
# Velocity S-wave (km/s) = 3.47033 3.79830 3.63801
# Velocity P-wave (km/s) = 6.78474 7.42953 7.11444
#
# Compressibility (1/GPa) = 0.02392673
#
# Stress axis : x y z
#
# Youngs Moduli (GPa) = 23.63226 52.16423 38.34953
#
# Poissons Ratio (x) = 0.16035 0.80738
# Poissons Ratio (y) = 0.07264 0.29491
# Poissons Ratio (z) = 0.49754 0.40114
#
# Static dielectric constant tensor:
#      x y z
#    x 1.466700 0.000000 0.000000 
#    y 0.000000 1.463870 0.000000 
#    z 0.000000 0.000000 1.445150 
# 
# From -- ./inp_files/21063.got.cif
#   From: 2010.05.17/outbox.cif.g08.bks.cpg/sg53_11_cif.got.tgz:21063.got - 2010.06.03 12:45:16.
