data_PCOD9414570
_publ_section_title
;
Structure prediction by ZEFSAII (Michael W. Deem and Ramdas Pophale) SiO2 
 PCOD9414570
Probable space group: P M N A
;
_chemical_formula_sum "Si O2"
_cell_formula_units_Z 64
_cell_length_a 9.047399
_cell_length_b 20.043736
_cell_length_c 20.499726
_cell_angle_alpha 90.000000
_cell_angle_beta 90.000000
_cell_angle_gamma 90.000000
_cell_volume 3717.495691
_symmetry_space_group_name_H-M "P M N A"
_symmetry_group_IT_number 53
_symmetry_cell_setting 'orthorhombic'
loop_
_space_group_symop_operation_xyz
x,y,z
1/2-x,-y,1/2+z
x,-y,-z
1/2-x,y,1/2-z
-x,-y,-z
1/2+x,y,1/2-z
-x,y,z
1/2+x,-y,1/2+z
loop_
_atom_site_type_symbol
_atom_site_label
_atom_site_fract_x
_atom_site_fract_y
_atom_site_fract_z
Si Si1 0.676741 0.955421 0.180811
Si Si2 0.177989 0.656922 0.528532
Si Si3 0.823809 0.261897 0.816925
Si Si4 0.323308 0.388572 0.606752
Si Si5 0.178245 0.810581 0.551666
Si Si6 0.677247 0.145531 0.581789
Si Si7 0.329123 0.519509 0.922829
Si Si8 0.176126 0.886708 0.682149
O O1 0.750000 0.935555 0.250000
O O2 0.500000 0.944611 0.183221
O O3 0.749323 0.914406 0.122168
O O4 0.705402 0.034433 0.172126
O O5 0.256926 0.640976 0.460331
O O6 0.212345 0.731567 0.551031
O O7 0.218731 0.596765 0.577879
O O8 0.000000 0.651712 0.518909
O O9 0.750000 0.240445 0.750000
O O10 0.777923 0.336591 0.837281
O O11 0.787967 0.211846 0.875822
O O12 0.000000 0.260702 0.808764
O O13 0.500000 0.388617 0.602137
O O14 0.264651 0.463674 0.613740
O O15 0.255474 0.844545 0.489690
O O16 0.224565 0.845113 0.619124
O O17 0.000000 0.817622 0.545117
O O18 0.500000 0.137900 0.578948
O O19 0.500000 0.514310 0.902777
O O20 0.322142 0.500000 0.000000
O O21 0.250000 0.866090 0.750000
O O22 0.000000 0.878931 0.688482
#
# Coordination Sequence:
#
# PCOD9414570 Si02
#       8
#     8   8   8   8   8   8   8   8
#     4  10  20  36  56  78 105 140 178 219 260 309
#     4   9  17  30  49  73 101 132 167 205 251 304
#     4  10  22  35  48  69 100 137 177 216 257 307
#     4  10  18  30  46  69  99 129 166 214 258 299
#     4  10  20  35  56  80 106 140 174 214 264 314
#     4  11  22  36  52  77 109 139 175 220 263 313
#     4   8  15  27  44  69  96 126 165 204 244 298
#     4   9  20  38  59  81 105 133 173 216 262 319
#
# _framework density 17.215890999999999
#
# number of rings (size 3 to 8) (size 9 to 14) (size 15 to 20)
#    0.000    2.375    1.250    2.250    0.000    6.750 
#    0.000    2.500    0.000    0.750    0.000    3.500 
#    0.000    0.000    0.000    0.000    0.000    0.000 
#
# Total GULP energy -356910.812346 kJ/mol
# GULP energy per Si atom -5576.731443 kJ/mol
# Density = 1.717671 g / cm^3
# Si number density = 17.215891 Si / 1000 Ang^3
#
#
#
# Elastic Constant Matrix: (Units=GPa)
#
#
# Indices 1 2 3 4 5 6 
#
# 1 35.7566 43.1006 42.2641 0.0000 0.0000 0.0000
# 2 43.1006 98.8574 70.2651 0.0000 0.0000 0.0000
# 3 42.2641 70.2651 120.1992 0.0000 0.0000 0.0000
# 4 0.0000 0.0000 0.0000 16.6261 0.0000 0.0000
# 5 0.0000 0.0000 0.0000 0.0000 24.0644 0.0000
# 6 0.0000 0.0000 0.0000 0.0000 0.0000 23.2395
#
#
#
# Elastic Compliance Matrix: (Units=1/GPa)
#
#
# Indices 1 2 3 4 5 6 
#
# 1 0.066488 -0.021165 -0.011006 0.000000 0.000000 0.000000
# 2 -0.021165 0.024044 -0.006613 0.000000 0.000000 0.000000
# 3 -0.011006 -0.006613 0.016055 0.000000 0.000000 0.000000
# 4 0.000000 0.000000 0.000000 0.060147 0.000000 0.000000
# 5 0.000000 0.000000 0.000000 0.000000 0.041555 0.000000
# 6 0.000000 0.000000 0.000000 0.000000 0.000000 0.043030
#
#
# Mechanical properties :
#
#
# Convention : Reuss Voigt Hill
#
# Bulk Modulus (GPa) = 34.46069 62.89697 48.67883
# Shear Modulus (GPa) = 14.76838 19.39820 17.08329
#
# Velocity S-wave (km/s) = 2.93206 3.36037 3.15349
# Velocity P-wave (km/s) = 5.61452 7.18816 6.44952
#
# Compressibility (1/GPa) = 0.02901857
#
# Stress axis : x y z
#
# Youngs Moduli (GPa) = 15.04027 41.59037 62.28488
#
# Poissons Ratio (x) = 0.88028 0.68548
# Poissons Ratio (y) = 0.31833 0.41191
# Poissons Ratio (z) = 0.16553 0.27505
#
# Static dielectric constant tensor:
#      x y z
#    x 1.575160 0.000000 0.000000 
#    y 0.000000 1.618980 0.000000 
#    z 0.000000 0.000000 1.549370 
# 
# From -- ./inp_files/26964.got.cif
#   From: 2010.05.17/outbox.cif.g08.bks.cpg/sg53_14_cif.got.tgz:26964.got - 2010.06.03 12:45:16.
