data_PCOD9414896
_publ_section_title
;
Structure prediction by ZEFSAII (Michael W. Deem and Ramdas Pophale) SiO2 
 PCOD9414896
Probable space group: P M N A
;
_chemical_formula_sum "Si O2"
_cell_formula_units_Z 64
_cell_length_a 18.147481
_cell_length_b 9.459677
_cell_length_c 20.803448
_cell_angle_alpha 90.000000
_cell_angle_beta 90.000000
_cell_angle_gamma 90.000000
_cell_volume 3571.313535
_symmetry_space_group_name_H-M "P M N A"
_symmetry_group_IT_number 53
_symmetry_cell_setting 'orthorhombic'
loop_
_space_group_symop_operation_xyz
x,y,z
1/2-x,-y,1/2+z
x,-y,-z
1/2-x,y,1/2-z
-x,-y,-z
1/2+x,y,1/2-z
-x,y,z
1/2+x,-y,1/2+z
loop_
_atom_site_type_symbol
_atom_site_label
_atom_site_fract_x
_atom_site_fract_y
_atom_site_fract_z
Si Si1 0.804486 0.924488 0.932065
Si Si2 0.332452 0.826195 0.247759
Si Si3 0.851456 0.663971 0.485382
Si Si4 0.819889 0.663594 0.016126
Si Si5 0.582607 0.170974 0.875147
Si Si6 0.796573 0.134036 0.305233
Si Si7 0.912217 0.158963 0.397067
Si Si8 0.588619 0.164805 0.616762
O O1 0.751017 0.909679 0.869355
O O2 0.873014 0.020412 0.909151
O O3 0.827058 0.768325 0.955103
O O4 0.776759 0.000000 0.000000
O O5 0.250000 0.767798 0.250000
O O6 0.370099 0.773599 0.183567
O O7 0.379351 0.809048 0.311892
O O8 0.323600 0.993602 0.232179
O O9 0.862222 0.500000 0.500000
O O10 0.766290 0.682945 0.463896
O O11 0.906250 0.721322 0.432172
O O12 0.870379 0.759760 0.546667
O O13 0.876192 0.717457 0.069892
O O14 0.830593 0.500000 0.000000
O O15 0.500000 0.160187 0.851522
O O16 0.600369 0.011582 0.899745
O O17 0.750000 0.212670 0.250000
O O18 0.870082 0.205938 0.332392
O O19 0.000000 0.183523 0.398804
O O20 0.500000 0.160266 0.615380
#
# Coordination Sequence:
#
# PCOD9414896 Si02
#       8
#     8   8   8   8   8   8   8   8
#     4  10  20  35  62  89 115 150 193 245 287 344
#     4  10  18  32  58  85 114 150 187 233 290 351
#     4  11  22  36  57  81 112 151 198 239 283 340
#     4  10  23  39  60  84 117 158 200 239 293 349
#     4  10  21  33  52  81 114 148 186 232 291 350
#     4  10  18  33  56  85 116 152 187 231 291 341
#     4  10  21  34  55  85 114 146 187 235 289 345
#     4  11  22  37  61  93 121 149 195 252 300 348
#
# _framework density 17.920577000000002
#
# number of rings (size 3 to 8) (size 9 to 14) (size 15 to 20)
#    0.000    1.750    3.750    1.875    5.250    5.000 
#    0.000    0.000    2.750    0.000    0.000    0.000 
#    0.000    0.000    0.000    0.000    0.000    0.000 
#
# Total GULP energy -356457.674088 kJ/mol
# GULP energy per Si atom -5569.651158 kJ/mol
# Density = 1.787979 g / cm^3
# Si number density = 17.920577 Si / 1000 Ang^3
#
#
#
# Elastic Constant Matrix: (Units=GPa)
#
#
# Indices 1 2 3 4 5 6 
#
# 1 113.6706 30.8583 45.0052 0.0000 0.0000 0.0000
# 2 30.8583 67.9533 23.4416 0.0000 0.0000 0.0000
# 3 45.0052 23.4416 95.8742 0.0000 0.0000 0.0000
# 4 0.0000 0.0000 0.0000 -2.1938 0.0000 0.0000
# 5 0.0000 0.0000 0.0000 0.0000 20.2878 0.0000
# 6 0.0000 0.0000 0.0000 0.0000 0.0000 17.7799
#
#
#
# Elastic Compliance Matrix: (Units=1/GPa)
#
#
# Indices 1 2 3 4 5 6 
#
# 1 0.011600 -0.003701 -0.004540 0.000000 0.000000 0.000000
# 2 -0.003701 0.017253 -0.002481 0.000000 0.000000 0.000000
# 3 -0.004540 -0.002481 0.013168 0.000000 0.000000 0.000000
# 4 0.000000 0.000000 0.000000 -0.455827 0.000000 0.000000
# 5 0.000000 0.000000 0.000000 0.000000 0.049291 0.000000
# 6 0.000000 0.000000 0.000000 0.000000 0.000000 0.056243
#
#
# Mechanical properties :
#
#
# Convention : Reuss Voigt Hill
#
# Bulk Modulus (GPa) = 48.60077 52.90091 50.75084
# Shear Modulus (GPa) = -17.85908 19.05431 0.59761
#
# Velocity S-wave (km/s) = -3.16027 3.26431 0.57810
# Velocity P-wave (km/s) = 3.72324 6.61750 5.36907
#
# Compressibility (1/GPa) = 0.02057580
#
# Stress axis : x y z
#
# Youngs Moduli (GPa) = 86.20899 57.96224 75.94084
#
# Poissons Ratio (x) = 0.21454 0.34478
# Poissons Ratio (y) = 0.31909 0.18840
# Poissons Ratio (z) = 0.39140 0.14380
#
# Static dielectric constant tensor:
#      x y z
#    x 1.662510 0.000000 0.000000 
#    y 0.000000 1.607430 0.000000 
#    z 0.000000 0.000000 1.652510 
# 
# From -- ./inp_files/32823.got.cif
#   From: 2010.05.17/outbox.cif.g08.bks.cpg/sg53_17_cif.got.tgz:32823.got - 2010.06.03 12:45:16.
