data_PCOD9414949
_publ_section_title
;
Structure prediction by ZEFSAII (Michael W. Deem and Ramdas Pophale) SiO2 
 PCOD9414949
Probable space group: P M N A
;
_chemical_formula_sum "Si O2"
_cell_formula_units_Z 64
_cell_length_a 16.017449
_cell_length_b 18.343328
_cell_length_c 11.823774
_cell_angle_alpha 90.000000
_cell_angle_beta 90.000000
_cell_angle_gamma 90.000000
_cell_volume 3473.982303
_symmetry_space_group_name_H-M "P M N A"
_symmetry_group_IT_number 53
_symmetry_cell_setting 'orthorhombic'
loop_
_space_group_symop_operation_xyz
x,y,z
1/2-x,-y,1/2+z
x,-y,-z
1/2-x,y,1/2-z
-x,-y,-z
1/2+x,y,1/2-z
-x,y,z
1/2+x,-y,1/2+z
loop_
_atom_site_type_symbol
_atom_site_label
_atom_site_fract_x
_atom_site_fract_y
_atom_site_fract_z
Si Si1 0.272142 0.823583 0.971411
Si Si2 0.220359 0.020805 0.378062
Si Si3 0.596675 0.586423 0.492636
Si Si4 0.902805 0.587244 0.486224
Si Si5 0.593639 0.891738 0.126000
Si Si6 0.166672 0.816929 0.183267
Si Si7 0.752819 0.338828 0.383134
Si Si8 0.096956 0.338959 0.753920
O O1 0.283239 0.892097 0.888986
O O2 0.265002 0.746116 0.912929
O O3 0.352422 0.832940 0.054211
O O4 0.190775 0.828928 0.053426
O O5 0.250000 0.005001 0.250000
O O6 0.264992 0.000000 0.500000
O O7 0.138729 0.969467 0.386044
O O8 0.609823 0.500000 0.500000
O O9 0.500000 0.602492 0.528327
O O10 0.668022 0.629496 0.560695
O O11 0.603830 0.608736 0.361576
O O12 0.898147 0.500000 0.500000
O O13 0.833875 0.621042 0.567347
O O14 0.881405 0.618307 0.360864
O O15 0.000000 0.607640 0.509342
O O16 0.500000 0.894019 0.084663
O O17 0.597694 0.866100 0.256555
O O18 0.250000 0.839048 0.250000
O O19 0.148270 0.733159 0.214366
O O20 0.750000 0.349490 0.250000
O O21 0.000000 0.316148 0.742889
#
# Coordination Sequence:
#
# PCOD9414949 Si02
#       8
#     8   8   8   8   8   8   8   8
#     4  10  21  37  57  83 120 157 202 250 304 375
#     4  10  20  37  61  86 116 160 200 246 306 374
#     4  10  23  42  63  88 121 163 210 258 314 378
#     4  10  23  41  61  89 122 157 204 264 320 372
#     4  10  20  34  59  92 120 152 201 256 309 367
#     4  10  18  33  56  85 117 152 194 251 308 359
#     4  12  25  40  60  90 121 166 211 253 311 379
#     4  10  20  36  63  89 116 158 202 257 320 369
#
# _framework density 18.422661999999999
#
# number of rings (size 3 to 8) (size 9 to 14) (size 15 to 20)
#    0.000    1.750    1.250    4.500    1.750    4.250 
#    0.000    0.000    0.000    6.375    0.000    0.000 
#    0.000    0.000    0.000    0.000    0.000    0.000 
#
# Total GULP energy -356522.087464 kJ/mol
# GULP energy per Si atom -5570.657617 kJ/mol
# Density = 1.838073 g / cm^3
# Si number density = 18.422662 Si / 1000 Ang^3
#
#
#
# Elastic Constant Matrix: (Units=GPa)
#
#
# Indices 1 2 3 4 5 6 
#
# 1 100.2281 61.0503 65.4777 0.0000 0.0000 0.0000
# 2 61.0503 130.4183 42.1354 0.0000 0.0000 0.0000
# 3 65.4777 42.1354 125.2109 0.0000 0.0000 0.0000
# 4 0.0000 0.0000 0.0000 26.2866 0.0000 0.0000
# 5 0.0000 0.0000 0.0000 0.0000 15.3859 0.0000
# 6 0.0000 0.0000 0.0000 0.0000 0.0000 6.8414
#
#
#
# Elastic Compliance Matrix: (Units=1/GPa)
#
#
# Indices 1 2 3 4 5 6 
#
# 1 0.018907 -0.006346 -0.007751 0.000000 0.000000 0.000000
# 2 -0.006346 0.010733 -0.000293 0.000000 0.000000 0.000000
# 3 -0.007751 -0.000293 0.012139 0.000000 0.000000 0.000000
# 4 0.000000 0.000000 0.000000 0.038042 0.000000 0.000000
# 5 0.000000 0.000000 0.000000 0.000000 0.064995 0.000000
# 6 0.000000 0.000000 0.000000 0.000000 0.000000 0.146168
#
#
# Mechanical properties :
#
#
# Convention : Reuss Voigt Hill
#
# Bulk Modulus (GPa) = 76.94148 77.02045 76.98097
# Shear Modulus (GPa) = 15.42748 22.18239 18.80493
#
# Velocity S-wave (km/s) = 2.89696 3.47375 3.19838
# Velocity P-wave (km/s) = 7.28320 7.61495 7.45092
#
# Compressibility (1/GPa) = 0.01299689
#
# Stress axis : x y z
#
# Youngs Moduli (GPa) = 52.89140 93.17023 82.38080
#
# Poissons Ratio (x) = 0.59127 0.63857
# Poissons Ratio (y) = 0.33565 0.02416
# Poissons Ratio (z) = 0.40999 0.02732
#
# Static dielectric constant tensor:
#      x y z
#    x 1.655030 0.000000 0.000000 
#    y 0.000000 1.648360 0.000000 
#    z 0.000000 0.000000 1.686220 
# 
# From -- ./inp_files/16218.got.cif
#   From: 2010.05.17/outbox.cif.g08.bks.cpg/sg53_9_cif.got.tgz:16218.got - 2010.06.03 12:45:16.
