data_PCOD9414201
_publ_section_title
;
Structure prediction by ZEFSAII (Michael W. Deem and Ramdas Pophale) SiO2 
 PCOD9414201
Probable space group: P M N A
;
_chemical_formula_sum "Si O2"
_cell_formula_units_Z 64
_cell_length_a 8.213181
_cell_length_b 17.696022
_cell_length_c 26.633524
_cell_angle_alpha 90.000000
_cell_angle_beta 90.000000
_cell_angle_gamma 90.000000
_cell_volume 3870.933202
_symmetry_space_group_name_H-M "P M N A"
_symmetry_group_IT_number 53
_symmetry_cell_setting 'orthorhombic'
loop_
_space_group_symop_operation_xyz
x,y,z
1/2-x,-y,1/2+z
x,-y,-z
1/2-x,y,1/2-z
-x,-y,-z
1/2+x,y,1/2-z
-x,y,z
1/2+x,-y,1/2+z
loop_
_atom_site_type_symbol
_atom_site_label
_atom_site_fract_x
_atom_site_fract_y
_atom_site_fract_z
Si Si1 0.803411 0.587448 0.305705
Si Si2 0.698906 0.320233 0.098755
Si Si3 0.801043 0.412903 0.500059
Si Si4 0.307387 0.164899 0.054024
Si Si5 0.304024 0.320494 0.901930
Si Si6 0.306234 0.838428 0.439135
Si Si7 0.309660 0.003117 0.439163
Si Si8 0.803447 0.586445 0.694353
O O1 0.750000 0.610739 0.250000
O O2 0.744644 0.641125 0.350551
O O3 0.748659 0.500491 0.313891
O O4 0.000000 0.587099 0.306837
O O5 0.500000 0.321006 0.100017
O O6 0.748516 0.369800 0.050509
O O7 0.750547 0.234181 0.088399
O O8 0.755549 0.359098 0.150018
O O9 0.748768 0.500000 0.500000
O O10 0.745923 0.367831 0.549477
O O11 0.000000 0.412758 0.500705
O O12 0.500000 0.173313 0.046993
O O13 0.272455 0.081672 0.075506
O O14 0.232320 0.171479 0.998320
O O15 0.500000 0.325744 0.901960
O O16 0.259162 0.233369 0.909469
O O17 0.500000 0.841050 0.434043
O O18 0.242383 0.921446 0.422671
O O19 0.500000 0.008182 0.425840
O O20 0.299961 0.000000 0.500000
O O21 0.750000 0.609566 0.750000
O O22 0.000000 0.585805 0.692960
#
# Coordination Sequence:
#
# PCOD9414201 Si02
#       8
#     8   8   8   8   8   8   8   8
#     4   9  18  31  48  68  89 117 153 194 229 263
#     4   9  16  26  42  66  92 117 147 185 224 263
#     4   9  15  24  41  64  89 116 146 181 220 262
#     4  10  17  27  44  67  91 117 151 190 225 262
#     4  10  18  29  46  69  91 115 155 192 220 264
#     4  10  19  30  43  62  92 126 151 179 224 274
#     4   8  16  29  42  59  87 122 153 177 215 273
#     4   9  17  31  48  66  89 118 154 191 228 264
#
# _framework density 16.533480999999998
#
# number of rings (size 3 to 8) (size 9 to 14) (size 15 to 20)
#    0.000    2.750    1.250    2.250    0.000    6.250 
#    0.000    1.250    0.000    0.375    0.000    0.875 
#    0.000    2.000    0.000    0.000    0.000    0.000 
#
# Total GULP energy -356597.089706 kJ/mol
# GULP energy per Si atom -5571.829527 kJ/mol
# Density = 1.649585 g / cm^3
# Si number density = 16.533481 Si / 1000 Ang^3
#
#
#
# Elastic Constant Matrix: (Units=GPa)
#
#
# Indices 1 2 3 4 5 6 
#
# 1 3.1464 8.8227 8.0381 0.0000 0.0000 0.0000
# 2 8.8227 155.3134 85.9214 0.0000 0.0000 0.0000
# 3 8.0381 85.9214 116.1850 0.0000 0.0000 0.0000
# 4 0.0000 0.0000 0.0000 19.7602 0.0000 0.0000
# 5 0.0000 0.0000 0.0000 0.0000 15.0193 0.0000
# 6 0.0000 0.0000 0.0000 0.0000 0.0000 30.8083
#
#
#
# Elastic Compliance Matrix: (Units=1/GPa)
#
#
# Indices 1 2 3 4 5 6 
#
# 1 0.399998 -0.012545 -0.018396 0.000000 0.000000 0.000000
# 2 -0.012545 0.011290 -0.007481 0.000000 0.000000 0.000000
# 3 -0.018396 -0.007481 0.015412 0.000000 0.000000 0.000000
# 4 0.000000 0.000000 0.000000 0.050607 0.000000 0.000000
# 5 0.000000 0.000000 0.000000 0.000000 0.066581 0.000000
# 6 0.000000 0.000000 0.000000 0.000000 0.000000 0.032459
#
#
# Mechanical properties :
#
#
# Convention : Reuss Voigt Hill
#
# Bulk Modulus (GPa) = 2.85833 53.35658 28.10745
# Shear Modulus (GPa) = 6.49511 24.57507 15.53509
#
# Velocity S-wave (km/s) = 1.98418 3.85955 3.06864
# Velocity P-wave (km/s) = 2.64233 7.22519 5.43991
#
# Compressibility (1/GPa) = 0.34985511
#
# Stress axis : x y z
#
# Youngs Moduli (GPa) = 2.50001 88.57423 64.88369
#
# Poissons Ratio (x) = 1.11119 1.19359
# Poissons Ratio (y) = 0.03136 0.48541
# Poissons Ratio (z) = 0.04599 0.66265
#
# Static dielectric constant tensor:
#      x y z
#    x 1.588820 0.000000 0.000000 
#    y 0.000000 1.585590 0.000000 
#    z 0.000000 0.000000 1.529110 
# 
# From -- ./inp_files/34532.got.cif
#   From: 2010.05.17/outbox.cif.g08.bks.cpg/sg53_18_cif.got.tgz:34532.got - 2010.06.03 12:45:16.
