data_PCOD9414316
_publ_section_title
;
Structure prediction by ZEFSAII (Michael W. Deem and Ramdas Pophale) SiO2 
 PCOD9414316
Probable space group: P M N A
;
_chemical_formula_sum "Si O2"
_cell_formula_units_Z 56
_cell_length_a 20.088749
_cell_length_b 11.184501
_cell_length_c 13.072847
_cell_angle_alpha 90.000000
_cell_angle_beta 90.000000
_cell_angle_gamma 90.000000
_cell_volume 2937.241688
_symmetry_space_group_name_H-M "P M N A"
_symmetry_group_IT_number 53
_symmetry_cell_setting 'orthorhombic'
loop_
_space_group_symop_operation_xyz
x,y,z
1/2-x,-y,1/2+z
x,-y,-z
1/2-x,y,1/2-z
-x,-y,-z
1/2+x,y,1/2-z
-x,y,z
1/2+x,-y,1/2+z
loop_
_atom_site_type_symbol
_atom_site_label
_atom_site_fract_x
_atom_site_fract_y
_atom_site_fract_z
Si Si1 0.835515 0.366917 0.028556
Si Si2 0.811977 0.552608 0.328886
Si Si3 0.076225 0.795580 0.648115
Si Si4 0.194761 0.689563 0.535530
Si Si5 0.080166 0.052369 0.157764
Si Si6 0.420432 0.814201 0.442605
Si Si7 0.425325 0.556273 0.717136
O O1 0.772814 0.281581 0.051106
O O2 0.884190 0.391200 0.122564
O O3 0.810429 0.500000 0.000000
O O4 0.879174 0.307048 0.940038
O O5 0.750000 0.558718 0.250000
O O6 0.811126 0.426368 0.390152
O O7 0.810906 0.651466 0.417132
O O8 0.881303 0.546646 0.268281
O O9 0.135362 0.778215 0.566538
O O10 0.100128 0.886706 0.736576
O O11 0.069731 0.667244 0.704309
O O12 0.000000 0.826023 0.613287
O O13 0.000000 0.049098 0.161396
O O14 0.101630 0.916687 0.136187
O O15 0.093898 0.130472 0.056089
O O16 0.500000 0.795620 0.435299
O O17 0.500000 0.520437 0.688130
#
# Coordination Sequence:
#
# PCOD9414316 Si02
#       7
#     8   8   8   8   8   8   8
#     4  12  20  31  44  74 117 152 187 225 276 352
#     4  10  17  33  46  62 102 151 192 227 277 347
#     4   9  17  30  50  75 103 135 184 245 288 331
#     4  10  20  30  48  74 103 150 194 227 288 347
#     4   8  14  29  49  71 100 133 174 226 287 337
#     4   9  17  28  46  71 103 144 182 220 277 345
#     4  10  19  29  46  69  98 142 188 234 278 324
#
# _framework density 19.065507
#
# number of rings (size 3 to 8) (size 9 to 14) (size 15 to 20)
#    0.000    2.286    4.286    1.286    0.000    1.714 
#    0.000    2.857    0.000    0.000    0.000   12.000 
#    0.000    0.000    0.000   27.000    0.000    0.286 
#
# Total GULP energy -311830.087753 kJ/mol
# GULP energy per Si atom -5568.394424 kJ/mol
# Density = 1.902211 g / cm^3
# Si number density = 19.065507 Si / 1000 Ang^3
#
#
#
# Elastic Constant Matrix: (Units=GPa)
#
#
# Indices 1 2 3 4 5 6 
#
# 1 146.1275 27.8688 55.3504 0.0000 0.0000 0.0000
# 2 27.8688 47.8427 26.8358 0.0000 0.0000 0.0000
# 3 55.3504 26.8358 88.6817 0.0000 0.0000 0.0000
# 4 0.0000 0.0000 0.0000 23.7853 0.0000 0.0000
# 5 0.0000 0.0000 0.0000 0.0000 21.5342 0.0000
# 6 0.0000 0.0000 0.0000 0.0000 0.0000 -0.1653
#
#
#
# Elastic Compliance Matrix: (Units=1/GPa)
#
#
# Indices 1 2 3 4 5 6 
#
# 1 0.009219 -0.002581 -0.004973 0.000000 0.000000 0.000000
# 2 -0.002581 0.025897 -0.006226 0.000000 0.000000 0.000000
# 3 -0.004973 -0.006226 0.016264 0.000000 0.000000 0.000000
# 4 0.000000 0.000000 0.000000 0.042043 0.000000 0.000000
# 5 0.000000 0.000000 0.000000 0.000000 0.046438 0.000000
# 6 0.000000 0.000000 0.000000 0.000000 0.000000 -6.049621
#
#
# Mechanical properties :
#
#
# Convention : Reuss Voigt Hill
#
# Bulk Modulus (GPa) = 41.97964 55.86244 48.92104
# Shear Modulus (GPa) = -0.85117 20.53731 9.84307
#
# Velocity S-wave (km/s) = -0.66889 3.28563 2.27464
# Velocity P-wave (km/s) = 4.63356 6.61496 5.71085
#
# Compressibility (1/GPa) = 0.02382107
#
# Stress axis : x y z
#
# Youngs Moduli (GPa) = 108.46808 38.61393 61.48414
#
# Poissons Ratio (x) = 0.09965 0.30578
# Poissons Ratio (y) = 0.27993 0.38280
# Poissons Ratio (z) = 0.53944 0.24041
#
# Static dielectric constant tensor:
#      x y z
#    x 1.710340 0.000000 0.000000 
#    y 0.000000 1.713190 0.000000 
#    z 0.000000 0.000000 1.742000 
# 
# From -- ./inp_files/17853.got.cif
#   From: 2010.05.17/outbox.cif.g08.bks.cpg/sg53_9_cif.got.tgz:17853.got - 2010.06.03 12:45:16.
