data_PCOD9414142
_publ_section_title
;
Structure prediction by ZEFSAII (Michael W. Deem and Ramdas Pophale) SiO2 
 PCOD9414142
Probable space group: P M N A
;
_chemical_formula_sum "Si O2"
_cell_formula_units_Z 64
_cell_length_a 14.272057
_cell_length_b 8.045435
_cell_length_c 24.683334
_cell_angle_alpha 90.000000
_cell_angle_beta 90.000000
_cell_angle_gamma 90.000000
_cell_volume 2834.261529
_symmetry_space_group_name_H-M "P M N A"
_symmetry_group_IT_number 53
_symmetry_cell_setting 'orthorhombic'
loop_
_space_group_symop_operation_xyz
x,y,z
1/2-x,-y,1/2+z
x,-y,-z
1/2-x,y,1/2-z
-x,-y,-z
1/2+x,y,1/2-z
-x,y,z
1/2+x,-y,1/2+z
loop_
_atom_site_type_symbol
_atom_site_label
_atom_site_fract_x
_atom_site_fract_y
_atom_site_fract_z
Si Si1 0.898365 0.307839 0.015234
Si Si2 0.808353 0.805439 0.493425
Si Si3 0.638341 0.044825 0.698869
Si Si4 0.852871 0.346539 0.622403
Si Si5 0.635059 0.020260 0.818886
Si Si6 0.136851 0.275497 0.139859
Si Si7 0.356635 0.288236 0.111715
Si Si8 0.819822 0.408821 0.803000
O O1 0.804896 0.215778 0.995166
O O2 0.899665 0.308045 0.080171
O O3 0.000000 0.246344 0.994727
O O4 0.887585 0.500000 0.000000
O O5 0.846029 0.723595 0.438482
O O6 0.851269 0.721400 0.546885
O O7 0.829630 0.000000 0.500000
O O8 0.607865 0.982836 0.757802
O O9 0.751304 0.036571 0.688490
O O10 0.603778 0.906487 0.657567
O O11 0.618746 0.241480 0.699344
O O12 0.895084 0.530616 0.626525
O O13 0.747869 0.375739 0.645475
O O14 0.894354 0.199947 0.658930
O O15 0.604363 0.876227 0.859818
O O16 0.249370 0.276012 0.132345
O O17 0.123760 0.422862 0.183713
O O18 0.750000 0.421847 0.750000
#
# Coordination Sequence:
#
# PCOD9414142 Si02
#       8
#     8   8   8   8   8   8   8   8
#     4  10  21  38  50  60  80 110 155 209 254 276
#     4  11  19  29  44  60  79 105 147 190 230 270
#     4   9  16  25  38  58  87  98 125 159 209 269
#     4  10  17  26  38  55  81 106 133 166 210 257
#     4   9  15  24  35  58  78 108 125 159 203 254
#     4   9  19  28  45  62  78 107 134 175 232 276
#     4   9  17  26  38  55  78 106 134 169 206 251
#     4  10  17  24  40  62  82 104 127 160 213 270
#
# _framework density 22.580839999999998
#
# number of rings (size 3 to 8) (size 9 to 14) (size 15 to 20)
#    0.000    2.375    3.750    2.625    7.000    0.250 
#    0.000    0.000    0.000    0.000    0.000    0.000 
#    0.000    0.000    0.000    0.000    0.000    0.000 
#
# Total GULP energy -356803.669035 kJ/mol
# GULP energy per Si atom -5575.057329 kJ/mol
# Density = 2.252944 g / cm^3
# Si number density = 22.580840 Si / 1000 Ang^3
#
#
#
# Elastic Constant Matrix: (Units=GPa)
#
#
# Indices 1 2 3 4 5 6 
#
# 1 75.3200 4.5056 -7.1007 0.0000 0.0000 0.0000
# 2 4.5056 103.4870 27.0951 0.0000 0.0000 0.0000
# 3 -7.1007 27.0951 81.1279 0.0000 0.0000 0.0000
# 4 0.0000 0.0000 0.0000 35.9908 0.0000 0.0000
# 5 0.0000 0.0000 0.0000 0.0000 -26.0666 0.0000
# 6 0.0000 0.0000 0.0000 0.0000 0.0000 -30.5963
#
#
#
# Elastic Compliance Matrix: (Units=1/GPa)
#
#
# Indices 1 2 3 4 5 6 
#
# 1 0.013478 -0.000981 0.001507 0.000000 0.000000 0.000000
# 2 -0.000981 0.010660 -0.003646 0.000000 0.000000 0.000000
# 3 0.001507 -0.003646 0.013676 0.000000 0.000000 0.000000
# 4 0.000000 0.000000 0.000000 0.027785 0.000000 0.000000
# 5 0.000000 0.000000 0.000000 0.000000 -0.038363 0.000000
# 6 0.000000 0.000000 0.000000 0.000000 0.000000 -0.032684
#
#
# Mechanical properties :
#
#
# Convention : Reuss Voigt Hill
#
# Bulk Modulus (GPa) = 31.67241 34.32612 32.99926
# Shear Modulus (GPa) = 441.82044 11.56125 226.69085
#
# Velocity S-wave (km/s) = 14.00309 2.26518 10.03039
# Velocity P-wave (km/s) = 16.59835 4.69849 12.19797
#
# Compressibility (1/GPa) = 0.03157322
#
# Stress axis : x y z
#
# Youngs Moduli (GPa) = 74.19771 93.80462 73.12114
#
# Poissons Ratio (x) = 0.09207 -0.11022
# Poissons Ratio (y) = 0.07282 0.26662
# Poissons Ratio (z) = -0.11185 0.34204
#
# Static dielectric constant tensor:
#      x y z
#    x 1.928910 0.000000 0.000000 
#    y 0.000000 1.873780 0.000000 
#    z 0.000000 0.000000 1.808900 
# 
# From -- ./inp_files/33239.got.cif
#   From: 2010.05.17/outbox.cif.g08.bks.cpg/sg53_17_cif.got.tgz:33239.got - 2010.06.03 12:45:16.
