data_PCOD9414451
_publ_section_title
;
Structure prediction by ZEFSAII (Michael W. Deem and Ramdas Pophale) SiO2 
 PCOD9414451
Probable space group: P M N A
;
_chemical_formula_sum "Si O2"
_cell_formula_units_Z 56
_cell_length_a 27.191220
_cell_length_b 5.498349
_cell_length_c 19.061579
_cell_angle_alpha 90.000000
_cell_angle_beta 90.000000
_cell_angle_gamma 90.000000
_cell_volume 2849.836009
_symmetry_space_group_name_H-M "P M N A"
_symmetry_group_IT_number 53
_symmetry_cell_setting 'orthorhombic'
loop_
_space_group_symop_operation_xyz
x,y,z
1/2-x,-y,1/2+z
x,-y,-z
1/2-x,y,1/2-z
-x,-y,-z
1/2+x,y,1/2-z
-x,y,z
1/2+x,-y,1/2+z
loop_
_atom_site_type_symbol
_atom_site_label
_atom_site_fract_x
_atom_site_fract_y
_atom_site_fract_z
Si Si1 0.194369 0.718247 0.219537
Si Si2 0.058568 0.665289 0.743511
Si Si3 0.908480 0.167410 0.739372
Si Si4 0.210559 0.251413 0.456213
Si Si5 0.944272 0.150776 0.580367
Si Si6 0.219263 0.785552 0.823265
Si Si7 0.900118 0.349451 0.414282
O O1 0.250000 0.702581 0.250000
O O2 0.149869 0.785188 0.272019
O O3 0.185871 0.453049 0.186734
O O4 0.194517 0.951118 0.168793
O O5 0.070520 0.405198 0.777701
O O6 0.086301 0.642658 0.668271
O O7 0.000000 0.687460 0.733257
O O8 0.080293 0.911192 0.776275
O O9 0.936389 0.142226 0.665114
O O10 0.218976 0.500000 0.500000
O O11 0.245341 0.253185 0.388683
O O12 0.154973 0.266013 0.427591
O O13 0.216271 0.000000 0.500000
O O14 0.908918 0.374603 0.560311
O O15 0.000000 0.224465 0.566651
O O16 0.934005 0.872542 0.558299
O O17 0.250000 0.803322 0.750000
#
# Coordination Sequence:
#
# PCOD9414451 Si02
#       7
#     8   8   8   8   8   8   8
#     4  10  21  31  52  81 116 138 181 237 300 346
#     4  10  19  31  51  76 107 149 200 239 295 341
#     4  10  18  28  47  74 110 143 179 235 289 346
#     4  12  26  43  61  83 114 155 199 245 304 355
#     4  10  19  31  53  78 107 145 194 241 303 343
#     4  10  23  38  60  83 115 140 190 245 295 345
#     4  10  20  32  56  71 104 134 197 240 287 338
#
# _framework density 19.650251999999998
#
# number of rings (size 3 to 8) (size 9 to 14) (size 15 to 20)
#    0.000    1.714    0.000    6.857   16.000    0.000 
#    0.000    0.000    0.000   14.571    0.000    0.000 
#    0.000    0.000    0.000    0.000    0.000  294.286 
#
# Total GULP energy -312388.217079 kJ/mol
# GULP energy per Si atom -5578.361019 kJ/mol
# Density = 1.960553 g / cm^3
# Si number density = 19.650252 Si / 1000 Ang^3
#
#
#
# Elastic Constant Matrix: (Units=GPa)
#
#
# Indices 1 2 3 4 5 6 
#
# 1 59.0095 11.6711 19.2680 0.0000 0.0000 0.0000
# 2 11.6711 179.8748 3.4267 0.0000 0.0000 0.0000
# 3 19.2680 3.4267 28.2952 0.0000 0.0000 0.0000
# 4 0.0000 0.0000 0.0000 20.9963 0.0000 0.0000
# 5 0.0000 0.0000 0.0000 0.0000 19.7959 0.0000
# 6 0.0000 0.0000 0.0000 0.0000 0.0000 28.6235
#
#
#
# Elastic Compliance Matrix: (Units=1/GPa)
#
#
# Indices 1 2 3 4 5 6 
#
# 1 0.022025 -0.001146 -0.014860 0.000000 0.000000 0.000000
# 2 -0.001146 0.005632 0.000098 0.000000 0.000000 0.000000
# 3 -0.014860 0.000098 0.045449 0.000000 0.000000 0.000000
# 4 0.000000 0.000000 0.000000 0.047627 0.000000 0.000000
# 5 0.000000 0.000000 0.000000 0.000000 0.050516 0.000000
# 6 0.000000 0.000000 0.000000 0.000000 0.000000 0.034936
#
#
# Mechanical properties :
#
#
# Convention : Reuss Voigt Hill
#
# Bulk Modulus (GPa) = 24.21822 37.32346 30.77084
# Shear Modulus (GPa) = 19.85993 29.40404 24.63199
#
# Velocity S-wave (km/s) = 3.18255 3.87249 3.54435
# Velocity P-wave (km/s) = 5.08490 6.24740 5.69589
#
# Compressibility (1/GPa) = 0.04129123
#
# Stress axis : x y z
#
# Youngs Moduli (GPa) = 45.40276 177.55970 22.00285
#
# Poissons Ratio (x) = 0.20349 0.32695
# Poissons Ratio (y) = 0.05203 -0.00216
# Poissons Ratio (z) = 0.67466 -0.01746
#
# Static dielectric constant tensor:
#      x y z
#    x 1.688910 0.000000 0.000000 
#    y 0.000000 1.837290 0.000000 
#    z 0.000000 0.000000 1.762240 
# 
# From -- ./inp_files/33177.got.cif
#   From: 2010.05.17/outbox.cif.g08.bks.cpg/sg53_17_cif.got.tgz:33177.got - 2010.06.03 12:45:16.
