data_PCOD9414546
_publ_section_title
;
Structure prediction by ZEFSAII (Michael W. Deem and Ramdas Pophale) SiO2 
 PCOD9414546
Probable space group: P M N A
;
_chemical_formula_sum "Si O2"
_cell_formula_units_Z 48
_cell_length_a 16.367664
_cell_length_b 18.729449
_cell_length_c 7.712715
_cell_angle_alpha 90.000000
_cell_angle_beta 90.000000
_cell_angle_gamma 90.000000
_cell_volume 2364.389303
_symmetry_space_group_name_H-M "P M N A"
_symmetry_group_IT_number 53
_symmetry_cell_setting 'orthorhombic'
loop_
_space_group_symop_operation_xyz
x,y,z
1/2-x,-y,1/2+z
x,-y,-z
1/2-x,y,1/2-z
-x,-y,-z
1/2+x,y,1/2-z
-x,y,z
1/2+x,-y,1/2+z
loop_
_atom_site_type_symbol
_atom_site_label
_atom_site_fract_x
_atom_site_fract_y
_atom_site_fract_z
Si Si1 0.586877 0.085521 0.989704
Si Si2 0.149520 0.580248 0.553207
Si Si3 0.410861 0.837262 0.372500
Si Si4 0.849130 0.314578 0.753230
Si Si5 0.151141 0.579050 0.943673
Si Si6 0.262982 0.916885 0.458793
O O1 0.500000 0.110479 0.068940
O O2 0.583450 0.108023 0.788508
O O3 0.678011 0.107378 0.048231
O O4 0.588297 0.000000 0.000000
O O5 0.123420 0.500000 0.500000
O O6 0.125381 0.641204 0.417282
O O7 0.123588 0.594916 0.749312
O O8 0.249175 0.578545 0.552909
O O9 0.500000 0.831877 0.454974
O O10 0.386253 0.762844 0.283208
O O11 0.339820 0.866652 0.495831
O O12 0.750000 0.307953 0.750000
O O13 0.873954 0.363217 0.916014
O O14 0.124845 0.500000 0.000000
O O15 0.250000 0.911551 0.250000
O O16 0.279057 0.000000 0.500000
#
# Coordination Sequence:
#
# PCOD9414546 Si02
#       6
#     8   8   8   8   8   8
#     4   8  14  27  50  78 104 131 166 209 258 322
#     4   9  15  25  45  77 106 134 177 225 281 346
#     4  10  20  33  51  73 104 146 186 227 279 328
#     4  10  18  29  51  75 106 141 176 231 287 336
#     4   9  15  25  45  76 108 135 172 227 285 342
#     4   9  17  31  54  79 104 133 174 219 265 328
#
# _framework density 20.301226
#
# number of rings (size 3 to 8) (size 9 to 14) (size 15 to 20)
#    0.000    2.833    1.667    1.500    0.000    0.333 
#    0.000    0.000   22.000    2.000    0.000    0.000 
#    0.000    0.000    0.000    0.000    0.000    0.000 
#
# Total GULP energy -267393.562103 kJ/mol
# GULP energy per Si atom -5570.699210 kJ/mol
# Density = 2.025502 g / cm^3
# Si number density = 20.301226 Si / 1000 Ang^3
#
#
#
# Elastic Constant Matrix: (Units=GPa)
#
#
# Indices 1 2 3 4 5 6 
#
# 1 132.0534 59.6097 23.4844 0.0000 0.0000 0.0000
# 2 59.6097 63.2496 33.3791 0.0000 0.0000 0.0000
# 3 23.4844 33.3791 97.8997 0.0000 0.0000 0.0000
# 4 0.0000 0.0000 0.0000 27.4894 0.0000 0.0000
# 5 0.0000 0.0000 0.0000 0.0000 -0.4123 0.0000
# 6 0.0000 0.0000 0.0000 0.0000 0.0000 -46.4861
#
#
#
# Elastic Compliance Matrix: (Units=1/GPa)
#
#
# Indices 1 2 3 4 5 6 
#
# 1 0.013319 -0.013250 0.001323 0.000000 0.000000 0.000000
# 2 -0.013250 0.032462 -0.007889 0.000000 0.000000 0.000000
# 3 0.001323 -0.007889 0.012587 0.000000 0.000000 0.000000
# 4 0.000000 0.000000 0.000000 0.036378 0.000000 0.000000
# 5 0.000000 0.000000 0.000000 0.000000 -2.425212 0.000000
# 6 0.000000 0.000000 0.000000 0.000000 0.000000 -0.021512
#
#
# Mechanical properties :
#
#
# Convention : Reuss Voigt Hill
#
# Bulk Modulus (GPa) = 53.37966 58.46100 55.92033
# Shear Modulus (GPa) = -2.16816 7.90017 2.86601
#
# Velocity S-wave (km/s) = -1.03456 1.97482 1.18946
# Velocity P-wave (km/s) = 4.99238 5.83603 5.43061
#
# Compressibility (1/GPa) = 0.01873373
#
# Stress axis : x y z
#
# Youngs Moduli (GPa) = 75.08219 30.80556 79.44640
#
# Poissons Ratio (x) = 0.40818 -0.10509
# Poissons Ratio (y) = 0.99487 0.62678
# Poissons Ratio (z) = -0.09932 0.24304
#
# Static dielectric constant tensor:
#      x y z
#    x 1.833090 0.000000 0.000000 
#    y 0.000000 1.681470 0.000000 
#    z 0.000000 0.000000 1.694800 
# 
# From -- ./inp_files/10095.got.cif
#   From: 2010.05.17/outbox.cif.g08.bks.cpg/sg53_6_cif.got.tgz:10095.got - 2010.06.03 12:45:16.
