data_PCOD9414854
_publ_section_title
;
Structure prediction by ZEFSAII (Michael W. Deem and Ramdas Pophale) SiO2 
 PCOD9414854
Probable space group: P M N A
;
_chemical_formula_sum "Si O2"
_cell_formula_units_Z 56
_cell_length_a 15.146549
_cell_length_b 9.516763
_cell_length_c 17.197028
_cell_angle_alpha 90.000000
_cell_angle_beta 90.000000
_cell_angle_gamma 90.000000
_cell_volume 2478.884812
_symmetry_space_group_name_H-M "P M N A"
_symmetry_group_IT_number 53
_symmetry_cell_setting 'orthorhombic'
loop_
_space_group_symop_operation_xyz
x,y,z
1/2-x,-y,1/2+z
x,-y,-z
1/2-x,y,1/2-z
-x,-y,-z
1/2+x,y,1/2-z
-x,y,z
1/2+x,-y,1/2+z
loop_
_atom_site_type_symbol
_atom_site_label
_atom_site_fract_x
_atom_site_fract_y
_atom_site_fract_z
Si Si1 0.143795 0.175585 0.737367
Si Si2 0.711591 0.347953 0.024384
Si Si3 0.643354 0.986659 0.390492
Si Si4 0.153717 0.912639 0.428542
Si Si5 0.789363 0.739238 0.829360
Si Si6 0.599051 0.461284 0.693920
Si Si7 0.095843 0.291309 0.969262
O O1 0.250000 0.172036 0.750000
O O2 0.111444 0.087939 0.811212
O O3 0.113824 0.107407 0.656535
O O4 0.118871 0.339351 0.743508
O O5 0.707481 0.296364 0.112941
O O6 0.679844 0.500000 0.000000
O O7 0.670282 0.239378 0.964958
O O8 0.817847 0.342173 0.013127
O O9 0.748044 0.972727 0.410335
O O10 0.602983 0.876910 0.453434
O O11 0.641568 0.152008 0.369904
O O12 0.113319 0.000000 0.500000
O O13 0.750000 0.804430 0.750000
O O14 0.835005 0.591438 0.808562
O O15 0.500000 0.514108 0.704604
O O16 0.602463 0.373976 0.612791
O O17 0.000000 0.322828 0.004208
#
# Coordination Sequence:
#
# PCOD9414854 Si02
#       7
#     8   8   8   8   8   8   8
#     4   9  18  34  58  78 102 139 178 217 268 323
#     4  11  22  33  49  80 111 141 178 226 267 319
#     4   9  19  34  51  79 110 137 173 225 265 314
#     4  10  18  32  54  77 107 130 174 228 277 310
#     4  12  23  34  53  79 114 142 180 224 270 321
#     4  10  21  36  53  77 107 144 181 216 262 326
#     4   9  19  36  56  75 107 150 182 213 264 329
#
# _framework density 22.590803000000001
#
# number of rings (size 3 to 8) (size 9 to 14) (size 15 to 20)
#    0.000    2.000    2.857    2.571    2.000    1.429 
#    0.000    0.714    0.000    0.429    0.000    2.000 
#    0.000    0.000    0.000    0.571    0.000    0.000 
#
# Total GULP energy -312415.980634 kJ/mol
# GULP energy per Si atom -5578.856797 kJ/mol
# Density = 2.253939 g / cm^3
# Si number density = 22.590803 Si / 1000 Ang^3
#
#
#
# Elastic Constant Matrix: (Units=GPa)
#
#
# Indices 1 2 3 4 5 6 
#
# 1 22.3901 -7.5831 -14.0145 0.0000 0.0000 0.0000
# 2 -7.5831 144.8567 14.4194 0.0000 0.0000 0.0000
# 3 -14.0145 14.4194 101.8416 0.0000 0.0000 0.0000
# 4 0.0000 0.0000 0.0000 32.2280 0.0000 0.0000
# 5 0.0000 0.0000 0.0000 0.0000 9.1568 0.0000
# 6 0.0000 0.0000 0.0000 0.0000 0.0000 7.8606
#
#
#
# Elastic Compliance Matrix: (Units=1/GPa)
#
#
# Indices 1 2 3 4 5 6 
#
# 1 0.049402 0.001937 0.006524 0.000000 0.000000 0.000000
# 2 0.001937 0.007078 -0.000736 0.000000 0.000000 0.000000
# 3 0.006524 -0.000736 0.010821 0.000000 0.000000 0.000000
# 4 0.000000 0.000000 0.000000 0.031029 0.000000 0.000000
# 5 0.000000 0.000000 0.000000 0.000000 0.109209 0.000000
# 6 0.000000 0.000000 0.000000 0.000000 0.000000 0.127217
#
#
# Mechanical properties :
#
#
# Convention : Reuss Voigt Hill
#
# Bulk Modulus (GPa) = 12.08435 28.30354 20.19395
# Shear Modulus (GPa) = 14.41382 28.26686 21.34034
#
# Velocity S-wave (km/s) = 2.52868 3.54115 3.07685
# Velocity P-wave (km/s) = 3.72646 5.41069 4.64554
#
# Compressibility (1/GPa) = 0.08275164
#
# Stress axis : x y z
#
# Youngs Moduli (GPa) = 20.24201 141.28307 92.41199
#
# Poissons Ratio (x) = -0.27363 -0.60290
# Poissons Ratio (y) = -0.03920 0.06798
# Poissons Ratio (z) = -0.13206 0.10393
#
# Static dielectric constant tensor:
#      x y z
#    x 1.840370 0.000000 0.000000 
#    y 0.000000 1.867460 0.000000 
#    z 0.000000 0.000000 1.935790 
# 
# From -- ./inp_files/29345.got.cif
#   From: 2010.05.17/outbox.cif.g08.bks.cpg/sg53_15_cif.got.tgz:29345.got - 2010.06.03 12:45:16.
