data_PCOD9414635
_publ_section_title
;
Structure prediction by ZEFSAII (Michael W. Deem and Ramdas Pophale) SiO2 
 PCOD9414635
Probable space group: P M N A
;
_chemical_formula_sum "Si O2"
_cell_formula_units_Z 64
_cell_length_a 8.744068
_cell_length_b 12.473581
_cell_length_c 28.568219
_cell_angle_alpha 90.000000
_cell_angle_beta 90.000000
_cell_angle_gamma 90.000000
_cell_volume 3115.931089
_symmetry_space_group_name_H-M "P M N A"
_symmetry_group_IT_number 53
_symmetry_cell_setting 'orthorhombic'
loop_
_space_group_symop_operation_xyz
x,y,z
1/2-x,-y,1/2+z
x,-y,-z
1/2-x,y,1/2-z
-x,-y,-z
1/2+x,y,1/2-z
-x,y,z
1/2+x,-y,1/2+z
loop_
_atom_site_type_symbol
_atom_site_label
_atom_site_fract_x
_atom_site_fract_y
_atom_site_fract_z
Si Si1 0.323944 0.462190 0.433205
Si Si2 0.184086 0.689048 0.442704
Si Si3 0.175013 0.487074 0.822451
Si Si4 0.315959 0.765320 0.960755
Si Si5 0.316613 0.274899 0.298141
Si Si6 0.183112 0.114637 0.371548
Si Si7 0.180679 0.268819 0.664727
Si Si8 0.180676 0.946472 0.199797
O O1 0.500000 0.450836 0.447830
O O2 0.251031 0.571087 0.453442
O O3 0.321593 0.484896 0.377639
O O4 0.237875 0.351642 0.443203
O O5 0.230757 0.768395 0.484691
O O6 0.227634 0.725262 0.390386
O O7 0.000000 0.679643 0.442532
O O8 0.218435 0.598923 0.799427
O O9 0.281769 0.385529 0.814421
O O10 0.000000 0.459388 0.809944
O O11 0.500000 0.767113 0.959503
O O12 0.264424 0.857069 0.924451
O O13 0.250000 0.229912 0.250000
O O14 0.500000 0.261103 0.301290
O O15 0.234837 0.216669 0.340919
O O16 0.000000 0.103004 0.371258
O O17 0.254181 0.015291 0.343592
O O18 0.272695 0.176019 0.690194
O O19 0.000000 0.246584 0.667394
O O20 0.250000 0.978751 0.250000
O O21 0.000000 0.960207 0.201787
#
# Coordination Sequence:
#
# PCOD9414635 Si02
#       8
#     8   8   8   8   8   8   8   8
#     4  10  18  30  50  80 118 160 202 244 287 337
#     4   9  19  35  55  84 121 162 202 241 288 345
#     4   9  19  35  54  80 119 159 194 237 293 353
#     4  10  20  34  55  83 119 161 203 243 287 345
#     4  11  22  37  56  82 117 155 193 240 298 362
#     4  11  23  40  62  88 118 154 200 248 296 350
#     4  10  21  39  64  90 120 155 198 247 296 350
#     4  12  26  46  70  91 115 148 194 248 303 361
#
# _framework density 20.539608000000001
#
# number of rings (size 3 to 8) (size 9 to 14) (size 15 to 20)
#    0.000    1.750    1.250    3.375    0.000    5.000 
#    0.000    1.875    0.000    3.750    0.000    0.000 
#    0.000    0.000    0.000    0.000    0.000    0.000 
#
# Total GULP energy -357468.859825 kJ/mol
# GULP energy per Si atom -5585.450935 kJ/mol
# Density = 2.049286 g / cm^3
# Si number density = 20.539608 Si / 1000 Ang^3
#
#
#
# Elastic Constant Matrix: (Units=GPa)
#
#
# Indices 1 2 3 4 5 6 
#
# 1 32.7208 25.7493 7.8190 0.0000 0.0000 0.0000
# 2 25.7493 52.8295 4.9531 0.0000 0.0000 0.0000
# 3 7.8190 4.9531 40.8169 0.0000 0.0000 0.0000
# 4 0.0000 0.0000 0.0000 30.8790 0.0000 0.0000
# 5 0.0000 0.0000 0.0000 0.0000 18.0231 0.0000
# 6 0.0000 0.0000 0.0000 0.0000 0.0000 35.0297
#
#
#
# Elastic Compliance Matrix: (Units=1/GPa)
#
#
# Indices 1 2 3 4 5 6 
#
# 1 0.051423 -0.024418 -0.006888 0.000000 0.000000 0.000000
# 2 -0.024418 0.030741 0.000947 0.000000 0.000000 0.000000
# 3 -0.006888 0.000947 0.025704 0.000000 0.000000 0.000000
# 4 0.000000 0.000000 0.000000 0.032384 0.000000 0.000000
# 5 0.000000 0.000000 0.000000 0.000000 0.055484 0.000000
# 6 0.000000 0.000000 0.000000 0.000000 0.000000 0.028547
#
#
# Mechanical properties :
#
#
# Convention : Reuss Voigt Hill
#
# Bulk Modulus (GPa) = 21.20820 22.60111 21.90465
# Shear Modulus (GPa) = 16.62682 22.64275 19.63478
#
# Velocity S-wave (km/s) = 2.84826 3.32383 3.09519
# Velocity P-wave (km/s) = 4.60051 5.07524 4.84369
#
# Compressibility (1/GPa) = 0.04715158
#
# Stress axis : x y z
#
# Youngs Moduli (GPa) = 19.44653 32.52933 38.90430
#
# Poissons Ratio (x) = 0.79430 0.26796
# Poissons Ratio (y) = 0.47485 -0.03685
# Poissons Ratio (z) = 0.13394 -0.03081
#
# Static dielectric constant tensor:
#      x y z
#    x 1.692670 0.000000 0.000000 
#    y 0.000000 1.719500 0.000000 
#    z 0.000000 0.000000 1.852850 
# 
# From -- ./inp_files/38225.got.cif
#   From: 2010.05.17/outbox.cif.g08.bks.cpg/sg53_20_cif.got.tgz:38225.got - 2010.06.03 12:45:16.
