data_PCOD9414516
_publ_section_title
;
Structure prediction by ZEFSAII (Michael W. Deem and Ramdas Pophale) SiO2 
 PCOD9414516
Probable space group: P M N A
;
_chemical_formula_sum "Si O2"
_cell_formula_units_Z 64
_cell_length_a 8.549942
_cell_length_b 15.359637
_cell_length_c 30.676754
_cell_angle_alpha 90.000000
_cell_angle_beta 90.000000
_cell_angle_gamma 90.000000
_cell_volume 4028.594211
_symmetry_space_group_name_H-M "P M N A"
_symmetry_group_IT_number 53
_symmetry_cell_setting 'orthorhombic'
loop_
_space_group_symop_operation_xyz
x,y,z
1/2-x,-y,1/2+z
x,-y,-z
1/2-x,y,1/2-z
-x,-y,-z
1/2+x,y,1/2-z
-x,y,z
1/2+x,-y,1/2+z
loop_
_atom_site_type_symbol
_atom_site_label
_atom_site_fract_x
_atom_site_fract_y
_atom_site_fract_z
Si Si1 0.187989 0.448860 0.563851
Si Si2 0.686216 0.993359 0.203063
Si Si3 0.688883 0.369712 0.029770
Si Si4 0.812219 0.796526 0.203881
Si Si5 0.810410 0.960881 0.889010
Si Si6 0.688659 0.176480 0.461246
Si Si7 0.809419 0.133702 0.941935
Si Si8 0.188187 0.703398 0.116231
O O1 0.236186 0.400458 0.518898
O O2 0.237899 0.549507 0.560504
O O3 0.250590 0.390459 0.602719
O O4 0.000000 0.448588 0.564465
O O5 0.750000 0.025109 0.250000
O O6 0.500000 0.993069 0.204710
O O7 0.744798 0.042173 0.159824
O O8 0.747252 0.894083 0.198008
O O9 0.500000 0.364529 0.030441
O O10 0.756723 0.275992 0.040749
O O11 0.750000 0.763588 0.250000
O O12 0.763294 0.736759 0.163656
O O13 0.000000 0.802363 0.204529
O O14 0.761008 0.881743 0.920316
O O15 0.000000 0.962192 0.886400
O O16 0.760907 0.050157 0.913659
O O17 0.500000 0.174976 0.461848
O O18 0.741350 0.135646 0.507684
O O19 0.758761 0.222634 0.918226
O O20 0.000000 0.132497 0.941914
O O21 0.000000 0.702240 0.114853
#
# Coordination Sequence:
#
# PCOD9414516 Si02
#       8
#     8   8   8   8   8   8   8   8
#     4   9  18  31  47  66  91 126 160 192 238 284
#     4  11  21  33  50  70  93 123 160 200 242 284
#     4   9  18  32  46  64  94 126 157 198 241 279
#     4  10  19  32  48  69  96 126 157 195 240 284
#     4  10  19  33  49  68  97 130 163 199 237 284
#     4  10  19  30  49  71  93 129 170 201 234 276
#     4   9  16  29  45  66  97 131 163 193 230 274
#     4  10  18  29  48  70  95 125 160 198 236 278
#
# _framework density 15.886435000000001
#
# number of rings (size 3 to 8) (size 9 to 14) (size 15 to 20)
#    0.000    2.250    2.500    3.375    0.000    3.500 
#    0.000    1.875    0.000    1.500    0.000    0.875 
#    0.000    4.000    0.000    0.000    0.000    0.000 
#
# Total GULP energy -356872.047785 kJ/mol
# GULP energy per Si atom -5576.125747 kJ/mol
# Density = 1.585028 g / cm^3
# Si number density = 15.886435 Si / 1000 Ang^3
#
#
#
# Elastic Constant Matrix: (Units=GPa)
#
#
# Indices 1 2 3 4 5 6 
#
# 1 25.7658 14.5593 30.1938 0.0000 0.0000 0.0000
# 2 14.5593 78.1748 56.4087 0.0000 0.0000 0.0000
# 3 30.1938 56.4087 142.7022 0.0000 0.0000 0.0000
# 4 0.0000 0.0000 0.0000 24.4020 0.0000 0.0000
# 5 0.0000 0.0000 0.0000 0.0000 21.5184 0.0000
# 6 0.0000 0.0000 0.0000 0.0000 0.0000 16.5354
#
#
#
# Elastic Compliance Matrix: (Units=1/GPa)
#
#
# Indices 1 2 3 4 5 6 
#
# 1 0.051937 -0.002439 -0.010025 0.000000 0.000000 0.000000
# 2 -0.002439 0.018011 -0.006604 0.000000 0.000000 0.000000
# 3 -0.010025 -0.006604 0.011739 0.000000 0.000000 0.000000
# 4 0.000000 0.000000 0.000000 0.040980 0.000000 0.000000
# 5 0.000000 0.000000 0.000000 0.000000 0.046472 0.000000
# 6 0.000000 0.000000 0.000000 0.000000 0.000000 0.060476
#
#
# Mechanical properties :
#
#
# Convention : Reuss Voigt Hill
#
# Bulk Modulus (GPa) = 22.96102 49.88517 36.42309
# Shear Modulus (GPa) = 17.71365 22.18988 19.95176
#
# Velocity S-wave (km/s) = 3.34281 3.74141 3.54771
# Velocity P-wave (km/s) = 5.42068 7.08050 6.30544
#
# Compressibility (1/GPa) = 0.04355208
#
# Stress axis : x y z
#
# Youngs Moduli (GPa) = 19.25404 55.52170 85.18568
#
# Poissons Ratio (x) = 0.13542 0.85399
# Poissons Ratio (y) = 0.04696 0.56252
# Poissons Ratio (z) = 0.19302 0.36664
#
# Static dielectric constant tensor:
#      x y z
#    x 1.544860 0.000000 0.000000 
#    y 0.000000 1.514740 0.000000 
#    z 0.000000 0.000000 1.538580 
# 
# From -- ./inp_files/38438.got.cif
#   From: 2010.05.17/outbox.cif.g08.bks.cpg/sg53_20_cif.got.tgz:38438.got - 2010.06.03 12:45:16.
