data_PCOD9414550
_publ_section_title
;
Structure prediction by ZEFSAII (Michael W. Deem and Ramdas Pophale) SiO2 
 PCOD9414550
Probable space group: P M N A
;
_chemical_formula_sum "Si O2"
_cell_formula_units_Z 48
_cell_length_a 14.339030
_cell_length_b 19.031889
_cell_length_c 7.521087
_cell_angle_alpha 90.000000
_cell_angle_beta 90.000000
_cell_angle_gamma 90.000000
_cell_volume 2052.495823
_symmetry_space_group_name_H-M "P M N A"
_symmetry_group_IT_number 53
_symmetry_cell_setting 'orthorhombic'
loop_
_space_group_symop_operation_xyz
x,y,z
1/2-x,-y,1/2+z
x,-y,-z
1/2-x,y,1/2-z
-x,-y,-z
1/2+x,y,1/2-z
-x,y,z
1/2+x,-y,1/2+z
loop_
_atom_site_type_symbol
_atom_site_label
_atom_site_fract_x
_atom_site_fract_y
_atom_site_fract_z
Si Si1 0.887442 0.566747 0.779450
Si Si2 0.248630 0.186223 0.533260
Si Si3 0.402125 0.080234 0.947748
Si Si4 0.386962 0.589300 0.322031
Si Si5 0.113784 0.313113 0.504832
Si Si6 0.104769 0.079544 0.977779
O O1 0.857682 0.486538 0.743812
O O2 0.867855 0.623615 0.631381
O O3 0.000000 0.563512 0.790154
O O4 0.853967 0.590513 0.974582
O O5 0.250000 0.192519 0.750000
O O6 0.184680 0.120541 0.479892
O O7 0.188577 0.252192 0.467583
O O8 0.347045 0.153801 0.469238
O O9 0.500000 0.111869 0.009503
O O10 0.399748 0.085557 0.735484
O O11 0.399499 0.000000 0.000000
O O12 0.500000 0.588703 0.324860
O O13 0.363694 0.654829 0.199348
O O14 0.000000 0.296319 0.498497
O O15 0.000000 0.075777 0.053706
O O16 0.146729 0.000000 0.000000
#
# Coordination Sequence:
#
# PCOD9414550 Si02
#       6
#     8   8   8   8   8   8
#     4   8  14  26  48  82 120 155 201 250 285 336
#     4  10  20  33  51  76 114 156 189 237 291 363
#     4   9  17  31  55  82 109 143 185 230 281 347
#     4   8  14  26  48  82 119 156 200 247 288 336
#     4  10  18  29  52  81 118 165 200 232 293 366
#     4   9  18  34  58  81 104 141 194 250 300 347
#
# _framework density 23.386161000000001
#
# number of rings (size 3 to 8) (size 9 to 14) (size 15 to 20)
#    0.000    3.000    0.000    2.500    0.000    2.667 
#    0.000    0.000   14.667    0.000    8.667    0.000 
#    0.000    2.667    0.000    2.000    0.000    0.333 
#
# Total GULP energy -267620.819569 kJ/mol
# GULP energy per Si atom -5575.433741 kJ/mol
# Density = 2.333293 g / cm^3
# Si number density = 23.386161 Si / 1000 Ang^3
#
#
#
# Elastic Constant Matrix: (Units=GPa)
#
#
# Indices 1 2 3 4 5 6 
#
# 1 85.6815 47.7909 10.0772 0.0000 0.0000 0.0000
# 2 47.7909 93.6045 5.5338 0.0000 0.0000 0.0000
# 3 10.0772 5.5338 29.9661 0.0000 0.0000 0.0000
# 4 0.0000 0.0000 0.0000 10.0304 0.0000 0.0000
# 5 0.0000 0.0000 0.0000 0.0000 3.4986 0.0000
# 6 0.0000 0.0000 0.0000 0.0000 0.0000 -181.7685
#
#
#
# Elastic Compliance Matrix: (Units=1/GPa)
#
#
# Indices 1 2 3 4 5 6 
#
# 1 0.016805 -0.008337 -0.004112 0.000000 0.000000 0.000000
# 2 -0.008337 0.014937 0.000045 0.000000 0.000000 0.000000
# 3 -0.004112 0.000045 0.034745 0.000000 0.000000 0.000000
# 4 0.000000 0.000000 0.000000 0.099697 0.000000 0.000000
# 5 0.000000 0.000000 0.000000 0.000000 0.285826 0.000000
# 6 0.000000 0.000000 0.000000 0.000000 0.000000 -0.005502
#
#
# Mechanical properties :
#
#
# Convention : Reuss Voigt Hill
#
# Bulk Modulus (GPa) = 23.99201 37.33957 30.66579
# Shear Modulus (GPa) = 10.30485 -23.92455 -6.80985
#
# Velocity S-wave (km/s) = 2.10142 -3.20194 -1.70828
# Velocity P-wave (km/s) = 4.02110 1.52685 3.04143
#
# Compressibility (1/GPa) = 0.04168054
#
# Stress axis : x y z
#
# Youngs Moduli (GPa) = 59.50694 66.94770 28.78078
#
# Poissons Ratio (x) = 0.55813 0.11834
# Poissons Ratio (y) = 0.49610 -0.00130
# Poissons Ratio (z) = 0.24467 -0.00302
#
# Static dielectric constant tensor:
#      x y z
#    x 1.983870 0.000000 0.000000 
#    y 0.000000 1.869160 0.000000 
#    z 0.000000 0.000000 1.887130 
# 
# From -- ./inp_files/8668.got.cif
#   From: 2010.05.17/outbox.cif.g08.bks.cpg/sg53_5_cif.got.tgz:8668.got - 2010.06.03 12:45:16.
