data_PCOD9414121
_publ_section_title
;
Structure prediction by ZEFSAII (Michael W. Deem and Ramdas Pophale) SiO2 
 PCOD9414121
Probable space group: P M N A
;
_chemical_formula_sum "Si O2"
_cell_formula_units_Z 40
_cell_length_a 19.303591
_cell_length_b 10.669749
_cell_length_c 10.452565
_cell_angle_alpha 90.000000
_cell_angle_beta 90.000000
_cell_angle_gamma 90.000000
_cell_volume 2152.857018
_symmetry_space_group_name_H-M "P M N A"
_symmetry_group_IT_number 53
_symmetry_cell_setting 'orthorhombic'
loop_
_space_group_symop_operation_xyz
x,y,z
1/2-x,-y,1/2+z
x,-y,-z
1/2-x,y,1/2-z
-x,-y,-z
1/2+x,y,1/2-z
-x,y,z
1/2+x,-y,1/2+z
loop_
_atom_site_type_symbol
_atom_site_label
_atom_site_fract_x
_atom_site_fract_y
_atom_site_fract_z
Si Si1 0.918127 0.443228 0.196237
Si Si2 0.000000 0.102411 0.886880
Si Si3 0.778963 0.142015 0.049401
Si Si4 0.641874 0.209400 0.189637
Si Si5 0.000000 0.935144 0.637399
Si Si6 0.116458 0.307149 0.927372
O O1 0.874235 0.356482 0.291395
O O2 0.889698 0.583160 0.176548
O O3 0.000000 0.446737 0.226785
O O4 0.909425 0.372403 0.059328
O O5 0.065746 0.192498 0.899322
O O6 0.000000 0.034948 0.751532
O O7 0.000000 0.000000 0.000000
O O8 0.701252 0.177815 0.088460
O O9 0.827309 0.156715 0.175948
O O10 0.809523 0.243921 0.951181
O O11 0.782852 0.000000 0.000000
O O12 0.569215 0.146120 0.156251
O O13 0.000000 0.000000 0.500000
#
# Coordination Sequence:
#
# PCOD9414121 Si02
#       6
#     8   4   8   8   4   8
#     4  10  16  32  57  91 121 146 196 252 313 358
#     4  12  20  32  59  95 121 145 203 265 307 348
#     4  10  20  35  56  85 119 153 199 258 317 358
#     4  10  21  36  58  81 117 164 198 241 300 380
#     4  12  24  37  57  85 123 164 208 239 302 380
#     4  10  18  30  57  92 118 142 190 267 313 347
#
# _framework density 18.57996
#
# number of rings (size 3 to 8) (size 9 to 14) (size 15 to 20)
#    0.000    1.600    3.000    5.400    0.000    0.000 
#    0.000    0.000    0.000   57.600    0.000    0.000 
#    0.000    0.000    0.000    0.000    0.000    0.000 
#
# Total GULP energy -223292.095758 kJ/mol
# GULP energy per Si atom -5582.302394 kJ/mol
# Density = 1.853767 g / cm^3
# Si number density = 18.579960 Si / 1000 Ang^3
#
#
#
# Elastic Constant Matrix: (Units=GPa)
#
#
# Indices 1 2 3 4 5 6 
#
# 1 156.3467 82.7022 34.1179 0.0000 0.0000 0.0000
# 2 82.7022 174.7184 52.1924 0.0000 0.0000 0.0000
# 3 34.1179 52.1924 47.3046 0.0000 0.0000 0.0000
# 4 0.0000 0.0000 0.0000 15.6119 0.0000 0.0000
# 5 0.0000 0.0000 0.0000 0.0000 1.3697 0.0000
# 6 0.0000 0.0000 0.0000 0.0000 0.0000 17.2773
#
#
#
# Elastic Compliance Matrix: (Units=1/GPa)
#
#
# Indices 1 2 3 4 5 6 
#
# 1 0.008741 -0.003362 -0.002594 0.000000 0.000000 0.000000
# 2 -0.003362 0.009831 -0.008421 0.000000 0.000000 0.000000
# 3 -0.002594 -0.008421 0.032302 0.000000 0.000000 0.000000
# 4 0.000000 0.000000 0.000000 0.064054 0.000000 0.000000
# 5 0.000000 0.000000 0.000000 0.000000 0.730060 0.000000
# 6 0.000000 0.000000 0.000000 0.000000 0.000000 0.057879
#
#
# Mechanical properties :
#
#
# Convention : Reuss Voigt Hill
#
# Bulk Modulus (GPa) = 45.21315 79.59942 62.40628
# Shear Modulus (GPa) = 5.32484 20.80894 13.06689
#
# Velocity S-wave (km/s) = 1.69473 3.35022 2.65482
# Velocity P-wave (km/s) = 5.31194 7.60920 6.56188
#
# Compressibility (1/GPa) = 0.02211746
#
# Stress axis : x y z
#
# Youngs Moduli (GPa) = 114.40617 101.72161 30.95758
#
# Poissons Ratio (x) = 0.34203 0.08031
# Poissons Ratio (y) = 0.38468 0.26071
# Poissons Ratio (z) = 0.29681 0.85664
#
# Static dielectric constant tensor:
#      x y z
#    x 1.657150 0.000000 0.000000 
#    y 0.000000 1.628030 0.000000 
#    z 0.000000 0.000000 1.650830 
# 
# From -- ./inp_files/17681.got.cif
#   From: 2010.05.17/outbox.cif.g08.bks.cpg/sg53_9_cif.got.tgz:17681.got - 2010.06.03 12:45:16.
