data_PCOD9414434
_publ_section_title
;
Structure prediction by ZEFSAII (Michael W. Deem and Ramdas Pophale) SiO2 
 PCOD9414434
Probable space group: P M N A
;
_chemical_formula_sum "Si O2"
_cell_formula_units_Z 56
_cell_length_a 9.057575
_cell_length_b 16.545264
_cell_length_c 24.967158
_cell_angle_alpha 90.000000
_cell_angle_beta 90.000000
_cell_angle_gamma 90.000000
_cell_volume 3741.577538
_symmetry_space_group_name_H-M "P M N A"
_symmetry_group_IT_number 53
_symmetry_cell_setting 'orthorhombic'
loop_
_space_group_symop_operation_xyz
x,y,z
1/2-x,-y,1/2+z
x,-y,-z
1/2-x,y,1/2-z
-x,-y,-z
1/2+x,y,1/2-z
-x,y,z
1/2+x,-y,1/2+z
loop_
_atom_site_type_symbol
_atom_site_label
_atom_site_fract_x
_atom_site_fract_y
_atom_site_fract_z
Si Si1 0.679087 0.372437 0.485413
Si Si2 0.176110 0.189178 0.018644
Si Si3 0.174786 0.881271 0.100622
Si Si4 0.175872 0.586777 0.306695
Si Si5 0.178637 0.476841 0.912813
Si Si6 0.830107 0.035973 0.439413
Si Si7 0.824330 0.221879 0.693478
O O1 0.500000 0.370507 0.486383
O O2 0.729403 0.281266 0.475491
O O3 0.722583 0.408778 0.543226
O O4 0.719761 0.437767 0.440251
O O5 0.257253 0.123876 0.055592
O O6 0.000000 0.185472 0.028744
O O7 0.198495 0.162069 0.956918
O O8 0.255527 0.830593 0.146195
O O9 0.000000 0.883649 0.110367
O O10 0.239671 0.971426 0.095233
O O11 0.250000 0.565000 0.250000
O O12 0.245869 0.539564 0.356425
O O13 0.204669 0.682615 0.315686
O O14 0.000000 0.575074 0.303963
O O15 0.000000 0.474276 0.907358
O O16 0.000000 0.040201 0.422245
O O17 0.827279 0.000000 0.500000
O O18 0.750000 0.200348 0.750000
O O19 0.000000 0.210536 0.696249
#
# Coordination Sequence:
#
# PCOD9414434 Si02
#       7
#     8   8   8   8   8   8   8
#     4   8  15  27  45  67  91 121 152 183 222 269
#     4   9  16  27  43  64  89 117 150 182 214 258
#     4  10  18  28  45  66  88 116 147 180 217 256
#     4  10  20  32  46  65  89 118 151 187 225 263
#     4   9  16  29  47  66  90 120 153 185 221 267
#     4   9  17  28  41  60  87 116 145 177 213 253
#     4  10  20  32  45  63  88 116 147 181 216 257
#
# _framework density 14.966950000000001
#
# number of rings (size 3 to 8) (size 9 to 14) (size 15 to 20)
#    0.000    2.714    0.000    3.429    0.000    5.143 
#    0.000    2.857    0.000    0.000    0.000    1.000 
#    0.000    2.286    0.000    0.000    0.000    0.000 
#
# Total GULP energy -312120.972273 kJ/mol
# GULP energy per Si atom -5573.588791 kJ/mol
# Density = 1.493288 g / cm^3
# Si number density = 14.966950 Si / 1000 Ang^3
#
#
#
# Elastic Constant Matrix: (Units=GPa)
#
#
# Indices 1 2 3 4 5 6 
#
# 1 55.3462 43.8855 46.9437 0.0000 0.0000 0.0000
# 2 43.8855 111.9844 48.9118 0.0000 0.0000 0.0000
# 3 46.9437 48.9118 91.9174 0.0000 0.0000 0.0000
# 4 0.0000 0.0000 0.0000 22.5718 0.0000 0.0000
# 5 0.0000 0.0000 0.0000 0.0000 26.3777 0.0000
# 6 0.0000 0.0000 0.0000 0.0000 0.0000 20.3018
#
#
#
# Elastic Compliance Matrix: (Units=1/GPa)
#
#
# Indices 1 2 3 4 5 6 
#
# 1 0.036747 -0.008082 -0.014466 0.000000 0.000000 0.000000
# 2 -0.008082 0.013411 -0.003009 0.000000 0.000000 0.000000
# 3 -0.014466 -0.003009 0.019869 0.000000 0.000000 0.000000
# 4 0.000000 0.000000 0.000000 0.044303 0.000000 0.000000
# 5 0.000000 0.000000 0.000000 0.000000 0.037911 0.000000
# 6 0.000000 0.000000 0.000000 0.000000 0.000000 0.049257
#
#
# Mechanical properties :
#
#
# Convention : Reuss Voigt Hill
#
# Bulk Modulus (GPa) = 52.87671 59.85889 56.36780
# Shear Modulus (GPa) = 19.31126 21.81739 20.56432
#
# Velocity S-wave (km/s) = 3.59592 3.82213 3.71075
# Velocity P-wave (km/s) = 7.25579 7.71746 7.49018
#
# Compressibility (1/GPa) = 0.01891192
#
# Stress axis : x y z
#
# Youngs Moduli (GPa) = 27.21323 74.56393 50.33042
#
# Poissons Ratio (x) = 0.60264 0.72810
# Poissons Ratio (y) = 0.21994 0.15144
# Poissons Ratio (z) = 0.39368 0.22435
#
# Static dielectric constant tensor:
#      x y z
#    x 1.498290 0.000000 0.000000 
#    y 0.000000 1.496200 0.000000 
#    z 0.000000 0.000000 1.466610 
# 
# From -- ./inp_files/30858.got.cif
#   From: 2010.05.17/outbox.cif.g08.bks.cpg/sg53_16_cif.got.tgz:30858.got - 2010.06.03 12:45:16.
