data_PCOD9414517
_publ_section_title
;
Structure prediction by ZEFSAII (Michael W. Deem and Ramdas Pophale) SiO2 
 PCOD9414517
Probable space group: P M N A
;
_chemical_formula_sum "Si O2"
_cell_formula_units_Z 48
_cell_length_a 9.301779
_cell_length_b 10.083818
_cell_length_c 30.431213
_cell_angle_alpha 90.000000
_cell_angle_beta 90.000000
_cell_angle_gamma 90.000000
_cell_volume 2854.370074
_symmetry_space_group_name_H-M "P M N A"
_symmetry_group_IT_number 53
_symmetry_cell_setting 'orthorhombic'
loop_
_space_group_symop_operation_xyz
x,y,z
1/2-x,-y,1/2+z
x,-y,-z
1/2-x,y,1/2-z
-x,-y,-z
1/2+x,y,1/2-z
-x,y,z
1/2+x,-y,1/2+z
loop_
_atom_site_type_symbol
_atom_site_label
_atom_site_fract_x
_atom_site_fract_y
_atom_site_fract_z
Si Si1 0.333542 0.033181 0.706267
Si Si2 0.170148 0.966966 0.382738
Si Si3 0.335007 0.290027 0.293453
Si Si4 0.330625 0.643984 0.978667
Si Si5 0.331035 0.128609 0.531179
Si Si6 0.331053 0.714150 0.881155
O O1 0.250000 0.077055 0.750000
O O2 0.500000 0.075253 0.705855
O O3 0.248632 0.072702 0.662401
O O4 0.333416 0.871583 0.706931
O O5 0.244812 0.898982 0.424185
O O6 0.000000 0.939422 0.381054
O O7 0.187458 0.126866 0.387248
O O8 0.250000 0.333730 0.250000
O O9 0.500000 0.332869 0.291945
O O10 0.259142 0.329364 0.338889
O O11 0.500000 0.682932 0.980777
O O12 0.290534 0.646753 0.927164
O O13 0.315834 0.500000 0.000000
O O14 0.236607 0.748726 0.005211
O O15 0.500000 0.148169 0.540141
O O16 0.316273 0.000000 0.500000
O O17 0.500000 0.690998 0.872569
#
# Coordination Sequence:
#
# PCOD9414517 Si02
#       6
#     8   8   8   8   8   8
#     4   9  16  26  40  63  97 131 164 202 250 304
#     4  10  18  29  48  71  97 131 170 211 256 301
#     4   9  16  25  40  63  93 127 161 200 245 296
#     4  10  21  37  55  75 101 136 175 214 258 309
#     4  11  22  34  51  75 103 134 171 213 256 303
#     4   9  17  29  46  69  97 129 164 205 250 298
#
# _framework density 16.816320000000001
#
# number of rings (size 3 to 8) (size 9 to 14) (size 15 to 20)
#    0.000    2.333    1.667    2.000    0.000    6.333 
#    0.000    0.000    0.000    0.000    0.000    1.167 
#    0.000    2.667    0.000    0.000    0.000    0.000 
#
# Total GULP energy -267719.532271 kJ/mol
# GULP energy per Si atom -5577.490256 kJ/mol
# Density = 1.677805 g / cm^3
# Si number density = 16.816320 Si / 1000 Ang^3
#
#
#
# Elastic Constant Matrix: (Units=GPa)
#
#
# Indices 1 2 3 4 5 6 
#
# 1 141.1623 36.3468 114.1053 0.0000 0.0000 0.0000
# 2 36.3468 25.2406 30.5285 0.0000 0.0000 0.0000
# 3 114.1053 30.5285 194.4228 0.0000 0.0000 0.0000
# 4 0.0000 0.0000 0.0000 11.1112 0.0000 0.0000
# 5 0.0000 0.0000 0.0000 0.0000 36.9633 0.0000
# 6 0.0000 0.0000 0.0000 0.0000 0.0000 -0.3983
#
#
#
# Elastic Compliance Matrix: (Units=1/GPa)
#
#
# Indices 1 2 3 4 5 6 
#
# 1 0.017366 -0.015653 -0.007734 0.000000 0.000000 0.000000
# 2 -0.015653 0.063016 -0.000708 0.000000 0.000000 0.000000
# 3 -0.007734 -0.000708 0.009794 0.000000 0.000000 0.000000
# 4 0.000000 0.000000 0.000000 0.089999 0.000000 0.000000
# 5 0.000000 0.000000 0.000000 0.000000 0.027054 0.000000
# 6 0.000000 0.000000 0.000000 0.000000 0.000000 -2.510694
#
#
# Mechanical properties :
#
#
# Convention : Reuss Voigt Hill
#
# Bulk Modulus (GPa) = 23.81807 80.30965 52.06386
# Shear Modulus (GPa) = -2.23087 21.52492 9.64702
#
# Velocity S-wave (km/s) = -1.15303 3.58159 2.39774
# Velocity P-wave (km/s) = 3.52445 8.06005 6.22038
#
# Compressibility (1/GPa) = 0.04198493
#
# Stress axis : x y z
#
# Youngs Moduli (GPa) = 57.58304 15.86905 102.10533
#
# Poissons Ratio (x) = 0.24840 0.78971
# Poissons Ratio (y) = 0.90135 0.07231
# Poissons Ratio (z) = 0.44536 0.01124
#
# Static dielectric constant tensor:
#      x y z
#    x 1.564030 0.000000 0.000000 
#    y 0.000000 1.537210 0.000000 
#    z 0.000000 0.000000 1.557120 
# 
# From -- ./inp_files/36141.got.cif
#   From: 2010.05.17/outbox.cif.g08.bks.cpg/sg53_19_cif.got.tgz:36141.got - 2010.06.03 12:45:16.
