data_PCOD9414402
_publ_section_title
;
Structure prediction by ZEFSAII (Michael W. Deem and Ramdas Pophale) SiO2 
 PCOD9414402
Probable space group: P M N A
;
_chemical_formula_sum "Si O2"
_cell_formula_units_Z 64
_cell_length_a 9.030020
_cell_length_b 18.688084
_cell_length_c 27.166149
_cell_angle_alpha 90.000000
_cell_angle_beta 90.000000
_cell_angle_gamma 90.000000
_cell_volume 4584.390122
_symmetry_space_group_name_H-M "P M N A"
_symmetry_group_IT_number 53
_symmetry_cell_setting 'orthorhombic'
loop_
_space_group_symop_operation_xyz
x,y,z
1/2-x,-y,1/2+z
x,-y,-z
1/2-x,y,1/2-z
-x,-y,-z
1/2+x,y,1/2-z
-x,y,z
1/2+x,-y,1/2+z
loop_
_atom_site_type_symbol
_atom_site_label
_atom_site_fract_x
_atom_site_fract_y
_atom_site_fract_z
Si Si1 0.178273 0.167896 0.698253
Si Si2 0.178439 0.326384 0.993020
Si Si3 0.669910 0.540405 0.552940
Si Si4 0.322609 0.918474 0.101554
Si Si5 0.329693 0.045996 0.449290
Si Si6 0.177762 0.665498 0.301575
Si Si7 0.677223 0.589165 0.097856
Si Si8 0.823411 0.171907 0.502609
O O1 0.250000 0.146413 0.750000
O O2 0.223385 0.119177 0.652227
O O3 0.218455 0.251198 0.689003
O O4 0.000000 0.164683 0.702113
O O5 0.217242 0.379585 0.038392
O O6 0.242500 0.247666 0.999980
O O7 0.000000 0.326111 0.988956
O O8 0.247200 0.361363 0.943780
O O9 0.670099 0.500000 0.500000
O O10 0.500000 0.540670 0.570635
O O11 0.770115 0.491797 0.587723
O O12 0.500000 0.929643 0.102253
O O13 0.242791 0.993210 0.090408
O O14 0.292426 0.864954 0.055770
O O15 0.500000 0.062803 0.437706
O O16 0.237470 0.116860 0.461806
O O17 0.327768 0.000000 0.500000
O O18 0.250000 0.643687 0.250000
O O19 0.220465 0.618030 0.348420
O O20 0.000000 0.662552 0.296833
O O21 0.500000 0.594680 0.092797
O O22 0.000000 0.180446 0.498447
#
# Coordination Sequence:
#
# PCOD9414402 Si02
#       8
#     8   8   8   8   8   8   8   8
#     4   9  17  29  42  57  80 107 137 172 206 238
#     4  10  19  29  41  59  84 111 139 170 204 244
#     4   8  16  29  41  56  80 108 136 167 204 244
#     4   9  17  29  43  58  80 110 139 169 205 242
#     4   9  17  28  41  59  82 106 135 169 202 241
#     4   9  18  30  42  59  82 108 139 174 208 241
#     4  10  18  28  43  61  81 107 141 175 206 243
#     4  10  18  28  43  61  82 109 140 171 205 243
#
# _framework density 13.960418000000001
#
# number of rings (size 3 to 8) (size 9 to 14) (size 15 to 20)
#    0.000    2.750    0.000    3.000    0.000    8.250 
#    0.000    2.500    0.000    0.000    0.000    0.000 
#    0.000    1.000    0.000    5.000    0.000    4.875 
#
# Total GULP energy -356543.797550 kJ/mol
# GULP energy per Si atom -5570.996837 kJ/mol
# Density = 1.392864 g / cm^3
# Si number density = 13.960418 Si / 1000 Ang^3
#
#
#
# Elastic Constant Matrix: (Units=GPa)
#
#
# Indices 1 2 3 4 5 6 
#
# 1 48.7733 49.2900 41.4076 0.0000 0.0000 0.0000
# 2 49.2900 104.9271 60.4676 0.0000 0.0000 0.0000
# 3 41.4076 60.4676 93.3270 0.0000 0.0000 0.0000
# 4 0.0000 0.0000 0.0000 25.5006 0.0000 0.0000
# 5 0.0000 0.0000 0.0000 0.0000 20.9879 0.0000
# 6 0.0000 0.0000 0.0000 0.0000 0.0000 22.8477
#
#
#
# Elastic Compliance Matrix: (Units=1/GPa)
#
#
# Indices 1 2 3 4 5 6 
#
# 1 0.043998 -0.015031 -0.009783 0.000000 0.000000 0.000000
# 2 -0.015031 0.020344 -0.006512 0.000000 0.000000 0.000000
# 3 -0.009783 -0.006512 0.019275 0.000000 0.000000 0.000000
# 4 0.000000 0.000000 0.000000 0.039215 0.000000 0.000000
# 5 0.000000 0.000000 0.000000 0.000000 0.047646 0.000000
# 6 0.000000 0.000000 0.000000 0.000000 0.000000 0.043768
#
#
# Mechanical properties :
#
#
# Convention : Reuss Voigt Hill
#
# Bulk Modulus (GPa) = 47.69689 61.03974 54.36831
# Shear Modulus (GPa) = 17.61267 20.25807 18.93537
#
# Velocity S-wave (km/s) = 3.55577 3.81347 3.68688
# Velocity P-wave (km/s) = 7.14829 7.95037 7.55998
#
# Compressibility (1/GPa) = 0.02096573
#
# Stress axis : x y z
#
# Youngs Moduli (GPa) = 22.72812 49.15426 51.88135
#
# Poissons Ratio (x) = 0.73883 0.50754
# Poissons Ratio (y) = 0.34162 0.33786
# Poissons Ratio (z) = 0.22234 0.32010
#
# Static dielectric constant tensor:
#      x y z
#    x 1.468260 0.000000 0.000000 
#    y 0.000000 1.458810 0.000000 
#    z 0.000000 0.000000 1.436840 
# 
# From -- ./inp_files/34505.got.cif
#   From: 2010.05.17/outbox.cif.g08.bks.cpg/sg53_18_cif.got.tgz:34505.got - 2010.06.03 12:45:16.
