data_PCOD9414035
_publ_section_title
;
Structure prediction by ZEFSAII (Michael W. Deem and Ramdas Pophale) SiO2 
 PCOD9414035
Probable space group: P N N A
;
_chemical_formula_sum "Si O2"
_cell_formula_units_Z 32
_cell_length_a 21.000000
_cell_length_b 6.000000
_cell_length_c 12.000000
_cell_angle_alpha 90.000000
_cell_angle_beta 90.000000
_cell_angle_gamma 90.000000
_cell_volume 1512.000000
_symmetry_space_group_name_H-M "P N N A"
_symmetry_group_IT_number 52
_symmetry_cell_setting 'orthorhombic'
loop_
_space_group_symop_operation_xyz
x,y,z
1/2-x,-y,z
x,1/2-y,1/2-z
1/2-x,1/2+y,1/2-z
-x,-y,-z
1/2+x,y,-z
-x,1/2+y,1/2+z
1/2+x,1/2-y,1/2+z
loop_
_atom_site_type_symbol
_atom_site_label
_atom_site_fract_x
_atom_site_fract_y
_atom_site_fract_z
Si Si1 0.058999 0.155435 0.036648
Si Si2 0.980303 0.250000 0.250000
Si Si3 0.810736 0.852750 0.868472
Si Si4 0.750000 0.500000 0.042032
Si Si5 0.375147 0.928568 0.663340
O O1 0.125072 0.040443 0.078773
O O2 0.026463 0.269376 0.143725
O O3 0.085276 0.318222 0.939711
O O4 0.000000 0.000000 0.000000
O O5 0.929375 0.449309 0.236443
O O6 0.830778 0.750000 0.750000
O O7 0.750000 0.000000 0.839792
O O8 0.780629 0.685405 0.960366
O O9 0.686727 0.561696 0.115248
O O10 0.346835 0.750000 0.750000
#
# Coordination Sequence:
#
# PCOD9414035 Si02
#       5
#     8   4   8   4   8
#     4  11  24  46  67  99 133 176 224 276 335 401
#     4  12  24  44  70  94 134 174 218 282 330 394
#     4  11  23  44  68  98 133 175 223 276 335 394
#     4  10  26  42  66  98 136 172 222 274 330 412
#     4  11  25  44  68 100 133 174 225 269 340 402
#
# _framework density 21.164021000000002
#
# number of rings (size 3 to 8) (size 9 to 14) (size 15 to 20)
#    0.000    1.000    5.000    0.750    5.250    0.000 
#    6.750    0.000    0.000    0.000    0.000    0.000 
#    0.000    0.000    0.000    0.000    0.000    0.000 
#
# Total GULP energy -178191.989774 kJ/mol
# GULP energy per Si atom -5568.499680 kJ/mol
# Density = 2.111585 g / cm^3
# Si number density = 21.164021 Si / 1000 Ang^3
#
#
#
# Elastic Constant Matrix: (Units=GPa)
#
#
# Indices 1 2 3 4 5 6 
#
# 1 190.4025 26.4841 26.5939 0.0000 0.0000 0.0000
# 2 26.4841 14.5439 11.5450 0.0000 0.0000 0.0000
# 3 26.5939 11.5450 80.0421 0.0000 0.0000 0.0000
# 4 0.0000 0.0000 0.0000 25.0184 0.0000 0.0000
# 5 0.0000 0.0000 0.0000 0.0000 34.0111 0.0000
# 6 0.0000 0.0000 0.0000 0.0000 0.0000 28.5503
#
#
#
# Elastic Compliance Matrix: (Units=1/GPa)
#
#
# Indices 1 2 3 4 5 6 
#
# 1 0.007055 -0.012407 -0.000555 0.000000 0.000000 0.000000
# 2 -0.012407 0.099467 -0.010224 0.000000 0.000000 0.000000
# 3 -0.000555 -0.010224 0.014152 0.000000 0.000000 0.000000
# 4 0.000000 0.000000 0.000000 0.039971 0.000000 0.000000
# 5 0.000000 0.000000 0.000000 0.000000 0.029402 0.000000
# 6 0.000000 0.000000 0.000000 0.000000 0.000000 0.035026
#
#
# Mechanical properties :
#
#
# Convention : Reuss Voigt Hill
#
# Bulk Modulus (GPa) = 13.45861 46.02607 29.74234
# Shear Modulus (GPa) = 16.87976 32.20699 24.54338
#
# Velocity S-wave (km/s) = 2.82719 3.90523 3.40909
# Velocity P-wave (km/s) = 4.12678 6.49068 5.43872
#
# Compressibility (1/GPa) = 0.07430185
#
# Stress axis : x y z
#
# Youngs Moduli (GPa) = 141.73784 10.05362 70.65939
#
# Poissons Ratio (x) = 0.12474 0.03918
# Poissons Ratio (y) = 1.75858 0.72245
# Poissons Ratio (z) = 0.07860 0.10279
#
# Static dielectric constant tensor:
#      x y z
#    x 1.733180 0.000000 0.000000 
#    y 0.000000 1.858560 0.000000 
#    z 0.000000 0.000000 1.812480 
# 
# From -- ./inp_files/19037.got.cif
#   From: 2010.05.17/outbox.ucp.g08.bks.cvg/sg52_10_cif.got.tgz:19037.got - 2010.06.11 16:30:12.
