data_PCOD9414040
_publ_section_title
;
Structure prediction by ZEFSAII (Michael W. Deem and Ramdas Pophale) SiO2 
 PCOD9414040
Probable space group: P N N A
;
_chemical_formula_sum "Si O2"
_cell_formula_units_Z 48
_cell_length_a 18.000000
_cell_length_b 15.000000
_cell_length_c 9.000000
_cell_angle_alpha 90.000000
_cell_angle_beta 90.000000
_cell_angle_gamma 90.000000
_cell_volume 2430.000000
_symmetry_space_group_name_H-M "P N N A"
_symmetry_group_IT_number 52
_symmetry_cell_setting 'orthorhombic'
loop_
_space_group_symop_operation_xyz
x,y,z
1/2-x,-y,z
x,1/2-y,1/2-z
1/2-x,1/2+y,1/2-z
-x,-y,-z
1/2+x,y,-z
-x,1/2+y,1/2+z
1/2+x,1/2-y,1/2+z
loop_
_atom_site_type_symbol
_atom_site_label
_atom_site_fract_x
_atom_site_fract_y
_atom_site_fract_z
Si Si1 0.324144 0.750000 0.250000
Si Si2 0.527399 0.559582 0.244580
Si Si3 0.209367 0.906713 0.244242
Si Si4 0.167841 0.980065 0.944801
Si Si5 0.972816 0.750000 0.250000
Si Si6 0.440328 0.103223 0.406612
Si Si7 0.915714 0.846299 0.971345
O O1 0.270513 0.832671 0.266778
O O2 0.376638 0.764134 0.109334
O O3 0.605403 0.540338 0.324511
O O4 0.478788 0.472687 0.198022
O O5 0.482107 0.619365 0.364069
O O6 0.544115 0.595827 0.080788
O O7 0.145153 0.898585 0.364149
O O8 0.250000 0.000000 0.259618
O O9 0.175359 0.907200 0.076634
O O10 0.250000 0.000000 0.883756
O O11 0.139618 0.070141 0.023403
O O12 0.930713 0.682677 0.359789
O O13 0.024131 0.805119 0.358490
#
# Coordination Sequence:
#
# PCOD9414040 Si02
#       7
#     4   8   8   8   4   8   8
#     4  12  23  42  68  97 140 176 234 284 347 418
#     4  11  23  42  72  95 133 180 234 287 335 422
#     4  11  22  41  67  99 137 188 224 277 351 417
#     4  11  21  43  69  98 132 184 230 277 353 412
#     4  12  25  40  66  97 134 172 230 294 347 406
#     4  11  23  41  65 103 130 175 233 280 344 408
#     4  12  23  44  68  98 134 183 228 289 343 416
#
# _framework density 19.753086
#
# number of rings (size 3 to 8) (size 9 to 14) (size 15 to 20)
#    0.000    0.667    6.667    3.000    0.000    2.000 
#    3.000    0.000    0.000    0.000    0.000    0.000 
#    0.000    0.000    0.000    0.000    0.000    0.000 
#
# Total GULP energy -267727.489938 kJ/mol
# GULP energy per Si atom -5577.656040 kJ/mol
# Density = 1.970813 g / cm^3
# Si number density = 19.753086 Si / 1000 Ang^3
#
#
#
# Elastic Constant Matrix: (Units=GPa)
#
#
# Indices 1 2 3 4 5 6 
#
# 1 126.5808 35.2522 52.8925 0.0000 0.0000 0.0000
# 2 35.2522 61.2248 27.6531 0.0000 0.0000 0.0000
# 3 52.8925 27.6531 69.5586 0.0000 0.0000 0.0000
# 4 0.0000 0.0000 0.0000 34.6947 0.0000 0.0000
# 5 0.0000 0.0000 0.0000 0.0000 40.4902 0.0000
# 6 0.0000 0.0000 0.0000 0.0000 0.0000 41.5658
#
#
#
# Elastic Compliance Matrix: (Units=1/GPa)
#
#
# Indices 1 2 3 4 5 6 
#
# 1 0.012146 -0.003440 -0.007868 0.000000 0.000000 0.000000
# 2 -0.003440 0.020882 -0.005686 0.000000 0.000000 0.000000
# 3 -0.007868 -0.005686 0.022620 0.000000 0.000000 0.000000
# 4 0.000000 0.000000 0.000000 0.028823 0.000000 0.000000
# 5 0.000000 0.000000 0.000000 0.000000 0.024697 0.000000
# 6 0.000000 0.000000 0.000000 0.000000 0.000000 0.024058
#
#
# Mechanical properties :
#
#
# Convention : Reuss Voigt Hill
#
# Bulk Modulus (GPa) = 46.16878 54.32888 50.24883
# Shear Modulus (GPa) = 28.66411 32.78791 30.72601
#
# Velocity S-wave (km/s) = 3.81349 4.07859 3.94827
# Velocity P-wave (km/s) = 6.54324 7.05291 6.80285
#
# Compressibility (1/GPa) = 0.02165966
#
# Stress axis : x y z
#
# Youngs Moduli (GPa) = 82.33299 47.88826 44.20863
#
# Poissons Ratio (x) = 0.16471 0.34785
# Poissons Ratio (y) = 0.28318 0.25138
# Poissons Ratio (z) = 0.64782 0.27230
#
# Static dielectric constant tensor:
#      x y z
#    x 1.621740 0.000000 0.000000 
#    y 0.000000 1.706610 0.000000 
#    z 0.000000 0.000000 0.362460 
# 
# From -- ./inp_files/12153.got.cif
#   From: 2010.05.17/outbox.ucp.g08.bks.cvg/sg52_7_cif.got.tgz:12153.got - 2010.06.11 16:30:12.
