data_PCOD9414942
_publ_section_title
;
Structure prediction by ZEFSAII (Michael W. Deem and Ramdas Pophale) SiO2 
 PCOD9414942
Probable space group: P M N A
;
_chemical_formula_sum "Si O2"
_cell_formula_units_Z 64
_cell_length_a 27.664527
_cell_length_b 10.160828
_cell_length_c 12.034363
_cell_angle_alpha 90.000000
_cell_angle_beta 90.000000
_cell_angle_gamma 90.000000
_cell_volume 3382.793257
_symmetry_space_group_name_H-M "P M N A"
_symmetry_group_IT_number 53
_symmetry_cell_setting 'orthorhombic'
loop_
_space_group_symop_operation_xyz
x,y,z
1/2-x,-y,1/2+z
x,-y,-z
1/2-x,y,1/2-z
-x,-y,-z
1/2+x,y,1/2-z
-x,y,z
1/2+x,-y,1/2+z
loop_
_atom_site_type_symbol
_atom_site_label
_atom_site_fract_x
_atom_site_fract_y
_atom_site_fract_z
Si Si1 0.132110 0.897659 0.277346
Si Si2 0.556220 0.408904 0.101538
Si Si3 0.054956 0.193133 0.900860
Si Si4 0.807600 0.843038 0.474982
Si Si5 0.367589 0.196522 0.172543
Si Si6 0.554008 0.502139 0.650106
Si Si7 0.877956 0.268590 0.076205
Si Si8 0.301246 0.862837 0.430475
O O1 0.086690 0.857598 0.202081
O O2 0.151317 0.814834 0.382668
O O3 0.176728 0.894796 0.189971
O O4 0.121900 0.041725 0.325666
O O5 0.500000 0.373811 0.081579
O O6 0.588597 0.281564 0.123718
O O7 0.558612 0.488870 0.217054
O O8 0.572717 0.500000 0.000000
O O9 0.055521 0.351398 0.885193
O O10 0.000000 0.146180 0.900110
O O11 0.081615 0.173039 0.019413
O O12 0.822186 0.778619 0.591841
O O13 0.753987 0.815903 0.431340
O O14 0.807297 0.000000 0.500000
O O15 0.360451 0.228999 0.301751
O O16 0.500000 0.555690 0.622260
O O17 0.595395 0.592800 0.597513
O O18 0.834331 0.247982 0.990117
O O19 0.304990 0.000000 0.500000
#
# Coordination Sequence:
#
# PCOD9414942 Si02
#       8
#     8   8   8   8   8   8   8   8
#     4  10  20  35  54  82 114 145 180 231 289 339
#     4   9  19  34  55  78 105 151 198 234 277 338
#     4  10  21  34  55  82 111 149 188 228 279 346
#     4   9  20  34  54  80 105 145 181 224 278 332
#     4  10  20  35  53  80 117 140 185 235 286 336
#     4   9  18  34  54  79 107 142 189 231 272 337
#     4  10  19  32  54  80 109 142 177 230 282 327
#     4  10  18  33  56  80 109 138 179 229 276 341
#
# _framework density 18.919276
#
# number of rings (size 3 to 8) (size 9 to 14) (size 15 to 20)
#    0.000    2.375    1.250    1.125    1.750    2.500 
#    0.000    0.625    0.000    5.250    9.750    0.000 
#    0.000    0.000    0.000    0.000    0.000    0.000 
#
# Total GULP energy -356567.866781 kJ/mol
# GULP energy per Si atom -5571.372918 kJ/mol
# Density = 1.887622 g / cm^3
# Si number density = 18.919276 Si / 1000 Ang^3
#
#
#
# Elastic Constant Matrix: (Units=GPa)
#
#
# Indices 1 2 3 4 5 6 
#
# 1 67.1730 1.6253 51.3670 0.0000 0.0000 0.0000
# 2 1.6253 29.1242 23.7861 0.0000 0.0000 0.0000
# 3 51.3670 23.7861 118.9751 0.0000 0.0000 0.0000
# 4 0.0000 0.0000 0.0000 27.8501 0.0000 0.0000
# 5 0.0000 0.0000 0.0000 0.0000 19.2455 0.0000
# 6 0.0000 0.0000 0.0000 0.0000 0.0000 -17.8890
#
#
#
# Elastic Compliance Matrix: (Units=1/GPa)
#
#
# Indices 1 2 3 4 5 6 
#
# 1 0.023850 0.008460 -0.011988 0.000000 0.000000 0.000000
# 2 0.008460 0.044037 -0.012457 0.000000 0.000000 0.000000
# 3 -0.011988 -0.012457 0.016072 0.000000 0.000000 0.000000
# 4 0.000000 0.000000 0.000000 0.035907 0.000000 0.000000
# 5 0.000000 0.000000 0.000000 0.000000 0.051960 0.000000
# 6 0.000000 0.000000 0.000000 0.000000 0.000000 -0.055900
#
#
# Mechanical properties :
#
#
# Convention : Reuss Voigt Hill
#
# Bulk Modulus (GPa) = 19.23505 40.98100 30.10803
# Shear Modulus (GPa) = 30.26181 15.07423 22.66802
#
# Velocity S-wave (km/s) = 4.00374 2.82577 3.46518
# Velocity P-wave (km/s) = 5.61803 5.68811 5.65318
#
# Compressibility (1/GPa) = 0.05198842
#
# Stress axis : x y z
#
# Youngs Moduli (GPa) = 41.92914 22.70805 62.22189
#
# Poissons Ratio (x) = -0.19211 0.74594
# Poissons Ratio (y) = -0.35473 0.77509
# Poissons Ratio (z) = 0.50267 0.28287
#
# Static dielectric constant tensor:
#      x y z
#    x 1.678110 0.000000 0.000000 
#    y 0.000000 1.657820 0.000000 
#    z 0.000000 0.000000 1.694170 
# 
# From -- ./inp_files/18862.got.cif
#   From: 2010.05.17/outbox.cif.g08.bks.cpg/sg53_10_cif.got.tgz:18862.got - 2010.06.03 12:45:16.
