data_PCOD9414930
_publ_section_title
;
Structure prediction by ZEFSAII (Michael W. Deem and Ramdas Pophale) SiO2 
 PCOD9414930
Probable space group: P M N A
;
_chemical_formula_sum "Si O2"
_cell_formula_units_Z 64
_cell_length_a 8.826152
_cell_length_b 12.869424
_cell_length_c 29.474467
_cell_angle_alpha 90.000000
_cell_angle_beta 90.000000
_cell_angle_gamma 90.000000
_cell_volume 3347.930796
_symmetry_space_group_name_H-M "P M N A"
_symmetry_group_IT_number 53
_symmetry_cell_setting 'orthorhombic'
loop_
_space_group_symop_operation_xyz
x,y,z
1/2-x,-y,1/2+z
x,-y,-z
1/2-x,y,1/2-z
-x,-y,-z
1/2+x,y,1/2-z
-x,y,z
1/2+x,-y,1/2+z
loop_
_atom_site_type_symbol
_atom_site_label
_atom_site_fract_x
_atom_site_fract_y
_atom_site_fract_z
Si Si1 0.818197 0.628434 0.603266
Si Si2 0.319139 0.042254 0.612731
Si Si3 0.677120 0.648467 0.320818
Si Si4 0.681862 0.847967 0.939977
Si Si5 0.318786 0.430593 0.203901
Si Si6 0.819420 0.870819 0.297574
Si Si7 0.182533 0.206203 0.965784
Si Si8 0.323760 0.582957 0.425876
O O1 0.771934 0.736612 0.581037
O O2 0.769913 0.621071 0.656180
O O3 0.758137 0.527252 0.576902
O O4 0.000000 0.623417 0.602897
O O5 0.500000 0.037977 0.619286
O O6 0.259279 0.940108 0.587733
O O7 0.237653 0.060911 0.660358
O O8 0.286866 0.139364 0.579291
O O9 0.500000 0.650416 0.307578
O O10 0.760020 0.548780 0.300207
O O11 0.755964 0.754756 0.306635
O O12 0.683760 0.631593 0.375139
O O13 0.500000 0.857848 0.937751
O O14 0.737520 0.846418 0.991705
O O15 0.250000 0.384656 0.250000
O O16 0.500000 0.428850 0.206515
O O17 0.750000 0.907262 0.250000
O O18 0.000000 0.868912 0.295387
O O19 0.233930 0.325596 0.958600
O O20 0.000000 0.206488 0.972246
O O21 0.500000 0.564355 0.436443
#
# Coordination Sequence:
#
# PCOD9414930 Si02
#       8
#     8   8   8   8   8   8   8   8
#     4   9  21  39  56  79 118 157 193 241 294 349
#     4  11  23  43  65  87 119 155 196 247 299 348
#     4  10  18  33  54  82 119 156 190 233 286 345
#     4  11  24  41  60  86 117 155 202 249 297 354
#     4  10  19  33  53  80 110 149 194 240 291 344
#     4  12  24  38  59  88 121 157 195 237 290 352
#     4  10  21  39  62  90 120 152 191 244 303 356
#     4   9  18  34  58  86 118 153 191 236 288 350
#
# _framework density 19.116284
#
# number of rings (size 3 to 8) (size 9 to 14) (size 15 to 20)
#    0.000    1.750    1.250    3.375    0.000    5.500 
#    0.000    3.125    0.000    1.500    0.000    0.000 
#    0.000    0.000    0.000    0.000    0.000    0.000 
#
# Total GULP energy -357614.106835 kJ/mol
# GULP energy per Si atom -5587.720419 kJ/mol
# Density = 1.907277 g / cm^3
# Si number density = 19.116284 Si / 1000 Ang^3
#
#
#
# Elastic Constant Matrix: (Units=GPa)
#
#
# Indices 1 2 3 4 5 6 
#
# 1 65.2981 25.6928 30.8092 0.0000 0.0000 0.0000
# 2 25.6928 76.4432 16.5132 0.0000 0.0000 0.0000
# 3 30.8092 16.5132 67.0111 0.0000 0.0000 0.0000
# 4 0.0000 0.0000 0.0000 -117.5292 0.0000 0.0000
# 5 0.0000 0.0000 0.0000 0.0000 22.9914 0.0000
# 6 0.0000 0.0000 0.0000 0.0000 0.0000 28.4536
#
#
#
# Elastic Compliance Matrix: (Units=1/GPa)
#
#
# Indices 1 2 3 4 5 6 
#
# 1 0.021456 -0.005366 -0.008542 0.000000 0.000000 0.000000
# 2 -0.005366 0.015159 -0.001268 0.000000 0.000000 0.000000
# 3 -0.008542 -0.001268 0.019163 0.000000 0.000000 0.000000
# 4 0.000000 0.000000 0.000000 -0.008509 0.000000 0.000000
# 5 0.000000 0.000000 0.000000 0.000000 0.043495 0.000000
# 6 0.000000 0.000000 0.000000 0.000000 0.000000 0.035145
#
#
# Mechanical properties :
#
#
# Convention : Reuss Voigt Hill
#
# Bulk Modulus (GPa) = 39.33238 39.42032 39.37635
# Shear Modulus (GPa) = 30.35114 -4.16769 13.09173
#
# Velocity S-wave (km/s) = 3.98893 -1.47814 2.61980
# Velocity P-wave (km/s) = 6.46803 4.21342 5.45840
#
# Compressibility (1/GPa) = 0.02542434
#
# Stress axis : x y z
#
# Youngs Moduli (GPa) = 46.60629 65.96648 52.18401
#
# Poissons Ratio (x) = 0.35399 0.44578
# Poissons Ratio (y) = 0.25010 0.06619
# Poissons Ratio (z) = 0.39813 0.08367
#
# Static dielectric constant tensor:
#      x y z
#    x 1.638010 0.000000 0.000000 
#    y 0.000000 1.642870 0.000000 
#    z 0.000000 0.000000 1.692890 
# 
# From -- ./inp_files/38112.got.cif
#   From: 2010.05.17/outbox.cif.g08.bks.cpg/sg53_20_cif.got.tgz:38112.got - 2010.06.03 12:45:16.
