data_PCOD9414530
_publ_section_title
;
Structure prediction by ZEFSAII (Michael W. Deem and Ramdas Pophale) SiO2 
 PCOD9414530
Probable space group: P M N A
;
_chemical_formula_sum "Si O2"
_cell_formula_units_Z 40
_cell_length_a 15.800893
_cell_length_b 15.359743
_cell_length_c 7.327853
_cell_angle_alpha 90.000000
_cell_angle_beta 90.000000
_cell_angle_gamma 90.000000
_cell_volume 1778.452744
_symmetry_space_group_name_H-M "P M N A"
_symmetry_group_IT_number 53
_symmetry_cell_setting 'orthorhombic'
loop_
_space_group_symop_operation_xyz
x,y,z
1/2-x,-y,1/2+z
x,-y,-z
1/2-x,y,1/2-z
-x,-y,-z
1/2+x,y,1/2-z
-x,y,z
1/2+x,-y,1/2+z
loop_
_atom_site_type_symbol
_atom_site_label
_atom_site_fract_x
_atom_site_fract_y
_atom_site_fract_z
Si Si1 0.401528 0.600334 0.292024
Si Si2 0.000000 0.101304 0.775448
Si Si3 0.000000 0.901358 0.778105
Si Si4 0.650027 0.776880 0.716911
Si Si5 0.650317 0.414689 0.283129
Si Si6 0.655677 0.781556 0.281287
O O1 0.500000 0.623639 0.294592
O O2 0.370156 0.590004 0.501016
O O3 0.389663 0.504046 0.210776
O O4 0.352575 0.682502 0.208228
O O5 0.917200 0.154345 0.714399
O O6 0.000000 0.001134 0.717930
O O7 0.000000 0.099303 0.998652
O O8 0.084250 0.849522 0.719154
O O9 0.750000 0.792430 0.750000
O O10 0.624559 0.680674 0.788221
O O11 0.641856 0.773943 0.498023
O O12 0.750000 0.422167 0.250000
O O13 0.750000 0.814707 0.250000
#
# Coordination Sequence:
#
# PCOD9414530 Si02
#       6
#     8   4   4   8   8   8
#     4  10  18  29  49  74  98 132 174 206 244 301
#     4   9  18  34  50  80  96 133 167 211 250 304
#     4   9  18  32  56  70 104 129 169 207 254 298
#     4   9  19  33  51  77 100 132 169 205 249 301
#     4   9  17  27  44  73  99 126 163 207 246 284
#     4  10  19  33  54  76 102 132 168 211 250 297
#
# _framework density 22.49146
#
# number of rings (size 3 to 8) (size 9 to 14) (size 15 to 20)
#    0.000    2.600    1.000    1.800    5.600    0.800 
#    0.000    1.000    0.000    1.200    0.000    9.800 
#    0.000    0.000    0.000    0.000    0.000    0.000 
#
# Total GULP energy -223323.471235 kJ/mol
# GULP energy per Si atom -5583.086781 kJ/mol
# Density = 2.244027 g / cm^3
# Si number density = 22.491460 Si / 1000 Ang^3
#
#
#
# Elastic Constant Matrix: (Units=GPa)
#
#
# Indices 1 2 3 4 5 6 
#
# 1 153.9889 98.1723 -8.1789 0.0000 0.0000 0.0000
# 2 98.1723 217.6794 5.8412 0.0000 0.0000 0.0000
# 3 -8.1789 5.8412 83.3086 0.0000 0.0000 0.0000
# 4 0.0000 0.0000 0.0000 -10.7132 0.0000 0.0000
# 5 0.0000 0.0000 0.0000 0.0000 20.9612 0.0000
# 6 0.0000 0.0000 0.0000 0.0000 0.0000 20.8636
#
#
#
# Elastic Compliance Matrix: (Units=1/GPa)
#
#
# Indices 1 2 3 4 5 6 
#
# 1 0.009233 -0.004196 0.001201 0.000000 0.000000 0.000000
# 2 -0.004196 0.006510 -0.000868 0.000000 0.000000 0.000000
# 3 0.001201 -0.000868 0.012182 0.000000 0.000000 0.000000
# 4 0.000000 0.000000 0.000000 -0.093343 0.000000 0.000000
# 5 0.000000 0.000000 0.000000 0.000000 0.047707 0.000000
# 6 0.000000 0.000000 0.000000 0.000000 0.000000 0.047930
#
#
# Mechanical properties :
#
#
# Convention : Reuss Voigt Hill
#
# Bulk Modulus (GPa) = 49.51212 71.84956 60.68084
# Shear Modulus (GPa) = 111.90580 30.16513 71.03547
#
# Velocity S-wave (km/s) = 7.06136 3.66619 5.62600
# Velocity P-wave (km/s) = 9.40985 7.06653 8.32109
#
# Compressibility (1/GPa) = 0.02019707
#
# Stress axis : x y z
#
# Youngs Moduli (GPa) = 108.30753 153.61697 82.08612
#
# Poissons Ratio (x) = 0.64461 -0.09856
# Poissons Ratio (y) = 0.45448 0.07128
# Poissons Ratio (z) = -0.13004 0.13340
#
# Static dielectric constant tensor:
#      x y z
#    x 1.770180 0.000000 0.000000 
#    y 0.000000 1.854680 0.000000 
#    z 0.000000 0.000000 1.839970 
# 
# From -- ./inp_files/15847.got.cif
#   From: 2010.05.17/outbox.cif.g08.bks.cpg/sg53_8_cif.got.tgz:15847.got - 2010.06.03 12:45:16.
