data_PCOD9414125
_publ_section_title
;
Structure prediction by ZEFSAII (Michael W. Deem and Ramdas Pophale) SiO2 
 PCOD9414125
Probable space group: P M N A
;
_chemical_formula_sum "Si O2"
_cell_formula_units_Z 64
_cell_length_a 18.377816
_cell_length_b 8.672703
_cell_length_c 22.463267
_cell_angle_alpha 90.000000
_cell_angle_beta 90.000000
_cell_angle_gamma 90.000000
_cell_volume 3580.315447
_symmetry_space_group_name_H-M "P M N A"
_symmetry_group_IT_number 53
_symmetry_cell_setting 'orthorhombic'
loop_
_space_group_symop_operation_xyz
x,y,z
1/2-x,-y,1/2+z
x,-y,-z
1/2-x,y,1/2-z
-x,-y,-z
1/2+x,y,1/2-z
-x,y,z
1/2+x,-y,1/2+z
loop_
_atom_site_type_symbol
_atom_site_label
_atom_site_fract_x
_atom_site_fract_y
_atom_site_fract_z
Si Si1 0.707430 0.829662 0.158657
Si Si2 0.734478 0.820062 0.475116
Si Si3 0.419306 0.725474 0.743645
Si Si4 0.828574 0.061301 0.155630
Si Si5 0.082102 0.935852 0.639147
Si Si6 0.918782 0.885285 0.055946
Si Si7 0.310951 0.511903 0.797293
Si Si8 0.705028 0.736387 0.908361
O O1 0.727055 0.810984 0.088592
O O2 0.698711 0.667267 0.190261
O O3 0.775582 0.930589 0.183111
O O4 0.631730 0.921630 0.159455
O O5 0.649607 0.779791 0.463272
O O6 0.771740 0.711330 0.523857
O O7 0.738002 0.000000 0.500000
O O8 0.500000 0.707655 0.718284
O O9 0.368260 0.824010 0.700290
O O10 0.423007 0.825881 0.803601
O O11 0.384654 0.564783 0.764715
O O12 0.771485 0.161674 0.117646
O O13 0.887434 0.979048 0.112772
O O14 0.131779 0.839586 0.593110
O O15 0.000000 0.973471 0.619484
O O16 0.000000 0.821459 0.067285
O O17 0.925321 0.000000 0.000000
O O18 0.250000 0.565211 0.750000
O O19 0.304338 0.599573 0.860756
#
# Coordination Sequence:
#
# PCOD9414125 Si02
#       8
#     8   8   8   8   8   8   8   8
#     4  10  22  33  56  83 112 143 182 236 276 336
#     4  10  16  34  54  81 110 139 185 234 276 320
#     4  10  21  36  56  81 110 147 188 232 278 336
#     4  10  17  32  54  80 105 142 186 229 264 321
#     4   9  19  34  54  80 107 139 180 229 284 324
#     4   9  15  24  46  81 110 132 167 220 273 312
#     4  11  23  36  54  80 110 150 186 220 284 331
#     4  10  18  34  56  77 108 142 185 227 263 335
#
# _framework density 17.875520999999999
#
# number of rings (size 3 to 8) (size 9 to 14) (size 15 to 20)
#    0.000    2.125    6.250    0.375    1.750    1.000 
#    0.000    1.250    0.000    0.750    0.000    7.875 
#    0.000    0.000    0.000    0.000    0.000    0.000 
#
# Total GULP energy -356328.442246 kJ/mol
# GULP energy per Si atom -5567.631910 kJ/mol
# Density = 1.783484 g / cm^3
# Si number density = 17.875521 Si / 1000 Ang^3
#
#
#
# Elastic Constant Matrix: (Units=GPa)
#
#
# Indices 1 2 3 4 5 6 
#
# 1 134.6957 29.1142 32.6498 0.0000 0.0000 0.0000
# 2 29.1142 60.9630 17.3067 0.0000 0.0000 0.0000
# 3 32.6498 17.3067 59.5227 0.0000 0.0000 0.0000
# 4 0.0000 0.0000 0.0000 19.5117 0.0000 0.0000
# 5 0.0000 0.0000 0.0000 0.0000 1.9665 0.0000
# 6 0.0000 0.0000 0.0000 0.0000 0.0000 11.0727
#
#
#
# Elastic Compliance Matrix: (Units=1/GPa)
#
#
# Indices 1 2 3 4 5 6 
#
# 1 0.009099 -0.003192 -0.004063 0.000000 0.000000 0.000000
# 2 -0.003192 0.018999 -0.003773 0.000000 0.000000 0.000000
# 3 -0.004063 -0.003773 0.020126 0.000000 0.000000 0.000000
# 4 0.000000 0.000000 0.000000 0.051251 0.000000 0.000000
# 5 0.000000 0.000000 0.000000 0.000000 0.508521 0.000000
# 6 0.000000 0.000000 0.000000 0.000000 0.000000 0.090312
#
#
# Mechanical properties :
#
#
# Convention : Reuss Voigt Hill
#
# Bulk Modulus (GPa) = 38.21505 45.92475 42.06990
# Shear Modulus (GPa) = 6.85789 18.25089 12.55439
#
# Velocity S-wave (km/s) = 1.96082 3.19877 2.65301
# Velocity P-wave (km/s) = 5.15279 6.27615 5.74201
#
# Compressibility (1/GPa) = 0.02616770
#
# Stress axis : x y z
#
# Youngs Moduli (GPa) = 109.90318 52.63447 49.68693
#
# Poissons Ratio (x) = 0.16801 0.20187
# Poissons Ratio (y) = 0.35081 0.18748
# Poissons Ratio (z) = 0.44653 0.19860
#
# Static dielectric constant tensor:
#      x y z
#    x 1.648530 0.000000 0.000000 
#    y 0.000000 1.622110 0.000000 
#    z 0.000000 0.000000 1.641130 
# 
# From -- ./inp_files/35551.got.cif
#   From: 2010.05.17/outbox.cif.g08.bks.cpg/sg53_18_cif.got.tgz:35551.got - 2010.06.03 12:45:16.
