data_PCOD9414845
_publ_section_title
;
Structure prediction by ZEFSAII (Michael W. Deem and Ramdas Pophale) SiO2 
 PCOD9414845
Probable space group: P M N A
;
_chemical_formula_sum "Si O2"
_cell_formula_units_Z 56
_cell_length_a 8.631266
_cell_length_b 15.992626
_cell_length_c 20.405525
_cell_angle_alpha 90.000000
_cell_angle_beta 90.000000
_cell_angle_gamma 90.000000
_cell_volume 2816.709477
_symmetry_space_group_name_H-M "P M N A"
_symmetry_group_IT_number 53
_symmetry_cell_setting 'orthorhombic'
loop_
_space_group_symop_operation_xyz
x,y,z
1/2-x,-y,1/2+z
x,-y,-z
1/2-x,y,1/2-z
-x,-y,-z
1/2+x,y,1/2-z
-x,y,z
1/2+x,-y,1/2+z
loop_
_atom_site_type_symbol
_atom_site_label
_atom_site_fract_x
_atom_site_fract_y
_atom_site_fract_z
Si Si1 0.814244 0.071173 0.550587
Si Si2 0.186008 0.739419 0.450944
Si Si3 0.683913 0.330489 0.680899
Si Si4 0.688527 0.338344 0.082643
Si Si5 0.684019 0.003575 0.321116
Si Si6 0.813373 0.517890 0.679909
Si Si7 0.186386 0.811747 0.678294
O O1 0.783998 0.165286 0.526953
O O2 0.737983 0.056318 0.620881
O O3 0.000000 0.062087 0.557826
O O4 0.760729 0.000000 0.500000
O O5 0.264245 0.721920 0.381763
O O6 0.239439 0.676582 0.508165
O O7 0.000000 0.730477 0.442962
O O8 0.750000 0.297863 0.750000
O O9 0.500000 0.335088 0.685618
O O10 0.751737 0.424023 0.671847
O O11 0.500000 0.339436 0.081254
O O12 0.737290 0.421420 0.121063
O O13 0.733425 0.258069 0.126056
O O14 0.750000 0.979479 0.250000
O O15 0.500000 0.007646 0.317108
O O16 0.749990 0.096091 0.336878
O O17 0.750000 0.549373 0.750000
O O18 0.000000 0.516422 0.682366
O O19 0.250000 0.788892 0.750000
O O20 0.000000 0.815701 0.680214
#
# Coordination Sequence:
#
# PCOD9414845 Si02
#       7
#     8   8   8   8   8   8   8
#     4  10  21  39  63  86 112 148 188 232 283 340
#     4  10  21  39  61  85 112 147 188 229 278 333
#     4  11  23  41  62  85 113 147 188 234 284 334
#     4   9  19  34  56  84 115 151 189 227 272 334
#     4  11  22  36  55  80 111 146 188 236 285 337
#     4  10  19  35  59  87 117 151 190 229 273 326
#     4  10  18  32  53  80 114 151 191 232 279 333
#
# _framework density 19.881354000000002
#
# number of rings (size 3 to 8) (size 9 to 14) (size 15 to 20)
#    0.000    1.857    0.000    6.429    0.000    4.286 
#    0.000    9.286    0.000    0.000    0.000    0.000 
#    0.000    0.000    0.000    0.000    0.000    0.000 
#
# Total GULP energy -312912.565504 kJ/mol
# GULP energy per Si atom -5587.724384 kJ/mol
# Density = 1.983610 g / cm^3
# Si number density = 19.881354 Si / 1000 Ang^3
#
#
#
# Elastic Constant Matrix: (Units=GPa)
#
#
# Indices 1 2 3 4 5 6 
#
# 1 68.8586 29.8379 29.6451 0.0000 0.0000 0.0000
# 2 29.8379 42.1704 37.6352 0.0000 0.0000 0.0000
# 3 29.6451 37.6352 96.1630 0.0000 0.0000 0.0000
# 4 0.0000 0.0000 0.0000 37.4300 0.0000 0.0000
# 5 0.0000 0.0000 0.0000 0.0000 26.2548 0.0000
# 6 0.0000 0.0000 0.0000 0.0000 0.0000 22.4708
#
#
#
# Elastic Compliance Matrix: (Units=1/GPa)
#
#
# Indices 1 2 3 4 5 6 
#
# 1 0.021008 -0.013961 -0.001013 0.000000 0.000000 0.000000
# 2 -0.013961 0.045719 -0.013589 0.000000 0.000000 0.000000
# 3 -0.001013 -0.013589 0.016030 0.000000 0.000000 0.000000
# 4 0.000000 0.000000 0.000000 0.026717 0.000000 0.000000
# 5 0.000000 0.000000 0.000000 0.000000 0.038088 0.000000
# 6 0.000000 0.000000 0.000000 0.000000 0.000000 0.044502
#
#
# Mechanical properties :
#
#
# Convention : Reuss Voigt Hill
#
# Bulk Modulus (GPa) = 39.01422 44.60314 41.80868
# Shear Modulus (GPa) = 19.40003 24.56938 21.98470
#
# Velocity S-wave (km/s) = 3.12715 3.51921 3.32896
# Velocity P-wave (km/s) = 5.71882 6.24472 5.98754
#
# Compressibility (1/GPa) = 0.02563168
#
# Stress axis : x y z
#
# Youngs Moduli (GPa) = 47.60127 21.87284 62.38486
#
# Poissons Ratio (x) = 0.30536 0.06317
# Poissons Ratio (y) = 0.66454 0.84776
# Poissons Ratio (z) = 0.04820 0.29723
#
# Static dielectric constant tensor:
#      x y z
#    x 1.675020 0.000000 0.000000 
#    y 0.000000 1.701170 0.000000 
#    z 0.000000 0.000000 1.696950 
# 
# From -- ./inp_files/30823.got.cif
#   From: 2010.05.17/outbox.cif.g08.bks.cpg/sg53_16_cif.got.tgz:30823.got - 2010.06.03 12:45:16.
