data_PCOD9414027
_publ_section_title
;
Structure prediction by ZEFSAII (Michael W. Deem and Ramdas Pophale) SiO2 
 PCOD9414027
Probable space group: P N N A
;
_chemical_formula_sum "Si O2"
_cell_formula_units_Z 60
_cell_length_a 18.000000
_cell_length_b 27.000000
_cell_length_c 6.000000
_cell_angle_alpha 90.000000
_cell_angle_beta 90.000000
_cell_angle_gamma 90.000000
_cell_volume 2916.000000
_symmetry_space_group_name_H-M "P N N A"
_symmetry_group_IT_number 52
_symmetry_cell_setting 'orthorhombic'
loop_
_space_group_symop_operation_xyz
x,y,z
1/2-x,-y,z
x,1/2-y,1/2-z
1/2-x,1/2+y,1/2-z
-x,-y,-z
1/2+x,y,-z
-x,1/2+y,1/2+z
1/2+x,1/2-y,1/2+z
loop_
_atom_site_type_symbol
_atom_site_label
_atom_site_fract_x
_atom_site_fract_y
_atom_site_fract_z
Si Si1 0.904356 0.040516 0.080104
Si Si2 0.103175 0.168126 0.081821
Si Si3 0.500230 0.387735 0.889762
Si Si4 0.166548 0.250000 0.750000
Si Si5 0.263122 0.448192 0.887350
Si Si6 0.399774 0.570923 0.719565
Si Si7 0.136787 0.617758 0.190726
Si Si8 0.243833 0.195932 0.353184
O O1 0.823679 0.042287 0.197045
O O2 0.962328 0.071623 0.228475
O O3 0.922461 0.981199 0.097530
O O4 0.892412 0.075315 0.862387
O O5 0.036203 0.158350 0.256627
O O6 0.176011 0.166968 0.237001
O O7 0.116604 0.216572 0.922976
O O8 0.093851 0.119291 0.932051
O O9 0.555919 0.417610 0.052711
O O10 0.434267 0.368583 0.045333
O O11 0.217539 0.210291 0.608462
O O12 0.250000 0.500000 0.012494
O O13 0.186187 0.432203 0.784706
O O14 0.300183 0.409139 0.046032
O O15 0.181646 0.668307 0.233117
O O16 0.246956 0.250000 0.250000
#
# Coordination Sequence:
#
# PCOD9414027 Si02
#       8
#     8   8   8   4   8   8   8   8
#     4  10  23  39  61  92 133 176 217 261 329 393
#     4  11  22  39  68  98 124 165 220 275 334 388
#     4  11  24  38  60  91 136 178 215 262 322 403
#     4  10  22  44  72  96 124 162 222 292 344 396
#     4   9  20  35  57  91 122 158 213 266 314 376
#     4  11  22  40  64  95 130 176 220 273 326 392
#     4  11  22  40  62  89 129 169 213 268 325 397
#     4  10  23  42  72  94 118 161 218 276 337 393
#
# _framework density 20.576132000000001
#
# number of rings (size 3 to 8) (size 9 to 14) (size 15 to 20)
#    0.000    1.600    0.000    4.400    0.000   11.200 
#    0.000    0.000   38.133    0.000    0.000    0.000 
#    0.000    0.000    0.000    0.000    0.000    0.000 
#
# Total GULP energy -334222.109322 kJ/mol
# GULP energy per Si atom -5570.368489 kJ/mol
# Density = 2.052930 g / cm^3
# Si number density = 20.576132 Si / 1000 Ang^3
#
#
#
# Elastic Constant Matrix: (Units=GPa)
#
#
# Indices 1 2 3 4 5 6 
#
# 1 87.9580 37.6688 37.7994 0.0000 0.0000 0.0000
# 2 37.6688 64.4334 30.4908 0.0000 0.0000 0.0000
# 3 37.7994 30.4908 86.3255 0.0000 0.0000 0.0000
# 4 0.0000 0.0000 0.0000 -4.8020 0.0000 0.0000
# 5 0.0000 0.0000 0.0000 0.0000 -78.6289 0.0000
# 6 0.0000 0.0000 0.0000 0.0000 0.0000 23.2456
#
#
#
# Elastic Compliance Matrix: (Units=1/GPa)
#
#
# Indices 1 2 3 4 5 6 
#
# 1 0.016560 -0.007504 -0.004601 0.000000 0.000000 0.000000
# 2 -0.007504 0.022035 -0.004497 0.000000 0.000000 0.000000
# 3 -0.004601 -0.004497 0.015187 0.000000 0.000000 0.000000
# 4 0.000000 0.000000 0.000000 -0.208246 0.000000 0.000000
# 5 0.000000 0.000000 0.000000 0.000000 -0.012718 0.000000
# 6 0.000000 0.000000 0.000000 0.000000 0.000000 0.043019
#
#
# Mechanical properties :
#
#
# Convention : Reuss Voigt Hill
#
# Bulk Modulus (GPa) = 48.59502 50.07056 49.33279
# Shear Modulus (GPa) = -59.45274 -3.18654 -31.31964
#
# Velocity S-wave (km/s) = -5.38115 -1.24580 -3.90569
# Velocity P-wave (km/s) = 3.86530 4.72417 1.92057
#
# Compressibility (1/GPa) = 0.02057824
#
# Stress axis : x y z
#
# Youngs Moduli (GPa) = 60.38713 45.38232 65.84612
#
# Poissons Ratio (x) = 0.34055 0.30293
# Poissons Ratio (y) = 0.45315 0.29612
# Poissons Ratio (z) = 0.27781 0.20409
#
# Static dielectric constant tensor:
#      x y z
#    x 1.792240 0.000000 0.000000 
#    y 0.000000 1.724690 0.000000 
#    z 0.000000 0.000000 1.817920 
# 
# From -- ./inp_files/3593.got.cif
#   From: 2010.05.17/outbox.ucp.g08.bks.cvg/sg52_2_cif.got.tgz:3593.got - 2010.06.11 16:30:12.
