data_PCOD9414924
_publ_section_title
;
Structure prediction by ZEFSAII (Michael W. Deem and Ramdas Pophale) SiO2 
 PCOD9414924
Probable space group: P M N A
;
_chemical_formula_sum "Si O2"
_cell_formula_units_Z 40
_cell_length_a 10.493976
_cell_length_b 22.963476
_cell_length_c 7.176042
_cell_angle_alpha 90.000000
_cell_angle_beta 90.000000
_cell_angle_gamma 90.000000
_cell_volume 1729.269440
_symmetry_space_group_name_H-M "P M N A"
_symmetry_group_IT_number 53
_symmetry_cell_setting 'orthorhombic'
loop_
_space_group_symop_operation_xyz
x,y,z
1/2-x,-y,1/2+z
x,-y,-z
1/2-x,y,1/2-z
-x,-y,-z
1/2+x,y,1/2-z
-x,y,z
1/2+x,-y,1/2+z
loop_
_atom_site_type_symbol
_atom_site_label
_atom_site_fract_x
_atom_site_fract_y
_atom_site_fract_z
Si Si1 0.228986 0.934911 0.970475
Si Si2 0.640945 0.562202 0.098075
Si Si3 0.000000 0.728024 0.978401
Si Si4 0.730874 0.681968 0.023534
Si Si5 0.500000 0.240250 0.916549
Si Si6 0.500000 0.861767 0.582366
Si Si7 0.000000 0.895457 0.485408
O O1 0.250000 0.928502 0.750000
O O2 0.367564 0.927104 0.064641
O O3 0.125896 0.885803 0.019474
O O4 0.179128 0.000000 0.000000
O O5 0.750000 0.557906 0.250000
O O6 0.500000 0.574008 0.179287
O O7 0.675773 0.618511 0.974489
O O8 0.637155 0.500000 0.000000
O O9 0.868121 0.695320 0.936524
O O10 0.000000 0.738752 0.202215
O O11 0.000000 0.792825 0.896614
O O12 0.750000 0.680636 0.250000
O O13 0.626408 0.732148 0.991748
O O14 0.500000 0.170952 0.917710
O O15 0.500000 0.889137 0.789077
#
# Coordination Sequence:
#
# PCOD9414924 Si02
#       7
#     8   8   4   8   4   4   4
#     4  10  21  36  54  75 103 136 174 214 262 318
#     4  10  21  38  59  85 117 153 193 239 287 338
#     4  10  20  33  54  79 104 132 183 220 263 320
#     4   9  18  33  54  79 105 139 178 227 270 318
#     4  10  18  33  54  77 100 136 177 218 261 318
#     4  10  21  37  51  77 107 140 166 216 271 322
#     4  10  21  35  53  75 107 138 170 212 273 324
#
# _framework density 23.131153999999999
#
# number of rings (size 3 to 8) (size 9 to 14) (size 15 to 20)
#    0.000    2.200    1.000    1.800    4.200    2.000 
#    0.000    2.000    0.000    0.000    0.000    0.000 
#    0.000    0.000    0.000    0.000    0.000    0.000 
#
# Total GULP energy -223607.655061 kJ/mol
# GULP energy per Si atom -5590.191377 kJ/mol
# Density = 2.307851 g / cm^3
# Si number density = 23.131154 Si / 1000 Ang^3
#
#
#
# Elastic Constant Matrix: (Units=GPa)
#
#
# Indices 1 2 3 4 5 6 
#
# 1 176.0202 58.1717 1.9481 0.0000 0.0000 0.0000
# 2 58.1717 131.2123 -16.8168 0.0000 0.0000 0.0000
# 3 1.9481 -16.8168 47.2984 0.0000 0.0000 0.0000
# 4 0.0000 0.0000 0.0000 24.2729 0.0000 0.0000
# 5 0.0000 0.0000 0.0000 0.0000 2.8979 0.0000
# 6 0.0000 0.0000 0.0000 0.0000 0.0000 46.3958
#
#
#
# Elastic Compliance Matrix: (Units=1/GPa)
#
#
# Indices 1 2 3 4 5 6 
#
# 1 0.006744 -0.003170 -0.001405 0.000000 0.000000 0.000000
# 2 -0.003170 0.009475 0.003499 0.000000 0.000000 0.000000
# 3 -0.001405 0.003499 0.022444 0.000000 0.000000 0.000000
# 4 0.000000 0.000000 0.000000 0.041198 0.000000 0.000000
# 5 0.000000 0.000000 0.000000 0.000000 0.345078 0.000000
# 6 0.000000 0.000000 0.000000 0.000000 0.000000 0.021554
#
#
# Mechanical properties :
#
#
# Convention : Reuss Voigt Hill
#
# Bulk Modulus (GPa) = 27.38761 49.01522 38.20142
# Shear Modulus (GPa) = 10.85033 35.46184 23.15608
#
# Velocity S-wave (km/s) = 2.16817 3.91970 3.16741
# Velocity P-wave (km/s) = 4.25838 6.45922 5.47062
#
# Compressibility (1/GPa) = 0.03651286
#
# Stress axis : x y z
#
# Youngs Moduli (GPa) = 148.27149 105.53887 44.55441
#
# Poissons Ratio (x) = 0.33457 0.06260
# Poissons Ratio (y) = 0.47004 -0.15592
# Poissons Ratio (z) = 0.20831 -0.36933
#
# Static dielectric constant tensor:
#      x y z
#    x 1.893450 0.000000 0.000000 
#    y 0.000000 1.817650 0.000000 
#    z 0.000000 0.000000 1.914530 
# 
# From -- ./inp_files/6399.got.cif
#   From: 2010.05.17/outbox.cif.g08.bks.cpg/sg53_4_cif.got.tgz:6399.got - 2010.06.03 12:45:16.
