data_PCOD9414741
_publ_section_title
;
Structure prediction by ZEFSAII (Michael W. Deem and Ramdas Pophale) SiO2 
 PCOD9414741
Probable space group: P M N A
;
_chemical_formula_sum "Si O2"
_cell_formula_units_Z 64
_cell_length_a 8.547737
_cell_length_b 21.335774
_cell_length_c 20.248976
_cell_angle_alpha 90.000000
_cell_angle_beta 90.000000
_cell_angle_gamma 90.000000
_cell_volume 3692.858094
_symmetry_space_group_name_H-M "P M N A"
_symmetry_group_IT_number 53
_symmetry_cell_setting 'orthorhombic'
loop_
_space_group_symop_operation_xyz
x,y,z
1/2-x,-y,1/2+z
x,-y,-z
1/2-x,y,1/2-z
-x,-y,-z
1/2+x,y,1/2-z
-x,y,z
1/2+x,-y,1/2+z
loop_
_atom_site_type_symbol
_atom_site_label
_atom_site_fract_x
_atom_site_fract_y
_atom_site_fract_z
Si Si1 0.186516 0.370531 0.320662
Si Si2 0.810669 0.680923 0.956209
Si Si3 0.813045 0.983678 0.320850
Si Si4 0.688717 0.179716 0.457314
Si Si5 0.309426 0.561852 0.459703
Si Si6 0.312827 0.130098 0.179190
Si Si7 0.812001 0.487399 0.820214
Si Si8 0.189053 0.939061 0.042264
O O1 0.250000 0.347537 0.250000
O O2 0.248227 0.332017 0.382856
O O3 0.248184 0.441902 0.328768
O O4 0.000000 0.370892 0.319237
O O5 0.763760 0.750463 0.978444
O O6 0.000000 0.678373 0.953876
O O7 0.756230 0.624866 0.004010
O O8 0.750000 0.961671 0.250000
O O9 0.749765 0.946394 0.383594
O O10 0.000000 0.982006 0.320285
O O11 0.763448 0.056878 0.328220
O O12 0.500000 0.177397 0.456342
O O13 0.747692 0.166684 0.383457
O O14 0.743093 0.123772 0.505085
O O15 0.259178 0.500000 0.500000
O O16 0.500000 0.562177 0.461137
O O17 0.263115 0.552989 0.383630
O O18 0.250000 0.152393 0.250000
O O19 0.500000 0.132770 0.179460
O O20 0.750000 0.463728 0.750000
O O21 0.000000 0.490941 0.818438
O O22 0.000000 0.939130 0.043659
O O23 0.239579 0.000000 0.000000
#
# Coordination Sequence:
#
# PCOD9414741 Si02
#       8
#     8   8   8   8   8   8   8   8
#     4  11  21  33  50  74 104 138 173 208 252 299
#     4  10  20  36  54  74 101 135 176 211 249 304
#     4  10  20  33  53  80 106 136 172 215 261 306
#     4  10  21  35  53  76 103 138 173 212 257 302
#     4   9  16  30  54  77  98 131 170 208 250 297
#     4  10  20  33  51  74 105 139 175 212 252 304
#     4  10  18  31  52  77 104 132 166 208 255 300
#     4  10  19  33  54  78 106 136 172 215 257 304
#
# _framework density 17.330750999999999
#
# number of rings (size 3 to 8) (size 9 to 14) (size 15 to 20)
#    0.000    2.000    2.500    3.000    0.000    2.750 
#    0.000    1.875    0.000    0.750    0.000    1.750 
#    0.000    0.000    0.000    0.000    0.000    0.000 
#
# Total GULP energy -357221.996462 kJ/mol
# GULP energy per Si atom -5581.593695 kJ/mol
# Density = 1.729131 g / cm^3
# Si number density = 17.330751 Si / 1000 Ang^3
#
#
#
# Elastic Constant Matrix: (Units=GPa)
#
#
# Indices 1 2 3 4 5 6 
#
# 1 23.2806 25.8925 21.4052 0.0000 0.0000 0.0000
# 2 25.8925 120.1555 79.1395 0.0000 0.0000 0.0000
# 3 21.4052 79.1395 140.6498 0.0000 0.0000 0.0000
# 4 0.0000 0.0000 0.0000 23.0084 0.0000 0.0000
# 5 0.0000 0.0000 0.0000 0.0000 28.5880 0.0000
# 6 0.0000 0.0000 0.0000 0.0000 0.0000 10.7109
#
#
#
# Elastic Compliance Matrix: (Units=1/GPa)
#
#
# Indices 1 2 3 4 5 6 
#
# 1 0.057185 -0.010472 -0.002811 0.000000 0.000000 0.000000
# 2 -0.010472 0.015140 -0.006925 0.000000 0.000000 0.000000
# 3 -0.002811 -0.006925 0.011434 0.000000 0.000000 0.000000
# 4 0.000000 0.000000 0.000000 0.043462 0.000000 0.000000
# 5 0.000000 0.000000 0.000000 0.000000 0.034980 0.000000
# 6 0.000000 0.000000 0.000000 0.000000 0.000000 0.093363
#
#
# Mechanical properties :
#
#
# Convention : Reuss Voigt Hill
#
# Bulk Modulus (GPa) = 23.07119 59.66226 41.36672
# Shear Modulus (GPa) = 16.10676 22.97138 19.53907
#
# Velocity S-wave (km/s) = 3.05187 3.64465 3.36135
# Velocity P-wave (km/s) = 5.07541 7.22577 6.24385
#
# Compressibility (1/GPa) = 0.04334410
#
# Stress axis : x y z
#
# Youngs Moduli (GPa) = 17.48714 66.04802 87.45557
#
# Poissons Ratio (x) = 0.69163 0.24582
# Poissons Ratio (y) = 0.18312 0.60567
# Poissons Ratio (z) = 0.04915 0.45741
#
# Static dielectric constant tensor:
#      x y z
#    x 1.585000 0.000000 0.000000 
#    y 0.000000 1.596670 0.000000 
#    z 0.000000 0.000000 1.577310 
# 
# From -- ./inp_files/31156.got.cif
#   From: 2010.05.17/outbox.cif.g08.bks.cpg/sg53_16_cif.got.tgz:31156.got - 2010.06.03 12:45:16.
