data_PCOD9414208
_publ_section_title
;
Structure prediction by ZEFSAII (Michael W. Deem and Ramdas Pophale) SiO2 
 PCOD9414208
Probable space group: P M N A
;
_chemical_formula_sum "Si O2"
_cell_formula_units_Z 64
_cell_length_a 7.889561
_cell_length_b 18.073996
_cell_length_c 27.102395
_cell_angle_alpha 90.000000
_cell_angle_beta 90.000000
_cell_angle_gamma 90.000000
_cell_volume 3864.690243
_symmetry_space_group_name_H-M "P M N A"
_symmetry_group_IT_number 53
_symmetry_cell_setting 'orthorhombic'
loop_
_space_group_symop_operation_xyz
x,y,z
1/2-x,-y,1/2+z
x,-y,-z
1/2-x,y,1/2-z
-x,-y,-z
1/2+x,y,1/2-z
-x,y,z
1/2+x,-y,1/2+z
loop_
_atom_site_type_symbol
_atom_site_label
_atom_site_fract_x
_atom_site_fract_y
_atom_site_fract_z
Si Si1 0.195981 0.400125 0.966654
Si Si2 0.700652 0.292150 0.880955
Si Si3 0.701169 0.482204 0.391815
Si Si4 0.697521 0.984578 0.940898
Si Si5 0.708507 0.825549 0.960834
Si Si6 0.206730 0.856514 0.426005
Si Si7 0.297636 0.589971 0.306478
Si Si8 0.194806 0.667077 0.568158
O O1 0.205911 0.340800 0.922388
O O2 0.265536 0.474491 0.940710
O O3 0.000000 0.410914 0.982054
O O4 0.291359 0.367335 0.013287
O O5 0.500000 0.295941 0.892108
O O6 0.754580 0.207150 0.887566
O O7 0.732026 0.333011 0.829454
O O8 0.500000 0.494450 0.393033
O O9 0.766369 0.524881 0.343357
O O10 0.731070 0.395380 0.396202
O O11 0.500000 0.980228 0.925901
O O12 0.768332 0.901902 0.935557
O O13 0.771201 0.059809 0.917945
O O14 0.699385 0.000000 0.000000
O O15 0.500000 0.825359 0.960328
O O16 0.769482 0.749547 0.936334
O O17 0.755979 0.829736 0.018814
O O18 0.000000 0.861377 0.426518
O O19 0.250000 0.578859 0.250000
O O20 0.500000 0.591492 0.309566
O O21 0.000000 0.675450 0.581959
#
# Coordination Sequence:
#
# PCOD9414208 Si02
#       8
#     8   8   8   8   8   8   8   8
#     4  10  19  30  41  55  82 118 150 179 214 253
#     4  10  17  27  45  68  90 110 142 182 217 255
#     4   9  20  34  44  58  81 109 140 172 211 262
#     4   7  10  17  31  50  78 114 144 173 208 238
#     4   8  13  21  32  54  85 114 146 181 211 238
#     4   8  12  20  35  57  84 112 144 178 208 242
#     4  10  21  37  53  67  85 109 138 172 216 263
#     4  11  19  26  40  62  86 112 146 185 217 248
#
# _framework density 16.560189999999999
#
# number of rings (size 3 to 8) (size 9 to 14) (size 15 to 20)
#    0.000    2.875    1.250    4.125    0.000    4.500 
#    0.000    0.000    0.000    0.000    0.000    4.375 
#    0.000    1.000    0.000    4.250    0.000    2.750 
#
# Total GULP energy -356339.761782 kJ/mol
# GULP energy per Si atom -5567.808778 kJ/mol
# Density = 1.652250 g / cm^3
# Si number density = 16.560190 Si / 1000 Ang^3
#
#
#
# Elastic Constant Matrix: (Units=GPa)
#
#
# Indices 1 2 3 4 5 6 
#
# 1 22.1359 6.0467 -0.3916 0.0000 0.0000 0.0000
# 2 6.0467 174.8867 44.2044 0.0000 0.0000 0.0000
# 3 -0.3916 44.2044 53.4335 0.0000 0.0000 0.0000
# 4 0.0000 0.0000 0.0000 14.0802 0.0000 0.0000
# 5 0.0000 0.0000 0.0000 0.0000 31.7218 0.0000
# 6 0.0000 0.0000 0.0000 0.0000 0.0000 52.1476
#
#
#
# Elastic Compliance Matrix: (Units=1/GPa)
#
#
# Indices 1 2 3 4 5 6 
#
# 1 0.045788 -0.002109 0.002080 0.000000 0.000000 0.000000
# 2 -0.002109 0.007327 -0.006077 0.000000 0.000000 0.000000
# 3 0.002080 -0.006077 0.023757 0.000000 0.000000 0.000000
# 4 0.000000 0.000000 0.000000 0.071022 0.000000 0.000000
# 5 0.000000 0.000000 0.000000 0.000000 0.031524 0.000000
# 6 0.000000 0.000000 0.000000 0.000000 0.000000 0.019176
#
#
# Mechanical properties :
#
#
# Convention : Reuss Voigt Hill
#
# Bulk Modulus (GPa) = 15.46514 38.90834 27.18674
# Shear Modulus (GPa) = 21.51839 32.96304 27.24071
#
# Velocity S-wave (km/s) = 3.60864 4.46634 4.06020
# Velocity P-wave (km/s) = 5.16934 7.08122 6.19942
#
# Compressibility (1/GPa) = 0.06466156
#
# Stress axis : x y z
#
# Youngs Moduli (GPa) = 21.83962 136.48368 42.09230
#
# Poissons Ratio (x) = 0.28784 -0.08756
# Poissons Ratio (y) = 0.04606 0.25579
# Poissons Ratio (z) = -0.04543 0.82939
#
# Static dielectric constant tensor:
#      x y z
#    x 1.595900 0.000000 0.000000 
#    y 0.000000 1.634930 0.000000 
#    z 0.000000 0.000000 1.525750 
# 
# From -- ./inp_files/36520.got.cif
#   From: 2010.05.17/outbox.cif.g08.bks.cpg/sg53_19_cif.got.tgz:36520.got - 2010.06.03 12:45:16.
