data_PCOD9414931
_publ_section_title
;
Structure prediction by ZEFSAII (Michael W. Deem and Ramdas Pophale) SiO2 
 PCOD9414931
Probable space group: P M N A
;
_chemical_formula_sum "Si O2"
_cell_formula_units_Z 64
_cell_length_a 14.351376
_cell_length_b 12.856560
_cell_length_c 14.974621
_cell_angle_alpha 90.000000
_cell_angle_beta 90.000000
_cell_angle_gamma 90.000000
_cell_volume 2762.957237
_symmetry_space_group_name_H-M "P M N A"
_symmetry_group_IT_number 53
_symmetry_cell_setting 'orthorhombic'
loop_
_space_group_symop_operation_xyz
x,y,z
1/2-x,-y,1/2+z
x,-y,-z
1/2-x,y,1/2-z
-x,-y,-z
1/2+x,y,1/2-z
-x,y,z
1/2+x,-y,1/2+z
loop_
_atom_site_type_symbol
_atom_site_label
_atom_site_fract_x
_atom_site_fract_y
_atom_site_fract_z
Si Si1 0.609650 0.177558 0.725290
Si Si2 0.886463 0.612185 0.319498
Si Si3 0.385654 0.882750 0.470782
Si Si4 0.613859 0.613680 0.787162
Si Si5 0.391269 0.892040 0.969970
Si Si6 0.142184 0.051308 0.272396
Si Si7 0.395462 0.774188 0.641080
Si Si8 0.613993 0.334904 0.011431
O O1 0.500000 0.196717 0.712297
O O2 0.645761 0.280763 0.773751
O O3 0.648644 0.148768 0.627429
O O4 0.617263 0.069885 0.779808
O O5 0.862256 0.506277 0.268508
O O6 0.856610 0.602963 0.423362
O O7 0.000000 0.616194 0.322172
O O8 0.500000 0.879841 0.470396
O O9 0.351431 0.802555 0.546472
O O10 0.361565 0.000000 0.500000
O O11 0.500000 0.623474 0.788558
O O12 0.647716 0.693435 0.711236
O O13 0.645022 0.637997 0.888519
O O14 0.500000 0.895400 0.995802
O O15 0.384004 0.891018 0.863150
O O16 0.357483 0.783928 0.007779
O O17 0.346757 0.000000 0.000000
O O18 0.250000 0.057740 0.250000
O O19 0.097127 0.114889 0.191667
O O20 0.500000 0.735351 0.622367
O O21 0.500000 0.340624 0.014627
#
# Coordination Sequence:
#
# PCOD9414931 Si02
#       8
#     8   8   8   8   8   8   8   8
#     4  10  19  34  54  74 101 135 176 219 261 312
#     4   9  17  28  47  78 108 135 168 216 265 310
#     4   9  16  28  51  76  92 124 177 213 246 301
#     4   9  16  27  47  75 107 136 169 214 263 312
#     4  10  19  33  53  78 110 146 179 218 273 334
#     4  12  23  34  49  77 110 138 176 216 272 321
#     4  10  18  33  55  76 102 136 176 216 259 310
#     4   9  15  25  45  73 105 138 171 207 258 319
#
# _framework density 23.163587
#
# number of rings (size 3 to 8) (size 9 to 14) (size 15 to 20)
#    0.000    2.250    2.500    2.250    0.000    3.500 
#    2.250    0.625    0.000    4.500    0.000    0.000 
#    0.000    0.000    0.000    0.000    0.000    0.000 
#
# Total GULP energy -357446.885910 kJ/mol
# GULP energy per Si atom -5585.107592 kJ/mol
# Density = 2.311087 g / cm^3
# Si number density = 23.163587 Si / 1000 Ang^3
#
#
#
# Elastic Constant Matrix: (Units=GPa)
#
#
# Indices 1 2 3 4 5 6 
#
# 1 65.6622 -2.0971 6.0489 0.0000 0.0000 0.0000
# 2 -2.0971 140.1322 45.9511 0.0000 0.0000 0.0000
# 3 6.0489 45.9511 91.2707 0.0000 0.0000 0.0000
# 4 0.0000 0.0000 0.0000 37.3026 0.0000 0.0000
# 5 0.0000 0.0000 0.0000 0.0000 -40.7261 0.0000
# 6 0.0000 0.0000 0.0000 0.0000 0.0000 -27.0462
#
#
#
# Elastic Compliance Matrix: (Units=1/GPa)
#
#
# Indices 1 2 3 4 5 6 
#
# 1 0.015376 0.000676 -0.001359 0.000000 0.000000 0.000000
# 2 0.000676 0.008577 -0.004363 0.000000 0.000000 0.000000
# 3 -0.001359 -0.004363 0.013243 0.000000 0.000000 0.000000
# 4 0.000000 0.000000 0.000000 0.026808 0.000000 0.000000
# 5 0.000000 0.000000 0.000000 0.000000 -0.024554 0.000000
# 6 0.000000 0.000000 0.000000 0.000000 0.000000 -0.036974
#
#
# Mechanical properties :
#
#
# Convention : Reuss Voigt Hill
#
# Bulk Modulus (GPa) = 36.89565 44.09676 40.49621
# Shear Modulus (GPa) = 231.44727 10.38353 120.91540
#
# Velocity S-wave (km/s) = 10.00677 2.11954 7.23284
# Velocity P-wave (km/s) = 12.22607 5.00683 9.34198
#
# Compressibility (1/GPa) = 0.02710346
#
# Stress axis : x y z
#
# Youngs Moduli (GPa) = 65.03531 116.59245 75.51132
#
# Poissons Ratio (x) = -0.07880 0.10264
# Poissons Ratio (y) = -0.04395 0.32945
# Poissons Ratio (z) = 0.08840 0.50868
#
# Static dielectric constant tensor:
#      x y z
#    x 1.978800 0.000000 0.000000 
#    y 0.000000 1.866610 0.000000 
#    z 0.000000 0.000000 1.861130 
# 
# From -- ./inp_files/23875.got.cif
#   From: 2010.05.17/outbox.cif.g08.bks.cpg/sg53_12_cif.got.tgz:23875.got - 2010.06.03 12:45:16.
