data_PCOD9414616
_publ_section_title
;
Structure prediction by ZEFSAII (Michael W. Deem and Ramdas Pophale) SiO2 
 PCOD9414616
Probable space group: P M N A
;
_chemical_formula_sum "Si O2"
_cell_formula_units_Z 56
_cell_length_a 8.645549
_cell_length_b 14.286501
_cell_length_c 21.251471
_cell_angle_alpha 90.000000
_cell_angle_beta 90.000000
_cell_angle_gamma 90.000000
_cell_volume 2624.867884
_symmetry_space_group_name_H-M "P M N A"
_symmetry_group_IT_number 53
_symmetry_cell_setting 'orthorhombic'
loop_
_space_group_symop_operation_xyz
x,y,z
1/2-x,-y,1/2+z
x,-y,-z
1/2-x,y,1/2-z
-x,-y,-z
1/2+x,y,1/2-z
-x,y,z
1/2+x,-y,1/2+z
loop_
_atom_site_type_symbol
_atom_site_label
_atom_site_fract_x
_atom_site_fract_y
_atom_site_fract_z
Si Si1 0.683703 0.045113 0.683862
Si Si2 0.325080 0.417223 0.418135
Si Si3 0.185001 0.739453 0.499162
Si Si4 0.181258 0.108481 0.400228
Si Si5 0.314558 0.755218 0.147670
Si Si6 0.324612 0.743848 0.686253
Si Si7 0.814611 0.442301 0.816664
O O1 0.750000 0.005614 0.750000
O O2 0.500000 0.048300 0.687999
O O3 0.753786 0.148273 0.675814
O O4 0.734004 0.984693 0.622899
O O5 0.500000 0.440284 0.437876
O O6 0.243572 0.360106 0.473858
O O7 0.332082 0.339561 0.363245
O O8 0.255173 0.504856 0.379988
O O9 0.240620 0.829000 0.540791
O O10 0.223820 0.752912 0.426635
O O11 0.000000 0.739235 0.506277
O O12 0.212240 0.178435 0.342320
O O13 0.000000 0.088353 0.409201
O O14 0.500000 0.749041 0.155169
O O15 0.234771 0.665175 0.177779
O O16 0.250000 0.709595 0.750000
O O17 0.500000 0.780432 0.694451
O O18 0.750000 0.478895 0.750000
O O19 0.000000 0.452581 0.816205
#
# Coordination Sequence:
#
# PCOD9414616 Si02
#       7
#     8   8   8   8   8   8   8
#     4  12  25  42  63  89 118 154 196 243 295 350
#     4   9  20  36  57  84 118 154 193 240 292 346
#     4   9  21  40  63  89 120 157 198 238 289 350
#     4  10  20  37  59  85 116 152 191 237 287 346
#     4  11  24  43  63  86 117 157 200 247 294 347
#     4  10  18  30  49  78 113 151 190 234 286 344
#     4  11  23  40  61  89 120 157 200 247 299 351
#
# _framework density 21.334409000000001
#
# number of rings (size 3 to 8) (size 9 to 14) (size 15 to 20)
#    0.000    1.714    0.000    4.286    0.000    4.571 
#    0.000    5.714    0.000    0.000    0.000    0.000 
#    0.000    0.000    0.000    0.000    0.000    0.000 
#
# Total GULP energy -312778.172724 kJ/mol
# GULP energy per Si atom -5585.324513 kJ/mol
# Density = 2.128585 g / cm^3
# Si number density = 21.334409 Si / 1000 Ang^3
#
#
#
# Elastic Constant Matrix: (Units=GPa)
#
#
# Indices 1 2 3 4 5 6 
#
# 1 45.0691 -5.3646 27.5023 0.0000 0.0000 0.0000
# 2 -5.3646 78.9891 16.2981 0.0000 0.0000 0.0000
# 3 27.5023 16.2981 101.4893 0.0000 0.0000 0.0000
# 4 0.0000 0.0000 0.0000 33.5862 0.0000 0.0000
# 5 0.0000 0.0000 0.0000 0.0000 23.5352 0.0000
# 6 0.0000 0.0000 0.0000 0.0000 0.0000 34.3564
#
#
#
# Elastic Compliance Matrix: (Units=1/GPa)
#
#
# Indices 1 2 3 4 5 6 
#
# 1 0.027500 0.003522 -0.008018 0.000000 0.000000 0.000000
# 2 0.003522 0.013545 -0.003130 0.000000 0.000000 0.000000
# 3 -0.008018 -0.003130 0.012529 0.000000 0.000000 0.000000
# 4 0.000000 0.000000 0.000000 0.029774 0.000000 0.000000
# 5 0.000000 0.000000 0.000000 0.000000 0.042489 0.000000
# 6 0.000000 0.000000 0.000000 0.000000 0.000000 0.029107
#
#
# Mechanical properties :
#
#
# Convention : Reuss Voigt Hill
#
# Bulk Modulus (GPa) = 26.09414 33.60213 29.84814
# Shear Modulus (GPa) = 27.32710 30.76968 29.04839
#
# Velocity S-wave (km/s) = 3.58284 3.80182 3.69396
# Velocity P-wave (km/s) = 5.41971 5.92083 5.67580
#
# Compressibility (1/GPa) = 0.03832278
#
# Stress axis : x y z
#
# Youngs Moduli (GPa) = 36.36367 73.82847 79.81780
#
# Poissons Ratio (x) = -0.26002 0.63996
# Poissons Ratio (y) = -0.12807 0.24980
# Poissons Ratio (z) = 0.29155 0.23105
#
# Static dielectric constant tensor:
#      x y z
#    x 1.752660 0.000000 0.000000 
#    y 0.000000 1.787340 0.000000 
#    z 0.000000 0.000000 1.810860 
# 
# From -- ./inp_files/30773.got.cif
#   From: 2010.05.17/outbox.cif.g08.bks.cpg/sg53_16_cif.got.tgz:30773.got - 2010.06.03 12:45:16.
