data_PCOD9414906
_publ_section_title
;
Structure prediction by ZEFSAII (Michael W. Deem and Ramdas Pophale) SiO2 
 PCOD9414906
Probable space group: P M N A
;
_chemical_formula_sum "Si O2"
_cell_formula_units_Z 48
_cell_length_a 15.147102
_cell_length_b 16.998792
_cell_length_c 9.266604
_cell_angle_alpha 90.000000
_cell_angle_beta 90.000000
_cell_angle_gamma 90.000000
_cell_volume 2385.987774
_symmetry_space_group_name_H-M "P M N A"
_symmetry_group_IT_number 53
_symmetry_cell_setting 'orthorhombic'
loop_
_space_group_symop_operation_xyz
x,y,z
1/2-x,-y,1/2+z
x,-y,-z
1/2-x,y,1/2-z
-x,-y,-z
1/2+x,y,1/2-z
-x,y,z
1/2+x,-y,1/2+z
loop_
_atom_site_type_symbol
_atom_site_label
_atom_site_fract_x
_atom_site_fract_y
_atom_site_fract_z
Si Si1 0.000000 0.827243 0.253093
Si Si2 0.653396 0.674537 0.934422
Si Si3 0.000000 0.413045 0.940369
Si Si4 0.500000 0.643798 0.139173
Si Si5 0.687192 0.831433 0.117116
Si Si6 0.500000 0.088390 0.447232
Si Si7 0.312170 0.861077 0.610387
Si Si8 0.850031 0.321669 0.101060
O O1 0.907429 0.858570 0.320538
O O2 0.000000 0.852381 0.085552
O O3 0.000000 0.732805 0.289301
O O4 0.622169 0.674237 0.768905
O O5 0.752821 0.643053 0.925223
O O6 0.585239 0.633644 0.039611
O O7 0.661782 0.761983 0.004217
O O8 0.083003 0.364319 0.997939
O O9 0.000000 0.500000 0.000000
O O10 0.000000 0.415408 0.769576
O O11 0.750000 0.803334 0.250000
O O12 0.751364 0.888463 0.024498
O O13 0.406915 0.099553 0.366444
O O14 0.500000 0.000000 0.500000
O O15 0.250000 0.862418 0.750000
O O16 0.339008 0.771017 0.573622
#
# Coordination Sequence:
#
# PCOD9414906 Si02
#       8
#     4   8   4   4   8   4   8   8
#     4  10  20  36  62  95 119 162 208 266 310 361
#     4   9  19  34  62  97 118 146 203 262 316 365
#     4  12  27  40  56  88 130 170 208 254 319 388
#     4  10  21  36  63  98 115 157 206 262 307 364
#     4  10  18  32  62  97 129 145 202 267 327 368
#     4  12  26  42  58  90 136 178 211 250 334 396
#     4  11  21  41  68  99 120 165 216 273 313 374
#     4  10  19  40  64  90 124 157 203 262 317 363
#
# _framework density 20.117456000000001
#
# number of rings (size 3 to 8) (size 9 to 14) (size 15 to 20)
#    0.000    1.667    5.000    2.000    7.000    0.667 
#    3.000    5.000    0.000    1.000    0.000    0.000 
#    0.000    0.000    0.000    0.000    0.000    0.000 
#
# Total GULP energy -267556.909297 kJ/mol
# GULP energy per Si atom -5574.102277 kJ/mol
# Density = 2.007167 g / cm^3
# Si number density = 20.117456 Si / 1000 Ang^3
#
#
#
# Elastic Constant Matrix: (Units=GPa)
#
#
# Indices 1 2 3 4 5 6 
#
# 1 154.0909 31.6347 48.2827 0.0000 0.0000 0.0000
# 2 31.6347 29.3395 13.6890 0.0000 0.0000 0.0000
# 3 48.2827 13.6890 100.8892 0.0000 0.0000 0.0000
# 4 0.0000 0.0000 0.0000 7.3121 0.0000 0.0000
# 5 0.0000 0.0000 0.0000 0.0000 51.8280 0.0000
# 6 0.0000 0.0000 0.0000 0.0000 0.0000 -4.7783
#
#
#
# Elastic Compliance Matrix: (Units=1/GPa)
#
#
# Indices 1 2 3 4 5 6 
#
# 1 0.009252 -0.008444 -0.003282 0.000000 0.000000 0.000000
# 2 -0.008444 0.044094 -0.001942 0.000000 0.000000 0.000000
# 3 -0.003282 -0.001942 0.011746 0.000000 0.000000 0.000000
# 4 0.000000 0.000000 0.000000 0.136760 0.000000 0.000000
# 5 0.000000 0.000000 0.000000 0.000000 0.019295 0.000000
# 6 0.000000 0.000000 0.000000 0.000000 0.000000 -0.209279
#
#
# Mechanical properties :
#
#
# Convention : Reuss Voigt Hill
#
# Bulk Modulus (GPa) = 26.48553 52.39250 39.43902
# Shear Modulus (GPa) = 96.54709 23.58657 60.06683
#
# Velocity S-wave (km/s) = 6.93512 3.42781 5.47018
# Velocity P-wave (km/s) = 8.79329 6.46269 7.71648
#
# Compressibility (1/GPa) = 0.03775646
#
# Stress axis : x y z
#
# Youngs Moduli (GPa) = 108.08985 22.67865 85.13603
#
# Poissons Ratio (x) = 0.19150 0.27940
# Poissons Ratio (y) = 0.91272 0.16531
# Poissons Ratio (z) = 0.35473 0.04404
#
# Static dielectric constant tensor:
#      x y z
#    x 1.733550 0.000000 0.000000 
#    y 0.000000 1.689140 0.000000 
#    z 0.000000 0.000000 1.729920 
# 
# From -- ./inp_files/8769.got.cif
#   From: 2010.05.17/outbox.cif.g08.bks.cpg/sg53_5_cif.got.tgz:8769.got - 2010.06.03 12:45:16.
