data_PCOD9414932
_publ_section_title
;
Structure prediction by ZEFSAII (Michael W. Deem and Ramdas Pophale) SiO2 
 PCOD9414932
Probable space group: P M N A
;
_chemical_formula_sum "Si O2"
_cell_formula_units_Z 64
_cell_length_a 7.505133
_cell_length_b 10.387952
_cell_length_c 39.496250
_cell_angle_alpha 90.000000
_cell_angle_beta 90.000000
_cell_angle_gamma 90.000000
_cell_volume 3079.244613
_symmetry_space_group_name_H-M "P M N A"
_symmetry_group_IT_number 53
_symmetry_cell_setting 'orthorhombic'
loop_
_space_group_symop_operation_xyz
x,y,z
1/2-x,-y,1/2+z
x,-y,-z
1/2-x,y,1/2-z
-x,-y,-z
1/2+x,y,1/2-z
-x,y,z
1/2+x,-y,1/2+z
loop_
_atom_site_type_symbol
_atom_site_label
_atom_site_fract_x
_atom_site_fract_y
_atom_site_fract_z
Si Si1 0.282508 0.730309 0.146245
Si Si2 0.714799 0.508106 0.896780
Si Si3 0.286554 0.158881 0.211792
Si Si4 0.784616 0.971884 0.399307
Si Si5 0.291660 0.106823 0.525278
Si Si6 0.281937 0.767785 0.861772
Si Si7 0.712562 0.599060 0.471638
Si Si8 0.787192 0.136216 0.712433
O O1 0.500000 0.725386 0.146624
O O2 0.220701 0.598288 0.129940
O O3 0.230282 0.847372 0.121962
O O4 0.220425 0.769417 0.183451
O O5 0.500000 0.511006 0.895511
O O6 0.778039 0.646955 0.884120
O O7 0.759658 0.460936 0.934453
O O8 0.250000 0.207548 0.250000
O O9 0.500000 0.153891 0.209365
O O10 0.225058 0.231634 0.177774
O O11 0.218381 0.010815 0.209679
O O12 0.720978 0.952269 0.437319
O O13 0.000000 0.974355 0.400059
O O14 0.726101 0.100392 0.380059
O O15 0.500000 0.120390 0.516077
O O16 0.217568 0.253467 0.525619
O O17 0.212317 0.000000 0.500000
O O18 0.500000 0.766760 0.861630
O O19 0.782957 0.500000 0.500000
O O20 0.500000 0.607492 0.476464
O O21 0.750000 0.183278 0.750000
O O22 0.000000 0.126546 0.708055
#
# Coordination Sequence:
#
# PCOD9414932 Si02
#       8
#     8   8   8   8   8   8   8   8
#     4   9  16  30  52  73  98 131 164 204 253 298
#     4  10  20  35  55  78 101 131 173 212 249 298
#     4   9  16  29  48  70  99 132 166 205 251 298
#     4  10  18  33  55  77 101 131 170 213 254 294
#     4  10  22  38  54  76 105 135 167 206 253 304
#     4   9  18  32  52  78 105 134 169 212 257 300
#     4  10  22  39  55  73 103 140 168 199 254 311
#     4   9  16  28  47  71  98 130 166 204 249 298
#
# _framework density 20.784317000000001
#
# number of rings (size 3 to 8) (size 9 to 14) (size 15 to 20)
#    0.000    2.500    2.500    0.000    1.750    0.500 
#    0.000    3.125    0.000    0.000    0.000    0.000 
#    0.000    0.000    0.000    0.000    0.000    0.000 
#
# Total GULP energy -357078.741678 kJ/mol
# GULP energy per Si atom -5579.355339 kJ/mol
# Density = 2.073701 g / cm^3
# Si number density = 20.784317 Si / 1000 Ang^3
#
#
#
# Elastic Constant Matrix: (Units=GPa)
#
#
# Indices 1 2 3 4 5 6 
#
# 1 54.4115 6.0744 -5.8807 0.0000 0.0000 0.0000
# 2 6.0744 114.0155 51.2273 0.0000 0.0000 0.0000
# 3 -5.8807 51.2273 141.4692 0.0000 0.0000 0.0000
# 4 0.0000 0.0000 0.0000 29.2105 0.0000 0.0000
# 5 0.0000 0.0000 0.0000 0.0000 22.8338 0.0000
# 6 0.0000 0.0000 0.0000 0.0000 0.0000 68.5789
#
#
#
# Elastic Compliance Matrix: (Units=1/GPa)
#
#
# Indices 1 2 3 4 5 6 
#
# 1 0.018705 -0.001607 0.001360 0.000000 0.000000 0.000000
# 2 -0.001607 0.010613 -0.003910 0.000000 0.000000 0.000000
# 3 0.001360 -0.003910 0.008541 0.000000 0.000000 0.000000
# 4 0.000000 0.000000 0.000000 0.034234 0.000000 0.000000
# 5 0.000000 0.000000 0.000000 0.000000 0.043795 0.000000
# 6 0.000000 0.000000 0.000000 0.000000 0.000000 0.014582
#
#
# Mechanical properties :
#
#
# Convention : Reuss Voigt Hill
#
# Bulk Modulus (GPa) = 33.84837 45.85980 39.85409
# Shear Modulus (GPa) = 33.63991 41.35633 37.49812
#
# Velocity S-wave (km/s) = 4.02745 4.46554 4.25214
# Velocity P-wave (km/s) = 6.16020 6.97858 6.58212
#
# Compressibility (1/GPa) = 0.02954352
#
# Stress axis : x y z
#
# Youngs Moduli (GPa) = 53.46203 94.22311 117.08213
#
# Poissons Ratio (x) = 0.15146 -0.15918
# Poissons Ratio (y) = 0.08594 0.45778
# Poissons Ratio (z) = -0.07269 0.36841
#
# Static dielectric constant tensor:
#      x y z
#    x 1.806400 0.000000 0.000000 
#    y 0.000000 1.727440 0.000000 
#    z 0.000000 0.000000 1.761970 
# 
# From -- ./inp_files/38746.got.cif
#   From: 2010.05.17/outbox.cif.g08.bks.cpg/sg53_20_cif.got.tgz:38746.got - 2010.06.03 12:45:16.
