data_PCOD9414168
_publ_section_title
;
Structure prediction by ZEFSAII (Michael W. Deem and Ramdas Pophale) SiO2 
 PCOD9414168
Probable space group: P M N A
;
_chemical_formula_sum "Si O2"
_cell_formula_units_Z 48
_cell_length_a 8.542882
_cell_length_b 10.484700
_cell_length_c 31.288120
_cell_angle_alpha 90.000000
_cell_angle_beta 90.000000
_cell_angle_gamma 90.000000
_cell_volume 2802.462982
_symmetry_space_group_name_H-M "P M N A"
_symmetry_group_IT_number 53
_symmetry_cell_setting 'orthorhombic'
loop_
_space_group_symop_operation_xyz
x,y,z
1/2-x,-y,1/2+z
x,-y,-z
1/2-x,y,1/2-z
-x,-y,-z
1/2+x,y,1/2-z
-x,y,z
1/2+x,-y,1/2+z
loop_
_atom_site_type_symbol
_atom_site_label
_atom_site_fract_x
_atom_site_fract_y
_atom_site_fract_z
Si Si1 0.190200 0.224461 0.887467
Si Si2 0.312973 0.219633 0.705756
Si Si3 0.312464 0.477088 0.383512
Si Si4 0.689734 0.132578 0.521060
Si Si5 0.687671 0.621853 0.971294
Si Si6 0.813680 0.489694 0.293771
O O1 0.240066 0.171177 0.841010
O O2 0.236573 0.374036 0.890437
O O3 0.000000 0.223105 0.887394
O O4 0.242860 0.151339 0.929802
O O5 0.250000 0.161867 0.750000
O O6 0.500000 0.215910 0.707428
O O7 0.259567 0.367680 0.705406
O O8 0.500000 0.475008 0.380445
O O9 0.255759 0.398289 0.424120
O O10 0.240819 0.431087 0.338616
O O11 0.500000 0.135587 0.520910
O O12 0.750230 0.251455 0.493786
O O13 0.740495 0.000000 0.500000
O O14 0.500000 0.624194 0.969352
O O15 0.736099 0.500000 0.000000
O O16 0.750000 0.428399 0.250000
O O17 0.000000 0.498905 0.291897
#
# Coordination Sequence:
#
# PCOD9414168 Si02
#       6
#     8   8   8   8   8   8
#     4   8  15  27  44  67  94 124 157 201 249 295
#     4   9  15  24  38  60  90 124 159 196 243 293
#     4  10  18  30  49  70  96 130 168 208 255 298
#     4  10  20  35  54  74  97 132 174 212 256 309
#     4  11  22  34  50  75 103 132 168 209 256 306
#     4  10  17  26  40  63  97 130 163 200 247 301
#
# _framework density 17.127790000000001
#
# number of rings (size 3 to 8) (size 9 to 14) (size 15 to 20)
#    0.000    2.333    1.667    5.000    0.000    1.000 
#    0.000    0.833    0.000    0.000    0.000    1.167 
#    0.000    5.333    0.000    0.000    0.000    0.000 
#
# Total GULP energy -267458.749410 kJ/mol
# GULP energy per Si atom -5572.057279 kJ/mol
# Density = 1.708881 g / cm^3
# Si number density = 17.127790 Si / 1000 Ang^3
#
#
#
# Elastic Constant Matrix: (Units=GPa)
#
#
# Indices 1 2 3 4 5 6 
#
# 1 45.7463 16.6400 39.1565 0.0000 0.0000 0.0000
# 2 16.6400 63.7767 55.3373 0.0000 0.0000 0.0000
# 3 39.1565 55.3373 217.4121 0.0000 0.0000 0.0000
# 4 0.0000 0.0000 0.0000 13.4747 0.0000 0.0000
# 5 0.0000 0.0000 0.0000 0.0000 36.9695 0.0000
# 6 0.0000 0.0000 0.0000 0.0000 0.0000 9.8414
#
#
#
# Elastic Compliance Matrix: (Units=1/GPa)
#
#
# Indices 1 2 3 4 5 6 
#
# 1 0.026457 -0.003553 -0.003861 0.000000 0.000000 0.000000
# 2 -0.003553 0.020601 -0.004604 0.000000 0.000000 0.000000
# 3 -0.003861 -0.004604 0.006467 0.000000 0.000000 0.000000
# 4 0.000000 0.000000 0.000000 0.074213 0.000000 0.000000
# 5 0.000000 0.000000 0.000000 0.000000 0.027049 0.000000
# 6 0.000000 0.000000 0.000000 0.000000 0.000000 0.101611
#
#
# Mechanical properties :
#
#
# Convention : Reuss Voigt Hill
#
# Bulk Modulus (GPa) = 33.91005 61.02253 47.46629
# Shear Modulus (GPa) = 17.22580 26.44388 21.83484
#
# Velocity S-wave (km/s) = 3.17475 3.93353 3.57433
# Velocity P-wave (km/s) = 5.76888 7.50569 6.69385
#
# Compressibility (1/GPa) = 0.02948979
#
# Stress axis : x y z
#
# Youngs Moduli (GPa) = 37.79782 48.54088 154.64064
#
# Poissons Ratio (x) = 0.17247 0.59700
# Poissons Ratio (y) = 0.13430 0.71191
# Poissons Ratio (z) = 0.14592 0.22346
#
# Static dielectric constant tensor:
#      x y z
#    x 1.574970 0.000000 0.000000 
#    y 0.000000 1.540450 0.000000 
#    z 0.000000 0.000000 1.648790 
# 
# From -- ./inp_files/36181.got.cif
#   From: 2010.05.17/outbox.cif.g08.bks.cpg/sg53_19_cif.got.tgz:36181.got - 2010.06.03 12:45:16.
