data_PCOD9414917
_publ_section_title
;
Structure prediction by ZEFSAII (Michael W. Deem and Ramdas Pophale) SiO2 
 PCOD9414917
Probable space group: P M N A
;
_chemical_formula_sum "Si O2"
_cell_formula_units_Z 40
_cell_length_a 16.978169
_cell_length_b 9.177608
_cell_length_c 14.449257
_cell_angle_alpha 90.000000
_cell_angle_beta 90.000000
_cell_angle_gamma 90.000000
_cell_volume 2251.468482
_symmetry_space_group_name_H-M "P M N A"
_symmetry_group_IT_number 53
_symmetry_cell_setting 'orthorhombic'
loop_
_space_group_symop_operation_xyz
x,y,z
1/2-x,-y,1/2+z
x,-y,-z
1/2-x,y,1/2-z
-x,-y,-z
1/2+x,y,1/2-z
-x,y,z
1/2+x,-y,1/2+z
loop_
_atom_site_type_symbol
_atom_site_label
_atom_site_fract_x
_atom_site_fract_y
_atom_site_fract_z
Si Si1 0.321750 0.964790 0.686053
Si Si2 0.408295 0.414411 0.624931
Si Si3 0.407908 0.794107 0.203302
Si Si4 0.658729 0.706249 0.557520
Si Si5 0.710707 0.145634 0.949758
O O1 0.250000 0.905796 0.750000
O O2 0.361190 0.839749 0.624920
O O3 0.381501 0.053698 0.749757
O O4 0.278646 0.079307 0.617350
O O5 0.500000 0.459891 0.624658
O O6 0.392128 0.328047 0.718915
O O7 0.393533 0.312902 0.535044
O O8 0.352948 0.554115 0.610079
O O9 0.500000 0.793489 0.181939
O O10 0.353873 0.778349 0.113413
O O11 0.745915 0.746822 0.520719
O O12 0.678565 0.000000 0.000000
#
# Coordination Sequence:
#
# PCOD9414917 Si02
#       5
#     8   8   8   8   8
#     4   9  18  34  51  76 106 133 182 226 262 315
#     4  10  21  34  49  79 114 137 175 222 275 338
#     4  10  20  34  54  81 111 143 175 222 276 324
#     4  10  18  33  52  75 105 143 174 222 268 313
#     4   9  18  34  57  77 108 139 186 228 257 320
#
# _framework density 17.766183000000002
#
# number of rings (size 3 to 8) (size 9 to 14) (size 15 to 20)
#    0.000    2.400    2.000    1.200    0.000    2.000 
#    7.200    2.000    0.000    0.000    0.000    2.800 
#    0.000    0.000    0.000    0.000    0.000    0.000 
#
# Total GULP energy -222908.717319 kJ/mol
# GULP energy per Si atom -5572.717933 kJ/mol
# Density = 1.772575 g / cm^3
# Si number density = 17.766183 Si / 1000 Ang^3
#
#
#
# Elastic Constant Matrix: (Units=GPa)
#
#
# Indices 1 2 3 4 5 6 
#
# 1 57.3506 59.6853 40.3273 0.0000 0.0000 0.0000
# 2 59.6853 76.3412 43.1356 0.0000 0.0000 0.0000
# 3 40.3273 43.1356 66.7059 0.0000 0.0000 0.0000
# 4 0.0000 0.0000 0.0000 16.9641 0.0000 0.0000
# 5 0.0000 0.0000 0.0000 0.0000 22.4696 0.0000
# 6 0.0000 0.0000 0.0000 0.0000 0.0000 14.6045
#
#
#
# Elastic Compliance Matrix: (Units=1/GPa)
#
#
# Indices 1 2 3 4 5 6 
#
# 1 0.103547 -0.071830 -0.016151 0.000000 0.000000 0.000000
# 2 -0.071830 0.070468 -0.002144 0.000000 0.000000 0.000000
# 3 -0.016151 -0.002144 0.026142 0.000000 0.000000 0.000000
# 4 0.000000 0.000000 0.000000 0.058948 0.000000 0.000000
# 5 0.000000 0.000000 0.000000 0.000000 0.044505 0.000000
# 6 0.000000 0.000000 0.000000 0.000000 0.000000 0.068472
#
#
# Mechanical properties :
#
#
# Convention : Reuss Voigt Hill
#
# Bulk Modulus (GPa) = 50.22990 54.07711 52.15351
# Shear Modulus (GPa) = 8.94507 14.62427 11.78467
#
# Velocity S-wave (km/s) = 2.24629 2.87218 2.57829
# Velocity P-wave (km/s) = 5.92131 6.44232 6.18730
#
# Compressibility (1/GPa) = 0.01990846
#
# Stress axis : x y z
#
# Youngs Moduli (GPa) = 9.65742 14.19076 38.25327
#
# Poissons Ratio (x) = 1.01932 0.61783
# Poissons Ratio (y) = 0.69369 0.08200
# Poissons Ratio (z) = 0.15598 0.03042
#
# Static dielectric constant tensor:
#      x y z
#    x 1.589560 0.000000 0.000000 
#    y 0.000000 1.614050 0.000000 
#    z 0.000000 0.000000 1.629300 
# 
# From -- ./inp_files/23432.got.cif
#   From: 2010.05.17/outbox.cif.g08.bks.cpg/sg53_12_cif.got.tgz:23432.got - 2010.06.03 12:45:16.
