data_PCOD9414928
_publ_section_title
;
Structure prediction by ZEFSAII (Michael W. Deem and Ramdas Pophale) SiO2 
 PCOD9414928
Probable space group: P M N A
;
_chemical_formula_sum "Si O2"
_cell_formula_units_Z 64
_cell_length_a 8.603414
_cell_length_b 21.133941
_cell_length_c 19.860256
_cell_angle_alpha 90.000000
_cell_angle_beta 90.000000
_cell_angle_gamma 90.000000
_cell_volume 3611.072058
_symmetry_space_group_name_H-M "P M N A"
_symmetry_group_IT_number 53
_symmetry_cell_setting 'orthorhombic'
loop_
_space_group_symop_operation_xyz
x,y,z
1/2-x,-y,1/2+z
x,-y,-z
1/2-x,y,1/2-z
-x,-y,-z
1/2+x,y,1/2-z
-x,y,z
1/2+x,-y,1/2+z
loop_
_atom_site_type_symbol
_atom_site_label
_atom_site_fract_x
_atom_site_fract_y
_atom_site_fract_z
Si Si1 0.311790 0.313944 0.539327
Si Si2 0.314296 0.489671 0.177273
Si Si3 0.184772 0.993987 0.321882
Si Si4 0.687449 0.939026 0.454756
Si Si5 0.689302 0.186479 0.464782
Si Si6 0.686741 0.136122 0.322675
Si Si7 0.313829 0.363187 0.823243
Si Si8 0.812514 0.438539 0.042383
O O1 0.500000 0.313662 0.542320
O O2 0.259606 0.250293 0.501653
O O3 0.249044 0.322554 0.614690
O O4 0.262941 0.375097 0.495794
O O5 0.250000 0.470645 0.250000
O O6 0.500000 0.488398 0.178185
O O7 0.264328 0.563149 0.165728
O O8 0.251358 0.446979 0.117162
O O9 0.250000 0.972101 0.250000
O O10 0.255931 0.064055 0.333794
O O11 0.000000 0.999558 0.318655
O O12 0.236935 0.949154 0.382353
O O13 0.500000 0.938176 0.447507
O O14 0.736250 0.875406 0.492938
O O15 0.727674 0.000000 0.500000
O O16 0.500000 0.187092 0.464128
O O17 0.737688 0.177193 0.387101
O O18 0.750000 0.157056 0.250000
O O19 0.500000 0.135163 0.320203
O O20 0.250000 0.344067 0.750000
O O21 0.500000 0.361270 0.822087
O O22 0.000000 0.438837 0.044993
O O23 0.761455 0.500000 0.000000
#
# Coordination Sequence:
#
# PCOD9414928 Si02
#       8
#     8   8   8   8   8   8   8   8
#     4  10  20  36  56  79 109 144 181 219 262 319
#     4  10  20  33  53  79 109 140 178 225 272 318
#     4  11  21  33  52  81 111 140 177 222 271 315
#     4  10  18  34  57  79 105 138 175 216 264 316
#     4   9  19  35  56  79 107 144 179 214 264 320
#     4  10  18  33  54  79 106 139 180 218 265 317
#     4  10  20  34  54  80 107 139 178 223 268 319
#     4  10  19  32  53  80 108 140 176 217 264 314
#
# _framework density 17.723268000000001
#
# number of rings (size 3 to 8) (size 9 to 14) (size 15 to 20)
#    0.000    2.000    2.500    3.000    0.000    2.000 
#    0.000    3.125    0.000    1.500    0.000    0.000 
#    0.000    0.000    0.000    0.000    0.000    0.000 
#
# Total GULP energy -357234.024525 kJ/mol
# GULP energy per Si atom -5581.781633 kJ/mol
# Density = 1.768293 g / cm^3
# Si number density = 17.723268 Si / 1000 Ang^3
#
#
#
# Elastic Constant Matrix: (Units=GPa)
#
#
# Indices 1 2 3 4 5 6 
#
# 1 35.9404 27.4198 38.3727 0.0000 0.0000 0.0000
# 2 27.4198 113.0052 86.0951 0.0000 0.0000 0.0000
# 3 38.3727 86.0951 192.4765 0.0000 0.0000 0.0000
# 4 0.0000 0.0000 0.0000 28.2135 0.0000 0.0000
# 5 0.0000 0.0000 0.0000 0.0000 33.7087 0.0000
# 6 0.0000 0.0000 0.0000 0.0000 0.0000 10.7231
#
#
#
# Elastic Compliance Matrix: (Units=1/GPa)
#
#
# Indices 1 2 3 4 5 6 
#
# 1 0.037205 -0.005122 -0.005126 0.000000 0.000000 0.000000
# 2 -0.005122 0.014129 -0.005299 0.000000 0.000000 0.000000
# 3 -0.005126 -0.005299 0.008588 0.000000 0.000000 0.000000
# 4 0.000000 0.000000 0.000000 0.035444 0.000000 0.000000
# 5 0.000000 0.000000 0.000000 0.000000 0.029666 0.000000
# 6 0.000000 0.000000 0.000000 0.000000 0.000000 0.093256
#
#
# Mechanical properties :
#
#
# Convention : Reuss Voigt Hill
#
# Bulk Modulus (GPa) = 34.68929 71.68859 53.18894
# Shear Modulus (GPa) = 19.30575 27.16471 23.23523
#
# Velocity S-wave (km/s) = 3.30402 3.91924 3.62470
# Velocity P-wave (km/s) = 5.84556 7.81135 6.89883
#
# Compressibility (1/GPa) = 0.02882734
#
# Stress axis : x y z
#
# Youngs Moduli (GPa) = 26.87838 70.77693 116.44750
#
# Poissons Ratio (x) = 0.36251 0.59693
# Poissons Ratio (y) = 0.13767 0.61703
# Poissons Ratio (z) = 0.13778 0.37503
#
# Static dielectric constant tensor:
#      x y z
#    x 1.597730 0.000000 0.000000 
#    y 0.000000 1.592010 0.000000 
#    z 0.000000 0.000000 1.599840 
# 
# From -- ./inp_files/26938.got.cif
#   From: 2010.05.17/outbox.cif.g08.bks.cpg/sg53_14_cif.got.tgz:26938.got - 2010.06.03 12:45:16.
