data_PCOD9414557
_publ_section_title
;
Structure prediction by ZEFSAII (Michael W. Deem and Ramdas Pophale) SiO2 
 PCOD9414557
Probable space group: P M N A
;
_chemical_formula_sum "Si O2"
_cell_formula_units_Z 64
_cell_length_a 22.613267
_cell_length_b 20.858417
_cell_length_c 5.616670
_cell_angle_alpha 90.000000
_cell_angle_beta 90.000000
_cell_angle_gamma 90.000000
_cell_volume 2649.253791
_symmetry_space_group_name_H-M "P M N A"
_symmetry_group_IT_number 53
_symmetry_cell_setting 'orthorhombic'
loop_
_space_group_symop_operation_xyz
x,y,z
1/2-x,-y,1/2+z
x,-y,-z
1/2-x,y,1/2-z
-x,-y,-z
1/2+x,y,1/2-z
-x,y,z
1/2+x,-y,1/2+z
loop_
_atom_site_type_symbol
_atom_site_label
_atom_site_fract_x
_atom_site_fract_y
_atom_site_fract_z
Si Si1 0.213844 0.068691 1.000000
Si Si2 0.905234 0.265961 0.500000
Si Si3 0.927173 0.882779 0.500000
Si Si4 0.678848 0.622855 1.000000
Si Si5 0.785774 0.214100 0.000000
Si Si6 0.567236 0.901307 0.500000
Si Si7 0.417344 0.748076 0.500000
Si Si8 0.689051 0.425018 0.500000
O O1 0.250000 0.068282 0.750000
O O2 0.250000 0.068282 0.250000
O O3 0.189183 0.140829 0.000000
O O4 0.181441 0.000000 0.000000
O O5 0.899049 0.188509 0.500000
O O6 0.844997 0.305530 0.500000
O O7 0.936000 0.280740 0.749519
O O8 0.936000 0.280740 0.250481
O O9 0.908414 0.917635 0.259250
O O10 0.000000 0.875684 0.500000
O O11 0.908414 0.917635 0.740750
O O12 0.658485 0.590821 0.751261
O O13 0.749726 0.615165 1.000000
O O14 0.658485 0.590821 0.248739
O O15 0.750000 0.221987 0.250000
O O16 0.750000 0.221987 0.750000
O O17 0.845595 0.255291 1.000000
O O18 0.500000 0.925401 0.500000
O O19 0.564241 0.823004 0.500000
O O20 0.705373 0.500000 0.500000
#
# Coordination Sequence:
#
# PCOD9414557 Si02
#       8
#     8   8   8   8   8   8   8   8
#     4   8  14  25  42  57  72  95 134 185 220 236
#     4  10  19  30  42  60  87 109 138 164 193 236
#     4   8  14  25  41  58  77 103 129 162 199 231
#     4  10  18  30  43  62  79 101 128 164 199 232
#     4  10  19  31  40  57  81 115 150 169 200 248
#     4   8  14  25  42  57  72  99 138 173 206 230
#     4  10  19  31  40  57  85 117 140 169 194 238
#     4  10  19  33  48  60  77  98 132 175 205 225
#
# _framework density 24.157747000000001
#
# number of rings (size 3 to 8) (size 9 to 14) (size 15 to 20)
#    0.000    2.750    0.000    3.375    0.000    0.000 
#   13.500    0.000    0.000    0.000    0.000    0.000 
#    0.000    6.000    0.000    0.000    0.000   95.000 
#
# Total GULP energy -357012.005719 kJ/mol
# GULP energy per Si atom -5578.312589 kJ/mol
# Density = 2.410276 g / cm^3
# Si number density = 24.157747 Si / 1000 Ang^3
#
#
#
# Elastic Constant Matrix: (Units=GPa)
#
#
# Indices 1 2 3 4 5 6 
#
# 1 97.2889 43.8084 40.9705 0.0000 0.0000 0.0000
# 2 43.8084 74.3083 43.5149 0.0000 0.0000 0.0000
# 3 40.9705 43.5149 323.1600 0.0000 0.0000 0.0000
# 4 0.0000 0.0000 0.0000 21.9379 0.0000 0.0000
# 5 0.0000 0.0000 0.0000 0.0000 7.0105 0.0000
# 6 0.0000 0.0000 0.0000 0.0000 0.0000 -13.4429
#
#
#
# Elastic Compliance Matrix: (Units=1/GPa)
#
#
# Indices 1 2 3 4 5 6 
#
# 1 0.014150 -0.007916 -0.000728 0.000000 0.000000 0.000000
# 2 -0.007916 0.019038 -0.001560 0.000000 0.000000 0.000000
# 3 -0.000728 -0.001560 0.003397 0.000000 0.000000 0.000000
# 4 0.000000 0.000000 0.000000 0.045583 0.000000 0.000000
# 5 0.000000 0.000000 0.000000 0.000000 0.142644 0.000000
# 6 0.000000 0.000000 0.000000 0.000000 0.000000 -0.074388
#
#
# Mechanical properties :
#
#
# Convention : Reuss Voigt Hill
#
# Bulk Modulus (GPa) = 61.81660 83.48276 72.64968
# Shear Modulus (GPa) = 28.37333 27.53197 27.95265
#
# Velocity S-wave (km/s) = 3.43082 3.37957 3.40529
# Velocity P-wave (km/s) = 6.42949 7.06123 6.75275
#
# Compressibility (1/GPa) = 0.01617688
#
# Stress axis : x y z
#
# Youngs Moduli (GPa) = 70.67369 52.52780 294.39496
#
# Poissons Ratio (x) = 0.41578 0.21433
# Poissons Ratio (y) = 0.55942 0.45924
# Poissons Ratio (z) = 0.05145 0.08194
#
# Static dielectric constant tensor:
#      x y z
#    x 2.009840 0.000000 0.000000 
#    y 0.000000 1.887420 0.000000 
#    z 0.000000 0.000000 2.114430 
# 
# From -- ./inp_files/4707.got.cif
#   From: 2010.05.17/outbox.cif.g08.bks.cpg/sg53_3_cif.got.tgz:4707.got - 2010.06.03 12:45:16.
