data_PCOD9414555
_publ_section_title
;
Structure prediction by ZEFSAII (Michael W. Deem and Ramdas Pophale) SiO2 
 PCOD9414555
Probable space group: P M N A
;
_chemical_formula_sum "Si O2"
_cell_formula_units_Z 48
_cell_length_a 16.764043
_cell_length_b 9.039263
_cell_length_c 18.635501
_cell_angle_alpha 90.000000
_cell_angle_beta 90.000000
_cell_angle_gamma 90.000000
_cell_volume 2823.923071
_symmetry_space_group_name_H-M "P M N A"
_symmetry_group_IT_number 53
_symmetry_cell_setting 'orthorhombic'
loop_
_space_group_symop_operation_xyz
x,y,z
1/2-x,-y,1/2+z
x,-y,-z
1/2-x,y,1/2-z
-x,-y,-z
1/2+x,y,1/2-z
-x,y,z
1/2+x,-y,1/2+z
loop_
_atom_site_type_symbol
_atom_site_label
_atom_site_fract_x
_atom_site_fract_y
_atom_site_fract_z
Si Si1 0.646705 0.714227 0.654392
Si Si2 0.589818 0.677062 0.499027
Si Si3 0.091110 0.694443 0.687754
Si Si4 0.792759 0.119863 0.397294
Si Si5 0.246639 0.790722 0.446852
Si Si6 0.229668 0.453032 0.670410
O O1 0.596906 0.726927 0.581812
O O2 0.598438 0.725379 0.727398
O O3 0.718048 0.832693 0.651703
O O4 0.694905 0.558771 0.652958
O O5 0.605857 0.500000 0.500000
O O6 0.500000 0.699948 0.471866
O O7 0.658158 0.764377 0.456163
O O8 0.127617 0.831627 0.643312
O O9 0.152290 0.558814 0.674260
O O10 0.000000 0.662985 0.668485
O O11 0.785608 0.214578 0.471340
O O12 0.779941 0.950158 0.417867
O O13 0.218836 0.666798 0.391347
O O14 0.250000 0.391221 0.750000
#
# Coordination Sequence:
#
# PCOD9414555 Si02
#       6
#     8   8   8   8   8   8
#     4   9  17  33  53  78 104 140 172 206 255 328
#     4  10  18  29  53  85 111 136 164 210 267 314
#     4  10  20  35  53  77 103 135 180 228 262 300
#     4   9  20  34  55  74 103 143 180 207 260 320
#     4  10  19  36  52  77 106 140 176 216 252 321
#     4   9  18  32  53  74 100 136 175 213 264 317
#
# _framework density 16.997630000000001
#
# number of rings (size 3 to 8) (size 9 to 14) (size 15 to 20)
#    0.000    2.500    1.667    2.000    0.000    1.333 
#    0.000   11.667    0.000    0.000    0.000    0.000 
#    0.000    0.000    0.000    0.000    0.000    0.000 
#
# Total GULP energy -267386.707512 kJ/mol
# GULP energy per Si atom -5570.556406 kJ/mol
# Density = 1.695894 g / cm^3
# Si number density = 16.997630 Si / 1000 Ang^3
#
#
#
# Elastic Constant Matrix: (Units=GPa)
#
#
# Indices 1 2 3 4 5 6 
#
# 1 93.5008 26.6814 36.2106 0.0000 0.0000 0.0000
# 2 26.6814 52.7544 39.5390 0.0000 0.0000 0.0000
# 3 36.2106 39.5390 67.1602 0.0000 0.0000 0.0000
# 4 0.0000 0.0000 0.0000 19.5992 0.0000 0.0000
# 5 0.0000 0.0000 0.0000 0.0000 16.6110 0.0000
# 6 0.0000 0.0000 0.0000 0.0000 0.0000 9.3950
#
#
#
# Elastic Compliance Matrix: (Units=1/GPa)
#
#
# Indices 1 2 3 4 5 6 
#
# 1 0.013698 -0.002492 -0.005918 0.000000 0.000000 0.000000
# 2 -0.002492 0.034379 -0.018896 0.000000 0.000000 0.000000
# 3 -0.005918 -0.018896 0.029205 0.000000 0.000000 0.000000
# 4 0.000000 0.000000 0.000000 0.051023 0.000000 0.000000
# 5 0.000000 0.000000 0.000000 0.000000 0.060201 0.000000
# 6 0.000000 0.000000 0.000000 0.000000 0.000000 0.106439
#
#
# Mechanical properties :
#
#
# Convention : Reuss Voigt Hill
#
# Bulk Modulus (GPa) = 44.11296 46.47527 45.29411
# Shear Modulus (GPa) = 14.00111 16.52000 15.26056
#
# Velocity S-wave (km/s) = 2.87315 3.12091 2.99959
# Velocity P-wave (km/s) = 6.08403 6.35518 6.22108
#
# Compressibility (1/GPa) = 0.02266908
#
# Stress axis : x y z
#
# Youngs Moduli (GPa) = 73.00138 29.08790 34.24047
#
# Poissons Ratio (x) = 0.07250 0.20265
# Poissons Ratio (y) = 0.18195 0.64700
# Poissons Ratio (z) = 0.43205 0.54964
#
# Static dielectric constant tensor:
#      x y z
#    x 1.567210 0.000000 0.000000 
#    y 0.000000 1.575800 0.000000 
#    z 0.000000 0.000000 1.594950 
# 
# From -- ./inp_files/28876.got.cif
#   From: 2010.05.17/outbox.cif.g08.bks.cpg/sg53_15_cif.got.tgz:28876.got - 2010.06.03 12:45:16.
