data_PCOD9414768
_publ_section_title
;
Structure prediction by ZEFSAII (Michael W. Deem and Ramdas Pophale) SiO2 
 PCOD9414768
Probable space group: P M N A
;
_chemical_formula_sum "Si O2"
_cell_formula_units_Z 48
_cell_length_a 8.738034
_cell_length_b 15.605256
_cell_length_c 17.591237
_cell_angle_alpha 90.000000
_cell_angle_beta 90.000000
_cell_angle_gamma 90.000000
_cell_volume 2398.728016
_symmetry_space_group_name_H-M "P M N A"
_symmetry_group_IT_number 53
_symmetry_cell_setting 'orthorhombic'
loop_
_space_group_symop_operation_xyz
x,y,z
1/2-x,-y,1/2+z
x,-y,-z
1/2-x,y,1/2-z
-x,-y,-z
1/2+x,y,1/2-z
-x,y,z
1/2+x,-y,1/2+z
loop_
_atom_site_type_symbol
_atom_site_label
_atom_site_fract_x
_atom_site_fract_y
_atom_site_fract_z
Si Si1 0.819840 0.133301 0.056269
Si Si2 0.817518 0.646018 0.164547
Si Si3 0.817072 0.016157 0.828391
Si Si4 0.819839 0.817684 0.398288
Si Si5 0.680200 0.704548 0.666423
Si Si6 0.817381 0.469900 0.335943
O O1 0.802222 0.212756 0.113861
O O2 0.000000 0.128150 0.033790
O O3 0.780766 0.047229 0.101981
O O4 0.719588 0.150117 0.982629
O O5 0.750000 0.655156 0.250000
O O6 0.765113 0.728681 0.118067
O O7 0.750390 0.557521 0.130689
O O8 0.000000 0.640442 0.169035
O O9 0.750000 0.980130 0.750000
O O10 0.743864 0.108484 0.843241
O O11 0.000000 0.022739 0.823106
O O12 0.000000 0.806496 0.387125
O O13 0.750000 0.720473 0.750000
O O14 0.500000 0.686249 0.675331
O O15 0.760454 0.620410 0.631122
O O16 0.750000 0.467964 0.250000
O O17 0.000000 0.473766 0.334092
#
# Coordination Sequence:
#
# PCOD9414768 Si02
#       6
#     8   8   8   8   8   8
#     4  10  23  41  60  84 117 155 191 233 285 339
#     4  11  21  37  60  85 115 150 192 239 287 339
#     4  11  23  41  64  89 117 149 190 236 283 336
#     4  12  25  40  59  85 117 152 191 235 286 343
#     4  10  19  34  57  85 116 151 193 237 284 336
#     4  10  18  31  53  83 116 149 190 237 285 334
#
# _framework density 20.010605000000002
#
# number of rings (size 3 to 8) (size 9 to 14) (size 15 to 20)
#    0.000    1.333    0.000    9.000    0.000    4.667 
#    0.000    0.833    0.000    5.000    0.000    0.000 
#    0.000    0.000    0.000    0.000    0.000    0.000 
#
# Total GULP energy -268415.213213 kJ/mol
# GULP energy per Si atom -5591.983609 kJ/mol
# Density = 1.996506 g / cm^3
# Si number density = 20.010605 Si / 1000 Ang^3
#
#
#
# Elastic Constant Matrix: (Units=GPa)
#
#
# Indices 1 2 3 4 5 6 
#
# 1 145.9158 42.2600 23.1820 0.0000 0.0000 0.0000
# 2 42.2600 92.1122 -6.1349 0.0000 0.0000 0.0000
# 3 23.1820 -6.1349 38.4756 0.0000 0.0000 0.0000
# 4 0.0000 0.0000 0.0000 0.9689 0.0000 0.0000
# 5 0.0000 0.0000 0.0000 0.0000 26.3356 0.0000
# 6 0.0000 0.0000 0.0000 0.0000 0.0000 31.0763
#
#
#
# Elastic Compliance Matrix: (Units=1/GPa)
#
#
# Indices 1 2 3 4 5 6 
#
# 1 0.009193 -0.004636 -0.006278 0.000000 0.000000 0.000000
# 2 -0.004636 0.013311 0.004916 0.000000 0.000000 0.000000
# 3 -0.006278 0.004916 0.030557 0.000000 0.000000 0.000000
# 4 0.000000 0.000000 0.000000 1.032136 0.000000 0.000000
# 5 0.000000 0.000000 0.000000 0.000000 0.037971 0.000000
# 6 0.000000 0.000000 0.000000 0.000000 0.000000 0.032179
#
#
# Mechanical properties :
#
#
# Convention : Reuss Voigt Hill
#
# Bulk Modulus (GPa) = 24.35241 43.90198 34.12720
# Shear Modulus (GPa) = 4.23358 26.15593 15.19476
#
# Velocity S-wave (km/s) = 1.45611 3.61931 2.75859
# Velocity P-wave (km/s) = 3.87598 6.28115 5.21901
#
# Compressibility (1/GPa) = 0.04106370
#
# Stress axis : x y z
#
# Youngs Moduli (GPa) = 108.77377 75.12779 32.72565
#
# Poissons Ratio (x) = 0.34829 0.20546
# Poissons Ratio (y) = 0.50427 -0.16087
# Poissons Ratio (z) = 0.68292 -0.36930
#
# Static dielectric constant tensor:
#      x y z
#    x 1.664960 0.000000 0.000000 
#    y 0.000000 1.732350 0.000000 
#    z 0.000000 0.000000 1.711400 
# 
# From -- ./inp_files/26229.got.cif
#   From: 2010.05.17/outbox.cif.g08.bks.cpg/sg53_14_cif.got.tgz:26229.got - 2010.06.03 12:45:16.
