data_PCOD9414697
_publ_section_title
;
Structure prediction by ZEFSAII (Michael W. Deem and Ramdas Pophale) SiO2 
 PCOD9414697
Probable space group: P M N A
;
_chemical_formula_sum "Si O2"
_cell_formula_units_Z 64
_cell_length_a 9.128116
_cell_length_b 19.276612
_cell_length_c 21.858091
_cell_angle_alpha 90.000000
_cell_angle_beta 90.000000
_cell_angle_gamma 90.000000
_cell_volume 3846.131122
_symmetry_space_group_name_H-M "P M N A"
_symmetry_group_IT_number 53
_symmetry_cell_setting 'orthorhombic'
loop_
_space_group_symop_operation_xyz
x,y,z
1/2-x,-y,1/2+z
x,-y,-z
1/2-x,y,1/2-z
-x,-y,-z
1/2+x,y,1/2-z
-x,y,z
1/2+x,-y,1/2+z
loop_
_atom_site_type_symbol
_atom_site_label
_atom_site_fract_x
_atom_site_fract_y
_atom_site_fract_z
Si Si1 0.828453 0.834649 0.627405
Si Si2 0.327414 0.287149 0.313124
Si Si3 0.669705 0.542006 0.064559
Si Si4 0.674577 0.669651 0.487951
Si Si5 0.324220 0.046923 0.559594
Si Si6 0.829305 0.582951 0.887940
Si Si7 0.328017 0.819346 0.014546
Si Si8 0.675923 0.965227 0.685828
O O1 0.754282 0.760758 0.638414
O O2 0.815246 0.847406 0.555164
O O3 0.742220 0.890515 0.667602
O O4 0.000000 0.834195 0.643837
O O5 0.250000 0.270932 0.250000
O O6 0.500000 0.271678 0.312672
O O7 0.309141 0.367449 0.330277
O O8 0.500000 0.557664 0.074955
O O9 0.761555 0.612407 0.058730
O O10 0.733223 0.485757 0.111326
O O11 0.681666 0.500000 0.000000
O O12 0.500000 0.677508 0.481915
O O13 0.703342 0.633067 0.553869
O O14 0.751458 0.744136 0.482163
O O15 0.500000 0.055213 0.555585
O O16 0.247668 0.121474 0.554835
O O17 0.281155 0.000000 0.500000
O O18 0.291593 0.011319 0.625149
O O19 0.000000 0.563225 0.894097
O O20 0.500000 0.811950 0.028434
O O21 0.750000 0.987725 0.750000
O O22 0.500000 0.961738 0.693026
#
# Coordination Sequence:
#
# PCOD9414697 Si02
#       8
#     8   8   8   8   8   8   8   8
#     4  11  22  35  52  75 105 141 179 220 266 316
#     4  11  22  35  49  69  99 138 182 223 261 308
#     4   9  17  28  45  70  98 126 160 203 249 295
#     4  10  18  31  50  71 100 134 169 206 252 311
#     4  10  21  38  58  79 106 141 180 220 268 326
#     4   9  18  31  47  67  94 132 172 209 253 304
#     4  11  22  33  52  80 109 139 175 221 270 317
#     4  11  23  39  59  80 106 140 180 225 269 321
#
# _framework density 16.640098999999999
#
# number of rings (size 3 to 8) (size 9 to 14) (size 15 to 20)
#    0.000    1.750    2.500    2.625    0.000    5.250 
#    0.000    0.000    0.000    0.000    0.000    0.875 
#    0.000    0.000    0.000    0.000    0.000    0.000 
#
# Total GULP energy -356932.192396 kJ/mol
# GULP energy per Si atom -5577.065506 kJ/mol
# Density = 1.660223 g / cm^3
# Si number density = 16.640099 Si / 1000 Ang^3
#
#
#
# Elastic Constant Matrix: (Units=GPa)
#
#
# Indices 1 2 3 4 5 6 
#
# 1 75.3944 58.2970 41.8192 0.0000 0.0000 0.0000
# 2 58.2970 96.0103 31.6095 0.0000 0.0000 0.0000
# 3 41.8192 31.6095 58.4065 0.0000 0.0000 0.0000
# 4 0.0000 0.0000 0.0000 13.9985 0.0000 0.0000
# 5 0.0000 0.0000 0.0000 0.0000 17.9633 0.0000
# 6 0.0000 0.0000 0.0000 0.0000 0.0000 28.7495
#
#
#
# Elastic Compliance Matrix: (Units=1/GPa)
#
#
# Indices 1 2 3 4 5 6 
#
# 1 0.034093 -0.015410 -0.016071 0.000000 0.000000 0.000000
# 2 -0.015410 0.019639 0.000405 0.000000 0.000000 0.000000
# 3 -0.016071 0.000405 0.028409 0.000000 0.000000 0.000000
# 4 0.000000 0.000000 0.000000 0.071436 0.000000 0.000000
# 5 0.000000 0.000000 0.000000 0.000000 0.055669 0.000000
# 6 0.000000 0.000000 0.000000 0.000000 0.000000 0.034783
#
#
# Mechanical properties :
#
#
# Convention : Reuss Voigt Hill
#
# Bulk Modulus (GPa) = 50.02669 54.80696 52.41682
# Shear Modulus (GPa) = 15.98235 18.68131 17.33183
#
# Velocity S-wave (km/s) = 3.10251 3.35426 3.23084
# Velocity P-wave (km/s) = 6.55464 6.92889 6.74436
#
# Compressibility (1/GPa) = 0.01998933
#
# Stress axis : x y z
#
# Youngs Moduli (GPa) = 29.33127 50.91851 35.20013
#
# Poissons Ratio (x) = 0.78467 0.56570
# Poissons Ratio (y) = 0.45200 -0.01426
# Poissons Ratio (z) = 0.47138 -0.02063
#
# Static dielectric constant tensor:
#      x y z
#    x 1.552290 0.000000 0.000000 
#    y 0.000000 1.546900 0.000000 
#    z 0.000000 0.000000 1.553400 
# 
# From -- ./inp_files/31190.got.cif
#   From: 2010.05.17/outbox.cif.g08.bks.cpg/sg53_16_cif.got.tgz:31190.got - 2010.06.03 12:45:16.
