data_PCOD9414788
_publ_section_title
;
Structure prediction by ZEFSAII (Michael W. Deem and Ramdas Pophale) SiO2 
 PCOD9414788
Probable space group: P M N A
;
_chemical_formula_sum "Si O2"
_cell_formula_units_Z 40
_cell_length_a 17.431263
_cell_length_b 12.291524
_cell_length_c 7.574714
_cell_angle_alpha 90.000000
_cell_angle_beta 90.000000
_cell_angle_gamma 90.000000
_cell_volume 1622.933888
_symmetry_space_group_name_H-M "P M N A"
_symmetry_group_IT_number 53
_symmetry_cell_setting 'orthorhombic'
loop_
_space_group_symop_operation_xyz
x,y,z
1/2-x,-y,1/2+z
x,-y,-z
1/2-x,y,1/2-z
-x,-y,-z
1/2+x,y,1/2-z
-x,y,z
1/2+x,-y,1/2+z
loop_
_atom_site_type_symbol
_atom_site_label
_atom_site_fract_x
_atom_site_fract_y
_atom_site_fract_z
Si Si1 0.834987 0.524143 0.204450
Si Si2 0.089498 0.019643 0.788802
Si Si3 0.338718 0.232389 0.616827
Si Si4 0.305499 0.847131 0.913650
Si Si5 0.911001 0.686016 0.739802
O O1 0.750000 0.483167 0.250000
O O2 0.834755 0.653493 0.220241
O O3 0.893772 0.441257 0.292019
O O4 0.847738 0.500000 0.000000
O O5 0.109877 0.146271 0.777460
O O6 0.000000 0.996369 0.751151
O O7 0.146501 0.951801 0.662221
O O8 0.102832 0.000000 0.000000
O O9 0.257833 0.171176 0.567691
O O10 0.378711 0.268027 0.429206
O O11 0.250000 0.825429 0.750000
O O12 0.367450 0.752433 0.909602
O O13 0.000000 0.708092 0.739917
#
# Coordination Sequence:
#
# PCOD9414788 Si02
#       5
#     8   8   8   8   8
#     4  10  21  38  60  87 118 154 200 254 305 366
#     4  11  20  33  57  89 117 147 202 267 309 352
#     4  10  21  35  55  85 118 154 200 248 308 371
#     4  10  19  33  53  82 119 156 192 243 315 376
#     4  10  18  31  55  86 117 149 192 250 308 357
#
# _framework density 24.646722
#
# number of rings (size 3 to 8) (size 9 to 14) (size 15 to 20)
#    0.000    1.800    4.000    4.200    0.000    5.200 
#    0.000    0.000    0.000    6.600    0.000   44.800 
#    0.000    0.000    0.000    0.000    0.000    0.000 
#
# Total GULP energy -223304.344645 kJ/mol
# GULP energy per Si atom -5582.608616 kJ/mol
# Density = 2.459063 g / cm^3
# Si number density = 24.646722 Si / 1000 Ang^3
#
#
#
# Elastic Constant Matrix: (Units=GPa)
#
#
# Indices 1 2 3 4 5 6 
#
# 1 175.3886 53.4636 39.0932 0.0000 0.0000 0.0000
# 2 53.4636 157.4856 39.8070 0.0000 0.0000 0.0000
# 3 39.0932 39.8070 104.3954 0.0000 0.0000 0.0000
# 4 0.0000 0.0000 0.0000 12.1782 0.0000 0.0000
# 5 0.0000 0.0000 0.0000 0.0000 14.4058 0.0000
# 6 0.0000 0.0000 0.0000 0.0000 0.0000 129.9374
#
#
#
# Elastic Compliance Matrix: (Units=1/GPa)
#
#
# Indices 1 2 3 4 5 6 
#
# 1 0.006653 -0.001803 -0.001804 0.000000 0.000000 0.000000
# 2 -0.001803 0.007515 -0.002191 0.000000 0.000000 0.000000
# 3 -0.001804 -0.002191 0.011090 0.000000 0.000000 0.000000
# 4 0.000000 0.000000 0.000000 0.082114 0.000000 0.000000
# 5 0.000000 0.000000 0.000000 0.000000 0.069417 0.000000
# 6 0.000000 0.000000 0.000000 0.000000 0.000000 0.007696
#
#
# Mechanical properties :
#
#
# Convention : Reuss Voigt Hill
#
# Bulk Modulus (GPa) = 73.18628 77.99968 75.59298
# Shear Modulus (GPa) = 24.92094 51.63133 38.27614
#
# Velocity S-wave (km/s) = 3.18327 4.58192 3.94508
# Velocity P-wave (km/s) = 6.57796 7.72708 7.17556
#
# Compressibility (1/GPa) = 0.01366376
#
# Stress axis : x y z
#
# Youngs Moduli (GPa) = 150.30251 133.05859 90.17229
#
# Poissons Ratio (x) = 0.23986 0.16268
# Poissons Ratio (y) = 0.27094 0.19754
# Poissons Ratio (z) = 0.27116 0.29149
#
# Static dielectric constant tensor:
#      x y z
#    x 1.886320 0.000000 0.000000 
#    y 0.000000 2.180300 0.000000 
#    z 0.000000 0.000000 2.065810 
# 
# From -- ./inp_files/15760.got.cif
#   From: 2010.05.17/outbox.cif.g08.bks.cpg/sg53_8_cif.got.tgz:15760.got - 2010.06.03 12:45:16.
