data_PCOD9414588
_publ_section_title
;
Structure prediction by ZEFSAII (Michael W. Deem and Ramdas Pophale) SiO2 
 PCOD9414588
Probable space group: P M N A
;
_chemical_formula_sum "Si O2"
_cell_formula_units_Z 64
_cell_length_a 9.016740
_cell_length_b 17.459732
_cell_length_c 27.394920
_cell_angle_alpha 90.000000
_cell_angle_beta 90.000000
_cell_angle_gamma 90.000000
_cell_volume 4312.778528
_symmetry_space_group_name_H-M "P M N A"
_symmetry_group_IT_number 53
_symmetry_cell_setting 'orthorhombic'
loop_
_space_group_symop_operation_xyz
x,y,z
1/2-x,-y,1/2+z
x,-y,-z
1/2-x,y,1/2-z
-x,-y,-z
1/2+x,y,1/2-z
-x,y,z
1/2+x,-y,1/2+z
loop_
_atom_site_type_symbol
_atom_site_label
_atom_site_fract_x
_atom_site_fract_y
_atom_site_fract_z
Si Si1 0.322200 0.327052 0.965028
Si Si2 0.177873 0.365069 0.423078
Si Si3 0.821546 0.907249 0.802803
Si Si4 0.678030 0.787729 0.873370
Si Si5 0.173910 0.969707 0.114686
Si Si6 0.171330 0.519598 0.057957
Si Si7 0.677180 0.846057 0.056894
Si Si8 0.175464 0.889164 0.956440
O O1 0.500000 0.334593 0.963028
O O2 0.249886 0.398559 0.937360
O O3 0.282090 0.243892 0.944107
O O4 0.279875 0.333847 0.022604
O O5 0.216671 0.300946 0.383125
O O6 0.250924 0.447712 0.416347
O O7 0.000000 0.373403 0.423463
O O8 0.750000 0.916595 0.750000
O O9 0.756292 0.831481 0.828955
O O10 0.000000 0.901852 0.800485
O O11 0.784946 0.979248 0.838218
O O12 0.500000 0.794501 0.869470
O O13 0.735250 0.831708 0.921489
O O14 0.268342 0.894709 0.103138
O O15 0.000000 0.949990 0.118274
O O16 0.190801 0.028379 0.069175
O O17 0.000000 0.524485 0.071716
O O18 0.180119 0.500000 0.000000
O O19 0.500000 0.851665 0.051587
O O20 0.756847 0.882384 0.009772
O O21 0.000000 0.870744 0.956777
#
# Coordination Sequence:
#
# PCOD9414588 Si02
#       8
#     8   8   8   8   8   8   8   8
#     4   9  17  29  40  56  85 121 156 188 225 262
#     4   9  16  28  43  59  86 120 151 186 224 263
#     4  10  21  37  54  71  92 118 148 186 234 279
#     4  10  18  30  48  70  92 118 155 190 227 274
#     4   9  20  34  45  63  88 116 148 184 230 276
#     4   9  17  26  38  59  82 112 155 191 220 257
#     4  11  20  29  43  64  88 119 158 193 225 267
#     4  10  19  30  43  60  89 123 153 188 229 268
#
# _framework density 14.839620999999999
#
# number of rings (size 3 to 8) (size 9 to 14) (size 15 to 20)
#    0.000    2.375    1.250    3.000    0.000    8.000 
#    0.000    0.000    0.000    0.000    0.000    0.000 
#    0.000    1.000    0.000    7.000    0.000    5.125 
#
# Total GULP energy -356699.774951 kJ/mol
# GULP energy per Si atom -5573.433984 kJ/mol
# Density = 1.480585 g / cm^3
# Si number density = 14.839621 Si / 1000 Ang^3
#
#
#
# Elastic Constant Matrix: (Units=GPa)
#
#
# Indices 1 2 3 4 5 6 
#
# 1 50.3064 54.9927 34.3470 0.0000 0.0000 0.0000
# 2 54.9927 115.0704 59.1652 0.0000 0.0000 0.0000
# 3 34.3470 59.1652 63.5651 0.0000 0.0000 0.0000
# 4 0.0000 0.0000 0.0000 10.7963 0.0000 0.0000
# 5 0.0000 0.0000 0.0000 0.0000 873.5897 0.0000
# 6 0.0000 0.0000 0.0000 0.0000 0.0000 -15.1070
#
#
#
# Elastic Compliance Matrix: (Units=1/GPa)
#
#
# Indices 1 2 3 4 5 6 
#
# 1 0.043644 -0.016747 -0.007995 0.000000 0.000000 0.000000
# 2 -0.016747 0.023093 -0.012445 0.000000 0.000000 0.000000
# 3 -0.007995 -0.012445 0.031636 0.000000 0.000000 0.000000
# 4 0.000000 0.000000 0.000000 0.092624 0.000000 0.000000
# 5 0.000000 0.000000 0.000000 0.000000 0.001145 0.000000
# 6 0.000000 0.000000 0.000000 0.000000 0.000000 -0.066194
#
#
# Mechanical properties :
#
#
# Convention : Reuss Voigt Hill
#
# Bulk Modulus (GPa) = 41.66999 58.43908 50.05453
# Shear Modulus (GPa) = 24.00163 179.21826 101.60995
#
# Velocity S-wave (km/s) = 4.02606 11.00147 8.28376
# Velocity P-wave (km/s) = 7.05361 14.17188 11.19365
#
# Compressibility (1/GPa) = 0.02399809
#
# Stress axis : x y z
#
# Youngs Moduli (GPa) = 22.91289 43.30404 31.60991
#
# Poissons Ratio (x) = 0.72520 0.25272
# Poissons Ratio (y) = 0.38372 0.39339
# Poissons Ratio (z) = 0.18319 0.53892
#
# Static dielectric constant tensor:
#      x y z
#    x 1.493730 0.000000 0.000000 
#    y 0.000000 1.505180 0.000000 
#    z 0.000000 0.000000 1.469040 
# 
# From -- ./inp_files/36480.got.cif
#   From: 2010.05.17/outbox.cif.g08.bks.cpg/sg53_19_cif.got.tgz:36480.got - 2010.06.03 12:45:16.
