data_PCOD9414796
_publ_section_title
;
Structure prediction by ZEFSAII (Michael W. Deem and Ramdas Pophale) SiO2 
 PCOD9414796
Probable space group: P M N A
;
_chemical_formula_sum "Si O2"
_cell_formula_units_Z 56
_cell_length_a 26.045186
_cell_length_b 5.360870
_cell_length_c 21.003291
_cell_angle_alpha 90.000000
_cell_angle_beta 90.000000
_cell_angle_gamma 90.000000
_cell_volume 2932.581487
_symmetry_space_group_name_H-M "P M N A"
_symmetry_group_IT_number 53
_symmetry_cell_setting 'orthorhombic'
loop_
_space_group_symop_operation_xyz
x,y,z
1/2-x,-y,1/2+z
x,-y,-z
1/2-x,y,1/2-z
-x,-y,-z
1/2+x,y,1/2-z
-x,y,z
1/2+x,-y,1/2+z
loop_
_atom_site_type_symbol
_atom_site_label
_atom_site_fract_x
_atom_site_fract_y
_atom_site_fract_z
Si Si1 0.636264 0.250000 0.038545
Si Si2 0.107696 0.750002 0.154601
Si Si3 0.560044 0.250002 0.297002
Si Si4 0.198959 0.250000 0.925096
Si Si5 0.640058 0.250002 0.181493
Si Si6 0.242431 0.750000 0.932759
Si Si7 0.190506 0.249998 0.730275
O O1 0.616737 0.250000 0.110740
O O2 0.698165 0.250000 0.049017
O O3 0.622814 0.500000 0.000000
O O4 0.622814 0.000000 0.000000
O O5 0.075410 0.500189 0.165195
O O6 0.139110 0.750000 0.089141
O O7 0.153410 0.750002 0.207533
O O8 0.075410 0.999817 0.165194
O O9 0.500000 0.250001 0.282220
O O10 0.595060 0.250002 0.233696
O O11 0.225014 0.499713 0.898173
O O12 0.225014 0.000287 0.898173
O O13 0.212408 0.250000 0.999817
O O14 0.673981 0.499111 0.192469
O O15 0.673981 0.000895 0.192469
O O16 0.250000 0.249999 0.750000
#
# Coordination Sequence:
#
# PCOD9414796 Si02
#       7
#     8   8   8   8   8   8   8
#     4  12  21  35  52  78 111 149 204 215 255 325
#     4  10  21  33  57  86 104 141 188 227 272 344
#     4  10  21  42  60  81 106 138 188 242 297 333
#     4  10  18  32  47  75 113 137 189 208 257 311
#     4  10  23  36  54  80 110 149 189 229 278 331
#     4  10  19  30  47  74 105 162 177 205 254 312
#     4  10  21  34  49  79 117 151 176 215 283 336
#
# _framework density 19.095801999999999
#
# number of rings (size 3 to 8) (size 9 to 14) (size 15 to 20)
#    0.000    1.714    2.857    2.571    4.000    0.000 
#    0.000    0.000    0.000    0.857    0.000   40.000 
#    0.000    0.000    0.000    0.000    0.000    0.000 
#
# Total GULP energy -312691.828290 kJ/mol
# GULP energy per Si atom -5583.782648 kJ/mol
# Density = 1.905234 g / cm^3
# Si number density = 19.095802 Si / 1000 Ang^3
#
#
#
# Elastic Constant Matrix: (Units=GPa)
#
#
# Indices 1 2 3 4 5 6 
#
# 1 83.7043 24.5643 7.1301 0.0000 0.0000 0.0000
# 2 24.5643 177.0309 2.2814 0.0000 0.0000 0.0000
# 3 7.1301 2.2814 37.9648 0.0000 0.0000 0.0000
# 4 0.0000 0.0000 0.0000 11.6490 0.0000 0.0000
# 5 0.0000 0.0000 0.0000 0.0000 16.0174 0.0000
# 6 0.0000 0.0000 0.0000 0.0000 0.0000 9.5360
#
#
#
# Elastic Compliance Matrix: (Units=1/GPa)
#
#
# Indices 1 2 3 4 5 6 
#
# 1 0.012647 -0.001726 -0.002271 0.000000 0.000000 0.000000
# 2 -0.001726 0.005889 -0.000030 0.000000 0.000000 0.000000
# 3 -0.002271 -0.000030 0.026769 0.000000 0.000000 0.000000
# 4 0.000000 0.000000 0.000000 0.085845 0.000000 0.000000
# 5 0.000000 0.000000 0.000000 0.000000 0.062432 0.000000
# 6 0.000000 0.000000 0.000000 0.000000 0.000000 0.104865
#
#
# Mechanical properties :
#
#
# Convention : Reuss Voigt Hill
#
# Bulk Modulus (GPa) = 26.84548 40.73907 33.79227
# Shear Modulus (GPa) = 15.67811 25.08876 20.38344
#
# Velocity S-wave (km/s) = 2.86846 3.62862 3.27070
# Velocity P-wave (km/s) = 5.00595 6.23989 5.65667
#
# Compressibility (1/GPa) = 0.03725022
#
# Stress axis : x y z
#
# Youngs Moduli (GPa) = 79.07201 169.82119 37.35727
#
# Poissons Ratio (x) = 0.29303 0.08486
# Poissons Ratio (y) = 0.13644 0.00111
# Poissons Ratio (z) = 0.17961 0.00506
#
# Static dielectric constant tensor:
#      x y z
#    x 1.625400 0.000000 0.000000 
#    y 0.000000 1.698360 0.000000 
#    z 0.000000 0.000000 1.691980 
# 
# From -- ./inp_files/33178.got.cif
#   From: 2010.05.17/outbox.cif.g08.bks.cpg/sg53_17_cif.got.tgz:33178.got - 2010.06.03 12:45:16.
