data_PCOD9414709
_publ_section_title
;
Structure prediction by ZEFSAII (Michael W. Deem and Ramdas Pophale) SiO2 
 PCOD9414709
Probable space group: P M N A
;
_chemical_formula_sum "Si O2"
_cell_formula_units_Z 56
_cell_length_a 19.122729
_cell_length_b 7.457739
_cell_length_c 17.313898
_cell_angle_alpha 90.000000
_cell_angle_beta 90.000000
_cell_angle_gamma 90.000000
_cell_volume 2469.175194
_symmetry_space_group_name_H-M "P M N A"
_symmetry_group_IT_number 53
_symmetry_cell_setting 'orthorhombic'
loop_
_space_group_symop_operation_xyz
x,y,z
1/2-x,-y,1/2+z
x,-y,-z
1/2-x,y,1/2-z
-x,-y,-z
1/2+x,y,1/2-z
-x,y,z
1/2+x,-y,1/2+z
loop_
_atom_site_type_symbol
_atom_site_label
_atom_site_fract_x
_atom_site_fract_y
_atom_site_fract_z
Si Si1 0.580430 0.135523 0.927522
Si Si2 0.679021 0.401596 0.203701
Si Si3 0.920397 0.220270 0.863682
Si Si4 0.810617 0.311268 0.472010
Si Si5 0.827621 0.835664 0.280477
Si Si6 0.339947 0.281263 0.486249
Si Si7 0.579459 0.346707 0.336078
O O1 0.500000 0.172592 0.902528
O O2 0.632083 0.086719 0.856153
O O3 0.622695 0.287194 0.973468
O O4 0.577127 0.000000 0.000000
O O5 0.750000 0.357262 0.250000
O O6 0.676257 0.322461 0.118477
O O7 0.677043 0.620078 0.201096
O O8 0.615283 0.326995 0.253477
O O9 0.878184 0.140077 0.792352
O O10 0.920140 0.437044 0.849957
O O11 0.000000 0.160181 0.865444
O O12 0.882327 0.192545 0.944515
O O13 0.783541 0.500000 0.500000
O O14 0.739059 0.204426 0.486696
O O15 0.750000 0.890626 0.250000
O O16 0.348038 0.500000 0.500000
O O17 0.374525 0.257582 0.402693
O O18 0.500000 0.285390 0.338842
#
# Coordination Sequence:
#
# PCOD9414709 Si02
#       7
#     8   8   8   8   8   8   8
#     4  11  25  43  59  83 121 159 197 247 300 350
#     4  10  18  31  50  82 116 148 189 243 293 343
#     4   9  16  25  42  72 108 141 175 221 277 339
#     4  11  20  35  57  82 110 148 195 239 291 354
#     4  10  19  34  58  83 110 147 196 241 291 344
#     4   9  16  26  46  74 108 142 177 222 282 335
#     4   9  16  25  40  68 110 148 175 218 280 343
#
# _framework density 22.679638000000001
#
# number of rings (size 3 to 8) (size 9 to 14) (size 15 to 20)
#    0.000    2.143    2.857    1.714    4.000    3.143 
#    0.000    0.714    0.000    0.000    0.000    0.000 
#    0.000    4.000    0.000    0.000    0.000    0.000 
#
# Total GULP energy -312318.689227 kJ/mol
# GULP energy per Si atom -5577.119450 kJ/mol
# Density = 2.262802 g / cm^3
# Si number density = 22.679638 Si / 1000 Ang^3
#
#
#
# Elastic Constant Matrix: (Units=GPa)
#
#
# Indices 1 2 3 4 5 6 
#
# 1 151.1549 15.8255 79.7249 0.0000 0.0000 0.0000
# 2 15.8255 44.7744 17.3159 0.0000 0.0000 0.0000
# 3 79.7249 17.3159 180.8619 0.0000 0.0000 0.0000
# 4 0.0000 0.0000 0.0000 6.7362 0.0000 0.0000
# 5 0.0000 0.0000 0.0000 0.0000 26.2204 0.0000
# 6 0.0000 0.0000 0.0000 0.0000 0.0000 32.6499
#
#
#
# Elastic Compliance Matrix: (Units=1/GPa)
#
#
# Indices 1 2 3 4 5 6 
#
# 1 0.008737 -0.001660 -0.003692 0.000000 0.000000 0.000000
# 2 -0.001660 0.023508 -0.001519 0.000000 0.000000 0.000000
# 3 -0.003692 -0.001519 0.007302 0.000000 0.000000 0.000000
# 4 0.000000 0.000000 0.000000 0.148452 0.000000 0.000000
# 5 0.000000 0.000000 0.000000 0.000000 0.038138 0.000000
# 6 0.000000 0.000000 0.000000 0.000000 0.000000 0.030628
#
#
# Mechanical properties :
#
#
# Convention : Reuss Voigt Hill
#
# Bulk Modulus (GPa) = 38.75265 66.94707 52.84986
# Shear Modulus (GPa) = 17.91410 30.71631 24.31521
#
# Velocity S-wave (km/s) = 2.81352 3.68415 3.27787
# Velocity P-wave (km/s) = 5.26105 6.90507 6.13835
#
# Compressibility (1/GPa) = 0.02580469
#
# Stress axis : x y z
#
# Youngs Moduli (GPa) = 114.45517 42.53801 136.94637
#
# Poissons Ratio (x) = 0.07062 0.50566
# Poissons Ratio (y) = 0.19001 0.20801
# Poissons Ratio (z) = 0.42261 0.06461
#
# Static dielectric constant tensor:
#      x y z
#    x 1.870350 0.000000 0.000000 
#    y 0.000000 1.965480 0.000000 
#    z 0.000000 0.000000 1.775900 
# 
# From -- ./inp_files/24375.got.cif
#   From: 2010.05.17/outbox.cif.g08.bks.cpg/sg53_13_cif.got.tgz:24375.got - 2010.06.03 12:45:16.
