data_PCOD9414794
_publ_section_title
;
Structure prediction by ZEFSAII (Michael W. Deem and Ramdas Pophale) SiO2 
 PCOD9414794
Probable space group: P M N A
;
_chemical_formula_sum "Si O2"
_cell_formula_units_Z 60
_cell_length_a 15.049760
_cell_length_b 14.805799
_cell_length_c 15.392255
_cell_angle_alpha 90.000000
_cell_angle_beta 90.000000
_cell_angle_gamma 90.000000
_cell_volume 3429.759542
_symmetry_space_group_name_H-M "P M N A"
_symmetry_group_IT_number 53
_symmetry_cell_setting 'orthorhombic'
loop_
_space_group_symop_operation_xyz
x,y,z
1/2-x,-y,1/2+z
x,-y,-z
1/2-x,y,1/2-z
-x,-y,-z
1/2+x,y,1/2-z
-x,y,z
1/2+x,-y,1/2+z
loop_
_atom_site_type_symbol
_atom_site_label
_atom_site_fract_x
_atom_site_fract_y
_atom_site_fract_z
Si Si1 0.901807 0.855859 0.629590
Si Si2 0.902233 0.764320 0.815255
Si Si3 0.898454 0.359540 0.555984
Si Si4 0.354862 0.915527 0.549370
Si Si5 0.710382 0.810608 0.038555
Si Si6 0.250000 0.649339 0.750000
Si Si7 0.294524 0.974905 0.157522
Si Si8 0.899077 0.444906 0.363873
O O1 0.899562 0.794058 0.714447
O O2 0.838253 0.822579 0.553809
O O3 0.000000 0.856687 0.592621
O O4 0.874428 0.954559 0.662977
O O5 0.898013 0.852188 0.877377
O O6 0.810658 0.707243 0.818353
O O7 0.000000 0.721414 0.831377
O O8 0.821121 0.286774 0.570882
O O9 0.893382 0.393153 0.456116
O O10 0.889038 0.449170 0.614131
O O11 0.000000 0.323938 0.568674
O O12 0.311117 0.842986 0.482182
O O13 0.401494 0.000000 0.500000
O O14 0.276891 0.970655 0.598949
O O15 0.678175 0.885538 0.106898
O O16 0.177094 0.591177 0.698692
O O17 0.250000 0.956545 0.250000
O O18 0.000000 0.429886 0.330651
#
# Coordination Sequence:
#
# PCOD9414794 Si02
#       8
#     8   8   8   8   8   4   8   8
#     4  10  19  30  47  73 105 132 165 213 266 307
#     4  11  21  31  51  78 102 134 170 215 266 308
#     4   9  17  33  52  75 106 129 164 212 262 323
#     4   9  18  32  49  69 101 138 176 210 245 295
#     4  10  19  28  50  77  95 134 176 208 253 303
#     4  12  20  32  52  78 110 128 164 218 266 316
#     4  10  18  32  46  65 102 143 171 206 249 295
#     4   9  19  34  54  77 104 136 161 206 272 325
#
# _framework density 17.493938
#
# number of rings (size 3 to 8) (size 9 to 14) (size 15 to 20)
#    0.000    2.133    1.333    6.000    0.000    4.000 
#    1.200    0.000    0.000    0.000    0.000   17.733 
#    0.000    0.000    0.000    0.000    0.000    0.000 
#
# Total GULP energy -334064.126853 kJ/mol
# GULP energy per Si atom -5567.735448 kJ/mol
# Density = 1.745412 g / cm^3
# Si number density = 17.493938 Si / 1000 Ang^3
#
#
#
# Elastic Constant Matrix: (Units=GPa)
#
#
# Indices 1 2 3 4 5 6 
#
# 1 95.8618 46.4198 20.5303 0.0000 0.0000 0.0000
# 2 46.4198 90.1313 23.6116 0.0000 0.0000 0.0000
# 3 20.5303 23.6116 46.5342 0.0000 0.0000 0.0000
# 4 0.0000 0.0000 0.0000 19.4420 0.0000 0.0000
# 5 0.0000 0.0000 0.0000 0.0000 8.5176 0.0000
# 6 0.0000 0.0000 0.0000 0.0000 0.0000 7.7131
#
#
#
# Elastic Compliance Matrix: (Units=1/GPa)
#
#
# Indices 1 2 3 4 5 6 
#
# 1 0.014241 -0.006561 -0.002954 0.000000 0.000000 0.000000
# 2 -0.006561 0.015818 -0.005132 0.000000 0.000000 0.000000
# 3 -0.002954 -0.005132 0.025397 0.000000 0.000000 0.000000
# 4 0.000000 0.000000 0.000000 0.051435 0.000000 0.000000
# 5 0.000000 0.000000 0.000000 0.000000 0.117404 0.000000
# 6 0.000000 0.000000 0.000000 0.000000 0.000000 0.129649
#
#
# Mechanical properties :
#
#
# Convention : Reuss Voigt Hill
#
# Bulk Modulus (GPa) = 38.22175 45.96119 42.09147
# Shear Modulus (GPa) = 12.75647 16.59892 14.67769
#
# Velocity S-wave (km/s) = 2.70329 3.08366 2.89972
# Velocity P-wave (km/s) = 5.62492 6.24566 5.94340
#
# Compressibility (1/GPa) = 0.02616311
#
# Stress axis : x y z
#
# Youngs Moduli (GPa) = 70.21833 63.21829 39.37512
#
# Poissons Ratio (x) = 0.41476 0.11632
# Poissons Ratio (y) = 0.46068 0.20206
# Poissons Ratio (z) = 0.20743 0.32442
#
# Static dielectric constant tensor:
#      x y z
#    x 1.660320 0.000000 0.000000 
#    y 0.000000 1.639630 0.000000 
#    z 0.000000 0.000000 1.592760 
# 
# From -- ./inp_files/23020.got.cif
#   From: 2010.05.17/outbox.cif.g08.bks.cpg/sg53_12_cif.got.tgz:23020.got - 2010.06.03 12:45:16.
