data_PCOD9414684
_publ_section_title
;
Structure prediction by ZEFSAII (Michael W. Deem and Ramdas Pophale) SiO2 
 PCOD9414684
Probable space group: P M N A
;
_chemical_formula_sum "Si O2"
_cell_formula_units_Z 64
_cell_length_a 8.622574
_cell_length_b 32.483960
_cell_length_c 14.375236
_cell_angle_alpha 90.000000
_cell_angle_beta 90.000000
_cell_angle_gamma 90.000000
_cell_volume 4026.436743
_symmetry_space_group_name_H-M "P M N A"
_symmetry_group_IT_number 53
_symmetry_cell_setting 'orthorhombic'
loop_
_space_group_symop_operation_xyz
x,y,z
1/2-x,-y,1/2+z
x,-y,-z
1/2-x,y,1/2-z
-x,-y,-z
1/2+x,y,1/2-z
-x,y,z
1/2+x,-y,1/2+z
loop_
_atom_site_type_symbol
_atom_site_label
_atom_site_fract_x
_atom_site_fract_y
_atom_site_fract_z
Si Si1 0.312285 0.936291 0.541557
Si Si2 0.684816 0.142767 0.144798
Si Si3 0.187980 0.607741 0.965252
Si Si4 0.686813 0.433941 0.647191
Si Si5 0.314809 0.771121 0.644552
Si Si6 0.184675 0.314746 0.354954
Si Si7 0.686590 0.979756 0.353148
Si Si8 0.813006 0.473715 0.146278
O O1 0.500000 0.932776 0.544016
O O2 0.237574 0.895271 0.581863
O O3 0.266785 0.948324 0.435813
O O4 0.269240 0.974998 0.607702
O O5 0.750000 0.137059 0.250000
O O6 0.500000 0.145336 0.150689
O O7 0.751557 0.185878 0.105570
O O8 0.263130 0.646747 0.916403
O O9 0.235005 0.565466 0.913533
O O10 0.000000 0.611384 0.959330
O O11 0.233603 0.599933 0.072028
O O12 0.750000 0.427079 0.750000
O O13 0.500000 0.434189 0.650268
O O14 0.735046 0.480251 0.615708
O O15 0.250000 0.770960 0.750000
O O16 0.500000 0.771227 0.645504
O O17 0.252404 0.728107 0.604988
O O18 0.250000 0.320277 0.250000
O O19 0.000000 0.311833 0.349253
O O20 0.750000 0.972266 0.250000
O O21 0.500000 0.978873 0.348932
O O22 0.750000 0.468407 0.250000
O O23 0.000000 0.473590 0.146799
#
# Coordination Sequence:
#
# PCOD9414684 Si02
#       8
#     8   8   8   8   8   8   8   8
#     4   9  18  32  46  66  94 127 163 201 240 280
#     4  11  20  30  46  70  97 126 158 194 232 275
#     4  10  19  31  47  67  91 121 155 187 224 270
#     4   9  18  32  48  65  88 118 153 193 231 266
#     4  10  18  31  49  68  93 124 153 184 225 274
#     4  11  21  33  48  69  97 124 151 184 223 272
#     4   9  18  31  47  65  93 128 164 203 243 281
#     4   9  17  29  45  65  90 120 151 184 223 265
#
# _framework density 15.894947999999999
#
# number of rings (size 3 to 8) (size 9 to 14) (size 15 to 20)
#    0.000    2.250    0.000    6.750    0.000    5.500 
#    0.000    1.250    0.000    3.750    0.000    0.875 
#    0.000    0.000    0.000    0.000    0.000    0.000 
#
# Total GULP energy -356864.845555 kJ/mol
# GULP energy per Si atom -5576.013212 kJ/mol
# Density = 1.585877 g / cm^3
# Si number density = 15.894948 Si / 1000 Ang^3
#
#
#
# Elastic Constant Matrix: (Units=GPa)
#
#
# Indices 1 2 3 4 5 6 
#
# 1 78.6912 54.0965 34.7587 0.0000 0.0000 0.0000
# 2 54.0965 141.3311 75.6963 0.0000 0.0000 0.0000
# 3 34.7587 75.6963 90.9115 0.0000 0.0000 0.0000
# 4 0.0000 0.0000 0.0000 23.6658 0.0000 0.0000
# 5 0.0000 0.0000 0.0000 0.0000 21.8365 0.0000
# 6 0.0000 0.0000 0.0000 0.0000 0.0000 27.4075
#
#
#
# Elastic Compliance Matrix: (Units=1/GPa)
#
#
# Indices 1 2 3 4 5 6 
#
# 1 0.017446 -0.005604 -0.002004 0.000000 0.000000 0.000000
# 2 -0.005604 0.014571 -0.009990 0.000000 0.000000 0.000000
# 3 -0.002004 -0.009990 0.020084 0.000000 0.000000 0.000000
# 4 0.000000 0.000000 0.000000 0.042255 0.000000 0.000000
# 5 0.000000 0.000000 0.000000 0.000000 0.045795 0.000000
# 6 0.000000 0.000000 0.000000 0.000000 0.000000 0.036486
#
#
# Mechanical properties :
#
#
# Convention : Reuss Voigt Hill
#
# Bulk Modulus (GPa) = 59.15461 71.11519 65.13490
# Shear Modulus (GPa) = 22.99194 24.34079 23.66637
#
# Velocity S-wave (km/s) = 3.80741 3.91750 3.86284
# Velocity P-wave (km/s) = 7.52497 8.08086 7.80786
#
# Compressibility (1/GPa) = 0.01690485
#
# Stress axis : x y z
#
# Youngs Moduli (GPa) = 57.32065 68.62834 49.79182
#
# Poissons Ratio (x) = 0.38462 0.09976
# Poissons Ratio (y) = 0.32125 0.49741
# Poissons Ratio (z) = 0.11485 0.68558
#
# Static dielectric constant tensor:
#      x y z
#    x 1.538690 0.000000 0.000000 
#    y 0.000000 1.548460 0.000000 
#    z 0.000000 0.000000 1.475720 
# 
# From -- ./inp_files/21068.got.cif
#   From: 2010.05.17/outbox.cif.g08.bks.cpg/sg53_11_cif.got.tgz:21068.got - 2010.06.03 12:45:16.
