data_PCOD9414097
_publ_section_title
;
Structure prediction by ZEFSAII (Michael W. Deem and Ramdas Pophale) SiO2 
 PCOD9414097
Probable space group: P M N A
;
_chemical_formula_sum "Si O2"
_cell_formula_units_Z 36
_cell_length_a 23.952406
_cell_length_b 7.921074
_cell_length_c 9.604136
_cell_angle_alpha 90.000000
_cell_angle_beta 90.000000
_cell_angle_gamma 90.000000
_cell_volume 1822.181010
_symmetry_space_group_name_H-M "P M N A"
_symmetry_group_IT_number 53
_symmetry_cell_setting 'orthorhombic'
loop_
_space_group_symop_operation_xyz
x,y,z
1/2-x,-y,1/2+z
x,-y,-z
1/2-x,y,1/2-z
-x,-y,-z
1/2+x,y,1/2-z
-x,y,z
1/2+x,-y,1/2+z
loop_
_atom_site_type_symbol
_atom_site_label
_atom_site_fract_x
_atom_site_fract_y
_atom_site_fract_z
Si Si1 0.500000 0.809681 0.426192
Si Si2 0.379147 0.749902 0.469920
Si Si3 0.794549 0.000000 0.500000
Si Si4 0.735990 0.652363 0.409797
Si Si5 0.500000 0.020308 0.165040
Si Si6 0.376937 0.928762 0.740736
O O1 0.444524 0.712346 0.469466
O O2 0.500000 0.851329 0.261306
O O3 0.500000 0.000000 0.500000
O O4 0.330860 0.636435 0.411504
O O5 0.361579 0.786737 0.629119
O O6 0.377799 0.909677 0.362856
O O7 0.756976 0.164585 0.534485
O O8 0.834401 0.041177 0.367202
O O9 0.760826 0.500000 0.500000
O O10 0.750000 0.640044 0.250000
O O11 0.440286 0.101691 0.205642
O O12 0.500000 0.000000 0.000000
#
# Coordination Sequence:
#
# PCOD9414097 Si02
#       6
#     4   8   4   8   4   8
#     4  10  16  30  57  90 120 155 206 259 308 378
#     4  10  19  37  59  87 128 162 210 260 318 379
#     4  12  24  39  66  93 126 168 220 256 322 380
#     4  12  29  45  64  95 130 170 217 268 319 379
#     4  10  16  26  48  92 136 151 207 268 312 369
#     4  10  18  32  59  94 123 166 210 262 314 383
#
# _framework density 19.756544000000002
#
# number of rings (size 3 to 8) (size 9 to 14) (size 15 to 20)
#    0.000    1.333    7.778    1.333    3.111    0.000 
#    0.000    0.556    0.000    0.000    0.000    3.889 
#    0.000    0.000    0.000    0.000    0.000    0.000 
#
# Total GULP energy -200535.698959 kJ/mol
# GULP energy per Si atom -5570.436082 kJ/mol
# Density = 1.971158 g / cm^3
# Si number density = 19.756544 Si / 1000 Ang^3
#
#
#
# Elastic Constant Matrix: (Units=GPa)
#
#
# Indices 1 2 3 4 5 6 
#
# 1 137.1338 29.8887 47.1400 0.0000 0.0000 0.0000
# 2 29.8887 80.3215 38.2230 0.0000 0.0000 0.0000
# 3 47.1400 38.2230 160.5389 0.0000 0.0000 0.0000
# 4 0.0000 0.0000 0.0000 10.3673 0.0000 0.0000
# 5 0.0000 0.0000 0.0000 0.0000 -37.3720 0.0000
# 6 0.0000 0.0000 0.0000 0.0000 0.0000 7.4359
#
#
#
# Elastic Compliance Matrix: (Units=1/GPa)
#
#
# Indices 1 2 3 4 5 6 
#
# 1 0.008446 -0.002213 -0.001953 0.000000 0.000000 0.000000
# 2 -0.002213 0.014621 -0.002831 0.000000 0.000000 0.000000
# 3 -0.001953 -0.002831 0.007477 0.000000 0.000000 0.000000
# 4 0.000000 0.000000 0.000000 0.096457 0.000000 0.000000
# 5 0.000000 0.000000 0.000000 0.000000 -0.026758 0.000000
# 6 0.000000 0.000000 0.000000 0.000000 0.000000 0.134482
#
#
# Mechanical properties :
#
#
# Convention : Reuss Voigt Hill
#
# Bulk Modulus (GPa) = 60.42980 67.61085 64.02032
# Shear Modulus (GPa) = 19.66673 13.60239 16.63456
#
# Velocity S-wave (km/s) = 3.15850 2.62678 2.90483
# Velocity P-wave (km/s) = 6.62987 6.59517 6.61254
#
# Compressibility (1/GPa) = 0.01654813
#
# Stress axis : x y z
#
# Youngs Moduli (GPa) = 118.40015 68.39517 133.75095
#
# Poissons Ratio (x) = 0.15139 0.26122
# Poissons Ratio (y) = 0.26207 0.37867
# Poissons Ratio (z) = 0.23124 0.19364
#
# Static dielectric constant tensor:
#      x y z
#    x 1.744130 0.000000 0.000000 
#    y 0.000000 1.769520 0.000000 
#    z 0.000000 0.000000 1.671160 
# 
# From -- ./inp_files/12218.got.cif
#   From: 2010.05.17/outbox.cif.g08.bks.cpg/sg53_7_cif.got.tgz:12218.got - 2010.06.03 12:45:16.
