data_PCOD9414765
_publ_section_title
;
Structure prediction by ZEFSAII (Michael W. Deem and Ramdas Pophale) SiO2 
 PCOD9414765
Probable space group: P M N A
;
_chemical_formula_sum "Si O2"
_cell_formula_units_Z 48
_cell_length_a 14.787294
_cell_length_b 9.814694
_cell_length_c 17.315616
_cell_angle_alpha 90.000000
_cell_angle_beta 90.000000
_cell_angle_gamma 90.000000
_cell_volume 2513.063240
_symmetry_space_group_name_H-M "P M N A"
_symmetry_group_IT_number 53
_symmetry_cell_setting 'orthorhombic'
loop_
_space_group_symop_operation_xyz
x,y,z
1/2-x,-y,1/2+z
x,-y,-z
1/2-x,y,1/2-z
-x,-y,-z
1/2+x,y,1/2-z
-x,y,z
1/2+x,-y,1/2+z
loop_
_atom_site_type_symbol
_atom_site_label
_atom_site_fract_x
_atom_site_fract_y
_atom_site_fract_z
Si Si1 0.898644 0.317209 0.142145
Si Si2 0.400612 0.108495 0.221064
Si Si3 0.606985 0.845502 0.031734
Si Si4 0.157767 0.810157 0.297126
Si Si5 0.601591 0.504738 0.211128
Si Si6 0.298387 0.297806 0.106225
O O1 0.898422 0.184445 0.197382
O O2 0.884490 0.438493 0.204557
O O3 0.808735 0.307348 0.091318
O O4 0.000000 0.330366 0.108027
O O5 0.500000 0.135946 0.184913
O O6 0.324692 0.177128 0.167170
O O7 0.390380 0.948244 0.229893
O O8 0.500000 0.823065 0.047127
O O9 0.662315 0.829760 0.110657
O O10 0.645225 0.739935 0.969321
O O11 0.616384 0.000000 0.000000
O O12 0.250000 0.803256 0.250000
O O13 0.110191 0.665839 0.284987
O O14 0.500000 0.466098 0.187364
O O15 0.668302 0.433568 0.150304
#
# Coordination Sequence:
#
# PCOD9414765 Si02
#       6
#     8   8   8   8   8   8
#     4   9  19  34  56  83 112 152 198 241 280 340
#     4  10  18  31  53  82 113 149 193 237 284 337
#     4  11  23  38  59  88 120 150 191 245 299 348
#     4  12  23  36  55  83 119 157 190 232 288 352
#     4  10  20  35  57  87 121 154 196 243 289 340
#     4  11  19  35  58  83 114 153 192 237 294 351
#
# _framework density 19.100194999999999
#
# number of rings (size 3 to 8) (size 9 to 14) (size 15 to 20)
#    0.000    1.500    1.667    8.000    0.000    0.667 
#    0.000    1.667    0.000    3.500    0.000    3.500 
#    0.000    0.000    0.000    0.000    0.000    0.000 
#
# Total GULP energy -267864.605129 kJ/mol
# GULP energy per Si atom -5580.512607 kJ/mol
# Density = 1.905672 g / cm^3
# Si number density = 19.100195 Si / 1000 Ang^3
#
#
#
# Elastic Constant Matrix: (Units=GPa)
#
#
# Indices 1 2 3 4 5 6 
#
# 1 129.3573 7.7095 33.9282 0.0000 0.0000 0.0000
# 2 7.7095 127.1924 6.2168 0.0000 0.0000 0.0000
# 3 33.9282 6.2168 46.7401 0.0000 0.0000 0.0000
# 4 0.0000 0.0000 0.0000 4.4915 0.0000 0.0000
# 5 0.0000 0.0000 0.0000 0.0000 24.3681 0.0000
# 6 0.0000 0.0000 0.0000 0.0000 0.0000 32.7626
#
#
#
# Elastic Compliance Matrix: (Units=1/GPa)
#
#
# Indices 1 2 3 4 5 6 
#
# 1 0.009556 -0.000242 -0.006904 0.000000 0.000000 0.000000
# 2 -0.000242 0.007920 -0.000878 0.000000 0.000000 0.000000
# 3 -0.006904 -0.000878 0.026523 0.000000 0.000000 0.000000
# 4 0.000000 0.000000 0.000000 0.222645 0.000000 0.000000
# 5 0.000000 0.000000 0.000000 0.000000 0.041037 0.000000
# 6 0.000000 0.000000 0.000000 0.000000 0.000000 0.030523
#
#
# Mechanical properties :
#
#
# Convention : Reuss Voigt Hill
#
# Bulk Modulus (GPa) = 35.77686 44.33320 40.05503
# Shear Modulus (GPa) = 13.75256 29.35344 21.55300
#
# Velocity S-wave (km/s) = 2.68623 3.92447 3.36284
# Velocity P-wave (km/s) = 5.32850 6.61790 6.00789
#
# Compressibility (1/GPa) = 0.02795103
#
# Stress axis : x y z
#
# Youngs Moduli (GPa) = 104.64817 126.26791 37.70241
#
# Poissons Ratio (x) = 0.03052 0.26031
# Poissons Ratio (y) = 0.02530 0.03310
# Poissons Ratio (z) = 0.72253 0.11085
#
# Static dielectric constant tensor:
#      x y z
#    x 1.732860 0.000000 0.000000 
#    y 0.000000 1.678310 0.000000 
#    z 0.000000 0.000000 1.652110 
# 
# From -- ./inp_files/28287.got.cif
#   From: 2010.05.17/outbox.cif.g08.bks.cpg/sg53_15_cif.got.tgz:28287.got - 2010.06.03 12:45:16.
