data_PCOD9414002
_publ_section_title
;
Structure prediction by ZEFSAII (Michael W. Deem and Ramdas Pophale) SiO2 
 PCOD9414002
Probable space group: P N N A
;
_chemical_formula_sum "Si O2"
_cell_formula_units_Z 48
_cell_length_a 15.000000
_cell_length_b 18.000000
_cell_length_c 9.000000
_cell_angle_alpha 90.000000
_cell_angle_beta 90.000000
_cell_angle_gamma 90.000000
_cell_volume 2430.000000
_symmetry_space_group_name_H-M "P N N A"
_symmetry_group_IT_number 52
_symmetry_cell_setting 'orthorhombic'
loop_
_space_group_symop_operation_xyz
x,y,z
1/2-x,-y,z
x,1/2-y,1/2-z
1/2-x,1/2+y,1/2-z
-x,-y,-z
1/2+x,y,-z
-x,1/2+y,1/2+z
1/2+x,1/2-y,1/2+z
loop_
_atom_site_type_symbol
_atom_site_label
_atom_site_fract_x
_atom_site_fract_y
_atom_site_fract_z
Si Si1 0.750000 0.500000 0.790771
Si Si2 0.431641 0.567763 0.647124
Si Si3 0.068402 0.434326 0.319898
Si Si4 0.981527 0.190866 0.380443
Si Si5 0.702118 0.881845 0.466764
Si Si6 0.378858 0.692145 0.877485
Si Si7 0.250000 0.000000 0.782568
O O1 0.829365 0.542010 0.705932
O O2 0.703428 0.561775 0.895626
O O3 0.447385 0.600600 0.483399
O O4 0.508057 0.508390 0.681566
O O5 0.419581 0.623012 0.784743
O O6 0.336353 0.526764 0.631049
O O7 0.032751 0.379194 0.193711
O O8 0.966332 0.250000 0.250000
O O9 0.888128 0.163800 0.448604
O O10 0.046203 0.219871 0.509774
O O11 0.790780 0.831667 0.466876
O O12 0.715438 0.933627 0.322075
O O13 0.353307 0.750000 0.750000
#
# Coordination Sequence:
#
# PCOD9414002 Si02
#       7
#     4   8   8   8   8   8   4
#     4  11  21  38  66  98 128 160 210 280 318 372
#     4  10  21  37  62  91 125 163 205 262 316 380
#     4  11  22  38  62  96 127 160 212 263 320 374
#     4  12  24  41  64  91 128 170 214 264 316 385
#     4  10  21  37  64  93 120 161 211 256 317 381
#     4  11  23  42  62  87 125 170 212 258 319 383
#     4   9  17  34  60  90 118 158 200 250 310 366
#
# _framework density 19.753086
#
# number of rings (size 3 to 8) (size 9 to 14) (size 15 to 20)
#    0.000    1.333    3.333    3.000    0.000    1.333 
#    0.000    0.833    0.000    0.000    0.000    0.000 
#    0.000    0.000    0.000    0.000    0.000    0.000 
#
# Total GULP energy -268015.174147 kJ/mol
# GULP energy per Si atom -5583.649461 kJ/mol
# Density = 1.970813 g / cm^3
# Si number density = 19.753086 Si / 1000 Ang^3
#
#
#
# Elastic Constant Matrix: (Units=GPa)
#
#
# Indices 1 2 3 4 5 6 
#
# 1 88.2425 32.1772 15.0595 0.0000 0.0000 0.0000
# 2 32.1772 59.8056 14.8547 0.0000 0.0000 0.0000
# 3 15.0595 14.8547 60.0572 0.0000 0.0000 0.0000
# 4 0.0000 0.0000 0.0000 24.5385 0.0000 0.0000
# 5 0.0000 0.0000 0.0000 0.0000 -3.3254 0.0000
# 6 0.0000 0.0000 0.0000 0.0000 0.0000 13.4253
#
#
#
# Elastic Compliance Matrix: (Units=1/GPa)
#
#
# Indices 1 2 3 4 5 6 
#
# 1 0.014277 -0.007237 -0.001790 0.000000 0.000000 0.000000
# 2 -0.007237 0.021484 -0.003499 0.000000 0.000000 0.000000
# 3 -0.001790 -0.003499 0.017965 0.000000 0.000000 0.000000
# 4 0.000000 0.000000 0.000000 0.040752 0.000000 0.000000
# 5 0.000000 0.000000 0.000000 0.000000 -0.300719 0.000000
# 6 0.000000 0.000000 0.000000 0.000000 0.000000 0.074486
#
#
# Mechanical properties :
#
#
# Convention : Reuss Voigt Hill
#
# Bulk Modulus (GPa) = 34.87521 36.92092 35.89806
# Shear Modulus (GPa) = -51.46921 16.66194 -17.40364
#
# Velocity S-wave (km/s) = -5.11007 2.90748 -2.97148
# Velocity P-wave (km/s) = 4.13802 5.47750 2.53769
#
# Compressibility (1/GPa) = 0.02867367
#
# Stress axis : x y z
#
# Youngs Moduli (GPa) = 70.04407 46.54721 55.66338
#
# Poissons Ratio (x) = 0.33685 0.09964
# Poissons Ratio (y) = 0.50689 0.19478
# Poissons Ratio (z) = 0.12538 0.16288
#
# Static dielectric constant tensor:
#      x y z
#    x 1.657800 0.000000 0.000000 
#    y 0.000000 1.709550 0.000000 
#    z 0.000000 0.000000 1.676930 
# 
# From -- ./inp_files/10530.got.cif
#   From: 2010.05.17/outbox.ucp.g08.bks.cvg/sg52_6_cif.got.tgz:10530.got - 2010.06.11 16:30:12.
