data_PCOD9414109
_publ_section_title
;
Structure prediction by ZEFSAII (Michael W. Deem and Ramdas Pophale) SiO2 
 PCOD9414109
Probable space group: P M N A
;
_chemical_formula_sum "Si O2"
_cell_formula_units_Z 44
_cell_length_a 13.991335
_cell_length_b 17.747403
_cell_length_c 9.710055
_cell_angle_alpha 90.000000
_cell_angle_beta 90.000000
_cell_angle_gamma 90.000000
_cell_volume 2411.102405
_symmetry_space_group_name_H-M "P M N A"
_symmetry_group_IT_number 53
_symmetry_cell_setting 'orthorhombic'
loop_
_space_group_symop_operation_xyz
x,y,z
1/2-x,-y,1/2+z
x,-y,-z
1/2-x,y,1/2-z
-x,-y,-z
1/2+x,y,1/2-z
-x,y,z
1/2+x,-y,1/2+z
loop_
_atom_site_type_symbol
_atom_site_label
_atom_site_fract_x
_atom_site_fract_y
_atom_site_fract_z
Si Si1 0.747023 0.424675 0.913092
Si Si2 0.888829 0.292500 0.872217
Si Si3 0.732735 0.170191 0.485754
Si Si4 0.250000 0.934127 0.250000
Si Si5 0.613700 0.288835 0.952735
Si Si6 0.390696 0.953033 0.644073
O O1 0.750000 0.443191 0.750000
O O2 0.834193 0.366212 0.923636
O O3 0.656804 0.373595 0.963723
O O4 0.754860 0.500000 0.000000
O O5 0.851517 0.224047 0.961363
O O6 0.867775 0.274790 0.711180
O O7 0.000000 0.303816 0.883503
O O8 0.756941 0.116284 0.614305
O O9 0.823039 0.226820 0.464850
O O10 0.682072 0.116578 0.374436
O O11 0.157387 0.987829 0.247007
O O12 0.500000 0.284941 0.979211
O O13 0.500000 0.931705 0.676766
O O14 0.392834 0.000000 0.500000
#
# Coordination Sequence:
#
# PCOD9414109 Si02
#       6
#     8   8   8   4   8   8
#     4   9  18  32  50  76 105 133 167 211 260 314
#     4   9  16  28  50  75  96 125 166 213 258 302
#     4  10  16  30  49  72  96 127 169 214 255 302
#     4  10  18  30  46  72 100 126 160 210 260 310
#     4   9  17  29  49  74  97 127 166 209 258 304
#     4   9  19  31  47  70  95 127 163 201 254 311
#
# _framework density 18.248913000000002
#
# number of rings (size 3 to 8) (size 9 to 14) (size 15 to 20)
#    0.000    2.727    1.818    1.636    0.000    2.182 
#    0.000    0.909    8.000    3.273    0.000    0.000 
#    0.000    0.000    0.000    0.000    0.000    0.000 
#
# Total GULP energy -244984.318319 kJ/mol
# GULP energy per Si atom -5567.825416 kJ/mol
# Density = 1.820738 g / cm^3
# Si number density = 18.248913 Si / 1000 Ang^3
#
#
#
# Elastic Constant Matrix: (Units=GPa)
#
#
# Indices 1 2 3 4 5 6 
#
# 1 100.8690 37.5972 16.3498 0.0000 0.0000 0.0000
# 2 37.5972 120.4310 36.9790 0.0000 0.0000 0.0000
# 3 16.3498 36.9790 17.6525 0.0000 0.0000 0.0000
# 4 0.0000 0.0000 0.0000 15.4819 0.0000 0.0000
# 5 0.0000 0.0000 0.0000 0.0000 16.3850 0.0000
# 6 0.0000 0.0000 0.0000 0.0000 0.0000 0.4888
#
#
#
# Elastic Compliance Matrix: (Units=1/GPa)
#
#
# Indices 1 2 3 4 5 6 
#
# 1 0.011701 -0.000911 -0.008928 0.000000 0.000000 0.000000
# 2 -0.000911 0.023345 -0.048060 0.000000 0.000000 0.000000
# 3 -0.008928 -0.048060 0.165595 0.000000 0.000000 0.000000
# 4 0.000000 0.000000 0.000000 0.064592 0.000000 0.000000
# 5 0.000000 0.000000 0.000000 0.000000 0.061031 0.000000
# 6 0.000000 0.000000 0.000000 0.000000 0.000000 2.045791
#
#
# Mechanical properties :
#
#
# Convention : Reuss Voigt Hill
#
# Bulk Modulus (GPa) = 11.78649 46.75605 29.27127
# Shear Modulus (GPa) = 1.98718 16.33957 9.16337
#
# Velocity S-wave (km/s) = 1.04465 2.99552 2.24326
# Velocity P-wave (km/s) = 2.81564 6.13524 4.77331
#
# Compressibility (1/GPa) = 0.08484290
#
# Stress axis : x y z
#
# Youngs Moduli (GPa) = 85.46499 42.83554 6.03882
#
# Poissons Ratio (x) = 0.03904 0.05391
# Poissons Ratio (y) = 0.07790 0.29022
# Poissons Ratio (z) = 0.76301 2.05867
#
# Static dielectric constant tensor:
#      x y z
#    x 1.646630 0.000000 0.000000 
#    y 0.000000 1.625160 0.000000 
#    z 0.000000 0.000000 1.655520 
# 
# From -- ./inp_files/15871.got.cif
#   From: 2010.05.17/outbox.cif.g08.bks.cpg/sg53_8_cif.got.tgz:15871.got - 2010.06.03 12:45:16.
