data_PCOD9414920
_publ_section_title
;
Structure prediction by ZEFSAII (Michael W. Deem and Ramdas Pophale) SiO2 
 PCOD9414920
Probable space group: P M N A
;
_chemical_formula_sum "Si O2"
_cell_formula_units_Z 64
_cell_length_a 8.596865
_cell_length_b 21.103910
_cell_length_c 19.949211
_cell_angle_alpha 90.000000
_cell_angle_beta 90.000000
_cell_angle_gamma 90.000000
_cell_volume 3619.334785
_symmetry_space_group_name_H-M "P M N A"
_symmetry_group_IT_number 53
_symmetry_cell_setting 'orthorhombic'
loop_
_space_group_symop_operation_xyz
x,y,z
1/2-x,-y,1/2+z
x,-y,-z
1/2-x,y,1/2-z
-x,-y,-z
1/2+x,y,1/2-z
-x,y,z
1/2+x,-y,1/2+z
loop_
_atom_site_type_symbol
_atom_site_label
_atom_site_fract_x
_atom_site_fract_y
_atom_site_fract_z
Si Si1 0.686243 0.687936 0.042270
Si Si2 0.188300 0.191882 0.038710
Si Si3 0.812615 0.883561 0.177231
Si Si4 0.312998 0.244994 0.321507
Si Si5 0.813778 0.264443 0.822728
Si Si6 0.186239 0.392397 0.177596
Si Si7 0.812029 0.563111 0.539181
Si Si8 0.809964 0.935836 0.036100
O O1 0.500000 0.689116 0.042477
O O2 0.747230 0.693158 0.117840
O O3 0.749786 0.749425 0.004003
O O4 0.737933 0.625076 0.002838
O O5 0.237628 0.203350 0.115350
O O6 0.000000 0.193820 0.036239
O O7 0.237975 0.125656 0.006570
O O8 0.750000 0.903136 0.250000
O O9 0.767331 0.809637 0.165934
O O10 0.760731 0.924549 0.113185
O O11 0.000000 0.885197 0.179551
O O12 0.250000 0.223418 0.250000
O O13 0.500000 0.244693 0.319305
O O14 0.263521 0.318470 0.331704
O O15 0.750000 0.282672 0.750000
O O16 0.000000 0.266868 0.823316
O O17 0.250000 0.413119 0.250000
O O18 0.247941 0.431117 0.114292
O O19 0.000000 0.393995 0.178734
O O20 0.762957 0.500000 0.500000
O O21 0.000000 0.563312 0.542627
O O22 0.000000 0.936850 0.036729
O O23 0.757410 0.000000 0.000000
#
# Coordination Sequence:
#
# PCOD9414920 Si02
#       8
#     8   8   8   8   8   8   8   8
#     4  11  21  33  54  81 106 136 173 216 267 317
#     4  10  18  33  53  76 104 136 176 221 263 309
#     4   9  17  30  50  74 100 133 170 214 258 305
#     4   9  18  30  49  75 105 136 169 216 265 310
#     4  10  19  33  53  79 109 138 174 220 268 315
#     4  10  19  33  55  81 108 139 178 220 267 321
#     4  10  22  39  56  78 110 144 179 221 267 318
#     4   9  17  31  52  76 102 137 181 217 255 310
#
# _framework density 17.682808000000001
#
# number of rings (size 3 to 8) (size 9 to 14) (size 15 to 20)
#    0.000    2.250    2.500    1.125    0.000    2.250 
#    0.000    1.250    0.000    1.500    0.000    0.000 
#    0.000    0.000    0.000    0.000    0.000    0.000 
#
# Total GULP energy -357051.202176 kJ/mol
# GULP energy per Si atom -5578.925034 kJ/mol
# Density = 1.764256 g / cm^3
# Si number density = 17.682808 Si / 1000 Ang^3
#
#
#
# Elastic Constant Matrix: (Units=GPa)
#
#
# Indices 1 2 3 4 5 6 
#
# 1 10.2803 22.4497 28.9793 0.0000 0.0000 0.0000
# 2 22.4497 110.5099 85.4341 0.0000 0.0000 0.0000
# 3 28.9793 85.4341 196.8389 0.0000 0.0000 0.0000
# 4 0.0000 0.0000 0.0000 28.7807 0.0000 0.0000
# 5 0.0000 0.0000 0.0000 0.0000 33.3594 0.0000
# 6 0.0000 0.0000 0.0000 0.0000 0.0000 14.5161
#
#
#
# Elastic Compliance Matrix: (Units=1/GPa)
#
#
# Indices 1 2 3 4 5 6 
#
# 1 0.213372 -0.028686 -0.018963 0.000000 0.000000 0.000000
# 2 -0.028686 0.017475 -0.003362 0.000000 0.000000 0.000000
# 3 -0.018963 -0.003362 0.009331 0.000000 0.000000 0.000000
# 4 0.000000 0.000000 0.000000 0.034746 0.000000 0.000000
# 5 0.000000 0.000000 0.000000 0.000000 0.029977 0.000000
# 6 0.000000 0.000000 0.000000 0.000000 0.000000 0.068889
#
#
# Mechanical properties :
#
#
# Convention : Reuss Voigt Hill
#
# Bulk Modulus (GPa) = 7.23811 65.70614 36.47213
# Shear Modulus (GPa) = 9.58107 27.38228 18.48168
#
# Velocity S-wave (km/s) = 2.33025 3.93940 3.23643
# Velocity P-wave (km/s) = 3.36783 7.61122 5.88528
#
# Compressibility (1/GPa) = 0.13815769
#
# Stress axis : x y z
#
# Youngs Moduli (GPa) = 4.68665 57.22405 107.16872
#
# Poissons Ratio (x) = 1.64152 2.03222
# Poissons Ratio (y) = 0.13444 0.36025
# Poissons Ratio (z) = 0.08887 0.19236
#
# Static dielectric constant tensor:
#      x y z
#    x 1.601860 0.000000 0.000000 
#    y 0.000000 1.588670 0.000000 
#    z 0.000000 0.000000 1.609130 
# 
# From -- ./inp_files/31181.got.cif
#   From: 2010.05.17/outbox.cif.g08.bks.cpg/sg53_16_cif.got.tgz:31181.got - 2010.06.03 12:45:16.
