data_PCOD9414194
_publ_section_title
;
Structure prediction by ZEFSAII (Michael W. Deem and Ramdas Pophale) SiO2 
 PCOD9414194
Probable space group: P M N A
;
_chemical_formula_sum "Si O2"
_cell_formula_units_Z 64
_cell_length_a 9.274548
_cell_length_b 20.571874
_cell_length_c 22.931483
_cell_angle_alpha 90.000000
_cell_angle_beta 90.000000
_cell_angle_gamma 90.000000
_cell_volume 4375.208466
_symmetry_space_group_name_H-M "P M N A"
_symmetry_group_IT_number 53
_symmetry_cell_setting 'orthorhombic'
loop_
_space_group_symop_operation_xyz
x,y,z
1/2-x,-y,1/2+z
x,-y,-z
1/2-x,y,1/2-z
-x,-y,-z
1/2+x,y,1/2-z
-x,y,z
1/2+x,-y,1/2+z
loop_
_atom_site_type_symbol
_atom_site_label
_atom_site_fract_x
_atom_site_fract_y
_atom_site_fract_z
Si Si1 0.330307 0.902875 0.601443
Si Si2 0.328740 0.849480 0.470680
Si Si3 0.832666 0.410834 0.946272
Si Si4 0.169158 0.714998 0.473402
Si Si5 0.665949 0.026227 0.933083
Si Si6 0.830630 0.321929 0.389539
Si Si7 0.667574 0.552180 0.583934
Si Si8 0.672668 0.785014 0.687940
O O1 0.500000 0.919660 0.602748
O O2 0.304030 0.868011 0.538942
O O3 0.299151 0.851113 0.651738
O O4 0.237527 0.968291 0.603520
O O5 0.500000 0.846756 0.461446
O O6 0.254919 0.780508 0.459337
O O7 0.256735 0.907567 0.434019
O O8 0.788774 0.476504 0.912379
O O9 0.000000 0.396557 0.932472
O O10 0.734937 0.347485 0.940647
O O11 0.828792 0.429998 0.014964
O O12 0.185162 0.700899 0.542960
O O13 0.000000 0.722434 0.461453
O O14 0.500000 0.037518 0.917130
O O15 0.668779 0.000000 0.000000
O O16 0.767982 0.394875 0.385730
O O17 0.739254 0.273859 0.349385
O O18 0.000000 0.319623 0.375054
O O19 0.500000 0.558447 0.602178
O O20 0.750000 0.787400 0.750000
O O21 0.500000 0.777570 0.693484
#
# Coordination Sequence:
#
# PCOD9414194 Si02
#       8
#     8   8   8   8   8   8   8   8
#     4   9  18  31  45  59  77 105 138 172 210 255
#     4  10  17  27  42  59  81 110 142 171 205 251
#     4   8  14  24  37  54  76 105 138 168 201 241
#     4  10  18  25  37  58  84 110 139 174 209 244
#     4   9  17  27  41  61  82 103 131 169 209 248
#     4  10  19  29  42  59  79 106 138 175 216 254
#     4   8  14  25  40  55  74 102 137 172 203 242
#     4  11  22  35  48  63  82 107 142 182 221 258
#
# _framework density 14.627875
#
# number of rings (size 3 to 8) (size 9 to 14) (size 15 to 20)
#    0.000    2.625    1.250    2.625    0.000    4.500 
#    0.000    2.500    0.000    0.000    0.000    0.000 
#    0.000    0.000    0.000    1.125    0.000   17.500 
#
# Total GULP energy -356538.691274 kJ/mol
# GULP energy per Si atom -5570.917051 kJ/mol
# Density = 1.459458 g / cm^3
# Si number density = 14.627875 Si / 1000 Ang^3
#
#
#
# Elastic Constant Matrix: (Units=GPa)
#
#
# Indices 1 2 3 4 5 6 
#
# 1 101.9104 95.6378 30.2353 0.0000 0.0000 0.0000
# 2 95.6378 149.5355 29.1836 0.0000 0.0000 0.0000
# 3 30.2353 29.1836 29.8219 0.0000 0.0000 0.0000
# 4 0.0000 0.0000 0.0000 6.8709 0.0000 0.0000
# 5 0.0000 0.0000 0.0000 0.0000 13.9396 0.0000
# 6 0.0000 0.0000 0.0000 0.0000 0.0000 25.2697
#
#
#
# Elastic Compliance Matrix: (Units=1/GPa)
#
#
# Indices 1 2 3 4 5 6 
#
# 1 0.028413 -0.015513 -0.013626 0.000000 0.000000 0.000000
# 2 -0.015513 0.016736 -0.000649 0.000000 0.000000 0.000000
# 3 -0.013626 -0.000649 0.047983 0.000000 0.000000 0.000000
# 4 0.000000 0.000000 0.000000 0.145541 0.000000 0.000000
# 5 0.000000 0.000000 0.000000 0.000000 0.071738 0.000000
# 6 0.000000 0.000000 0.000000 0.000000 0.000000 0.039573
#
#
# Mechanical properties :
#
#
# Convention : Reuss Voigt Hill
#
# Bulk Modulus (GPa) = 29.80209 65.70903 47.75556
# Shear Modulus (GPa) = 11.88363 17.63012 14.75687
#
# Velocity S-wave (km/s) = 2.85335 3.47542 3.17964
# Velocity P-wave (km/s) = 5.59224 7.81810 6.79691
#
# Compressibility (1/GPa) = 0.03355469
#
# Stress axis : x y z
#
# Youngs Moduli (GPa) = 35.19474 59.75283 20.84060
#
# Poissons Ratio (x) = 0.92694 0.28398
# Poissons Ratio (y) = 0.54597 0.01354
# Poissons Ratio (z) = 0.47958 0.03881
#
# Static dielectric constant tensor:
#      x y z
#    x 1.485740 0.000000 0.000000 
#    y 0.000000 1.487580 0.000000 
#    z 0.000000 0.000000 1.449650 
# 
# From -- ./inp_files/31330.got.cif
#   From: 2010.05.17/outbox.cif.g08.bks.cpg/sg53_16_cif.got.tgz:31330.got - 2010.06.03 12:45:16.
