data_PCOD9414423
_publ_section_title
;
Structure prediction by ZEFSAII (Michael W. Deem and Ramdas Pophale) SiO2 
 PCOD9414423
Probable space group: P M N A
;
_chemical_formula_sum "Si O2"
_cell_formula_units_Z 64
_cell_length_a 14.208190
_cell_length_b 9.745708
_cell_length_c 29.791153
_cell_angle_alpha 90.000000
_cell_angle_beta 90.000000
_cell_angle_gamma 90.000000
_cell_volume 4125.147320
_symmetry_space_group_name_H-M "P M N A"
_symmetry_group_IT_number 53
_symmetry_cell_setting 'orthorhombic'
loop_
_space_group_symop_operation_xyz
x,y,z
1/2-x,-y,1/2+z
x,-y,-z
1/2-x,y,1/2-z
-x,-y,-z
1/2+x,y,1/2-z
-x,y,z
1/2+x,-y,1/2+z
loop_
_atom_site_type_symbol
_atom_site_label
_atom_site_fract_x
_atom_site_fract_y
_atom_site_fract_z
Si Si1 0.113200 0.155931 0.430269
Si Si2 0.114492 0.844569 0.406506
Si Si3 0.110006 0.905435 0.727603
Si Si4 0.385830 0.804744 0.196596
Si Si5 0.113854 0.347455 0.514545
Si Si6 0.702949 0.290933 0.155707
Si Si7 0.891259 0.686869 0.802793
Si Si8 0.613588 0.505189 0.219129
O O1 0.134182 0.232385 0.476854
O O2 0.162825 0.242404 0.391282
O O3 0.000000 0.161827 0.423732
O O4 0.140325 0.995276 0.425832
O O5 0.145547 0.828179 0.354874
O O6 0.146250 0.719222 0.438370
O O7 0.000000 0.842013 0.406422
O O8 0.137375 0.063372 0.726306
O O9 0.000000 0.893337 0.712810
O O10 0.172284 0.824593 0.691828
O O11 0.115275 0.829022 0.774903
O O12 0.500000 0.797771 0.195006
O O13 0.353927 0.661204 0.216791
O O14 0.147542 0.500000 0.500000
O O15 0.000000 0.358143 0.517380
O O16 0.814692 0.310931 0.158382
O O17 0.654029 0.425418 0.176279
O O18 0.862386 0.573634 0.765222
O O19 0.000000 0.665011 0.815594
O O20 0.500000 0.497817 0.216456
#
# Coordination Sequence:
#
# PCOD9414423 Si02
#       8
#     8   8   8   8   8   8   8   8
#     4  10  18  28  44  64  88 118 147 174 207 253
#     4   9  16  27  40  59  89 121 147 167 197 244
#     4   9  15  27  44  64  87 113 142 174 210 256
#     4   9  16  25  41  64  90 119 146 172 204 248
#     4   9  18  28  40  60  89 123 148 167 198 244
#     4  11  18  28  44  63  83 111 153 184 217 254
#     4   9  19  33  45  57  81 115 150 188 227 259
#     4   9  17  27  42  63  88 116 143 177 215 255
#
# _framework density 15.514597
#
# number of rings (size 3 to 8) (size 9 to 14) (size 15 to 20)
#    0.000    2.625    1.250    3.750    1.750    1.500 
#    0.000    2.500    0.000    0.000    0.000    0.000 
#    0.000    2.500    0.000    0.000    0.000    0.125 
#
# Total GULP energy -356497.895222 kJ/mol
# GULP energy per Si atom -5570.279613 kJ/mol
# Density = 1.547929 g / cm^3
# Si number density = 15.514597 Si / 1000 Ang^3
#
#
#
# Elastic Constant Matrix: (Units=GPa)
#
#
# Indices 1 2 3 4 5 6 
#
# 1 37.6004 4.6095 9.7495 0.0000 0.0000 0.0000
# 2 4.6095 113.5204 12.0398 0.0000 0.0000 0.0000
# 3 9.7495 12.0398 25.6028 0.0000 0.0000 0.0000
# 4 0.0000 0.0000 0.0000 8.4739 0.0000 0.0000
# 5 0.0000 0.0000 0.0000 0.0000 12.0930 0.0000
# 6 0.0000 0.0000 0.0000 0.0000 0.0000 -1.6071
#
#
#
# Elastic Compliance Matrix: (Units=1/GPa)
#
#
# Indices 1 2 3 4 5 6 
#
# 1 0.029509 -0.000007 -0.011234 0.000000 0.000000 0.000000
# 2 -0.000007 0.009271 -0.004357 0.000000 0.000000 0.000000
# 3 -0.011234 -0.004357 0.045385 0.000000 0.000000 0.000000
# 4 0.000000 0.000000 0.000000 0.118010 0.000000 0.000000
# 5 0.000000 0.000000 0.000000 0.000000 0.082693 0.000000
# 6 0.000000 0.000000 0.000000 0.000000 0.000000 -0.622221
#
#
# Mechanical properties :
#
#
# Convention : Reuss Voigt Hill
#
# Bulk Modulus (GPa) = 18.87871 25.50237 22.19054
# Shear Modulus (GPa) = -17.33098 13.81359 -1.75870
#
# Velocity S-wave (km/s) = -3.34589 2.98713 -1.06585
# Velocity P-wave (km/s) = 1.65285 5.32641 3.58041
#
# Compressibility (1/GPa) = 0.05296972
#
# Stress axis : x y z
#
# Youngs Moduli (GPa) = 33.88779 107.85871 22.03370
#
# Poissons Ratio (x) = 0.00073 0.24752
# Poissons Ratio (y) = 0.00023 0.09601
# Poissons Ratio (z) = 0.38069 0.46997
#
# Static dielectric constant tensor:
#      x y z
#    x 1.513170 0.000000 0.000000 
#    y 0.000000 1.558390 0.000000 
#    z 0.000000 0.000000 1.509920 
# 
# From -- ./inp_files/38975.got.cif
#   From: 2010.05.17/outbox.cif.g08.bks.cpg/sg53_20_cif.got.tgz:38975.got - 2010.06.03 12:45:16.
