data_PCOD9414325
_publ_section_title
;
Structure prediction by ZEFSAII (Michael W. Deem and Ramdas Pophale) SiO2 
 PCOD9414325
Probable space group: P M N A
;
_chemical_formula_sum "Si O2"
_cell_formula_units_Z 36
_cell_length_a 14.468050
_cell_length_b 11.640526
_cell_length_c 10.799416
_cell_angle_alpha 90.000000
_cell_angle_beta 90.000000
_cell_angle_gamma 90.000000
_cell_volume 1818.791337
_symmetry_space_group_name_H-M "P M N A"
_symmetry_group_IT_number 53
_symmetry_cell_setting 'orthorhombic'
loop_
_space_group_symop_operation_xyz
x,y,z
1/2-x,-y,1/2+z
x,-y,-z
1/2-x,y,1/2-z
-x,-y,-z
1/2+x,y,1/2-z
-x,y,z
1/2+x,-y,1/2+z
loop_
_atom_site_type_symbol
_atom_site_label
_atom_site_fract_x
_atom_site_fract_y
_atom_site_fract_z
Si Si1 0.781751 0.124950 0.056627
Si Si2 0.852691 0.500000 0.500000
Si Si3 0.214758 0.669832 0.115420
Si Si4 0.601307 0.543629 0.722814
Si Si5 0.111517 0.800411 0.721226
O O1 0.856156 0.118152 0.167334
O O2 0.681712 0.166513 0.110859
O O3 0.818845 0.219566 0.958689
O O4 0.769343 0.000000 0.000000
O O5 0.791172 0.611565 0.472522
O O6 0.902664 0.484959 0.369384
O O7 0.250000 0.709848 0.250000
O O8 0.154317 0.557572 0.152800
O O9 0.500000 0.549009 0.667714
O O10 0.638239 0.673206 0.726221
O O11 0.000000 0.801368 0.695758
#
# Coordination Sequence:
#
# PCOD9414325 Si02
#       5
#     8   4   8   8   8
#     4  11  24  42  66  88 127 174 216 258 314 380
#     4  10  17  34  57  82 124 156 190 246 307 366
#     4  10  21  34  60  92 124 161 203 255 315 377
#     4  10  20  35  60  93 124 157 200 258 321 377
#     4  10  23  43  67  93 121 164 217 265 318 380
#
# _framework density 19.793365000000001
#
# number of rings (size 3 to 8) (size 9 to 14) (size 15 to 20)
#    0.000    1.778    2.222    1.667    9.333    1.778 
#    0.000    2.778    0.000    0.000    0.000    0.000 
#    0.000    0.000    0.000    0.000    0.000    0.000 
#
# Total GULP energy -200439.417521 kJ/mol
# GULP energy per Si atom -5567.761598 kJ/mol
# Density = 1.974831 g / cm^3
# Si number density = 19.793365 Si / 1000 Ang^3
#
#
#
# Elastic Constant Matrix: (Units=GPa)
#
#
# Indices 1 2 3 4 5 6 
#
# 1 77.0053 33.5842 19.8208 0.0000 0.0000 0.0000
# 2 33.5842 129.4973 51.1901 0.0000 0.0000 0.0000
# 3 19.8208 51.1901 87.2172 0.0000 0.0000 0.0000
# 4 0.0000 0.0000 0.0000 25.9089 0.0000 0.0000
# 5 0.0000 0.0000 0.0000 0.0000 -4.5801 0.0000
# 6 0.0000 0.0000 0.0000 0.0000 0.0000 20.0345
#
#
#
# Elastic Compliance Matrix: (Units=1/GPa)
#
#
# Indices 1 2 3 4 5 6 
#
# 1 0.014781 -0.003262 -0.001444 0.000000 0.000000 0.000000
# 2 -0.003262 0.010775 -0.005583 0.000000 0.000000 0.000000
# 3 -0.001444 -0.005583 0.015071 0.000000 0.000000 0.000000
# 4 0.000000 0.000000 0.000000 0.038597 0.000000 0.000000
# 5 0.000000 0.000000 0.000000 0.000000 -0.218336 0.000000
# 6 0.000000 0.000000 0.000000 0.000000 0.000000 0.049914
#
#
# Mechanical properties :
#
#
# Convention : Reuss Voigt Hill
#
# Bulk Modulus (GPa) = 49.88156 55.87890 52.88023
# Shear Modulus (GPa) = -80.72631 20.88099 -29.92266
#
# Velocity S-wave (km/s) = -6.39320 3.25152 -3.89234
# Velocity P-wave (km/s) = 5.40755 6.51068 2.56392
#
# Compressibility (1/GPa) = 0.02004749
#
# Stress axis : x y z
#
# Youngs Moduli (GPa) = 67.65597 92.80654 66.35465
#
# Poissons Ratio (x) = 0.30277 0.09583
# Poissons Ratio (y) = 0.22072 0.37044
# Poissons Ratio (z) = 0.09771 0.51812
#
# Static dielectric constant tensor:
#      x y z
#    x 1.763320 0.000000 0.000000 
#    y 0.000000 1.708720 0.000000 
#    z 0.000000 0.000000 1.735670 
# 
# From -- ./inp_files/15742.got.cif
#   From: 2010.05.17/outbox.cif.g08.bks.cpg/sg53_8_cif.got.tgz:15742.got - 2010.06.03 12:45:16.
