data_PCOD9414319
_publ_section_title
;
Structure prediction by ZEFSAII (Michael W. Deem and Ramdas Pophale) SiO2 
 PCOD9414319
Probable space group: P M N A
;
_chemical_formula_sum "Si O2"
_cell_formula_units_Z 64
_cell_length_a 14.935541
_cell_length_b 12.104587
_cell_length_c 17.549929
_cell_angle_alpha 90.000000
_cell_angle_beta 90.000000
_cell_angle_gamma 90.000000
_cell_volume 3172.826312
_symmetry_space_group_name_H-M "P M N A"
_symmetry_group_IT_number 53
_symmetry_cell_setting 'orthorhombic'
loop_
_space_group_symop_operation_xyz
x,y,z
1/2-x,-y,1/2+z
x,-y,-z
1/2-x,y,1/2-z
-x,-y,-z
1/2+x,y,1/2-z
-x,y,z
1/2+x,-y,1/2+z
loop_
_atom_site_type_symbol
_atom_site_label
_atom_site_fract_x
_atom_site_fract_y
_atom_site_fract_z
Si Si1 0.289277 0.979770 0.825268
Si Si2 0.400753 0.600418 0.444261
Si Si3 0.904920 0.016486 0.876825
Si Si4 0.103263 0.819050 0.372741
Si Si5 0.836497 0.184285 0.459536
Si Si6 0.873351 0.173748 0.017221
Si Si7 0.273107 0.393407 0.838783
Si Si8 0.104336 0.566538 0.579868
O O1 0.250000 0.919387 0.750000
O O2 0.194892 0.037192 0.847556
O O3 0.358872 0.080738 0.821534
O O4 0.333050 0.898122 0.887253
O O5 0.380024 0.500000 0.500000
O O6 0.500000 0.585249 0.408963
O O7 0.405761 0.705493 0.499442
O O8 0.319961 0.614268 0.385332
O O9 0.000000 0.032298 0.834771
O O10 0.900455 0.889685 0.906196
O O11 0.906548 0.095928 0.949590
O O12 0.111912 0.849620 0.463130
O O13 0.164349 0.711339 0.359404
O O14 0.000000 0.795277 0.355948
O O15 0.733293 0.181857 0.484291
O O16 0.867962 0.306441 0.435126
O O17 0.250000 0.393883 0.750000
O O18 0.328507 0.502370 0.864052
O O19 0.110557 0.500000 0.500000
O O20 0.000000 0.562194 0.604398
#
# Coordination Sequence:
#
# PCOD9414319 Si02
#       8
#     8   8   8   8   8   8   8   8
#     4  11  25  42  60  91 137 178 214 271 340 400
#     4  11  22  37  60  88 121 161 206 256 315 383
#     4  10  19  33  58  85 112 155 206 256 306 371
#     4  12  24  42  68  98 131 174 229 279 328 392
#     4  11  21  39  68  96 129 169 221 275 324 393
#     4  10  17  33  58  87 116 143 199 256 307 364
#     4  12  25  42  65  96 136 171 214 269 340 399
#     4  11  22  41  70  98 128 171 223 276 327 391
#
# _framework density 20.171289000000002
#
# number of rings (size 3 to 8) (size 9 to 14) (size 15 to 20)
#    0.000    1.000    3.750    4.125    0.000    3.500 
#    0.000    0.000    0.000    0.000    0.000    0.000 
#    0.000    0.000    0.000    0.000    0.000    0.000 
#
# Total GULP energy -356883.087237 kJ/mol
# GULP energy per Si atom -5576.298238 kJ/mol
# Density = 2.012538 g / cm^3
# Si number density = 20.171289 Si / 1000 Ang^3
#
#
#
# Elastic Constant Matrix: (Units=GPa)
#
#
# Indices 1 2 3 4 5 6 
#
# 1 165.5638 27.2761 30.6643 0.0000 0.0000 0.0000
# 2 27.2761 108.3617 33.8973 0.0000 0.0000 0.0000
# 3 30.6643 33.8973 69.9823 0.0000 0.0000 0.0000
# 4 0.0000 0.0000 0.0000 17.1473 0.0000 0.0000
# 5 0.0000 0.0000 0.0000 0.0000 13.3875 0.0000
# 6 0.0000 0.0000 0.0000 0.0000 0.0000 24.1264
#
#
#
# Elastic Compliance Matrix: (Units=1/GPa)
#
#
# Indices 1 2 3 4 5 6 
#
# 1 0.006647 -0.000898 -0.002477 0.000000 0.000000 0.000000
# 2 -0.000898 0.010998 -0.004933 0.000000 0.000000 0.000000
# 3 -0.002477 -0.004933 0.017764 0.000000 0.000000 0.000000
# 4 0.000000 0.000000 0.000000 0.058318 0.000000 0.000000
# 5 0.000000 0.000000 0.000000 0.000000 0.074697 0.000000
# 6 0.000000 0.000000 0.000000 0.000000 0.000000 0.041448
#
#
# Mechanical properties :
#
#
# Convention : Reuss Voigt Hill
#
# Bulk Modulus (GPa) = 53.21690 58.62038 55.91864
# Shear Modulus (GPa) = 21.48193 27.73690 24.60941
#
# Velocity S-wave (km/s) = 3.26694 3.71221 3.49667
# Velocity P-wave (km/s) = 6.37732 6.89191 6.63960
#
# Compressibility (1/GPa) = 0.01879102
#
# Stress axis : x y z
#
# Youngs Moduli (GPa) = 150.44892 90.92834 56.29218
#
# Poissons Ratio (x) = 0.08166 0.13946
# Poissons Ratio (y) = 0.13512 0.27771
# Poissons Ratio (z) = 0.37273 0.44859
#
# Static dielectric constant tensor:
#      x y z
#    x 1.747170 0.000000 0.000000 
#    y 0.000000 1.717290 0.000000 
#    z 0.000000 0.000000 1.786770 
# 
# From -- ./inp_files/28520.got.cif
#   From: 2010.05.17/outbox.cif.g08.bks.cpg/sg53_15_cif.got.tgz:28520.got - 2010.06.03 12:45:16.
