data_PCOD9414231
_publ_section_title
;
Structure prediction by ZEFSAII (Michael W. Deem and Ramdas Pophale) SiO2 
 PCOD9414231
Probable space group: P M N A
;
_chemical_formula_sum "Si O2"
_cell_formula_units_Z 40
_cell_length_a 14.442516
_cell_length_b 12.304022
_cell_length_c 12.315911
_cell_angle_alpha 90.000000
_cell_angle_beta 90.000000
_cell_angle_gamma 90.000000
_cell_volume 2188.550127
_symmetry_space_group_name_H-M "P M N A"
_symmetry_group_IT_number 53
_symmetry_cell_setting 'orthorhombic'
loop_
_space_group_symop_operation_xyz
x,y,z
1/2-x,-y,1/2+z
x,-y,-z
1/2-x,y,1/2-z
-x,-y,-z
1/2+x,y,1/2-z
-x,y,z
1/2+x,-y,1/2+z
loop_
_atom_site_type_symbol
_atom_site_label
_atom_site_fract_x
_atom_site_fract_y
_atom_site_fract_z
Si Si1 0.700314 0.901136 0.921263
Si Si2 0.603921 0.125297 0.309094
Si Si3 0.895860 0.483249 0.657884
Si Si4 0.338020 0.363832 0.329783
Si Si5 0.694126 0.656845 0.997430
O O1 0.808764 0.908433 0.884488
O O2 0.637742 0.901758 0.812902
O O3 0.684802 0.784842 0.979699
O O4 0.678125 0.000000 0.000000
O O5 0.500000 0.083077 0.331361
O O6 0.601702 0.256401 0.320481
O O7 0.880569 0.528755 0.778250
O O8 0.826428 0.390994 0.615573
O O9 0.876101 0.588212 0.580293
O O10 0.000000 0.445287 0.643614
O O11 0.250000 0.339325 0.250000
O O12 0.294091 0.374181 0.448272
#
# Coordination Sequence:
#
# PCOD9414231 Si02
#       5
#     8   8   8   8   8
#     4  10  20  35  53  76 108 138 175 213 261 307
#     4  10  18  33  55  79 103 131 178 219 254 306
#     4  10  17  27  51  80 103 125 170 222 254 303
#     4   9  15  29  48  75 105 132 166 210 254 300
#     4   9  17  29  46  76 102 131 169 204 255 307
#
# _framework density 18.276938000000001
#
# number of rings (size 3 to 8) (size 9 to 14) (size 15 to 20)
#    0.000    2.400    6.000    1.800    0.000    1.600 
#    0.000    0.000   22.000    0.000    0.000  246.400 
#    0.000    0.000    0.000    0.000    0.000    0.000 
#
# Total GULP energy -222672.097058 kJ/mol
# GULP energy per Si atom -5566.802426 kJ/mol
# Density = 1.823534 g / cm^3
# Si number density = 18.276938 Si / 1000 Ang^3
#
#
#
# Elastic Constant Matrix: (Units=GPa)
#
#
# Indices 1 2 3 4 5 6 
#
# 1 84.6579 9.9856 15.3816 0.0000 0.0000 0.0000
# 2 9.9856 95.3148 44.4024 0.0000 0.0000 0.0000
# 3 15.3816 44.4024 56.1878 0.0000 0.0000 0.0000
# 4 0.0000 0.0000 0.0000 29.9878 0.0000 0.0000
# 5 0.0000 0.0000 0.0000 0.0000 2.8158 0.0000
# 6 0.0000 0.0000 0.0000 0.0000 0.0000 9.0226
#
#
#
# Elastic Compliance Matrix: (Units=1/GPa)
#
#
# Indices 1 2 3 4 5 6 
#
# 1 0.012443 0.000448 -0.003760 0.000000 0.000000 0.000000
# 2 0.000448 0.016620 -0.013257 0.000000 0.000000 0.000000
# 3 -0.003760 -0.013257 0.029303 0.000000 0.000000 0.000000
# 4 0.000000 0.000000 0.000000 0.033347 0.000000 0.000000
# 5 0.000000 0.000000 0.000000 0.000000 0.355137 0.000000
# 6 0.000000 0.000000 0.000000 0.000000 0.000000 0.110833
#
#
# Mechanical properties :
#
#
# Convention : Reuss Voigt Hill
#
# Bulk Modulus (GPa) = 39.63864 41.74440 40.69152
# Shear Modulus (GPa) = 8.34404 19.45797 13.90100
#
# Velocity S-wave (km/s) = 2.13898 3.26639 2.76085
# Velocity P-wave (km/s) = 5.27591 6.09223 5.69870
#
# Compressibility (1/GPa) = 0.02522791
#
# Stress axis : x y z
#
# Youngs Moduli (GPa) = 80.36903 60.16738 34.12605
#
# Poissons Ratio (x) = -0.02697 0.12833
# Poissons Ratio (y) = -0.03603 0.45241
# Poissons Ratio (z) = 0.30222 0.79763
#
# Static dielectric constant tensor:
#      x y z
#    x 1.662300 0.000000 0.000000 
#    y 0.000000 1.619670 0.000000 
#    z 0.000000 0.000000 1.699780 
# 
# From -- ./inp_files/22552.got.cif
#   From: 2010.05.17/outbox.cif.g08.bks.cpg/sg53_12_cif.got.tgz:22552.got - 2010.06.03 12:45:16.
