data_PCOD9414631
_publ_section_title
;
Structure prediction by ZEFSAII (Michael W. Deem and Ramdas Pophale) SiO2 
 PCOD9414631
Probable space group: P M N A
;
_chemical_formula_sum "Si O2"
_cell_formula_units_Z 64
_cell_length_a 9.153334
_cell_length_b 20.543184
_cell_length_c 19.738312
_cell_angle_alpha 90.000000
_cell_angle_beta 90.000000
_cell_angle_gamma 90.000000
_cell_volume 3711.565040
_symmetry_space_group_name_H-M "P M N A"
_symmetry_group_IT_number 53
_symmetry_cell_setting 'orthorhombic'
loop_
_space_group_symop_operation_xyz
x,y,z
1/2-x,-y,1/2+z
x,-y,-z
1/2-x,y,1/2-z
-x,-y,-z
1/2+x,y,1/2-z
-x,y,z
1/2+x,-y,1/2+z
loop_
_atom_site_type_symbol
_atom_site_label
_atom_site_fract_x
_atom_site_fract_y
_atom_site_fract_z
Si Si1 0.823236 0.100624 0.323197
Si Si2 0.326397 0.609522 0.394096
Si Si3 0.325562 0.259656 0.679581
Si Si4 0.826135 0.784846 0.574684
Si Si5 0.825894 0.648773 0.950360
Si Si6 0.674354 0.163261 0.923890
Si Si7 0.668468 0.519207 0.920012
Si Si8 0.322442 0.984923 0.076450
O O1 0.750000 0.099120 0.250000
O O2 0.786091 0.166120 0.364919
O O3 0.000000 0.098399 0.316953
O O4 0.776406 0.039006 0.369423
O O5 0.500000 0.596673 0.392679
O O6 0.290409 0.666078 0.341358
O O7 0.293417 0.638003 0.469359
O O8 0.241239 0.542484 0.383806
O O9 0.250000 0.242910 0.750000
O O10 0.500000 0.253527 0.683747
O O11 0.263059 0.213420 0.621316
O O12 0.741674 0.716807 0.573284
O O13 0.800745 0.821665 0.503198
O O14 0.000000 0.771952 0.578696
O O15 0.755662 0.586443 0.913402
O O16 0.000000 0.648819 0.942403
O O17 0.500000 0.170754 0.911882
O O18 0.717108 0.089219 0.906997
O O19 0.500000 0.527490 0.900960
O O20 0.673940 0.500000 0.000000
O O21 0.500000 0.987486 0.074638
O O22 0.271916 0.000000 0.000000
#
# Coordination Sequence:
#
# PCOD9414631 Si02
#       8
#     8   8   8   8   8   8   8   8
#     4  10  21  37  57  82 112 145 182 224 272 329
#     4   9  18  32  49  71 103 140 176 219 271 322
#     4  11  23  38  53  75 109 148 188 228 275 330
#     4  10  19  32  54  81 108 141 183 226 271 326
#     4  10  18  30  50  77 108 140 174 220 275 321
#     4  10  19  33  57  83 106 139 183 231 276 324
#     4   9  17  28  46  75 106 135 172 217 262 315
#     4   9  16  32  58  84 108 141 185 226 269 324
#
# _framework density 17.243400000000001
#
# number of rings (size 3 to 8) (size 9 to 14) (size 15 to 20)
#    0.000    2.250    2.500    1.125    0.000    4.000 
#    0.000    1.875    0.000    1.500    0.000    5.250 
#    0.000    0.000    0.000    0.000    0.000    0.000 
#
# Total GULP energy -357007.374861 kJ/mol
# GULP energy per Si atom -5578.240232 kJ/mol
# Density = 1.720415 g / cm^3
# Si number density = 17.243400 Si / 1000 Ang^3
#
#
#
# Elastic Constant Matrix: (Units=GPa)
#
#
# Indices 1 2 3 4 5 6 
#
# 1 42.9632 59.4833 37.4574 0.0000 0.0000 0.0000
# 2 59.4833 148.5932 49.2202 0.0000 0.0000 0.0000
# 3 37.4574 49.2202 87.7909 0.0000 0.0000 0.0000
# 4 0.0000 0.0000 0.0000 18.1289 0.0000 0.0000
# 5 0.0000 0.0000 0.0000 0.0000 19.6807 0.0000
# 6 0.0000 0.0000 0.0000 0.0000 0.0000 15.8895
#
#
#
# Elastic Compliance Matrix: (Units=1/GPa)
#
#
# Indices 1 2 3 4 5 6 
#
# 1 0.067833 -0.021574 -0.016847 0.000000 0.000000 0.000000
# 2 -0.021574 0.015126 0.000724 0.000000 0.000000 0.000000
# 3 -0.016847 0.000724 0.018172 0.000000 0.000000 0.000000
# 4 0.000000 0.000000 0.000000 0.055160 0.000000 0.000000
# 5 0.000000 0.000000 0.000000 0.000000 0.050811 0.000000
# 6 0.000000 0.000000 0.000000 0.000000 0.000000 0.062935
#
#
# Mechanical properties :
#
#
# Convention : Reuss Voigt Hill
#
# Bulk Modulus (GPa) = 38.85115 63.51879 51.18497
# Shear Modulus (GPa) = 14.12390 19.61889 16.87140
#
# Velocity S-wave (km/s) = 2.86508 3.37673 3.13137
# Velocity P-wave (km/s) = 5.79006 7.21939 6.54387
#
# Compressibility (1/GPa) = 0.02573927
#
# Stress axis : x y z
#
# Youngs Moduli (GPa) = 14.74212 66.11096 55.02837
#
# Poissons Ratio (x) = 1.42627 0.92704
# Poissons Ratio (y) = 0.31804 -0.03986
# Poissons Ratio (z) = 0.24835 -0.04789
#
# Static dielectric constant tensor:
#      x y z
#    x 1.572670 0.000000 0.000000 
#    y 0.000000 1.578590 0.000000 
#    z 0.000000 0.000000 1.570710 
# 
# From -- ./inp_files/26916.got.cif
#   From: 2010.05.17/outbox.cif.g08.bks.cpg/sg53_14_cif.got.tgz:26916.got - 2010.06.03 12:45:16.
