data_PCOD9414657
_publ_section_title
;
Structure prediction by ZEFSAII (Michael W. Deem and Ramdas Pophale) SiO2 
 PCOD9414657
Probable space group: P M N A
;
_chemical_formula_sum "Si O2"
_cell_formula_units_Z 64
_cell_length_a 8.794885
_cell_length_b 15.287851
_cell_length_c 23.781928
_cell_angle_alpha 90.000000
_cell_angle_beta 90.000000
_cell_angle_gamma 90.000000
_cell_volume 3197.596548
_symmetry_space_group_name_H-M "P M N A"
_symmetry_group_IT_number 53
_symmetry_cell_setting 'orthorhombic'
loop_
_space_group_symop_operation_xyz
x,y,z
1/2-x,-y,1/2+z
x,-y,-z
1/2-x,y,1/2-z
-x,-y,-z
1/2+x,y,1/2-z
-x,y,z
1/2+x,-y,1/2+z
loop_
_atom_site_type_symbol
_atom_site_label
_atom_site_fract_x
_atom_site_fract_y
_atom_site_fract_z
Si Si1 0.674576 0.865090 0.017484
Si Si2 0.681451 0.249113 0.809922
Si Si3 0.685132 0.599775 0.104542
Si Si4 0.317101 0.102433 0.398504
Si Si5 0.819821 0.701354 0.870154
Si Si6 0.681055 0.452512 0.191117
Si Si7 0.675947 0.340214 0.012774
Si Si8 0.320312 0.915499 0.365840
O O1 0.500000 0.891721 0.027939
O O2 0.675139 0.760002 0.009570
O O3 0.777259 0.890279 0.070162
O O4 0.736269 0.903561 0.959051
O O5 0.750000 0.274814 0.750000
O O6 0.500000 0.253532 0.806927
O O7 0.732112 0.315140 0.859438
O O8 0.732969 0.151734 0.826209
O O9 0.500000 0.601497 0.101865
O O10 0.731651 0.516119 0.140586
O O11 0.734904 0.603657 0.039835
O O12 0.500000 0.102310 0.407748
O O13 0.275918 0.196273 0.372294
O O14 0.279335 0.017890 0.361392
O O15 0.735926 0.644555 0.823577
O O16 0.000000 0.695230 0.862467
O O17 0.772006 0.661707 0.930639
O O18 0.750000 0.482254 0.250000
O O19 0.500000 0.456178 0.194291
O O20 0.500000 0.364483 0.026179
O O21 0.500000 0.905327 0.356792
#
# Coordination Sequence:
#
# PCOD9414657 Si02
#       8
#     8   8   8   8   8   8   8   8
#     4  10  18  30  52  82 116 151 189 231 275 330
#     4  11  22  39  58  82 114 151 192 237 285 342
#     4   9  19  37  61  86 117 150 186 228 281 345
#     4   9  20  36  54  78 113 151 190 233 282 334
#     4  10  21  39  59  84 117 151 190 241 287 336
#     4  11  23  41  64  87 111 146 189 237 287 342
#     4   9  17  34  57  84 118 156 189 224 279 345
#     4  11  21  34  53  79 111 151 192 232 280 333
#
# _framework density 20.015031
#
# number of rings (size 3 to 8) (size 9 to 14) (size 15 to 20)
#    0.000    2.000    1.250    2.625    0.000    4.000 
#    0.000    6.250    0.000    0.000    0.000    0.000 
#    0.000    0.000    0.000    0.000    0.000    0.000 
#
# Total GULP energy -357531.875087 kJ/mol
# GULP energy per Si atom -5586.435548 kJ/mol
# Density = 1.996948 g / cm^3
# Si number density = 20.015031 Si / 1000 Ang^3
#
#
#
# Elastic Constant Matrix: (Units=GPa)
#
#
# Indices 1 2 3 4 5 6 
#
# 1 36.0779 18.8750 3.1562 0.0000 0.0000 0.0000
# 2 18.8750 67.9641 22.0939 0.0000 0.0000 0.0000
# 3 3.1562 22.0939 23.6757 0.0000 0.0000 0.0000
# 4 0.0000 0.0000 0.0000 18.8188 0.0000 0.0000
# 5 0.0000 0.0000 0.0000 0.0000 32.8022 0.0000
# 6 0.0000 0.0000 0.0000 0.0000 0.0000 -12.7768
#
#
#
# Elastic Compliance Matrix: (Units=1/GPa)
#
#
# Indices 1 2 3 4 5 6 
#
# 1 0.033006 -0.011105 0.005963 0.000000 0.000000 0.000000
# 2 -0.011105 0.024857 -0.021716 0.000000 0.000000 0.000000
# 3 0.005963 -0.021716 0.061708 0.000000 0.000000 0.000000
# 4 0.000000 0.000000 0.000000 0.053138 0.000000 0.000000
# 5 0.000000 0.000000 0.000000 0.000000 0.030486 0.000000
# 6 0.000000 0.000000 0.000000 0.000000 0.000000 -0.078267
#
#
# Mechanical properties :
#
#
# Convention : Reuss Voigt Hill
#
# Bulk Modulus (GPa) = 15.18495 23.99644 19.59069
# Shear Modulus (GPa) = 24.92580 13.34168 19.13374
#
# Velocity S-wave (km/s) = 3.53279 2.58463 3.09523
# Velocity P-wave (km/s) = 4.92382 4.57409 4.75217
#
# Compressibility (1/GPa) = 0.06585470
#
# Stress axis : x y z
#
# Youngs Moduli (GPa) = 30.29759 40.22984 16.20546
#
# Poissons Ratio (x) = 0.44675 -0.09663
# Poissons Ratio (y) = 0.33645 0.35192
# Poissons Ratio (z) = -0.18066 0.87363
#
# Static dielectric constant tensor:
#      x y z
#    x 1.674260 0.000000 0.000000 
#    y 0.000000 1.750190 0.000000 
#    z 0.000000 0.000000 1.687180 
# 
# From -- ./inp_files/34297.got.cif
#   From: 2010.05.17/outbox.cif.g08.bks.cpg/sg53_18_cif.got.tgz:34297.got - 2010.06.03 12:45:16.
