data_PCOD9414245
_publ_section_title
;
Structure prediction by ZEFSAII (Michael W. Deem and Ramdas Pophale) SiO2 
 PCOD9414245
Probable space group: P M N A
;
_chemical_formula_sum "Si O2"
_cell_formula_units_Z 40
_cell_length_a 8.673282
_cell_length_b 13.144116
_cell_length_c 20.549907
_cell_angle_alpha 90.000000
_cell_angle_beta 90.000000
_cell_angle_gamma 90.000000
_cell_volume 2342.743336
_symmetry_space_group_name_H-M "P M N A"
_symmetry_group_IT_number 53
_symmetry_cell_setting 'orthorhombic'
loop_
_space_group_symop_operation_xyz
x,y,z
1/2-x,-y,1/2+z
x,-y,-z
1/2-x,y,1/2-z
-x,-y,-z
1/2+x,y,1/2-z
-x,y,z
1/2+x,-y,1/2+z
loop_
_atom_site_type_symbol
_atom_site_label
_atom_site_fract_x
_atom_site_fract_y
_atom_site_fract_z
Si Si1 0.185663 0.693452 0.600018
Si Si2 0.678938 0.527783 0.077086
Si Si3 0.314595 0.119800 0.321587
Si Si4 0.812530 0.957967 0.070409
Si Si5 0.183833 0.733102 0.043877
O O1 0.234823 0.575818 0.611084
O O2 0.254830 0.773101 0.650337
O O3 0.240799 0.724845 0.527668
O O4 0.000000 0.695530 0.601434
O O5 0.500000 0.544978 0.093643
O O6 0.769637 0.632664 0.083743
O O7 0.684786 0.500000 0.000000
O O8 0.250000 0.101901 0.250000
O O9 0.500000 0.120859 0.320397
O O10 0.261716 0.032116 0.371983
O O11 0.767409 0.839935 0.075637
O O12 0.000000 0.961162 0.070277
O O13 0.761741 0.000000 0.000000
O O14 0.000000 0.734763 0.034889
#
# Coordination Sequence:
#
# PCOD9414245 Si02
#       5
#     8   8   8   8   8
#     4  10  19  32  49  72 104 137 169 209 261 309
#     4   8  16  29  44  68 104 135 160 202 255 303
#     4  11  22  37  55  75 104 137 174 215 261 316
#     4   9  17  32  52  75 104 137 171 214 263 308
#     4  10  17  28  50  77 102 133 173 214 258 306
#
# _framework density 17.074000000000002
#
# number of rings (size 3 to 8) (size 9 to 14) (size 15 to 20)
#    0.000    2.400    2.000    3.000    0.000    4.400 
#    0.000    5.000    0.000    1.200    0.000    5.600 
#    0.000    0.000    0.000    0.000    0.000    0.000 
#
# Total GULP energy -222949.045695 kJ/mol
# GULP energy per Si atom -5573.726142 kJ/mol
# Density = 1.703514 g / cm^3
# Si number density = 17.074000 Si / 1000 Ang^3
#
#
#
# Elastic Constant Matrix: (Units=GPa)
#
#
# Indices 1 2 3 4 5 6 
#
# 1 42.0057 39.3083 23.4377 0.0000 0.0000 0.0000
# 2 39.3083 176.1206 72.1670 0.0000 0.0000 0.0000
# 3 23.4377 72.1670 92.4109 0.0000 0.0000 0.0000
# 4 0.0000 0.0000 0.0000 18.5659 0.0000 0.0000
# 5 0.0000 0.0000 0.0000 0.0000 -16.9260 0.0000
# 6 0.0000 0.0000 0.0000 0.0000 0.0000 77.6633
#
#
#
# Elastic Compliance Matrix: (Units=1/GPa)
#
#
# Indices 1 2 3 4 5 6 
#
# 1 0.030886 -0.005417 -0.003603 0.000000 0.000000 0.000000
# 2 -0.005417 0.009300 -0.005889 0.000000 0.000000 0.000000
# 3 -0.003603 -0.005889 0.016334 0.000000 0.000000 0.000000
# 4 0.000000 0.000000 0.000000 0.053862 0.000000 0.000000
# 5 0.000000 0.000000 0.000000 0.000000 -0.059081 0.000000
# 6 0.000000 0.000000 0.000000 0.000000 0.000000 0.012876
#
#
# Mechanical properties :
#
#
# Convention : Reuss Voigt Hill
#
# Bulk Modulus (GPa) = 37.45057 64.48481 50.96769
# Shear Modulus (GPa) = 48.59302 27.56892 38.08097
#
# Velocity S-wave (km/s) = 5.34060 4.02266 4.72778
# Velocity P-wave (km/s) = 7.74669 7.70880 7.72777
#
# Compressibility (1/GPa) = 0.02670186
#
# Stress axis : x y z
#
# Youngs Moduli (GPa) = 32.37732 107.52788 61.22274
#
# Poissons Ratio (x) = 0.58248 0.22059
# Poissons Ratio (y) = 0.17539 0.36053
# Poissons Ratio (z) = 0.11666 0.63320
#
# Static dielectric constant tensor:
#      x y z
#    x 1.580090 0.000000 0.000000 
#    y 0.000000 1.615520 0.000000 
#    z 0.000000 0.000000 1.548120 
# 
# From -- ./inp_files/30348.got.cif
#   From: 2010.05.17/outbox.cif.g08.bks.cpg/sg53_16_cif.got.tgz:30348.got - 2010.06.03 12:45:16.
