data_PCOD9414021
_publ_section_title
;
Structure prediction by ZEFSAII (Michael W. Deem and Ramdas Pophale) SiO2 
 PCOD9414021
Probable space group: P N N A
;
_chemical_formula_sum "Si O2"
_cell_formula_units_Z 64
_cell_length_a 9.000000
_cell_length_b 12.000000
_cell_length_c 30.000000
_cell_angle_alpha 90.000000
_cell_angle_beta 90.000000
_cell_angle_gamma 90.000000
_cell_volume 3240.000000
_symmetry_space_group_name_H-M "P N N A"
_symmetry_group_IT_number 52
_symmetry_cell_setting 'orthorhombic'
loop_
_space_group_symop_operation_xyz
x,y,z
1/2-x,-y,z
x,1/2-y,1/2-z
1/2-x,1/2+y,1/2-z
-x,-y,-z
1/2+x,y,-z
-x,1/2+y,1/2+z
1/2+x,1/2-y,1/2+z
loop_
_atom_site_type_symbol
_atom_site_label
_atom_site_fract_x
_atom_site_fract_y
_atom_site_fract_z
Si Si1 0.857228 0.325421 0.205260
Si Si2 0.032139 0.430145 0.804158
Si Si3 0.783517 0.362722 0.466726
Si Si4 0.217955 0.631793 0.371360
Si Si5 0.962464 0.238828 0.948321
Si Si6 0.793315 0.366472 0.734398
Si Si7 0.520341 0.764966 0.391650
Si Si8 0.573929 0.978711 0.595727
O O1 0.862132 0.250000 0.250000
O O2 0.949351 0.440572 0.211042
O O3 0.690309 0.369203 0.196489
O O4 0.910892 0.270099 0.158595
O O5 0.929407 0.367071 0.769021
O O6 0.969123 0.436694 0.854466
O O7 0.750000 0.500000 0.467279
O O8 0.857829 0.313062 0.512254
O O9 0.626435 0.301356 0.460907
O O10 0.886333 0.313673 0.425959
O O11 0.250000 0.500000 0.379136
O O12 0.087663 0.677189 0.402837
O O13 0.185002 0.646474 0.318743
O O14 0.360007 0.706945 0.385170
O O15 0.958654 0.373533 0.937898
O O16 0.750000 0.500000 0.738668
O O17 0.708606 0.250000 0.750000
O O18 0.501922 0.895919 0.408359
O O19 0.750000 0.000000 0.593574
#
# Coordination Sequence:
#
# PCOD9414021 Si02
#       8
#     8   8   8   8   8   8   8   8
#     4  10  23  40  66  94 142 186 235 294 348 421
#     4  10  22  41  62  98 137 188 234 288 359 419
#     4  12  27  49  76 106 145 189 229 295 360 434
#     4  11  24  42  67 101 137 181 237 292 344 428
#     4  12  25  46  75 104 140 184 236 286 365 429
#     4  11  25  37  64  95 135 178 238 286 351 415
#     4  11  25  46  70 103 143 184 239 290 364 420
#     4  11  23  44  74 103 142 186 235 301 361 425
#
# _framework density 19.753086
#
# number of rings (size 3 to 8) (size 9 to 14) (size 15 to 20)
#    0.000    1.000    1.250    4.500    7.000    3.000 
#    2.250    0.000    0.000    0.000    0.000    0.000 
#    0.000    0.000    0.000    0.000    0.000    0.000 
#
# Total GULP energy -357177.613712 kJ/mol
# GULP energy per Si atom -5580.900214 kJ/mol
# Density = 1.970813 g / cm^3
# Si number density = 19.753086 Si / 1000 Ang^3
#
#
#
# Elastic Constant Matrix: (Units=GPa)
#
#
# Indices 1 2 3 4 5 6 
#
# 1 104.0515 39.5977 44.4568 0.0000 0.0000 0.0000
# 2 39.5977 170.2841 63.0261 0.0000 0.0000 0.0000
# 3 44.4568 63.0261 119.0023 0.0000 0.0000 0.0000
# 4 0.0000 0.0000 0.0000 45.7716 0.0000 0.0000
# 5 0.0000 0.0000 0.0000 0.0000 33.2679 0.0000
# 6 0.0000 0.0000 0.0000 0.0000 0.0000 37.4964
#
#
#
# Elastic Compliance Matrix: (Units=1/GPa)
#
#
# Indices 1 2 3 4 5 6 
#
# 1 0.011688 -0.001370 -0.003640 0.000000 0.000000 0.000000
# 2 -0.001370 0.007465 -0.003442 0.000000 0.000000 0.000000
# 3 -0.003640 -0.003442 0.011586 0.000000 0.000000 0.000000
# 4 0.000000 0.000000 0.000000 0.021848 0.000000 0.000000
# 5 0.000000 0.000000 0.000000 0.000000 0.030059 0.000000
# 6 0.000000 0.000000 0.000000 0.000000 0.000000 0.026669
#
#
# Mechanical properties :
#
#
# Convention : Reuss Voigt Hill
#
# Bulk Modulus (GPa) = 72.28817 76.38881 74.33849
# Shear Modulus (GPa) = 38.21731 39.72432 38.97082
#
# Velocity S-wave (km/s) = 4.40335 4.48933 4.44655
# Velocity P-wave (km/s) = 7.90747 8.10111 8.00487
#
# Compressibility (1/GPa) = 0.01383352
#
# Stress axis : x y z
#
# Youngs Moduli (GPa) = 85.56115 133.95732 86.31113
#
# Poissons Ratio (x) = 0.18358 0.31421
# Poissons Ratio (y) = 0.11725 0.29706
# Poissons Ratio (z) = 0.31148 0.46104
#
# Static dielectric constant tensor:
#      x y z
#    x 1.716770 0.000000 0.000000 
#    y 0.000000 1.728610 0.000000 
#    z 0.000000 0.000000 1.678400 
# 
# From -- ./inp_files/44614.got.cif
#   From: 2010.05.17/outbox.ucp.g08.bks.cvg/sg52_23_cif.got.tgz:44614.got - 2010.06.11 16:30:12.
