data_PCOD9414786
_publ_section_title
;
Structure prediction by ZEFSAII (Michael W. Deem and Ramdas Pophale) SiO2 
 PCOD9414786
Probable space group: P M N A
;
_chemical_formula_sum "Si O2"
_cell_formula_units_Z 64
_cell_length_a 16.244876
_cell_length_b 24.229345
_cell_length_c 7.451452
_cell_angle_alpha 90.000000
_cell_angle_beta 90.000000
_cell_angle_gamma 90.000000
_cell_volume 2932.911664
_symmetry_space_group_name_H-M "P M N A"
_symmetry_group_IT_number 53
_symmetry_cell_setting 'orthorhombic'
loop_
_space_group_symop_operation_xyz
x,y,z
1/2-x,-y,1/2+z
x,-y,-z
1/2-x,y,1/2-z
-x,-y,-z
1/2+x,y,1/2-z
-x,y,z
1/2+x,-y,1/2+z
loop_
_atom_site_type_symbol
_atom_site_label
_atom_site_fract_x
_atom_site_fract_y
_atom_site_fract_z
Si Si1 0.845134 0.752627 0.966702
Si Si2 0.910011 0.872882 0.038982
Si Si3 0.154867 0.247374 0.466702
Si Si4 0.410011 0.872882 0.038983
Si Si5 0.250000 0.564779 0.535527
Si Si6 0.908063 0.366973 0.469314
Si Si7 0.250000 0.064771 0.965211
Si Si8 0.091936 0.633027 0.969314
O O1 0.844451 0.752250 0.750000
O O2 0.750000 0.754049 0.027154
O O3 0.887724 0.695820 0.024017
O O4 0.890898 0.807943 0.023809
O O5 0.913678 0.886372 0.250000
O O6 0.832392 0.906070 0.962837
O O7 0.000000 0.885077 0.961276
O O8 0.109102 0.192058 0.523810
O O9 0.112278 0.304181 0.524018
O O10 0.500000 0.885076 0.961277
O O11 0.332391 0.906069 0.962837
O O12 0.250002 0.500000 0.500000
O O13 0.250000 0.572951 0.750000
O O14 0.166698 0.594232 0.468961
O O15 0.333300 0.594234 0.468960
O O16 0.907964 0.367876 0.250000
O O17 0.000000 0.383050 0.527046
O O18 0.250000 0.073562 0.750000
O O19 0.250001 0.000000 0.000000
O O20 0.000000 0.616950 0.027045
#
# Coordination Sequence:
#
# PCOD9414786 Si02
#       8
#     8   8   8   8   8   8   8   8
#     4  10  18  31  55  84 109 135 171 213 258 311
#     4  10  21  37  56  79 109 143 173 207 261 318
#     4  10  18  31  55  84 109 135 171 213 258 311
#     4  10  21  37  56  79 109 143 173 207 261 318
#     4  10  20  35  52  72  98 133 175 214 255 302
#     4   9  17  31  52  76 103 134 167 208 257 305
#     4  10  22  39  56  76 104 139 179 220 257 302
#     4   9  17  31  52  76 103 134 167 208 257 305
#
# _framework density 21.821318999999999
#
# number of rings (size 3 to 8) (size 9 to 14) (size 15 to 20)
#    0.000    2.250    2.500    0.750    0.000    3.500 
#    0.000    1.250    0.000    1.500    0.000    0.000 
#    0.000    0.000    0.000    0.000    0.000    0.000 
#
# Total GULP energy -357616.337700 kJ/mol
# GULP energy per Si atom -5587.755277 kJ/mol
# Density = 2.177165 g / cm^3
# Si number density = 21.821319 Si / 1000 Ang^3
#
#
#
# Elastic Constant Matrix: (Units=GPa)
#
#
# Indices 1 2 3 4 5 6 
#
# 1 263.7510 112.1022 13.4079 0.0000 0.0000 0.0000
# 2 112.1022 154.5032 -9.6639 0.0000 0.0000 0.0000
# 3 13.4079 -9.6639 66.1362 0.0000 0.0000 0.0000
# 4 0.0000 0.0000 0.0000 20.2762 0.0000 0.0000
# 5 0.0000 0.0000 0.0000 0.0000 -6.2009 0.0000
# 6 0.0000 0.0000 0.0000 0.0000 0.0000 -2.8412
#
#
#
# Elastic Compliance Matrix: (Units=1/GPa)
#
#
# Indices 1 2 3 4 5 6 
#
# 1 0.005680 -0.004232 -0.001770 0.000000 0.000000 0.000000
# 2 -0.004232 0.009685 0.002273 0.000000 0.000000 0.000000
# 3 -0.001770 0.002273 0.015811 0.000000 0.000000 0.000000
# 4 0.000000 0.000000 0.000000 0.049319 0.000000 0.000000
# 5 0.000000 0.000000 0.000000 0.000000 -0.161267 0.000000
# 6 0.000000 0.000000 0.000000 0.000000 0.000000 -0.351966
#
#
# Mechanical properties :
#
#
# Convention : Reuss Voigt Hill
#
# Bulk Modulus (GPa) = 42.16024 79.56473 60.86248
# Shear Modulus (GPa) = -11.97968 26.81643 7.41838
#
# Velocity S-wave (km/s) = -2.34559 3.50938 1.84580
# Velocity P-wave (km/s) = 3.46798 7.27751 5.70039
#
# Compressibility (1/GPa) = 0.02371903
#
# Stress axis : x y z
#
# Youngs Moduli (GPa) = 176.05072 103.25062 63.24590
#
# Poissons Ratio (x) = 0.43696 0.11194
# Poissons Ratio (y) = 0.74506 -0.14377
# Poissons Ratio (z) = 0.31160 -0.23471
#
# Static dielectric constant tensor:
#      x y z
#    x 1.808880 0.000000 0.000000 
#    y 0.000000 1.721470 0.000000 
#    z 0.000000 0.000000 1.835770 
# 
# From -- ./inp_files/8964.got.cif
#   From: 2010.05.17/outbox.cif.g08.bks.cpg/sg53_5_cif.got.tgz:8964.got - 2010.06.03 12:45:16.
