data_PCOD9414730
_publ_section_title
;
Structure prediction by ZEFSAII (Michael W. Deem and Ramdas Pophale) SiO2 
 PCOD9414730
Probable space group: P M N A
;
_chemical_formula_sum "Si O2"
_cell_formula_units_Z 64
_cell_length_a 22.444139
_cell_length_b 8.652715
_cell_length_c 13.574655
_cell_angle_alpha 90.000000
_cell_angle_beta 90.000000
_cell_angle_gamma 90.000000
_cell_volume 2636.235171
_symmetry_space_group_name_H-M "P M N A"
_symmetry_group_IT_number 53
_symmetry_cell_setting 'orthorhombic'
loop_
_space_group_symop_operation_xyz
x,y,z
1/2-x,-y,1/2+z
x,-y,-z
1/2-x,y,1/2-z
-x,-y,-z
1/2+x,y,1/2-z
-x,y,z
1/2+x,-y,1/2+z
loop_
_atom_site_type_symbol
_atom_site_label
_atom_site_fract_x
_atom_site_fract_y
_atom_site_fract_z
Si Si1 0.813447 0.481300 0.393464
Si Si2 0.140341 0.213903 0.845500
Si Si3 0.720739 0.180492 0.875179
Si Si4 0.931656 0.023258 0.255329
Si Si5 0.622046 0.177087 0.432066
Si Si6 0.932017 0.476506 0.141238
Si Si7 0.066255 0.330158 0.359326
Si Si8 0.761834 0.834797 0.609805
O O1 0.782296 0.500000 0.500000
O O2 0.811356 0.654621 0.349595
O O3 0.880452 0.420333 0.409136
O O4 0.783644 0.328707 0.344753
O O5 0.211033 0.213671 0.844367
O O6 0.109728 0.377648 0.847610
O O7 0.111966 0.119958 0.755302
O O8 0.123691 0.137327 0.952080
O O9 0.713576 0.997132 0.847390
O O10 0.718410 0.171450 0.994925
O O11 0.922325 0.104659 0.148862
O O12 0.919640 0.149180 0.339897
O O13 0.000000 0.973357 0.264932
O O14 0.600127 0.354531 0.429060
O O15 0.689657 0.160418 0.391771
O O16 0.935713 0.400266 0.249476
O O17 0.000000 0.514137 0.112160
O O18 0.000000 0.343366 0.403205
#
# Coordination Sequence:
#
# PCOD9414730 Si02
#       8
#     8   8   8   8   8   8   8   8
#     4  10  20  37  66  90 105 141 188 233 301 370
#     4  11  19  31  53  79 111 152 200 237 270 332
#     4   9  18  33  55  86 117 143 182 230 286 346
#     4  10  20  33  51  76 112 157 195 232 283 332
#     4  10  18  31  51  77 112 154 196 237 277 323
#     4  10  21  34  49  72 112 157 193 241 292 330
#     4   9  21  42  58  76 111 147 182 232 297 355
#     4   9  17  33  55  84 119 146 173 232 297 338
#
# _framework density 24.277047
#
# number of rings (size 3 to 8) (size 9 to 14) (size 15 to 20)
#    0.000    2.250    1.250    3.000    0.000    5.250 
#    2.250    5.625    0.000    0.000    0.000    3.500 
#    0.000    0.000    0.000    0.000    0.000    0.000 
#
# Total GULP energy -357296.574305 kJ/mol
# GULP energy per Si atom -5582.758974 kJ/mol
# Density = 2.422179 g / cm^3
# Si number density = 24.277047 Si / 1000 Ang^3
#
#
#
# Elastic Constant Matrix: (Units=GPa)
#
#
# Indices 1 2 3 4 5 6 
#
# 1 114.7155 69.6174 5.4743 0.0000 0.0000 0.0000
# 2 69.6174 182.7734 13.7577 0.0000 0.0000 0.0000
# 3 5.4743 13.7577 50.5320 0.0000 0.0000 0.0000
# 4 0.0000 0.0000 0.0000 23.1835 0.0000 0.0000
# 5 0.0000 0.0000 0.0000 0.0000 31.2742 0.0000
# 6 0.0000 0.0000 0.0000 0.0000 0.0000 30.3565
#
#
#
# Elastic Compliance Matrix: (Units=1/GPa)
#
#
# Indices 1 2 3 4 5 6 
#
# 1 0.011338 -0.004315 -0.000054 0.000000 0.000000 0.000000
# 2 -0.004315 0.007228 -0.001500 0.000000 0.000000 0.000000
# 3 -0.000054 -0.001500 0.020204 0.000000 0.000000 0.000000
# 4 0.000000 0.000000 0.000000 0.043134 0.000000 0.000000
# 5 0.000000 0.000000 0.000000 0.000000 0.031975 0.000000
# 6 0.000000 0.000000 0.000000 0.000000 0.000000 0.032942
#
#
# Mechanical properties :
#
#
# Convention : Reuss Voigt Hill
#
# Bulk Modulus (GPa) = 36.99274 58.41330 47.70302
# Shear Modulus (GPa) = 29.83851 34.24094 32.03972
#
# Velocity S-wave (km/s) = 3.50963 3.75964 3.63678
# Velocity P-wave (km/s) = 5.62976 6.55438 6.10958
#
# Compressibility (1/GPa) = 0.02703233
#
# Stress axis : x y z
#
# Youngs Moduli (GPa) = 88.19747 138.35843 49.49584
#
# Poissons Ratio (x) = 0.59696 0.00265
# Poissons Ratio (y) = 0.38054 0.07426
# Poissons Ratio (z) = 0.00473 0.20758
#
# Static dielectric constant tensor:
#      x y z
#    x 1.913930 0.000000 0.000000 
#    y 0.000000 2.037170 0.000000 
#    z 0.000000 0.000000 1.805520 
# 
# From -- ./inp_files/29392.got.cif
#   From: 2010.05.17/outbox.cif.g08.bks.cpg/sg53_15_cif.got.tgz:29392.got - 2010.06.03 12:45:16.
