data_PCOD9414418
_publ_section_title
;
Structure prediction by ZEFSAII (Michael W. Deem and Ramdas Pophale) SiO2 
 PCOD9414418
Probable space group: P M N A
;
_chemical_formula_sum "Si O2"
_cell_formula_units_Z 64
_cell_length_a 9.102374
_cell_length_b 16.733565
_cell_length_c 22.625544
_cell_angle_alpha 90.000000
_cell_angle_beta 90.000000
_cell_angle_gamma 90.000000
_cell_volume 3446.213512
_symmetry_space_group_name_H-M "P M N A"
_symmetry_group_IT_number 53
_symmetry_cell_setting 'orthorhombic'
loop_
_space_group_symop_operation_xyz
x,y,z
1/2-x,-y,1/2+z
x,-y,-z
1/2-x,y,1/2-z
-x,-y,-z
1/2+x,y,1/2-z
-x,y,z
1/2+x,-y,1/2+z
loop_
_atom_site_type_symbol
_atom_site_label
_atom_site_fract_x
_atom_site_fract_y
_atom_site_fract_z
Si Si1 0.167951 0.339676 0.992362
Si Si2 0.828730 0.085317 0.523220
Si Si3 0.667093 0.199360 0.607675
Si Si4 0.329891 0.222772 0.075987
Si Si5 0.821264 0.577977 0.689418
Si Si6 0.175776 0.753285 0.808899
Si Si7 0.330876 0.451300 0.907465
Si Si8 0.332287 0.311764 0.808827
O O1 0.167148 0.270211 0.941893
O O2 0.234227 0.418025 0.961168
O O3 0.000000 0.351568 0.012053
O O4 0.268705 0.301995 0.043346
O O5 0.739643 0.123098 0.577061
O O6 0.822728 0.150637 0.470800
O O7 0.000000 0.076435 0.540140
O O8 0.774689 0.000000 0.500000
O O9 0.500000 0.184135 0.624459
O O10 0.757338 0.234885 0.661936
O O11 0.500000 0.234667 0.093388
O O12 0.228413 0.203715 0.131800
O O13 0.750000 0.542959 0.750000
O O14 0.749594 0.665371 0.685070
O O15 0.784051 0.528201 0.630423
O O16 0.000000 0.580580 0.694765
O O17 0.250000 0.788547 0.750000
O O18 0.000000 0.748035 0.803723
O O19 0.500000 0.461552 0.926803
O O20 0.328775 0.381334 0.857843
O O21 0.250000 0.337163 0.750000
O O22 0.500000 0.294883 0.794352
#
# Coordination Sequence:
#
# PCOD9414418 Si02
#       8
#     8   8   8   8   8   8   8   8
#     4   9  17  29  47  71  99 131 167 206 247 293
#     4   9  18  33  55  82 107 130 156 190 236 289
#     4   9  17  29  45  68  98 130 163 198 236 280
#     4  10  19  34  56  79 105 134 164 200 245 297
#     4  10  19  32  49  70  97 130 171 217 265 309
#     4  11  22  37  56  77 101 130 169 211 253 299
#     4   9  18  30  45  67  97 132 169 212 259 304
#     4  10  18  28  43  65  94 130 170 207 245 288
#
# _framework density 18.571107000000001
#
# number of rings (size 3 to 8) (size 9 to 14) (size 15 to 20)
#    0.000    2.375    0.000    4.125    0.000    5.250 
#    0.000    0.625    0.000    4.500    0.000    3.500 
#    0.000    0.000    0.000    0.000    0.000    0.000 
#
# Total GULP energy -357121.202615 kJ/mol
# GULP energy per Si atom -5580.018791 kJ/mol
# Density = 1.852884 g / cm^3
# Si number density = 18.571107 Si / 1000 Ang^3
#
#
#
# Elastic Constant Matrix: (Units=GPa)
#
#
# Indices 1 2 3 4 5 6 
#
# 1 105.0717 11.8068 22.8447 0.0000 0.0000 0.0000
# 2 11.8068 38.9757 -2.5612 0.0000 0.0000 0.0000
# 3 22.8447 -2.5612 42.7507 0.0000 0.0000 0.0000
# 4 0.0000 0.0000 0.0000 16.3050 0.0000 0.0000
# 5 0.0000 0.0000 0.0000 0.0000 29.6650 0.0000
# 6 0.0000 0.0000 0.0000 0.0000 0.0000 10.2216
#
#
#
# Elastic Compliance Matrix: (Units=1/GPa)
#
#
# Indices 1 2 3 4 5 6 
#
# 1 0.011313 -0.003839 -0.006275 0.000000 0.000000 0.000000
# 2 -0.003839 0.027061 0.003673 0.000000 0.000000 0.000000
# 3 -0.006275 0.003673 0.026965 0.000000 0.000000 0.000000
# 4 0.000000 0.000000 0.000000 0.061331 0.000000 0.000000
# 5 0.000000 0.000000 0.000000 0.000000 0.033710 0.000000
# 6 0.000000 0.000000 0.000000 0.000000 0.000000 0.097832
#
#
# Mechanical properties :
#
#
# Convention : Reuss Voigt Hill
#
# Bulk Modulus (GPa) = 19.06376 27.88651 23.47513
# Shear Modulus (GPa) = 17.32617 21.55218 19.43917
#
# Velocity S-wave (km/s) = 3.05776 3.41034 3.23885
# Velocity P-wave (km/s) = 4.77012 5.52774 5.16285
#
# Compressibility (1/GPa) = 0.05245556
#
# Stress axis : x y z
#
# Youngs Moduli (GPa) = 88.39278 36.95296 37.08532
#
# Poissons Ratio (x) = 0.14188 0.23273
# Poissons Ratio (y) = 0.33938 -0.13621
# Poissons Ratio (z) = 0.55470 -0.13572
#
# Static dielectric constant tensor:
#      x y z
#    x 1.627530 0.000000 0.000000 
#    y 0.000000 1.641340 0.000000 
#    z 0.000000 0.000000 1.670540 
# 
# From -- ./inp_files/31274.got.cif
#   From: 2010.05.17/outbox.cif.g08.bks.cpg/sg53_16_cif.got.tgz:31274.got - 2010.06.03 12:45:16.
