data_PCOD9414170
_publ_section_title
;
Structure prediction by ZEFSAII (Michael W. Deem and Ramdas Pophale) SiO2 
 PCOD9414170
Probable space group: P M N A
;
_chemical_formula_sum "Si O2"
_cell_formula_units_Z 56
_cell_length_a 8.342047
_cell_length_b 13.978945
_cell_length_c 29.539528
_cell_angle_alpha 90.000000
_cell_angle_beta 90.000000
_cell_angle_gamma 90.000000
_cell_volume 3444.693457
_symmetry_space_group_name_H-M "P M N A"
_symmetry_group_IT_number 53
_symmetry_cell_setting 'orthorhombic'
loop_
_space_group_symop_operation_xyz
x,y,z
1/2-x,-y,1/2+z
x,-y,-z
1/2-x,y,1/2-z
-x,-y,-z
1/2+x,y,1/2-z
-x,y,z
1/2+x,-y,1/2+z
loop_
_atom_site_type_symbol
_atom_site_label
_atom_site_fract_x
_atom_site_fract_y
_atom_site_fract_z
Si Si1 0.311764 0.415636 0.890738
Si Si2 0.307981 0.294430 0.531771
Si Si3 0.803236 0.102925 0.018032
Si Si4 0.307328 0.273567 0.299596
Si Si5 0.810693 0.404286 0.055186
Si Si6 0.810143 0.797826 0.892931
Si Si7 0.307330 0.507531 0.799469
O O1 0.500000 0.398939 0.887091
O O2 0.238074 0.328096 0.918528
O O3 0.279669 0.510211 0.920711
O O4 0.248575 0.441619 0.840768
O O5 0.500000 0.294052 0.528032
O O6 0.252979 0.190412 0.514687
O O7 0.252782 0.373032 0.494601
O O8 0.747123 0.129665 0.068881
O O9 0.000000 0.103426 0.018810
O O10 0.751707 0.000000 0.000000
O O11 0.250000 0.242476 0.250000
O O12 0.500000 0.273296 0.300238
O O13 0.245328 0.211286 0.342049
O O14 0.252733 0.383602 0.306103
O O15 0.797161 0.307677 0.084833
O O16 0.000000 0.430244 0.052841
O O17 0.000000 0.818352 0.888779
O O18 0.250000 0.475888 0.750000
O O19 0.500000 0.510029 0.800208
#
# Coordination Sequence:
#
# PCOD9414170 Si02
#       7
#     8   8   8   8   8   8   8
#     4  11  21  29  40  61  89 117 146 179 215 252
#     4   9  18  29  44  65  86 113 147 178 213 258
#     4   8  14  27  47  69  89 107 140 189 226 256
#     4  10  17  26  41  60  86 117 147 177 211 253
#     4   9  16  28  42  58  85 119 150 174 204 249
#     4   8  14  24  40  62  86 115 143 173 219 259
#     4  10  20  31  42  59  83 115 153 185 216 251
#
# _framework density 16.256889000000001
#
# number of rings (size 3 to 8) (size 9 to 14) (size 15 to 20)
#    0.000    2.714    1.429    4.286    0.000    4.000 
#    0.000    0.000    0.000    0.429    0.000    1.000 
#    0.000    4.571    0.000    0.000    0.000    0.000 
#
# Total GULP energy -311961.961766 kJ/mol
# GULP energy per Si atom -5570.749317 kJ/mol
# Density = 1.621989 g / cm^3
# Si number density = 16.256889 Si / 1000 Ang^3
#
#
#
# Elastic Constant Matrix: (Units=GPa)
#
#
# Indices 1 2 3 4 5 6 
#
# 1 12.4382 5.1182 13.0462 0.0000 0.0000 0.0000
# 2 5.1182 61.8746 64.7895 0.0000 0.0000 0.0000
# 3 13.0462 64.7895 164.2242 0.0000 0.0000 0.0000
# 4 0.0000 0.0000 0.0000 -7.1403 0.0000 0.0000
# 5 0.0000 0.0000 0.0000 0.0000 10.4425 0.0000
# 6 0.0000 0.0000 0.0000 0.0000 0.0000 134.1697
#
#
#
# Elastic Compliance Matrix: (Units=1/GPa)
#
#
# Indices 1 2 3 4 5 6 
#
# 1 0.087706 0.000069 -0.006995 0.000000 0.000000 0.000000
# 2 0.000069 0.027538 -0.010870 0.000000 0.000000 0.000000
# 3 -0.006995 -0.010870 0.010933 0.000000 0.000000 0.000000
# 4 0.000000 0.000000 0.000000 -0.140050 0.000000 0.000000
# 5 0.000000 0.000000 0.000000 0.000000 0.095763 0.000000
# 6 0.000000 0.000000 0.000000 0.000000 0.000000 0.007453
#
#
# Mechanical properties :
#
#
# Convention : Reuss Voigt Hill
#
# Bulk Modulus (GPa) = 11.03917 44.93832 27.98875
# Shear Modulus (GPa) = 32.23129 37.86658 35.04893
#
# Velocity S-wave (km/s) = 4.45750 4.83148 4.64825
# Velocity P-wave (km/s) = 5.77040 7.66987 6.78692
#
# Compressibility (1/GPa) = 0.09058648
#
# Stress axis : x y z
#
# Youngs Moduli (GPa) = 11.40177 36.31387 91.46449
#
# Poissons Ratio (x) = -0.00252 0.63978
# Poissons Ratio (y) = -0.00079 0.99419
# Poissons Ratio (z) = 0.07975 0.39472
#
# Static dielectric constant tensor:
#      x y z
#    x 1.562200 0.000000 0.000000 
#    y 0.000000 1.522840 0.000000 
#    z 0.000000 0.000000 1.593110 
# 
# From -- ./inp_files/38386.got.cif
#   From: 2010.05.17/outbox.cif.g08.bks.cpg/sg53_20_cif.got.tgz:38386.got - 2010.06.03 12:45:16.
