data_PCOD9414970
_publ_section_title
;
Structure prediction by ZEFSAII (Michael W. Deem and Ramdas Pophale) SiO2 
 PCOD9414970
Probable space group: P M N A
;
_chemical_formula_sum "Si O2"
_cell_formula_units_Z 64
_cell_length_a 18.221722
_cell_length_b 15.358245
_cell_length_c 13.844045
_cell_angle_alpha 90.000000
_cell_angle_beta 90.000000
_cell_angle_gamma 90.000000
_cell_volume 3874.306812
_symmetry_space_group_name_H-M "P M N A"
_symmetry_group_IT_number 53
_symmetry_cell_setting 'orthorhombic'
loop_
_space_group_symop_operation_xyz
x,y,z
1/2-x,-y,1/2+z
x,-y,-z
1/2-x,y,1/2-z
-x,-y,-z
1/2+x,y,1/2-z
-x,y,z
1/2+x,-y,1/2+z
loop_
_atom_site_type_symbol
_atom_site_label
_atom_site_fract_x
_atom_site_fract_y
_atom_site_fract_z
Si Si1 0.585249 0.019812 0.816399
Si Si2 0.086629 0.247661 0.387073
Si Si3 0.337393 0.899309 0.513699
Si Si4 0.676752 0.703815 0.191347
Si Si5 0.584582 0.819144 0.332797
Si Si6 0.086868 0.597894 0.465680
Si Si7 0.662832 0.150077 0.268144
Si Si8 0.826132 0.137219 0.542516
O O1 0.500000 0.003240 0.839240
O O2 0.588066 0.093521 0.732889
O O3 0.629231 0.062190 0.904102
O O4 0.625787 0.934199 0.780456
O O5 0.097623 0.339040 0.441832
O O6 0.127136 0.232609 0.285705
O O7 0.122624 0.179219 0.461295
O O8 0.000000 0.232804 0.376370
O O9 0.373412 0.841351 0.430585
O O10 0.353600 0.860795 0.618868
O O11 0.249858 0.895789 0.500078
O O12 0.361546 0.000000 0.500000
O O13 0.750000 0.677290 0.250000
O O14 0.620933 0.742465 0.270723
O O15 0.637411 0.633026 0.122087
O O16 0.692299 0.786589 0.120642
O O17 0.500000 0.799801 0.352012
O O18 0.102013 0.500000 0.500000
O O19 0.000000 0.604946 0.438588
O O20 0.750000 0.149355 0.250000
#
# Coordination Sequence:
#
# PCOD9414970 Si02
#       8
#     8   8   8   8   8   8   8   8
#     4  10  21  34  51  73 102 139 187 239 278 312
#     4  10  21  37  56  80 106 133 175 225 275 333
#     4  12  22  35  51  70 104 155 199 229 264 313
#     4  10  18  33  60  84 111 138 175 221 274 327
#     4  10  21  34  50  76 106 143 189 230 268 311
#     4   9  19  38  64  89 113 138 168 217 280 342
#     4  12  23  35  50  71 106 148 189 227 272 319
#     4  10  20  34  54  77 103 140 181 230 280 319
#
# _framework density 16.519083999999999
#
# number of rings (size 3 to 8) (size 9 to 14) (size 15 to 20)
#    0.000    1.625    3.750    1.875    0.000    4.250 
#    0.000    1.875    0.000    0.000    0.000    0.000 
#    0.000    5.000    0.000    0.000    0.000    0.000 
#
# Total GULP energy -357284.236054 kJ/mol
# GULP energy per Si atom -5582.566188 kJ/mol
# Density = 1.648149 g / cm^3
# Si number density = 16.519084 Si / 1000 Ang^3
#
#
#
# Elastic Constant Matrix: (Units=GPa)
#
#
# Indices 1 2 3 4 5 6 
#
# 1 113.8839 53.4403 54.1732 0.0000 0.0000 0.0000
# 2 53.4403 79.7139 53.6866 0.0000 0.0000 0.0000
# 3 54.1732 53.6866 125.7939 0.0000 0.0000 0.0000
# 4 0.0000 0.0000 0.0000 16.9516 0.0000 0.0000
# 5 0.0000 0.0000 0.0000 0.0000 5.6819 0.0000
# 6 0.0000 0.0000 0.0000 0.0000 0.0000 20.3131
#
#
#
# Elastic Compliance Matrix: (Units=1/GPa)
#
#
# Indices 1 2 3 4 5 6 
#
# 1 0.013446 -0.007178 -0.002727 0.000000 0.000000 0.000000
# 2 -0.007178 0.021437 -0.006058 0.000000 0.000000 0.000000
# 3 -0.002727 -0.006058 0.011709 0.000000 0.000000 0.000000
# 4 0.000000 0.000000 0.000000 0.058991 0.000000 0.000000
# 5 0.000000 0.000000 0.000000 0.000000 0.175998 0.000000
# 6 0.000000 0.000000 0.000000 0.000000 0.000000 0.049229
#
#
# Mechanical properties :
#
#
# Convention : Reuss Voigt Hill
#
# Bulk Modulus (GPa) = 68.18074 71.33242 69.75658
# Shear Modulus (GPa) = 13.60079 19.12876 16.36477
#
# Velocity S-wave (km/s) = 2.87250 3.40660 3.15089
# Velocity P-wave (km/s) = 7.23638 7.66478 7.45366
#
# Compressibility (1/GPa) = 0.01466690
#
# Stress axis : x y z
#
# Youngs Moduli (GPa) = 74.36953 46.64933 85.40147
#
# Poissons Ratio (x) = 0.33483 0.23293
# Poissons Ratio (y) = 0.53379 0.51734
# Poissons Ratio (z) = 0.20284 0.28259
#
# Static dielectric constant tensor:
#      x y z
#    x 1.549110 0.000000 0.000000 
#    y 0.000000 1.543300 0.000000 
#    z 0.000000 0.000000 1.570800 
# 
# From -- ./inp_files/17133.got.cif
#   From: 2010.05.17/outbox.cif.g08.bks.cpg/sg53_9_cif.got.tgz:17133.got - 2010.06.03 12:45:16.
