data_PCOD9414409
_publ_section_title
;
Structure prediction by ZEFSAII (Michael W. Deem and Ramdas Pophale) SiO2 
 PCOD9414409
Probable space group: P M N A
;
_chemical_formula_sum "Si O2"
_cell_formula_units_Z 64
_cell_length_a 9.368012
_cell_length_b 17.413418
_cell_length_c 26.682139
_cell_angle_alpha 90.000000
_cell_angle_beta 90.000000
_cell_angle_gamma 90.000000
_cell_volume 4352.633556
_symmetry_space_group_name_H-M "P M N A"
_symmetry_group_IT_number 53
_symmetry_cell_setting 'orthorhombic'
loop_
_space_group_symop_operation_xyz
x,y,z
1/2-x,-y,1/2+z
x,-y,-z
1/2-x,y,1/2-z
-x,-y,-z
1/2+x,y,1/2-z
-x,y,z
1/2+x,-y,1/2+z
loop_
_atom_site_type_symbol
_atom_site_label
_atom_site_fract_x
_atom_site_fract_y
_atom_site_fract_z
Si Si1 0.671009 0.667575 0.459446
Si Si2 0.163358 0.907457 0.956602
Si Si3 0.831079 0.975160 0.391559
Si Si4 0.164261 0.483335 0.559921
Si Si5 0.830396 0.160448 0.933234
Si Si6 0.329195 0.365112 0.423731
Si Si7 0.829781 0.093405 0.301997
Si Si8 0.334112 0.213806 0.366683
O O1 0.500000 0.657824 0.454373
O O2 0.752953 0.596732 0.434422
O O3 0.710798 0.750211 0.436940
O O4 0.701147 0.664705 0.519458
O O5 0.170274 0.837610 0.917184
O O6 0.000000 0.937180 0.955444
O O7 0.267827 0.972460 0.936319
O O8 0.193760 0.875102 0.011384
O O9 0.754502 0.893186 0.395030
O O10 0.000000 0.966781 0.396893
O O11 0.801530 0.024037 0.341222
O O12 0.165538 0.500000 0.500000
O O13 0.245985 0.555586 0.583633
O O14 0.000000 0.478560 0.576049
O O15 0.000000 0.156357 0.923513
O O16 0.500000 0.377659 0.421452
O O17 0.291983 0.299041 0.383924
O O18 0.750000 0.079625 0.250000
O O19 0.765304 0.170351 0.327273
O O20 0.000000 0.099923 0.295471
O O21 0.500000 0.214164 0.349714
#
# Coordination Sequence:
#
# PCOD9414409 Si02
#       8
#     8   8   8   8   8   8   8   8
#     4   9  16  27  41  58  82 116 156 189 214 245
#     4   9  16  28  43  60  84 115 150 182 211 250
#     4  10  21  32  42  62  87 111 141 178 223 269
#     4   9  17  26  36  55  83 116 151 184 219 253
#     4  10  18  28  43  62  85 116 153 186 214 251
#     4   9  15  26  43  61  83 114 151 185 214 250
#     4  10  21  36  51  66  86 112 143 181 226 272
#     4   9  16  28  47  68  88 113 147 184 222 261
#
# _framework density 14.703742
#
# number of rings (size 3 to 8) (size 9 to 14) (size 15 to 20)
#    0.000    2.625    1.250    1.500    0.000    6.000 
#    0.000    0.000    0.000    0.000    0.000    0.000 
#    0.000    1.000    0.000    7.000    0.000    5.125 
#
# Total GULP energy -356673.521138 kJ/mol
# GULP energy per Si atom -5573.023768 kJ/mol
# Density = 1.467028 g / cm^3
# Si number density = 14.703742 Si / 1000 Ang^3
#
#
#
# Elastic Constant Matrix: (Units=GPa)
#
#
# Indices 1 2 3 4 5 6 
#
# 1 66.6051 74.2891 40.2726 0.0000 0.0000 0.0000
# 2 74.2891 146.0992 40.8950 0.0000 0.0000 0.0000
# 3 40.2726 40.8950 44.6983 0.0000 0.0000 0.0000
# 4 0.0000 0.0000 0.0000 10.3029 0.0000 0.0000
# 5 0.0000 0.0000 0.0000 0.0000 11.3396 0.0000
# 6 0.0000 0.0000 0.0000 0.0000 0.0000 -134.4637
#
#
#
# Elastic Compliance Matrix: (Units=1/GPa)
#
#
# Indices 1 2 3 4 5 6 
#
# 1 0.057405 -0.019777 -0.033627 0.000000 0.000000 0.000000
# 2 -0.019777 0.016014 0.003167 0.000000 0.000000 0.000000
# 3 -0.033627 0.003167 0.049772 0.000000 0.000000 0.000000
# 4 0.000000 0.000000 0.000000 0.097060 0.000000 0.000000
# 5 0.000000 0.000000 0.000000 0.000000 0.088186 0.000000
# 6 0.000000 0.000000 0.000000 0.000000 0.000000 -0.007437
#
#
# Mechanical properties :
#
#
# Convention : Reuss Voigt Hill
#
# Bulk Modulus (GPa) = 44.01855 63.14623 53.58239
# Shear Modulus (GPa) = 12.22354 -15.76786 -1.77216
#
# Velocity S-wave (km/s) = 2.88639 -3.27826 -1.09903
# Velocity P-wave (km/s) = 6.41173 5.35813 5.90846
#
# Compressibility (1/GPa) = 0.02271770
#
# Stress axis : x y z
#
# Youngs Moduli (GPa) = 17.42022 62.44396 20.09152
#
# Poissons Ratio (x) = 1.23494 0.67561
# Poissons Ratio (y) = 0.34451 -0.06363
# Poissons Ratio (z) = 0.58579 -0.19775
#
# Static dielectric constant tensor:
#      x y z
#    x 1.489010 0.000000 0.000000 
#    y 0.000000 1.495260 0.000000 
#    z 0.000000 0.000000 1.460920 
# 
# From -- ./inp_files/36517.got.cif
#   From: 2010.05.17/outbox.cif.g08.bks.cpg/sg53_19_cif.got.tgz:36517.got - 2010.06.03 12:45:16.
