data_PCOD9414687
_publ_section_title
;
Structure prediction by ZEFSAII (Michael W. Deem and Ramdas Pophale) SiO2 
 PCOD9414687
Probable space group: P M N A
;
_chemical_formula_sum "Si O2"
_cell_formula_units_Z 48
_cell_length_a 8.170123
_cell_length_b 12.150193
_cell_length_c 27.017983
_cell_angle_alpha 90.000000
_cell_angle_beta 90.000000
_cell_angle_gamma 90.000000
_cell_volume 2682.036571
_symmetry_space_group_name_H-M "P M N A"
_symmetry_group_IT_number 53
_symmetry_cell_setting 'orthorhombic'
loop_
_space_group_symop_operation_xyz
x,y,z
1/2-x,-y,1/2+z
x,-y,-z
1/2-x,y,1/2-z
-x,-y,-z
1/2+x,y,1/2-z
-x,y,z
1/2+x,-y,1/2+z
loop_
_atom_site_type_symbol
_atom_site_label
_atom_site_fract_x
_atom_site_fract_y
_atom_site_fract_z
Si Si1 0.301772 0.043681 0.945581
Si Si2 0.809516 0.485135 0.873229
Si Si3 0.303056 0.678417 0.694018
Si Si4 0.691513 0.638641 0.959815
Si Si5 0.195418 0.706376 0.434464
Si Si6 0.695255 0.831477 0.604067
O O1 0.500000 0.042738 0.944885
O O2 0.244030 0.168192 0.935360
O O3 0.238316 0.957661 0.905000
O O4 0.249763 0.000000 0.000000
O O5 0.740723 0.562801 0.829480
O O6 0.786245 0.561418 0.921829
O O7 0.733158 0.368227 0.887142
O O8 0.000000 0.467198 0.863936
O O9 0.250000 0.694793 0.750000
O O10 0.500000 0.673609 0.692640
O O11 0.255171 0.776354 0.656293
O O12 0.500000 0.605899 0.958944
O O13 0.711383 0.761153 0.937817
O O14 0.754309 0.644134 0.015769
O O15 0.000000 0.712177 0.440118
O O16 0.500000 0.815326 0.598056
#
# Coordination Sequence:
#
# PCOD9414687 Si02
#       6
#     8   8   8   8   8   8
#     4  10  19  34  51  72 105 144 182 214 242 292
#     4  10  21  34  48  74 106 130 164 214 262 307
#     4   9  20  37  56  78 101 126 163 214 266 316
#     4  10  18  31  49  70 101 140 176 209 244 293
#     4  10  20  32  48  71 102 141 180 207 239 296
#     4  10  20  33  50  78 108 133 170 216 262 305
#
# _framework density 17.896847999999999
#
# number of rings (size 3 to 8) (size 9 to 14) (size 15 to 20)
#    0.000    2.167    1.667    3.000    0.000    8.333 
#    0.000    0.000    0.000    1.000    0.000    0.000 
#    0.000    0.000    0.000    0.000    0.000    0.000 
#
# Total GULP energy -267700.996206 kJ/mol
# GULP energy per Si atom -5577.104088 kJ/mol
# Density = 1.785611 g / cm^3
# Si number density = 17.896848 Si / 1000 Ang^3
#
#
#
# Elastic Constant Matrix: (Units=GPa)
#
#
# Indices 1 2 3 4 5 6 
#
# 1 10.2325 -4.2276 3.3646 0.0000 0.0000 0.0000
# 2 -4.2276 85.8738 33.2404 0.0000 0.0000 0.0000
# 3 3.3646 33.2404 95.6006 0.0000 0.0000 0.0000
# 4 0.0000 0.0000 0.0000 16.2623 0.0000 0.0000
# 5 0.0000 0.0000 0.0000 0.0000 15.9456 0.0000
# 6 0.0000 0.0000 0.0000 0.0000 0.0000 28.0322
#
#
#
# Elastic Compliance Matrix: (Units=1/GPa)
#
#
# Indices 1 2 3 4 5 6 
#
# 1 0.102859 0.007471 -0.006218 0.000000 0.000000 0.000000
# 2 0.007471 0.013999 -0.005130 0.000000 0.000000 0.000000
# 3 -0.006218 -0.005130 0.012463 0.000000 0.000000 0.000000
# 4 0.000000 0.000000 0.000000 0.061492 0.000000 0.000000
# 5 0.000000 0.000000 0.000000 0.000000 0.062713 0.000000
# 6 0.000000 0.000000 0.000000 0.000000 0.000000 0.035673
#
#
# Mechanical properties :
#
#
# Convention : Reuss Voigt Hill
#
# Bulk Modulus (GPa) = 8.22600 28.49574 18.36087
# Shear Modulus (GPa) = 14.81590 22.66999 18.74295
#
# Velocity S-wave (km/s) = 2.88036 3.56294 3.23968
# Velocity P-wave (km/s) = 3.95832 5.73435 4.92702
#
# Compressibility (1/GPa) = 0.12156584
#
# Stress axis : x y z
#
# Youngs Moduli (GPa) = 9.72205 71.43565 80.23882
#
# Poissons Ratio (x) = -0.53366 0.49889
# Poissons Ratio (y) = -0.07263 0.41165
# Poissons Ratio (z) = 0.06045 0.36648
#
# Static dielectric constant tensor:
#      x y z
#    x 1.625740 0.000000 0.000000 
#    y 0.000000 1.649540 0.000000 
#    z 0.000000 0.000000 1.601640 
# 
# From -- ./inp_files/33866.got.cif
#   From: 2010.05.17/outbox.cif.g08.bks.cpg/sg53_17_cif.got.tgz:33866.got - 2010.06.03 12:45:16.
