data_PCOD9414959
_publ_section_title
;
Structure prediction by ZEFSAII (Michael W. Deem and Ramdas Pophale) SiO2 
 PCOD9414959
Probable space group: P M N A
;
_chemical_formula_sum "Si O2"
_cell_formula_units_Z 64
_cell_length_a 17.095365
_cell_length_b 14.034066
_cell_length_c 14.418191
_cell_angle_alpha 90.000000
_cell_angle_beta 90.000000
_cell_angle_gamma 90.000000
_cell_volume 3459.176061
_symmetry_space_group_name_H-M "P M N A"
_symmetry_group_IT_number 53
_symmetry_cell_setting 'orthorhombic'
loop_
_space_group_symop_operation_xyz
x,y,z
1/2-x,-y,1/2+z
x,-y,-z
1/2-x,y,1/2-z
-x,-y,-z
1/2+x,y,1/2-z
-x,y,z
1/2+x,-y,1/2+z
loop_
_atom_site_type_symbol
_atom_site_label
_atom_site_fract_x
_atom_site_fract_y
_atom_site_fract_z
Si Si1 0.089932 0.449848 0.382933
Si Si2 0.910226 0.800639 0.302512
Si Si3 0.585092 0.368313 0.657449
Si Si4 0.160598 0.350384 0.554029
Si Si5 0.833924 0.329664 0.025388
Si Si6 0.594471 0.137828 0.445529
Si Si7 0.667513 0.548713 0.704750
Si Si8 0.594336 0.057535 0.650886
O O1 0.114746 0.370300 0.457406
O O2 0.141988 0.546544 0.397363
O O3 0.104664 0.415128 0.279055
O O4 0.000000 0.477420 0.396169
O O5 0.914002 0.726086 0.217755
O O6 0.867992 0.739330 0.383798
O O7 0.876326 0.893268 0.246830
O O8 0.000000 0.820048 0.333285
O O9 0.500000 0.414809 0.670644
O O10 0.599892 0.345448 0.551294
O O11 0.652198 0.437205 0.692667
O O12 0.250676 0.335152 0.526509
O O13 0.854093 0.230072 0.073707
O O14 0.837030 0.409027 0.103338
O O15 0.500000 0.152928 0.440915
O O16 0.613117 0.110494 0.553304
O O17 0.613778 0.051546 0.375188
O O18 0.750000 0.570481 0.750000
O O19 0.500000 0.062786 0.658592
#
# Coordination Sequence:
#
# PCOD9414959 Si02
#       8
#     8   8   8   8   8   8   8   8
#     4  11  22  39  60  80 110 164 221 253 282 340
#     4  10  18  33  57  86 117 147 191 247 294 345
#     4  11  23  36  53  83 115 147 193 240 288 348
#     4  11  22  36  54  83 119 161 202 246 293 346
#     4  12  24  35  56  82 119 158 189 239 305 362
#     4   9  17  33  56  83 113 145 185 232 289 361
#     4  12  24  40  54  75 116 160 203 241 292 346
#     4   8  15  31  57  83 110 141 179 236 293 346
#
# _framework density 18.501515999999999
#
# number of rings (size 3 to 8) (size 9 to 14) (size 15 to 20)
#    0.000    1.500    3.750    4.125    1.750    2.500 
#    0.000    0.000    0.000    3.000    0.000    0.000 
#    0.000    4.000    0.000    0.500    0.250    0.000 
#
# Total GULP energy -356590.661277 kJ/mol
# GULP energy per Si atom -5571.729082 kJ/mol
# Density = 1.845941 g / cm^3
# Si number density = 18.501516 Si / 1000 Ang^3
#
#
#
# Elastic Constant Matrix: (Units=GPa)
#
#
# Indices 1 2 3 4 5 6 
#
# 1 60.9209 23.0168 19.2769 0.0000 0.0000 0.0000
# 2 23.0168 53.0768 22.3144 0.0000 0.0000 0.0000
# 3 19.2769 22.3144 91.2301 0.0000 0.0000 0.0000
# 4 0.0000 0.0000 0.0000 40.0466 0.0000 0.0000
# 5 0.0000 0.0000 0.0000 0.0000 -1.9083 0.0000
# 6 0.0000 0.0000 0.0000 0.0000 0.0000 7.4482
#
#
#
# Elastic Compliance Matrix: (Units=1/GPa)
#
#
# Indices 1 2 3 4 5 6 
#
# 1 0.020075 -0.007716 -0.002355 0.000000 0.000000 0.000000
# 2 -0.007716 0.023965 -0.004232 0.000000 0.000000 0.000000
# 3 -0.002355 -0.004232 0.012494 0.000000 0.000000 0.000000
# 4 0.000000 0.000000 0.000000 0.024971 0.000000 0.000000
# 5 0.000000 0.000000 0.000000 0.000000 -0.524034 0.000000
# 6 0.000000 0.000000 0.000000 0.000000 0.000000 0.134260
#
#
# Mechanical properties :
#
#
# Convention : Reuss Voigt Hill
#
# Bulk Modulus (GPa) = 35.80283 37.16042 36.48163
# Shear Modulus (GPa) = -18.49416 18.49196 -0.00110
#
# Velocity S-wave (km/s) = -3.16508 3.16489 -0.02441
# Velocity P-wave (km/s) = 2.45690 5.78654 4.44524
#
# Compressibility (1/GPa) = 0.02793075
#
# Stress axis : x y z
#
# Youngs Moduli (GPa) = 49.81360 41.72670 80.03944
#
# Poissons Ratio (x) = 0.32194 0.18846
# Poissons Ratio (y) = 0.38434 0.33869
# Poissons Ratio (z) = 0.11729 0.17657
#
# Static dielectric constant tensor:
#      x y z
#    x 1.650360 0.000000 0.000000 
#    y 0.000000 1.672770 0.000000 
#    z 0.000000 0.000000 1.684940 
# 
# From -- ./inp_files/23969.got.cif
#   From: 2010.05.17/outbox.cif.g08.bks.cpg/sg53_12_cif.got.tgz:23969.got - 2010.06.03 12:45:16.
