data_PCOD9414074
_publ_section_title
;
Structure prediction by ZEFSAII (Michael W. Deem and Ramdas Pophale) SiO2 
 PCOD9414074
Probable space group: P M N A
;
_chemical_formula_sum "Si O2"
_cell_formula_units_Z 64
_cell_length_a 18.529768
_cell_length_b 9.592943
_cell_length_c 18.789490
_cell_angle_alpha 90.000000
_cell_angle_beta 90.000000
_cell_angle_gamma 90.000000
_cell_volume 3339.925950
_symmetry_space_group_name_H-M "P M N A"
_symmetry_group_IT_number 53
_symmetry_cell_setting 'orthorhombic'
loop_
_space_group_symop_operation_xyz
x,y,z
1/2-x,-y,1/2+z
x,-y,-z
1/2-x,y,1/2-z
-x,-y,-z
1/2+x,y,1/2-z
-x,y,z
1/2+x,-y,1/2+z
loop_
_atom_site_type_symbol
_atom_site_label
_atom_site_fract_x
_atom_site_fract_y
_atom_site_fract_z
Si Si1 0.579097 0.002672 0.335890
Si Si2 0.267143 0.164074 0.480056
Si Si3 0.581492 0.491811 0.585683
Si Si4 0.915334 0.255719 0.725753
Si Si5 0.309740 0.461581 0.698220
Si Si6 0.269761 0.101283 0.329461
Si Si7 0.284448 0.788719 0.130062
Si Si8 0.078591 0.803574 0.035492
O O1 0.500000 0.061472 0.323404
O O2 0.590045 0.875320 0.280269
O O3 0.582362 0.939186 0.415348
O O4 0.644062 0.107092 0.330242
O O5 0.241248 0.181068 0.399277
O O6 0.223871 0.230285 0.545401
O O7 0.350681 0.207724 0.488492
O O8 0.265076 0.000000 0.500000
O O9 0.591412 0.500000 0.500000
O O10 0.500000 0.542435 0.602922
O O11 0.647823 0.540200 0.634548
O O12 0.579878 0.323368 0.591879
O O13 0.874966 0.390949 0.757520
O O14 0.866049 0.218048 0.657834
O O15 0.000000 0.279279 0.712638
O O16 0.250000 0.532464 0.750000
O O17 0.263601 0.332656 0.665449
O O18 0.250000 0.139867 0.250000
O O19 0.247784 0.938171 0.344201
O O20 0.000000 0.798412 0.999583
#
# Coordination Sequence:
#
# PCOD9414074 Si02
#       8
#     8   8   8   8   8   8   8   8
#     4  10  16  23  38  57  84 112 136 171 208 250
#     4  10  18  26  40  58  81 113 143 178 210 245
#     4  10  18  28  44  66  95 125 139 159 211 273
#     4  10  16  23  40  60  84 113 137 168 214 261
#     4  10  16  26  45  65  89 114 137 174 214 254
#     4  11  17  27  38  55  79 109 149 178 209 252
#     4  10  16  27  40  59  83 110 138 175 221 251
#     4  10  17  27  40  61  90 113 138 167 204 256
#
# _framework density 19.162101
#
# number of rings (size 3 to 8) (size 9 to 14) (size 15 to 20)
#    0.000    1.875    7.500    0.750    0.000    0.750 
#    0.000    0.000    0.000    4.875    0.000    0.000 
#    0.000   12.500    0.000    0.000    0.000    0.000 
#
# Total GULP energy -356753.457852 kJ/mol
# GULP energy per Si atom -5574.272779 kJ/mol
# Density = 1.911849 g / cm^3
# Si number density = 19.162101 Si / 1000 Ang^3
#
#
#
# Elastic Constant Matrix: (Units=GPa)
#
#
# Indices 1 2 3 4 5 6 
#
# 1 132.9735 6.5960 67.8013 0.0000 0.0000 0.0000
# 2 6.5960 25.6774 10.0707 0.0000 0.0000 0.0000
# 3 67.8013 10.0707 151.2227 0.0000 0.0000 0.0000
# 4 0.0000 0.0000 0.0000 16.4853 0.0000 0.0000
# 5 0.0000 0.0000 0.0000 0.0000 22.4532 0.0000
# 6 0.0000 0.0000 0.0000 0.0000 0.0000 3.5409
#
#
#
# Elastic Compliance Matrix: (Units=1/GPa)
#
#
# Indices 1 2 3 4 5 6 
#
# 1 0.009765 -0.000813 -0.004324 0.000000 0.000000 0.000000
# 2 -0.000813 0.040057 -0.002303 0.000000 0.000000 0.000000
# 3 -0.004324 -0.002303 0.008705 0.000000 0.000000 0.000000
# 4 0.000000 0.000000 0.000000 0.060660 0.000000 0.000000
# 5 0.000000 0.000000 0.000000 0.000000 0.044537 0.000000
# 6 0.000000 0.000000 0.000000 0.000000 0.000000 0.282418
#
#
# Mechanical properties :
#
#
# Convention : Reuss Voigt Hill
#
# Bulk Modulus (GPa) = 22.91104 53.20107 38.05605
# Shear Modulus (GPa) = 10.51367 23.52293 17.01830
#
# Velocity S-wave (km/s) = 2.34491 3.50748 2.98337
# Velocity P-wave (km/s) = 4.39476 6.65035 5.63653
#
# Compressibility (1/GPa) = 0.04364709
#
# Stress axis : x y z
#
# Youngs Moduli (GPa) = 102.40139 24.96451 114.87702
#
# Poissons Ratio (x) = 0.02029 0.49676
# Poissons Ratio (y) = 0.08321 0.26459
# Poissons Ratio (z) = 0.44281 0.05750
#
# Static dielectric constant tensor:
#      x y z
#    x 1.674940 0.000000 0.000000 
#    y 0.000000 1.755930 0.000000 
#    z 0.000000 0.000000 1.741110 
# 
# From -- ./inp_files/32874.got.cif
#   From: 2010.05.17/outbox.cif.g08.bks.cpg/sg53_17_cif.got.tgz:32874.got - 2010.06.03 12:45:16.
