data_PCOD9414011
_publ_section_title
;
Structure prediction by ZEFSAII (Michael W. Deem and Ramdas Pophale) SiO2 
 PCOD9414011
Probable space group: P N N A
;
_chemical_formula_sum "Si O2"
_cell_formula_units_Z 40
_cell_length_a 9.000000
_cell_length_b 9.000000
_cell_length_c 24.000000
_cell_angle_alpha 90.000000
_cell_angle_beta 90.000000
_cell_angle_gamma 90.000000
_cell_volume 1944.000000
_symmetry_space_group_name_H-M "P N N A"
_symmetry_group_IT_number 52
_symmetry_cell_setting 'orthorhombic'
loop_
_space_group_symop_operation_xyz
x,y,z
1/2-x,-y,z
x,1/2-y,1/2-z
1/2-x,1/2+y,1/2-z
-x,-y,-z
1/2+x,y,-z
-x,1/2+y,1/2+z
1/2+x,1/2-y,1/2+z
loop_
_atom_site_type_symbol
_atom_site_label
_atom_site_fract_x
_atom_site_fract_y
_atom_site_fract_z
Si Si1 0.259812 0.823201 0.440471
Si Si2 0.262362 0.838503 0.167438
Si Si3 0.250000 0.000000 0.878968
Si Si4 0.994835 0.250000 0.750000
Si Si5 0.059293 0.590131 0.724193
Si Si6 0.455035 0.653436 0.531039
O O1 0.314584 0.777993 0.378650
O O2 0.367833 0.754433 0.486763
O O3 0.100238 0.741737 0.448132
O O4 0.250000 0.000000 0.446049
O O5 0.114165 0.774945 0.196750
O O6 0.384435 0.881038 0.213817
O O7 0.250000 0.000000 0.137480
O O8 0.136434 0.921925 0.836234
O O9 0.345183 0.891551 0.918479
O O10 0.072876 0.419183 0.751145
O O11 0.112431 0.750000 0.750000
O O12 0.500000 0.500000 0.500000
#
# Coordination Sequence:
#
# PCOD9414011 Si02
#       6
#     8   8   4   4   8   8
#     4  12  26  41  71 109 145 179 239 309 364 422
#     4  10  21  41  68 101 134 188 234 284 349 426
#     4  12  26  46  74 100 136 192 242 292 370 432
#     4  10  22  44  70 102 144 178 244 288 344 430
#     4  11  25  43  70 102 140 186 235 293 356 427
#     4  12  23  49  73  98 139 192 241 290 358 449
#
# _framework density 20.576132000000001
#
# number of rings (size 3 to 8) (size 9 to 14) (size 15 to 20)
#    0.000    0.800    3.000    5.400    4.200    0.000 
#    0.000    0.000    0.000    0.000    0.000    0.000 
#    0.000    0.000    0.000    0.000    0.000    0.000 
#
# Total GULP energy -223244.693482 kJ/mol
# GULP energy per Si atom -5581.117337 kJ/mol
# Density = 2.052930 g / cm^3
# Si number density = 20.576132 Si / 1000 Ang^3
#
#
#
# Elastic Constant Matrix: (Units=GPa)
#
#
# Indices 1 2 3 4 5 6 
#
# 1 53.8995 33.7180 -1.8416 0.0000 0.0000 0.0000
# 2 33.7180 213.0457 54.2653 0.0000 0.0000 0.0000
# 3 -1.8416 54.2653 75.6531 0.0000 0.0000 0.0000
# 4 0.0000 0.0000 0.0000 42.0650 0.0000 0.0000
# 5 0.0000 0.0000 0.0000 0.0000 40.9860 0.0000
# 6 0.0000 0.0000 0.0000 0.0000 0.0000 40.0021
#
#
#
# Elastic Compliance Matrix: (Units=1/GPa)
#
#
# Indices 1 2 3 4 5 6 
#
# 1 0.021366 -0.004299 0.003604 0.000000 0.000000 0.000000
# 2 -0.004299 0.006608 -0.004845 0.000000 0.000000 0.000000
# 3 0.003604 -0.004845 0.016781 0.000000 0.000000 0.000000
# 4 0.000000 0.000000 0.000000 0.023773 0.000000 0.000000
# 5 0.000000 0.000000 0.000000 0.000000 0.024399 0.000000
# 6 0.000000 0.000000 0.000000 0.000000 0.000000 0.024999
#
#
# Mechanical properties :
#
#
# Convention : Reuss Voigt Hill
#
# Bulk Modulus (GPa) = 29.69574 57.20909 43.45242
# Shear Modulus (GPa) = 35.65559 41.70772 38.68166
#
# Velocity S-wave (km/s) = 4.16728 4.50710 4.34052
# Velocity P-wave (km/s) = 6.13339 7.41278 6.80322
#
# Compressibility (1/GPa) = 0.03367487
#
# Stress axis : x y z
#
# Youngs Moduli (GPa) = 46.80372 151.32463 59.59103
#
# Poissons Ratio (x) = 0.65062 -0.21477
# Poissons Ratio (y) = 0.20123 0.28870
# Poissons Ratio (z) = -0.16868 0.73313
#
# Static dielectric constant tensor:
#      x y z
#    x 1.806900 0.000000 0.000000 
#    y 0.000000 1.768440 0.000000 
#    z 0.000000 0.000000 1.731700 
# 
# From -- ./inp_files/39285.got.cif
#   From: 2010.05.17/outbox.ucp.g08.bks.cvg/sg52_20_cif.got.tgz:39285.got - 2010.06.11 16:30:12.
