data_PCOD9414792
_publ_section_title
;
Structure prediction by ZEFSAII (Michael W. Deem and Ramdas Pophale) SiO2 
 PCOD9414792
Probable space group: P M N A
;
_chemical_formula_sum "Si O2"
_cell_formula_units_Z 44
_cell_length_a 16.825200
_cell_length_b 8.217616
_cell_length_c 14.704068
_cell_angle_alpha 90.000000
_cell_angle_beta 90.000000
_cell_angle_gamma 90.000000
_cell_volume 2033.029035
_symmetry_space_group_name_H-M "P M N A"
_symmetry_group_IT_number 53
_symmetry_cell_setting 'orthorhombic'
loop_
_space_group_symop_operation_xyz
x,y,z
1/2-x,-y,1/2+z
x,-y,-z
1/2-x,y,1/2-z
-x,-y,-z
1/2+x,y,1/2-z
-x,y,z
1/2+x,-y,1/2+z
loop_
_atom_site_type_symbol
_atom_site_label
_atom_site_fract_x
_atom_site_fract_y
_atom_site_fract_z
Si Si1 0.654771 0.866708 0.725722
Si Si2 0.325058 0.000000 0.000000
Si Si3 0.802830 0.146875 0.883890
Si Si4 0.865782 0.664713 0.953057
Si Si5 0.273984 0.507737 0.146193
Si Si6 0.091294 0.714442 0.593710
O O1 0.750000 0.844590 0.750000
O O2 0.616491 0.759867 0.641710
O O3 0.606064 0.818709 0.814447
O O4 0.650482 0.055102 0.694891
O O5 0.263290 0.979676 0.082297
O O6 0.373717 0.164972 0.016457
O O7 0.753237 0.307288 0.861425
O O8 0.858412 0.203896 0.967015
O O9 0.780117 0.597405 0.921655
O O10 0.903891 0.500000 0.000000
O O11 0.250000 0.469366 0.250000
O O12 0.360911 0.451459 0.116225
O O13 0.000000 0.681852 0.576807
#
# Coordination Sequence:
#
# PCOD9414792 Si02
#       6
#     8   4   8   8   8   8
#     4  12  18  37  60  88 117 158 206 258 302 351
#     4  12  21  40  60  92 125 160 198 250 313 364
#     4  11  20  32  64  93 116 146 207 267 302 342
#     4  10  18  31  58  92 116 141 192 264 311 341
#     4  11  20  36  59  89 115 155 209 255 299 350
#     4  12  25  40  58  86 131 172 196 238 309 383
#
# _framework density 21.642582999999998
#
# number of rings (size 3 to 8) (size 9 to 14) (size 15 to 20)
#    0.000    0.727    9.091    0.818    0.000    0.000 
#    0.000    2.727    0.000    2.727    0.000    0.000 
#    0.000    0.000    0.000    0.000    0.000    0.000 
#
# Total GULP energy -245000.392520 kJ/mol
# GULP energy per Si atom -5568.190739 kJ/mol
# Density = 2.159332 g / cm^3
# Si number density = 21.642583 Si / 1000 Ang^3
#
#
#
# Elastic Constant Matrix: (Units=GPa)
#
#
# Indices 1 2 3 4 5 6 
#
# 1 26.5572 -13.1268 -18.8763 0.0000 0.0000 0.0000
# 2 -13.1268 89.1371 4.7392 0.0000 0.0000 0.0000
# 3 -18.8763 4.7392 80.2029 0.0000 0.0000 0.0000
# 4 0.0000 0.0000 0.0000 -64.0672 0.0000 0.0000
# 5 0.0000 0.0000 0.0000 0.0000 10.3289 0.0000
# 6 0.0000 0.0000 0.0000 0.0000 0.0000 25.6215
#
#
#
# Elastic Compliance Matrix: (Units=1/GPa)
#
#
# Indices 1 2 3 4 5 6 
#
# 1 0.048802 0.006597 0.011096 0.000000 0.000000 0.000000
# 2 0.006597 0.012146 0.000835 0.000000 0.000000 0.000000
# 3 0.011096 0.000835 0.015031 0.000000 0.000000 0.000000
# 4 0.000000 0.000000 0.000000 -0.015609 0.000000 0.000000
# 5 0.000000 0.000000 0.000000 0.000000 0.096815 0.000000
# 6 0.000000 0.000000 0.000000 0.000000 0.000000 0.039030
#
#
# Mechanical properties :
#
#
# Convention : Reuss Voigt Hill
#
# Bulk Modulus (GPa) = 8.84686 15.70773 12.27729
# Shear Modulus (GPa) = 25.40167 9.25405 17.32786
#
# Velocity S-wave (km/s) = 3.42963 2.07006 2.83262
# Velocity P-wave (km/s) = 4.44744 3.60376 4.04764
#
# Compressibility (1/GPa) = 0.11303448
#
# Stress axis : x y z
#
# Youngs Moduli (GPa) = 20.49086 82.33319 66.53105
#
# Poissons Ratio (x) = -0.54314 -0.73824
# Poissons Ratio (y) = -0.13518 -0.05555
# Poissons Ratio (z) = -0.22737 -0.06874
#
# Static dielectric constant tensor:
#      x y z
#    x 1.779370 0.000000 0.000000 
#    y 0.000000 1.881710 0.000000 
#    z 0.000000 0.000000 1.857710 
# 
# From -- ./inp_files/23544.got.cif
#   From: 2010.05.17/outbox.cif.g08.bks.cpg/sg53_12_cif.got.tgz:23544.got - 2010.06.03 12:45:16.
