data_PCOD9414568
_publ_section_title
;
Structure prediction by ZEFSAII (Michael W. Deem and Ramdas Pophale) SiO2 
 PCOD9414568
Probable space group: P M N A
;
_chemical_formula_sum "Si O2"
_cell_formula_units_Z 56
_cell_length_a 8.498999
_cell_length_b 14.940749
_cell_length_c 27.059498
_cell_angle_alpha 90.000000
_cell_angle_beta 90.000000
_cell_angle_gamma 90.000000
_cell_volume 3436.053232
_symmetry_space_group_name_H-M "P M N A"
_symmetry_group_IT_number 53
_symmetry_cell_setting 'orthorhombic'
loop_
_space_group_symop_operation_xyz
x,y,z
1/2-x,-y,1/2+z
x,-y,-z
1/2-x,y,1/2-z
-x,-y,-z
1/2+x,y,1/2-z
-x,y,z
1/2+x,-y,1/2+z
loop_
_atom_site_type_symbol
_atom_site_label
_atom_site_fract_x
_atom_site_fract_y
_atom_site_fract_z
Si Si1 0.314506 0.758169 0.882703
Si Si2 0.310084 0.317403 0.568066
Si Si3 0.808810 0.879246 0.043059
Si Si4 0.814431 0.382284 0.041327
Si Si5 0.186437 0.624651 0.805055
Si Si6 0.184219 0.483428 0.618357
Si Si7 0.809678 0.924670 0.930464
O O1 0.500000 0.746010 0.890737
O O2 0.218983 0.703952 0.924720
O O3 0.266303 0.709708 0.832053
O O4 0.266925 0.860942 0.889855
O O5 0.500000 0.318912 0.571900
O O6 0.256134 0.214177 0.566574
O O7 0.269359 0.358381 0.514277
O O8 0.239958 0.382477 0.609224
O O9 0.000000 0.877669 0.042677
O O10 0.762705 0.970978 0.070229
O O11 0.763415 0.889011 0.985335
O O12 0.722856 0.461939 0.068045
O O13 0.000000 0.403829 0.042382
O O14 0.250000 0.613530 0.750000
O O15 0.227975 0.538579 0.838847
O O16 0.000000 0.637229 0.804971
O O17 0.000000 0.487452 0.628283
O O18 0.000000 0.919377 0.927067
#
# Coordination Sequence:
#
# PCOD9414568 Si02
#       7
#     8   8   8   8   8   8   8
#     4  11  20  30  47  73 103 132 163 201 246 297
#     4  10  18  30  46  67  94 132 174 209 242 284
#     4   8  15  27  47  68  93 130 176 213 240 280
#     4  10  18  30  47  65  91 130 172 207 240 284
#     4  11  22  39  59  77  97 122 156 201 249 300
#     4  11  22  33  46  69  99 129 161 199 245 295
#     4   9  15  29  48  68  93 131 173 209 244 284
#
# _framework density 16.297768000000001
#
# number of rings (size 3 to 8) (size 9 to 14) (size 15 to 20)
#    0.000    2.000    1.429    7.286    0.000    2.857 
#    0.000    2.143    0.000    0.000    0.000    1.000 
#    0.000    0.000    0.000    0.000    0.000    0.000 
#
# Total GULP energy -312417.847063 kJ/mol
# GULP energy per Si atom -5578.890126 kJ/mol
# Density = 1.626067 g / cm^3
# Si number density = 16.297768 Si / 1000 Ang^3
#
#
#
# Elastic Constant Matrix: (Units=GPa)
#
#
# Indices 1 2 3 4 5 6 
#
# 1 29.1706 8.3039 13.3893 0.0000 0.0000 0.0000
# 2 8.3039 119.3802 40.9566 0.0000 0.0000 0.0000
# 3 13.3893 40.9566 60.7148 0.0000 0.0000 0.0000
# 4 0.0000 0.0000 0.0000 8.7077 0.0000 0.0000
# 5 0.0000 0.0000 0.0000 0.0000 14.7386 0.0000
# 6 0.0000 0.0000 0.0000 0.0000 0.0000 10.3693
#
#
#
# Elastic Compliance Matrix: (Units=1/GPa)
#
#
# Indices 1 2 3 4 5 6 
#
# 1 0.038150 0.000303 -0.008617 0.000000 0.000000 0.000000
# 2 0.000303 0.010901 -0.007421 0.000000 0.000000 0.000000
# 3 -0.008617 -0.007421 0.023377 0.000000 0.000000 0.000000
# 4 0.000000 0.000000 0.000000 0.114841 0.000000 0.000000
# 5 0.000000 0.000000 0.000000 0.000000 0.067849 0.000000
# 6 0.000000 0.000000 0.000000 0.000000 0.000000 0.096439
#
#
# Mechanical properties :
#
#
# Convention : Reuss Voigt Hill
#
# Bulk Modulus (GPa) = 24.41540 37.17391 30.79466
# Shear Modulus (GPa) = 12.60462 16.53750 14.57106
#
# Velocity S-wave (km/s) = 2.78402 3.18891 2.99331
# Velocity P-wave (km/s) = 5.03465 6.03470 5.55721
#
# Compressibility (1/GPa) = 0.04095776
#
# Stress axis : x y z
#
# Youngs Moduli (GPa) = 26.21215 91.73171 42.77795
#
# Poissons Ratio (x) = -0.02777 0.36864
# Poissons Ratio (y) = -0.00794 0.31744
# Poissons Ratio (z) = 0.22588 0.68070
#
# Static dielectric constant tensor:
#      x y z
#    x 1.546940 0.000000 0.000000 
#    y 0.000000 1.591070 0.000000 
#    z 0.000000 0.000000 1.520220 
# 
# From -- ./inp_files/38359.got.cif
#   From: 2010.05.17/outbox.cif.g08.bks.cpg/sg53_20_cif.got.tgz:38359.got - 2010.06.03 12:45:16.
