data_PCOD9414518
_publ_section_title
;
Structure prediction by ZEFSAII (Michael W. Deem and Ramdas Pophale) SiO2 
 PCOD9414518
Probable space group: P M N A
;
_chemical_formula_sum "Si O2"
_cell_formula_units_Z 40
_cell_length_a 20.284866
_cell_length_b 5.421063
_cell_length_c 13.873397
_cell_angle_alpha 90.000000
_cell_angle_beta 90.000000
_cell_angle_gamma 90.000000
_cell_volume 1525.595545
_symmetry_space_group_name_H-M "P M N A"
_symmetry_group_IT_number 53
_symmetry_cell_setting 'orthorhombic'
loop_
_space_group_symop_operation_xyz
x,y,z
1/2-x,-y,1/2+z
x,-y,-z
1/2-x,y,1/2-z
-x,-y,-z
1/2+x,y,1/2-z
-x,y,z
1/2+x,-y,1/2+z
loop_
_atom_site_type_symbol
_atom_site_label
_atom_site_fract_x
_atom_site_fract_y
_atom_site_fract_z
Si Si1 0.920529 0.753888 0.060136
Si Si2 0.749458 0.453161 0.362614
Si Si3 0.262361 0.955228 0.102132
Si Si4 0.905662 0.436435 0.390429
Si Si5 0.394507 0.924093 0.218847
O O1 0.901157 0.839510 0.170314
O O2 0.000000 0.727939 0.066979
O O3 0.900572 0.500000 0.000000
O O4 0.905437 0.000000 0.000000
O O5 0.750000 0.488596 0.250000
O O6 0.724059 0.701091 0.408866
O O7 0.825540 0.432077 0.393758
O O8 0.717887 0.191415 0.380700
O O9 0.317144 0.934579 0.185065
O O10 0.297874 0.000000 0.000000
O O11 0.926849 0.500000 0.500000
O O12 0.923566 0.684927 0.334437
O O13 0.921403 0.184278 0.328748
#
# Coordination Sequence:
#
# PCOD9414518 Si02
#       5
#     8   8   8   8   8
#     4  10  21  37  57  80 105 138 178 216 258 309
#     4  10  18  29  48  71  98 131 170 210 247 295
#     4  10  19  33  53  75  99 134 173 209 259 317
#     4  10  19  33  55  80 104 137 175 212 263 322
#     4  10  18  32  56  78 102 136 174 215 256 311
#
# _framework density 26.219272
#
# number of rings (size 3 to 8) (size 9 to 14) (size 15 to 20)
#    0.000    2.000    0.000    7.800    0.000    0.000 
#    0.000    0.000    0.000   69.000    0.000    0.000 
#    0.000    0.000    0.000    0.000    0.000    0.000 
#
# Total GULP energy -223068.383559 kJ/mol
# GULP energy per Si atom -5576.709589 kJ/mol
# Density = 2.615960 g / cm^3
# Si number density = 26.219272 Si / 1000 Ang^3
#
#
#
# Elastic Constant Matrix: (Units=GPa)
#
#
# Indices 1 2 3 4 5 6 
#
# 1 87.4453 40.4608 41.0856 0.0000 0.0000 0.0000
# 2 40.4608 342.4510 129.9617 0.0000 0.0000 0.0000
# 3 41.0856 129.9617 284.1386 0.0000 0.0000 0.0000
# 4 0.0000 0.0000 0.0000 59.4244 0.0000 0.0000
# 5 0.0000 0.0000 0.0000 0.0000 15.4261 0.0000
# 6 0.0000 0.0000 0.0000 0.0000 0.0000 -13.4445
#
#
#
# Elastic Compliance Matrix: (Units=1/GPa)
#
#
# Indices 1 2 3 4 5 6 
#
# 1 0.012524 -0.000959 -0.001372 0.000000 0.000000 0.000000
# 2 -0.000959 0.003607 -0.001511 0.000000 0.000000 0.000000
# 3 -0.001372 -0.001511 0.004409 0.000000 0.000000 0.000000
# 4 0.000000 0.000000 0.000000 0.016828 0.000000 0.000000
# 5 0.000000 0.000000 0.000000 0.000000 0.064825 0.000000
# 6 0.000000 0.000000 0.000000 0.000000 0.000000 -0.074380
#
#
# Mechanical properties :
#
#
# Convention : Reuss Voigt Hill
#
# Bulk Modulus (GPa) = 77.78869 126.33902 102.06385
# Shear Modulus (GPa) = 125.67950 45.78298 85.73124
#
# Velocity S-wave (km/s) = 6.93095 4.18324 5.72440
# Velocity P-wave (km/s) = 9.68420 8.46303 9.09413
#
# Compressibility (1/GPa) = 0.01285534
#
# Stress axis : x y z
#
# Youngs Moduli (GPa) = 79.84539 277.24719 226.80852
#
# Poissons Ratio (x) = 0.26586 0.31126
# Poissons Ratio (y) = 0.07657 0.34273
# Poissons Ratio (z) = 0.10958 0.41895
#
# Static dielectric constant tensor:
#      x y z
#    x 2.083930 0.000000 0.000000 
#    y 0.000000 2.214830 0.000000 
#    z 0.000000 0.000000 2.077510 
# 
# From -- ./inp_files/18939.got.cif
#   From: 2010.05.17/outbox.cif.g08.bks.cpg/sg53_10_cif.got.tgz:18939.got - 2010.06.03 12:45:16.
