data_PCOD9414556
_publ_section_title
;
Structure prediction by ZEFSAII (Michael W. Deem and Ramdas Pophale) SiO2 
 PCOD9414556
Probable space group: P M N A
;
_chemical_formula_sum "Si O2"
_cell_formula_units_Z 40
_cell_length_a 17.130244
_cell_length_b 14.639960
_cell_length_c 8.653132
_cell_angle_alpha 90.000000
_cell_angle_beta 90.000000
_cell_angle_gamma 90.000000
_cell_volume 2170.085114
_symmetry_space_group_name_H-M "P M N A"
_symmetry_group_IT_number 53
_symmetry_cell_setting 'orthorhombic'
loop_
_space_group_symop_operation_xyz
x,y,z
1/2-x,-y,1/2+z
x,-y,-z
1/2-x,y,1/2-z
-x,-y,-z
1/2+x,y,1/2-z
-x,y,z
1/2+x,-y,1/2+z
loop_
_atom_site_type_symbol
_atom_site_label
_atom_site_fract_x
_atom_site_fract_y
_atom_site_fract_z
Si Si1 0.838694 0.598184 0.933298
Si Si2 0.850986 0.596978 0.576417
Si Si3 0.590042 0.213313 0.946699
Si Si4 0.674932 0.762827 0.355254
Si Si5 0.270042 0.100846 0.070358
O O1 0.869016 0.604793 0.758561
O O2 0.743597 0.603333 0.931639
O O3 0.860717 0.500000 0.000000
O O4 0.860747 0.679846 0.047607
O O5 0.872975 0.500000 0.500000
O O6 0.888940 0.681826 0.488281
O O7 0.500000 0.195550 0.974079
O O8 0.614324 0.198600 0.768456
O O9 0.646854 0.149650 0.046053
O O10 0.750000 0.732088 0.250000
O O11 0.709199 0.837235 0.473258
O O12 0.250000 0.099166 0.250000
O O13 0.270946 0.000000 0.000000
#
# Coordination Sequence:
#
# PCOD9414556 Si02
#       5
#     8   8   8   8   8
#     4  10  18  29  55  85 110 146 199 249 278 324
#     4  10  19  32  54  82 115 153 193 238 287 335
#     4  11  23  38  58  86 122 156 187 233 289 342
#     4  10  19  35  56  82 113 148 192 233 280 337
#     4  11  22  41  67  90 112 146 190 238 284 340
#
# _framework density 18.432456999999999
#
# number of rings (size 3 to 8) (size 9 to 14) (size 15 to 20)
#    0.000    1.600    4.000    4.200    2.800    0.800 
#    0.000    4.000    0.000    4.800    0.000    0.000 
#    0.000    0.000    0.000    0.000    0.000    0.000 
#
# Total GULP energy -223369.412710 kJ/mol
# GULP energy per Si atom -5584.235318 kJ/mol
# Density = 1.839050 g / cm^3
# Si number density = 18.432457 Si / 1000 Ang^3
#
#
#
# Elastic Constant Matrix: (Units=GPa)
#
#
# Indices 1 2 3 4 5 6 
#
# 1 71.4771 50.0410 48.0435 0.0000 0.0000 0.0000
# 2 50.0410 124.1534 64.2421 0.0000 0.0000 0.0000
# 3 48.0435 64.2421 153.8557 0.0000 0.0000 0.0000
# 4 0.0000 0.0000 0.0000 37.9871 0.0000 0.0000
# 5 0.0000 0.0000 0.0000 0.0000 3.2125 0.0000
# 6 0.0000 0.0000 0.0000 0.0000 0.0000 5.2960
#
#
#
# Elastic Compliance Matrix: (Units=1/GPa)
#
#
# Indices 1 2 3 4 5 6 
#
# 1 0.021169 -0.006521 -0.003888 0.000000 0.000000 0.000000
# 2 -0.006521 0.012283 -0.003093 0.000000 0.000000 0.000000
# 3 -0.003888 -0.003093 0.009005 0.000000 0.000000 0.000000
# 4 0.000000 0.000000 0.000000 0.026325 0.000000 0.000000
# 5 0.000000 0.000000 0.000000 0.000000 0.311289 0.000000
# 6 0.000000 0.000000 0.000000 0.000000 0.000000 0.188823
#
#
# Mechanical properties :
#
#
# Convention : Reuss Voigt Hill
#
# Bulk Modulus (GPa) = 64.70410 74.90440 69.80425
# Shear Modulus (GPa) = 8.31883 21.77640 15.04762
#
# Velocity S-wave (km/s) = 2.12672 3.44090 2.86031
# Velocity P-wave (km/s) = 6.41951 7.51744 6.99006
#
# Compressibility (1/GPa) = 0.01545497
#
# Stress axis : x y z
#
# Youngs Moduli (GPa) = 47.23988 81.41363 111.05165
#
# Poissons Ratio (x) = 0.53087 0.43171
# Poissons Ratio (y) = 0.30803 0.34344
# Poissons Ratio (z) = 0.18365 0.25178
#
# Static dielectric constant tensor:
#      x y z
#    x 1.629340 0.000000 0.000000 
#    y 0.000000 1.623030 0.000000 
#    z 0.000000 0.000000 1.641460 
# 
# From -- ./inp_files/9781.got.cif
#   From: 2010.05.17/outbox.cif.g08.bks.cpg/sg53_5_cif.got.tgz:9781.got - 2010.06.03 12:45:16.
