data_PCOD9414348
_publ_section_title
;
Structure prediction by ZEFSAII (Michael W. Deem and Ramdas Pophale) SiO2 
 PCOD9414348
Probable space group: P M N A
;
_chemical_formula_sum "Si O2"
_cell_formula_units_Z 48
_cell_length_a 8.406137
_cell_length_b 17.335978
_cell_length_c 14.329041
_cell_angle_alpha 90.000000
_cell_angle_beta 90.000000
_cell_angle_gamma 90.000000
_cell_volume 2088.151172
_symmetry_space_group_name_H-M "P M N A"
_symmetry_group_IT_number 53
_symmetry_cell_setting 'orthorhombic'
loop_
_space_group_symop_operation_xyz
x,y,z
1/2-x,-y,1/2+z
x,-y,-z
1/2-x,y,1/2-z
-x,-y,-z
1/2+x,y,1/2-z
-x,y,z
1/2+x,-y,1/2+z
loop_
_atom_site_type_symbol
_atom_site_label
_atom_site_fract_x
_atom_site_fract_y
_atom_site_fract_z
Si Si1 0.500000 0.082808 0.104978
Si Si2 0.826311 0.080798 0.058837
Si Si3 0.000000 0.904019 0.376447
Si Si4 0.809104 0.476634 0.650166
Si Si5 0.692488 0.323284 0.947392
Si Si6 0.308627 0.346464 0.151006
Si Si7 0.675687 0.175625 0.627622
O O1 0.681792 0.105119 0.126009
O O2 0.500000 0.994610 0.138421
O O3 0.500000 0.100172 0.991501
O O4 0.000000 0.070847 0.103746
O O5 0.836457 0.143660 0.977912
O O6 0.794291 0.000000 0.000000
O O7 0.836881 0.866550 0.340025
O O8 0.750000 0.447451 0.750000
O O9 0.767233 0.412111 0.574781
O O10 0.749772 0.564404 0.641801
O O11 0.000000 0.481423 0.649068
O O12 0.500000 0.313408 0.937230
O O13 0.781828 0.265587 0.878802
O O14 0.736076 0.305990 0.054615
O O15 0.250000 0.315506 0.250000
O O16 0.500000 0.347577 0.153404
O O17 0.500000 0.161986 0.667622
#
# Coordination Sequence:
#
# PCOD9414348 Si02
#       7
#     4   8   4   8   8   8   8
#     4   9  12  20  36  52  76 122 156 194 236 280
#     4   9  14  21  34  54  82 119 156 196 237 278
#     4   9  14  24  36  56  87 124 158 196 243 286
#     4   9  18  33  52  72  95 126 163 203 247 295
#     4  10  19  31  48  70  99 132 164 201 248 300
#     4   9  18  33  52  72  95 126 163 203 247 295
#     4  10  18  26  39  62  93 126 160 200 244 290
#
# _framework density 22.986840999999998
#
# number of rings (size 3 to 8) (size 9 to 14) (size 15 to 20)
#    0.000    2.667    4.167    0.500    0.000    3.333 
#    0.000    0.000    0.000    5.000    0.000    0.000 
#    0.000    1.333    0.000   11.333    0.000   15.333 
#
# Total GULP energy -267371.584029 kJ/mol
# GULP energy per Si atom -5570.241334 kJ/mol
# Density = 2.293452 g / cm^3
# Si number density = 22.986841 Si / 1000 Ang^3
#
#
#
# Elastic Constant Matrix: (Units=GPa)
#
#
# Indices 1 2 3 4 5 6 
#
# 1 154.2621 17.8117 28.4994 0.0000 0.0000 0.0000
# 2 17.8117 40.2490 6.1918 0.0000 0.0000 0.0000
# 3 28.4994 6.1918 65.0278 0.0000 0.0000 0.0000
# 4 0.0000 0.0000 0.0000 -31.1252 0.0000 0.0000
# 5 0.0000 0.0000 0.0000 0.0000 17.0451 0.0000
# 6 0.0000 0.0000 0.0000 0.0000 0.0000 20.4515
#
#
#
# Elastic Compliance Matrix: (Units=1/GPa)
#
#
# Indices 1 2 3 4 5 6 
#
# 1 0.007352 -0.002799 -0.002955 0.000000 0.000000 0.000000
# 2 -0.002799 0.026280 -0.001276 0.000000 0.000000 0.000000
# 3 -0.002955 -0.001276 0.016795 0.000000 0.000000 0.000000
# 4 0.000000 0.000000 0.000000 -0.032128 0.000000 0.000000
# 5 0.000000 0.000000 0.000000 0.000000 0.058668 0.000000
# 6 0.000000 0.000000 0.000000 0.000000 0.000000 0.048896
#
#
# Mechanical properties :
#
#
# Convention : Reuss Voigt Hill
#
# Bulk Modulus (GPa) = 27.49769 40.50496 34.00133
# Shear Modulus (GPa) = 32.88512 15.07668 23.98090
#
# Velocity S-wave (km/s) = 3.78644 2.56380 3.23343
# Velocity P-wave (km/s) = 5.57714 5.14036 5.36320
#
# Compressibility (1/GPa) = 0.03636669
#
# Stress axis : x y z
#
# Youngs Moduli (GPa) = 136.02406 38.05151 59.54228
#
# Poissons Ratio (x) = 0.10650 0.17598
# Poissons Ratio (y) = 0.38069 0.07596
# Poissons Ratio (z) = 0.40202 0.04854
#
# Static dielectric constant tensor:
#      x y z
#    x 1.935690 0.000000 0.000000 
#    y 0.000000 1.868570 0.000000 
#    z 0.000000 0.000000 1.874480 
# 
# From -- ./inp_files/20289.got.cif
#   From: 2010.05.17/outbox.cif.g08.bks.cpg/sg53_11_cif.got.tgz:20289.got - 2010.06.03 12:45:16.
