data_PCOD9414679
_publ_section_title
;
Structure prediction by ZEFSAII (Michael W. Deem and Ramdas Pophale) SiO2 
 PCOD9414679
Probable space group: P M N A
;
_chemical_formula_sum "Si O2"
_cell_formula_units_Z 48
_cell_length_a 8.076754
_cell_length_b 15.499217
_cell_length_c 21.396158
_cell_angle_alpha 90.000000
_cell_angle_beta 90.000000
_cell_angle_gamma 90.000000
_cell_volume 2678.443012
_symmetry_space_group_name_H-M "P M N A"
_symmetry_group_IT_number 53
_symmetry_cell_setting 'orthorhombic'
loop_
_space_group_symop_operation_xyz
x,y,z
1/2-x,-y,1/2+z
x,-y,-z
1/2-x,y,1/2-z
-x,-y,-z
1/2+x,y,1/2-z
-x,y,z
1/2+x,-y,1/2+z
loop_
_atom_site_type_symbol
_atom_site_label
_atom_site_fract_x
_atom_site_fract_y
_atom_site_fract_z
Si Si1 0.692100 0.302321 0.158184
Si Si2 0.300418 0.491559 0.183859
Si Si3 0.692262 0.888352 0.682032
Si Si4 0.303789 0.272191 0.477442
Si Si5 0.297922 0.922609 0.543982
Si Si6 0.799625 0.569660 0.447277
O O1 0.500000 0.293897 0.176438
O O2 0.762817 0.392684 0.181908
O O3 0.781686 0.215164 0.178741
O O4 0.706824 0.306246 0.083195
O O5 0.250000 0.531164 0.250000
O O6 0.500000 0.486931 0.180658
O O7 0.243863 0.539671 0.121298
O O8 0.750000 0.919016 0.750000
O O9 0.500000 0.907116 0.679347
O O10 0.764407 0.923520 0.616143
O O11 0.500000 0.275241 0.463418
O O12 0.257757 0.171673 0.484135
O O13 0.264518 0.336416 0.533496
O O14 0.500000 0.927311 0.545991
O O15 0.239123 0.000000 0.500000
O O16 0.746564 0.500000 0.500000
O O17 0.000000 0.571232 0.447993
#
# Coordination Sequence:
#
# PCOD9414679 Si02
#       6
#     8   8   8   8   8   8
#     4  10  18  31  48  68  99 136 166 196 244 301
#     4  10  21  33  47  67  94 132 169 205 246 293
#     4  10  19  30  47  73 101 130 163 200 250 306
#     4  10  19  30  50  79 100 124 167 213 252 292
#     4   8  16  32  52  73  99 129 163 203 250 300
#     4  10  19  35  52  68  97 136 172 201 246 301
#
# _framework density 17.920860000000001
#
# number of rings (size 3 to 8) (size 9 to 14) (size 15 to 20)
#    0.000    2.333    1.667    3.000    0.000    3.667 
#    0.000    0.000    0.000   19.000    0.000    4.667 
#    0.000    0.000    0.000    0.000    0.000    0.000 
#
# Total GULP energy -267622.589559 kJ/mol
# GULP energy per Si atom -5575.470616 kJ/mol
# Density = 1.788007 g / cm^3
# Si number density = 17.920860 Si / 1000 Ang^3
#
#
#
# Elastic Constant Matrix: (Units=GPa)
#
#
# Indices 1 2 3 4 5 6 
#
# 1 14.6483 6.7329 8.8578 0.0000 0.0000 0.0000
# 2 6.7329 89.5153 77.4586 0.0000 0.0000 0.0000
# 3 8.8578 77.4586 161.7415 0.0000 0.0000 0.0000
# 4 0.0000 0.0000 0.0000 19.0712 0.0000 0.0000
# 5 0.0000 0.0000 0.0000 0.0000 26.0354 0.0000
# 6 0.0000 0.0000 0.0000 0.0000 0.0000 18.9464
#
#
#
# Elastic Compliance Matrix: (Units=1/GPa)
#
#
# Indices 1 2 3 4 5 6 
#
# 1 0.071201 -0.003383 -0.002279 0.000000 0.000000 0.000000
# 2 -0.003383 0.019237 -0.009028 0.000000 0.000000 0.000000
# 3 -0.002279 -0.009028 0.010631 0.000000 0.000000 0.000000
# 4 0.000000 0.000000 0.000000 0.052435 0.000000 0.000000
# 5 0.000000 0.000000 0.000000 0.000000 0.038409 0.000000
# 6 0.000000 0.000000 0.000000 0.000000 0.000000 0.052780
#
#
# Mechanical properties :
#
#
# Convention : Reuss Voigt Hill
#
# Bulk Modulus (GPa) = 13.94912 50.22264 32.08588
# Shear Modulus (GPa) = 16.78022 24.33432 20.55727
#
# Velocity S-wave (km/s) = 3.06330 3.68894 3.39058
# Velocity P-wave (km/s) = 4.50693 6.79925 5.76811
#
# Compressibility (1/GPa) = 0.07168911
#
# Stress axis : x y z
#
# Youngs Moduli (GPa) = 14.04480 51.98201 94.06571
#
# Poissons Ratio (x) = 0.17587 0.21438
# Poissons Ratio (y) = 0.04752 0.84919
# Poissons Ratio (z) = 0.03201 0.46927
#
# Static dielectric constant tensor:
#      x y z
#    x 1.642960 0.000000 0.000000 
#    y 0.000000 1.597530 0.000000 
#    z 0.000000 0.000000 1.664320 
# 
# From -- ./inp_files/30470.got.cif
#   From: 2010.05.17/outbox.cif.g08.bks.cpg/sg53_16_cif.got.tgz:30470.got - 2010.06.03 12:45:16.
