data_PCOD9414350
_publ_section_title
;
Structure prediction by ZEFSAII (Michael W. Deem and Ramdas Pophale) SiO2 
 PCOD9414350
Probable space group: P M N A
;
_chemical_formula_sum "Si O2"
_cell_formula_units_Z 32
_cell_length_a 14.430877
_cell_length_b 16.716879
_cell_length_c 5.281730
_cell_angle_alpha 90.000000
_cell_angle_beta 90.000000
_cell_angle_gamma 90.000000
_cell_volume 1274.160450
_symmetry_space_group_name_H-M "P M N A"
_symmetry_group_IT_number 53
_symmetry_cell_setting 'orthorhombic'
loop_
_space_group_symop_operation_xyz
x,y,z
1/2-x,-y,1/2+z
x,-y,-z
1/2-x,y,1/2-z
-x,-y,-z
1/2+x,y,1/2-z
-x,y,z
1/2+x,-y,1/2+z
loop_
_atom_site_type_symbol
_atom_site_label
_atom_site_fract_x
_atom_site_fract_y
_atom_site_fract_z
Si Si1 0.151413 0.778924 0.561397
Si Si2 0.861248 0.277882 0.936182
Si Si3 0.862183 0.454494 0.752170
Si Si4 0.890224 0.950500 0.757151
O O1 0.102263 0.725928 0.777451
O O2 0.251967 0.739927 0.497646
O O3 0.153010 0.864680 0.695761
O O4 0.108842 0.785210 0.279599
O O5 0.881988 0.361440 0.799428
O O6 0.893520 0.500000 0.500000
O O7 0.750000 0.458725 0.750000
O O8 0.894956 0.500000 0.000000
O O9 0.000000 0.936735 0.800890
O O10 0.879719 0.000000 0.500000
O O11 0.853918 0.000000 0.000000
#
# Coordination Sequence:
#
# PCOD9414350 Si02
#       4
#     8   8   8   8
#     4  10  19  32  51  71 102 136 160 205 262 303
#     4  10  19  32  47  75 109 136 161 203 251 310
#     4  10  18  26  43  67 102 140 165 196 233 290
#     4  10  21  38  57  76  98 129 177 227 262 302
#
# _framework density 25.114573
#
# number of rings (size 3 to 8) (size 9 to 14) (size 15 to 20)
#    0.000    2.000    2.500    3.000    7.000    0.000 
#    0.000   10.000    0.000    0.000    0.000    0.000 
#    0.000   30.000    0.000    0.000    0.000    1.000 
#
# Total GULP energy -178589.047268 kJ/mol
# GULP energy per Si atom -5580.907727 kJ/mol
# Density = 2.505741 g / cm^3
# Si number density = 25.114573 Si / 1000 Ang^3
#
#
#
# Elastic Constant Matrix: (Units=GPa)
#
#
# Indices 1 2 3 4 5 6 
#
# 1 110.8249 10.5056 9.6767 0.0000 0.0000 0.0000
# 2 10.5056 154.1023 75.2401 0.0000 0.0000 0.0000
# 3 9.6767 75.2401 276.6858 0.0000 0.0000 0.0000
# 4 0.0000 0.0000 0.0000 51.8020 0.0000 0.0000
# 5 0.0000 0.0000 0.0000 0.0000 -12.9863 0.0000
# 6 0.0000 0.0000 0.0000 0.0000 0.0000 89.3068
#
#
#
# Elastic Compliance Matrix: (Units=1/GPa)
#
#
# Indices 1 2 3 4 5 6 
#
# 1 0.009089 -0.000536 -0.000172 0.000000 0.000000 0.000000
# 2 -0.000536 0.007514 -0.002025 0.000000 0.000000 0.000000
# 3 -0.000172 -0.002025 0.004171 0.000000 0.000000 0.000000
# 4 0.000000 0.000000 0.000000 0.019304 0.000000 0.000000
# 5 0.000000 0.000000 0.000000 0.000000 -0.077005 0.000000
# 6 0.000000 0.000000 0.000000 0.000000 0.000000 0.011197
#
#
# Mechanical properties :
#
#
# Convention : Reuss Voigt Hill
#
# Bulk Modulus (GPa) = 65.32002 81.38420 73.35211
# Shear Modulus (GPa) = -329.79655 55.37053 -137.21301
#
# Velocity S-wave (km/s) = -11.47179 4.70054 -7.39956
# Velocity P-wave (km/s) = 12.22309 7.86992 6.61318
#
# Compressibility (1/GPa) = 0.01530924
#
# Stress axis : x y z
#
# Youngs Moduli (GPa) = 110.02250 133.08082 239.76219
#
# Poissons Ratio (x) = 0.07127 0.04130
# Poissons Ratio (y) = 0.05892 0.48543
# Poissons Ratio (z) = 0.01895 0.26944
#
# Static dielectric constant tensor:
#      x y z
#    x 2.221950 0.000000 0.000000 
#    y 0.000000 2.048270 0.000000 
#    z 0.000000 0.000000 2.093860 
# 
# From -- ./inp_files/2726.got.cif
#   From: 2010.05.17/outbox.cif.g08.bks.cpg/sg53_2_cif.got.tgz:2726.got - 2010.06.03 12:45:16.
