data_PCOD9414327
_publ_section_title
;
Structure prediction by ZEFSAII (Michael W. Deem and Ramdas Pophale) SiO2 
 PCOD9414327
Probable space group: P M N A
;
_chemical_formula_sum "Si O2"
_cell_formula_units_Z 48
_cell_length_a 15.422319
_cell_length_b 15.734520
_cell_length_c 8.897948
_cell_angle_alpha 90.000000
_cell_angle_beta 90.000000
_cell_angle_gamma 90.000000
_cell_volume 2159.200858
_symmetry_space_group_name_H-M "P M N A"
_symmetry_group_IT_number 53
_symmetry_cell_setting 'orthorhombic'
loop_
_space_group_symop_operation_xyz
x,y,z
1/2-x,-y,1/2+z
x,-y,-z
1/2-x,y,1/2-z
-x,-y,-z
1/2+x,y,1/2-z
-x,y,z
1/2+x,-y,1/2+z
loop_
_atom_site_type_symbol
_atom_site_label
_atom_site_fract_x
_atom_site_fract_y
_atom_site_fract_z
Si Si1 0.403045 0.584246 0.396971
Si Si2 0.263413 0.664573 0.603687
Si Si3 0.402629 0.197841 0.375610
Si Si4 0.655396 0.017314 0.319657
Si Si5 0.355034 0.831923 0.275933
Si Si6 0.095995 0.332406 0.593066
O O1 0.404621 0.500000 0.500000
O O2 0.500000 0.622038 0.416561
O O3 0.324679 0.633834 0.470560
O O4 0.389968 0.592534 0.217238
O O5 0.250000 0.605559 0.750000
O O6 0.323665 0.740967 0.669547
O O7 0.170966 0.673919 0.527805
O O8 0.500000 0.230940 0.350687
O O9 0.395264 0.104975 0.300862
O O10 0.383669 0.183466 0.552633
O O11 0.750000 0.030838 0.250000
O O12 0.662238 0.000000 0.500000
O O13 0.620286 0.930231 0.246192
O O14 0.250000 0.826226 0.250000
O O15 0.397627 0.757455 0.180462
O O16 0.000000 0.343297 0.528475
#
# Coordination Sequence:
#
# PCOD9414327 Si02
#       6
#     8   8   8   8   8   8
#     4  10  22  43  71  99 126 160 204 255 311 375
#     4  12  25  40  63  91 133 172 211 259 319 378
#     4  11  21  36  58  86 121 163 215 264 318 377
#     4   9  20  34  56  83 118 163 211 263 322 376
#     4  10  17  34  61  88 119 159 211 266 318 374
#     4  11  22  40  68  97 126 165 217 266 315 382
#
# _framework density 22.230447000000002
#
# number of rings (size 3 to 8) (size 9 to 14) (size 15 to 20)
#    0.000    1.500    3.333    2.000    0.000    6.333 
#    0.000    0.000    0.000    4.000    0.000    0.000 
#    0.000    0.000    0.000    0.000    0.000    0.000 
#
# Total GULP energy -267536.015186 kJ/mol
# GULP energy per Si atom -5573.666983 kJ/mol
# Density = 2.217985 g / cm^3
# Si number density = 22.230447 Si / 1000 Ang^3
#
#
#
# Elastic Constant Matrix: (Units=GPa)
#
#
# Indices 1 2 3 4 5 6 
#
# 1 167.1534 33.6000 52.2372 0.0000 0.0000 0.0000
# 2 33.6000 59.0619 14.5659 0.0000 0.0000 0.0000
# 3 52.2372 14.5659 74.0038 0.0000 0.0000 0.0000
# 4 0.0000 0.0000 0.0000 4.8915 0.0000 0.0000
# 5 0.0000 0.0000 0.0000 0.0000 2.2836 0.0000
# 6 0.0000 0.0000 0.0000 0.0000 0.0000 -14.8959
#
#
#
# Elastic Compliance Matrix: (Units=1/GPa)
#
#
# Indices 1 2 3 4 5 6 
#
# 1 0.008292 -0.003441 -0.005176 0.000000 0.000000 0.000000
# 2 -0.003441 0.019223 -0.001355 0.000000 0.000000 0.000000
# 3 -0.005176 -0.001355 0.017433 0.000000 0.000000 0.000000
# 4 0.000000 0.000000 0.000000 0.204438 0.000000 0.000000
# 5 0.000000 0.000000 0.000000 0.000000 0.437901 0.000000
# 6 0.000000 0.000000 0.000000 0.000000 0.000000 -0.067132
#
#
# Mechanical properties :
#
#
# Convention : Reuss Voigt Hill
#
# Bulk Modulus (GPa) = 39.99201 55.66949 47.83075
# Shear Modulus (GPa) = 7.71092 11.77690 9.74391
#
# Velocity S-wave (km/s) = 1.86445 2.30416 2.09587
# Velocity P-wave (km/s) = 4.76064 5.67232 5.23636
#
# Compressibility (1/GPa) = 0.02500499
#
# Stress axis : x y z
#
# Youngs Moduli (GPa) = 120.60448 52.02135 57.36314
#
# Poissons Ratio (x) = 0.17899 0.29689
# Poissons Ratio (y) = 0.41495 0.07772
# Poissons Ratio (z) = 0.62420 0.07048
#
# Static dielectric constant tensor:
#      x y z
#    x 1.852830 0.000000 0.000000 
#    y 0.000000 1.918780 0.000000 
#    z 0.000000 0.000000 1.874210 
# 
# From -- ./inp_files/8654.got.cif
#   From: 2010.05.17/outbox.cif.g08.bks.cpg/sg53_5_cif.got.tgz:8654.got - 2010.06.03 12:45:16.
