data_PCOD9414966
_publ_section_title
;
Structure prediction by ZEFSAII (Michael W. Deem and Ramdas Pophale) SiO2 
 PCOD9414966
Probable space group: P M N A
;
_chemical_formula_sum "Si O2"
_cell_formula_units_Z 64
_cell_length_a 16.352332
_cell_length_b 20.138601
_cell_length_c 9.667494
_cell_angle_alpha 90.000000
_cell_angle_beta 90.000000
_cell_angle_gamma 90.000000
_cell_volume 3183.632318
_symmetry_space_group_name_H-M "P M N A"
_symmetry_group_IT_number 53
_symmetry_cell_setting 'orthorhombic'
loop_
_space_group_symop_operation_xyz
x,y,z
1/2-x,-y,1/2+z
x,-y,-z
1/2-x,y,1/2-z
-x,-y,-z
1/2+x,y,1/2-z
-x,y,z
1/2+x,-y,1/2+z
loop_
_atom_site_type_symbol
_atom_site_label
_atom_site_fract_x
_atom_site_fract_y
_atom_site_fract_z
Si Si1 0.353100 0.723945 0.542701
Si Si2 0.595041 0.475331 0.649281
Si Si3 0.742489 0.930418 0.419024
Si Si4 0.154309 0.281690 0.470308
Si Si5 0.652418 0.608268 0.759048
Si Si6 0.651694 0.332607 0.742170
Si Si7 0.331308 0.148542 0.153466
Si Si8 0.092957 0.126468 0.080796
O O1 0.253559 0.728316 0.537308
O O2 0.371089 0.661385 0.640568
O O3 0.381230 0.704613 0.391138
O O4 0.391070 0.794076 0.582279
O O5 0.630585 0.500000 0.500000
O O6 0.500000 0.460304 0.626287
O O7 0.606768 0.539454 0.744519
O O8 0.632937 0.410137 0.718186
O O9 0.750000 0.932436 0.250000
O O10 0.804445 0.883021 0.506727
O O11 0.653745 0.903695 0.467087
O O12 0.752601 0.000000 0.500000
O O13 0.136299 0.350948 0.396644
O O14 0.122883 0.293223 0.623428
O O15 0.125078 0.217463 0.387144
O O16 0.750000 0.595873 0.750000
O O17 0.750000 0.327904 0.750000
O O18 0.250000 0.160038 0.250000
O O19 0.383866 0.105188 0.261507
O O20 0.000000 0.111008 0.050178
#
# Coordination Sequence:
#
# PCOD9414966 Si02
#       8
#     8   8   8   8   8   8   8   8
#     4  10  18  34  58  87 116 156 204 256 311 370
#     4  11  23  39  54  74 109 154 199 252 317 391
#     4  11  24  43  73 103 133 176 224 267 307 370
#     4  10  18  33  59  88 111 151 197 266 308 362
#     4  10  19  35  59  79 106 146 202 250 307 370
#     4  10  22  35  57  84 112 148 205 263 319 370
#     4  10  18  38  65  91 132 165 217 258 309 375
#     4  11  23  38  64 100 140 176 214 265 324 388
#
# _framework density 20.102826
#
# number of rings (size 3 to 8) (size 9 to 14) (size 15 to 20)
#    0.000    1.625    5.000    1.875    1.750    1.750 
#    0.000    2.500    0.000    1.500    0.000    0.000 
#    0.000    0.000    0.000    0.000    0.000    0.000 
#
# Total GULP energy -356747.844295 kJ/mol
# GULP energy per Si atom -5574.185067 kJ/mol
# Density = 2.005707 g / cm^3
# Si number density = 20.102826 Si / 1000 Ang^3
#
#
#
# Elastic Constant Matrix: (Units=GPa)
#
#
# Indices 1 2 3 4 5 6 
#
# 1 36.3788 0.1697 20.3206 0.0000 0.0000 0.0000
# 2 0.1697 65.8401 26.6576 0.0000 0.0000 0.0000
# 3 20.3206 26.6576 131.3773 0.0000 0.0000 0.0000
# 4 0.0000 0.0000 0.0000 25.6328 0.0000 0.0000
# 5 0.0000 0.0000 0.0000 0.0000 7.9339 0.0000
# 6 0.0000 0.0000 0.0000 0.0000 0.0000 1.8919
#
#
#
# Elastic Compliance Matrix: (Units=1/GPa)
#
#
# Indices 1 2 3 4 5 6 
#
# 1 0.030324 0.001984 -0.005093 0.000000 0.000000 0.000000
# 2 0.001984 0.016678 -0.003691 0.000000 0.000000 0.000000
# 3 -0.005093 -0.003691 0.009148 0.000000 0.000000 0.000000
# 4 0.000000 0.000000 0.000000 0.039013 0.000000 0.000000
# 5 0.000000 0.000000 0.000000 0.000000 0.126042 0.000000
# 6 0.000000 0.000000 0.000000 0.000000 0.000000 0.528555
#
#
# Mechanical properties :
#
#
# Convention : Reuss Voigt Hill
#
# Bulk Modulus (GPa) = 23.50166 36.43242 29.96704
# Shear Modulus (GPa) = 6.43051 19.52161 12.97606
#
# Velocity S-wave (km/s) = 1.79046 3.11961 2.54339
# Velocity P-wave (km/s) = 3.99881 5.58017 4.85432
#
# Compressibility (1/GPa) = 0.04255018
#
# Stress axis : x y z
#
# Youngs Moduli (GPa) = 32.97712 59.96074 109.30984
#
# Poissons Ratio (x) = -0.11895 0.55670
# Poissons Ratio (y) = -0.06542 0.40345
# Poissons Ratio (z) = 0.16795 0.22131
#
# Static dielectric constant tensor:
#      x y z
#    x 1.748030 0.000000 0.000000 
#    y 0.000000 1.730350 0.000000 
#    z 0.000000 0.000000 1.822660 
# 
# From -- ./inp_files/10260.got.cif
#   From: 2010.05.17/outbox.cif.g08.bks.cpg/sg53_6_cif.got.tgz:10260.got - 2010.06.03 12:45:16.
