data_PCOD9414995
_publ_section_title
;
Structure prediction by ZEFSAII (Michael W. Deem and Ramdas Pophale) SiO2 
 PCOD9414995
Probable space group: P M N A
;
_chemical_formula_sum "Si O2"
_cell_formula_units_Z 56
_cell_length_a 14.935702
_cell_length_b 12.010164
_cell_length_c 15.628108
_cell_angle_alpha 90.000000
_cell_angle_beta 90.000000
_cell_angle_gamma 90.000000
_cell_volume 2803.373615
_symmetry_space_group_name_H-M "P M N A"
_symmetry_group_IT_number 53
_symmetry_cell_setting 'orthorhombic'
loop_
_space_group_symop_operation_xyz
x,y,z
1/2-x,-y,1/2+z
x,-y,-z
1/2-x,y,1/2-z
-x,-y,-z
1/2+x,y,1/2-z
-x,y,z
1/2+x,-y,1/2+z
loop_
_atom_site_type_symbol
_atom_site_label
_atom_site_fract_x
_atom_site_fract_y
_atom_site_fract_z
Si Si1 0.653436 0.470480 0.789963
Si Si2 0.348483 0.894909 0.778055
Si Si3 0.097683 0.052425 0.867191
Si Si4 0.288526 0.319811 0.946196
Si Si5 0.202576 0.935540 0.418995
Si Si6 0.401379 0.681773 0.885440
Si Si7 0.900770 0.692866 0.139062
O O1 0.750000 0.498987 0.750000
O O2 0.667453 0.402518 0.877962
O O3 0.605115 0.583412 0.816113
O O4 0.609984 0.390489 0.718798
O O5 0.250000 0.853961 0.750000
O O6 0.390416 0.798008 0.835037
O O7 0.398085 0.947386 0.696767
O O8 0.332619 0.003669 0.835778
O O9 0.189867 0.048222 0.918674
O O10 0.104655 0.178448 0.828548
O O11 0.000000 0.050643 0.909975
O O12 0.316126 0.194117 0.922648
O O13 0.181336 0.325961 0.927241
O O14 0.324733 0.336125 0.042445
O O15 0.164078 0.000000 0.500000
O O16 0.500000 0.678632 0.926883
O O17 0.000000 0.678065 0.100921
#
# Coordination Sequence:
#
# PCOD9414995 Si02
#       7
#     8   8   8   8   8   8   8
#     4  10  21  38  60  83 109 147 191 238 284 337
#     4  10  20  36  57  78 113 153 189 227 277 337
#     4   9  18  32  55  85 112 141 182 230 276 326
#     4  10  21  37  57  84 118 149 186 233 287 333
#     4  10  18  34  56  79 110 150 183 223 276 334
#     4  12  24  37  56  83 118 153 188 232 287 345
#     4   9  18  36  63  88 111 144 190 239 280 330
#
# _framework density 19.975930999999999
#
# number of rings (size 3 to 8) (size 9 to 14) (size 15 to 20)
#    0.000    2.000    1.429    2.571    0.000    5.429 
#    0.000    2.143    0.000    7.714    0.000    0.000 
#    0.000    0.000    0.000    0.000    0.000    0.000 
#
# Total GULP energy -312095.617412 kJ/mol
# GULP energy per Si atom -5573.136025 kJ/mol
# Density = 1.993047 g / cm^3
# Si number density = 19.975931 Si / 1000 Ang^3
#
#
#
# Elastic Constant Matrix: (Units=GPa)
#
#
# Indices 1 2 3 4 5 6 
#
# 1 76.7372 31.6876 16.2276 0.0000 0.0000 0.0000
# 2 31.6876 99.2699 35.4062 0.0000 0.0000 0.0000
# 3 16.2276 35.4062 55.2367 0.0000 0.0000 0.0000
# 4 0.0000 0.0000 0.0000 21.1672 0.0000 0.0000
# 5 0.0000 0.0000 0.0000 0.0000 2.1320 0.0000
# 6 0.0000 0.0000 0.0000 0.0000 0.0000 7.0636
#
#
#
# Elastic Compliance Matrix: (Units=1/GPa)
#
#
# Indices 1 2 3 4 5 6 
#
# 1 0.015139 -0.004208 -0.001750 0.000000 0.000000 0.000000
# 2 -0.004208 0.014229 -0.007884 0.000000 0.000000 0.000000
# 3 -0.001750 -0.007884 0.023672 0.000000 0.000000 0.000000
# 4 0.000000 0.000000 0.000000 0.047243 0.000000 0.000000
# 5 0.000000 0.000000 0.000000 0.000000 0.469040 0.000000
# 6 0.000000 0.000000 0.000000 0.000000 0.000000 0.141571
#
#
# Mechanical properties :
#
#
# Convention : Reuss Voigt Hill
#
# Bulk Modulus (GPa) = 39.44068 44.20962 41.82515
# Shear Modulus (GPa) = 6.69316 15.93405 11.31361
#
# Velocity S-wave (km/s) = 1.83245 2.82736 2.38242
# Velocity P-wave (km/s) = 4.92587 5.73045 5.34332
#
# Compressibility (1/GPa) = 0.02535453
#
# Stress axis : x y z
#
# Youngs Moduli (GPa) = 66.05284 70.27932 42.24431
#
# Poissons Ratio (x) = 0.29576 0.07394
# Poissons Ratio (y) = 0.27797 0.33307
# Poissons Ratio (z) = 0.11560 0.55410
#
# Static dielectric constant tensor:
#      x y z
#    x 1.727480 0.000000 0.000000 
#    y 0.000000 1.694980 0.000000 
#    z 0.000000 0.000000 1.683590 
# 
# From -- ./inp_files/22838.got.cif
#   From: 2010.05.17/outbox.cif.g08.bks.cpg/sg53_12_cif.got.tgz:22838.got - 2010.06.03 12:45:16.
