data_PCOD9414595
_publ_section_title
;
Structure prediction by ZEFSAII (Michael W. Deem and Ramdas Pophale) SiO2 
 PCOD9414595
Probable space group: P M N A
;
_chemical_formula_sum "Si O2"
_cell_formula_units_Z 48
_cell_length_a 19.722892
_cell_length_b 21.218712
_cell_length_c 5.214546
_cell_angle_alpha 90.000000
_cell_angle_beta 90.000000
_cell_angle_gamma 90.000000
_cell_volume 2182.258118
_symmetry_space_group_name_H-M "P M N A"
_symmetry_group_IT_number 53
_symmetry_cell_setting 'orthorhombic'
loop_
_space_group_symop_operation_xyz
x,y,z
1/2-x,-y,1/2+z
x,-y,-z
1/2-x,y,1/2-z
-x,-y,-z
1/2+x,y,1/2-z
-x,y,z
1/2+x,-y,1/2+z
loop_
_atom_site_type_symbol
_atom_site_label
_atom_site_fract_x
_atom_site_fract_y
_atom_site_fract_z
Si Si1 0.167320 0.574321 0.000665
Si Si2 0.424229 0.790949 0.422001
Si Si3 0.694501 0.906355 0.962541
Si Si4 0.339012 0.231984 0.067453
Si Si5 0.114212 0.069908 0.974871
Si Si6 0.181524 0.629273 0.503320
O O1 0.140085 0.606877 0.747548
O O2 0.157362 0.500000 0.000000
O O3 0.142242 0.610153 0.249990
O O4 0.248394 0.589727 0.999140
O O5 0.500000 0.769391 0.480557
O O6 0.372339 0.773567 0.651202
O O7 0.424262 0.867294 0.393701
O O8 0.396663 0.767168 0.150560
O O9 0.750000 0.930779 0.750000
O O10 0.704645 0.831047 0.987873
O O11 0.631154 0.915269 0.773379
O O12 0.674604 0.932041 0.248640
O O13 0.300779 0.297571 0.028211
O O14 0.085002 0.000000 0.000000
#
# Coordination Sequence:
#
# PCOD9414595 Si02
#       6
#     8   8   8   8   8   8
#     4  10  19  31  48  77 116 152 179 211 252 301
#     4  10  21  39  58  77 106 137 170 241 299 321
#     4  10  21  35  52  76 109 148 174 218 259 310
#     4  10  21  35  53  82 108 137 190 218 264 336
#     4  10  21  37  55  79 104 134 185 225 264 335
#     4  10  18  30  48  73 108 148 178 213 246 311
#
# _framework density 21.995567000000001
#
# number of rings (size 3 to 8) (size 9 to 14) (size 15 to 20)
#    0.000    2.000    0.000    5.000    2.333    1.667 
#    6.000    0.000    0.000    6.000    0.000    0.000 
#    0.000   77.333    0.000    0.000    0.000    0.000 
#
# Total GULP energy -267269.951158 kJ/mol
# GULP energy per Si atom -5568.123982 kJ/mol
# Density = 2.194550 g / cm^3
# Si number density = 21.995567 Si / 1000 Ang^3
#
#
#
# Elastic Constant Matrix: (Units=GPa)
#
#
# Indices 1 2 3 4 5 6 
#
# 1 25.7623 -10.5729 6.8479 0.0000 0.0000 0.0000
# 2 -10.5729 129.2881 28.3444 0.0000 0.0000 0.0000
# 3 6.8479 28.3444 191.5751 0.0000 0.0000 0.0000
# 4 0.0000 0.0000 0.0000 22.4125 0.0000 0.0000
# 5 0.0000 0.0000 0.0000 0.0000 10.2309 0.0000
# 6 0.0000 0.0000 0.0000 0.0000 0.0000 2.1015
#
#
#
# Elastic Compliance Matrix: (Units=1/GPa)
#
#
# Indices 1 2 3 4 5 6 
#
# 1 0.040909 0.003789 -0.002023 0.000000 0.000000 0.000000
# 2 0.003789 0.008345 -0.001370 0.000000 0.000000 0.000000
# 3 -0.002023 -0.001370 0.005495 0.000000 0.000000 0.000000
# 4 0.000000 0.000000 0.000000 0.044618 0.000000 0.000000
# 5 0.000000 0.000000 0.000000 0.000000 0.097743 0.000000
# 6 0.000000 0.000000 0.000000 0.000000 0.000000 0.475849
#
#
# Mechanical properties :
#
#
# Convention : Reuss Voigt Hill
#
# Bulk Modulus (GPa) = 18.00476 43.98489 30.99483
# Shear Modulus (GPa) = 7.23923 28.41606 17.82764
#
# Velocity S-wave (km/s) = 1.81614 3.59820 2.85004
# Velocity P-wave (km/s) = 3.54982 6.10764 4.99522
#
# Compressibility (1/GPa) = 0.05554086
#
# Stress axis : x y z
#
# Youngs Moduli (GPa) = 24.44442 119.83380 181.98674
#
# Poissons Ratio (x) = -0.45404 0.36814
# Poissons Ratio (y) = -0.09262 0.24934
# Poissons Ratio (z) = 0.04945 0.16418
#
# Static dielectric constant tensor:
#      x y z
#    x 1.833020 0.000000 0.000000 
#    y 0.000000 1.818830 0.000000 
#    z 0.000000 0.000000 1.820970 
# 
# From -- ./inp_files/3752.got.cif
#   From: 2010.05.17/outbox.cif.g08.bks.cpg/sg53_2_cif.got.tgz:3752.got - 2010.06.03 12:45:16.
