data_PCOD9414843
_publ_section_title
;
Structure prediction by ZEFSAII (Michael W. Deem and Ramdas Pophale) SiO2 
 PCOD9414843
Probable space group: P M N A
;
_chemical_formula_sum "Si O2"
_cell_formula_units_Z 48
_cell_length_a 10.225246
_cell_length_b 15.032828
_cell_length_c 18.100044
_cell_angle_alpha 90.000000
_cell_angle_beta 90.000000
_cell_angle_gamma 90.000000
_cell_volume 2782.236759
_symmetry_space_group_name_H-M "P M N A"
_symmetry_group_IT_number 53
_symmetry_cell_setting 'orthorhombic'
loop_
_space_group_symop_operation_xyz
x,y,z
1/2-x,-y,1/2+z
x,-y,-z
1/2-x,y,1/2-z
-x,-y,-z
1/2+x,y,1/2-z
-x,y,z
1/2+x,-y,1/2+z
loop_
_atom_site_type_symbol
_atom_site_label
_atom_site_fract_x
_atom_site_fract_y
_atom_site_fract_z
Si Si1 0.241112 0.792582 0.534362
Si Si2 0.153058 0.511642 0.319207
Si Si3 0.500000 0.098137 0.969510
Si Si4 0.846553 0.695955 0.680855
Si Si5 0.500000 0.106971 0.508004
Si Si6 0.000000 0.220250 0.842212
Si Si7 0.739478 0.314985 0.890673
Si Si8 0.000000 0.801340 0.327981
O O1 0.126045 0.852730 0.501652
O O2 0.201717 0.756615 0.613881
O O3 0.372927 0.849712 0.529946
O O4 0.251198 0.711426 0.476287
O O5 0.250000 0.524318 0.250000
O O6 0.162381 0.408361 0.341420
O O7 0.201678 0.583066 0.378547
O O8 0.000000 0.529148 0.300853
O O9 0.500000 0.112321 0.881035
O O10 0.500000 0.000000 0.000000
O O11 0.750000 0.708552 0.750000
O O12 0.000000 0.713294 0.698161
O O13 0.500000 0.144756 0.593089
O O14 0.500000 0.000000 0.500000
O O15 0.873557 0.282374 0.853516
O O16 0.000000 0.182224 0.759270
O O17 0.625331 0.256862 0.852173
#
# Coordination Sequence:
#
# PCOD9414843 Si02
#       8
#     8   8   4   8   4   4   8   4
#     4  10  21  39  58  82 112 146 189 232 288 346
#     4  10  20  33  52  81 116 153 190 230 273 324
#     4  10  20  36  59  83 111 141 183 236 290 344
#     4  10  22  39  59  83 114 153 195 236 276 326
#     4  10  22  40  61  83 113 151 187 232 292 348
#     4  10  20  34  53  81 115 145 183 229 281 340
#     4  10  20  32  53  82 112 149 184 227 279 334
#     4  10  18  32  53  79 111 143 181 229 281 340
#
# _framework density 17.252306000000001
#
# number of rings (size 3 to 8) (size 9 to 14) (size 15 to 20)
#    0.000    2.000    1.667    2.000    2.333    0.667 
#    0.000    3.333    0.000    3.000    0.000    0.000 
#    0.000    0.000    0.000    0.000    0.000    0.000 
#
# Total GULP energy -267722.123288 kJ/mol
# GULP energy per Si atom -5577.544235 kJ/mol
# Density = 1.721304 g / cm^3
# Si number density = 17.252306 Si / 1000 Ang^3
#
#
#
# Elastic Constant Matrix: (Units=GPa)
#
#
# Indices 1 2 3 4 5 6 
#
# 1 164.6668 52.7600 53.8851 0.0000 0.0000 0.0000
# 2 52.7600 73.9320 61.1517 0.0000 0.0000 0.0000
# 3 53.8851 61.1517 110.2313 0.0000 0.0000 0.0000
# 4 0.0000 0.0000 0.0000 21.1751 0.0000 0.0000
# 5 0.0000 0.0000 0.0000 0.0000 13.5431 0.0000
# 6 0.0000 0.0000 0.0000 0.0000 0.0000 24.0014
#
#
#
# Elastic Compliance Matrix: (Units=1/GPa)
#
#
# Indices 1 2 3 4 5 6 
#
# 1 0.007984 -0.004563 -0.001371 0.000000 0.000000 0.000000
# 2 -0.004563 0.027603 -0.013083 0.000000 0.000000 0.000000
# 3 -0.001371 -0.013083 0.017000 0.000000 0.000000 0.000000
# 4 0.000000 0.000000 0.000000 0.047225 0.000000 0.000000
# 5 0.000000 0.000000 0.000000 0.000000 0.073838 0.000000
# 6 0.000000 0.000000 0.000000 0.000000 0.000000 0.041664
#
#
# Mechanical properties :
#
#
# Convention : Reuss Voigt Hill
#
# Bulk Modulus (GPa) = 68.71480 76.04706 72.38093
# Shear Modulus (GPa) = 19.36486 23.81280 21.58883
#
# Velocity S-wave (km/s) = 3.35393 3.71923 3.54129
# Velocity P-wave (km/s) = 7.41042 7.91319 7.66593
#
# Compressibility (1/GPa) = 0.01455291
#
# Stress axis : x y z
#
# Youngs Moduli (GPa) = 125.25595 36.22749 58.82425
#
# Poissons Ratio (x) = 0.16531 0.08066
# Poissons Ratio (y) = 0.57156 0.76957
# Poissons Ratio (z) = 0.17176 0.47395
#
# Static dielectric constant tensor:
#      x y z
#    x 1.593120 0.000000 0.000000 
#    y 0.000000 1.569890 0.000000 
#    z 0.000000 0.000000 1.578940 
# 
# From -- ./inp_files/26379.got.cif
#   From: 2010.05.17/outbox.cif.g08.bks.cpg/sg53_14_cif.got.tgz:26379.got - 2010.06.03 12:45:16.
