data_PCOD9414574
_publ_section_title
;
Structure prediction by ZEFSAII (Michael W. Deem and Ramdas Pophale) SiO2 
 PCOD9414574
Probable space group: P M N A
;
_chemical_formula_sum "Si O2"
_cell_formula_units_Z 64
_cell_length_a 8.955620
_cell_length_b 12.966400
_cell_length_c 34.959267
_cell_angle_alpha 90.000000
_cell_angle_beta 90.000000
_cell_angle_gamma 90.000000
_cell_volume 4059.545287
_symmetry_space_group_name_H-M "P M N A"
_symmetry_group_IT_number 53
_symmetry_cell_setting 'orthorhombic'
loop_
_space_group_symop_operation_xyz
x,y,z
1/2-x,-y,1/2+z
x,-y,-z
1/2-x,y,1/2-z
-x,-y,-z
1/2+x,y,1/2-z
-x,y,z
1/2+x,-y,1/2+z
loop_
_atom_site_type_symbol
_atom_site_label
_atom_site_fract_x
_atom_site_fract_y
_atom_site_fract_z
Si Si1 0.173064 0.874749 0.999249
Si Si2 0.821010 0.612069 0.208926
Si Si3 0.821586 0.886146 0.579219
Si Si4 0.679174 0.202821 0.654973
Si Si5 0.820739 0.626752 0.791612
Si Si6 0.820297 0.811234 0.663322
Si Si7 0.679545 0.004487 0.708059
Si Si8 0.321909 0.128690 0.921796
O O1 0.243588 0.843501 0.958776
O O2 0.000000 0.846564 0.001207
O O3 0.257929 0.837857 0.037128
O O4 0.183972 0.000000 0.000000
O O5 0.750000 0.636164 0.250000
O O6 0.772561 0.694241 0.177267
O O7 0.786494 0.493041 0.199337
O O8 0.000000 0.620367 0.212666
O O9 0.783792 0.830344 0.618769
O O10 0.000000 0.881791 0.573692
O O11 0.781187 0.007342 0.583514
O O12 0.500000 0.205737 0.649950
O O13 0.713073 0.104191 0.681834
O O14 0.754749 0.188652 0.614042
O O15 0.750000 0.648587 0.750000
O O16 0.748097 0.705488 0.821177
O O17 0.000000 0.639439 0.790109
O O18 0.000000 0.812623 0.667541
O O19 0.749781 0.904411 0.687818
O O20 0.750000 0.016885 0.750000
O O21 0.500000 0.993786 0.710898
O O22 0.500000 0.135910 0.921997
#
# Coordination Sequence:
#
# PCOD9414574 Si02
#       8
#     8   8   8   8   8   8   8   8
#     4   9  17  28  45  68  95 128 162 196 234 280
#     4   9  19  35  53  72  95 124 162 208 251 290
#     4   9  18  31  46  67  96 129 161 196 236 283
#     4  10  20  33  49  71  98 128 161 200 243 288
#     4  10  20  35  53  72  94 124 164 208 251 290
#     4  11  21  34  50  70  98 129 163 200 242 287
#     4  11  22  33  47  67  96 130 163 196 237 290
#     4  10  18  30  47  69  98 131 163 196 235 284
#
# _framework density 15.765312
#
# number of rings (size 3 to 8) (size 9 to 14) (size 15 to 20)
#    0.000    2.125    1.250    2.625    0.000    4.500 
#    0.000    0.000    0.000    0.000    0.000    0.875 
#    0.000    7.000    0.000    0.000    0.000    0.000 
#
# Total GULP energy -357095.173400 kJ/mol
# GULP energy per Si atom -5579.612084 kJ/mol
# Density = 1.572943 g / cm^3
# Si number density = 15.765312 Si / 1000 Ang^3
#
#
#
# Elastic Constant Matrix: (Units=GPa)
#
#
# Indices 1 2 3 4 5 6 
#
# 1 48.0030 35.4575 57.7313 0.0000 0.0000 0.0000
# 2 35.4575 66.8345 61.9655 0.0000 0.0000 0.0000
# 3 57.7313 61.9655 147.1991 0.0000 0.0000 0.0000
# 4 0.0000 0.0000 0.0000 18.0377 0.0000 0.0000
# 5 0.0000 0.0000 0.0000 0.0000 33.2734 0.0000
# 6 0.0000 0.0000 0.0000 0.0000 0.0000 7.8196
#
#
#
# Elastic Compliance Matrix: (Units=1/GPa)
#
#
# Indices 1 2 3 4 5 6 
#
# 1 0.044828 -0.012271 -0.012416 0.000000 0.000000 0.000000
# 2 -0.012271 0.027899 -0.006932 0.000000 0.000000 0.000000
# 3 -0.012416 -0.006932 0.014581 0.000000 0.000000 0.000000
# 4 0.000000 0.000000 0.000000 0.055439 0.000000 0.000000
# 5 0.000000 0.000000 0.000000 0.000000 0.030054 0.000000
# 6 0.000000 0.000000 0.000000 0.000000 0.000000 0.127883
#
#
# Mechanical properties :
#
#
# Convention : Reuss Voigt Hill
#
# Bulk Modulus (GPa) = 41.54413 63.59390 52.56902
# Shear Modulus (GPa) = 13.44278 18.95163 16.19721
#
# Velocity S-wave (km/s) = 2.92324 3.47091 3.20878
# Velocity P-wave (km/s) = 6.14838 7.51587 6.86626
#
# Compressibility (1/GPa) = 0.02407079
#
# Stress axis : x y z
#
# Youngs Moduli (GPa) = 22.30740 35.84305 68.58218
#
# Poissons Ratio (x) = 0.43984 0.85150
# Poissons Ratio (y) = 0.27374 0.47540
# Poissons Ratio (z) = 0.27696 0.24846
#
# Static dielectric constant tensor:
#      x y z
#    x 1.525810 0.000000 0.000000 
#    y 0.000000 1.513570 0.000000 
#    z 0.000000 0.000000 1.510150 
# 
# From -- ./inp_files/38284.got.cif
#   From: 2010.05.17/outbox.cif.g08.bks.cpg/sg53_20_cif.got.tgz:38284.got - 2010.06.03 12:45:16.
