data_PCOD9414270
_publ_section_title
;
Structure prediction by ZEFSAII (Michael W. Deem and Ramdas Pophale) SiO2 
 PCOD9414270
Probable space group: P M N A
;
_chemical_formula_sum "Si O2"
_cell_formula_units_Z 64
_cell_length_a 18.322462
_cell_length_b 11.770734
_cell_length_c 14.921879
_cell_angle_alpha 90.000000
_cell_angle_beta 90.000000
_cell_angle_gamma 90.000000
_cell_volume 3218.184132
_symmetry_space_group_name_H-M "P M N A"
_symmetry_group_IT_number 53
_symmetry_cell_setting 'orthorhombic'
loop_
_space_group_symop_operation_xyz
x,y,z
1/2-x,-y,1/2+z
x,-y,-z
1/2-x,y,1/2-z
-x,-y,-z
1/2+x,y,1/2-z
-x,y,z
1/2+x,-y,1/2+z
loop_
_atom_site_type_symbol
_atom_site_label
_atom_site_fract_x
_atom_site_fract_y
_atom_site_fract_z
Si Si1 0.218746 0.405276 0.352519
Si Si2 0.325908 0.054224 0.912434
Si Si3 0.740641 0.832040 0.642020
Si Si4 0.580725 0.804580 0.669277
Si Si5 0.419313 0.563412 0.765953
Si Si6 0.854017 0.454381 0.908682
Si Si7 0.291235 0.217318 0.653518
Si Si8 0.583547 0.062812 0.736575
O O1 0.250000 0.399759 0.250000
O O2 0.213737 0.277416 0.387502
O O3 0.140720 0.460966 0.340577
O O4 0.278894 0.474610 0.403867
O O5 0.270995 0.161494 0.909460
O O6 0.270799 0.950991 0.888963
O O7 0.385830 0.074871 0.836687
O O8 0.362037 0.000000 0.000000
O O9 0.750000 0.837434 0.750000
O O10 0.656786 0.805505 0.615720
O O11 0.500000 0.794526 0.625230
O O12 0.586499 0.696427 0.735649
O O13 0.583053 0.927927 0.715660
O O14 0.500000 0.540555 0.797352
O O15 0.401343 0.492831 0.676697
O O16 0.829298 0.325337 0.892411
O O17 0.890244 0.500000 0.000000
O O18 0.250000 0.243722 0.750000
O O19 0.356136 0.127928 0.676669
O O20 0.500000 0.103615 0.725032
#
# Coordination Sequence:
#
# PCOD9414270 Si02
#       8
#     8   8   8   8   8   8   8   8
#     4   9  17  32  55  79 102 137 184 229 271 330
#     4  11  22  32  55  86 116 146 181 233 287 338
#     4  11  15  32  55  79 107 139 182 227 269 329
#     4  10  17  29  55  84 105 131 175 228 272 320
#     4  10  19  33  55  81 107 140 184 232 279 333
#     4  11  23  36  55  82 112 145 186 241 288 329
#     4  10  21  39  57  81 111 152 200 229 271 346
#     4  10  20  37  59  82 112 150 190 230 277 341
#
# _framework density 19.886991999999999
#
# number of rings (size 3 to 8) (size 9 to 14) (size 15 to 20)
#    0.000    1.750    6.250    1.500    1.750    1.000 
#    0.000    0.000    0.000    1.875    0.000    0.000 
#    0.000    0.000    0.000    0.000    0.000    0.000 
#
# Total GULP energy -356563.181088 kJ/mol
# GULP energy per Si atom -5571.299705 kJ/mol
# Density = 1.984173 g / cm^3
# Si number density = 19.886992 Si / 1000 Ang^3
#
#
#
# Elastic Constant Matrix: (Units=GPa)
#
#
# Indices 1 2 3 4 5 6 
#
# 1 93.2682 -18.4202 -10.0689 0.0000 0.0000 0.0000
# 2 -18.4202 67.4127 6.1430 0.0000 0.0000 0.0000
# 3 -10.0689 6.1430 26.7029 0.0000 0.0000 0.0000
# 4 0.0000 0.0000 0.0000 15.5966 0.0000 0.0000
# 5 0.0000 0.0000 0.0000 0.0000 10.6476 0.0000
# 6 0.0000 0.0000 0.0000 0.0000 0.0000 -13.1705
#
#
#
# Elastic Compliance Matrix: (Units=1/GPa)
#
#
# Indices 1 2 3 4 5 6 
#
# 1 0.011690 0.002852 0.003752 0.000000 0.000000 0.000000
# 2 0.002852 0.015848 -0.002570 0.000000 0.000000 0.000000
# 3 0.003752 -0.002570 0.039455 0.000000 0.000000 0.000000
# 4 0.000000 0.000000 0.000000 0.064116 0.000000 0.000000
# 5 0.000000 0.000000 0.000000 0.000000 0.093918 0.000000
# 6 0.000000 0.000000 0.000000 0.000000 0.000000 -0.075927
#
#
# Mechanical properties :
#
#
# Convention : Reuss Voigt Hill
#
# Bulk Modulus (GPa) = 13.32251 15.85462 14.58857
# Shear Modulus (GPa) = 30.11109 16.59675 23.35392
#
# Velocity S-wave (km/s) = 3.89538 2.89200 3.43057
# Velocity P-wave (km/s) = 5.19092 4.37507 4.80035
#
# Compressibility (1/GPa) = 0.07506094
#
# Stress axis : x y z
#
# Youngs Moduli (GPa) = 85.54220 63.10104 25.34526
#
# Poissons Ratio (x) = -0.17999 -0.09509
# Poissons Ratio (y) = -0.24400 0.06514
# Poissons Ratio (z) = -0.32094 0.16218
#
# Static dielectric constant tensor:
#      x y z
#    x 1.744940 0.000000 0.000000 
#    y 0.000000 1.714100 0.000000 
#    z 0.000000 0.000000 1.780810 
# 
# From -- ./inp_files/23904.got.cif
#   From: 2010.05.17/outbox.cif.g08.bks.cpg/sg53_12_cif.got.tgz:23904.got - 2010.06.03 12:45:16.
