data_PCOD9414620
_publ_section_title
;
Structure prediction by ZEFSAII (Michael W. Deem and Ramdas Pophale) SiO2 
 PCOD9414620
Probable space group: P M N A
;
_chemical_formula_sum "Si O2"
_cell_formula_units_Z 48
_cell_length_a 8.901423
_cell_length_b 14.392248
_cell_length_c 21.798319
_cell_angle_alpha 90.000000
_cell_angle_beta 90.000000
_cell_angle_gamma 90.000000
_cell_volume 2792.615069
_symmetry_space_group_name_H-M "P M N A"
_symmetry_group_IT_number 53
_symmetry_cell_setting 'orthorhombic'
loop_
_space_group_symop_operation_xyz
x,y,z
1/2-x,-y,1/2+z
x,-y,-z
1/2-x,y,1/2-z
-x,-y,-z
1/2+x,y,1/2-z
-x,y,z
1/2+x,-y,1/2+z
loop_
_atom_site_type_symbol
_atom_site_label
_atom_site_fract_x
_atom_site_fract_y
_atom_site_fract_z
Si Si1 0.180727 0.988600 0.314942
Si Si2 0.829107 0.467839 0.071689
Si Si3 0.327098 0.284567 0.040386
Si Si4 0.182825 0.072113 0.446746
Si Si5 0.669416 0.648995 0.100630
Si Si6 0.323509 0.214121 0.688074
O O1 0.250000 0.022590 0.250000
O O2 0.223691 0.041456 0.377634
O O3 0.000000 0.988559 0.310015
O O4 0.240805 0.883718 0.323179
O O5 0.769204 0.362879 0.074602
O O6 0.720995 0.542380 0.103522
O O7 0.000000 0.475049 0.093883
O O8 0.829499 0.500000 0.000000
O O9 0.500000 0.285618 0.062994
O O10 0.269921 0.178766 0.042672
O O11 0.331071 0.317968 0.969894
O O12 0.000000 0.071171 0.449965
O O13 0.234496 0.000000 0.500000
O O14 0.500000 0.661662 0.124684
O O15 0.785941 0.714076 0.135140
O O16 0.250000 0.252687 0.750000
O O17 0.500000 0.198247 0.695352
#
# Coordination Sequence:
#
# PCOD9414620 Si02
#       6
#     8   8   8   8   8   8
#     4  10  19  33  52  72  98 132 168 204 244 294
#     4   9  17  29  45  68  98 128 157 192 239 294
#     4   9  17  30  49  72  97 127 165 204 244 292
#     4   9  17  30  50  75 100 128 166 211 252 292
#     4  10  18  30  50  73  97 125 158 198 245 295
#     4  11  21  33  49  70  97 127 161 199 241 291
#
# _framework density 17.188191
#
# number of rings (size 3 to 8) (size 9 to 14) (size 15 to 20)
#    0.000    2.333    0.000    5.000    0.000    5.333 
#    0.000    1.667    0.000    4.500    0.000    4.667 
#    0.000    0.000    0.000    0.000    0.000    0.000 
#
# Total GULP energy -267483.201486 kJ/mol
# GULP energy per Si atom -5572.566698 kJ/mol
# Density = 1.714907 g / cm^3
# Si number density = 17.188191 Si / 1000 Ang^3
#
#
#
# Elastic Constant Matrix: (Units=GPa)
#
#
# Indices 1 2 3 4 5 6 
#
# 1 67.4845 24.3902 21.9147 0.0000 0.0000 0.0000
# 2 24.3902 110.3613 41.5377 0.0000 0.0000 0.0000
# 3 21.9147 41.5377 58.0065 0.0000 0.0000 0.0000
# 4 0.0000 0.0000 0.0000 14.9390 0.0000 0.0000
# 5 0.0000 0.0000 0.0000 0.0000 20.8694 0.0000
# 6 0.0000 0.0000 0.0000 0.0000 0.0000 17.7467
#
#
#
# Elastic Compliance Matrix: (Units=1/GPa)
#
#
# Indices 1 2 3 4 5 6 
#
# 1 0.017162 -0.001852 -0.005158 0.000000 0.000000 0.000000
# 2 -0.001852 0.012604 -0.008326 0.000000 0.000000 0.000000
# 3 -0.005158 -0.008326 0.025150 0.000000 0.000000 0.000000
# 4 0.000000 0.000000 0.000000 0.066939 0.000000 0.000000
# 5 0.000000 0.000000 0.000000 0.000000 0.047917 0.000000
# 6 0.000000 0.000000 0.000000 0.000000 0.000000 0.056349
#
#
# Mechanical properties :
#
#
# Convention : Reuss Voigt Hill
#
# Bulk Modulus (GPa) = 41.24487 45.72639 43.48563
# Shear Modulus (GPa) = 18.87684 20.57832 19.72758
#
# Velocity S-wave (km/s) = 3.31757 3.46386 3.39151
# Velocity P-wave (km/s) = 6.22280 6.53138 6.37895
#
# Compressibility (1/GPa) = 0.02424544
#
# Stress axis : x y z
#
# Youngs Moduli (GPa) = 58.26688 79.33900 39.76078
#
# Poissons Ratio (x) = 0.14690 0.20509
# Poissons Ratio (y) = 0.10788 0.33105
# Poissons Ratio (z) = 0.30054 0.66059
#
# Static dielectric constant tensor:
#      x y z
#    x 1.593950 0.000000 0.000000 
#    y 0.000000 1.573520 0.000000 
#    z 0.000000 0.000000 1.604730 
# 
# From -- ./inp_files/33999.got.cif
#   From: 2010.05.17/outbox.cif.g08.bks.cpg/sg53_17_cif.got.tgz:33999.got - 2010.06.03 12:45:16.
