data_PCOD9414353
_publ_section_title
;
Structure prediction by ZEFSAII (Michael W. Deem and Ramdas Pophale) SiO2 
 PCOD9414353
Probable space group: P M N A
;
_chemical_formula_sum "Si O2"
_cell_formula_units_Z 64
_cell_length_a 7.310203
_cell_length_b 21.056637
_cell_length_c 20.466480
_cell_angle_alpha 90.000000
_cell_angle_beta 90.000000
_cell_angle_gamma 90.000000
_cell_volume 3150.370289
_symmetry_space_group_name_H-M "P M N A"
_symmetry_group_IT_number 53
_symmetry_cell_setting 'orthorhombic'
loop_
_space_group_symop_operation_xyz
x,y,z
1/2-x,-y,1/2+z
x,-y,-z
1/2-x,y,1/2-z
-x,-y,-z
1/2+x,y,1/2-z
-x,y,z
1/2+x,-y,1/2+z
loop_
_atom_site_type_symbol
_atom_site_label
_atom_site_fract_x
_atom_site_fract_y
_atom_site_fract_z
Si Si1 0.278781 0.766131 0.940417
Si Si2 0.781740 0.487188 0.327681
Si Si3 0.717431 0.155299 0.825519
Si Si4 0.223011 0.624095 0.582129
Si Si5 0.777487 0.956470 0.413100
Si Si6 0.222919 0.590957 0.434411
Si Si7 0.222392 0.093383 0.442818
Si Si8 0.778613 0.732280 0.411992
O O1 0.500000 0.766197 0.933767
O O2 0.216965 0.697793 0.912463
O O3 0.214983 0.836730 0.920345
O O4 0.234444 0.760055 0.017082
O O5 0.750000 0.497040 0.250000
O O6 0.719013 0.419673 0.357422
O O7 0.715347 0.538939 0.381436
O O8 0.000000 0.488087 0.333661
O O9 0.750000 0.155983 0.750000
O O10 0.500000 0.155475 0.838171
O O11 0.787642 0.091193 0.858073
O O12 0.789888 0.219018 0.858630
O O13 0.277112 0.592649 0.511650
O O14 0.000000 0.625462 0.580315
O O15 0.727248 0.924216 0.482365
O O16 0.000000 0.958883 0.413685
O O17 0.718005 0.029411 0.405884
O O18 0.281078 0.659873 0.408067
O O19 0.000000 0.587217 0.436156
O O20 0.000000 0.095838 0.441372
O O21 0.000000 0.729342 0.409097
#
# Coordination Sequence:
#
# PCOD9414353 Si02
#       8
#     8   8   8   8   8   8   8   8
#     4   8  11  18  35  59  83  99 119 164 216 246
#     4  10  19  30  44  63  87 113 140 172 209 252
#     4  10  18  27  38  54  80 112 137 158 188 234
#     4   8  14  24  41  63  83 105 137 177 215 247
#     4   8  13  20  32  53  79 102 126 158 200 237
#     4   8  14  25  43  63  82 107 140 177 211 244
#     4   8  11  17  33  56  80  99 118 161 213 241
#     4   8  13  22  36  57  82 102 125 162 205 238
#
# _framework density 20.315072000000001
#
# number of rings (size 3 to 8) (size 9 to 14) (size 15 to 20)
#    0.000    3.500    1.250    2.625    0.000    2.000 
#    0.000    0.000    0.000    2.250    0.000    4.375 
#    0.000    0.000    0.000    0.000    0.000    0.000 
#
# Total GULP energy -356398.888930 kJ/mol
# GULP energy per Si atom -5568.732640 kJ/mol
# Density = 2.026883 g / cm^3
# Si number density = 20.315072 Si / 1000 Ang^3
#
#
#
# Elastic Constant Matrix: (Units=GPa)
#
#
# Indices 1 2 3 4 5 6 
#
# 1 79.3570 5.5813 -0.0571 0.0000 0.0000 0.0000
# 2 5.5813 147.2489 50.5545 0.0000 0.0000 0.0000
# 3 -0.0571 50.5545 57.5056 0.0000 0.0000 0.0000
# 4 0.0000 0.0000 0.0000 21.0617 0.0000 0.0000
# 5 0.0000 0.0000 0.0000 0.0000 10.3245 0.0000
# 6 0.0000 0.0000 0.0000 0.0000 0.0000 -19.9705
#
#
#
# Elastic Compliance Matrix: (Units=1/GPa)
#
#
# Indices 1 2 3 4 5 6 
#
# 1 0.012650 -0.000693 0.000622 0.000000 0.000000 0.000000
# 2 -0.000693 0.009765 -0.008585 0.000000 0.000000 0.000000
# 3 0.000622 -0.008585 0.024938 0.000000 0.000000 0.000000
# 4 0.000000 0.000000 0.000000 0.047480 0.000000 0.000000
# 5 0.000000 0.000000 0.000000 0.000000 0.096857 0.000000
# 6 0.000000 0.000000 0.000000 0.000000 0.000000 -0.050074
#
#
# Mechanical properties :
#
#
# Convention : Reuss Voigt Hill
#
# Bulk Modulus (GPa) = 33.28869 44.02985 38.65927
# Shear Modulus (GPa) = 29.59588 17.48535 23.54061
#
# Velocity S-wave (km/s) = 3.82100 2.93697 3.40777
# Velocity P-wave (km/s) = 5.99070 5.76381 5.87835
#
# Compressibility (1/GPa) = 0.03004023
#
# Stress axis : x y z
#
# Youngs Moduli (GPa) = 79.04845 102.40568 40.09968
#
# Poissons Ratio (x) = 0.07096 -0.02493
# Poissons Ratio (y) = 0.05478 0.34427
# Poissons Ratio (z) = -0.04915 0.87919
#
# Static dielectric constant tensor:
#      x y z
#    x 1.807950 0.000000 0.000000 
#    y 0.000000 1.764430 0.000000 
#    z 0.000000 0.000000 1.668280 
# 
# From -- ./inp_files/27748.got.cif
#   From: 2010.05.17/outbox.cif.g08.bks.cpg/sg53_14_cif.got.tgz:27748.got - 2010.06.03 12:45:16.
