data_PCOD9414063
_publ_section_title
;
Structure prediction by ZEFSAII (Michael W. Deem and Ramdas Pophale) SiO2 
 PCOD9414063
Probable space group: P M N A
;
_chemical_formula_sum "Si O2"
_cell_formula_units_Z 40
_cell_length_a 24.600642
_cell_length_b 7.056082
_cell_length_c 12.547836
_cell_angle_alpha 90.000000
_cell_angle_beta 90.000000
_cell_angle_gamma 90.000000
_cell_volume 2178.105411
_symmetry_space_group_name_H-M "P M N A"
_symmetry_group_IT_number 53
_symmetry_cell_setting 'orthorhombic'
loop_
_space_group_symop_operation_xyz
x,y,z
1/2-x,-y,1/2+z
x,-y,-z
1/2-x,y,1/2-z
-x,-y,-z
1/2+x,y,1/2-z
-x,y,z
1/2+x,-y,1/2+z
loop_
_atom_site_type_symbol
_atom_site_label
_atom_site_fract_x
_atom_site_fract_y
_atom_site_fract_z
Si Si1 0.265533 0.762526 0.095020
Si Si2 0.937927 0.949136 0.874520
Si Si3 0.619705 0.578846 0.616649
Si Si4 0.656749 0.806350 0.281555
Si Si5 0.259183 0.314042 0.370505
O O1 0.208115 0.841309 0.139186
O O2 0.316137 0.825508 0.165925
O O3 0.258744 0.535447 0.119924
O O4 0.269976 0.211861 0.031386
O O5 0.926431 0.727529 0.854644
O O6 0.000000 0.999899 0.849328
O O7 0.893140 0.059438 0.807158
O O8 0.929167 0.000000 0.000000
O O9 0.606661 0.500000 0.500000
O O10 0.634078 0.405615 0.694651
O O11 0.676731 0.690145 0.606164
O O12 0.250000 0.249106 0.250000
#
# Coordination Sequence:
#
# PCOD9414063 Si02
#       5
#     8   8   8   8   8
#     4   9  16  29  52  80 114 144 172 218 280 342
#     4  11  23  34  50  77 107 147 196 234 274 333
#     4  11  18  32  53  74 109 146 172 227 283 324
#     4  10  18  35  52  75 113 143 175 223 278 336
#     4  10  15  28  53  84 111 140 175 220 272 343
#
# _framework density 18.364583
#
# number of rings (size 3 to 8) (size 9 to 14) (size 15 to 20)
#    0.000    1.800   10.000    0.000    0.000    1.200 
#    3.600    0.000    0.000    0.000    0.000    5.600 
#    0.000    0.000    0.000    0.000    0.000    0.000 
#
# Total GULP energy -223331.039878 kJ/mol
# GULP energy per Si atom -5583.275997 kJ/mol
# Density = 1.832278 g / cm^3
# Si number density = 18.364583 Si / 1000 Ang^3
#
#
#
# Elastic Constant Matrix: (Units=GPa)
#
#
# Indices 1 2 3 4 5 6 
#
# 1 117.3203 42.2198 52.5340 0.0000 0.0000 0.0000
# 2 42.2198 66.7215 30.2102 0.0000 0.0000 0.0000
# 3 52.5340 30.2102 141.9694 0.0000 0.0000 0.0000
# 4 0.0000 0.0000 0.0000 10.6784 0.0000 0.0000
# 5 0.0000 0.0000 0.0000 0.0000 19.3352 0.0000
# 6 0.0000 0.0000 0.0000 0.0000 0.0000 16.3857
#
#
#
# Elastic Compliance Matrix: (Units=1/GPa)
#
#
# Indices 1 2 3 4 5 6 
#
# 1 0.012210 -0.006286 -0.003181 0.000000 0.000000 0.000000
# 2 -0.006286 0.019822 -0.001892 0.000000 0.000000 0.000000
# 3 -0.003181 -0.001892 0.008623 0.000000 0.000000 0.000000
# 4 0.000000 0.000000 0.000000 0.093647 0.000000 0.000000
# 5 0.000000 0.000000 0.000000 0.000000 0.051719 0.000000
# 6 0.000000 0.000000 0.000000 0.000000 0.000000 0.061029
#
#
# Mechanical properties :
#
#
# Convention : Reuss Voigt Hill
#
# Bulk Modulus (GPa) = 55.74697 63.99326 59.87012
# Shear Modulus (GPa) = 18.13256 22.68299 20.40778
#
# Velocity S-wave (km/s) = 3.14565 3.51828 3.33717
# Velocity P-wave (km/s) = 6.60417 7.17120 6.89352
#
# Compressibility (1/GPa) = 0.01793819
#
# Stress axis : x y z
#
# Youngs Moduli (GPa) = 81.89979 50.44895 115.96539
#
# Poissons Ratio (x) = 0.31713 0.36883
# Poissons Ratio (y) = 0.51483 0.21939
# Poissons Ratio (z) = 0.26048 0.09544
#
# Static dielectric constant tensor:
#      x y z
#    x 1.587310 0.000000 0.000000 
#    y 0.000000 1.743280 0.000000 
#    z 0.000000 0.000000 1.646750 
# 
# From -- ./inp_files/24550.got.cif
#   From: 2010.05.17/outbox.cif.g08.bks.cpg/sg53_13_cif.got.tgz:24550.got - 2010.06.03 12:45:16.
