data_PCOD9414010
_publ_section_title
;
Structure prediction by ZEFSAII (Michael W. Deem and Ramdas Pophale) SiO2 
 PCOD9414010
Probable space group: P N N A
;
_chemical_formula_sum "Si O2"
_cell_formula_units_Z 40
_cell_length_a 18.000000
_cell_length_b 12.000000
_cell_length_c 9.000000
_cell_angle_alpha 90.000000
_cell_angle_beta 90.000000
_cell_angle_gamma 90.000000
_cell_volume 1944.000000
_symmetry_space_group_name_H-M "P N N A"
_symmetry_group_IT_number 52
_symmetry_cell_setting 'orthorhombic'
loop_
_space_group_symop_operation_xyz
x,y,z
1/2-x,-y,z
x,1/2-y,1/2-z
1/2-x,1/2+y,1/2-z
-x,-y,-z
1/2+x,y,-z
-x,1/2+y,1/2+z
1/2+x,1/2-y,1/2+z
loop_
_atom_site_type_symbol
_atom_site_label
_atom_site_fract_x
_atom_site_fract_y
_atom_site_fract_z
Si Si1 0.584221 0.534402 0.534575
Si Si2 0.629455 0.561313 0.877894
Si Si3 0.384456 0.698859 0.587685
Si Si4 0.210136 0.327680 0.109536
Si Si5 0.539904 0.763146 0.428204
O O1 0.500000 0.500000 0.500000
O O2 0.596778 0.544860 0.711642
O O3 0.625059 0.433444 0.448154
O O4 0.592525 0.659876 0.476609
O O5 0.705286 0.633598 0.870852
O O6 0.658718 0.437004 0.913585
O O7 0.574072 0.624779 0.993674
O O8 0.399093 0.750000 0.750000
O O9 0.308278 0.753218 0.531545
O O10 0.456921 0.739698 0.492689
O O11 0.188721 0.250000 0.250000
O O12 0.535662 0.750000 0.250000
#
# Coordination Sequence:
#
# PCOD9414010 Si02
#       5
#     8   8   8   8   8
#     4  10  21  41  66  97 132 175 221 282 351 409
#     4  11  24  43  69  98 137 177 230 286 342 423
#     4  11  24  42  68  99 136 177 228 284 346 420
#     4  11  23  43  69  97 129 182 229 277 349 418
#     4  11  24  40  66 100 136 174 227 289 349 408
#
# _framework density 20.576132000000001
#
# number of rings (size 3 to 8) (size 9 to 14) (size 15 to 20)
#    0.000    1.200    2.000    4.800    5.600    1.600 
#    0.000    0.000    0.000    0.000    0.000    0.000 
#    0.000    0.000    0.000    0.000    0.000    0.000 
#
# Total GULP energy -223053.869999 kJ/mol
# GULP energy per Si atom -5576.346750 kJ/mol
# Density = 2.052930 g / cm^3
# Si number density = 20.576132 Si / 1000 Ang^3
#
#
#
# Elastic Constant Matrix: (Units=GPa)
#
#
# Indices 1 2 3 4 5 6 
#
# 1 58.6108 24.3773 24.0448 0.0000 0.0000 0.0000
# 2 24.3773 113.9040 24.1988 0.0000 0.0000 0.0000
# 3 24.0448 24.1988 139.4657 0.0000 0.0000 0.0000
# 4 0.0000 0.0000 0.0000 40.9338 0.0000 0.0000
# 5 0.0000 0.0000 0.0000 0.0000 29.6698 0.0000
# 6 0.0000 0.0000 0.0000 0.0000 0.0000 20.0035
#
#
#
# Elastic Compliance Matrix: (Units=1/GPa)
#
#
# Indices 1 2 3 4 5 6 
#
# 1 0.019707 -0.003630 -0.002768 0.000000 0.000000 0.000000
# 2 -0.003630 0.009784 -0.001072 0.000000 0.000000 0.000000
# 3 -0.002768 -0.001072 0.007833 0.000000 0.000000 0.000000
# 4 0.000000 0.000000 0.000000 0.024430 0.000000 0.000000
# 5 0.000000 0.000000 0.000000 0.000000 0.033704 0.000000
# 6 0.000000 0.000000 0.000000 0.000000 0.000000 0.049991
#
#
# Mechanical properties :
#
#
# Convention : Reuss Voigt Hill
#
# Bulk Modulus (GPa) = 44.67160 50.80247 47.73704
# Shear Modulus (GPa) = 29.78859 34.07872 31.93366
#
# Velocity S-wave (km/s) = 3.80903 4.07409 3.94379
# Velocity P-wave (km/s) = 6.41112 6.84650 6.63238
#
# Compressibility (1/GPa) = 0.02238559
#
# Stress axis : x y z
#
# Youngs Moduli (GPa) = 50.74393 102.20957 127.65865
#
# Poissons Ratio (x) = 0.37097 0.35334
# Poissons Ratio (y) = 0.18418 0.13683
# Poissons Ratio (z) = 0.14045 0.10955
#
# Static dielectric constant tensor:
#      x y z
#    x 1.743380 0.000000 0.000000 
#    y 0.000000 1.793090 0.000000 
#    z 0.000000 0.000000 1.778390 
# 
# From -- ./inp_files/11602.got.cif
#   From: 2010.05.17/outbox.ucp.g08.bks.cvg/sg52_6_cif.got.tgz:11602.got - 2010.06.11 16:30:12.
