data_PCOD9414432
_publ_section_title
;
Structure prediction by ZEFSAII (Michael W. Deem and Ramdas Pophale) SiO2 
 PCOD9414432
Probable space group: P M N A
;
_chemical_formula_sum "Si O2"
_cell_formula_units_Z 56
_cell_length_a 7.767208
_cell_length_b 19.970318
_cell_length_c 19.023532
_cell_angle_alpha 90.000000
_cell_angle_beta 90.000000
_cell_angle_gamma 90.000000
_cell_volume 2950.808794
_symmetry_space_group_name_H-M "P M N A"
_symmetry_group_IT_number 53
_symmetry_cell_setting 'orthorhombic'
loop_
_space_group_symop_operation_xyz
x,y,z
1/2-x,-y,1/2+z
x,-y,-z
1/2-x,y,1/2-z
-x,-y,-z
1/2+x,y,1/2-z
-x,y,z
1/2+x,-y,1/2+z
loop_
_atom_site_type_symbol
_atom_site_label
_atom_site_fract_x
_atom_site_fract_y
_atom_site_fract_z
Si Si1 0.195122 0.290085 0.968183
Si Si2 0.303275 0.757719 0.883560
Si Si3 0.206555 0.899022 0.908174
Si Si4 0.711213 0.573121 0.524469
Si Si5 0.204436 0.624488 0.824272
Si Si6 0.711486 0.852403 0.436221
Si Si7 0.707315 0.967027 0.332040
O O1 0.272556 0.224747 0.930497
O O2 0.000000 0.298250 0.941782
O O3 0.191196 0.264772 0.049391
O O4 0.272117 0.364394 0.976170
O O5 0.500000 0.758263 0.907589
O O6 0.253044 0.832763 0.863975
O O7 0.281246 0.699245 0.827664
O O8 0.000000 0.903917 0.911580
O O9 0.272474 0.966611 0.872466
O O10 0.265012 0.883979 0.988320
O O11 0.766110 0.500000 0.500000
O O12 0.500000 0.574907 0.522710
O O13 0.764580 0.587570 0.604882
O O14 0.250000 0.592092 0.750000
O O15 0.000000 0.630207 0.828653
O O16 0.500000 0.849890 0.437394
O O17 0.766871 0.901097 0.373816
O O18 0.750000 0.967468 0.250000
O O19 0.500000 0.967824 0.337804
#
# Coordination Sequence:
#
# PCOD9414432 Si02
#       7
#     8   8   8   8   8   8   8
#     4   8  14  27  48  70  90 114 149 188 221 262
#     4  10  18  28  44  67  94 119 145 180 225 276
#     4   9  17  31  49  66  86 116 156 195 228 269
#     4   8  14  26  47  74  97 117 147 189 230 266
#     4  10  19  31  47  67  94 127 160 191 225 271
#     4   8  14  28  50  69  83 111 157 197 225 262
#     4  10  20  32  46  64  88 117 150 192 239 281
#
# _framework density 18.977847000000001
#
# number of rings (size 3 to 8) (size 9 to 14) (size 15 to 20)
#    0.000    3.000    0.000    3.857    0.000    2.857 
#    0.000    4.286    0.000   15.857    0.000    0.000 
#    0.000    0.000    0.000    0.000    0.000    0.000 
#
# Total GULP energy -311874.763642 kJ/mol
# GULP energy per Si atom -5569.192208 kJ/mol
# Density = 1.893465 g / cm^3
# Si number density = 18.977847 Si / 1000 Ang^3
#
#
#
# Elastic Constant Matrix: (Units=GPa)
#
#
# Indices 1 2 3 4 5 6 
#
# 1 36.4214 2.6693 -0.6726 0.0000 0.0000 0.0000
# 2 2.6693 189.1198 65.5354 0.0000 0.0000 0.0000
# 3 -0.6726 65.5354 70.0286 0.0000 0.0000 0.0000
# 4 0.0000 0.0000 0.0000 14.2987 0.0000 0.0000
# 5 0.0000 0.0000 0.0000 0.0000 16.9512 0.0000
# 6 0.0000 0.0000 0.0000 0.0000 0.0000 -1.8016
#
#
#
# Elastic Compliance Matrix: (Units=1/GPa)
#
#
# Indices 1 2 3 4 5 6 
#
# 1 0.027526 -0.000711 0.000929 0.000000 0.000000 0.000000
# 2 -0.000711 0.007844 -0.007347 0.000000 0.000000 0.000000
# 3 0.000929 -0.007347 0.021165 0.000000 0.000000 0.000000
# 4 0.000000 0.000000 0.000000 0.069936 0.000000 0.000000
# 5 0.000000 0.000000 0.000000 0.000000 0.058993 0.000000
# 6 0.000000 0.000000 0.000000 0.000000 0.000000 -0.555047
#
#
# Mechanical properties :
#
#
# Convention : Reuss Voigt Hill
#
# Bulk Modulus (GPa) = 23.65350 47.84821 35.75086
# Shear Modulus (GPa) = -14.65268 21.09216 3.21974
#
# Velocity S-wave (km/s) = -2.78167 3.33740 1.30394
# Velocity P-wave (km/s) = 1.47440 6.33391 4.59849
#
# Compressibility (1/GPa) = 0.04227703
#
# Stress axis : x y z
#
# Youngs Moduli (GPa) = 36.32977 127.49055 47.24859
#
# Poissons Ratio (x) = 0.09059 -0.04391
# Poissons Ratio (y) = 0.02581 0.34715
# Poissons Ratio (z) = -0.03376 0.93671
#
# Static dielectric constant tensor:
#      x y z
#    x 1.708690 0.000000 0.000000 
#    y 0.000000 1.699350 0.000000 
#    z 0.000000 0.000000 1.649850 
# 
# From -- ./inp_files/20512.got.cif
#   From: 2010.05.17/outbox.cif.g08.bks.cpg/sg53_11_cif.got.tgz:20512.got - 2010.06.03 12:45:16.
