data_PCOD9414628
_publ_section_title
;
Structure prediction by ZEFSAII (Michael W. Deem and Ramdas Pophale) SiO2 
 PCOD9414628
Probable space group: P M N A
;
_chemical_formula_sum "Si O2"
_cell_formula_units_Z 44
_cell_length_a 20.747151
_cell_length_b 5.055812
_cell_length_c 22.176312
_cell_angle_alpha 90.000000
_cell_angle_beta 90.000000
_cell_angle_gamma 90.000000
_cell_volume 2326.155307
_symmetry_space_group_name_H-M "P M N A"
_symmetry_group_IT_number 53
_symmetry_cell_setting 'orthorhombic'
loop_
_space_group_symop_operation_xyz
x,y,z
1/2-x,-y,1/2+z
x,-y,-z
1/2-x,y,1/2-z
-x,-y,-z
1/2+x,y,1/2-z
-x,y,z
1/2+x,-y,1/2+z
loop_
_atom_site_type_symbol
_atom_site_label
_atom_site_fract_x
_atom_site_fract_y
_atom_site_fract_z
Si Si1 0.860757 0.248771 0.043976
Si Si2 0.261752 0.063487 0.116087
Si Si3 0.710482 0.441243 0.810075
Si Si4 0.500000 0.748038 0.544260
Si Si5 0.428665 0.608450 0.143793
Si Si6 0.601451 0.893195 0.934677
O O1 0.803289 0.177048 0.088320
O O2 0.930746 0.267692 0.076345
O O3 0.849567 0.500000 0.000000
O O4 0.864813 0.000000 0.000000
O O5 0.277810 0.255801 0.171662
O O6 0.320785 0.099331 0.069647
O O7 0.263229 0.761380 0.138632
O O8 0.750000 0.380205 0.750000
O O9 0.632679 0.411547 0.811680
O O10 0.500000 0.500000 0.500000
O O11 0.500000 0.000000 0.500000
O O12 0.500000 0.567391 0.169923
O O13 0.419036 0.394822 0.089405
O O14 0.423852 0.896472 0.113940
O O15 0.581040 0.000000 0.000000
#
# Coordination Sequence:
#
# PCOD9414628 Si02
#       6
#     8   8   8   4   8   8
#     4  10  18  30  50  75 107 139 167 202 251 313
#     4  10  20  33  53  78 101 134 175 215 258 304
#     4  10  21  38  57  73  97 133 177 224 267 306
#     4   8  16  28  44  68  98 140 168 186 238 304
#     4  10  21  35  53  76 103 138 174 209 255 314
#     4  10  20  32  49  78 111 140 169 203 246 305
#
# _framework density 18.915330999999998
#
# number of rings (size 3 to 8) (size 9 to 14) (size 15 to 20)
#    0.000    2.182    0.000    3.273    0.000    5.091 
#    0.000    0.000    4.000    0.000    0.000    0.000 
#    0.000    0.000    0.000    0.000    0.000    0.000 
#
# Total GULP energy -245144.181328 kJ/mol
# GULP energy per Si atom -5571.458667 kJ/mol
# Density = 1.887228 g / cm^3
# Si number density = 18.915331 Si / 1000 Ang^3
#
#
#
# Elastic Constant Matrix: (Units=GPa)
#
#
# Indices 1 2 3 4 5 6 
#
# 1 174.7555 -0.3234 41.2898 0.0000 0.0000 0.0000
# 2 -0.3234 90.2673 -8.4753 0.0000 0.0000 0.0000
# 3 41.2898 -8.4753 33.6267 0.0000 0.0000 0.0000
# 4 0.0000 0.0000 0.0000 17.5655 0.0000 0.0000
# 5 0.0000 0.0000 0.0000 0.0000 2.9505 0.0000
# 6 0.0000 0.0000 0.0000 0.0000 0.0000 29.2949
#
#
#
# Elastic Compliance Matrix: (Units=1/GPa)
#
#
# Indices 1 2 3 4 5 6 
#
# 1 0.008137 -0.000931 -0.010225 0.000000 0.000000 0.000000
# 2 -0.000931 0.011453 0.004030 0.000000 0.000000 0.000000
# 3 -0.010225 0.004030 0.043310 0.000000 0.000000 0.000000
# 4 0.000000 0.000000 0.000000 0.056930 0.000000 0.000000
# 5 0.000000 0.000000 0.000000 0.000000 0.338920 0.000000
# 6 0.000000 0.000000 0.000000 0.000000 0.000000 0.034136
#
#
# Mechanical properties :
#
#
# Convention : Reuss Voigt Hill
#
# Bulk Modulus (GPa) = 20.55656 40.40350 30.48003
# Shear Modulus (GPa) = 9.55377 27.70608 18.62993
#
# Velocity S-wave (km/s) = 2.24984 3.83135 3.14173
# Velocity P-wave (km/s) = 4.20003 6.40147 5.41383
#
# Compressibility (1/GPa) = 0.04864628
#
# Stress axis : x y z
#
# Youngs Moduli (GPa) = 122.90255 87.31160 23.08958
#
# Poissons Ratio (x) = 0.08128 0.23610
# Poissons Ratio (y) = 0.11441 -0.09305
# Poissons Ratio (z) = 1.25672 -0.35185
#
# Static dielectric constant tensor:
#      x y z
#    x 1.751630 0.000000 0.000000 
#    y 0.000000 1.638390 0.000000 
#    z 0.000000 0.000000 1.617010 
# 
# From -- ./inp_files/32922.got.cif
#   From: 2010.05.17/outbox.cif.g08.bks.cpg/sg53_17_cif.got.tgz:32922.got - 2010.06.03 12:45:16.
