data_PCOD9414672
_publ_section_title
;
Structure prediction by ZEFSAII (Michael W. Deem and Ramdas Pophale) SiO2 
 PCOD9414672
Probable space group: P M N A
;
_chemical_formula_sum "Si O2"
_cell_formula_units_Z 64
_cell_length_a 9.287960
_cell_length_b 21.138607
_cell_length_c 20.479820
_cell_angle_alpha 90.000000
_cell_angle_beta 90.000000
_cell_angle_gamma 90.000000
_cell_volume 4020.895963
_symmetry_space_group_name_H-M "P M N A"
_symmetry_group_IT_number 53
_symmetry_cell_setting 'orthorhombic'
loop_
_space_group_symop_operation_xyz
x,y,z
1/2-x,-y,1/2+z
x,-y,-z
1/2-x,y,1/2-z
-x,-y,-z
1/2+x,y,1/2-z
-x,y,z
1/2+x,-y,1/2+z
loop_
_atom_site_type_symbol
_atom_site_label
_atom_site_fract_x
_atom_site_fract_y
_atom_site_fract_z
Si Si1 0.828407 0.536977 0.067989
Si Si2 0.674072 0.337260 0.965857
Si Si3 0.167572 0.923478 0.071463
Si Si4 0.672902 0.313276 0.395633
Si Si5 0.669195 0.062179 0.413415
Si Si6 0.328737 0.439122 0.317317
Si Si7 0.833302 0.813459 0.599626
Si Si8 0.334982 0.800734 0.059125
O O1 0.735520 0.600560 0.068255
O O2 0.791366 0.489922 0.126880
O O3 0.000000 0.551513 0.070565
O O4 0.803291 0.500000 0.000000
O O5 0.500000 0.338747 0.973367
O O6 0.712289 0.271476 0.929298
O O7 0.751092 0.333049 0.036446
O O8 0.246476 0.858660 0.088412
O O9 0.000000 0.918473 0.087980
O O10 0.221133 0.990519 0.100017
O O11 0.176113 0.930243 0.992429
O O12 0.500000 0.308479 0.404915
O O13 0.703494 0.369040 0.344635
O O14 0.740489 0.245959 0.375881
O O15 0.500000 0.067704 0.396058
O O16 0.761656 0.119201 0.384231
O O17 0.250000 0.451418 0.250000
O O18 0.500000 0.442630 0.307842
O O19 0.830345 0.807602 0.520166
O O20 0.000000 0.809639 0.619636
O O21 0.500000 0.807203 0.079318
#
# Coordination Sequence:
#
# PCOD9414672 Si02
#       8
#     8   8   8   8   8   8   8   8
#     4  10  19  35  53  71  95 122 156 194 235 286
#     4  10  19  29  44  69  92 115 151 194 235 275
#     4   8  13  20  31  46  67 100 144 180 213 262
#     4  10  18  31  47  63  87 120 151 187 233 278
#     4   8  13  21  31  46  69 101 140 181 219 262
#     4  10  22  37  53  72  95 124 155 192 238 287
#     4   9  16  24  35  55  78 104 143 187 224 265
#     4   8  15  24  32  49  79 107 137 178 225 268
#
# _framework density 15.91685
#
# number of rings (size 3 to 8) (size 9 to 14) (size 15 to 20)
#    0.000    2.875    1.250    2.625    0.000    5.750 
#    0.000    2.500    0.000    0.000    0.000    0.000 
#    0.000    0.000    0.000    1.125    0.000   17.000 
#
# Total GULP energy -356288.373868 kJ/mol
# GULP energy per Si atom -5567.005842 kJ/mol
# Density = 1.588062 g / cm^3
# Si number density = 15.916850 Si / 1000 Ang^3
#
#
#
# Elastic Constant Matrix: (Units=GPa)
#
#
# Indices 1 2 3 4 5 6 
#
# 1 63.0940 74.6808 26.6027 0.0000 0.0000 0.0000
# 2 74.6808 170.7591 40.6938 0.0000 0.0000 0.0000
# 3 26.6027 40.6938 45.0348 0.0000 0.0000 0.0000
# 4 0.0000 0.0000 0.0000 6.0608 0.0000 0.0000
# 5 0.0000 0.0000 0.0000 0.0000 10.9380 0.0000
# 6 0.0000 0.0000 0.0000 0.0000 0.0000 15.5816
#
#
#
# Elastic Compliance Matrix: (Units=1/GPa)
#
#
# Indices 1 2 3 4 5 6 
#
# 1 0.035413 -0.013385 -0.008824 0.000000 0.000000 0.000000
# 2 -0.013385 0.012522 -0.003409 0.000000 0.000000 0.000000
# 3 -0.008824 -0.003409 0.030498 0.000000 0.000000 0.000000
# 4 0.000000 0.000000 0.000000 0.164995 0.000000 0.000000
# 5 0.000000 0.000000 0.000000 0.000000 0.091424 0.000000
# 6 0.000000 0.000000 0.000000 0.000000 0.000000 0.064178
#
#
# Mechanical properties :
#
#
# Convention : Reuss Voigt Hill
#
# Bulk Modulus (GPa) = 36.76816 62.53806 49.65311
# Shear Modulus (GPa) = 10.88538 15.64345 13.26441
#
# Velocity S-wave (km/s) = 2.61797 3.13840 2.88992
# Velocity P-wave (km/s) = 5.68231 7.24628 6.51142
#
# Compressibility (1/GPa) = 0.02719745
#
# Stress axis : x y z
#
# Youngs Moduli (GPa) = 28.23848 79.85776 32.78925
#
# Poissons Ratio (x) = 1.06887 0.28934
# Poissons Ratio (y) = 0.37796 0.11177
# Poissons Ratio (z) = 0.24918 0.27221
#
# Static dielectric constant tensor:
#      x y z
#    x 1.532690 0.000000 0.000000 
#    y 0.000000 1.566020 0.000000 
#    z 0.000000 0.000000 1.499530 
# 
# From -- ./inp_files/27016.got.cif
#   From: 2010.05.17/outbox.cif.g08.bks.cpg/sg53_14_cif.got.tgz:27016.got - 2010.06.03 12:45:16.
