data_PCOD9414038
_publ_section_title
;
Structure prediction by ZEFSAII (Michael W. Deem and Ramdas Pophale) SiO2 
 PCOD9414038
Probable space group: P N N A
;
_chemical_formula_sum "Si O2"
_cell_formula_units_Z 64
_cell_length_a 15.000000
_cell_length_b 18.000000
_cell_length_c 12.000000
_cell_angle_alpha 90.000000
_cell_angle_beta 90.000000
_cell_angle_gamma 90.000000
_cell_volume 3240.000000
_symmetry_space_group_name_H-M "P N N A"
_symmetry_group_IT_number 52
_symmetry_cell_setting 'orthorhombic'
loop_
_space_group_symop_operation_xyz
x,y,z
1/2-x,-y,z
x,1/2-y,1/2-z
1/2-x,1/2+y,1/2-z
-x,-y,-z
1/2+x,y,-z
-x,1/2+y,1/2+z
1/2+x,1/2-y,1/2+z
loop_
_atom_site_type_symbol
_atom_site_label
_atom_site_fract_x
_atom_site_fract_y
_atom_site_fract_z
Si Si1 0.339258 0.643862 0.042768
Si Si2 0.922357 0.908192 0.945129
Si Si3 0.006254 0.247563 0.117159
Si Si4 0.911735 0.996952 0.420561
Si Si5 0.032797 0.462156 0.674093
Si Si6 0.144410 0.657196 0.982142
Si Si7 0.411271 0.335736 0.231434
Si Si8 0.771863 0.587632 0.722144
O O1 0.418301 0.702199 0.058120
O O2 0.322985 0.605375 0.162987
O O3 0.363636 0.578096 0.958582
O O4 0.245860 0.679984 0.006003
O O5 0.984571 0.835566 0.931437
O O6 0.831776 0.890532 0.881742
O O7 0.907000 0.936306 0.070507
O O8 0.967167 0.976123 0.877660
O O9 0.023037 0.250000 0.250000
O O10 0.911736 0.286591 0.092992
O O11 0.857552 0.072521 0.440285
O O12 0.930251 0.993809 0.289189
O O13 0.000000 0.000000 0.500000
O O14 0.981609 0.388378 0.711001
O O15 0.093306 0.652464 0.099685
O O16 0.427877 0.250000 0.250000
O O17 0.316121 0.362801 0.276701
O O18 0.750000 0.500000 0.719532
#
# Coordination Sequence:
#
# PCOD9414038 Si02
#       8
#     8   8   8   8   8   8   8   8
#     4  11  23  39  68 100 130 169 225 282 338 399
#     4  11  24  40  59  93 128 172 215 266 330 414
#     4  12  23  42  66  98 137 179 224 276 344 416
#     4  12  20  40  68  94 126 170 223 277 338 400
#     4  11  23  42  63  88 126 174 215 264 337 401
#     4  11  24  39  64  99 129 169 220 285 335 395
#     4  11  22  37  65  97 125 160 218 279 331 389
#     4  11  21  38  63  93 127 165 216 276 325 387
#
# _framework density 19.753086
#
# number of rings (size 3 to 8) (size 9 to 14) (size 15 to 20)
#    0.000    0.750    5.000    4.125    3.500    0.000 
#    0.000    2.500    0.000    0.000    0.000    0.000 
#    0.000    0.000    0.000    0.000    0.000    0.000 
#
# Total GULP energy -357611.307575 kJ/mol
# GULP energy per Si atom -5587.676681 kJ/mol
# Density = 1.970813 g / cm^3
# Si number density = 19.753086 Si / 1000 Ang^3
#
#
#
# Elastic Constant Matrix: (Units=GPa)
#
#
# Indices 1 2 3 4 5 6 
#
# 1 49.4911 16.2630 22.9812 0.0000 0.0000 0.0000
# 2 16.2630 111.8913 13.0089 0.0000 0.0000 0.0000
# 3 22.9812 13.0089 113.8141 0.0000 0.0000 0.0000
# 4 0.0000 0.0000 0.0000 20.3915 0.0000 0.0000
# 5 0.0000 0.0000 0.0000 0.0000 19.5625 0.0000
# 6 0.0000 0.0000 0.0000 0.0000 0.0000 34.7556
#
#
#
# Elastic Compliance Matrix: (Units=1/GPa)
#
#
# Indices 1 2 3 4 5 6 
#
# 1 0.023166 -0.002861 -0.004351 0.000000 0.000000 0.000000
# 2 -0.002861 0.009411 -0.000498 0.000000 0.000000 0.000000
# 3 -0.004351 -0.000498 0.009722 0.000000 0.000000 0.000000
# 4 0.000000 0.000000 0.000000 0.049040 0.000000 0.000000
# 5 0.000000 0.000000 0.000000 0.000000 0.051118 0.000000
# 6 0.000000 0.000000 0.000000 0.000000 0.000000 0.028772
#
#
# Mechanical properties :
#
#
# Convention : Reuss Voigt Hill
#
# Bulk Modulus (GPa) = 37.20363 42.18916 39.69640
# Shear Modulus (GPa) = 25.56125 29.80483 27.68304
#
# Velocity S-wave (km/s) = 3.60118 3.88863 3.74766
# Velocity P-wave (km/s) = 6.01386 6.44721 6.23430
#
# Compressibility (1/GPa) = 0.02687910
#
# Stress axis : x y z
#
# Youngs Moduli (GPa) = 43.16651 106.25850 102.86327
#
# Poissons Ratio (x) = 0.30404 0.44752
# Poissons Ratio (y) = 0.12351 0.05122
# Poissons Ratio (z) = 0.18780 0.05291
#
# Static dielectric constant tensor:
#      x y z
#    x 1.716050 0.000000 0.000000 
#    y 0.000000 1.677100 0.000000 
#    z 0.000000 0.000000 1.695480 
# 
# From -- ./inp_files/19857.got.cif
#   From: 2010.05.17/outbox.ucp.g08.bks.cvg/sg52_10_cif.got.tgz:19857.got - 2010.06.11 16:30:12.
