data_PCOD9414351
_publ_section_title
;
Structure prediction by ZEFSAII (Michael W. Deem and Ramdas Pophale) SiO2 
 PCOD9414351
Probable space group: P M N A
;
_chemical_formula_sum "Si O2"
_cell_formula_units_Z 64
_cell_length_a 7.602722
_cell_length_b 14.905826
_cell_length_c 31.653140
_cell_angle_alpha 90.000000
_cell_angle_beta 90.000000
_cell_angle_gamma 90.000000
_cell_volume 3587.087382
_symmetry_space_group_name_H-M "P M N A"
_symmetry_group_IT_number 53
_symmetry_cell_setting 'orthorhombic'
loop_
_space_group_symop_operation_xyz
x,y,z
1/2-x,-y,1/2+z
x,-y,-z
1/2-x,y,1/2-z
-x,-y,-z
1/2+x,y,1/2-z
-x,y,z
1/2+x,-y,1/2+z
loop_
_atom_site_type_symbol
_atom_site_label
_atom_site_fract_x
_atom_site_fract_y
_atom_site_fract_z
Si Si1 0.213549 0.259272 0.577663
Si Si2 0.711709 0.344592 0.701593
Si Si3 0.788106 0.744027 0.521098
Si Si4 0.700599 0.558865 0.377736
Si Si5 0.215369 0.942789 0.541708
Si Si6 0.292001 0.859233 0.298181
Si Si7 0.793249 0.545001 0.956721
Si Si8 0.291530 0.928839 0.115030
O O1 0.257178 0.258452 0.528384
O O2 0.297881 0.344261 0.599766
O O3 0.275802 0.166899 0.598401
O O4 0.000000 0.266040 0.581688
O O5 0.750000 0.367295 0.750000
O O6 0.500000 0.341514 0.696302
O O7 0.781144 0.416433 0.667750
O O8 0.780579 0.242397 0.694372
O O9 0.726248 0.839622 0.538928
O O10 0.722426 0.651821 0.541129
O O11 0.000000 0.742555 0.524137
O O12 0.500000 0.527445 0.370259
O O13 0.783458 0.494322 0.413121
O O14 0.000000 0.941146 0.540937
O O15 0.267058 0.000000 0.500000
O O16 0.275262 0.992891 0.584354
O O17 0.250000 0.884702 0.250000
O O18 0.500000 0.852320 0.301351
O O19 0.234988 0.927240 0.334775
O O20 0.000000 0.519932 0.956079
O O21 0.719806 0.500000 0.000000
O O22 0.500000 0.927339 0.107703
#
# Coordination Sequence:
#
# PCOD9414351 Si02
#       8
#     8   8   8   8   8   8   8   8
#     4  10  18  26  43  69  94 122 157 196 228 264
#     4   9  18  30  45  65  90 119 150 186 226 273
#     4  10  19  31  47  68  94 124 161 201 231 263
#     4  10  19  32  46  64  91 127 160 186 227 279
#     4   9  16  29  48  69  94 126 161 195 234 279
#     4  10  19  31  47  68  96 125 156 193 235 282
#     4  10  20  32  47  65  91 127 160 190 232 283
#     4  10  18  29  47  70  95 126 162 193 232 281
#
# _framework density 17.841774000000001
#
# number of rings (size 3 to 8) (size 9 to 14) (size 15 to 20)
#    0.000    2.250    3.750    0.375    0.000    1.750 
#    0.000    0.625    0.000    0.750    0.000    0.875 
#    0.000    4.000    0.000    0.000    0.000    0.000 
#
# Total GULP energy -356854.549871 kJ/mol
# GULP energy per Si atom -5575.852342 kJ/mol
# Density = 1.780117 g / cm^3
# Si number density = 17.841774 Si / 1000 Ang^3
#
#
#
# Elastic Constant Matrix: (Units=GPa)
#
#
# Indices 1 2 3 4 5 6 
#
# 1 35.8842 -3.4897 -1.0042 0.0000 0.0000 0.0000
# 2 -3.4897 96.9212 60.4351 0.0000 0.0000 0.0000
# 3 -1.0042 60.4351 142.2430 0.0000 0.0000 0.0000
# 4 0.0000 0.0000 0.0000 33.5682 0.0000 0.0000
# 5 0.0000 0.0000 0.0000 0.0000 6.3241 0.0000
# 6 0.0000 0.0000 0.0000 0.0000 0.0000 22.3074
#
#
#
# Elastic Compliance Matrix: (Units=1/GPa)
#
#
# Indices 1 2 3 4 5 6 
#
# 1 0.027976 0.001203 -0.000314 0.000000 0.000000 0.000000
# 2 0.001203 0.014088 -0.005977 0.000000 0.000000 0.000000
# 3 -0.000314 -0.005977 0.009568 0.000000 0.000000 0.000000
# 4 0.000000 0.000000 0.000000 0.029790 0.000000 0.000000
# 5 0.000000 0.000000 0.000000 0.000000 0.158126 0.000000
# 6 0.000000 0.000000 0.000000 0.000000 0.000000 0.044828
#
#
# Mechanical properties :
#
#
# Convention : Reuss Voigt Hill
#
# Bulk Modulus (GPa) = 24.12230 42.99231 33.55731
# Shear Modulus (GPa) = 16.21430 27.04708 21.63069
#
# Velocity S-wave (km/s) = 3.01787 3.89773 3.48568
# Velocity P-wave (km/s) = 5.06882 6.66372 5.92022
#
# Compressibility (1/GPa) = 0.04145541
#
# Stress axis : x y z
#
# Youngs Moduli (GPa) = 35.74540 70.98250 104.52035
#
# Poissons Ratio (x) = -0.08537 0.03277
# Poissons Ratio (y) = -0.04299 0.62473
# Poissons Ratio (z) = 0.01121 0.42427
#
# Static dielectric constant tensor:
#      x y z
#    x 1.666350 0.000000 0.000000 
#    y 0.000000 1.595590 0.000000 
#    z 0.000000 0.000000 1.595810 
# 
# From -- ./inp_files/38421.got.cif
#   From: 2010.05.17/outbox.cif.g08.bks.cpg/sg53_20_cif.got.tgz:38421.got - 2010.06.03 12:45:16.
