data_PCOD9414863
_publ_section_title
;
Structure prediction by ZEFSAII (Michael W. Deem and Ramdas Pophale) SiO2 
 PCOD9414863
Probable space group: P M N A
;
_chemical_formula_sum "Si O2"
_cell_formula_units_Z 52
_cell_length_a 9.166982
_cell_length_b 14.977216
_cell_length_c 19.927768
_cell_angle_alpha 90.000000
_cell_angle_beta 90.000000
_cell_angle_gamma 90.000000
_cell_volume 2736.000234
_symmetry_space_group_name_H-M "P M N A"
_symmetry_group_IT_number 53
_symmetry_cell_setting 'orthorhombic'
loop_
_space_group_symop_operation_xyz
x,y,z
1/2-x,-y,1/2+z
x,-y,-z
1/2-x,y,1/2-z
-x,-y,-z
1/2+x,y,1/2-z
-x,y,z
1/2+x,-y,1/2+z
loop_
_atom_site_type_symbol
_atom_site_label
_atom_site_fract_x
_atom_site_fract_y
_atom_site_fract_z
Si Si1 0.171910 0.154097 0.891503
Si Si2 0.669822 0.702782 0.874662
Si Si3 0.824209 0.518057 0.677357
Si Si4 0.250000 0.825951 0.750000
Si Si5 0.825041 0.857495 0.531401
Si Si6 0.825629 0.681084 0.322709
Si Si7 0.161997 0.037231 0.140578
O O1 0.258345 0.239765 0.865782
O O2 0.000000 0.173618 0.896197
O O3 0.189262 0.066698 0.844244
O O4 0.238914 0.127770 0.963234
O O5 0.500000 0.691811 0.890072
O O6 0.730802 0.603806 0.863889
O O7 0.680580 0.759695 0.805390
O O8 0.727794 0.764329 0.934463
O O9 0.750000 0.522788 0.750000
O O10 0.796344 0.418909 0.649260
O O11 0.000000 0.526232 0.685482
O O12 0.337940 0.895514 0.703408
O O13 0.781699 0.929059 0.587924
O O14 0.000000 0.856922 0.521142
O O15 0.750000 0.684742 0.250000
O O16 0.000000 0.691301 0.316323
O O17 0.000000 0.041696 0.109083
#
# Coordination Sequence:
#
# PCOD9414863 Si02
#       7
#     8   8   8   4   8   8   8
#     4  11  23  39  57  77 109 150 191 233 275 322
#     4   9  17  31  53  81 112 140 173 217 271 330
#     4   9  17  32  54  82 111 140 173 217 272 330
#     4  10  18  32  54  82 112 142 174 222 274 334
#     4  10  21  37  57  82 110 147 189 228 273 333
#     4  10  21  37  58  83 111 142 181 225 273 328
#     4  10  22  37  55  81 112 146 185 231 279 325
#
# _framework density 19.005846999999999
#
# number of rings (size 3 to 8) (size 9 to 14) (size 15 to 20)
#    0.000    2.154    0.769    2.308    1.077    4.308 
#    0.000    1.538    0.000    4.615    0.000    0.000 
#    0.000    0.000    0.000    0.000    0.000    0.000 
#
# Total GULP energy -289703.705767 kJ/mol
# GULP energy per Si atom -5571.225111 kJ/mol
# Density = 1.896259 g / cm^3
# Si number density = 19.005847 Si / 1000 Ang^3
#
#
#
# Elastic Constant Matrix: (Units=GPa)
#
#
# Indices 1 2 3 4 5 6 
#
# 1 64.2781 41.9789 12.3311 0.0000 0.0000 0.0000
# 2 41.9789 136.0542 17.6277 0.0000 0.0000 0.0000
# 3 12.3311 17.6277 31.8624 0.0000 0.0000 0.0000
# 4 0.0000 0.0000 0.0000 13.2197 0.0000 0.0000
# 5 0.0000 0.0000 0.0000 0.0000 25.2601 0.0000
# 6 0.0000 0.0000 0.0000 0.0000 0.0000 3.9600
#
#
#
# Elastic Compliance Matrix: (Units=1/GPa)
#
#
# Indices 1 2 3 4 5 6 
#
# 1 0.020113 -0.005598 -0.004687 0.000000 0.000000 0.000000
# 2 -0.005598 0.009476 -0.003076 0.000000 0.000000 0.000000
# 3 -0.004687 -0.003076 0.034900 0.000000 0.000000 0.000000
# 4 0.000000 0.000000 0.000000 0.075645 0.000000 0.000000
# 5 0.000000 0.000000 0.000000 0.000000 0.039588 0.000000
# 6 0.000000 0.000000 0.000000 0.000000 0.000000 0.252526
#
#
# Mechanical properties :
#
#
# Convention : Reuss Voigt Hill
#
# Bulk Modulus (GPa) = 26.47791 41.78556 34.13174
# Shear Modulus (GPa) = 10.60314 19.17176 14.88745
#
# Velocity S-wave (km/s) = 2.36453 3.17950 2.80180
# Velocity P-wave (km/s) = 4.62778 5.95922 5.33520
#
# Compressibility (1/GPa) = 0.03776732
#
# Stress axis : x y z
#
# Youngs Moduli (GPa) = 49.71980 105.53076 28.65304
#
# Poissons Ratio (x) = 0.59081 0.13428
# Poissons Ratio (y) = 0.27836 0.08813
# Poissons Ratio (z) = 0.23301 0.32459
#
# Static dielectric constant tensor:
#      x y z
#    x 1.658330 0.000000 0.000000 
#    y 0.000000 1.716150 0.000000 
#    z 0.000000 0.000000 1.640720 
# 
# From -- ./inp_files/30642.got.cif
#   From: 2010.05.17/outbox.cif.g08.bks.cpg/sg53_16_cif.got.tgz:30642.got - 2010.06.03 12:45:16.
