data_PCOD9414430
_publ_section_title
;
Structure prediction by ZEFSAII (Michael W. Deem and Ramdas Pophale) SiO2 
 PCOD9414430
Probable space group: P M N A
;
_chemical_formula_sum "Si O2"
_cell_formula_units_Z 64
_cell_length_a 9.518939
_cell_length_b 19.418170
_cell_length_c 21.865629
_cell_angle_alpha 90.000000
_cell_angle_beta 90.000000
_cell_angle_gamma 90.000000
_cell_volume 4041.651080
_symmetry_space_group_name_H-M "P M N A"
_symmetry_group_IT_number 53
_symmetry_cell_setting 'orthorhombic'
loop_
_space_group_symop_operation_xyz
x,y,z
1/2-x,-y,1/2+z
x,-y,-z
1/2-x,y,1/2-z
-x,-y,-z
1/2+x,y,1/2-z
-x,y,z
1/2+x,-y,1/2+z
loop_
_atom_site_type_symbol
_atom_site_label
_atom_site_fract_x
_atom_site_fract_y
_atom_site_fract_z
Si Si1 0.667207 0.666127 0.006122
Si Si2 0.660058 0.292761 0.306512
Si Si3 0.331597 0.951123 0.440817
Si Si4 0.832380 0.172830 0.507940
Si Si5 0.838834 0.840421 0.886220
Si Si6 0.831684 0.593263 0.895758
Si Si7 0.833452 0.026239 0.187975
Si Si8 0.341533 0.469147 0.930680
O O1 0.500000 0.661042 0.990564
O O2 0.697685 0.745999 0.019263
O O3 0.759519 0.636518 0.950580
O O4 0.690479 0.611587 0.061031
O O5 0.750000 0.269796 0.250000
O O6 0.500000 0.298730 0.286461
O O7 0.666094 0.235923 0.359384
O O8 0.705583 0.365285 0.334629
O O9 0.500000 0.940149 0.442869
O O10 0.247321 0.880204 0.448128
O O11 0.298257 0.985469 0.375022
O O12 0.297987 0.000000 0.500000
O O13 0.769600 0.154972 0.441254
O O14 0.000000 0.163248 0.510021
O O15 0.000000 0.855076 0.907697
O O16 0.809176 0.894557 0.832431
O O17 0.769324 0.516724 0.896482
O O18 0.000000 0.593575 0.903306
O O19 0.750000 0.009337 0.250000
O O20 0.000000 0.017146 0.199076
O O21 0.500000 0.477775 0.906593
O O22 0.342454 0.500000 0.000000
#
# Coordination Sequence:
#
# PCOD9414430 Si02
#       8
#     8   8   8   8   8   8   8   8
#     4   9  18  31  45  66  96 127 157 191 241 295
#     4  10  21  32  45  65  94 131 170 209 245 290
#     4  10  20  37  56  73 102 140 171 203 256 318
#     4  11  21  31  50  78 103 131 169 213 252 294
#     4  10  19  35  51  68  99 138 172 203 249 302
#     4  10  18  28  44  67  92 121 160 203 241 280
#     4  10  21  36  56  76  99 134 172 212 255 304
#     4   8  15  28  44  62  89 123 153 184 229 286
#
# _framework density 15.835112000000001
#
# number of rings (size 3 to 8) (size 9 to 14) (size 15 to 20)
#    0.000    2.250    2.500    1.875    0.000    5.500 
#    0.000    0.000    0.000    0.000    0.000    0.875 
#    0.000    0.000    0.000    0.000    0.000    0.000 
#
# Total GULP energy -356487.563326 kJ/mol
# GULP energy per Si atom -5570.118177 kJ/mol
# Density = 1.579907 g / cm^3
# Si number density = 15.835112 Si / 1000 Ang^3
#
#
#
# Elastic Constant Matrix: (Units=GPa)
#
#
# Indices 1 2 3 4 5 6 
#
# 1 43.4838 42.7990 30.9920 0.0000 0.0000 0.0000
# 2 42.7990 94.3778 34.1965 0.0000 0.0000 0.0000
# 3 30.9920 34.1965 62.9511 0.0000 0.0000 0.0000
# 4 0.0000 0.0000 0.0000 15.8817 0.0000 0.0000
# 5 0.0000 0.0000 0.0000 0.0000 17.7851 0.0000
# 6 0.0000 0.0000 0.0000 0.0000 0.0000 30.6377
#
#
#
# Elastic Compliance Matrix: (Units=1/GPa)
#
#
# Indices 1 2 3 4 5 6 
#
# 1 0.051725 -0.017717 -0.015841 0.000000 0.000000 0.000000
# 2 -0.017717 0.019261 -0.001741 0.000000 0.000000 0.000000
# 3 -0.015841 -0.001741 0.024630 0.000000 0.000000 0.000000
# 4 0.000000 0.000000 0.000000 0.062965 0.000000 0.000000
# 5 0.000000 0.000000 0.000000 0.000000 0.056227 0.000000
# 6 0.000000 0.000000 0.000000 0.000000 0.000000 0.032640
#
#
# Mechanical properties :
#
#
# Convention : Reuss Voigt Hill
#
# Bulk Modulus (GPa) = 39.97008 46.30975 43.13991
# Shear Modulus (GPa) = 15.31936 19.04923 17.18430
#
# Velocity S-wave (km/s) = 3.11373 3.47215 3.29781
# Velocity P-wave (km/s) = 6.18250 6.73669 6.46553
#
# Compressibility (1/GPa) = 0.02501872
#
# Stress axis : x y z
#
# Youngs Moduli (GPa) = 19.33290 51.91906 40.60139
#
# Poissons Ratio (x) = 0.91984 0.64317
# Poissons Ratio (y) = 0.34252 0.07067
# Poissons Ratio (z) = 0.30625 0.09037
#
# Static dielectric constant tensor:
#      x y z
#    x 1.530820 0.000000 0.000000 
#    y 0.000000 1.556390 0.000000 
#    z 0.000000 0.000000 1.517000 
# 
# From -- ./inp_files/34460.got.cif
#   From: 2010.05.17/outbox.cif.g08.bks.cpg/sg53_18_cif.got.tgz:34460.got - 2010.06.03 12:45:16.
