data_PCOD9414014
_publ_section_title
;
Structure prediction by ZEFSAII (Michael W. Deem and Ramdas Pophale) SiO2 
 PCOD9414014
Probable space group: P N N A
;
_chemical_formula_sum "Si O2"
_cell_formula_units_Z 60
_cell_length_a 12.000000
_cell_length_b 9.000000
_cell_length_c 27.000000
_cell_angle_alpha 90.000000
_cell_angle_beta 90.000000
_cell_angle_gamma 90.000000
_cell_volume 2916.000000
_symmetry_space_group_name_H-M "P N N A"
_symmetry_group_IT_number 52
_symmetry_cell_setting 'orthorhombic'
loop_
_space_group_symop_operation_xyz
x,y,z
1/2-x,-y,z
x,1/2-y,1/2-z
1/2-x,1/2+y,1/2-z
-x,-y,-z
1/2+x,y,-z
-x,1/2+y,1/2+z
1/2+x,1/2-y,1/2+z
loop_
_atom_site_type_symbol
_atom_site_label
_atom_site_fract_x
_atom_site_fract_y
_atom_site_fract_z
Si Si1 0.658648 0.629336 0.291351
Si Si2 0.081022 0.140079 0.561485
Si Si3 0.207433 0.669155 0.596134
Si Si4 0.507725 0.696919 0.044579
Si Si5 0.103361 0.089599 0.221179
Si Si6 0.413120 0.120485 0.349646
Si Si7 0.345239 0.795406 0.364170
Si Si8 0.098708 0.750000 0.250000
O O1 0.750000 0.500000 0.288704
O O2 0.686265 0.750000 0.250000
O O3 0.667707 0.695750 0.347046
O O4 0.531843 0.577408 0.279721
O O5 0.196408 0.214853 0.579125
O O6 0.037418 0.212151 0.510707
O O7 0.992060 0.158312 0.605187
O O8 0.072388 0.962309 0.550606
O O9 0.250000 0.500000 0.593790
O O10 0.099866 0.686366 0.561485
O O11 0.402468 0.705139 0.082009
O O12 0.132306 0.250000 0.250000
O O13 0.135044 0.143617 0.165774
O O14 0.147128 0.921695 0.236913
O O15 0.286392 0.170219 0.361636
O O16 0.456338 0.206646 0.301526
O O17 0.405168 0.942339 0.340173
#
# Coordination Sequence:
#
# PCOD9414014 Si02
#       8
#     8   8   8   8   8   8   8   4
#     4  10  24  40  62  94 131 180 222 277 331 397
#     4  10  24  42  70 101 130 169 235 279 341 416
#     4  11  24  42  64  96 136 176 221 275 339 408
#     4  10  22  44  71  98 128 178 219 291 346 394
#     4  11  23  43  65  95 136 177 230 276 337 405
#     4  10  24  39  65 102 132 177 224 277 341 410
#     4  10  21  43  65  94 140 172 224 279 341 408
#     4  12  26  38  70  98 134 186 218 282 342 408
#
# _framework density 20.576132000000001
#
# number of rings (size 3 to 8) (size 9 to 14) (size 15 to 20)
#    0.000    1.600    2.667    0.400    7.467    2.133 
#    0.000    0.000    0.000    0.000    0.000    0.000 
#    0.000    0.000    0.000    0.000    0.000    0.000 
#
# Total GULP energy -334728.438627 kJ/mol
# GULP energy per Si atom -5578.807310 kJ/mol
# Density = 2.052930 g / cm^3
# Si number density = 20.576132 Si / 1000 Ang^3
#
#
#
# Elastic Constant Matrix: (Units=GPa)
#
#
# Indices 1 2 3 4 5 6 
#
# 1 77.0717 24.1882 24.5251 0.0000 0.0000 0.0000
# 2 24.1882 87.4614 44.8313 0.0000 0.0000 0.0000
# 3 24.5251 44.8313 138.7841 0.0000 0.0000 0.0000
# 4 0.0000 0.0000 0.0000 35.0526 0.0000 0.0000
# 5 0.0000 0.0000 0.0000 0.0000 19.3124 0.0000
# 6 0.0000 0.0000 0.0000 0.0000 0.0000 34.5498
#
#
#
# Elastic Compliance Matrix: (Units=1/GPa)
#
#
# Indices 1 2 3 4 5 6 
#
# 1 0.014469 -0.003225 -0.001515 0.000000 0.000000 0.000000
# 2 -0.003225 0.014421 -0.004089 0.000000 0.000000 0.000000
# 3 -0.001515 -0.004089 0.008794 0.000000 0.000000 0.000000
# 4 0.000000 0.000000 0.000000 0.028529 0.000000 0.000000
# 5 0.000000 0.000000 0.000000 0.000000 0.051780 0.000000
# 6 0.000000 0.000000 0.000000 0.000000 0.000000 0.028944
#
#
# Mechanical properties :
#
#
# Convention : Reuss Voigt Hill
#
# Bulk Modulus (GPa) = 49.93263 54.48960 52.21112
# Shear Modulus (GPa) = 29.19369 31.76780 30.48075
#
# Velocity S-wave (km/s) = 3.77080 3.93353 3.85303
# Velocity P-wave (km/s) = 6.57864 6.86802 6.72489
#
# Compressibility (1/GPa) = 0.02002698
#
# Stress axis : x y z
#
# Youngs Moduli (GPa) = 69.11237 69.34214 113.71491
#
# Poissons Ratio (x) = 0.22362 0.17230
# Poissons Ratio (y) = 0.22288 0.46493
# Poissons Ratio (z) = 0.10472 0.28351
#
# Static dielectric constant tensor:
#      x y z
#    x 1.727440 0.000000 0.000000 
#    y 0.000000 1.764240 0.000000 
#    z 0.000000 0.000000 1.755390 
# 
# From -- ./inp_files/42771.got.cif
#   From: 2010.05.17/outbox.ucp.g08.bks.cvg/sg52_22_cif.got.tgz:42771.got - 2010.06.11 16:30:12.
