data_PCOD9414449
_publ_section_title
;
Structure prediction by ZEFSAII (Michael W. Deem and Ramdas Pophale) SiO2 
 PCOD9414449
Probable space group: P M N A
;
_chemical_formula_sum "Si O2"
_cell_formula_units_Z 56
_cell_length_a 9.123554
_cell_length_b 16.981149
_cell_length_c 22.557081
_cell_angle_alpha 90.000000
_cell_angle_beta 90.000000
_cell_angle_gamma 90.000000
_cell_volume 3494.733142
_symmetry_space_group_name_H-M "P M N A"
_symmetry_group_IT_number 53
_symmetry_cell_setting 'orthorhombic'
loop_
_space_group_symop_operation_xyz
x,y,z
1/2-x,-y,1/2+z
x,-y,-z
1/2-x,y,1/2-z
-x,-y,-z
1/2+x,y,1/2-z
-x,y,z
1/2+x,-y,1/2+z
loop_
_atom_site_type_symbol
_atom_site_label
_atom_site_fract_x
_atom_site_fract_y
_atom_site_fract_z
Si Si1 0.673329 0.449573 0.057735
Si Si2 0.170489 0.245317 0.161130
Si Si3 0.667776 0.135511 0.520297
Si Si4 0.832040 0.983312 0.908390
Si Si5 0.830902 0.090690 0.304199
Si Si6 0.175788 0.570964 0.813429
Si Si7 0.670141 0.264410 0.040099
O O1 0.500000 0.467079 0.067779
O O2 0.754681 0.457348 0.122479
O O3 0.682809 0.358622 0.036035
O O4 0.723858 0.500000 0.000000
O O5 0.269414 0.178903 0.189692
O O6 0.195254 0.333958 0.183503
O O7 0.218659 0.243568 0.092803
O O8 0.000000 0.225739 0.168107
O O9 0.500000 0.164500 0.523345
O O10 0.677598 0.076489 0.463870
O O11 0.777465 0.208300 0.513034
O O12 0.692572 0.073450 0.572893
O O13 0.713123 0.954513 0.862801
O O14 0.000000 0.975805 0.885903
O O15 0.750000 0.050398 0.250000
O O16 0.000000 0.093755 0.293499
O O17 0.250000 0.545357 0.750000
O O18 0.000000 0.554906 0.812603
O O19 0.500000 0.246975 0.055316
#
# Coordination Sequence:
#
# PCOD9414449 Si02
#       7
#     8   8   8   8   8   8   8
#     4   9  19  35  52  72 103 138 167 202 249 298
#     4  10  19  31  45  64  94 128 162 197 233 278
#     4   9  17  30  49  68  92 123 153 191 238 279
#     4   9  18  32  47  65  90 122 157 193 233 278
#     4  12  23  32  44  63  89 124 161 199 237 280
#     4  10  20  32  49  72  98 131 168 205 243 292
#     4  10  18  28  47  73  97 124 161 199 237 285
#
# _framework density 16.024113
#
# number of rings (size 3 to 8) (size 9 to 14) (size 15 to 20)
#    0.000    2.143    1.429    3.857    0.000    4.286 
#    0.000    1.429    0.000    0.000    0.000    1.000 
#    0.000    6.857    0.000    0.000    0.000    0.000 
#
# Total GULP energy -311758.586758 kJ/mol
# GULP energy per Si atom -5567.117621 kJ/mol
# Density = 1.598764 g / cm^3
# Si number density = 16.024113 Si / 1000 Ang^3
#
#
#
# Elastic Constant Matrix: (Units=GPa)
#
#
# Indices 1 2 3 4 5 6 
#
# 1 92.5758 23.9207 49.2993 0.0000 0.0000 0.0000
# 2 23.9207 35.8264 27.7686 0.0000 0.0000 0.0000
# 3 49.2993 27.7686 77.6708 0.0000 0.0000 0.0000
# 4 0.0000 0.0000 0.0000 -10.1930 0.0000 0.0000
# 5 0.0000 0.0000 0.0000 0.0000 7.1819 0.0000
# 6 0.0000 0.0000 0.0000 0.0000 0.0000 15.9327
#
#
#
# Elastic Compliance Matrix: (Units=1/GPa)
#
#
# Indices 1 2 3 4 5 6 
#
# 1 0.016735 -0.004068 -0.009168 0.000000 0.000000 0.000000
# 2 -0.004068 0.039601 -0.011576 0.000000 0.000000 0.000000
# 3 -0.009168 -0.011576 0.022832 0.000000 0.000000 0.000000
# 4 0.000000 0.000000 0.000000 -0.098106 0.000000 0.000000
# 5 0.000000 0.000000 0.000000 0.000000 0.139239 0.000000
# 6 0.000000 0.000000 0.000000 0.000000 0.000000 0.062764
#
#
# Mechanical properties :
#
#
# Convention : Reuss Voigt Hill
#
# Bulk Modulus (GPa) = 33.84663 45.33892 39.59277
# Shear Modulus (GPa) = 20.61543 9.58995 15.10269
#
# Velocity S-wave (km/s) = 3.59071 2.44902 3.07334
# Velocity P-wave (km/s) = 6.19347 6.02931 6.11194
#
# Compressibility (1/GPa) = 0.02954504
#
# Stress axis : x y z
#
# Youngs Moduli (GPa) = 59.75426 25.25199 43.79735
#
# Poissons Ratio (x) = 0.10272 0.40153
# Poissons Ratio (y) = 0.24308 0.50699
# Poissons Ratio (z) = 0.54782 0.29232
#
# Static dielectric constant tensor:
#      x y z
#    x 1.547850 0.000000 0.000000 
#    y 0.000000 1.535680 0.000000 
#    z 0.000000 0.000000 1.621800 
# 
# From -- ./inp_files/31056.got.cif
#   From: 2010.05.17/outbox.cif.g08.bks.cpg/sg53_16_cif.got.tgz:31056.got - 2010.06.03 12:45:16.
