data_PCOD9414686
_publ_section_title
;
Structure prediction by ZEFSAII (Michael W. Deem and Ramdas Pophale) SiO2 
 PCOD9414686
Probable space group: P M N A
;
_chemical_formula_sum "Si O2"
_cell_formula_units_Z 48
_cell_length_a 14.737434
_cell_length_b 9.873269
_cell_length_c 18.716232
_cell_angle_alpha 90.000000
_cell_angle_beta 90.000000
_cell_angle_gamma 90.000000
_cell_volume 2723.336224
_symmetry_space_group_name_H-M "P M N A"
_symmetry_group_IT_number 53
_symmetry_cell_setting 'orthorhombic'
loop_
_space_group_symop_operation_xyz
x,y,z
1/2-x,-y,1/2+z
x,-y,-z
1/2-x,y,1/2-z
-x,-y,-z
1/2+x,y,1/2-z
-x,y,z
1/2+x,-y,1/2+z
loop_
_atom_site_type_symbol
_atom_site_label
_atom_site_fract_x
_atom_site_fract_y
_atom_site_fract_z
Si Si1 0.302190 0.698352 0.388257
Si Si2 0.149833 0.503543 0.777078
Si Si3 0.901121 0.691078 0.344655
Si Si4 0.106372 0.098602 0.778105
Si Si5 0.108814 0.196438 0.182837
Si Si6 0.391122 0.842308 0.519134
O O1 0.354331 0.568472 0.354408
O O2 0.193200 0.676339 0.387537
O O3 0.331073 0.816487 0.332107
O O4 0.339826 0.745751 0.463929
O O5 0.250000 0.472897 0.750000
O O6 0.094288 0.425525 0.716438
O O7 0.137460 0.662796 0.782661
O O8 0.891304 0.828620 0.298224
O O9 0.000000 0.692485 0.381994
O O10 0.000000 0.106237 0.803231
O O11 0.134767 0.942359 0.777757
O O12 0.000000 0.199166 0.181925
O O13 0.138233 0.184895 0.100386
O O14 0.500000 0.821723 0.513170
O O15 0.374014 0.000000 0.500000
#
# Coordination Sequence:
#
# PCOD9414686 Si02
#       6
#     8   8   8   8   8   8
#     4  10  18  31  49  69  97 132 167 198 240 290
#     4   9  19  32  47  72 101 128 160 203 248 289
#     4   9  18  32  50  71  95 126 167 209 243 282
#     4   9  16  28  47  71  98 127 159 196 241 296
#     4  10  19  30  47  73 102 131 157 190 245 296
#     4  10  19  32  49  73 103 132 162 196 237 293
#
# _framework density 17.625440000000001
#
# number of rings (size 3 to 8) (size 9 to 14) (size 15 to 20)
#    0.000    2.500    1.667    2.500    0.000    4.000 
#    0.000    1.667    0.000    0.500    0.000   10.500 
#    0.000    0.000    0.000    0.000    0.000    0.000 
#
# Total GULP energy -267341.461685 kJ/mol
# GULP energy per Si atom -5569.613785 kJ/mol
# Density = 1.758532 g / cm^3
# Si number density = 17.625440 Si / 1000 Ang^3
#
#
#
# Elastic Constant Matrix: (Units=GPa)
#
#
# Indices 1 2 3 4 5 6 
#
# 1 71.8241 -1.0008 -2.3256 0.0000 0.0000 0.0000
# 2 -1.0008 95.2216 1.1723 0.0000 0.0000 0.0000
# 3 -2.3256 1.1723 21.1724 0.0000 0.0000 0.0000
# 4 0.0000 0.0000 0.0000 9.1414 0.0000 0.0000
# 5 0.0000 0.0000 0.0000 0.0000 43.9044 0.0000
# 6 0.0000 0.0000 0.0000 0.0000 0.0000 22.1091
#
#
#
# Elastic Compliance Matrix: (Units=1/GPa)
#
#
# Indices 1 2 3 4 5 6 
#
# 1 0.013974 0.000128 0.001528 0.000000 0.000000 0.000000
# 2 0.000128 0.010510 -0.000568 0.000000 0.000000 0.000000
# 3 0.001528 -0.000568 0.047431 0.000000 0.000000 0.000000
# 4 0.000000 0.000000 0.000000 0.109392 0.000000 0.000000
# 5 0.000000 0.000000 0.000000 0.000000 0.022777 0.000000
# 6 0.000000 0.000000 0.000000 0.000000 0.000000 0.045230
#
#
# Mechanical properties :
#
#
# Convention : Reuss Voigt Hill
#
# Bulk Modulus (GPa) = 13.49692 20.43445 16.96568
# Shear Modulus (GPa) = 18.39350 27.72247 23.05799
#
# Velocity S-wave (km/s) = 3.23395 3.97024 3.62086
# Velocity P-wave (km/s) = 4.64960 5.71279 5.20840
#
# Compressibility (1/GPa) = 0.07409097
#
# Stress axis : x y z
#
# Youngs Moduli (GPa) = 71.56071 95.14611 21.08343
#
# Poissons Ratio (x) = -0.01218 -0.03221
# Poissons Ratio (y) = -0.00916 0.01197
# Poissons Ratio (z) = -0.10933 0.05403
#
# Static dielectric constant tensor:
#      x y z
#    x 1.651520 0.000000 0.000000 
#    y 0.000000 1.629370 0.000000 
#    z 0.000000 0.000000 1.590720 
# 
# From -- ./inp_files/28270.got.cif
#   From: 2010.05.17/outbox.cif.g08.bks.cpg/sg53_15_cif.got.tgz:28270.got - 2010.06.03 12:45:16.
