data_PCOD9414042
_publ_section_title
;
Structure prediction by ZEFSAII (Michael W. Deem and Ramdas Pophale) SiO2 
 PCOD9414042
Probable space group: P N N A
;
_chemical_formula_sum "Si O2"
_cell_formula_units_Z 60
_cell_length_a 9.000000
_cell_length_b 18.000000
_cell_length_c 18.000000
_cell_angle_alpha 90.000000
_cell_angle_beta 90.000000
_cell_angle_gamma 90.000000
_cell_volume 2916.000000
_symmetry_space_group_name_H-M "P N N A"
_symmetry_group_IT_number 52
_symmetry_cell_setting 'orthorhombic'
loop_
_space_group_symop_operation_xyz
x,y,z
1/2-x,-y,z
x,1/2-y,1/2-z
1/2-x,1/2+y,1/2-z
-x,-y,-z
1/2+x,y,-z
-x,1/2+y,1/2+z
1/2+x,1/2-y,1/2+z
loop_
_atom_site_type_symbol
_atom_site_label
_atom_site_fract_x
_atom_site_fract_y
_atom_site_fract_z
Si Si1 0.037754 0.414788 0.711951
Si Si2 0.582522 0.812173 0.688623
Si Si3 0.788092 0.673395 0.950989
Si Si4 0.067419 0.570956 0.954199
Si Si5 0.750000 0.500000 0.177550
Si Si6 0.782395 0.733975 0.329220
Si Si7 0.787957 0.324015 0.476201
Si Si8 0.979459 0.571587 0.449559
O O1 0.151743 0.453587 0.765789
O O2 0.116499 0.338925 0.683893
O O3 0.993987 0.452661 0.635511
O O4 0.908350 0.388827 0.766410
O O5 0.614055 0.750000 0.750000
O O6 0.695201 0.812453 0.622694
O O7 0.412314 0.796343 0.658539
O O8 0.798618 0.755088 0.986909
O O9 0.941305 0.631588 0.939264
O O10 0.691571 0.615357 0.999571
O O11 0.141890 0.543930 0.878085
O O12 0.000000 0.500000 0.000000
O O13 0.708067 0.750000 0.250000
O O14 0.674646 0.713359 0.396334
O O15 0.684064 0.394783 0.460318
O O16 0.916263 0.359055 0.526416
O O17 0.000000 0.500000 0.500000
#
# Coordination Sequence:
#
# PCOD9414042 Si02
#       8
#     8   8   8   8   4   8   8   8
#     4   9  21  38  64  88 123 179 214 259 333 402
#     4   9  18  38  64  91 128 176 216 261 341 395
#     4  12  23  40  69  94 135 171 220 273 322 396
#     4  12  25  42  63 102 134 176 220 274 334 395
#     4  12  24  40  66  92 134 172 236 268 332 408
#     4   8  17  33  61  92 122 165 215 266 327 396
#     4  11  22  40  64 100 126 171 222 270 333 394
#     4  11  24  43  68  96 131 173 223 276 332 396
#
# _framework density 20.576132000000001
#
# number of rings (size 3 to 8) (size 9 to 14) (size 15 to 20)
#    0.000    1.867    1.333    5.200    7.467    0.000 
#    0.000    4.000    5.867    0.000    0.000    0.000 
#    0.000    0.000    0.000    0.000    0.000    0.000 
#
# Total GULP energy -334388.353840 kJ/mol
# GULP energy per Si atom -5573.139231 kJ/mol
# Density = 2.052930 g / cm^3
# Si number density = 20.576132 Si / 1000 Ang^3
#
#
#
# Elastic Constant Matrix: (Units=GPa)
#
#
# Indices 1 2 3 4 5 6 
#
# 1 57.2271 18.4092 36.1074 0.0000 0.0000 0.0000
# 2 18.4092 83.2287 43.2885 0.0000 0.0000 0.0000
# 3 36.1074 43.2885 137.8368 0.0000 0.0000 0.0000
# 4 0.0000 0.0000 0.0000 25.5032 0.0000 0.0000
# 5 0.0000 0.0000 0.0000 0.0000 38.2997 0.0000
# 6 0.0000 0.0000 0.0000 0.0000 0.0000 33.7914
#
#
#
# Elastic Compliance Matrix: (Units=1/GPa)
#
#
# Indices 1 2 3 4 5 6 
#
# 1 0.021254 -0.002158 -0.004890 0.000000 0.000000 0.000000
# 2 -0.002158 0.014580 -0.004014 0.000000 0.000000 0.000000
# 3 -0.004890 -0.004014 0.009796 0.000000 0.000000 0.000000
# 4 0.000000 0.000000 0.000000 0.039211 0.000000 0.000000
# 5 0.000000 0.000000 0.000000 0.000000 0.026110 0.000000
# 6 0.000000 0.000000 0.000000 0.000000 0.000000 0.029593
#
#
# Mechanical properties :
#
#
# Convention : Reuss Voigt Hill
#
# Bulk Modulus (GPa) = 42.53986 52.65585 47.59785
# Shear Modulus (GPa) = 29.32509 31.55135 30.43822
#
# Velocity S-wave (km/s) = 3.77928 3.92011 3.85034
# Velocity P-wave (km/s) = 6.30580 6.79235 6.55359
#
# Compressibility (1/GPa) = 0.02350736
#
# Stress axis : x y z
#
# Youngs Moduli (GPa) = 47.05076 68.58745 102.07803
#
# Poissons Ratio (x) = 0.14799 0.49915
# Poissons Ratio (y) = 0.10152 0.40971
# Poissons Ratio (z) = 0.23007 0.27529
#
# Static dielectric constant tensor:
#      x y z
#    x 1.781510 0.000000 0.000000 
#    y 0.000000 1.840820 0.000000 
#    z 0.000000 0.000000 1.846680 
# 
# From -- ./inp_files/31489.got.cif
#   From: 2010.05.17/outbox.ucp.g08.bks.cvg/sg52_16_cif.got.tgz:31489.got - 2010.06.11 16:30:12.
