data_PCOD9414367
_publ_section_title
;
Structure prediction by ZEFSAII (Michael W. Deem and Ramdas Pophale) SiO2 
 PCOD9414367
Probable space group: P M N A
;
_chemical_formula_sum "Si O2"
_cell_formula_units_Z 64
_cell_length_a 8.935401
_cell_length_b 26.885552
_cell_length_c 18.748635
_cell_angle_alpha 90.000000
_cell_angle_beta 90.000000
_cell_angle_gamma 90.000000
_cell_volume 4504.044361
_symmetry_space_group_name_H-M "P M N A"
_symmetry_group_IT_number 53
_symmetry_cell_setting 'orthorhombic'
loop_
_space_group_symop_operation_xyz
x,y,z
1/2-x,-y,1/2+z
x,-y,-z
1/2-x,y,1/2-z
-x,-y,-z
1/2+x,y,1/2-z
-x,y,z
1/2+x,-y,1/2+z
loop_
_atom_site_type_symbol
_atom_site_label
_atom_site_fract_x
_atom_site_fract_y
_atom_site_fract_z
Si Si1 0.319438 0.008006 0.172371
Si Si2 0.671451 0.053530 0.959909
Si Si3 0.679514 0.304887 0.173475
Si Si4 0.820347 0.189409 0.327473
Si Si5 0.821969 0.101247 0.088075
Si Si6 0.679758 0.395659 0.077302
Si Si7 0.672644 0.449938 0.548465
Si Si8 0.321367 0.492665 0.172067
O O1 0.250000 0.001741 0.250000
O O2 0.500000 0.013197 0.174623
O O3 0.284590 0.961489 0.120145
O O4 0.249755 0.057311 0.136343
O O5 0.500000 0.071863 0.961361
O O6 0.775376 0.088688 0.006895
O O7 0.671483 0.000000 0.000000
O O8 0.750000 0.317445 0.250000
O O9 0.500000 0.308763 0.180084
O O10 0.714906 0.247329 0.157198
O O11 0.727496 0.344054 0.113494
O O12 0.750000 0.177698 0.250000
O O13 0.748884 0.152343 0.384330
O O14 0.000000 0.183433 0.324794
O O15 0.000000 0.101176 0.096284
O O16 0.500000 0.395751 0.068326
O O17 0.716158 0.440379 0.132645
O O18 0.754364 0.408377 0.001892
O O19 0.678379 0.500000 0.500000
O O20 0.500000 0.438915 0.563914
O O21 0.759865 0.464176 0.620189
O O22 0.250000 0.494383 0.250000
O O23 0.500000 0.495773 0.177130
#
# Coordination Sequence:
#
# PCOD9414367 Si02
#       8
#     8   8   8   8   8   8   8   8
#     4  10  19  30  44  62  85 111 139 170 204 244
#     4   8  16  30  44  59  81 108 136 168 205 243
#     4   9  18  30  44  61  82 109 140 175 210 245
#     4  10  19  31  44  59  82 110 141 176 211 244
#     4  11  20  29  43  61  82 110 143 175 207 244
#     4   9  17  29  43  60  82 109 140 171 208 247
#     4   9  17  28  41  58  80 107 139 171 203 242
#     4  10  18  27  41  60  84 111 138 171 206 244
#
# _framework density 14.209452000000001
#
# number of rings (size 3 to 8) (size 9 to 14) (size 15 to 20)
#    0.000    2.500    0.000    4.125    0.000    5.750 
#    0.000    0.000    0.000    0.000    0.000    0.000 
#    0.000    1.000    0.000    6.500    0.000    4.875 
#
# Total GULP energy -356710.922978 kJ/mol
# GULP energy per Si atom -5573.608172 kJ/mol
# Density = 1.417711 g / cm^3
# Si number density = 14.209452 Si / 1000 Ang^3
#
#
#
# Elastic Constant Matrix: (Units=GPa)
#
#
# Indices 1 2 3 4 5 6 
#
# 1 65.0906 36.5652 46.9760 0.0000 0.0000 0.0000
# 2 36.5652 62.6988 39.2638 0.0000 0.0000 0.0000
# 3 46.9760 39.2638 96.0887 0.0000 0.0000 0.0000
# 4 0.0000 0.0000 0.0000 25.9654 0.0000 0.0000
# 5 0.0000 0.0000 0.0000 0.0000 26.3733 0.0000
# 6 0.0000 0.0000 0.0000 0.0000 0.0000 13.7805
#
#
#
# Elastic Compliance Matrix: (Units=1/GPa)
#
#
# Indices 1 2 3 4 5 6 
#
# 1 0.028044 -0.010441 -0.009444 0.000000 0.000000 0.000000
# 2 -0.010441 0.025321 -0.005242 0.000000 0.000000 0.000000
# 3 -0.009444 -0.005242 0.017166 0.000000 0.000000 0.000000
# 4 0.000000 0.000000 0.000000 0.038513 0.000000 0.000000
# 5 0.000000 0.000000 0.000000 0.000000 0.037917 0.000000
# 6 0.000000 0.000000 0.000000 0.000000 0.000000 0.072567
#
#
# Mechanical properties :
#
#
# Convention : Reuss Voigt Hill
#
# Bulk Modulus (GPa) = 49.31679 52.16535 50.74107
# Shear Modulus (GPa) = 18.08046 19.96204 19.02125
#
# Velocity S-wave (km/s) = 3.57098 3.75219 3.66270
# Velocity P-wave (km/s) = 7.19617 7.45408 7.32626
#
# Compressibility (1/GPa) = 0.02027707
#
# Stress axis : x y z
#
# Youngs Moduli (GPa) = 35.65800 39.49249 58.25424
#
# Poissons Ratio (x) = 0.41234 0.55015
# Poissons Ratio (y) = 0.37231 0.30539
# Poissons Ratio (z) = 0.33675 0.20703
#
# Static dielectric constant tensor:
#      x y z
#    x 1.474050 0.000000 0.000000 
#    y 0.000000 1.459180 0.000000 
#    z 0.000000 0.000000 1.463380 
# 
# From -- ./inp_files/27055.got.cif
#   From: 2010.05.17/outbox.cif.g08.bks.cpg/sg53_14_cif.got.tgz:27055.got - 2010.06.03 12:45:16.
