data_PCOD9414696
_publ_section_title
;
Structure prediction by ZEFSAII (Michael W. Deem and Ramdas Pophale) SiO2 
 PCOD9414696
Probable space group: P M N A
;
_chemical_formula_sum "Si O2"
_cell_formula_units_Z 48
_cell_length_a 8.908106
_cell_length_b 10.568058
_cell_length_c 30.994586
_cell_angle_alpha 90.000000
_cell_angle_beta 90.000000
_cell_angle_gamma 90.000000
_cell_volume 2917.873126
_symmetry_space_group_name_H-M "P M N A"
_symmetry_group_IT_number 53
_symmetry_cell_setting 'orthorhombic'
loop_
_space_group_symop_operation_xyz
x,y,z
1/2-x,-y,1/2+z
x,-y,-z
1/2-x,y,1/2-z
-x,-y,-z
1/2+x,y,1/2-z
-x,y,z
1/2+x,-y,1/2+z
loop_
_atom_site_type_symbol
_atom_site_label
_atom_site_fract_x
_atom_site_fract_y
_atom_site_fract_z
Si Si1 0.317037 0.732791 0.387574
Si Si2 0.825980 0.019646 0.205522
Si Si3 0.179072 0.987055 0.615619
Si Si4 0.180601 0.881152 0.968750
Si Si5 0.172420 0.711349 0.206267
Si Si6 0.317416 0.630304 0.479123
O O1 0.500000 0.744832 0.386436
O O2 0.267489 0.676986 0.341251
O O3 0.273782 0.652609 0.429431
O O4 0.249596 0.873222 0.391867
O O5 0.750000 0.062948 0.250000
O O6 0.739328 0.057701 0.162217
O O7 0.000000 0.056858 0.203422
O O8 0.821960 0.865345 0.206313
O O9 0.238177 0.901684 0.576552
O O10 0.000000 0.995056 0.616039
O O11 0.000000 0.879817 0.962051
O O12 0.225866 0.752607 0.992879
O O13 0.213759 0.000000 0.000000
O O14 0.250000 0.666963 0.250000
O O15 0.000000 0.672313 0.208300
O O16 0.263329 0.500000 0.500000
O O17 0.500000 0.627667 0.479388
#
# Coordination Sequence:
#
# PCOD9414696 Si02
#       6
#     8   8   8   8   8   8
#     4   9  16  29  45  64  91 122 153 192 244 286
#     4   9  16  27  42  63  94 127 158 193 241 289
#     4  11  20  28  43  68  96 126 163 199 236 284
#     4  10  18  31  50  69  92 123 157 199 247 287
#     4   8  14  22  36  57  85 116 145 179 220 272
#     4   9  17  30  50  72  91 117 159 203 243 294
#
# _framework density 16.450337000000001
#
# number of rings (size 3 to 8) (size 9 to 14) (size 15 to 20)
#    0.000    2.667    1.667    3.000    0.000    4.333 
#    0.000    0.000    0.000    2.000    0.000    1.167 
#    0.000    2.667    0.000    0.000    0.000    1.333 
#
# Total GULP energy -267356.550923 kJ/mol
# GULP energy per Si atom -5569.928144 kJ/mol
# Density = 1.641290 g / cm^3
# Si number density = 16.450337 Si / 1000 Ang^3
#
#
#
# Elastic Constant Matrix: (Units=GPa)
#
#
# Indices 1 2 3 4 5 6 
#
# 1 48.7465 16.9191 52.6880 0.0000 0.0000 0.0000
# 2 16.9191 63.7887 57.0198 0.0000 0.0000 0.0000
# 3 52.6880 57.0198 199.3003 0.0000 0.0000 0.0000
# 4 0.0000 0.0000 0.0000 12.6043 0.0000 0.0000
# 5 0.0000 0.0000 0.0000 0.0000 27.4919 0.0000
# 6 0.0000 0.0000 0.0000 0.0000 0.0000 1.9312
#
#
#
# Elastic Compliance Matrix: (Units=1/GPa)
#
#
# Indices 1 2 3 4 5 6 
#
# 1 0.028780 -0.001119 -0.007288 0.000000 0.000000 0.000000
# 2 -0.001119 0.021107 -0.005743 0.000000 0.000000 0.000000
# 3 -0.007288 -0.005743 0.008587 0.000000 0.000000 0.000000
# 4 0.000000 0.000000 0.000000 0.079338 0.000000 0.000000
# 5 0.000000 0.000000 0.000000 0.000000 0.036374 0.000000
# 6 0.000000 0.000000 0.000000 0.000000 0.000000 0.517807
#
#
# Mechanical properties :
#
#
# Convention : Reuss Voigt Hill
#
# Bulk Modulus (GPa) = 33.14033 62.78769 47.96401
# Shear Modulus (GPa) = 6.84602 20.75274 13.79938
#
# Velocity S-wave (km/s) = 2.04222 3.55567 2.89943
# Velocity P-wave (km/s) = 5.07448 7.42347 6.35839
#
# Compressibility (1/GPa) = 0.03017472
#
# Stress axis : x y z
#
# Youngs Moduli (GPa) = 34.74599 47.37760 116.44907
#
# Poissons Ratio (x) = 0.05299 0.84874
# Poissons Ratio (y) = 0.03886 0.66877
# Poissons Ratio (z) = 0.25325 0.27209
#
# Static dielectric constant tensor:
#      x y z
#    x 1.555500 0.000000 0.000000 
#    y 0.000000 1.524870 0.000000 
#    z 0.000000 0.000000 1.585340 
# 
# From -- ./inp_files/37923.got.cif
#   From: 2010.05.17/outbox.cif.g08.bks.cpg/sg53_19_cif.got.tgz:37923.got - 2010.06.03 12:45:16.
