data_PCOD9414119
_publ_section_title
;
Structure prediction by ZEFSAII (Michael W. Deem and Ramdas Pophale) SiO2 
 PCOD9414119
Probable space group: P M N A
;
_chemical_formula_sum "Si O2"
_cell_formula_units_Z 48
_cell_length_a 14.091314
_cell_length_b 13.529846
_cell_length_c 12.341191
_cell_angle_alpha 90.000000
_cell_angle_beta 90.000000
_cell_angle_gamma 90.000000
_cell_volume 2352.888893
_symmetry_space_group_name_H-M "P M N A"
_symmetry_group_IT_number 53
_symmetry_cell_setting 'orthorhombic'
loop_
_space_group_symop_operation_xyz
x,y,z
1/2-x,-y,1/2+z
x,-y,-z
1/2-x,y,1/2-z
-x,-y,-z
1/2+x,y,1/2-z
-x,y,z
1/2+x,-y,1/2+z
loop_
_atom_site_type_symbol
_atom_site_label
_atom_site_fract_x
_atom_site_fract_y
_atom_site_fract_z
Si Si1 0.137372 0.083896 0.733799
Si Si2 0.681231 0.809279 0.015936
Si Si3 0.394009 0.355364 0.292314
Si Si4 0.396578 0.883058 0.470841
Si Si5 0.710235 0.400494 0.068281
Si Si6 0.361030 0.138351 0.219242
O O1 0.250000 0.076482 0.750000
O O2 0.132025 0.141872 0.620627
O O3 0.100054 0.134709 0.841578
O O4 0.101829 0.971238 0.739484
O O5 0.792174 0.841965 0.000607
O O6 0.683338 0.691098 0.009479
O O7 0.628939 0.844906 0.908303
O O8 0.500000 0.391138 0.315704
O O9 0.315654 0.383321 0.381815
O O10 0.356415 0.394793 0.175441
O O11 0.396600 0.236151 0.278838
O O12 0.500000 0.848485 0.514173
O O13 0.391298 0.000000 0.500000
O O14 0.703830 0.500000 0.000000
O O15 0.250000 0.137495 0.250000
#
# Coordination Sequence:
#
# PCOD9414119 Si02
#       6
#     8   8   8   8   8   8
#     4   9  18  30  50  78 115 155 191 230 287 355
#     4  10  18  35  56  80 110 153 198 240 294 360
#     4  10  21  39  63  94 120 150 202 255 308 373
#     4  10  20  32  49  80 116 151 193 239 293 358
#     4  10  22  42  64  87 118 159 207 256 315 365
#     4  10  16  32  56  83 114 154 193 233 289 364
#
# _framework density 20.400452000000001
#
# number of rings (size 3 to 8) (size 9 to 14) (size 15 to 20)
#    0.000    2.167    3.333    3.500    0.000    2.000 
#    9.000    3.333    0.000    5.000    0.000    0.000 
#    0.000    0.000    0.000    0.000    0.000    0.000 
#
# Total GULP energy -267590.841425 kJ/mol
# GULP energy per Si atom -5574.809196 kJ/mol
# Density = 2.035402 g / cm^3
# Si number density = 20.400452 Si / 1000 Ang^3
#
#
#
# Elastic Constant Matrix: (Units=GPa)
#
#
# Indices 1 2 3 4 5 6 
#
# 1 81.2313 -2.3910 -1.5884 0.0000 0.0000 0.0000
# 2 -2.3910 88.9381 36.9772 0.0000 0.0000 0.0000
# 3 -1.5884 36.9772 105.6338 0.0000 0.0000 0.0000
# 4 0.0000 0.0000 0.0000 30.5453 0.0000 0.0000
# 5 0.0000 0.0000 0.0000 0.0000 -116.0880 0.0000
# 6 0.0000 0.0000 0.0000 0.0000 0.0000 -2.5098
#
#
#
# Elastic Compliance Matrix: (Units=1/GPa)
#
#
# Indices 1 2 3 4 5 6 
#
# 1 0.012321 0.000298 0.000081 0.000000 0.000000 0.000000
# 2 0.000298 0.013166 -0.004604 0.000000 0.000000 0.000000
# 3 0.000081 -0.004604 0.011080 0.000000 0.000000 0.000000
# 4 0.000000 0.000000 0.000000 0.032738 0.000000 0.000000
# 5 0.000000 0.000000 0.000000 0.000000 -0.008614 0.000000
# 6 0.000000 0.000000 0.000000 0.000000 0.000000 -0.398444
#
#
# Mechanical properties :
#
#
# Convention : Reuss Voigt Hill
#
# Bulk Modulus (GPa) = 35.56795 37.97764 36.77279
# Shear Modulus (GPa) = -15.62839 -1.42347 -8.52593
#
# Velocity S-wave (km/s) = -2.77082 -0.83623 -2.04655
# Velocity P-wave (km/s) = 2.69001 4.21000 3.53272
#
# Compressibility (1/GPa) = 0.02811520
#
# Stress axis : x y z
#
# Youngs Moduli (GPa) = 81.16309 75.95275 90.25570
#
# Poissons Ratio (x) = -0.02260 -0.00732
# Poissons Ratio (y) = -0.02415 0.41557
# Poissons Ratio (z) = -0.00658 0.34971
#
# Static dielectric constant tensor:
#      x y z
#    x 1.811620 0.000000 0.000000 
#    y 0.000000 1.710920 0.000000 
#    z 0.000000 0.000000 1.746640 
# 
# From -- ./inp_files/15961.got.cif
#   From: 2010.05.17/outbox.cif.g08.bks.cpg/sg53_8_cif.got.tgz:15961.got - 2010.06.03 12:45:16.
