data_PCOD9414032
_publ_section_title
;
Structure prediction by ZEFSAII (Michael W. Deem and Ramdas Pophale) SiO2 
 PCOD9414032
Probable space group: P N N A
;
_chemical_formula_sum "Si O2"
_cell_formula_units_Z 40
_cell_length_a 18.000000
_cell_length_b 9.000000
_cell_length_c 12.000000
_cell_angle_alpha 90.000000
_cell_angle_beta 90.000000
_cell_angle_gamma 90.000000
_cell_volume 1944.000000
_symmetry_space_group_name_H-M "P N N A"
_symmetry_group_IT_number 52
_symmetry_cell_setting 'orthorhombic'
loop_
_space_group_symop_operation_xyz
x,y,z
1/2-x,-y,z
x,1/2-y,1/2-z
1/2-x,1/2+y,1/2-z
-x,-y,-z
1/2+x,y,-z
-x,1/2+y,1/2+z
1/2+x,1/2-y,1/2+z
loop_
_atom_site_type_symbol
_atom_site_label
_atom_site_fract_x
_atom_site_fract_y
_atom_site_fract_z
Si Si1 0.677747 0.900887 0.320250
Si Si2 0.419446 0.578893 0.269054
Si Si3 0.322043 0.890347 0.015809
Si Si4 0.173251 0.461259 0.056232
Si Si5 0.935005 0.589920 0.310373
O O1 0.688172 0.750000 0.250000
O O2 0.750000 0.000000 0.294717
O O3 0.667288 0.921658 0.453928
O O4 0.605213 0.976880 0.272041
O O5 0.445079 0.750000 0.250000
O O6 0.353452 0.581473 0.360022
O O7 0.391525 0.529650 0.146758
O O8 0.481941 0.471703 0.319293
O O9 0.315041 0.708651 0.011193
O O10 0.250000 0.000000 0.996580
O O11 0.385970 0.917457 0.922935
O O12 0.250000 0.500000 0.117072
O O13 0.933126 0.750000 0.250000
#
# Coordination Sequence:
#
# PCOD9414032 Si02
#       5
#     8   8   8   8   8
#     4  11  24  41  66  97 137 177 228 282 339 402
#     4  10  24  47  67  96 138 180 228 280 344 412
#     4  11  24  44  71  99 135 175 230 286 340 412
#     4  10  23  43  68 101 129 180 229 286 341 406
#     4  12  24  42  64 100 136 178 221 279 342 413
#
# _framework density 20.576132000000001
#
# number of rings (size 3 to 8) (size 9 to 14) (size 15 to 20)
#    0.000    1.200    2.000    3.000    8.400    2.400 
#    3.600    0.000    0.000    0.000    0.000    0.000 
#    0.000    0.000    0.000    0.000    0.000    0.000 
#
# Total GULP energy -223130.260170 kJ/mol
# GULP energy per Si atom -5578.256504 kJ/mol
# Density = 2.052930 g / cm^3
# Si number density = 20.576132 Si / 1000 Ang^3
#
#
#
# Elastic Constant Matrix: (Units=GPa)
#
#
# Indices 1 2 3 4 5 6 
#
# 1 78.9450 51.8090 38.9024 0.0000 0.0000 0.0000
# 2 51.8090 99.8589 59.9213 0.0000 0.0000 0.0000
# 3 38.9024 59.9213 129.2394 0.0000 0.0000 0.0000
# 4 0.0000 0.0000 0.0000 21.2556 0.0000 0.0000
# 5 0.0000 0.0000 0.0000 0.0000 34.0153 0.0000
# 6 0.0000 0.0000 0.0000 0.0000 0.0000 39.1937
#
#
#
# Elastic Compliance Matrix: (Units=1/GPa)
#
#
# Indices 1 2 3 4 5 6 
#
# 1 0.019451 -0.009114 -0.001629 0.000000 0.000000 0.000000
# 2 -0.009114 0.018145 -0.005669 0.000000 0.000000 0.000000
# 3 -0.001629 -0.005669 0.010857 0.000000 0.000000 0.000000
# 4 0.000000 0.000000 0.000000 0.047046 0.000000 0.000000
# 5 0.000000 0.000000 0.000000 0.000000 0.029399 0.000000
# 6 0.000000 0.000000 0.000000 0.000000 0.000000 0.025514
#
#
# Mechanical properties :
#
#
# Convention : Reuss Voigt Hill
#
# Bulk Modulus (GPa) = 63.99132 67.70097 65.84615
# Shear Modulus (GPa) = 26.53283 29.38694 27.95989
#
# Velocity S-wave (km/s) = 3.59485 3.78326 3.69026
# Velocity P-wave (km/s) = 6.95686 7.21514 7.08717
#
# Compressibility (1/GPa) = 0.01562712
#
# Stress axis : x y z
#
# Youngs Moduli (GPa) = 51.41084 55.11297 92.11030
#
# Poissons Ratio (x) = 0.50230 0.15008
# Poissons Ratio (y) = 0.46856 0.52220
# Poissons Ratio (z) = 0.08377 0.31245
#
# Static dielectric constant tensor:
#      x y z
#    x 1.786410 0.000000 0.000000 
#    y 0.000000 1.902040 0.000000 
#    z 0.000000 0.000000 1.744380 
# 
# From -- ./inp_files/20340.got.cif
#   From: 2010.05.17/outbox.ucp.g08.bks.cvg/sg52_11_cif.got.tgz:20340.got - 2010.06.11 16:30:12.
