data_PCOD9414491
_publ_section_title
;
Structure prediction by ZEFSAII (Michael W. Deem and Ramdas Pophale) SiO2 
 PCOD9414491
Probable space group: P M N A
;
_chemical_formula_sum "Si O2"
_cell_formula_units_Z 52
_cell_length_a 20.011379
_cell_length_b 26.811527
_cell_length_c 5.297146
_cell_angle_alpha 90.000000
_cell_angle_beta 90.000000
_cell_angle_gamma 90.000000
_cell_volume 2842.107558
_symmetry_space_group_name_H-M "P M N A"
_symmetry_group_IT_number 53
_symmetry_cell_setting 'orthorhombic'
loop_
_space_group_symop_operation_xyz
x,y,z
1/2-x,-y,1/2+z
x,-y,-z
1/2-x,y,1/2-z
-x,-y,-z
1/2+x,y,1/2-z
-x,y,z
1/2+x,-y,1/2+z
loop_
_atom_site_type_symbol
_atom_site_label
_atom_site_fract_x
_atom_site_fract_y
_atom_site_fract_z
Si Si1 0.668661 0.794454 0.248561
Si Si2 0.924243 0.370917 0.286228
Si Si3 0.680451 0.549570 0.878181
Si Si4 0.250000 0.626190 0.250000
Si Si5 0.122270 0.683002 0.193470
Si Si6 0.831579 0.029672 0.250308
Si Si7 0.830904 0.855828 0.751820
O O1 0.750000 0.786964 0.250000
O O2 0.632081 0.741486 0.264469
O O3 0.650758 0.827366 0.492378
O O4 0.650432 0.824281 0.994974
O O5 0.874789 0.417959 0.231966
O O6 0.902507 0.342501 0.545015
O O7 0.000000 0.388569 0.319068
O O8 0.920376 0.333870 0.047258
O O9 0.750000 0.532643 0.750000
O O10 0.650108 0.500000 0.000000
O O11 0.708487 0.589765 0.074059
O O12 0.195891 0.661565 0.122003
O O13 0.750000 0.030484 0.250000
O O14 0.854487 0.087011 0.253085
O O15 0.852364 0.000000 0.500000
O O16 0.852273 0.000000 0.000000
O O17 0.750000 0.858042 0.750000
#
# Coordination Sequence:
#
# PCOD9414491 Si02
#       7
#     8   8   8   4   8   8   8
#     4  10  18  29  46  72 100 129 171 230 289 322
#     4  11  25  41  59  84 116 151 185 226 275 339
#     4  11  21  37  62  87 116 144 186 230 282 328
#     4  10  20  34  56  86 110 140 178 234 270 326
#     4  11  21  37  59  80 110 144 187 226 282 332
#     4   9  15  23  35  51  79 129 184 222 258 315
#     4   9  17  26  38  62  97 129 172 233 280 320
#
# _framework density 18.296281
#
# number of rings (size 3 to 8) (size 9 to 14) (size 15 to 20)
#    0.000    1.846    3.077    2.308    0.000    4.000 
#    0.000    0.000    0.000    3.231    0.000    0.000 
#    0.000    0.000    0.000    0.000    0.000  193.846 
#
# Total GULP energy -289790.614443 kJ/mol
# GULP energy per Si atom -5572.896432 kJ/mol
# Density = 1.825464 g / cm^3
# Si number density = 18.296281 Si / 1000 Ang^3
#
#
#
# Elastic Constant Matrix: (Units=GPa)
#
#
# Indices 1 2 3 4 5 6 
#
# 1 50.3504 26.7600 14.3616 0.0000 0.0000 0.0000
# 2 26.7600 137.7492 59.8919 0.0000 0.0000 0.0000
# 3 14.3616 59.8919 130.7273 0.0000 0.0000 0.0000
# 4 0.0000 0.0000 0.0000 9.5733 0.0000 0.0000
# 5 0.0000 0.0000 0.0000 0.0000 4.1577 0.0000
# 6 0.0000 0.0000 0.0000 0.0000 0.0000 15.3338
#
#
#
# Elastic Compliance Matrix: (Units=1/GPa)
#
#
# Indices 1 2 3 4 5 6 
#
# 1 0.022182 -0.004058 -0.000578 0.000000 0.000000 0.000000
# 2 -0.004058 0.009808 -0.004048 0.000000 0.000000 0.000000
# 3 -0.000578 -0.004048 0.009567 0.000000 0.000000 0.000000
# 4 0.000000 0.000000 0.000000 0.104457 0.000000 0.000000
# 5 0.000000 0.000000 0.000000 0.000000 0.240520 0.000000
# 6 0.000000 0.000000 0.000000 0.000000 0.000000 0.065216
#
#
# Mechanical properties :
#
#
# Convention : Reuss Voigt Hill
#
# Bulk Modulus (GPa) = 41.33818 57.87265 49.60542
# Shear Modulus (GPa) = 10.47821 20.33384 15.40602
#
# Velocity S-wave (km/s) = 2.39570 3.33733 2.90492
# Velocity P-wave (km/s) = 5.50412 6.82275 6.19860
#
# Compressibility (1/GPa) = 0.02419071
#
# Stress axis : x y z
#
# Youngs Moduli (GPa) = 45.08083 101.96023 104.52227
#
# Poissons Ratio (x) = 0.41376 0.06039
# Poissons Ratio (y) = 0.18294 0.42306
# Poissons Ratio (z) = 0.02605 0.41269
#
# Static dielectric constant tensor:
#      x y z
#    x 1.695210 0.000000 0.000000 
#    y 0.000000 1.639350 0.000000 
#    z 0.000000 0.000000 1.649770 
# 
# From -- ./inp_files/3002.got.cif
#   From: 2010.05.17/outbox.cif.g08.bks.cpg/sg53_2_cif.got.tgz:3002.got - 2010.06.03 12:45:16.
