data_PCOD9414428
_publ_section_title
;
Structure prediction by ZEFSAII (Michael W. Deem and Ramdas Pophale) SiO2 
 PCOD9414428
Probable space group: P M N A
;
_chemical_formula_sum "Si O2"
_cell_formula_units_Z 56
_cell_length_a 8.531802
_cell_length_b 19.942408
_cell_length_c 18.807044
_cell_angle_alpha 90.000000
_cell_angle_beta 90.000000
_cell_angle_gamma 90.000000
_cell_volume 3199.918417
_symmetry_space_group_name_H-M "P M N A"
_symmetry_group_IT_number 53
_symmetry_cell_setting 'orthorhombic'
loop_
_space_group_symop_operation_xyz
x,y,z
1/2-x,-y,1/2+z
x,-y,-z
1/2-x,y,1/2-z
-x,-y,-z
1/2+x,y,1/2-z
-x,y,z
1/2+x,-y,1/2+z
loop_
_atom_site_type_symbol
_atom_site_label
_atom_site_fract_x
_atom_site_fract_y
_atom_site_fract_z
Si Si1 0.689041 0.942354 0.669114
Si Si2 0.187855 0.088371 0.830822
Si Si3 0.691333 0.572081 0.027353
Si Si4 0.812470 0.204237 0.169773
Si Si5 0.311061 0.640693 0.172551
Si Si6 0.688922 0.221989 0.900283
Si Si7 0.688875 0.708418 0.954379
O O1 0.750000 0.942717 0.750000
O O2 0.500000 0.942250 0.669094
O O3 0.739715 0.869614 0.640441
O O4 0.738762 0.014953 0.639460
O O5 0.250000 0.094424 0.750000
O O6 0.246413 0.151175 0.875565
O O7 0.000000 0.089679 0.828391
O O8 0.500000 0.571182 0.027701
O O9 0.738555 0.633273 0.975828
O O10 0.745799 0.500000 0.000000
O O11 0.739457 0.592762 0.107367
O O12 0.750000 0.211218 0.250000
O O13 0.753539 0.262004 0.118105
O O14 0.000000 0.204965 0.172139
O O15 0.250000 0.622263 0.250000
O O16 0.500000 0.640081 0.173657
O O17 0.261629 0.716534 0.151193
O O18 0.500000 0.219620 0.898354
O O19 0.736661 0.244176 0.979494
O O20 0.500000 0.708639 0.951548
#
# Coordination Sequence:
#
# PCOD9414428 Si02
#       7
#     8   8   8   8   8   8   8
#     4   8  16  29  44  64  89 119 156 197 238 280
#     4  10  18  28  44  66  92 123 160 199 238 279
#     4   8  15  31  54  74  95 128 162 189 228 283
#     4  10  19  33  53  73  94 122 158 199 242 285
#     4   9  17  29  47  71  96 124 158 193 228 271
#     4   9  18  31  45  65  95 127 158 192 232 280
#     4   9  18  33  52  73  96 122 156 196 235 281
#
# _framework density 17.500447000000001
#
# number of rings (size 3 to 8) (size 9 to 14) (size 15 to 20)
#    0.000    3.000    0.000    3.000    0.000    3.429 
#    0.000    3.571    0.000    7.714    0.000    0.000 
#    0.000    0.000    0.000    0.000    0.000    0.000 
#
# Total GULP energy -311847.596707 kJ/mol
# GULP energy per Si atom -5568.707084 kJ/mol
# Density = 1.746061 g / cm^3
# Si number density = 17.500447 Si / 1000 Ang^3
#
#
#
# Elastic Constant Matrix: (Units=GPa)
#
#
# Indices 1 2 3 4 5 6 
#
# 1 11.7044 25.0791 20.1945 0.0000 0.0000 0.0000
# 2 25.0791 164.1423 92.0668 0.0000 0.0000 0.0000
# 3 20.1945 92.0668 99.0553 0.0000 0.0000 0.0000
# 4 0.0000 0.0000 0.0000 22.2994 0.0000 0.0000
# 5 0.0000 0.0000 0.0000 0.0000 23.1466 0.0000
# 6 0.0000 0.0000 0.0000 0.0000 0.0000 17.8489
#
#
#
# Elastic Compliance Matrix: (Units=1/GPa)
#
#
# Indices 1 2 3 4 5 6 
#
# 1 0.141230 -0.011341 -0.018252 0.000000 0.000000 0.000000
# 2 -0.011341 0.013638 -0.010364 0.000000 0.000000 0.000000
# 3 -0.018252 -0.010364 0.023449 0.000000 0.000000 0.000000
# 4 0.000000 0.000000 0.000000 0.044844 0.000000 0.000000
# 5 0.000000 0.000000 0.000000 0.000000 0.043203 0.000000
# 6 0.000000 0.000000 0.000000 0.000000 0.000000 0.056026
#
#
# Mechanical properties :
#
#
# Convention : Reuss Voigt Hill
#
# Bulk Modulus (GPa) = 10.16223 61.06476 35.61350
# Shear Modulus (GPa) = 11.49150 21.82973 16.66062
#
# Velocity S-wave (km/s) = 2.56528 3.53566 3.08881
# Velocity P-wave (km/s) = 3.82017 7.18588 5.75459
#
# Compressibility (1/GPa) = 0.09840359
#
# Stress axis : x y z
#
# Youngs Moduli (GPa) = 7.08067 73.32416 42.64572
#
# Poissons Ratio (x) = 0.83156 0.77836
# Poissons Ratio (y) = 0.08030 0.44197
# Poissons Ratio (z) = 0.12923 0.75992
#
# Static dielectric constant tensor:
#      x y z
#    x 1.607040 0.000000 0.000000 
#    y 0.000000 1.624900 0.000000 
#    z 0.000000 0.000000 1.568800 
# 
# From -- ./inp_files/20589.got.cif
#   From: 2010.05.17/outbox.cif.g08.bks.cpg/sg53_11_cif.got.tgz:20589.got - 2010.06.03 12:45:16.
