data_PCOD9414405
_publ_section_title
;
Structure prediction by ZEFSAII (Michael W. Deem and Ramdas Pophale) SiO2 
 PCOD9414405
Probable space group: P M N A
;
_chemical_formula_sum "Si O2"
_cell_formula_units_Z 48
_cell_length_a 7.308156
_cell_length_b 10.519580
_cell_length_c 28.695672
_cell_angle_alpha 90.000000
_cell_angle_beta 90.000000
_cell_angle_gamma 90.000000
_cell_volume 2206.086868
_symmetry_space_group_name_H-M "P M N A"
_symmetry_group_IT_number 53
_symmetry_cell_setting 'orthorhombic'
loop_
_space_group_symop_operation_xyz
x,y,z
1/2-x,-y,1/2+z
x,-y,-z
1/2-x,y,1/2-z
-x,-y,-z
1/2+x,y,1/2-z
-x,y,z
1/2+x,-y,1/2+z
loop_
_atom_site_type_symbol
_atom_site_label
_atom_site_fract_x
_atom_site_fract_y
_atom_site_fract_z
Si Si1 0.723916 0.197408 0.631897
Si Si2 0.217180 0.426437 0.802962
Si Si3 0.277564 0.328567 0.541346
Si Si4 0.781927 0.030276 0.196513
Si Si5 0.222230 0.619059 0.939099
Si Si6 0.223461 0.697806 0.837249
O O1 0.500000 0.195245 0.632227
O O2 0.784601 0.319820 0.661701
O O3 0.780481 0.223748 0.578760
O O4 0.786261 0.072080 0.659008
O O5 0.250000 0.387918 0.750000
O O6 0.286524 0.568665 0.812225
O O7 0.000000 0.432354 0.810722
O O8 0.500000 0.328040 0.540912
O O9 0.218380 0.317892 0.487714
O O10 0.224504 0.470174 0.558804
O O11 0.750000 0.991981 0.250000
O O12 0.712709 0.172443 0.186466
O O13 0.000000 0.034660 0.190582
O O14 0.278882 0.685111 0.891340
O O15 0.000000 0.619407 0.938926
O O16 0.000000 0.698712 0.835867
#
# Coordination Sequence:
#
# PCOD9414405 Si02
#       6
#     8   8   8   8   8   8
#     4   9  16  27  41  60  85 113 142 174 213 252
#     4  10  18  28  43  61  83 109 142 180 211 246
#     4   8  12  20  37  60  85 112 139 167 207 260
#     4  10  20  32  45  61  87 119 146 176 215 254
#     4   8  12  20  37  60  85 112 139 167 207 260
#     4   9  16  27  41  60  85 113 142 174 213 252
#
# _framework density 21.757982999999999
#
# number of rings (size 3 to 8) (size 9 to 14) (size 15 to 20)
#    0.000    3.000    1.667    2.000    0.000    0.000 
#    0.000    0.833    0.000    5.000    0.000    0.000 
#    0.000    8.000    0.000    0.000    0.000    0.000 
#
# Total GULP energy -267958.461980 kJ/mol
# GULP energy per Si atom -5582.467958 kJ/mol
# Density = 2.170846 g / cm^3
# Si number density = 21.757983 Si / 1000 Ang^3
#
#
#
# Elastic Constant Matrix: (Units=GPa)
#
#
# Indices 1 2 3 4 5 6 
#
# 1 88.2224 3.7760 -10.3662 0.0000 0.0000 0.0000
# 2 3.7760 37.8843 -24.0792 0.0000 0.0000 0.0000
# 3 -10.3662 -24.0792 66.5812 0.0000 0.0000 0.0000
# 4 0.0000 0.0000 0.0000 38.8719 0.0000 0.0000
# 5 0.0000 0.0000 0.0000 0.0000 2.4953 0.0000
# 6 0.0000 0.0000 0.0000 0.0000 0.0000 -18.0741
#
#
#
# Elastic Compliance Matrix: (Units=1/GPa)
#
#
# Indices 1 2 3 4 5 6 
#
# 1 0.011546 -0.000011 0.001794 0.000000 0.000000 0.000000
# 2 -0.000011 0.034275 0.012394 0.000000 0.000000 0.000000
# 3 0.001794 0.012394 0.019781 0.000000 0.000000 0.000000
# 4 0.000000 0.000000 0.000000 0.025726 0.000000 0.000000
# 5 0.000000 0.000000 0.000000 0.000000 0.400749 0.000000
# 6 0.000000 0.000000 0.000000 0.000000 0.000000 -0.055328
#
#
# Mechanical properties :
#
#
# Convention : Reuss Voigt Hill
#
# Bulk Modulus (GPa) = 10.64332 14.59434 12.61883
# Shear Modulus (GPa) = 11.37105 19.54910 15.46008
#
# Velocity S-wave (km/s) = 2.28856 3.00072 2.66850
# Velocity P-wave (km/s) = 3.44755 4.32757 3.91238
#
# Compressibility (1/GPa) = 0.09395568
#
# Stress axis : x y z
#
# Youngs Moduli (GPa) = 86.60843 29.17597 50.55407
#
# Poissons Ratio (x) = 0.00031 -0.09068
# Poissons Ratio (y) = 0.00093 -0.62656
# Poissons Ratio (z) = -0.15536 -0.36160
#
# Static dielectric constant tensor:
#      x y z
#    x 1.902980 0.000000 0.000000 
#    y 0.000000 1.759660 0.000000 
#    z 0.000000 0.000000 1.770940 
# 
# From -- ./inp_files/18369.got.cif
#   From: 2010.05.17/outbox.cif.g08.bks.cpg/sg53_10_cif.got.tgz:18369.got - 2010.06.03 12:45:16.
