data_PCOD9414382
_publ_section_title
;
Structure prediction by ZEFSAII (Michael W. Deem and Ramdas Pophale) SiO2 
 PCOD9414382
Probable space group: P M N A
;
_chemical_formula_sum "Si O2"
_cell_formula_units_Z 64
_cell_length_a 8.721670
_cell_length_b 32.697509
_cell_length_c 14.400855
_cell_angle_alpha 90.000000
_cell_angle_beta 90.000000
_cell_angle_gamma 90.000000
_cell_volume 4106.790946
_symmetry_space_group_name_H-M "P M N A"
_symmetry_group_IT_number 53
_symmetry_cell_setting 'orthorhombic'
loop_
_space_group_symop_operation_xyz
x,y,z
1/2-x,-y,1/2+z
x,-y,-z
1/2-x,y,1/2-z
-x,-y,-z
1/2+x,y,1/2-z
-x,y,z
1/2+x,-y,1/2+z
loop_
_atom_site_type_symbol
_atom_site_label
_atom_site_fract_x
_atom_site_fract_y
_atom_site_fract_z
Si Si1 0.316893 0.933884 0.647703
Si Si2 0.815240 0.480474 0.147500
Si Si3 0.184510 0.730179 0.353991
Si Si4 0.816077 0.972597 0.146776
Si Si5 0.814551 0.819601 0.354299
Si Si6 0.815783 0.359756 0.645245
Si Si7 0.816353 0.101782 0.528871
Si Si8 0.814862 0.436854 0.960234
O O1 0.250000 0.928078 0.750000
O O2 0.500000 0.930850 0.649545
O O3 0.247031 0.902679 0.574538
O O4 0.278196 0.980770 0.618159
O O5 0.750000 0.473365 0.250000
O O6 0.771278 0.525199 0.107105
O O7 0.000000 0.479579 0.152694
O O8 0.768853 0.448977 0.065495
O O9 0.250000 0.730462 0.250000
O O10 0.230898 0.774595 0.393049
O O11 0.230062 0.685618 0.391946
O O12 0.000000 0.730144 0.350694
O O13 0.750000 0.967267 0.250000
O O14 0.745230 0.937684 0.083519
O O15 0.000000 0.968775 0.147182
O O16 0.750000 0.824088 0.250000
O O17 0.764617 0.857205 0.418233
O O18 0.000000 0.820785 0.348420
O O19 0.750000 0.364376 0.750000
O O20 0.754746 0.395582 0.580029
O O21 0.000000 0.361790 0.650834
O O22 0.000000 0.101092 0.528006
O O23 0.000000 0.434337 0.958745
#
# Coordination Sequence:
#
# PCOD9414382 Si02
#       8
#     8   8   8   8   8   8   8   8
#     4  10  21  36  51  66  87 116 150 187 224 261
#     4   9  18  31  45  61  86 120 152 184 223 262
#     4   8  15  28  43  61  88 118 146 176 213 258
#     4  10  20  33  48  67  92 121 150 181 218 259
#     4   9  18  31  46  66  93 122 148 176 213 259
#     4  10  18  27  43  66  90 118 150 183 219 259
#     4  11  21  31  47  70  93 119 150 182 219 262
#     4   9  18  31  44  62  89 118 149 185 223 262
#
# _framework density 15.583944000000001
#
# number of rings (size 3 to 8) (size 9 to 14) (size 15 to 20)
#    0.000    2.500    0.000    3.375    0.000    7.500 
#    0.000    1.250    0.000    0.000    0.000    0.875 
#    0.000    2.000    0.000    0.000    0.000    0.000 
#
# Total GULP energy -356646.375667 kJ/mol
# GULP energy per Si atom -5572.599620 kJ/mol
# Density = 1.554847 g / cm^3
# Si number density = 15.583944 Si / 1000 Ang^3
#
#
#
# Elastic Constant Matrix: (Units=GPa)
#
#
# Indices 1 2 3 4 5 6 
#
# 1 25.8002 36.2464 26.5428 0.0000 0.0000 0.0000
# 2 36.2464 140.7948 81.7474 0.0000 0.0000 0.0000
# 3 26.5428 81.7474 97.3560 0.0000 0.0000 0.0000
# 4 0.0000 0.0000 0.0000 22.1298 0.0000 0.0000
# 5 0.0000 0.0000 0.0000 0.0000 26.1892 0.0000
# 6 0.0000 0.0000 0.0000 0.0000 0.0000 7.7765
#
#
#
# Elastic Compliance Matrix: (Units=1/GPa)
#
#
# Indices 1 2 3 4 5 6 
#
# 1 0.063039 -0.012196 -0.006946 0.000000 0.000000 0.000000
# 2 -0.012196 0.016219 -0.010293 0.000000 0.000000 0.000000
# 3 -0.006946 -0.010293 0.020809 0.000000 0.000000 0.000000
# 4 0.000000 0.000000 0.000000 0.045188 0.000000 0.000000
# 5 0.000000 0.000000 0.000000 0.000000 0.038184 0.000000
# 6 0.000000 0.000000 0.000000 0.000000 0.000000 0.128593
#
#
# Mechanical properties :
#
#
# Convention : Reuss Voigt Hill
#
# Bulk Modulus (GPa) = 24.27451 61.44712 42.86081
# Shear Modulus (GPa) = 12.99938 19.18007 16.08973
#
# Velocity S-wave (km/s) = 2.89130 3.51202 3.21667
# Velocity P-wave (km/s) = 5.17268 7.48072 6.43108
#
# Compressibility (1/GPa) = 0.04119548
#
# Stress axis : x y z
#
# Youngs Moduli (GPa) = 15.86313 61.65689 48.05711
#
# Poissons Ratio (x) = 0.75196 0.33382
# Poissons Ratio (y) = 0.19346 0.49468
# Poissons Ratio (z) = 0.11019 0.63466
#
# Static dielectric constant tensor:
#      x y z
#    x 1.524850 0.000000 0.000000 
#    y 0.000000 1.547360 0.000000 
#    z 0.000000 0.000000 1.490070 
# 
# From -- ./inp_files/21071.got.cif
#   From: 2010.05.17/outbox.cif.g08.bks.cpg/sg53_11_cif.got.tgz:21071.got - 2010.06.03 12:45:16.
