data_PCOD9414249
_publ_section_title
;
Structure prediction by ZEFSAII (Michael W. Deem and Ramdas Pophale) SiO2 
 PCOD9414249
Probable space group: P M N A
;
_chemical_formula_sum "Si O2"
_cell_formula_units_Z 64
_cell_length_a 27.752709
_cell_length_b 10.022861
_cell_length_c 11.352752
_cell_angle_alpha 90.000000
_cell_angle_beta 90.000000
_cell_angle_gamma 90.000000
_cell_volume 3157.899033
_symmetry_space_group_name_H-M "P M N A"
_symmetry_group_IT_number 53
_symmetry_cell_setting 'orthorhombic'
loop_
_space_group_symop_operation_xyz
x,y,z
1/2-x,-y,1/2+z
x,-y,-z
1/2-x,y,1/2-z
-x,-y,-z
1/2+x,y,1/2-z
-x,y,z
1/2+x,-y,1/2+z
loop_
_atom_site_type_symbol
_atom_site_label
_atom_site_fract_x
_atom_site_fract_y
_atom_site_fract_z
Si Si1 0.945962 0.491977 0.290711
Si Si2 0.291416 0.156065 0.003444
Si Si3 0.945620 0.779665 0.375821
Si Si4 0.153929 0.182475 0.742042
Si Si5 0.554112 0.814878 0.857894
Si Si6 0.147395 0.545377 0.130671
Si Si7 0.216038 0.309678 0.138267
Si Si8 0.349263 0.113901 0.245789
O O1 0.943826 0.617642 0.379223
O O2 0.943499 0.345320 0.344604
O O3 0.898630 0.508041 0.210678
O O4 0.000000 0.502518 0.234139
O O5 0.248135 0.257971 0.030694
O O6 0.327307 0.154216 0.117021
O O7 0.318097 0.198867 0.883099
O O8 0.275363 0.000000 0.000000
O O9 0.902714 0.820260 0.290760
O O10 0.937027 0.840710 0.504254
O O11 0.000000 0.814358 0.338492
O O12 0.159944 0.302475 0.834084
O O13 0.167682 0.033704 0.780721
O O14 0.500000 0.857650 0.829162
O O15 0.594036 0.877232 0.774880
O O16 0.195669 0.457906 0.146892
O O17 0.132818 0.500000 0.000000
O O18 0.250000 0.284850 0.250000
O O19 0.169778 0.216564 0.158173
#
# Coordination Sequence:
#
# PCOD9414249 Si02
#       8
#     8   8   8   8   8   8   8   8
#     4   9  18  34  55  81 116 156 197 239 288 351
#     4   9  19  37  62  87 113 153 198 241 302 365
#     4   9  17  29  51  88 126 159 194 237 291 354
#     4  10  21  37  59  86 122 157 193 242 299 359
#     4  10  17  28  54  89 123 157 192 237 293 357
#     4  11  24  40  58  84 111 145 197 248 296 348
#     4  10  22  40  59  80 112 148 189 241 292 356
#     4  10  19  36  57  88 121 156 191 232 294 366
#
# _framework density 20.266639000000001
#
# number of rings (size 3 to 8) (size 9 to 14) (size 15 to 20)
#    0.000    2.250    2.500    0.375    0.000    4.250 
#    0.000    6.250    0.000    0.000    0.000    1.750 
#    0.000    0.000    0.000    0.000    0.000    0.000 
#
# Total GULP energy -356750.966936 kJ/mol
# GULP energy per Si atom -5574.233858 kJ/mol
# Density = 2.022051 g / cm^3
# Si number density = 20.266639 Si / 1000 Ang^3
#
#
#
# Elastic Constant Matrix: (Units=GPa)
#
#
# Indices 1 2 3 4 5 6 
#
# 1 88.9493 27.1260 29.1440 0.0000 0.0000 0.0000
# 2 27.1260 106.0594 21.6081 0.0000 0.0000 0.0000
# 3 29.1440 21.6081 47.9252 0.0000 0.0000 0.0000
# 4 0.0000 0.0000 0.0000 17.6888 0.0000 0.0000
# 5 0.0000 0.0000 0.0000 0.0000 21.0136 0.0000
# 6 0.0000 0.0000 0.0000 0.0000 0.0000 -5.3016
#
#
#
# Elastic Compliance Matrix: (Units=1/GPa)
#
#
# Indices 1 2 3 4 5 6 
#
# 1 0.014452 -0.002098 -0.007842 0.000000 0.000000 0.000000
# 2 -0.002098 0.010687 -0.003542 0.000000 0.000000 0.000000
# 3 -0.007842 -0.003542 0.027232 0.000000 0.000000 0.000000
# 4 0.000000 0.000000 0.000000 0.056533 0.000000 0.000000
# 5 0.000000 0.000000 0.000000 0.000000 0.047588 0.000000
# 6 0.000000 0.000000 0.000000 0.000000 0.000000 -0.188622
#
#
# Mechanical properties :
#
#
# Convention : Reuss Voigt Hill
#
# Bulk Modulus (GPa) = 39.36278 44.29890 41.83084
# Shear Modulus (GPa) = 1512.86686 17.68387 765.27536
#
# Velocity S-wave (km/s) = 27.35145 2.95712 19.45310
# Velocity P-wave (km/s) = 31.88940 5.79352 22.91832
#
# Compressibility (1/GPa) = 0.02540471
#
# Stress axis : x y z
#
# Youngs Moduli (GPa) = 69.19561 93.57071 36.72159
#
# Poissons Ratio (x) = 0.19636 0.28798
# Poissons Ratio (y) = 0.14521 0.13008
# Poissons Ratio (z) = 0.54265 0.33146
#
# Static dielectric constant tensor:
#      x y z
#    x 1.740150 0.000000 0.000000 
#    y 0.000000 1.743770 0.000000 
#    z 0.000000 0.000000 1.716830 
# 
# From -- ./inp_files/19018.got.cif
#   From: 2010.05.17/outbox.cif.g08.bks.cpg/sg53_10_cif.got.tgz:19018.got - 2010.06.03 12:45:16.
