data_PCOD9414389
_publ_section_title
;
Structure prediction by ZEFSAII (Michael W. Deem and Ramdas Pophale) SiO2 
 PCOD9414389
Probable space group: P M N A
;
_chemical_formula_sum "Si O2"
_cell_formula_units_Z 64
_cell_length_a 14.083954
_cell_length_b 15.772679
_cell_length_c 12.353051
_cell_angle_alpha 90.000000
_cell_angle_beta 90.000000
_cell_angle_gamma 90.000000
_cell_volume 2744.127570
_symmetry_space_group_name_H-M "P M N A"
_symmetry_group_IT_number 53
_symmetry_cell_setting 'orthorhombic'
loop_
_space_group_symop_operation_xyz
x,y,z
1/2-x,-y,1/2+z
x,-y,-z
1/2-x,y,1/2-z
-x,-y,-z
1/2+x,y,1/2-z
-x,y,z
1/2+x,-y,1/2+z
loop_
_atom_site_type_symbol
_atom_site_label
_atom_site_fract_x
_atom_site_fract_y
_atom_site_fract_z
Si Si1 0.385173 0.370586 0.417950
Si Si2 0.390923 0.786589 0.990259
Si Si3 0.897446 0.041933 0.617910
Si Si4 0.111822 0.172966 0.863355
Si Si5 0.115137 0.689439 0.314828
Si Si6 0.615388 0.554811 0.348800
Si Si7 0.197489 0.806319 0.899415
Si Si8 0.187723 0.008141 0.132786
O O1 0.500000 0.362704 0.413597
O O2 0.360140 0.389358 0.544599
O O3 0.354498 0.457707 0.360205
O O4 0.341703 0.285342 0.367662
O O5 0.500000 0.780014 0.951974
O O6 0.390165 0.859843 0.083012
O O7 0.358126 0.706038 0.061375
O O8 0.312111 0.806709 0.901487
O O9 0.000000 0.024124 0.669517
O O10 0.903403 0.000000 0.500000
O O11 0.798858 0.005223 0.660199
O O12 0.143922 0.238278 0.771593
O O13 0.000000 0.186074 0.882440
O O14 0.129934 0.075375 0.830811
O O15 0.166829 0.187362 0.974376
O O16 0.144099 0.601737 0.260583
O O17 0.000000 0.693482 0.316748
O O18 0.500000 0.552758 0.350793
O O19 0.160329 0.893781 0.846564
O O20 0.182453 0.000000 0.000000
#
# Coordination Sequence:
#
# PCOD9414389 Si02
#       8
#     8   8   8   8   8   8   8   8
#     4   9  16  26  43  64  88 118 149 188 234 282
#     4  10  19  29  43  64  93 128 160 197 239 278
#     4   9  14  26  42  55  81 125 166 201 231 259
#     4  10  18  28  39  57  91 130 157 185 229 281
#     4   9  17  29  44  63  92 126 157 189 235 293
#     4   8  14  27  43  60  86 117 146 186 236 285
#     4  11  18  27  41  64  93 120 158 193 224 277
#     4   9  17  27  36  58  87 124 160 187 224 269
#
# _framework density 23.32253
#
# number of rings (size 3 to 8) (size 9 to 14) (size 15 to 20)
#    0.000    2.625    5.000    1.125    0.000    3.250 
#    0.000    0.000    0.000    0.000    0.000    1.750 
#    0.000   10.000    0.000   24.875    0.000    0.000 
#
# Total GULP energy -357354.609654 kJ/mol
# GULP energy per Si atom -5583.665776 kJ/mol
# Density = 2.326945 g / cm^3
# Si number density = 23.322530 Si / 1000 Ang^3
#
#
#
# Elastic Constant Matrix: (Units=GPa)
#
#
# Indices 1 2 3 4 5 6 
#
# 1 101.6681 18.4869 -4.0383 0.0000 0.0000 0.0000
# 2 18.4869 141.8054 7.8448 0.0000 0.0000 0.0000
# 3 -4.0383 7.8448 17.3415 0.0000 0.0000 0.0000
# 4 0.0000 0.0000 0.0000 29.9125 0.0000 0.0000
# 5 0.0000 0.0000 0.0000 0.0000 19.9121 0.0000
# 6 0.0000 0.0000 0.0000 0.0000 0.0000 27.0944
#
#
#
# Elastic Compliance Matrix: (Units=1/GPa)
#
#
# Indices 1 2 3 4 5 6 
#
# 1 0.010231 -0.001503 0.003062 0.000000 0.000000 0.000000
# 2 -0.001503 0.007454 -0.003722 0.000000 0.000000 0.000000
# 3 0.003062 -0.003722 0.060062 0.000000 0.000000 0.000000
# 4 0.000000 0.000000 0.000000 0.033431 0.000000 0.000000
# 5 0.000000 0.000000 0.000000 0.000000 0.050221 0.000000
# 6 0.000000 0.000000 0.000000 0.000000 0.000000 0.036908
#
#
# Mechanical properties :
#
#
# Convention : Reuss Voigt Hill
#
# Bulk Modulus (GPa) = 13.61999 33.93353 23.77676
# Shear Modulus (GPa) = 22.01620 31.28524 26.65072
#
# Velocity S-wave (km/s) = 3.07577 3.66651 3.38406
# Velocity P-wave (km/s) = 4.29725 5.70137 5.04837
#
# Compressibility (1/GPa) = 0.07342147
#
# Stress axis : x y z
#
# Youngs Moduli (GPa) = 97.74312 134.15993 16.64942
#
# Poissons Ratio (x) = 0.20167 -0.05099
# Poissons Ratio (y) = 0.14693 0.06197
# Poissons Ratio (z) = -0.29933 0.49934
#
# Static dielectric constant tensor:
#      x y z
#    x 1.862100 0.000000 0.000000 
#    y 0.000000 2.027990 0.000000 
#    z 0.000000 0.000000 1.893840 
# 
# From -- ./inp_files/28643.got.cif
#   From: 2010.05.17/outbox.cif.g08.bks.cpg/sg53_15_cif.got.tgz:28643.got - 2010.06.03 12:45:16.
