data_PCOD9414610
_publ_section_title
;
Structure prediction by ZEFSAII (Michael W. Deem and Ramdas Pophale) SiO2 
 PCOD9414610
Probable space group: P M N A
;
_chemical_formula_sum "Si O2"
_cell_formula_units_Z 56
_cell_length_a 14.716425
_cell_length_b 9.686880
_cell_length_c 21.916432
_cell_angle_alpha 90.000000
_cell_angle_beta 90.000000
_cell_angle_gamma 90.000000
_cell_volume 3124.324206
_symmetry_space_group_name_H-M "P M N A"
_symmetry_group_IT_number 53
_symmetry_cell_setting 'orthorhombic'
loop_
_space_group_symop_operation_xyz
x,y,z
1/2-x,-y,1/2+z
x,-y,-z
1/2-x,y,1/2-z
-x,-y,-z
1/2+x,y,1/2-z
-x,y,z
1/2+x,-y,1/2+z
loop_
_atom_site_type_symbol
_atom_site_label
_atom_site_fract_x
_atom_site_fract_y
_atom_site_fract_z
Si Si1 0.600362 0.836001 0.015236
Si Si2 0.891544 0.559028 0.113958
Si Si3 0.702007 0.223127 0.527148
Si Si4 0.606689 0.763415 0.281644
Si Si5 0.606123 0.237144 0.402577
Si Si6 0.600613 0.118316 0.843626
Si Si7 0.212477 0.014570 0.860207
O O1 0.500000 0.789939 0.992255
O O2 0.696662 0.768443 0.997728
O O3 0.599522 0.819441 0.088659
O O4 0.606116 0.000000 0.000000
O O5 0.830533 0.645591 0.066609
O O6 0.873666 0.624769 0.180670
O O7 0.873433 0.397214 0.110112
O O8 0.000000 0.579405 0.100017
O O9 0.631156 0.206958 0.472792
O O10 0.703301 0.094655 0.574546
O O11 0.500000 0.791974 0.292175
O O12 0.621012 0.770262 0.209135
O O13 0.664077 0.885181 0.312094
O O14 0.500000 0.213015 0.391669
O O15 0.665110 0.131541 0.363577
O O16 0.500000 0.060498 0.832131
O O17 0.681386 0.008845 0.844371
#
# Coordination Sequence:
#
# PCOD9414610 Si02
#       7
#     8   8   8   8   8   8   8
#     4   9  17  30  49  76 104 128 163 212 261 303
#     4   9  19  33  49  72 103 138 172 208 253 305
#     4  10  18  30  49  73 101 138 178 212 250 303
#     4   9  17  31  51  74  98 128 169 211 250 299
#     4  11  21  32  48  73 107 141 169 206 260 313
#     4   9  17  30  51  74  97 128 165 207 251 296
#     4  10  19  30  48  75 104 132 169 213 256 302
#
# _framework density 17.923876
#
# number of rings (size 3 to 8) (size 9 to 14) (size 15 to 20)
#    0.000    2.429    0.000    3.857    0.000    3.429 
#    0.000    0.000    0.000   12.857    0.000    8.000 
#    0.000    0.000    0.000    0.000    0.000    0.000 
#
# Total GULP energy -311960.130891 kJ/mol
# GULP energy per Si atom -5570.716623 kJ/mol
# Density = 1.788308 g / cm^3
# Si number density = 17.923876 Si / 1000 Ang^3
#
#
#
# Elastic Constant Matrix: (Units=GPa)
#
#
# Indices 1 2 3 4 5 6 
#
# 1 87.9880 54.9143 -2.0096 0.0000 0.0000 0.0000
# 2 54.9143 79.2407 9.7542 0.0000 0.0000 0.0000
# 3 -2.0096 9.7542 47.8158 0.0000 0.0000 0.0000
# 4 0.0000 0.0000 0.0000 5.7537 0.0000 0.0000
# 5 0.0000 0.0000 0.0000 0.0000 19.3514 0.0000
# 6 0.0000 0.0000 0.0000 0.0000 0.0000 13.7059
#
#
#
# Elastic Compliance Matrix: (Units=1/GPa)
#
#
# Indices 1 2 3 4 5 6 
#
# 1 0.020712 -0.014833 0.003896 0.000000 0.000000 0.000000
# 2 -0.014833 0.023568 -0.005431 0.000000 0.000000 0.000000
# 3 0.003896 -0.005431 0.022185 0.000000 0.000000 0.000000
# 4 0.000000 0.000000 0.000000 0.173802 0.000000 0.000000
# 5 0.000000 0.000000 0.000000 0.000000 0.051676 0.000000
# 6 0.000000 0.000000 0.000000 0.000000 0.000000 0.072961
#
#
# Mechanical properties :
#
#
# Convention : Reuss Voigt Hill
#
# Bulk Modulus (GPa) = 29.64796 37.81802 33.73299
# Shear Modulus (GPa) = 12.22846 17.92123 15.07485
#
# Velocity S-wave (km/s) = 2.61481 3.16547 2.90323
# Velocity P-wave (km/s) = 5.06885 5.87413 5.48628
#
# Compressibility (1/GPa) = 0.03372913
#
# Stress axis : x y z
#
# Youngs Moduli (GPa) = 48.28227 42.43114 45.07498
#
# Poissons Ratio (x) = 0.62937 -0.17563
# Poissons Ratio (y) = 0.71616 0.24481
# Poissons Ratio (z) = -0.18812 0.23045
#
# Static dielectric constant tensor:
#      x y z
#    x 1.668270 0.000000 0.000000 
#    y 0.000000 1.574580 0.000000 
#    z 0.000000 0.000000 1.647620 
# 
# From -- ./inp_files/32435.got.cif
#   From: 2010.05.17/outbox.cif.g08.bks.cpg/sg53_17_cif.got.tgz:32435.got - 2010.06.03 12:45:16.
