data_PCOD9414865
_publ_section_title
;
Structure prediction by ZEFSAII (Michael W. Deem and Ramdas Pophale) SiO2 
 PCOD9414865
Probable space group: P M N A
;
_chemical_formula_sum "Si O2"
_cell_formula_units_Z 56
_cell_length_a 8.562935
_cell_length_b 15.688216
_cell_length_c 23.322518
_cell_angle_alpha 90.000000
_cell_angle_beta 90.000000
_cell_angle_gamma 90.000000
_cell_volume 3133.081156
_symmetry_space_group_name_H-M "P M N A"
_symmetry_group_IT_number 53
_symmetry_cell_setting 'orthorhombic'
loop_
_space_group_symop_operation_xyz
x,y,z
1/2-x,-y,1/2+z
x,-y,-z
1/2-x,y,1/2-z
-x,-y,-z
1/2+x,y,1/2-z
-x,y,z
1/2+x,-y,1/2+z
loop_
_atom_site_type_symbol
_atom_site_label
_atom_site_fract_x
_atom_site_fract_y
_atom_site_fract_z
Si Si1 0.313086 0.808961 0.684761
Si Si2 0.186802 0.832119 0.184738
Si Si3 0.313208 0.400556 0.511068
Si Si4 0.813126 0.988994 0.684723
Si Si5 0.313592 0.654988 0.892061
Si Si6 0.686228 0.507151 0.687617
Si Si7 0.185752 0.339870 0.632376
O O1 0.250000 0.798782 0.750000
O O2 0.500000 0.808210 0.686778
O O3 0.253100 0.900189 0.661201
O O4 0.249843 0.733325 0.645384
O O5 0.250000 0.823140 0.250000
O O6 0.247531 0.752100 0.148924
O O7 0.000000 0.834193 0.186538
O O8 0.250545 0.921950 0.160231
O O9 0.272959 0.500000 0.500000
O O10 0.500000 0.395670 0.518863
O O11 0.260616 0.349037 0.455058
O O12 0.230583 0.366217 0.567878
O O13 0.750000 0.989734 0.750000
O O14 0.000000 0.987778 0.684661
O O15 0.500000 0.658374 0.895806
O O16 0.261275 0.569302 0.859223
O O17 0.750000 0.531300 0.750000
O O18 0.500000 0.515169 0.685668
O O19 0.736877 0.411203 0.673002
O O20 0.000000 0.341247 0.640154
#
# Coordination Sequence:
#
# PCOD9414865 Si02
#       7
#     8   8   8   8   8   8   8
#     4  11  21  36  57  85 119 154 191 234 286 342
#     4  11  21  36  57  85 119 154 191 234 286 342
#     4  11  23  41  63  84 110 147 194 240 284 335
#     4  10  18  32  54  83 116 151 190 232 281 340
#     4  12  24  39  59  84 113 149 191 237 284 336
#     4  12  24  39  56  81 114 150 186 230 284 342
#     4  12  24  39  59  84 113 149 191 237 284 336
#
# _framework density 17.87378
#
# number of rings (size 3 to 8) (size 9 to 14) (size 15 to 20)
#    0.000    0.714    1.429   10.714    0.000    0.571 
#    0.000    0.000    0.000    0.857    0.000    6.000 
#    0.000    0.000    0.000    0.000    0.000    0.000 
#
# Total GULP energy -313190.175350 kJ/mol
# GULP energy per Si atom -5592.681703 kJ/mol
# Density = 1.783310 g / cm^3
# Si number density = 17.873780 Si / 1000 Ang^3
#
#
#
# Elastic Constant Matrix: (Units=GPa)
#
#
# Indices 1 2 3 4 5 6 
#
# 1 105.2977 16.2594 -2.6671 0.0000 0.0000 0.0000
# 2 16.2594 108.9589 4.1570 0.0000 0.0000 0.0000
# 3 -2.6671 4.1570 51.2323 0.0000 0.0000 0.0000
# 4 0.0000 0.0000 0.0000 7.3943 0.0000 0.0000
# 5 0.0000 0.0000 0.0000 0.0000 4.2559 0.0000
# 6 0.0000 0.0000 0.0000 0.0000 0.0000 35.4230
#
#
#
# Elastic Compliance Matrix: (Units=1/GPa)
#
#
# Indices 1 2 3 4 5 6 
#
# 1 0.009741 -0.001478 0.000627 0.000000 0.000000 0.000000
# 2 -0.001478 0.009430 -0.000842 0.000000 0.000000 0.000000
# 3 0.000627 -0.000842 0.019620 0.000000 0.000000 0.000000
# 4 0.000000 0.000000 0.000000 0.135240 0.000000 0.000000
# 5 0.000000 0.000000 0.000000 0.000000 0.234971 0.000000
# 6 0.000000 0.000000 0.000000 0.000000 0.000000 0.028230
#
#
# Mechanical properties :
#
#
# Convention : Reuss Voigt Hill
#
# Bulk Modulus (GPa) = 28.24383 33.44306 30.84344
# Shear Modulus (GPa) = 11.05169 25.93059 18.49114
#
# Velocity S-wave (km/s) = 2.48930 3.81302 3.21992
# Velocity P-wave (km/s) = 4.90900 6.17550 5.57831
#
# Compressibility (1/GPa) = 0.03540596
#
# Stress axis : x y z
#
# Youngs Moduli (GPa) = 102.65976 106.04027 50.96863
#
# Poissons Ratio (x) = 0.15668 -0.03196
# Poissons Ratio (y) = 0.15168 0.04292
# Poissons Ratio (z) = -0.06437 0.08930
#
# Static dielectric constant tensor:
#      x y z
#    x 1.590430 0.000000 0.000000 
#    y 0.000000 1.632920 0.000000 
#    z 0.000000 0.000000 1.542190 
# 
# From -- ./inp_files/30861.got.cif
#   From: 2010.05.17/outbox.cif.g08.bks.cpg/sg53_16_cif.got.tgz:30861.got - 2010.06.03 12:45:16.
