data_PCOD9414248
_publ_section_title
;
Structure prediction by ZEFSAII (Michael W. Deem and Ramdas Pophale) SiO2 
 PCOD9414248
Probable space group: P M N A
;
_chemical_formula_sum "Si O2"
_cell_formula_units_Z 64
_cell_length_a 18.582862
_cell_length_b 11.728312
_cell_length_c 14.391278
_cell_angle_alpha 90.000000
_cell_angle_beta 90.000000
_cell_angle_gamma 90.000000
_cell_volume 3136.515767
_symmetry_space_group_name_H-M "P M N A"
_symmetry_group_IT_number 53
_symmetry_cell_setting 'orthorhombic'
loop_
_space_group_symop_operation_xyz
x,y,z
1/2-x,-y,1/2+z
x,-y,-z
1/2-x,y,1/2-z
-x,-y,-z
1/2+x,y,1/2-z
-x,y,z
1/2+x,-y,1/2+z
loop_
_atom_site_type_symbol
_atom_site_label
_atom_site_fract_x
_atom_site_fract_y
_atom_site_fract_z
Si Si1 0.581518 0.808788 0.758336
Si Si2 0.362465 0.346023 0.082280
Si Si3 0.417618 0.595267 0.614224
Si Si4 0.914617 0.457578 0.717317
Si Si5 0.582960 0.237647 0.895316
Si Si6 0.299022 0.911424 0.660373
Si Si7 0.264462 0.847776 0.141458
Si Si8 0.791526 0.298268 0.017730
O O1 0.500000 0.835145 0.785088
O O2 0.624195 0.758873 0.846499
O O3 0.580667 0.704164 0.684652
O O4 0.621791 0.911184 0.706414
O O5 0.386349 0.458223 0.137265
O O6 0.279714 0.360602 0.054551
O O7 0.406201 0.310559 0.990223
O O8 0.500000 0.575221 0.584959
O O9 0.387909 0.495619 0.681369
O O10 0.363036 0.629078 0.533389
O O11 0.904438 0.328140 0.687621
O O12 0.000000 0.479072 0.721038
O O13 0.500000 0.195615 0.891971
O O14 0.650787 0.152639 0.886498
O O15 0.250000 0.882149 0.750000
O O16 0.296740 0.813704 0.583585
O O17 0.271427 0.030245 0.620789
O O18 0.250000 0.830132 0.250000
O O19 0.226355 0.748456 0.083466
#
# Coordination Sequence:
#
# PCOD9414248 Si02
#       8
#     8   8   8   8   8   8   8   8
#     4   9  16  27  48  81 117 145 175 227 285 342
#     4  10  17  28  52  88 121 144 177 224 281 352
#     4   8  16  30  50  81 116 143 180 230 282 338
#     4   9  17  30  52  83 118 150 175 220 284 343
#     4  10  20  36  57  78 111 154 191 226 275 340
#     4  10  18  34  55  78 108 147 183 229 290 340
#     4  10  23  40  55  73 107 150 198 236 282 337
#     4  10  19  33  57  82 111 145 185 234 296 338
#
# _framework density 20.404807999999999
#
# number of rings (size 3 to 8) (size 9 to 14) (size 15 to 20)
#    0.000    2.500    1.250    2.625    0.000    1.000 
#    2.250    3.750    0.000    4.500    0.000    2.625 
#    0.000    0.000    0.000    0.000    0.000    0.000 
#
# Total GULP energy -357027.191791 kJ/mol
# GULP energy per Si atom -5578.549872 kJ/mol
# Density = 2.035837 g / cm^3
# Si number density = 20.404808 Si / 1000 Ang^3
#
#
#
# Elastic Constant Matrix: (Units=GPa)
#
#
# Indices 1 2 3 4 5 6 
#
# 1 85.2988 21.1232 10.0791 0.0000 0.0000 0.0000
# 2 21.1232 52.3811 10.0840 0.0000 0.0000 0.0000
# 3 10.0791 10.0840 54.4384 0.0000 0.0000 0.0000
# 4 0.0000 0.0000 0.0000 20.8901 0.0000 0.0000
# 5 0.0000 0.0000 0.0000 0.0000 15.0524 0.0000
# 6 0.0000 0.0000 0.0000 0.0000 0.0000 12.6462
#
#
#
# Elastic Compliance Matrix: (Units=1/GPa)
#
#
# Indices 1 2 3 4 5 6 
#
# 1 0.013142 -0.005010 -0.001505 0.000000 0.000000 0.000000
# 2 -0.005010 0.021707 -0.003093 0.000000 0.000000 0.000000
# 3 -0.001505 -0.003093 0.019221 0.000000 0.000000 0.000000
# 4 0.000000 0.000000 0.000000 0.047870 0.000000 0.000000
# 5 0.000000 0.000000 0.000000 0.000000 0.066435 0.000000
# 6 0.000000 0.000000 0.000000 0.000000 0.000000 0.079075
#
#
# Mechanical properties :
#
#
# Convention : Reuss Voigt Hill
#
# Bulk Modulus (GPa) = 28.69195 30.52119 29.60657
# Shear Modulus (GPa) = 17.96730 19.77320 18.87025
#
# Velocity S-wave (km/s) = 2.97061 3.11633 3.04434
# Velocity P-wave (km/s) = 5.08507 5.28573 5.18637
#
# Compressibility (1/GPa) = 0.03485298
#
# Stress axis : x y z
#
# Youngs Moduli (GPa) = 76.09208 46.06886 52.02623
#
# Poissons Ratio (x) = 0.23080 0.07831
# Poissons Ratio (y) = 0.38121 0.16093
# Poissons Ratio (z) = 0.11453 0.14251
#
# Static dielectric constant tensor:
#      x y z
#    x 1.738150 0.000000 0.000000 
#    y 0.000000 1.752270 0.000000 
#    z 0.000000 0.000000 1.746120 
# 
# From -- ./inp_files/23909.got.cif
#   From: 2010.05.17/outbox.cif.g08.bks.cpg/sg53_12_cif.got.tgz:23909.got - 2010.06.03 12:45:16.
