data_PCOD9414736
_publ_section_title
;
Structure prediction by ZEFSAII (Michael W. Deem and Ramdas Pophale) SiO2 
 PCOD9414736
Probable space group: P M N A
;
_chemical_formula_sum "Si O2"
_cell_formula_units_Z 40
_cell_length_a 8.630547
_cell_length_b 26.719080
_cell_length_c 9.768465
_cell_angle_alpha 90.000000
_cell_angle_beta 90.000000
_cell_angle_gamma 90.000000
_cell_volume 2252.610723
_symmetry_space_group_name_H-M "P M N A"
_symmetry_group_IT_number 53
_symmetry_cell_setting 'orthorhombic'
loop_
_space_group_symop_operation_xyz
x,y,z
1/2-x,-y,1/2+z
x,-y,-z
1/2-x,y,1/2-z
-x,-y,-z
1/2+x,y,1/2-z
-x,y,z
1/2+x,-y,1/2+z
loop_
_atom_site_type_symbol
_atom_site_label
_atom_site_fract_x
_atom_site_fract_y
_atom_site_fract_z
Si Si1 0.314333 0.046922 0.404089
Si Si2 0.686704 0.455704 0.902043
Si Si3 0.814975 0.151254 0.405327
Si Si4 0.815053 0.255573 0.095479
Si Si5 0.813556 0.657652 0.403820
O O1 0.250000 0.039777 0.250000
O O2 0.500000 0.051823 0.395931
O O3 0.244910 0.098649 0.463498
O O4 0.275447 0.000000 0.500000
O O5 0.750000 0.462989 0.750000
O O6 0.500000 0.457570 0.897549
O O7 0.729002 0.399263 0.946803
O O8 0.742597 0.500000 0.000000
O O9 0.750000 0.150720 0.250000
O O10 0.749132 0.202974 0.464287
O O11 0.000000 0.152520 0.403706
O O12 0.750000 0.260845 0.250000
O O13 0.000000 0.253447 0.101434
O O14 0.757918 0.301471 0.004103
O O15 0.750000 0.664647 0.250000
O O16 0.000000 0.661884 0.403253
#
# Coordination Sequence:
#
# PCOD9414736 Si02
#       5
#     8   8   8   8   8
#     4  10  20  34  53  77 105 137 173 212 257 308
#     4   9  19  35  54  77 105 137 173 213 256 306
#     4  10  18  31  52  76 103 135 172 213 260 309
#     4  11  21  35  55  79 106 136 175 219 262 309
#     4  10  20  36  55  77 107 141 176 213 261 315
#
# _framework density 17.757173000000002
#
# number of rings (size 3 to 8) (size 9 to 14) (size 15 to 20)
#    0.000    2.000    0.000    7.200    0.000    3.600 
#    0.000    3.000    0.000    2.400    0.000    0.000 
#    0.000    0.000    0.000    0.000    0.000    0.000 
#
# Total GULP energy -223193.677490 kJ/mol
# GULP energy per Si atom -5579.841937 kJ/mol
# Density = 1.771676 g / cm^3
# Si number density = 17.757173 Si / 1000 Ang^3
#
#
#
# Elastic Constant Matrix: (Units=GPa)
#
#
# Indices 1 2 3 4 5 6 
#
# 1 113.2212 80.2585 37.5326 0.0000 0.0000 0.0000
# 2 80.2585 215.1423 87.6718 0.0000 0.0000 0.0000
# 3 37.5326 87.6718 57.9006 0.0000 0.0000 0.0000
# 4 0.0000 0.0000 0.0000 33.6869 0.0000 0.0000
# 5 0.0000 0.0000 0.0000 0.0000 25.8138 0.0000
# 6 0.0000 0.0000 0.0000 0.0000 0.0000 71.5252
#
#
#
# Elastic Compliance Matrix: (Units=1/GPa)
#
#
# Indices 1 2 3 4 5 6 
#
# 1 0.012161 -0.003458 -0.002647 0.000000 0.000000 0.000000
# 2 -0.003458 0.013120 -0.017625 0.000000 0.000000 0.000000
# 3 -0.002647 -0.017625 0.045674 0.000000 0.000000 0.000000
# 4 0.000000 0.000000 0.000000 0.029685 0.000000 0.000000
# 5 0.000000 0.000000 0.000000 0.000000 0.038739 0.000000
# 6 0.000000 0.000000 0.000000 0.000000 0.000000 0.013981
#
#
# Mechanical properties :
#
#
# Convention : Reuss Voigt Hill
#
# Bulk Modulus (GPa) = 42.56137 88.57664 65.56901
# Shear Modulus (GPa) = 23.96321 38.25860 31.11091
#
# Velocity S-wave (km/s) = 3.67753 4.64674 4.19025
# Velocity P-wave (km/s) = 6.48482 8.87581 7.77280
#
# Compressibility (1/GPa) = 0.02349548
#
# Stress axis : x y z
#
# Youngs Moduli (GPa) = 82.23024 76.21732 21.89407
#
# Poissons Ratio (x) = 0.26355 0.05796
# Poissons Ratio (y) = 0.28434 0.38588
# Poissons Ratio (z) = 0.21768 1.34334
#
# Static dielectric constant tensor:
#      x y z
#    x 1.594460 0.000000 0.000000 
#    y 0.000000 1.646160 0.000000 
#    z 0.000000 0.000000 1.589920 
# 
# From -- ./inp_files/6441.got.cif
#   From: 2010.05.17/outbox.cif.g08.bks.cpg/sg53_4_cif.got.tgz:6441.got - 2010.06.03 12:45:16.
