data_PCOD9414698
_publ_section_title
;
Structure prediction by ZEFSAII (Michael W. Deem and Ramdas Pophale) SiO2 
 PCOD9414698
Probable space group: P M N A
;
_chemical_formula_sum "Si O2"
_cell_formula_units_Z 56
_cell_length_a 8.630945
_cell_length_b 20.142555
_cell_length_c 18.461209
_cell_angle_alpha 90.000000
_cell_angle_beta 90.000000
_cell_angle_gamma 90.000000
_cell_volume 3209.467973
_symmetry_space_group_name_H-M "P M N A"
_symmetry_group_IT_number 53
_symmetry_cell_setting 'orthorhombic'
loop_
_space_group_symop_operation_xyz
x,y,z
1/2-x,-y,1/2+z
x,-y,-z
1/2-x,y,1/2-z
-x,-y,-z
1/2+x,y,1/2-z
-x,y,z
1/2+x,-y,1/2+z
loop_
_atom_site_type_symbol
_atom_site_label
_atom_site_fract_x
_atom_site_fract_y
_atom_site_fract_z
Si Si1 0.684708 0.657615 0.830707
Si Si2 0.312640 0.432762 0.538805
Si Si3 0.677097 0.048521 0.069974
Si Si4 0.314033 0.937628 0.331245
Si Si5 0.184797 0.486914 0.171397
Si Si6 0.813732 0.846234 0.034035
Si Si7 0.312036 0.706568 0.525622
O O1 0.750000 0.670394 0.750000
O O2 0.500000 0.658438 0.828154
O O3 0.742849 0.583497 0.852424
O O4 0.748151 0.706209 0.892627
O O5 0.256118 0.500000 0.500000
O O6 0.500000 0.431686 0.529037
O O7 0.279050 0.450472 0.621437
O O8 0.256504 0.362304 0.510685
O O9 0.500000 0.062926 0.090414
O O10 0.759640 0.007717 0.133848
O O11 0.759587 0.112640 0.036523
O O12 0.675888 0.000000 0.000000
O O13 0.250000 0.928085 0.250000
O O14 0.500000 0.936263 0.328326
O O15 0.261230 0.882312 0.391262
O O16 0.250000 0.499080 0.250000
O O17 0.000000 0.477157 0.171494
O O18 0.764300 0.770477 0.021057
O O19 0.000000 0.848336 0.036009
O O20 0.500000 0.705963 0.528854
#
# Coordination Sequence:
#
# PCOD9414698 Si02
#       7
#     8   8   8   8   8   8   8
#     4  11  21  33  50  73  98 127 164 211 266 318
#     4   9  16  29  51  74  96 130 174 217 260 312
#     4   9  17  31  53  78 104 134 168 208 253 301
#     4  10  19  33  54  82 111 141 179 216 255 301
#     4  10  18  31  50  71  96 127 166 213 266 315
#     4   9  19  34  54  78 107 143 179 217 259 311
#     4  10  19  35  55  75 102 139 180 216 260 315
#
# _framework density 17.448374000000001
#
# number of rings (size 3 to 8) (size 9 to 14) (size 15 to 20)
#    0.000    2.286    1.429    3.429    0.000    2.857 
#    0.000    3.571    0.000    3.429    0.000    0.000 
#    0.000    0.000    0.000    0.000    0.000    0.000 
#
# Total GULP energy -311963.782234 kJ/mol
# GULP energy per Si atom -5570.781826 kJ/mol
# Density = 1.740866 g / cm^3
# Si number density = 17.448374 Si / 1000 Ang^3
#
#
#
# Elastic Constant Matrix: (Units=GPa)
#
#
# Indices 1 2 3 4 5 6 
#
# 1 43.7250 21.3184 33.7942 0.0000 0.0000 0.0000
# 2 21.3184 112.0077 68.5250 0.0000 0.0000 0.0000
# 3 33.7942 68.5250 119.6279 0.0000 0.0000 0.0000
# 4 0.0000 0.0000 0.0000 23.6788 0.0000 0.0000
# 5 0.0000 0.0000 0.0000 0.0000 24.4418 0.0000
# 6 0.0000 0.0000 0.0000 0.0000 0.0000 15.3950
#
#
#
# Elastic Compliance Matrix: (Units=1/GPa)
#
#
# Indices 1 2 3 4 5 6 
#
# 1 0.029304 -0.000790 -0.007826 0.000000 0.000000 0.000000
# 2 -0.000790 0.013766 -0.007662 0.000000 0.000000 0.000000
# 3 -0.007826 -0.007662 0.014959 0.000000 0.000000 0.000000
# 4 0.000000 0.000000 0.000000 0.042232 0.000000 0.000000
# 5 0.000000 0.000000 0.000000 0.000000 0.040914 0.000000
# 6 0.000000 0.000000 0.000000 0.000000 0.000000 0.064956
#
#
# Mechanical properties :
#
#
# Convention : Reuss Voigt Hill
#
# Bulk Modulus (GPa) = 39.25691 58.07063 48.66377
# Shear Modulus (GPa) = 20.22845 22.81799 21.52322
#
# Velocity S-wave (km/s) = 3.40859 3.62020 3.51599
# Velocity P-wave (km/s) = 6.16758 7.12938 6.66585
#
# Compressibility (1/GPa) = 0.02547322
#
# Stress axis : x y z
#
# Youngs Moduli (GPa) = 34.12549 72.64284 66.84882
#
# Poissons Ratio (x) = 0.05736 0.52314
# Poissons Ratio (y) = 0.02695 0.51222
# Poissons Ratio (z) = 0.26706 0.55661
#
# Static dielectric constant tensor:
#      x y z
#    x 1.594130 0.000000 0.000000 
#    y 0.000000 1.605940 0.000000 
#    z 0.000000 0.000000 1.609980 
# 
# From -- ./inp_files/26688.got.cif
#   From: 2010.05.17/outbox.cif.g08.bks.cpg/sg53_14_cif.got.tgz:26688.got - 2010.06.03 12:45:16.
