data_PCOD9414500
_publ_section_title
;
Structure prediction by ZEFSAII (Michael W. Deem and Ramdas Pophale) SiO2 
 PCOD9414500
Probable space group: P M N A
;
_chemical_formula_sum "Si O2"
_cell_formula_units_Z 56
_cell_length_a 8.515828
_cell_length_b 14.002052
_cell_length_c 29.198011
_cell_angle_alpha 90.000000
_cell_angle_beta 90.000000
_cell_angle_gamma 90.000000
_cell_volume 3481.543575
_symmetry_space_group_name_H-M "P M N A"
_symmetry_group_IT_number 53
_symmetry_cell_setting 'orthorhombic'
loop_
_space_group_symop_operation_xyz
x,y,z
1/2-x,-y,1/2+z
x,-y,-z
1/2-x,y,1/2-z
-x,-y,-z
1/2+x,y,1/2-z
-x,y,z
1/2+x,-y,1/2+z
loop_
_atom_site_type_symbol
_atom_site_label
_atom_site_fract_x
_atom_site_fract_y
_atom_site_fract_z
Si Si1 0.190622 0.897935 0.017252
Si Si2 0.314708 0.399759 0.943616
Si Si3 0.685208 0.577127 0.610917
Si Si4 0.309587 0.296949 0.468791
Si Si5 0.811702 0.787301 0.106110
Si Si6 0.686511 0.485022 0.799361
Si Si7 0.688746 0.736341 0.199874
O O1 0.230998 0.869649 0.069535
O O2 0.000000 0.900680 0.015394
O O3 0.238724 0.808730 0.985163
O O4 0.249898 0.000000 0.000000
O O5 0.500000 0.418850 0.941816
O O6 0.222876 0.488480 0.922536
O O7 0.272161 0.307688 0.912937
O O8 0.261791 0.370368 0.994371
O O9 0.500000 0.583232 0.618543
O O10 0.736466 0.670078 0.582041
O O11 0.763568 0.552091 0.659009
O O12 0.500000 0.302581 0.472218
O O13 0.758169 0.797725 0.158291
O O14 0.000000 0.773913 0.103923
O O15 0.750000 0.515778 0.750000
O O16 0.500000 0.481442 0.797378
O O17 0.741111 0.374895 0.807241
O O18 0.750000 0.764601 0.250000
O O19 0.500000 0.739427 0.198754
#
# Coordination Sequence:
#
# PCOD9414500 Si02
#       7
#     8   8   8   8   8   8   8
#     4   8  15  30  51  72  93 118 153 194 234 281
#     4  11  20  29  42  63  92 126 159 190 225 265
#     4  11  20  30  45  64  92 125 157 191 227 269
#     4   9  19  32  46  67  91 120 155 190 230 276
#     4  10  18  29  47  69  94 125 157 191 233 278
#     4  10  20  32  46  65  91 125 162 194 228 268
#     4  10  19  30  45  66  94 126 159 193 227 271
#
# _framework density 16.084819
#
# number of rings (size 3 to 8) (size 9 to 14) (size 15 to 20)
#    0.000    2.143    1.429    4.286    0.000    4.000 
#    0.000    0.000    0.000   10.714    0.000    1.000 
#    0.000    0.000    0.000    0.000    0.000    0.000 
#
# Total GULP energy -312293.786801 kJ/mol
# GULP energy per Si atom -5576.674764 kJ/mol
# Density = 1.604821 g / cm^3
# Si number density = 16.084819 Si / 1000 Ang^3
#
#
#
# Elastic Constant Matrix: (Units=GPa)
#
#
# Indices 1 2 3 4 5 6 
#
# 1 19.0721 4.6070 16.7430 0.0000 0.0000 0.0000
# 2 4.6070 57.5167 57.6840 0.0000 0.0000 0.0000
# 3 16.7430 57.6840 139.7865 0.0000 0.0000 0.0000
# 4 0.0000 0.0000 0.0000 16.0028 0.0000 0.0000
# 5 0.0000 0.0000 0.0000 0.0000 27.6372 0.0000
# 6 0.0000 0.0000 0.0000 0.0000 0.0000 12.4688
#
#
#
# Elastic Compliance Matrix: (Units=1/GPa)
#
#
# Indices 1 2 3 4 5 6 
#
# 1 0.059138 0.004038 -0.008750 0.000000 0.000000 0.000000
# 2 0.004038 0.029938 -0.012838 0.000000 0.000000 0.000000
# 3 -0.008750 -0.012838 0.013499 0.000000 0.000000 0.000000
# 4 0.000000 0.000000 0.000000 0.062489 0.000000 0.000000
# 5 0.000000 0.000000 0.000000 0.000000 0.036183 0.000000
# 6 0.000000 0.000000 0.000000 0.000000 0.000000 0.080200
#
#
# Mechanical properties :
#
#
# Convention : Reuss Voigt Hill
#
# Bulk Modulus (GPa) = 14.81979 41.60479 28.21229
# Shear Modulus (GPa) = 14.74756 20.37784 17.56270
#
# Velocity S-wave (km/s) = 3.03126 3.56321 3.30795
# Velocity P-wave (km/s) = 4.63518 6.54604 5.67167
#
# Compressibility (1/GPa) = 0.06747734
#
# Stress axis : x y z
#
# Youngs Moduli (GPa) = 16.90947 33.40244 74.07735
#
# Poissons Ratio (x) = -0.13489 0.64816
# Poissons Ratio (y) = -0.06829 0.95099
# Poissons Ratio (z) = 0.14795 0.42881
#
# Static dielectric constant tensor:
#      x y z
#    x 1.544730 0.000000 0.000000 
#    y 0.000000 1.535660 0.000000 
#    z 0.000000 0.000000 1.568370 
# 
# From -- ./inp_files/38363.got.cif
#   From: 2010.05.17/outbox.cif.g08.bks.cpg/sg53_20_cif.got.tgz:38363.got - 2010.06.03 12:45:16.
