data_PCOD9414265
_publ_section_title
;
Structure prediction by ZEFSAII (Michael W. Deem and Ramdas Pophale) SiO2 
 PCOD9414265
Probable space group: P M N A
;
_chemical_formula_sum "Si O2"
_cell_formula_units_Z 40
_cell_length_a 8.116155
_cell_length_b 13.076997
_cell_length_c 21.422579
_cell_angle_alpha 90.000000
_cell_angle_beta 90.000000
_cell_angle_gamma 90.000000
_cell_volume 2273.684021
_symmetry_space_group_name_H-M "P M N A"
_symmetry_group_IT_number 53
_symmetry_cell_setting 'orthorhombic'
loop_
_space_group_symop_operation_xyz
x,y,z
1/2-x,-y,1/2+z
x,-y,-z
1/2-x,y,1/2-z
-x,-y,-z
1/2+x,y,1/2-z
-x,y,z
1/2+x,-y,1/2+z
loop_
_atom_site_type_symbol
_atom_site_label
_atom_site_fract_x
_atom_site_fract_y
_atom_site_fract_z
Si Si1 0.310516 0.586328 0.577989
Si Si2 0.701205 0.142798 0.949156
Si Si3 0.191605 0.632718 0.442544
Si Si4 0.200609 0.923931 0.588556
Si Si5 0.697421 0.253894 0.178535
O O1 0.500000 0.604614 0.561457
O O2 0.205302 0.620981 0.517848
O O3 0.282257 0.465242 0.585557
O O4 0.263770 0.651420 0.638165
O O5 0.500000 0.145648 0.948761
O O6 0.757233 0.254234 0.927225
O O7 0.753823 0.042353 0.911006
O O8 0.749576 0.122667 0.021274
O O9 0.000000 0.625938 0.424991
O O10 0.256191 0.849603 0.643570
O O11 0.000000 0.924818 0.588989
O O12 0.750000 0.257234 0.250000
O O13 0.500000 0.256191 0.175086
#
# Coordination Sequence:
#
# PCOD9414265 Si02
#       5
#     8   8   8   8   8
#     4  11  21  32  46  70 103 135 168 206 251 299
#     4   8  13  24  47  76 100 124 157 203 248 295
#     4  10  17  29  51  76 101 130 165 208 254 301
#     4   8  14  26  46  73 100 125 161 201 244 292
#     4  11  21  35  53  73  99 133 168 206 244 294
#
# _framework density 17.592593999999998
#
# number of rings (size 3 to 8) (size 9 to 14) (size 15 to 20)
#    0.000    2.400    2.000    5.400    0.000    0.000 
#    0.000    0.000    0.000    7.200    0.000    2.800 
#    0.000    0.000    0.000    0.000    0.000    0.000 
#
# Total GULP energy -223008.381742 kJ/mol
# GULP energy per Si atom -5575.209544 kJ/mol
# Density = 1.755255 g / cm^3
# Si number density = 17.592594 Si / 1000 Ang^3
#
#
#
# Elastic Constant Matrix: (Units=GPa)
#
#
# Indices 1 2 3 4 5 6 
#
# 1 26.3133 3.4012 -0.2302 0.0000 0.0000 0.0000
# 2 3.4012 169.3880 59.1676 0.0000 0.0000 0.0000
# 3 -0.2302 59.1676 81.7153 0.0000 0.0000 0.0000
# 4 0.0000 0.0000 0.0000 20.9164 0.0000 0.0000
# 5 0.0000 0.0000 0.0000 0.0000 14.4306 0.0000
# 6 0.0000 0.0000 0.0000 0.0000 0.0000 5.5953
#
#
#
# Elastic Compliance Matrix: (Units=1/GPa)
#
#
# Indices 1 2 3 4 5 6 
#
# 1 0.038150 -0.001076 0.000886 0.000000 0.000000 0.000000
# 2 -0.001076 0.007933 -0.005747 0.000000 0.000000 0.000000
# 3 0.000886 -0.005747 0.016401 0.000000 0.000000 0.000000
# 4 0.000000 0.000000 0.000000 0.047809 0.000000 0.000000
# 5 0.000000 0.000000 0.000000 0.000000 0.069297 0.000000
# 6 0.000000 0.000000 0.000000 0.000000 0.000000 0.178721
#
#
# Mechanical properties :
#
#
# Convention : Reuss Voigt Hill
#
# Bulk Modulus (GPa) = 19.75818 44.67707 32.21763
# Shear Modulus (GPa) = 12.91808 22.52700 17.72254
#
# Velocity S-wave (km/s) = 2.71272 3.58226 3.17738
# Velocity P-wave (km/s) = 4.58990 6.52385 5.64038
#
# Compressibility (1/GPa) = 0.05061194
#
# Stress axis : x y z
#
# Youngs Moduli (GPa) = 26.21206 126.06270 60.97128
#
# Poissons Ratio (x) = 0.13559 -0.05404
# Poissons Ratio (y) = 0.02819 0.35039
# Poissons Ratio (z) = -0.02323 0.72445
#
# Static dielectric constant tensor:
#      x y z
#    x 1.606470 0.000000 0.000000 
#    y 0.000000 1.646440 0.000000 
#    z 0.000000 0.000000 1.558140 
# 
# From -- ./inp_files/30375.got.cif
#   From: 2010.05.17/outbox.cif.g08.bks.cpg/sg53_16_cif.got.tgz:30375.got - 2010.06.03 12:45:16.
