data_PCOD9414039
_publ_section_title
;
Structure prediction by ZEFSAII (Michael W. Deem and Ramdas Pophale) SiO2 
 PCOD9414039
Probable space group: P N N A
;
_chemical_formula_sum "Si O2"
_cell_formula_units_Z 40
_cell_length_a 18.000000
_cell_length_b 9.000000
_cell_length_c 12.000000
_cell_angle_alpha 90.000000
_cell_angle_beta 90.000000
_cell_angle_gamma 90.000000
_cell_volume 1944.000000
_symmetry_space_group_name_H-M "P N N A"
_symmetry_group_IT_number 52
_symmetry_cell_setting 'orthorhombic'
loop_
_space_group_symop_operation_xyz
x,y,z
1/2-x,-y,z
x,1/2-y,1/2-z
1/2-x,1/2+y,1/2-z
-x,-y,-z
1/2+x,y,-z
-x,1/2+y,1/2+z
1/2+x,1/2-y,1/2+z
loop_
_atom_site_type_symbol
_atom_site_label
_atom_site_fract_x
_atom_site_fract_y
_atom_site_fract_z
Si Si1 0.391518 0.333385 0.578182
Si Si2 0.378317 0.656746 0.528464
Si Si3 0.744187 0.175390 0.362677
Si Si4 0.956404 0.593978 0.702788
Si Si5 0.516486 0.866498 0.588983
O O1 0.356647 0.498723 0.580138
O O2 0.327917 0.229522 0.623706
O O3 0.462424 0.363614 0.656171
O O4 0.422147 0.244932 0.467135
O O5 0.307489 0.764570 0.536380
O O6 0.408948 0.587798 0.411401
O O7 0.444294 0.755349 0.587081
O O8 0.712604 0.250000 0.250000
O O9 0.750000 0.000000 0.356253
O O10 0.926463 0.750000 0.750000
O O11 0.962779 0.458050 0.794848
O O12 0.500000 0.000000 0.500000
#
# Coordination Sequence:
#
# PCOD9414039 Si02
#       5
#     8   8   8   8   8
#     4  11  24  42  66 102 136 176 228 282 344 413
#     4  11  25  41  63 102 137 177 228 283 337 419
#     4  12  27  44  70  96 137 178 224 287 354 413
#     4  11  22  39  71  98 137 174 228 282 342 399
#     4  11  21  39  69 100 133 176 228 284 337 404
#
# _framework density 20.576132000000001
#
# number of rings (size 3 to 8) (size 9 to 14) (size 15 to 20)
#    0.000    0.800    4.000    6.000    5.600    2.400 
#    0.000    0.000    8.800    0.000    0.000    0.000 
#    0.000    0.000    0.000    0.000    0.000    0.000 
#
# Total GULP energy -222728.754233 kJ/mol
# GULP energy per Si atom -5568.218856 kJ/mol
# Density = 2.052930 g / cm^3
# Si number density = 20.576132 Si / 1000 Ang^3
#
#
#
# Elastic Constant Matrix: (Units=GPa)
#
#
# Indices 1 2 3 4 5 6 
#
# 1 80.1899 34.5018 30.7276 0.0000 0.0000 0.0000
# 2 34.5018 203.6525 43.6467 0.0000 0.0000 0.0000
# 3 30.7276 43.6467 100.0369 0.0000 0.0000 0.0000
# 4 0.0000 0.0000 0.0000 39.9068 0.0000 0.0000
# 5 0.0000 0.0000 0.0000 0.0000 18.6197 0.0000
# 6 0.0000 0.0000 0.0000 0.0000 0.0000 16.8251
#
#
#
# Elastic Compliance Matrix: (Units=1/GPa)
#
#
# Indices 1 2 3 4 5 6 
#
# 1 0.014633 -0.001672 -0.003765 0.000000 0.000000 0.000000
# 2 -0.001672 0.005608 -0.001933 0.000000 0.000000 0.000000
# 3 -0.003765 -0.001933 0.011996 0.000000 0.000000 0.000000
# 4 0.000000 0.000000 0.000000 0.025058 0.000000 0.000000
# 5 0.000000 0.000000 0.000000 0.000000 0.053707 0.000000
# 6 0.000000 0.000000 0.000000 0.000000 0.000000 0.059435
#
#
# Mechanical properties :
#
#
# Convention : Reuss Voigt Hill
#
# Bulk Modulus (GPa) = 57.15543 66.84794 62.00168
# Shear Modulus (GPa) = 26.17674 33.40386 29.79030
#
# Velocity S-wave (km/s) = 3.57065 4.03355 3.80914
# Velocity P-wave (km/s) = 6.69606 7.36555 7.03877
#
# Compressibility (1/GPa) = 0.01749615
#
# Stress axis : x y z
#
# Youngs Moduli (GPa) = 68.34095 178.31953 83.35943
#
# Poissons Ratio (x) = 0.29816 0.31385
# Poissons Ratio (y) = 0.11427 0.16115
# Poissons Ratio (z) = 0.25731 0.34472
#
# Static dielectric constant tensor:
#      x y z
#    x 1.765950 0.000000 0.000000 
#    y 0.000000 1.819410 0.000000 
#    z 0.000000 0.000000 1.946320 
# 
# From -- ./inp_files/20286.got.cif
#   From: 2010.05.17/outbox.ucp.g08.bks.cvg/sg52_11_cif.got.tgz:20286.got - 2010.06.11 16:30:12.
