data_PCOD9414227
_publ_section_title
;
Structure prediction by ZEFSAII (Michael W. Deem and Ramdas Pophale) SiO2 
 PCOD9414227
Probable space group: P M N A
;
_chemical_formula_sum "Si O2"
_cell_formula_units_Z 48
_cell_length_a 7.674263
_cell_length_b 12.319878
_cell_length_c 27.140955
_cell_angle_alpha 90.000000
_cell_angle_beta 90.000000
_cell_angle_gamma 90.000000
_cell_volume 2566.068294
_symmetry_space_group_name_H-M "P M N A"
_symmetry_group_IT_number 53
_symmetry_cell_setting 'orthorhombic'
loop_
_space_group_symop_operation_xyz
x,y,z
1/2-x,-y,1/2+z
x,-y,-z
1/2-x,y,1/2-z
-x,-y,-z
1/2+x,y,1/2-z
-x,y,z
1/2+x,-y,1/2+z
loop_
_atom_site_type_symbol
_atom_site_label
_atom_site_fract_x
_atom_site_fract_y
_atom_site_fract_z
Si Si1 0.288209 0.654731 0.962004
Si Si2 0.209244 0.313312 0.307102
Si Si3 0.711982 0.494562 0.874672
Si Si4 0.206892 0.298957 0.569228
Si Si5 0.202301 0.946835 0.050504
Si Si6 0.789499 0.151957 0.391248
O O1 0.500000 0.651799 0.963819
O O2 0.240294 0.559802 0.924554
O O3 0.238816 0.767006 0.935610
O O4 0.221707 0.654909 0.017398
O O5 0.250000 0.301900 0.250000
O O6 0.274414 0.427521 0.330480
O O7 0.270360 0.213284 0.341608
O O8 0.000000 0.313783 0.312226
O O9 0.500000 0.494179 0.870190
O O10 0.772118 0.371443 0.884880
O O11 0.228055 0.169922 0.566964
O O12 0.000000 0.318477 0.568116
O O13 0.000000 0.928100 0.040203
O O14 0.222872 0.034301 0.094001
O O15 0.280028 0.000000 0.000000
O O16 0.000000 0.146271 0.390086
#
# Coordination Sequence:
#
# PCOD9414227 Si02
#       6
#     8   8   8   8   8   8
#     4   8  13  23  43  70  95 119 153 197 235 270
#     4   9  18  33  54  78 100 121 153 201 251 296
#     4   8  15  27  45  73  99 119 154 201 240 278
#     4  10  17  27  48  70  93 129 167 197 230 279
#     4  11  22  32  43  65 102 139 167 199 241 290
#     4   9  17  31  50  72  95 124 167 206 234 279
#
# _framework density 18.705659000000001
#
# number of rings (size 3 to 8) (size 9 to 14) (size 15 to 20)
#    0.000    2.833    1.667    3.000    0.000    3.333 
#    0.000    0.833    0.000    4.000    0.000    2.333 
#    0.000    0.000    0.000    0.000    0.000    0.000 
#
# Total GULP energy -267348.412729 kJ/mol
# GULP energy per Si atom -5569.758599 kJ/mol
# Density = 1.866308 g / cm^3
# Si number density = 18.705659 Si / 1000 Ang^3
#
#
#
# Elastic Constant Matrix: (Units=GPa)
#
#
# Indices 1 2 3 4 5 6 
#
# 1 25.7765 -11.3131 -2.1640 0.0000 0.0000 0.0000
# 2 -11.3131 84.2949 44.6090 0.0000 0.0000 0.0000
# 3 -2.1640 44.6090 101.7922 0.0000 0.0000 0.0000
# 4 0.0000 0.0000 0.0000 14.4326 0.0000 0.0000
# 5 0.0000 0.0000 0.0000 0.0000 13.7415 0.0000
# 6 0.0000 0.0000 0.0000 0.0000 0.0000 -295.6753
#
#
#
# Elastic Compliance Matrix: (Units=1/GPa)
#
#
# Indices 1 2 3 4 5 6 
#
# 1 0.041543 0.006650 -0.002031 0.000000 0.000000 0.000000
# 2 0.006650 0.016510 -0.007094 0.000000 0.000000 0.000000
# 3 -0.002031 -0.007094 0.012889 0.000000 0.000000 0.000000
# 4 0.000000 0.000000 0.000000 0.069288 0.000000 0.000000
# 5 0.000000 0.000000 0.000000 0.000000 0.072772 0.000000
# 6 0.000000 0.000000 0.000000 0.000000 0.000000 -0.003382
#
#
# Mechanical properties :
#
#
# Convention : Reuss Voigt Hill
#
# Bulk Modulus (GPa) = 15.15306 30.45859 22.80582
# Shear Modulus (GPa) = 21.13563 -41.45146 -10.15792
#
# Velocity S-wave (km/s) = 3.36505 -4.71253 -2.33285
# Velocity P-wave (km/s) = 4.81835 3.64584 2.22759
#
# Compressibility (1/GPa) = 0.06599329
#
# Stress axis : x y z
#
# Youngs Moduli (GPa) = 24.07125 60.57052 77.58266
#
# Poissons Ratio (x) = -0.40282 0.15759
# Poissons Ratio (y) = -0.16008 0.55035
# Poissons Ratio (z) = 0.04890 0.42967
#
# Static dielectric constant tensor:
#      x y z
#    x 1.713280 0.000000 0.000000 
#    y 0.000000 1.685260 0.000000 
#    z 0.000000 0.000000 1.644700 
# 
# From -- ./inp_files/36160.got.cif
#   From: 2010.05.17/outbox.cif.g08.bks.cpg/sg53_19_cif.got.tgz:36160.got - 2010.06.03 12:45:16.
