data_PCOD9414618
_publ_section_title
;
Structure prediction by ZEFSAII (Michael W. Deem and Ramdas Pophale) SiO2 
 PCOD9414618
Probable space group: P M N A
;
_chemical_formula_sum "Si O2"
_cell_formula_units_Z 48
_cell_length_a 15.918581
_cell_length_b 7.963648
_cell_length_c 21.397183
_cell_angle_alpha 90.000000
_cell_angle_beta 90.000000
_cell_angle_gamma 90.000000
_cell_volume 2712.520370
_symmetry_space_group_name_H-M "P M N A"
_symmetry_group_IT_number 53
_symmetry_cell_setting 'orthorhombic'
loop_
_space_group_symop_operation_xyz
x,y,z
1/2-x,-y,1/2+z
x,-y,-z
1/2-x,y,1/2-z
-x,-y,-z
1/2+x,y,1/2-z
-x,y,z
1/2+x,-y,1/2+z
loop_
_atom_site_type_symbol
_atom_site_label
_atom_site_fract_x
_atom_site_fract_y
_atom_site_fract_z
Si Si1 0.816265 0.017657 0.807509
Si Si2 0.402278 0.299412 0.001273
Si Si3 0.898552 0.309497 0.229265
Si Si4 0.902802 0.189452 0.364719
Si Si5 0.669039 0.165386 0.874151
Si Si6 0.401324 0.322685 0.755303
O O1 0.750000 0.010867 0.750000
O O2 0.856309 0.833868 0.812813
O O3 0.761228 0.087189 0.864551
O O4 0.882376 0.158938 0.786128
O O5 0.500000 0.240416 0.995315
O O6 0.351319 0.231463 0.942452
O O7 0.403265 0.500000 0.000000
O O8 0.366798 0.241863 0.068319
O O9 0.870089 0.268814 0.300731
O O10 0.877959 0.504951 0.219979
O O11 0.000000 0.289336 0.226052
O O12 0.000000 0.240824 0.367587
O O13 0.893247 0.989996 0.359594
O O14 0.649975 0.300710 0.819909
O O15 0.500000 0.333235 0.770849
#
# Coordination Sequence:
#
# PCOD9414618 Si02
#       6
#     8   8   8   8   8   8
#     4  10  20  32  46  71 103 138 167 208 263 309
#     4  10  20  33  49  73 103 141 186 214 242 300
#     4  10  19  33  52  73 100 135 175 214 253 303
#     4  10  18  30  50  71  96 137 175 207 244 294
#     4  11  20  32  46  73 105 140 169 212 262 306
#     4  10  19  32  51  71  96 134 175 213 254 305
#
# _framework density 17.695720999999999
#
# number of rings (size 3 to 8) (size 9 to 14) (size 15 to 20)
#    0.000    1.833    3.333    3.500    0.000    6.000 
#    3.000    0.000    0.000    0.000    0.000    0.000 
#    0.000   13.333    0.000    0.000    0.000    0.000 
#
# Total GULP energy -267648.475626 kJ/mol
# GULP energy per Si atom -5576.009909 kJ/mol
# Density = 1.765544 g / cm^3
# Si number density = 17.695721 Si / 1000 Ang^3
#
#
#
# Elastic Constant Matrix: (Units=GPa)
#
#
# Indices 1 2 3 4 5 6 
#
# 1 43.4807 25.5687 20.7530 0.0000 0.0000 0.0000
# 2 25.5687 99.8480 9.7280 0.0000 0.0000 0.0000
# 3 20.7530 9.7280 50.3193 0.0000 0.0000 0.0000
# 4 0.0000 0.0000 0.0000 24.0700 0.0000 0.0000
# 5 0.0000 0.0000 0.0000 0.0000 18.8071 0.0000
# 6 0.0000 0.0000 0.0000 0.0000 0.0000 4.8927
#
#
#
# Elastic Compliance Matrix: (Units=1/GPa)
#
#
# Indices 1 2 3 4 5 6 
#
# 1 0.033136 -0.007291 -0.012257 0.000000 0.000000 0.000000
# 2 -0.007291 0.011812 0.000724 0.000000 0.000000 0.000000
# 3 -0.012257 0.000724 0.024788 0.000000 0.000000 0.000000
# 4 0.000000 0.000000 0.000000 0.041545 0.000000 0.000000
# 5 0.000000 0.000000 0.000000 0.000000 0.053172 0.000000
# 6 0.000000 0.000000 0.000000 0.000000 0.000000 0.204388
#
#
# Mechanical properties :
#
#
# Convention : Reuss Voigt Hill
#
# Bulk Modulus (GPa) = 31.16471 33.97194 32.56832
# Shear Modulus (GPa) = 11.98506 18.72717 15.35611
#
# Velocity S-wave (km/s) = 2.60530 3.25666 2.94902
# Velocity P-wave (km/s) = 5.16718 5.77760 5.48089
#
# Compressibility (1/GPa) = 0.03208757
#
# Stress axis : x y z
#
# Youngs Moduli (GPa) = 30.17830 84.66081 40.34177
#
# Poissons Ratio (x) = 0.61729 0.49446
# Poissons Ratio (y) = 0.22004 -0.02919
# Poissons Ratio (z) = 0.36989 -0.06126
#
# Static dielectric constant tensor:
#      x y z
#    x 1.637280 0.000000 0.000000 
#    y 0.000000 1.650380 0.000000 
#    z 0.000000 0.000000 1.610050 
# 
# From -- ./inp_files/32276.got.cif
#   From: 2010.05.17/outbox.cif.g08.bks.cpg/sg53_17_cif.got.tgz:32276.got - 2010.06.03 12:45:16.
