data_PCOD9414482
_publ_section_title
;
Structure prediction by ZEFSAII (Michael W. Deem and Ramdas Pophale) SiO2 
 PCOD9414482
Probable space group: P M N A
;
_chemical_formula_sum "Si O2"
_cell_formula_units_Z 56
_cell_length_a 8.922754
_cell_length_b 21.074584
_cell_length_c 18.538347
_cell_angle_alpha 90.000000
_cell_angle_beta 90.000000
_cell_angle_gamma 90.000000
_cell_volume 3486.012478
_symmetry_space_group_name_H-M "P M N A"
_symmetry_group_IT_number 53
_symmetry_cell_setting 'orthorhombic'
loop_
_space_group_symop_operation_xyz
x,y,z
1/2-x,-y,1/2+z
x,-y,-z
1/2-x,y,1/2-z
-x,-y,-z
1/2+x,y,1/2-z
-x,y,z
1/2+x,-y,1/2+z
loop_
_atom_site_type_symbol
_atom_site_label
_atom_site_fract_x
_atom_site_fract_y
_atom_site_fract_z
Si Si1 0.672297 0.064521 0.952029
Si Si2 0.672149 0.569012 0.038923
Si Si3 0.680186 0.254345 0.327034
Si Si4 0.178599 0.991584 0.828272
Si Si5 0.679184 0.132400 0.421148
Si Si6 0.821257 0.513536 0.173203
Si Si7 0.181025 0.616890 0.612735
O O1 0.500000 0.077826 0.934785
O O2 0.763701 0.047135 0.880714
O O3 0.741574 0.118091 0.003229
O O4 0.677990 0.000000 0.000000
O O5 0.500000 0.582127 0.060128
O O6 0.773421 0.561683 0.109306
O O7 0.672822 0.500000 0.000000
O O8 0.717527 0.614613 0.973058
O O9 0.750000 0.236553 0.250000
O O10 0.500000 0.260110 0.321181
O O11 0.715253 0.199173 0.384446
O O12 0.752453 0.320522 0.351519
O O13 0.250000 0.995659 0.750000
O O14 0.221093 0.924625 0.866224
O O15 0.000000 0.993479 0.823247
O O16 0.500000 0.128522 0.431514
O O17 0.750000 0.531162 0.250000
O O18 0.751983 0.445292 0.150010
O O19 0.000000 0.508786 0.178250
O O20 0.000000 0.613815 0.619544
#
# Coordination Sequence:
#
# PCOD9414482 Si02
#       7
#     8   8   8   8   8   8   8
#     4   9  17  29  46  67  90 118 153 191 231 277
#     4   8  16  31  48  66  90 119 151 189 232 276
#     4  11  22  34  48  68  95 126 162 196 227 267
#     4  10  18  29  46  68  95 123 153 190 234 278
#     4   9  19  33  47  65  92 126 158 192 231 272
#     4  11  20  30  47  70  96 123 153 190 232 276
#     4  10  20  34  49  66  93 126 158 192 231 274
#
# _framework density 16.064198999999999
#
# number of rings (size 3 to 8) (size 9 to 14) (size 15 to 20)
#    0.000    2.286    0.000    4.714    0.000    6.571 
#    0.000    0.000    0.000    0.000    0.000    1.000 
#    0.000    2.286    0.000    0.000    0.000    0.000 
#
# Total GULP energy -312306.270836 kJ/mol
# GULP energy per Si atom -5576.897693 kJ/mol
# Density = 1.602764 g / cm^3
# Si number density = 16.064199 Si / 1000 Ang^3
#
#
#
# Elastic Constant Matrix: (Units=GPa)
#
#
# Indices 1 2 3 4 5 6 
#
# 1 64.9976 3.0367 32.9693 0.0000 0.0000 0.0000
# 2 3.0367 12.5447 -7.1021 0.0000 0.0000 0.0000
# 3 32.9693 -7.1021 66.8087 0.0000 0.0000 0.0000
# 4 0.0000 0.0000 0.0000 23.3430 0.0000 0.0000
# 5 0.0000 0.0000 0.0000 0.0000 32.8510 0.0000
# 6 0.0000 0.0000 0.0000 0.0000 0.0000 -1.8068
#
#
#
# Elastic Compliance Matrix: (Units=1/GPa)
#
#
# Indices 1 2 3 4 5 6 
#
# 1 0.022174 -0.012303 -0.012250 0.000000 0.000000 0.000000
# 2 -0.012303 0.091646 0.015814 0.000000 0.000000 0.000000
# 3 -0.012250 0.015814 0.022695 0.000000 0.000000 0.000000
# 4 0.000000 0.000000 0.000000 0.042839 0.000000 0.000000
# 5 0.000000 0.000000 0.000000 0.000000 0.030440 0.000000
# 6 0.000000 0.000000 0.000000 0.000000 0.000000 -0.553473
#
#
# Mechanical properties :
#
#
# Convention : Reuss Voigt Hill
#
# Bulk Modulus (GPa) = 8.40084 22.46209 15.43146
# Shear Modulus (GPa) = -17.45080 18.57392 0.56156
#
# Velocity S-wave (km/s) = -3.29951 3.40403 0.59189
# Velocity P-wave (km/s) = 3.04545 5.42798 3.17712
#
# Compressibility (1/GPa) = 0.11903570
#
# Stress axis : x y z
#
# Youngs Moduli (GPa) = 45.09808 10.91150 44.06323
#
# Poissons Ratio (x) = 0.13425 0.53979
# Poissons Ratio (y) = 0.55485 -0.69681
# Poissons Ratio (z) = 0.55247 -0.17255
#
# Static dielectric constant tensor:
#      x y z
#    x 1.535450 0.000000 0.000000 
#    y 0.000000 1.522430 0.000000 
#    z 0.000000 0.000000 1.543560 
# 
# From -- ./inp_files/26679.got.cif
#   From: 2010.05.17/outbox.cif.g08.bks.cpg/sg53_14_cif.got.tgz:26679.got - 2010.06.03 12:45:16.
