data_PCOD9414237
_publ_section_title
;
Structure prediction by ZEFSAII (Michael W. Deem and Ramdas Pophale) SiO2 
 PCOD9414237
Probable space group: P M N A
;
_chemical_formula_sum "Si O2"
_cell_formula_units_Z 48
_cell_length_a 8.949959
_cell_length_b 10.487660
_cell_length_c 30.971582
_cell_angle_alpha 90.000000
_cell_angle_beta 90.000000
_cell_angle_gamma 90.000000
_cell_volume 2907.120506
_symmetry_space_group_name_H-M "P M N A"
_symmetry_group_IT_number 53
_symmetry_cell_setting 'orthorhombic'
loop_
_space_group_symop_operation_xyz
x,y,z
1/2-x,-y,1/2+z
x,-y,-z
1/2-x,y,1/2-z
-x,-y,-z
1/2+x,y,1/2-z
-x,y,z
1/2+x,-y,1/2+z
loop_
_atom_site_type_symbol
_atom_site_label
_atom_site_fract_x
_atom_site_fract_y
_atom_site_fract_z
Si Si1 0.677805 0.876195 0.470043
Si Si2 0.673238 0.281224 0.205499
Si Si3 0.318288 0.372732 0.476136
Si Si4 0.171357 0.970651 0.293272
Si Si5 0.319840 0.987657 0.112650
Si Si6 0.680039 0.269167 0.384669
O O1 0.500000 0.866801 0.460895
O O2 0.725521 0.751747 0.496530
O O3 0.699539 0.000000 0.500000
O O4 0.766741 0.899692 0.426222
O O5 0.750000 0.325060 0.250000
O O6 0.500000 0.319064 0.204020
O O7 0.677182 0.125813 0.206592
O O8 0.757010 0.316774 0.161251
O O9 0.265072 0.500000 0.500000
O O10 0.500000 0.375233 0.476218
O O11 0.275328 0.353676 0.426125
O O12 0.250000 0.925222 0.250000
O O13 0.230550 0.934753 0.340522
O O14 0.000000 0.931723 0.290847
O O15 0.500000 0.001875 0.113504
O O16 0.245929 0.127328 0.107497
O O17 0.500000 0.260852 0.382747
#
# Coordination Sequence:
#
# PCOD9414237 Si02
#       6
#     8   8   8   8   8   8
#     4  10  18  31  49  71  92 119 162 200 231 279
#     4   9  16  26  40  63  93 124 157 193 238 287
#     4   9  18  32  49  69  95 126 160 199 242 288
#     4   8  15  25  37  57  87 119 149 181 223 277
#     4  10  19  29  43  67  96 125 157 195 242 287
#     4  10  17  28  46  67  93 125 160 198 240 282
#
# _framework density 16.511182999999999
#
# number of rings (size 3 to 8) (size 9 to 14) (size 15 to 20)
#    0.000    2.667    1.667    2.500    0.000    5.000 
#    0.000    0.000    0.000    4.500    0.000    1.167 
#    0.000    2.667    0.000    0.000    0.000    0.000 
#
# Total GULP energy -267325.255774 kJ/mol
# GULP energy per Si atom -5569.276162 kJ/mol
# Density = 1.647360 g / cm^3
# Si number density = 16.511183 Si / 1000 Ang^3
#
#
#
# Elastic Constant Matrix: (Units=GPa)
#
#
# Indices 1 2 3 4 5 6 
#
# 1 56.3142 19.8698 61.5404 0.0000 0.0000 0.0000
# 2 19.8698 56.3912 46.9510 0.0000 0.0000 0.0000
# 3 61.5404 46.9510 189.3000 0.0000 0.0000 0.0000
# 4 0.0000 0.0000 0.0000 13.4613 0.0000 0.0000
# 5 0.0000 0.0000 0.0000 0.0000 33.3401 0.0000
# 6 0.0000 0.0000 0.0000 0.0000 0.0000 -12.5733
#
#
#
# Elastic Compliance Matrix: (Units=1/GPa)
#
#
# Indices 1 2 3 4 5 6 
#
# 1 0.027907 -0.002873 -0.008360 0.000000 0.000000 0.000000
# 2 -0.002873 0.022644 -0.004682 0.000000 0.000000 0.000000
# 3 -0.008360 -0.004682 0.009162 0.000000 0.000000 0.000000
# 4 0.000000 0.000000 0.000000 0.074287 0.000000 0.000000
# 5 0.000000 0.000000 0.000000 0.000000 0.029994 0.000000
# 6 0.000000 0.000000 0.000000 0.000000 0.000000 -0.079534
#
#
# Mechanical properties :
#
#
# Convention : Reuss Voigt Hill
#
# Bulk Modulus (GPa) = 35.86467 62.08084 48.97276
# Shear Modulus (GPa) = 39.81417 18.42191 29.11804
#
# Velocity S-wave (km/s) = 4.91587 3.34387 4.20400
# Velocity P-wave (km/s) = 7.34777 7.25186 7.29997
#
# Compressibility (1/GPa) = 0.02788259
#
# Stress axis : x y z
#
# Youngs Moduli (GPa) = 35.83359 44.16182 109.15025
#
# Poissons Ratio (x) = 0.12687 0.91248
# Poissons Ratio (y) = 0.10294 0.51108
# Poissons Ratio (z) = 0.29956 0.20678
#
# Static dielectric constant tensor:
#      x y z
#    x 1.557650 0.000000 0.000000 
#    y 0.000000 1.527300 0.000000 
#    z 0.000000 0.000000 1.587260 
# 
# From -- ./inp_files/37901.got.cif
#   From: 2010.05.17/outbox.cif.g08.bks.cpg/sg53_19_cif.got.tgz:37901.got - 2010.06.03 12:45:16.
