data_PCOD9414103
_publ_section_title
;
Structure prediction by ZEFSAII (Michael W. Deem and Ramdas Pophale) SiO2 
 PCOD9414103
Probable space group: P M N A
;
_chemical_formula_sum "Si O2"
_cell_formula_units_Z 48
_cell_length_a 26.956217
_cell_length_b 7.652675
_cell_length_c 12.170261
_cell_angle_alpha 90.000000
_cell_angle_beta 90.000000
_cell_angle_gamma 90.000000
_cell_volume 2510.568675
_symmetry_space_group_name_H-M "P M N A"
_symmetry_group_IT_number 53
_symmetry_cell_setting 'orthorhombic'
loop_
_space_group_symop_operation_xyz
x,y,z
1/2-x,-y,1/2+z
x,-y,-z
1/2-x,y,1/2-z
-x,-y,-z
1/2+x,y,1/2-z
-x,y,z
1/2+x,-y,1/2+z
loop_
_atom_site_type_symbol
_atom_site_label
_atom_site_fract_x
_atom_site_fract_y
_atom_site_fract_z
Si Si1 0.705434 0.808415 0.054050
Si Si2 0.369572 0.384191 0.100339
Si Si3 0.691907 0.293318 0.287689
Si Si4 0.357760 0.094075 0.742921
Si Si5 0.185616 0.206308 0.967542
Si Si6 0.058253 0.066912 0.374912
O O1 0.671506 0.811776 0.160004
O O2 0.760553 0.749339 0.081855
O O3 0.677911 0.698645 0.961951
O O4 0.707984 0.000000 0.000000
O O5 0.342943 0.422894 0.216813
O O6 0.413180 0.250121 0.128722
O O7 0.390151 0.500000 0.000000
O O8 0.750000 0.301240 0.250000
O O9 0.683401 0.312594 0.418680
O O10 0.671157 0.094241 0.266757
O O11 0.354120 0.201448 0.630058
O O12 0.412394 0.054607 0.788900
O O13 0.187023 0.000000 0.000000
O O14 0.000000 0.077418 0.353323
O O15 0.065841 0.000000 0.500000
#
# Coordination Sequence:
#
# PCOD9414103 Si02
#       6
#     8   8   8   8   8   8
#     4  11  15  29  49  73  98 134 168 206 252 307
#     4  11  21  32  50  71 106 138 170 214 264 307
#     4  10  16  30  48  69 104 139 170 204 254 315
#     4  10  16  27  49  80 100 124 168 221 264 311
#     4   9  17  24  48  77 102 133 169 204 254 314
#     4  10  19  34  56  77  99 130 175 230 280 312
#
# _framework density 19.119173
#
# number of rings (size 3 to 8) (size 9 to 14) (size 15 to 20)
#    0.000    1.833    6.667    2.500    0.000    0.333 
#    0.000    1.667    0.000   12.500    0.000    0.000 
#    0.000    2.667    0.000    0.000    0.000    0.000 
#
# Total GULP energy -267326.794098 kJ/mol
# GULP energy per Si atom -5569.308210 kJ/mol
# Density = 1.907566 g / cm^3
# Si number density = 19.119173 Si / 1000 Ang^3
#
#
#
# Elastic Constant Matrix: (Units=GPa)
#
#
# Indices 1 2 3 4 5 6 
#
# 1 132.8910 16.5255 68.7659 0.0000 0.0000 0.0000
# 2 16.5255 25.7771 29.1431 0.0000 0.0000 0.0000
# 3 68.7659 29.1431 142.8530 0.0000 0.0000 0.0000
# 4 0.0000 0.0000 0.0000 14.9472 0.0000 0.0000
# 5 0.0000 0.0000 0.0000 0.0000 25.1289 0.0000
# 6 0.0000 0.0000 0.0000 0.0000 0.0000 0.7322
#
#
#
# Elastic Compliance Matrix: (Units=1/GPa)
#
#
# Indices 1 2 3 4 5 6 
#
# 1 0.010053 -0.001266 -0.004581 0.000000 0.000000 0.000000
# 2 -0.001266 0.050584 -0.009710 0.000000 0.000000 0.000000
# 3 -0.004581 -0.009710 0.011186 0.000000 0.000000 0.000000
# 4 0.000000 0.000000 0.000000 0.066902 0.000000 0.000000
# 5 0.000000 0.000000 0.000000 0.000000 0.039795 0.000000
# 6 0.000000 0.000000 0.000000 0.000000 0.000000 1.365806
#
#
# Mechanical properties :
#
#
# Convention : Reuss Voigt Hill
#
# Bulk Modulus (GPa) = 24.56448 58.93223 41.74835
# Shear Modulus (GPa) = 3.14662 20.63410 11.89036
#
# Velocity S-wave (km/s) = 1.28428 3.28874 2.49651
# Velocity P-wave (km/s) = 3.88267 6.73139 5.49485
#
# Compressibility (1/GPa) = 0.04070919
#
# Stress axis : x y z
#
# Youngs Moduli (GPa) = 99.47446 19.76923 89.39485
#
# Poissons Ratio (x) = 0.02502 0.40952
# Poissons Ratio (y) = 0.12590 0.86804
# Poissons Ratio (z) = 0.45569 0.19196
#
# Static dielectric constant tensor:
#      x y z
#    x 1.619980 0.000000 0.000000 
#    y 0.000000 1.746870 0.000000 
#    z 0.000000 0.000000 1.867510 
# 
# From -- ./inp_files/18267.got.cif
#   From: 2010.05.17/outbox.cif.g08.bks.cpg/sg53_10_cif.got.tgz:18267.got - 2010.06.03 12:45:16.
