data_PCOD9414354
_publ_section_title
;
Structure prediction by ZEFSAII (Michael W. Deem and Ramdas Pophale) SiO2 
 PCOD9414354
Probable space group: P M N A
;
_chemical_formula_sum "Si O2"
_cell_formula_units_Z 56
_cell_length_a 7.317203
_cell_length_b 17.545064
_cell_length_c 22.254977
_cell_angle_alpha 90.000000
_cell_angle_beta 90.000000
_cell_angle_gamma 90.000000
_cell_volume 2857.111639
_symmetry_space_group_name_H-M "P M N A"
_symmetry_group_IT_number 53
_symmetry_cell_setting 'orthorhombic'
loop_
_space_group_symop_operation_xyz
x,y,z
1/2-x,-y,1/2+z
x,-y,-z
1/2-x,y,1/2-z
-x,-y,-z
1/2+x,y,1/2-z
-x,y,z
1/2+x,-y,1/2+z
loop_
_atom_site_type_symbol
_atom_site_label
_atom_site_fract_x
_atom_site_fract_y
_atom_site_fract_z
Si Si1 0.222882 0.303024 0.872623
Si Si2 0.221891 0.976942 0.090413
Si Si3 0.717893 0.460042 0.680827
Si Si4 0.277946 0.877058 0.526339
Si Si5 0.282695 0.143632 0.680050
Si Si6 0.722371 0.704953 0.510931
Si Si7 0.777055 0.453756 0.060486
O O1 0.283926 0.373772 0.831989
O O2 0.287876 0.221371 0.849404
O O3 0.000000 0.302405 0.871176
O O4 0.274932 0.312602 0.942091
O O5 0.286012 0.933462 0.149319
O O6 0.000000 0.981004 0.090282
O O7 0.283276 0.062765 0.076886
O O8 0.270825 0.920057 0.035642
O O9 0.750000 0.483552 0.750000
O O10 0.500000 0.458686 0.674527
O O11 0.783935 0.510459 0.624050
O O12 0.500000 0.873973 0.527220
O O13 0.215107 0.789937 0.528232
O O14 0.250000 0.145100 0.750000
O O15 0.500000 0.144578 0.669176
O O16 0.500000 0.706419 0.511786
O O17 0.779095 0.634034 0.551755
O O18 0.000000 0.456188 0.060443
O O19 0.721898 0.500000 0.000000
#
# Coordination Sequence:
#
# PCOD9414354 Si02
#       7
#     8   8   8   8   8   8   8
#     4   9  15  24  39  61  87 111 135 167 210 253
#     4   8  13  21  34  54  80 105 129 159 200 243
#     4  10  19  30  44  63  88 116 144 174 210 255
#     4   8  12  19  34  56  80 102 124 162 212 247
#     4  10  18  27  39  58  85 114 138 162 197 244
#     4   9  13  20  37  61  86 105 129 175 223 249
#     4   9  15  24  40  62  84 108 141 180 216 250
#
# _framework density 19.600214999999999
#
# number of rings (size 3 to 8) (size 9 to 14) (size 15 to 20)
#    0.000    3.000    2.857    1.286    0.000    0.000 
#    0.000    0.000    0.000    1.286    0.000    2.000 
#    0.000    0.000    0.000    0.000    0.000    0.000 
#
# Total GULP energy -312264.684443 kJ/mol
# GULP energy per Si atom -5576.155079 kJ/mol
# Density = 1.955560 g / cm^3
# Si number density = 19.600215 Si / 1000 Ang^3
#
#
#
# Elastic Constant Matrix: (Units=GPa)
#
#
# Indices 1 2 3 4 5 6 
#
# 1 76.0911 3.3658 -0.1897 0.0000 0.0000 0.0000
# 2 3.3658 150.6243 75.1282 0.0000 0.0000 0.0000
# 3 -0.1897 75.1282 126.9168 0.0000 0.0000 0.0000
# 4 0.0000 0.0000 0.0000 37.9598 0.0000 0.0000
# 5 0.0000 0.0000 0.0000 0.0000 2.8325 0.0000
# 6 0.0000 0.0000 0.0000 0.0000 0.0000 -35.1135
#
#
#
# Elastic Compliance Matrix: (Units=1/GPa)
#
#
# Indices 1 2 3 4 5 6 
#
# 1 0.013162 -0.000431 0.000275 0.000000 0.000000 0.000000
# 2 -0.000431 0.009435 -0.005585 0.000000 0.000000 0.000000
# 3 0.000275 -0.005585 0.011186 0.000000 0.000000 0.000000
# 4 0.000000 0.000000 0.000000 0.026344 0.000000 0.000000
# 5 0.000000 0.000000 0.000000 0.000000 0.353047 0.000000
# 6 0.000000 0.000000 0.000000 0.000000 0.000000 -0.028479
#
#
# Mechanical properties :
#
#
# Convention : Reuss Voigt Hill
#
# Bulk Modulus (GPa) = 44.84526 56.69340 50.76933
# Shear Modulus (GPa) = 12.38819 19.49096 15.93957
#
# Velocity S-wave (km/s) = 2.51677 3.15687 2.85482
# Velocity P-wave (km/s) = 5.60136 6.50196 6.06839
#
# Compressibility (1/GPa) = 0.02229890
#
# Stress axis : x y z
#
# Youngs Moduli (GPa) = 75.97688 105.99339 89.39862
#
# Poissons Ratio (x) = 0.04571 -0.02458
# Poissons Ratio (y) = 0.03276 0.49933
# Poissons Ratio (z) = -0.02089 0.59202
#
# Static dielectric constant tensor:
#      x y z
#    x 1.794600 0.000000 0.000000 
#    y 0.000000 1.700210 0.000000 
#    z 0.000000 0.000000 1.640830 
# 
# From -- ./inp_files/27721.got.cif
#   From: 2010.05.17/outbox.cif.g08.bks.cpg/sg53_14_cif.got.tgz:27721.got - 2010.06.03 12:45:16.
