data_PCOD9414363
_publ_section_title
;
Structure prediction by ZEFSAII (Michael W. Deem and Ramdas Pophale) SiO2 
 PCOD9414363
Probable space group: P M N A
;
_chemical_formula_sum "Si O2"
_cell_formula_units_Z 56
_cell_length_a 8.678549
_cell_length_b 16.718060
_cell_length_c 25.397664
_cell_angle_alpha 90.000000
_cell_angle_beta 90.000000
_cell_angle_gamma 90.000000
_cell_volume 3684.909047
_symmetry_space_group_name_H-M "P M N A"
_symmetry_group_IT_number 53
_symmetry_cell_setting 'orthorhombic'
loop_
_space_group_symop_operation_xyz
x,y,z
1/2-x,-y,1/2+z
x,-y,-z
1/2-x,y,1/2-z
-x,-y,-z
1/2+x,y,1/2-z
-x,y,z
1/2+x,-y,1/2+z
loop_
_atom_site_type_symbol
_atom_site_label
_atom_site_fract_x
_atom_site_fract_y
_atom_site_fract_z
Si Si1 0.313683 0.522917 0.414418
Si Si2 0.686710 0.193535 0.485848
Si Si3 0.187335 0.625549 0.985778
Si Si4 0.183731 0.874937 0.405539
Si Si5 0.685495 0.771873 0.193811
Si Si6 0.815434 0.586165 0.306846
Si Si7 0.678807 0.033150 0.439786
O O1 0.500000 0.524238 0.411078
O O2 0.266823 0.439247 0.441820
O O3 0.266375 0.591285 0.456857
O O4 0.245349 0.538059 0.357128
O O5 0.500000 0.191721 0.485609
O O6 0.739232 0.284030 0.475771
O O7 0.742103 0.166538 0.543406
O O8 0.737110 0.124176 0.445078
O O9 0.000000 0.625895 0.986007
O O10 0.236938 0.828236 0.353676
O O11 0.000000 0.868082 0.409733
O O12 0.229835 0.968157 0.406322
O O13 0.750000 0.797914 0.250000
O O14 0.500000 0.773328 0.195595
O O15 0.732731 0.679331 0.185404
O O16 0.750000 0.560388 0.250000
O O17 0.000000 0.582817 0.305154
O O18 0.500000 0.033126 0.423409
O O19 0.683583 0.000000 0.500000
#
# Coordination Sequence:
#
# PCOD9414363 Si02
#       7
#     8   8   8   8   8   8   8
#     4   9  16  28  45  65  87 112 143 174 209 252
#     4   9  16  27  42  60  83 112 143 168 194 237
#     4   8  15  27  44  64  87 115 143 172 207 251
#     4  10  18  27  40  60  85 109 134 169 210 243
#     4   9  19  31  42  59  82 108 138 169 201 242
#     4  10  19  31  45  62  85 112 142 175 210 248
#     4   8  15  26  39  57  80 107 139 166 190 232
#
# _framework density 15.197118
#
# number of rings (size 3 to 8) (size 9 to 14) (size 15 to 20)
#    0.000    3.000    0.000    3.429    0.000    4.286 
#    0.000    2.143    0.000    0.000    0.000    1.000 
#    0.000    2.286    0.000    0.000    0.000    0.000 
#
# Total GULP energy -311840.387333 kJ/mol
# GULP energy per Si atom -5568.578345 kJ/mol
# Density = 1.516253 g / cm^3
# Si number density = 15.197118 Si / 1000 Ang^3
#
#
#
# Elastic Constant Matrix: (Units=GPa)
#
#
# Indices 1 2 3 4 5 6 
#
# 1 12.6133 15.1156 19.7464 0.0000 0.0000 0.0000
# 2 15.1156 112.3574 51.6426 0.0000 0.0000 0.0000
# 3 19.7464 51.6426 102.6200 0.0000 0.0000 0.0000
# 4 0.0000 0.0000 0.0000 23.3826 0.0000 0.0000
# 5 0.0000 0.0000 0.0000 0.0000 22.5766 0.0000
# 6 0.0000 0.0000 0.0000 0.0000 0.0000 23.5058
#
#
#
# Elastic Compliance Matrix: (Units=1/GPa)
#
#
# Indices 1 2 3 4 5 6 
#
# 1 0.117603 -0.007051 -0.019081 0.000000 0.000000 0.000000
# 2 -0.007051 0.012001 -0.004683 0.000000 0.000000 0.000000
# 3 -0.019081 -0.004683 0.015773 0.000000 0.000000 0.000000
# 4 0.000000 0.000000 0.000000 0.042767 0.000000 0.000000
# 5 0.000000 0.000000 0.000000 0.000000 0.044294 0.000000
# 6 0.000000 0.000000 0.000000 0.000000 0.000000 0.042543
#
#
# Mechanical properties :
#
#
# Convention : Reuss Voigt Hill
#
# Bulk Modulus (GPa) = 11.94072 44.51109 28.22591
# Shear Modulus (GPa) = 13.71650 23.29876 18.50763
#
# Velocity S-wave (km/s) = 3.00754 3.91973 3.49354
# Velocity P-wave (km/s) = 4.46483 7.05964 5.90649
#
# Compressibility (1/GPa) = 0.08374703
#
# Stress axis : x y z
#
# Youngs Moduli (GPa) = 8.50321 83.32632 63.40031
#
# Poissons Ratio (x) = 0.58754 1.20974
# Poissons Ratio (y) = 0.05996 0.29688
# Poissons Ratio (z) = 0.16225 0.39019
#
# Static dielectric constant tensor:
#      x y z
#    x 1.515960 0.000000 0.000000 
#    y 0.000000 1.534690 0.000000 
#    z 0.000000 0.000000 1.477030 
# 
# From -- ./inp_files/34365.got.cif
#   From: 2010.05.17/outbox.cif.g08.bks.cpg/sg53_18_cif.got.tgz:34365.got - 2010.06.03 12:45:16.
