data_PCOD9414761
_publ_section_title
;
Structure prediction by ZEFSAII (Michael W. Deem and Ramdas Pophale) SiO2 
 PCOD9414761
Probable space group: P M N A
;
_chemical_formula_sum "Si O2"
_cell_formula_units_Z 48
_cell_length_a 8.590016
_cell_length_b 32.137149
_cell_length_c 9.225803
_cell_angle_alpha 90.000000
_cell_angle_beta 90.000000
_cell_angle_gamma 90.000000
_cell_volume 2546.862482
_symmetry_space_group_name_H-M "P M N A"
_symmetry_group_IT_number 53
_symmetry_cell_setting 'orthorhombic'
loop_
_space_group_symop_operation_xyz
x,y,z
1/2-x,-y,1/2+z
x,-y,-z
1/2-x,y,1/2-z
-x,-y,-z
1/2+x,y,1/2-z
-x,y,z
1/2+x,-y,1/2+z
loop_
_atom_site_type_symbol
_atom_site_label
_atom_site_fract_x
_atom_site_fract_y
_atom_site_fract_z
Si Si1 0.187862 0.540947 0.587193
Si Si2 0.312104 0.040780 0.587795
Si Si3 0.312581 0.376155 0.912819
Si Si4 0.185914 0.789987 0.584910
Si Si5 0.185996 0.297102 0.085557
Si Si6 0.187120 0.876750 0.913976
O O1 0.240539 0.500000 0.500000
O O2 0.250000 0.540922 0.750000
O O3 0.234740 0.582702 0.502348
O O4 0.000000 0.540209 0.592236
O O5 0.250000 0.039861 0.750000
O O6 0.500000 0.040119 0.591190
O O7 0.265154 0.083046 0.505895
O O8 0.259055 0.000000 0.500000
O O9 0.250000 0.378922 0.750000
O O10 0.500000 0.373908 0.911441
O O11 0.245358 0.335591 0.991737
O O12 0.250000 0.790404 0.750000
O O13 0.251291 0.746822 0.523257
O O14 0.246889 0.833522 0.522063
O O15 0.000000 0.789243 0.586432
O O16 0.250000 0.301495 0.250000
O O17 0.000000 0.296038 0.091064
O O18 0.250000 0.881330 0.750000
O O19 0.000000 0.874164 0.908510
#
# Coordination Sequence:
#
# PCOD9414761 Si02
#       6
#     8   8   8   8   8   8
#     4  10  22  39  60  87 117 150 189 232 279 333
#     4  10  22  38  56  80 109 142 181 224 270 323
#     4  11  23  39  58  83 115 151 192 235 284 337
#     4  10  18  31  53  81 111 144 184 227 276 330
#     4  11  21  36  58  84 114 148 189 235 282 332
#     4  10  19  33  54  81 111 143 182 225 273 327
#
# _framework density 18.846719
#
# number of rings (size 3 to 8) (size 9 to 14) (size 15 to 20)
#    0.000    1.667    0.000    7.500    0.000    4.667 
#    0.000    0.833    0.000    2.000    0.000    0.000 
#    0.000    0.000    0.000    0.000    0.000    0.000 
#
# Total GULP energy -268176.852811 kJ/mol
# GULP energy per Si atom -5587.017767 kJ/mol
# Density = 1.880382 g / cm^3
# Si number density = 18.846719 Si / 1000 Ang^3
#
#
#
# Elastic Constant Matrix: (Units=GPa)
#
#
# Indices 1 2 3 4 5 6 
#
# 1 95.1677 67.2969 37.6979 0.0000 0.0000 0.0000
# 2 67.2969 239.5569 105.1318 0.0000 0.0000 0.0000
# 3 37.6979 105.1318 127.3058 0.0000 0.0000 0.0000
# 4 0.0000 0.0000 0.0000 32.2284 0.0000 0.0000
# 5 0.0000 0.0000 0.0000 0.0000 31.0836 0.0000
# 6 0.0000 0.0000 0.0000 0.0000 0.0000 27.6772
#
#
#
# Elastic Compliance Matrix: (Units=1/GPa)
#
#
# Indices 1 2 3 4 5 6 
#
# 1 0.013255 -0.003139 -0.001333 0.000000 0.000000 0.000000
# 2 -0.003139 0.007290 -0.005091 0.000000 0.000000 0.000000
# 3 -0.001333 -0.005091 0.012454 0.000000 0.000000 0.000000
# 4 0.000000 0.000000 0.000000 0.031029 0.000000 0.000000
# 5 0.000000 0.000000 0.000000 0.000000 0.032171 0.000000
# 6 0.000000 0.000000 0.000000 0.000000 0.000000 0.036131
#
#
# Mechanical properties :
#
#
# Convention : Reuss Voigt Hill
#
# Bulk Modulus (GPa) = 72.07737 98.03154 85.05445
# Shear Modulus (GPa) = 32.03458 34.99142 33.51300
#
# Velocity S-wave (km/s) = 4.12727 4.31354 4.22143
# Velocity P-wave (km/s) = 7.81278 8.77137 8.30591
#
# Compressibility (1/GPa) = 0.01387398
#
# Stress axis : x y z
#
# Youngs Moduli (GPa) = 75.44132 137.16719 80.29374
#
# Poissons Ratio (x) = 0.43051 0.10705
# Poissons Ratio (y) = 0.23678 0.40879
# Poissons Ratio (z) = 0.10058 0.69834
#
# Static dielectric constant tensor:
#      x y z
#    x 1.637450 0.000000 0.000000 
#    y 0.000000 1.679950 0.000000 
#    z 0.000000 0.000000 1.635570 
# 
# From -- ./inp_files/6729.got.cif
#   From: 2010.05.17/outbox.cif.g08.bks.cpg/sg53_4_cif.got.tgz:6729.got - 2010.06.03 12:45:16.
