data_PCOD9414894
_publ_section_title
;
Structure prediction by ZEFSAII (Michael W. Deem and Ramdas Pophale) SiO2 
 PCOD9414894
Probable space group: P M N A
;
_chemical_formula_sum "Si O2"
_cell_formula_units_Z 48
_cell_length_a 15.262160
_cell_length_b 9.729599
_cell_length_c 14.609191
_cell_angle_alpha 90.000000
_cell_angle_beta 90.000000
_cell_angle_gamma 90.000000
_cell_volume 2169.387386
_symmetry_space_group_name_H-M "P M N A"
_symmetry_group_IT_number 53
_symmetry_cell_setting 'orthorhombic'
loop_
_space_group_symop_operation_xyz
x,y,z
1/2-x,-y,1/2+z
x,-y,-z
1/2-x,y,1/2-z
-x,-y,-z
1/2+x,y,1/2-z
-x,y,z
1/2+x,-y,1/2+z
loop_
_atom_site_type_symbol
_atom_site_label
_atom_site_fract_x
_atom_site_fract_y
_atom_site_fract_z
Si Si1 0.595684 0.957106 0.321942
Si Si2 0.157990 0.283227 0.697238
Si Si3 0.356757 0.251638 0.248591
Si Si4 0.169101 0.609004 0.928589
Si Si5 0.131424 0.460214 0.397834
Si Si6 0.244967 0.864942 0.040478
O O1 0.500000 0.959270 0.365137
O O2 0.605684 0.828583 0.254248
O O3 0.671003 0.933123 0.395600
O O4 0.610757 0.098832 0.268231
O O5 0.250000 0.310008 0.750000
O O6 0.107852 0.421321 0.673624
O O7 0.186918 0.218595 0.600954
O O8 0.250000 0.246711 0.250000
O O9 0.379859 0.348750 0.335654
O O10 0.388210 0.316751 0.152683
O O11 0.261939 0.538696 0.902492
O O12 0.127239 0.500000 0.000000
O O13 0.197255 0.753365 0.976035
O O14 0.101205 0.500000 0.500000
O O15 0.289971 0.000000 0.000000
#
# Coordination Sequence:
#
# PCOD9414894 Si02
#       6
#     8   8   8   8   8   8
#     4  11  25  40  55  83 127 171 201 239 298 370
#     4  10  20  35  60  88 116 150 197 247 299 351
#     4  10  20  36  60  88 119 154 203 251 299 358
#     4  10  18  32  57  97 123 144 186 253 313 355
#     4  10  19  33  59  94 115 144 191 262 309 347
#     4  11  20  35  62  94 119 151 200 253 305 365
#
# _framework density 22.126062999999998
#
# number of rings (size 3 to 8) (size 9 to 14) (size 15 to 20)
#    0.000    1.667    5.000    3.000    4.667    0.333 
#    0.000    0.833    0.000    6.500    0.000    0.000 
#    0.000    0.000    0.000    0.000    0.000    0.000 
#
# Total GULP energy -267995.617277 kJ/mol
# GULP energy per Si atom -5583.242027 kJ/mol
# Density = 2.207570 g / cm^3
# Si number density = 22.126063 Si / 1000 Ang^3
#
#
#
# Elastic Constant Matrix: (Units=GPa)
#
#
# Indices 1 2 3 4 5 6 
#
# 1 42.2430 -2.4036 -16.3293 0.0000 0.0000 0.0000
# 2 -2.4036 121.7916 26.3457 0.0000 0.0000 0.0000
# 3 -16.3293 26.3457 65.7081 0.0000 0.0000 0.0000
# 4 0.0000 0.0000 0.0000 47.1569 0.0000 0.0000
# 5 0.0000 0.0000 0.0000 0.0000 -7.1919 0.0000
# 6 0.0000 0.0000 0.0000 0.0000 0.0000 -27.7927
#
#
#
# Elastic Compliance Matrix: (Units=1/GPa)
#
#
# Indices 1 2 3 4 5 6 
#
# 1 0.026295 -0.000980 0.006927 0.000000 0.000000 0.000000
# 2 -0.000980 0.009027 -0.003863 0.000000 0.000000 0.000000
# 3 0.006927 -0.003863 0.018489 0.000000 0.000000 0.000000
# 4 0.000000 0.000000 0.000000 0.021206 0.000000 0.000000
# 5 0.000000 0.000000 0.000000 0.000000 -0.139045 0.000000
# 6 0.000000 0.000000 0.000000 0.000000 0.000000 -0.035981
#
#
# Mechanical properties :
#
#
# Convention : Reuss Voigt Hill
#
# Bulk Modulus (GPa) = 17.24713 27.21869 22.23291
# Shear Modulus (GPa) = -58.92579 17.24313 -20.84133
#
# Velocity S-wave (km/s) = -5.16620 2.79465 -3.07243
# Velocity P-wave (km/s) = 5.27014 4.76883 1.58629
#
# Compressibility (1/GPa) = 0.05798065
#
# Stress axis : x y z
#
# Youngs Moduli (GPa) = 38.03059 110.77866 54.08575
#
# Poissons Ratio (x) = 0.10851 -0.37467
# Poissons Ratio (y) = 0.03725 0.20892
# Poissons Ratio (z) = -0.26345 0.42792
#
# Static dielectric constant tensor:
#      x y z
#    x 1.833190 0.000000 0.000000 
#    y 0.000000 1.871230 0.000000 
#    z 0.000000 0.000000 1.871850 
# 
# From -- ./inp_files/23655.got.cif
#   From: 2010.05.17/outbox.cif.g08.bks.cpg/sg53_12_cif.got.tgz:23655.got - 2010.06.03 12:45:16.
