data_PCOD9414795
_publ_section_title
;
Structure prediction by ZEFSAII (Michael W. Deem and Ramdas Pophale) SiO2 
 PCOD9414795
Probable space group: P M N A
;
_chemical_formula_sum "Si O2"
_cell_formula_units_Z 52
_cell_length_a 13.572563
_cell_length_b 13.602261
_cell_length_c 16.918975
_cell_angle_alpha 90.000000
_cell_angle_beta 90.000000
_cell_angle_gamma 90.000000
_cell_volume 3123.539618
_symmetry_space_group_name_H-M "P M N A"
_symmetry_group_IT_number 53
_symmetry_cell_setting 'orthorhombic'
loop_
_space_group_symop_operation_xyz
x,y,z
1/2-x,-y,1/2+z
x,-y,-z
1/2-x,y,1/2-z
-x,-y,-z
1/2+x,y,1/2-z
-x,y,z
1/2+x,-y,1/2+z
loop_
_atom_site_type_symbol
_atom_site_label
_atom_site_fract_x
_atom_site_fract_y
_atom_site_fract_z
Si Si1 0.250000 0.775745 0.250000
Si Si2 0.723301 0.098990 0.966728
Si Si3 0.386168 0.394176 0.031969
Si Si4 0.389327 0.742144 0.122624
Si Si5 0.117838 0.935711 0.163152
Si Si6 0.115377 0.846184 0.768551
Si Si7 0.773732 0.231757 0.379145
O O1 0.306996 0.711979 0.185412
O O2 0.166857 0.847795 0.213410
O O3 0.648719 0.151966 0.907086
O O4 0.822434 0.070634 0.919284
O O5 0.742532 0.170977 0.040279
O O6 0.677732 0.000000 0.000000
O O7 0.500000 0.403858 0.060815
O O8 0.318660 0.336759 0.095121
O O9 0.352327 0.500000 0.000000
O O10 0.388931 0.325692 0.954350
O O11 0.500000 0.745439 0.154526
O O12 0.000000 0.924978 0.154631
O O13 0.137501 0.041537 0.204233
O O14 0.150300 0.824299 0.679380
O O15 0.174975 0.773726 0.826979
O O16 0.000000 0.831336 0.775647
#
# Coordination Sequence:
#
# PCOD9414795 Si02
#       7
#     4   8   8   8   8   8   8
#     4  10  18  32  46  68 104 132 166 206 238 288
#     4  10  19  31  47  69 102 132 168 205 238 285
#     4   9  18  35  57  77  96 122 161 208 255 302
#     4   9  19  32  49  72  96 126 161 200 245 290
#     4  10  20  31  47  69 100 144 177 202 240 288
#     4  10  20  32  49  73 104 138 171 205 247 299
#     4  10  19  33  51  74 101 132 167 210 253 295
#
# _framework density 16.647780000000001
#
# number of rings (size 3 to 8) (size 9 to 14) (size 15 to 20)
#    0.000    2.308    1.538    1.846    2.154    1.846 
#    0.000    1.538    0.000    0.462    0.000    0.000 
#    0.000    0.000    0.000    0.000    0.000    0.000 
#
# Total GULP energy -289651.325984 kJ/mol
# GULP energy per Si atom -5570.217807 kJ/mol
# Density = 1.660989 g / cm^3
# Si number density = 16.647780 Si / 1000 Ang^3
#
#
#
# Elastic Constant Matrix: (Units=GPa)
#
#
# Indices 1 2 3 4 5 6 
#
# 1 102.3764 28.0968 29.3243 0.0000 0.0000 0.0000
# 2 28.0968 52.6816 7.6442 0.0000 0.0000 0.0000
# 3 29.3243 7.6442 64.9951 0.0000 0.0000 0.0000
# 4 0.0000 0.0000 0.0000 16.6333 0.0000 0.0000
# 5 0.0000 0.0000 0.0000 0.0000 19.9777 0.0000
# 6 0.0000 0.0000 0.0000 0.0000 0.0000 17.0549
#
#
#
# Elastic Compliance Matrix: (Units=1/GPa)
#
#
# Indices 1 2 3 4 5 6 
#
# 1 0.012918 -0.006149 -0.005105 0.000000 0.000000 0.000000
# 2 -0.006149 0.022238 0.000159 0.000000 0.000000 0.000000
# 3 -0.005105 0.000159 0.017670 0.000000 0.000000 0.000000
# 4 0.000000 0.000000 0.000000 0.060120 0.000000 0.000000
# 5 0.000000 0.000000 0.000000 0.000000 0.050056 0.000000
# 6 0.000000 0.000000 0.000000 0.000000 0.000000 0.058634
#
#
# Mechanical properties :
#
#
# Convention : Reuss Voigt Hill
#
# Bulk Modulus (GPa) = 32.64109 38.90930 35.77519
# Shear Modulus (GPa) = 19.68204 21.06569 20.37386
#
# Velocity S-wave (km/s) = 3.44213 3.56107 3.50211
# Velocity P-wave (km/s) = 5.95375 6.35068 6.15541
#
# Compressibility (1/GPa) = 0.03063624
#
# Stress axis : x y z
#
# Youngs Moduli (GPa) = 77.41387 44.96767 56.59194
#
# Poissons Ratio (x) = 0.27649 0.28890
# Poissons Ratio (y) = 0.47599 -0.00898
# Poissons Ratio (z) = 0.39519 -0.00713
#
# Static dielectric constant tensor:
#      x y z
#    x 1.565670 0.000000 0.000000 
#    y 0.000000 1.555380 0.000000 
#    z 0.000000 0.000000 1.603050 
# 
# From -- ./inp_files/28443.got.cif
#   From: 2010.05.17/outbox.cif.g08.bks.cpg/sg53_15_cif.got.tgz:28443.got - 2010.06.03 12:45:16.
