data_PCOD9414969
_publ_section_title
;
Structure prediction by ZEFSAII (Michael W. Deem and Ramdas Pophale) SiO2 
 PCOD9414969
Probable space group: P M N A
;
_chemical_formula_sum "Si O2"
_cell_formula_units_Z 48
_cell_length_a 25.078818
_cell_length_b 6.510251
_cell_length_c 11.917548
_cell_angle_alpha 90.000000
_cell_angle_beta 90.000000
_cell_angle_gamma 90.000000
_cell_volume 1945.770911
_symmetry_space_group_name_H-M "P M N A"
_symmetry_group_IT_number 53
_symmetry_cell_setting 'orthorhombic'
loop_
_space_group_symop_operation_xyz
x,y,z
1/2-x,-y,1/2+z
x,-y,-z
1/2-x,y,1/2-z
-x,-y,-z
1/2+x,y,1/2-z
-x,y,z
1/2+x,-y,1/2+z
loop_
_atom_site_type_symbol
_atom_site_label
_atom_site_fract_x
_atom_site_fract_y
_atom_site_fract_z
Si Si1 0.439796 0.345214 0.589986
Si Si2 0.210804 0.176912 0.150856
Si Si3 0.605503 0.995597 0.733215
Si Si4 0.057686 0.388842 0.318313
Si Si5 0.160185 0.379860 0.681235
Si Si6 0.224420 0.694196 0.096042
O O1 0.414446 0.500000 0.500000
O O2 0.500000 0.298704 0.549509
O O3 0.413232 0.132263 0.627272
O O4 0.443360 0.476967 0.703926
O O5 0.250000 0.245967 0.250000
O O6 0.212481 0.302088 0.035938
O O7 0.151001 0.159090 0.193861
O O8 0.225861 0.939181 0.126075
O O9 0.631408 0.157418 0.819154
O O10 0.561653 0.851175 0.788051
O O11 0.115218 0.463782 0.363977
O O12 0.000000 0.428127 0.374195
O O13 0.215410 0.379615 0.616093
O O14 0.181849 0.392638 0.812101
#
# Coordination Sequence:
#
# PCOD9414969 Si02
#       6
#     8   8   8   8   8   8
#     4   9  19  33  50  77 115 159 208 251 299 370
#     4  10  18  33  59  92 120 156 204 259 324 391
#     4  10  19  34  55  81 122 160 202 257 316 375
#     4  10  21  34  55  84 119 164 215 259 307 377
#     4   9  18  37  56  85 123 164 206 254 320 378
#     4   9  17  34  57  85 128 159 200 265 314 390
#
# _framework density 24.668885
#
# number of rings (size 3 to 8) (size 9 to 14) (size 15 to 20)
#    0.000    2.500    3.333    0.500    0.000    8.000 
#    3.000    2.500    0.000    1.000    0.000    7.000 
#    0.000    0.000    0.000    0.000    0.000    0.000 
#
# Total GULP energy -268247.701114 kJ/mol
# GULP energy per Si atom -5588.493773 kJ/mol
# Density = 2.461274 g / cm^3
# Si number density = 24.668885 Si / 1000 Ang^3
#
#
#
# Elastic Constant Matrix: (Units=GPa)
#
#
# Indices 1 2 3 4 5 6 
#
# 1 169.1173 50.0248 13.5751 0.0000 0.0000 0.0000
# 2 50.0248 118.9594 23.1832 0.0000 0.0000 0.0000
# 3 13.5751 23.1832 72.2964 0.0000 0.0000 0.0000
# 4 0.0000 0.0000 0.0000 19.5451 0.0000 0.0000
# 5 0.0000 0.0000 0.0000 0.0000 12.0287 0.0000
# 6 0.0000 0.0000 0.0000 0.0000 0.0000 10.6153
#
#
#
# Elastic Compliance Matrix: (Units=1/GPa)
#
#
# Indices 1 2 3 4 5 6 
#
# 1 0.006763 -0.002770 -0.000382 0.000000 0.000000 0.000000
# 2 -0.002770 0.010101 -0.002719 0.000000 0.000000 0.000000
# 3 -0.000382 -0.002719 0.014776 0.000000 0.000000 0.000000
# 4 0.000000 0.000000 0.000000 0.051164 0.000000 0.000000
# 5 0.000000 0.000000 0.000000 0.000000 0.083134 0.000000
# 6 0.000000 0.000000 0.000000 0.000000 0.000000 0.094203
#
#
# Mechanical properties :
#
#
# Convention : Reuss Voigt Hill
#
# Bulk Modulus (GPa) = 50.25465 59.32659 54.79062
# Shear Modulus (GPa) = 17.95242 26.67718 22.31480
#
# Velocity S-wave (km/s) = 2.70058 3.29205 3.01087
# Velocity P-wave (km/s) = 5.49000 6.20898 5.86053
#
# Compressibility (1/GPa) = 0.01989865
#
# Stress axis : x y z
#
# Youngs Moduli (GPa) = 147.86491 99.00248 67.67954
#
# Poissons Ratio (x) = 0.27419 0.02584
# Poissons Ratio (y) = 0.40952 0.18402
# Poissons Ratio (z) = 0.05645 0.26918
#
# Static dielectric constant tensor:
#      x y z
#    x 1.972330 0.000000 0.000000 
#    y 0.000000 2.055550 0.000000 
#    z 0.000000 0.000000 1.966810 
# 
# From -- ./inp_files/35582.got.cif
#   From: 2010.05.17/outbox.cif.g08.bks.cpg/sg53_18_cif.got.tgz:35582.got - 2010.06.03 12:45:16.
