data_PCOD9414948
_publ_section_title
;
Structure prediction by ZEFSAII (Michael W. Deem and Ramdas Pophale) SiO2 
 PCOD9414948
Probable space group: P M N A
;
_chemical_formula_sum "Si O2"
_cell_formula_units_Z 56
_cell_length_a 17.848462
_cell_length_b 9.394803
_cell_length_c 16.700314
_cell_angle_alpha 90.000000
_cell_angle_beta 90.000000
_cell_angle_gamma 90.000000
_cell_volume 2800.355151
_symmetry_space_group_name_H-M "P M N A"
_symmetry_group_IT_number 53
_symmetry_cell_setting 'orthorhombic'
loop_
_space_group_symop_operation_xyz
x,y,z
1/2-x,-y,1/2+z
x,-y,-z
1/2-x,y,1/2-z
-x,-y,-z
1/2+x,y,1/2-z
-x,y,z
1/2+x,-y,1/2+z
loop_
_atom_site_type_symbol
_atom_site_label
_atom_site_fract_x
_atom_site_fract_y
_atom_site_fract_z
Si Si1 0.245798 0.431409 0.910360
Si Si2 0.692906 0.307319 0.323988
Si Si3 0.233871 0.912154 0.568689
Si Si4 0.287413 0.151686 0.670455
Si Si5 0.585239 0.062209 0.275654
Si Si6 0.583442 0.501769 0.096526
Si Si7 0.580660 0.170673 0.098405
O O1 0.196119 0.529818 0.850817
O O2 0.214491 0.272619 0.897346
O O3 0.334726 0.432205 0.884669
O O4 0.242573 0.500000 0.000000
O O5 0.750000 0.288658 0.250000
O O6 0.727566 0.227581 0.400403
O O7 0.620289 0.213468 0.304376
O O8 0.150753 0.867350 0.543989
O O9 0.273947 0.000000 0.500000
O O10 0.234556 0.021839 0.642117
O O11 0.250000 0.215187 0.750000
O O12 0.363862 0.068066 0.692467
O O13 0.500000 0.046635 0.302969
O O14 0.583971 0.078586 0.179209
O O15 0.500000 0.557215 0.123165
O O16 0.587681 0.336502 0.122674
O O17 0.580501 0.500000 0.000000
O O18 0.500000 0.153366 0.058715
#
# Coordination Sequence:
#
# PCOD9414948 Si02
#       7
#     8   8   8   8   8   8   8
#     4  11  22  36  59  87 117 155 197 249 305 356
#     4  11  19  37  60  85 110 153 204 240 279 356
#     4  11  20  33  55  83 117 153 193 242 284 343
#     4  11  22  38  57  88 120 153 198 250 300 354
#     4  10  20  38  63  85 113 153 201 252 299 353
#     4   9  18  32  52  82 123 162 193 230 281 352
#     4  10  18  33  56  83 116 157 197 232 284 353
#
# _framework density 19.997463
#
# number of rings (size 3 to 8) (size 9 to 14) (size 15 to 20)
#    0.000    1.571    4.286    2.143    2.000    0.286 
#    0.000    2.143    0.000   16.286    0.000    0.000 
#    0.000    0.000    0.000    0.000    0.000    0.000 
#
# Total GULP energy -311887.786069 kJ/mol
# GULP energy per Si atom -5569.424751 kJ/mol
# Density = 1.995195 g / cm^3
# Si number density = 19.997463 Si / 1000 Ang^3
#
#
#
# Elastic Constant Matrix: (Units=GPa)
#
#
# Indices 1 2 3 4 5 6 
#
# 1 108.4413 37.0626 10.7120 0.0000 0.0000 0.0000
# 2 37.0626 97.1951 9.3634 0.0000 0.0000 0.0000
# 3 10.7120 9.3634 37.4862 0.0000 0.0000 0.0000
# 4 0.0000 0.0000 0.0000 42.1600 0.0000 0.0000
# 5 0.0000 0.0000 0.0000 0.0000 4.3463 0.0000
# 6 0.0000 0.0000 0.0000 0.0000 0.0000 8.5402
#
#
#
# Elastic Compliance Matrix: (Units=1/GPa)
#
#
# Indices 1 2 3 4 5 6 
#
# 1 0.010763 -0.003902 -0.002101 0.000000 0.000000 0.000000
# 2 -0.003902 0.011957 -0.001872 0.000000 0.000000 0.000000
# 3 -0.002101 -0.001872 0.027744 0.000000 0.000000 0.000000
# 4 0.000000 0.000000 0.000000 0.023719 0.000000 0.000000
# 5 0.000000 0.000000 0.000000 0.000000 0.230082 0.000000
# 6 0.000000 0.000000 0.000000 0.000000 0.000000 0.117094
#
#
# Mechanical properties :
#
#
# Convention : Reuss Voigt Hill
#
# Bulk Modulus (GPa) = 28.80581 39.71094 34.25837
# Shear Modulus (GPa) = 11.14384 23.40827 17.27605
#
# Velocity S-wave (km/s) = 2.36320 3.42506 2.94243
# Velocity P-wave (km/s) = 4.67785 5.96175 5.35839
#
# Compressibility (1/GPa) = 0.03471522
#
# Stress axis : x y z
#
# Youngs Moduli (GPa) = 92.91446 83.63539 36.04333
#
# Poissons Ratio (x) = 0.32631 0.07573
# Poissons Ratio (y) = 0.36252 0.06746
# Poissons Ratio (z) = 0.19521 0.15653
#
# Static dielectric constant tensor:
#      x y z
#    x 1.739500 0.000000 0.000000 
#    y 0.000000 1.715460 0.000000 
#    z 0.000000 0.000000 1.805240 
# 
# From -- ./inp_files/33057.got.cif
#   From: 2010.05.17/outbox.cif.g08.bks.cpg/sg53_17_cif.got.tgz:33057.got - 2010.06.03 12:45:16.
