data_PCOD9414562
_publ_section_title
;
Structure prediction by ZEFSAII (Michael W. Deem and Ramdas Pophale) SiO2 
 PCOD9414562
Probable space group: P M N A
;
_chemical_formula_sum "Si O2"
_cell_formula_units_Z 56
_cell_length_a 8.953646
_cell_length_b 17.439238
_cell_length_c 22.854488
_cell_angle_alpha 90.000000
_cell_angle_beta 90.000000
_cell_angle_gamma 90.000000
_cell_volume 3568.608625
_symmetry_space_group_name_H-M "P M N A"
_symmetry_group_IT_number 53
_symmetry_cell_setting 'orthorhombic'
loop_
_space_group_symop_operation_xyz
x,y,z
1/2-x,-y,1/2+z
x,-y,-z
1/2-x,y,1/2-z
-x,-y,-z
1/2+x,y,1/2-z
-x,y,z
1/2+x,-y,1/2+z
loop_
_atom_site_type_symbol
_atom_site_label
_atom_site_fract_x
_atom_site_fract_y
_atom_site_fract_z
Si Si1 0.174692 0.993877 0.421568
Si Si2 0.179375 0.442267 0.552233
Si Si3 0.328967 0.256771 0.665368
Si Si4 0.172496 0.098496 0.696106
Si Si5 0.179581 0.580870 0.312382
Si Si6 0.828562 0.281805 0.971967
Si Si7 0.179293 0.120325 0.016131
O O1 0.262936 0.073463 0.428038
O O2 0.000000 0.006032 0.435088
O O3 0.184874 0.955619 0.359108
O O4 0.246260 0.930625 0.464950
O O5 0.230159 0.500000 0.500000
O O6 0.225711 0.452124 0.621909
O O7 0.232133 0.358469 0.530867
O O8 0.000000 0.445355 0.553741
O O9 0.500000 0.266877 0.685664
O O10 0.258751 0.177966 0.686342
O O11 0.232448 0.330561 0.682988
O O12 0.330895 0.252744 0.594977
O O13 0.250000 0.058002 0.750000
O O14 0.000000 0.115755 0.707220
O O15 0.250000 0.551636 0.250000
O O16 0.000000 0.575268 0.308416
O O17 0.000000 0.300696 0.988321
O O18 0.775997 0.209221 0.010092
O O19 0.000000 0.116912 0.011008
#
# Coordination Sequence:
#
# PCOD9414562 Si02
#       7
#     8   8   8   8   8   8   8
#     4  10  20  31  44  65  90 118 155 195 233 272
#     4   9  19  34  51  72  98 128 160 197 240 285
#     4  10  18  30  45  63  92 124 159 193 224 270
#     4  11  22  32  43  60  87 122 160 196 234 277
#     4  10  19  31  47  68  95 126 160 193 231 281
#     4   9  18  30  47  71  95 123 156 190 231 281
#     4  10  18  30  48  68  91 119 151 190 233 274
#
# _framework density 15.692391000000001
#
# number of rings (size 3 to 8) (size 9 to 14) (size 15 to 20)
#    0.000    2.143    1.429    3.429    0.000    4.286 
#    0.000    0.000    0.000    0.000    0.000    1.000 
#    0.000    2.286    0.000    0.000    0.000    0.000 
#
# Total GULP energy -311742.970225 kJ/mol
# GULP energy per Si atom -5566.838754 kJ/mol
# Density = 1.565667 g / cm^3
# Si number density = 15.692391 Si / 1000 Ang^3
#
#
#
# Elastic Constant Matrix: (Units=GPa)
#
#
# Indices 1 2 3 4 5 6 
#
# 1 55.1964 23.3288 30.7177 0.0000 0.0000 0.0000
# 2 23.3288 63.5394 40.1846 0.0000 0.0000 0.0000
# 3 30.7177 40.1846 81.3407 0.0000 0.0000 0.0000
# 4 0.0000 0.0000 0.0000 12.9484 0.0000 0.0000
# 5 0.0000 0.0000 0.0000 0.0000 22.8928 0.0000
# 6 0.0000 0.0000 0.0000 0.0000 0.0000 21.8099
#
#
#
# Elastic Compliance Matrix: (Units=1/GPa)
#
#
# Indices 1 2 3 4 5 6 
#
# 1 0.023767 -0.004436 -0.006784 0.000000 0.000000 0.000000
# 2 -0.004436 0.023718 -0.010042 0.000000 0.000000 0.000000
# 3 -0.006784 -0.010042 0.019817 0.000000 0.000000 0.000000
# 4 0.000000 0.000000 0.000000 0.077229 0.000000 0.000000
# 5 0.000000 0.000000 0.000000 0.000000 0.043682 0.000000
# 6 0.000000 0.000000 0.000000 0.000000 0.000000 0.045851
#
#
# Mechanical properties :
#
#
# Convention : Reuss Voigt Hill
#
# Bulk Modulus (GPa) = 40.35812 43.17096 41.76454
# Shear Modulus (GPa) = 17.55322 18.58659 18.06991
#
# Velocity S-wave (km/s) = 3.34815 3.44529 3.39707
# Velocity P-wave (km/s) = 6.38129 6.58766 6.48530
#
# Compressibility (1/GPa) = 0.02477816
#
# Stress axis : x y z
#
# Youngs Moduli (GPa) = 42.07438 42.16222 50.46148
#
# Poissons Ratio (x) = 0.18702 0.34234
# Poissons Ratio (y) = 0.18663 0.50674
# Poissons Ratio (z) = 0.28544 0.42340
#
# Static dielectric constant tensor:
#      x y z
#    x 1.536720 0.000000 0.000000 
#    y 0.000000 1.505010 0.000000 
#    z 0.000000 0.000000 1.572100 
# 
# From -- ./inp_files/34387.got.cif
#   From: 2010.05.17/outbox.cif.g08.bks.cpg/sg53_18_cif.got.tgz:34387.got - 2010.06.03 12:45:16.
