data_PCOD9414420
_publ_section_title
;
Structure prediction by ZEFSAII (Michael W. Deem and Ramdas Pophale) SiO2 
 PCOD9414420
Probable space group: P M N A
;
_chemical_formula_sum "Si O2"
_cell_formula_units_Z 48
_cell_length_a 8.158747
_cell_length_b 15.491976
_cell_length_c 21.387231
_cell_angle_alpha 90.000000
_cell_angle_beta 90.000000
_cell_angle_gamma 90.000000
_cell_volume 2703.241473
_symmetry_space_group_name_H-M "P M N A"
_symmetry_group_IT_number 53
_symmetry_cell_setting 'orthorhombic'
loop_
_space_group_symop_operation_xyz
x,y,z
1/2-x,-y,1/2+z
x,-y,-z
1/2-x,y,1/2-z
-x,-y,-z
1/2+x,y,1/2-z
-x,y,z
1/2+x,-y,1/2+z
loop_
_atom_site_type_symbol
_atom_site_label
_atom_site_fract_x
_atom_site_fract_y
_atom_site_fract_z
Si Si1 0.806790 0.427721 0.547073
Si Si2 0.693222 0.760252 0.486465
Si Si3 0.694237 0.804394 0.342500
Si Si4 0.304948 0.384971 0.684004
Si Si5 0.198003 0.993221 0.183910
Si Si6 0.799290 0.929542 0.947844
O O1 0.737773 0.500000 0.500000
O O2 0.775320 0.332923 0.518181
O O3 0.739992 0.428457 0.618046
O O4 0.000000 0.441444 0.552527
O O5 0.500000 0.745336 0.498037
O O6 0.706504 0.802001 0.417465
O O7 0.755677 0.833389 0.533489
O O8 0.500000 0.803957 0.327191
O O9 0.765822 0.713409 0.319446
O O10 0.764066 0.894602 0.319029
O O11 0.250000 0.424507 0.750000
O O12 0.500000 0.379033 0.684796
O O13 0.250000 0.032203 0.250000
O O14 0.000000 0.989799 0.181363
O O15 0.252339 0.041628 0.121171
O O16 0.000000 0.928510 0.949557
O O17 0.748661 0.000000 0.000000
#
# Coordination Sequence:
#
# PCOD9414420 Si02
#       6
#     8   8   8   8   8   8
#     4  10  21  36  53  74 102 134 168 210 263 310
#     4   9  16  29  51  76  95 121 166 212 251 292
#     4   8  14  25  43  68  96 126 157 192 236 288
#     4  10  19  31  50  76 105 135 166 202 249 306
#     4  10  18  28  43  65  96 131 165 200 241 285
#     4   9  15  27  50  72  93 126 169 207 238 284
#
# _framework density 17.756460000000001
#
# number of rings (size 3 to 8) (size 9 to 14) (size 15 to 20)
#    0.000    2.667    1.667    2.500    0.000    1.333 
#    0.000    4.167    0.000    2.000    0.000    4.667 
#    0.000    0.000    0.000    0.000    0.000    0.000 
#
# Total GULP energy -267426.986537 kJ/mol
# GULP energy per Si atom -5571.395553 kJ/mol
# Density = 1.771605 g / cm^3
# Si number density = 17.756460 Si / 1000 Ang^3
#
#
#
# Elastic Constant Matrix: (Units=GPa)
#
#
# Indices 1 2 3 4 5 6 
#
# 1 19.7083 9.5298 20.2570 0.0000 0.0000 0.0000
# 2 9.5298 71.1003 65.2314 0.0000 0.0000 0.0000
# 3 20.2570 65.2314 149.7324 0.0000 0.0000 0.0000
# 4 0.0000 0.0000 0.0000 16.2054 0.0000 0.0000
# 5 0.0000 0.0000 0.0000 0.0000 21.7984 0.0000
# 6 0.0000 0.0000 0.0000 0.0000 0.0000 2.7191
#
#
#
# Elastic Compliance Matrix: (Units=1/GPa)
#
#
# Indices 1 2 3 4 5 6 
#
# 1 0.058976 -0.000974 -0.007554 0.000000 0.000000 0.000000
# 2 -0.000974 0.023445 -0.010082 0.000000 0.000000 0.000000
# 3 -0.007554 -0.010082 0.012093 0.000000 0.000000 0.000000
# 4 0.000000 0.000000 0.000000 0.061708 0.000000 0.000000
# 5 0.000000 0.000000 0.000000 0.000000 0.045875 0.000000
# 6 0.000000 0.000000 0.000000 0.000000 0.000000 0.367775
#
#
# Mechanical properties :
#
#
# Convention : Reuss Voigt Hill
#
# Bulk Modulus (GPa) = 17.45419 47.84193 32.64806
# Shear Modulus (GPa) = 7.98480 17.84609 12.91544
#
# Velocity S-wave (km/s) = 2.12288 3.17369 2.69990
# Velocity P-wave (km/s) = 3.98245 6.35859 5.30526
#
# Compressibility (1/GPa) = 0.05729284
#
# Stress axis : x y z
#
# Youngs Moduli (GPa) = 16.95612 42.65276 82.69287
#
# Poissons Ratio (x) = 0.04154 0.62470
# Poissons Ratio (y) = 0.01651 0.83373
# Poissons Ratio (z) = 0.12809 0.43003
#
# Static dielectric constant tensor:
#      x y z
#    x 1.628390 0.000000 0.000000 
#    y 0.000000 1.617940 0.000000 
#    z 0.000000 0.000000 1.645350 
# 
# From -- ./inp_files/30938.got.cif
#   From: 2010.05.17/outbox.cif.g08.bks.cpg/sg53_16_cif.got.tgz:30938.got - 2010.06.03 12:45:16.
