data_PCOD9414621
_publ_section_title
;
Structure prediction by ZEFSAII (Michael W. Deem and Ramdas Pophale) SiO2 
 PCOD9414621
Probable space group: P M N A
;
_chemical_formula_sum "Si O2"
_cell_formula_units_Z 48
_cell_length_a 8.411850
_cell_length_b 18.988126
_cell_length_c 16.804088
_cell_angle_alpha 90.000000
_cell_angle_beta 90.000000
_cell_angle_gamma 90.000000
_cell_volume 2684.037454
_symmetry_space_group_name_H-M "P M N A"
_symmetry_group_IT_number 53
_symmetry_cell_setting 'orthorhombic'
loop_
_space_group_symop_operation_xyz
x,y,z
1/2-x,-y,1/2+z
x,-y,-z
1/2-x,y,1/2-z
-x,-y,-z
1/2+x,y,1/2-z
-x,y,z
1/2+x,-y,1/2+z
loop_
_atom_site_type_symbol
_atom_site_label
_atom_site_fract_x
_atom_site_fract_y
_atom_site_fract_z
Si Si1 0.309355 0.333234 0.664618
Si Si2 0.310558 0.918975 0.505674
Si Si3 0.686830 0.156795 0.163428
Si Si4 0.313868 0.710355 0.586194
Si Si5 0.693921 0.580123 0.492113
Si Si6 0.686626 0.213095 0.932045
O O1 0.250000 0.358486 0.750000
O O2 0.500000 0.328291 0.663839
O O3 0.259157 0.384427 0.591849
O O4 0.234662 0.256624 0.645593
O O5 0.500000 0.915321 0.494707
O O6 0.268025 0.886710 0.592061
O O7 0.228428 0.868757 0.440254
O O8 0.259846 0.000000 0.500000
O O9 0.750000 0.136987 0.250000
O O10 0.500000 0.145487 0.158176
O O11 0.723810 0.239525 0.147404
O O12 0.500000 0.709067 0.606887
O O13 0.256510 0.631808 0.564442
O O14 0.289887 0.750380 0.501876
O O15 0.748290 0.500000 0.500000
O O16 0.500000 0.580437 0.493413
O O17 0.500000 0.222992 0.948762
#
# Coordination Sequence:
#
# PCOD9414621 Si02
#       6
#     8   8   8   8   8   8
#     4  10  19  32  51  73  99 130 168 213 258 303
#     4  10  20  35  55  78 105 135 167 203 247 301
#     4  11  21  34  53  75 102 133 170 213 255 299
#     4   9  16  29  50  73  98 128 165 204 243 293
#     4   8  15  29  50  74 100 133 168 203 249 305
#     4  10  18  30  50  73  98 128 165 203 240 290
#
# _framework density 17.883507000000002
#
# number of rings (size 3 to 8) (size 9 to 14) (size 15 to 20)
#    0.000    2.333    0.000    7.500    0.000    1.333 
#    0.000    1.667    0.000   24.000    0.000    0.000 
#    0.000    0.000    0.000    0.000    0.000    0.000 
#
# Total GULP energy -267492.644434 kJ/mol
# GULP energy per Si atom -5572.763426 kJ/mol
# Density = 1.784280 g / cm^3
# Si number density = 17.883507 Si / 1000 Ang^3
#
#
#
# Elastic Constant Matrix: (Units=GPa)
#
#
# Indices 1 2 3 4 5 6 
#
# 1 36.8740 12.9837 4.5892 0.0000 0.0000 0.0000
# 2 12.9837 132.6667 29.6013 0.0000 0.0000 0.0000
# 3 4.5892 29.6013 66.2310 0.0000 0.0000 0.0000
# 4 0.0000 0.0000 0.0000 14.1689 0.0000 0.0000
# 5 0.0000 0.0000 0.0000 0.0000 20.2569 0.0000
# 6 0.0000 0.0000 0.0000 0.0000 0.0000 11.8283
#
#
#
# Elastic Compliance Matrix: (Units=1/GPa)
#
#
# Indices 1 2 3 4 5 6 
#
# 1 0.028125 -0.002574 -0.000798 0.000000 0.000000 0.000000
# 2 -0.002574 0.008608 -0.003669 0.000000 0.000000 0.000000
# 3 -0.000798 -0.003669 0.016794 0.000000 0.000000 0.000000
# 4 0.000000 0.000000 0.000000 0.070577 0.000000 0.000000
# 5 0.000000 0.000000 0.000000 0.000000 0.049366 0.000000
# 6 0.000000 0.000000 0.000000 0.000000 0.000000 0.084543
#
#
# Mechanical properties :
#
#
# Convention : Reuss Voigt Hill
#
# Bulk Modulus (GPa) = 25.35238 36.68000 31.01619
# Shear Modulus (GPa) = 17.52883 21.82400 19.67641
#
# Velocity S-wave (km/s) = 3.13416 3.49713 3.32061
# Velocity P-wave (km/s) = 5.22537 6.07138 5.66419
#
# Compressibility (1/GPa) = 0.03944402
#
# Stress axis : x y z
#
# Youngs Moduli (GPa) = 35.55535 116.16707 59.54574
#
# Poissons Ratio (x) = 0.29906 0.04753
# Poissons Ratio (y) = 0.09153 0.21847
# Poissons Ratio (z) = 0.02838 0.42622
#
# Static dielectric constant tensor:
#      x y z
#    x 1.597960 0.000000 0.000000 
#    y 0.000000 1.651560 0.000000 
#    z 0.000000 0.000000 1.622920 
# 
# From -- ./inp_files/26402.got.cif
#   From: 2010.05.17/outbox.cif.g08.bks.cpg/sg53_14_cif.got.tgz:26402.got - 2010.06.03 12:45:16.
