data_PCOD9414005
_publ_section_title
;
Structure prediction by ZEFSAII (Michael W. Deem and Ramdas Pophale) SiO2 
 PCOD9414005
Probable space group: P N N A
;
_chemical_formula_sum "Si O2"
_cell_formula_units_Z 48
_cell_length_a 15.000000
_cell_length_b 18.000000
_cell_length_c 9.000000
_cell_angle_alpha 90.000000
_cell_angle_beta 90.000000
_cell_angle_gamma 90.000000
_cell_volume 2430.000000
_symmetry_space_group_name_H-M "P N N A"
_symmetry_group_IT_number 52
_symmetry_cell_setting 'orthorhombic'
loop_
_space_group_symop_operation_xyz
x,y,z
1/2-x,-y,z
x,1/2-y,1/2-z
1/2-x,1/2+y,1/2-z
-x,-y,-z
1/2+x,y,-z
-x,1/2+y,1/2+z
1/2+x,1/2-y,1/2+z
loop_
_atom_site_type_symbol
_atom_site_label
_atom_site_fract_x
_atom_site_fract_y
_atom_site_fract_z
Si Si1 0.711701 0.834749 0.817880
Si Si2 0.270571 0.084496 0.876511
Si Si3 0.858838 0.673032 0.185313
Si Si4 0.981025 0.097715 0.838350
Si Si5 0.024645 0.572975 0.684741
Si Si6 0.114095 0.171724 0.336708
O O1 0.701631 0.750000 0.750000
O O2 0.618992 0.877638 0.801471
O O3 0.796864 0.865526 0.730098
O O4 0.734551 0.853879 0.991243
O O5 0.203949 0.107603 0.745943
O O6 0.369807 0.083014 0.812094
O O7 0.250000 0.000000 0.931790
O O8 0.823190 0.750000 0.250000
O O9 0.953517 0.654271 0.258340
O O10 0.870198 0.680606 0.010372
O O11 0.999893 0.097685 0.015830
O O12 0.999269 0.012858 0.793091
O O13 0.971477 0.623016 0.799526
O O14 0.104659 0.250000 0.250000
#
# Coordination Sequence:
#
# PCOD9414005 Si02
#       6
#     8   8   8   8   8   8
#     4  10  22  40  65  97 131 169 220 269 324 391
#     4  11  23  44  70  97 132 175 224 271 332 399
#     4  12  24  42  68  93 132 176 218 272 325 393
#     4  10  21  39  67  96 127 172 217 260 328 390
#     4  10  22  41  67  97 130 171 215 270 326 395
#     4  11  25  42  63  97 135 170 219 272 328 389
#
# _framework density 19.753086
#
# number of rings (size 3 to 8) (size 9 to 14) (size 15 to 20)
#    0.000    1.333    1.667    4.500    4.667    4.000 
#    3.000    0.000    0.000    0.000    0.000    0.000 
#    0.000    0.000    0.000    0.000    0.000    0.000 
#
# Total GULP energy -267908.430984 kJ/mol
# GULP energy per Si atom -5581.425646 kJ/mol
# Density = 1.970813 g / cm^3
# Si number density = 19.753086 Si / 1000 Ang^3
#
#
#
# Elastic Constant Matrix: (Units=GPa)
#
#
# Indices 1 2 3 4 5 6 
#
# 1 83.3445 11.8192 30.3989 0.0000 0.0000 0.0000
# 2 11.8192 77.0975 41.8792 0.0000 0.0000 0.0000
# 3 30.3989 41.8792 71.6788 0.0000 0.0000 0.0000
# 4 0.0000 0.0000 0.0000 27.1477 0.0000 0.0000
# 5 0.0000 0.0000 0.0000 0.0000 17.1351 0.0000
# 6 0.0000 0.0000 0.0000 0.0000 0.0000 47.5100
#
#
#
# Elastic Compliance Matrix: (Units=1/GPa)
#
#
# Indices 1 2 3 4 5 6 
#
# 1 0.014330 0.001618 -0.007023 0.000000 0.000000 0.000000
# 2 0.001618 0.019184 -0.011894 0.000000 0.000000 0.000000
# 3 -0.007023 -0.011894 0.023879 0.000000 0.000000 0.000000
# 4 0.000000 0.000000 0.000000 0.036836 0.000000 0.000000
# 5 0.000000 0.000000 0.000000 0.000000 0.058360 0.000000
# 6 0.000000 0.000000 0.000000 0.000000 0.000000 0.021048
#
#
# Mechanical properties :
#
#
# Convention : Reuss Voigt Hill
#
# Bulk Modulus (GPa) = 43.87050 44.47948 44.17499
# Shear Modulus (GPa) = 23.16603 28.22679 25.69641
#
# Velocity S-wave (km/s) = 3.42830 3.78429 3.61069
# Velocity P-wave (km/s) = 6.15863 6.45454 6.30832
#
# Compressibility (1/GPa) = 0.02279436
#
# Stress axis : x y z
#
# Youngs Moduli (GPa) = 69.78152 52.12793 41.87790
#
# Poissons Ratio (x) = -0.08434 0.29410
# Poissons Ratio (y) = -0.11290 0.49811
# Poissons Ratio (z) = 0.49006 0.62003
#
# Static dielectric constant tensor:
#      x y z
#    x 1.702510 0.000000 0.000000 
#    y 0.000000 1.704700 0.000000 
#    z 0.000000 0.000000 1.688390 
# 
# From -- ./inp_files/10467.got.cif
#   From: 2010.05.17/outbox.ucp.g08.bks.cvg/sg52_6_cif.got.tgz:10467.got - 2010.06.11 16:30:12.
