data_PCOD9414773
_publ_section_title
;
Structure prediction by ZEFSAII (Michael W. Deem and Ramdas Pophale) SiO2 
 PCOD9414773
Probable space group: P M N A
;
_chemical_formula_sum "Si O2"
_cell_formula_units_Z 64
_cell_length_a 9.195728
_cell_length_b 10.916816
_cell_length_c 33.630186
_cell_angle_alpha 90.000000
_cell_angle_beta 90.000000
_cell_angle_gamma 90.000000
_cell_volume 3376.069485
_symmetry_space_group_name_H-M "P M N A"
_symmetry_group_IT_number 53
_symmetry_cell_setting 'orthorhombic'
loop_
_space_group_symop_operation_xyz
x,y,z
1/2-x,-y,1/2+z
x,-y,-z
1/2-x,y,1/2-z
-x,-y,-z
1/2+x,y,1/2-z
-x,y,z
1/2+x,-y,1/2+z
loop_
_atom_site_type_symbol
_atom_site_label
_atom_site_fract_x
_atom_site_fract_y
_atom_site_fract_z
Si Si1 0.827789 0.178918 0.130870
Si Si2 0.672091 0.107972 0.208583
Si Si3 0.329087 0.326983 0.445394
Si Si4 0.167817 0.813919 0.489210
Si Si5 0.326666 0.183993 0.791765
Si Si6 0.168592 0.570295 0.434271
Si Si7 0.168050 0.708336 0.132579
Si Si8 0.332446 0.049967 0.576908
O O1 0.809433 0.291622 0.100844
O O2 0.000000 0.164775 0.139625
O O3 0.739477 0.179533 0.171437
O O4 0.782284 0.061237 0.104535
O O5 0.750000 0.139081 0.250000
O O6 0.500000 0.127136 0.211731
O O7 0.697257 0.962045 0.201380
O O8 0.500000 0.337552 0.453759
O O9 0.262221 0.219676 0.472436
O O10 0.247241 0.453551 0.452996
O O11 0.173982 0.688857 0.462797
O O12 0.235166 0.918044 0.461049
O O13 0.000000 0.838159 0.499040
O O14 0.250000 0.213933 0.750000
O O15 0.500000 0.204206 0.789999
O O16 0.253170 0.258311 0.827430
O O17 0.250904 0.607433 0.393882
O O18 0.000000 0.541704 0.427015
O O19 0.168004 0.830384 0.105130
O O20 0.000000 0.675768 0.140299
O O21 0.500000 0.026039 0.564725
#
# Coordination Sequence:
#
# PCOD9414773 Si02
#       8
#     8   8   8   8   8   8   8   8
#     4  10  21  37  55  78 111 145 180 223 266 318
#     4  10  20  33  54  81 111 145 180 218 261 312
#     4  11  23  37  55  78 105 141 184 226 269 318
#     4  10  21  36  55  78 106 138 176 226 275 320
#     4  10  19  30  48  78 112 142 173 212 261 316
#     4  10  21  37  56  77 104 137 178 227 274 318
#     4  10  18  31  54  79 105 138 175 216 265 319
#     4   9  18  33  53  76 105 141 176 214 266 320
#
# _framework density 18.956955000000001
#
# number of rings (size 3 to 8) (size 9 to 14) (size 15 to 20)
#    0.000    2.000    1.250    2.625    0.000    6.500 
#    0.000    2.500    0.000    0.750    0.000    1.750 
#    0.000    0.000    0.000    0.000    0.000    0.000 
#
# Total GULP energy -357563.271109 kJ/mol
# GULP energy per Si atom -5586.926111 kJ/mol
# Density = 1.891381 g / cm^3
# Si number density = 18.956955 Si / 1000 Ang^3
#
#
#
# Elastic Constant Matrix: (Units=GPa)
#
#
# Indices 1 2 3 4 5 6 
#
# 1 113.4599 16.8207 63.0007 0.0000 0.0000 0.0000
# 2 16.8207 35.0211 3.9779 0.0000 0.0000 0.0000
# 3 63.0007 3.9779 103.5889 0.0000 0.0000 0.0000
# 4 0.0000 0.0000 0.0000 17.8520 0.0000 0.0000
# 5 0.0000 0.0000 0.0000 0.0000 37.1385 0.0000
# 6 0.0000 0.0000 0.0000 0.0000 0.0000 8.1101
#
#
#
# Elastic Compliance Matrix: (Units=1/GPa)
#
#
# Indices 1 2 3 4 5 6 
#
# 1 0.014452 -0.005969 -0.008560 0.000000 0.000000 0.000000
# 2 -0.005969 0.031145 0.002434 0.000000 0.000000 0.000000
# 3 -0.008560 0.002434 0.014766 0.000000 0.000000 0.000000
# 4 0.000000 0.000000 0.000000 0.056016 0.000000 0.000000
# 5 0.000000 0.000000 0.000000 0.000000 0.026926 0.000000
# 6 0.000000 0.000000 0.000000 0.000000 0.000000 0.123303
#
#
# Mechanical properties :
#
#
# Convention : Reuss Voigt Hill
#
# Bulk Modulus (GPa) = 27.64501 46.62984 37.13743
# Shear Modulus (GPa) = 16.50957 23.83815 20.17386
#
# Velocity S-wave (km/s) = 2.95430 3.54996 3.26574
# Velocity P-wave (km/s) = 5.12366 6.43848 5.81833
#
# Compressibility (1/GPa) = 0.03617290
#
# Stress axis : x y z
#
# Youngs Moduli (GPa) = 69.19614 32.10835 67.72273
#
# Poissons Ratio (x) = 0.19165 0.57971
# Poissons Ratio (y) = 0.41302 -0.16485
# Poissons Ratio (z) = 0.59232 -0.07816
#
# Static dielectric constant tensor:
#      x y z
#    x 1.634800 0.000000 0.000000 
#    y 0.000000 1.659540 0.000000 
#    z 0.000000 0.000000 1.643080 
# 
# From -- ./inp_files/38314.got.cif
#   From: 2010.05.17/outbox.cif.g08.bks.cpg/sg53_20_cif.got.tgz:38314.got - 2010.06.03 12:45:16.
