data_PCOD9414776
_publ_section_title
;
Structure prediction by ZEFSAII (Michael W. Deem and Ramdas Pophale) SiO2 
 PCOD9414776
Probable space group: P M N A
;
_chemical_formula_sum "Si O2"
_cell_formula_units_Z 40
_cell_length_a 14.451452
_cell_length_b 9.113810
_cell_length_c 11.214707
_cell_angle_alpha 90.000000
_cell_angle_beta 90.000000
_cell_angle_gamma 90.000000
_cell_volume 1477.064249
_symmetry_space_group_name_H-M "P M N A"
_symmetry_group_IT_number 53
_symmetry_cell_setting 'orthorhombic'
loop_
_space_group_symop_operation_xyz
x,y,z
1/2-x,-y,1/2+z
x,-y,-z
1/2-x,y,1/2-z
-x,-y,-z
1/2+x,y,1/2-z
-x,y,z
1/2+x,-y,1/2+z
loop_
_atom_site_type_symbol
_atom_site_label
_atom_site_fract_x
_atom_site_fract_y
_atom_site_fract_z
Si Si1 0.389768 0.803682 0.431934
Si Si2 0.888708 0.193126 0.193482
Si Si3 0.352017 0.535662 0.296867
Si Si4 0.602318 0.350500 0.946987
Si Si5 0.113386 0.072759 0.673951
O O1 0.500000 0.829650 0.432514
O O2 0.355314 0.853247 0.561210
O O3 0.372179 0.630067 0.413793
O O4 0.357927 0.870307 0.306125
O O5 0.866601 0.363362 0.201720
O O6 0.000000 0.178554 0.191137
O O7 0.857828 0.096540 0.306879
O O8 0.250000 0.564436 0.250000
O O9 0.410630 0.604020 0.190056
O O10 0.500000 0.336185 0.005921
O O11 0.646002 0.188068 0.927285
O O12 0.648069 0.500000 0.000000
O O13 0.000000 0.076699 0.661214
#
# Coordination Sequence:
#
# PCOD9414776 Si02
#       5
#     8   8   8   8   8
#     4   9  17  32  55  80 104 134 175 225 284 342
#     4  10  18  31  54  81 107 132 167 226 289 335
#     4  11  22  33  47  72 106 142 184 230 274 328
#     4   9  18  35  56  75 102 144 187 219 253 313
#     4   8  15  29  52  82 107 129 167 219 273 327
#
# _framework density 27.080743999999999
#
# number of rings (size 3 to 8) (size 9 to 14) (size 15 to 20)
#    0.000    2.600    0.000    4.200    0.000    5.600 
#    0.000    5.000    0.000    7.200    0.000    0.000 
#    0.000    0.000    0.000    0.000    0.000    1.600 
#
# Total GULP energy -223228.205468 kJ/mol
# GULP energy per Si atom -5580.705137 kJ/mol
# Density = 2.701911 g / cm^3
# Si number density = 27.080744 Si / 1000 Ang^3
#
#
#
# Elastic Constant Matrix: (Units=GPa)
#
#
# Indices 1 2 3 4 5 6 
#
# 1 75.1810 0.1885 14.4337 0.0000 0.0000 0.0000
# 2 0.1885 152.6442 56.9669 0.0000 0.0000 0.0000
# 3 14.4337 56.9669 128.9421 0.0000 0.0000 0.0000
# 4 0.0000 0.0000 0.0000 70.9114 0.0000 0.0000
# 5 0.0000 0.0000 0.0000 0.0000 285.3328 0.0000
# 6 0.0000 0.0000 0.0000 0.0000 0.0000 72.3527
#
#
#
# Elastic Compliance Matrix: (Units=1/GPa)
#
#
# Indices 1 2 3 4 5 6 
#
# 1 0.013649 0.000663 -0.001821 0.000000 0.000000 0.000000
# 2 0.000663 0.007877 -0.003554 0.000000 0.000000 0.000000
# 3 -0.001821 -0.003554 0.009529 0.000000 0.000000 0.000000
# 4 0.000000 0.000000 0.000000 0.014102 0.000000 0.000000
# 5 0.000000 0.000000 0.000000 0.000000 0.003505 0.000000
# 6 0.000000 0.000000 0.000000 0.000000 0.000000 0.013821
#
#
# Mechanical properties :
#
#
# Convention : Reuss Voigt Hill
#
# Bulk Modulus (GPa) = 46.22994 55.54951 50.88972
# Shear Modulus (GPa) = 63.19679 104.73126 83.96403
#
# Velocity S-wave (km/s) = 4.83602 6.22556 5.57426
# Velocity P-wave (km/s) = 6.94917 8.49906 7.76289
#
# Compressibility (1/GPa) = 0.02163101
#
# Stress axis : x y z
#
# Youngs Moduli (GPa) = 73.26487 126.95557 104.93792
#
# Poissons Ratio (x) = -0.08412 0.19105
# Poissons Ratio (y) = -0.04854 0.37296
# Poissons Ratio (z) = 0.13339 0.45122
#
# Static dielectric constant tensor:
#      x y z
#    x 2.209270 0.000000 0.000000 
#    y 0.000000 2.354730 0.000000 
#    z 0.000000 0.000000 2.079420 
# 
# From -- ./inp_files/16655.got.cif
#   From: 2010.05.17/outbox.cif.g08.bks.cpg/sg53_9_cif.got.tgz:16655.got - 2010.06.03 12:45:16.
