data_PCOD9414438
_publ_section_title
;
Structure prediction by ZEFSAII (Michael W. Deem and Ramdas Pophale) SiO2 
 PCOD9414438
Probable space group: P M N A
;
_chemical_formula_sum "Si O2"
_cell_formula_units_Z 64
_cell_length_a 8.109066
_cell_length_b 17.501186
_cell_length_c 24.745553
_cell_angle_alpha 90.000000
_cell_angle_beta 90.000000
_cell_angle_gamma 90.000000
_cell_volume 3511.846130
_symmetry_space_group_name_H-M "P M N A"
_symmetry_group_IT_number 53
_symmetry_cell_setting 'orthorhombic'
loop_
_space_group_symop_operation_xyz
x,y,z
1/2-x,-y,1/2+z
x,-y,-z
1/2-x,y,1/2-z
-x,-y,-z
1/2+x,y,1/2-z
-x,y,z
1/2+x,-y,1/2+z
loop_
_atom_site_type_symbol
_atom_site_label
_atom_site_fract_x
_atom_site_fract_y
_atom_site_fract_z
Si Si1 0.699435 0.260710 0.687615
Si Si2 0.804121 0.775743 0.626861
Si Si3 0.303551 0.073730 0.312469
Si Si4 0.197877 0.375799 0.311437
Si Si5 0.698670 0.907504 0.312689
Si Si6 0.797907 0.638476 0.088747
Si Si7 0.304532 0.466092 0.411651
Si Si8 0.199032 0.684621 0.973491
O O1 0.750000 0.272724 0.750000
O O2 0.500000 0.260870 0.686994
O O3 0.756197 0.175952 0.668130
O O4 0.757446 0.323721 0.644780
O O5 0.745916 0.856231 0.649832
O O6 0.743115 0.706210 0.665191
O O7 0.753718 0.751822 0.566413
O O8 0.000000 0.775284 0.629774
O O9 0.250000 0.085882 0.250000
O O10 0.500000 0.070231 0.311484
O O11 0.241079 0.990363 0.332855
O O12 0.250000 0.384637 0.250000
O O13 0.273788 0.439515 0.350441
O O14 0.000000 0.379030 0.315817
O O15 0.750000 0.908251 0.250000
O O16 0.500000 0.907090 0.317337
O O17 0.739557 0.551409 0.080574
O O18 0.000000 0.636498 0.090175
O O19 0.750338 0.686898 0.035870
O O20 0.500000 0.469594 0.422663
O O21 0.239049 0.396186 0.448119
O O22 0.000000 0.682994 0.971776
#
# Coordination Sequence:
#
# PCOD9414438 Si02
#       8
#     8   8   8   8   8   8   8   8
#     4   9  17  31  49  70  97 123 149 184 228 276
#     4  10  20  32  46  67  94 123 156 193 232 273
#     4  10  18  28  45  70  96 122 154 188 226 272
#     4  10  20  32  45  63  91 125 156 186 226 275
#     4   8  15  27  44  66  92 121 150 183 223 269
#     4   9  17  30  51  74  92 117 155 195 232 274
#     4   9  17  30  48  69  92 119 154 195 235 274
#     4   9  17  31  50  69  91 121 157 195 234 274
#
# _framework density 18.224034
#
# number of rings (size 3 to 8) (size 9 to 14) (size 15 to 20)
#    0.000    2.750    0.000    1.875    0.000    5.000 
#    0.000    3.125    0.000    3.750    0.000    5.250 
#    0.000    0.000    0.000    0.000    0.000    0.000 
#
# Total GULP energy -356515.519906 kJ/mol
# GULP energy per Si atom -5570.554999 kJ/mol
# Density = 1.818255 g / cm^3
# Si number density = 18.224034 Si / 1000 Ang^3
#
#
#
# Elastic Constant Matrix: (Units=GPa)
#
#
# Indices 1 2 3 4 5 6 
#
# 1 11.4949 9.2255 0.7587 0.0000 0.0000 0.0000
# 2 9.2255 75.4564 30.2983 0.0000 0.0000 0.0000
# 3 0.7587 30.2983 87.6085 0.0000 0.0000 0.0000
# 4 0.0000 0.0000 0.0000 16.9137 0.0000 0.0000
# 5 0.0000 0.0000 0.0000 0.0000 17.0151 0.0000
# 6 0.0000 0.0000 0.0000 0.0000 0.0000 10.5383
#
#
#
# Elastic Compliance Matrix: (Units=1/GPa)
#
#
# Indices 1 2 3 4 5 6 
#
# 1 0.097543 -0.013455 0.003809 0.000000 0.000000 0.000000
# 2 -0.013455 0.017246 -0.005848 0.000000 0.000000 0.000000
# 3 0.003809 -0.005848 0.013404 0.000000 0.000000 0.000000
# 4 0.000000 0.000000 0.000000 0.059124 0.000000 0.000000
# 5 0.000000 0.000000 0.000000 0.000000 0.058771 0.000000
# 6 0.000000 0.000000 0.000000 0.000000 0.000000 0.094892
#
#
# Mechanical properties :
#
#
# Convention : Reuss Voigt Hill
#
# Bulk Modulus (GPa) = 10.28768 28.34720 19.31744
# Shear Modulus (GPa) = 12.36495 17.84525 15.10510
#
# Velocity S-wave (km/s) = 2.60762 3.13264 2.88211
# Velocity P-wave (km/s) = 3.83714 5.35473 4.65815
#
# Compressibility (1/GPa) = 0.09720360
#
# Stress axis : x y z
#
# Youngs Moduli (GPa) = 10.25193 57.98515 74.60579
#
# Poissons Ratio (x) = 0.78019 -0.28414
# Poissons Ratio (y) = 0.13794 0.43627
# Poissons Ratio (z) = -0.03904 0.33908
#
# Static dielectric constant tensor:
#      x y z
#    x 1.653230 0.000000 0.000000 
#    y 0.000000 1.675850 0.000000 
#    z 0.000000 0.000000 1.590010 
# 
# From -- ./inp_files/34167.got.cif
#   From: 2010.05.17/outbox.cif.g08.bks.cpg/sg53_18_cif.got.tgz:34167.got - 2010.06.03 12:45:16.
