data_PCOD9414636
_publ_section_title
;
Structure prediction by ZEFSAII (Michael W. Deem and Ramdas Pophale) SiO2 
 PCOD9414636
Probable space group: P M N A
;
_chemical_formula_sum "Si O2"
_cell_formula_units_Z 64
_cell_length_a 7.980320
_cell_length_b 15.244963
_cell_length_c 28.410031
_cell_angle_alpha 90.000000
_cell_angle_beta 90.000000
_cell_angle_gamma 90.000000
_cell_volume 3456.355369
_symmetry_space_group_name_H-M "P M N A"
_symmetry_group_IT_number 53
_symmetry_cell_setting 'orthorhombic'
loop_
_space_group_symop_operation_xyz
x,y,z
1/2-x,-y,1/2+z
x,-y,-z
1/2-x,y,1/2-z
-x,-y,-z
1/2+x,y,1/2-z
-x,y,z
1/2+x,-y,1/2+z
loop_
_atom_site_type_symbol
_atom_site_label
_atom_site_fract_x
_atom_site_fract_y
_atom_site_fract_z
Si Si1 0.200264 0.469539 0.889518
Si Si2 0.704202 0.654076 0.577003
Si Si3 0.804093 0.848336 0.915958
Si Si4 0.301128 0.966978 0.111716
Si Si5 0.303054 0.861518 0.022892
Si Si6 0.296795 0.332893 0.532125
Si Si7 0.797665 0.846836 0.303530
Si Si8 0.800124 0.352335 0.696686
O O1 0.264460 0.568712 0.895183
O O2 0.262280 0.405815 0.931208
O O3 0.235311 0.422129 0.840604
O O4 0.000000 0.474732 0.895773
O O5 0.500000 0.657687 0.579559
O O6 0.765434 0.750261 0.592615
O O7 0.745161 0.643126 0.521718
O O8 0.000000 0.847993 0.905020
O O9 0.725629 0.929327 0.888409
O O10 0.782148 0.864889 0.971977
O O11 0.500000 0.950153 0.110268
O O12 0.234523 0.926894 0.062585
O O13 0.235023 0.914408 0.156967
O O14 0.500000 0.879429 0.014850
O O15 0.279296 0.762628 0.041862
O O16 0.500000 0.325411 0.534872
O O17 0.750000 0.869506 0.250000
O O18 0.737609 0.747117 0.313348
O O19 0.000000 0.845536 0.305304
O O20 0.750000 0.373568 0.750000
O O21 0.000000 0.350643 0.693424
#
# Coordination Sequence:
#
# PCOD9414636 Si02
#       8
#     8   8   8   8   8   8   8   8
#     4  10  18  30  51  74  97 129 165 200 241 287
#     4   8  16  31  48  68  97 131 165 200 237 277
#     4  10  20  33  49  70  96 128 167 207 240 277
#     4  10  20  33  49  70  97 129 161 195 241 291
#     4  10  19  31  47  68  99 135 164 196 243 291
#     4   9  17  29  47  72 100 130 165 201 236 281
#     4   9  19  35  53  73  99 127 154 190 237 289
#     4  10  20  35  53  75 102 128 157 194 239 290
#
# _framework density 18.516614000000001
#
# number of rings (size 3 to 8) (size 9 to 14) (size 15 to 20)
#    0.000    2.500    0.000    3.375    0.000    6.500 
#    0.000    3.125    0.000    4.500    0.000    1.750 
#    0.000    0.000    0.000    0.000    0.000    0.000 
#
# Total GULP energy -357060.168199 kJ/mol
# GULP energy per Si atom -5579.065128 kJ/mol
# Density = 1.847447 g / cm^3
# Si number density = 18.516614 Si / 1000 Ang^3
#
#
#
# Elastic Constant Matrix: (Units=GPa)
#
#
# Indices 1 2 3 4 5 6 
#
# 1 8.2217 -6.4512 -9.9625 0.0000 0.0000 0.0000
# 2 -6.4512 146.1289 73.0620 0.0000 0.0000 0.0000
# 3 -9.9625 73.0620 60.7368 0.0000 0.0000 0.0000
# 4 0.0000 0.0000 0.0000 29.0448 0.0000 0.0000
# 5 0.0000 0.0000 0.0000 0.0000 32.5244 0.0000
# 6 0.0000 0.0000 0.0000 0.0000 0.0000 23.2758
#
#
#
# Elastic Compliance Matrix: (Units=1/GPa)
#
#
# Indices 1 2 3 4 5 6 
#
# 1 0.164964 -0.015672 0.045911 0.000000 0.000000 0.000000
# 2 -0.015672 0.018659 -0.025016 0.000000 0.000000 0.000000
# 3 0.045911 -0.025016 0.054088 0.000000 0.000000 0.000000
# 4 0.000000 0.000000 0.000000 0.034430 0.000000 0.000000
# 5 0.000000 0.000000 0.000000 0.000000 0.030746 0.000000
# 6 0.000000 0.000000 0.000000 0.000000 0.000000 0.042963
#
#
# Mechanical properties :
#
#
# Convention : Reuss Voigt Hill
#
# Bulk Modulus (GPa) = 4.02972 36.48712 20.25842
# Shear Modulus (GPa) = 11.95822 27.53161 19.74491
#
# Velocity S-wave (km/s) = 2.54404 3.86017 3.26902
# Velocity P-wave (km/s) = 3.28793 6.29410 5.02126
#
# Compressibility (1/GPa) = 0.24815606
#
# Stress axis : x y z
#
# Youngs Moduli (GPa) = 6.06193 53.59338 18.48851
#
# Poissons Ratio (x) = 0.83991 -0.84882
# Poissons Ratio (y) = 0.09500 0.46251
# Poissons Ratio (z) = -0.27831 1.34070
#
# Static dielectric constant tensor:
#      x y z
#    x 1.660160 0.000000 0.000000 
#    y 0.000000 1.664480 0.000000 
#    z 0.000000 0.000000 1.608900 
# 
# From -- ./inp_files/34269.got.cif
#   From: 2010.05.17/outbox.cif.g08.bks.cpg/sg53_18_cif.got.tgz:34269.got - 2010.06.03 12:45:16.
