data_PCOD9414849
_publ_section_title
;
Structure prediction by ZEFSAII (Michael W. Deem and Ramdas Pophale) SiO2 
 PCOD9414849
Probable space group: P M N A
;
_chemical_formula_sum "Si O2"
_cell_formula_units_Z 40
_cell_length_a 9.755709
_cell_length_b 24.754413
_cell_length_c 8.755991
_cell_angle_alpha 90.000000
_cell_angle_beta 90.000000
_cell_angle_gamma 90.000000
_cell_volume 2114.544242
_symmetry_space_group_name_H-M "P M N A"
_symmetry_group_IT_number 53
_symmetry_cell_setting 'orthorhombic'
loop_
_space_group_symop_operation_xyz
x,y,z
1/2-x,-y,1/2+z
x,-y,-z
1/2-x,y,1/2-z
-x,-y,-z
1/2+x,y,1/2-z
-x,y,z
1/2+x,-y,1/2+z
loop_
_atom_site_type_symbol
_atom_site_label
_atom_site_fract_x
_atom_site_fract_y
_atom_site_fract_z
Si Si1 0.747256 0.366406 0.063996
Si Si2 0.663086 0.141548 0.905410
Si Si3 0.339443 0.251286 0.097723
Si Si4 0.000000 0.560937 0.938556
Si Si5 0.000000 0.441199 0.430170
Si Si6 0.838391 0.945184 0.902262
O O1 0.750000 0.363073 0.250000
O O2 0.723228 0.304663 0.017592
O O3 0.875685 0.400940 0.013750
O O4 0.625788 0.405315 0.018878
O O5 0.750000 0.145488 0.750000
O O6 0.500000 0.126690 0.883991
O O7 0.664487 0.198931 0.991796
O O8 0.749656 0.099305 0.006980
O O9 0.250000 0.241002 0.250000
O O10 0.500000 0.262874 0.136941
O O11 0.000000 0.555534 0.754124
O O12 0.000000 0.500000 0.000000
O O13 0.000000 0.500000 0.500000
O O14 0.750000 0.955121 0.750000
O O15 0.000000 0.929596 0.874590
O O16 0.841485 0.000000 0.000000
#
# Coordination Sequence:
#
# PCOD9414849 Si02
#       6
#     8   8   8   4   4   8
#     4   9  18  33  53  77 105 137 184 230 283 345
#     4  11  24  42  62  90 127 165 205 252 307 364
#     4  10  21  37  60  87 113 148 197 248 296 355
#     4  10  20  34  50  78 106 136 181 230 281 344
#     4  10  18  32  54  74 102 142 175 224 281 344
#     4  11  24  42  66  97 131 169 212 257 304 356
#
# _framework density 18.916606000000002
#
# number of rings (size 3 to 8) (size 9 to 14) (size 15 to 20)
#    0.000    1.800    1.000    3.000    4.200    6.400 
#    0.000    2.000    0.000    0.000    0.000    0.000 
#    0.000    0.000    0.000    0.000    0.000    0.000 
#
# Total GULP energy -222988.463592 kJ/mol
# GULP energy per Si atom -5574.711590 kJ/mol
# Density = 1.887355 g / cm^3
# Si number density = 18.916606 Si / 1000 Ang^3
#
#
#
# Elastic Constant Matrix: (Units=GPa)
#
#
# Indices 1 2 3 4 5 6 
#
# 1 208.8777 75.0305 53.1144 0.0000 0.0000 0.0000
# 2 75.0305 131.9602 33.5042 0.0000 0.0000 0.0000
# 3 53.1144 33.5042 67.0606 0.0000 0.0000 0.0000
# 4 0.0000 0.0000 0.0000 32.6062 0.0000 0.0000
# 5 0.0000 0.0000 0.0000 0.0000 25.3153 0.0000
# 6 0.0000 0.0000 0.0000 0.0000 0.0000 38.0231
#
#
#
# Elastic Compliance Matrix: (Units=1/GPa)
#
#
# Indices 1 2 3 4 5 6 
#
# 1 0.006831 -0.002875 -0.003974 0.000000 0.000000 0.000000
# 2 -0.002875 0.009889 -0.002664 0.000000 0.000000 0.000000
# 3 -0.003974 -0.002664 0.019390 0.000000 0.000000 0.000000
# 4 0.000000 0.000000 0.000000 0.030669 0.000000 0.000000
# 5 0.000000 0.000000 0.000000 0.000000 0.039502 0.000000
# 6 0.000000 0.000000 0.000000 0.000000 0.000000 0.026300
#
#
# Mechanical properties :
#
#
# Convention : Reuss Voigt Hill
#
# Bulk Modulus (GPa) = 58.53072 81.24409 69.88740
# Shear Modulus (GPa) = 31.78643 35.60555 33.69599
#
# Velocity S-wave (km/s) = 4.10365 4.34318 4.22511
# Velocity P-wave (km/s) = 7.31176 8.25789 7.79919
#
# Compressibility (1/GPa) = 0.01708505
#
# Stress axis : x y z
#
# Youngs Moduli (GPa) = 146.39918 101.12315 51.57288
#
# Poissons Ratio (x) = 0.29072 0.20494
# Poissons Ratio (y) = 0.42088 0.13737
# Poissons Ratio (z) = 0.58176 0.26935
#
# Static dielectric constant tensor:
#      x y z
#    x 1.611920 0.000000 0.000000 
#    y 0.000000 1.663910 0.000000 
#    z 0.000000 0.000000 1.665630 
# 
# From -- ./inp_files/6350.got.cif
#   From: 2010.05.17/outbox.cif.g08.bks.cpg/sg53_4_cif.got.tgz:6350.got - 2010.06.03 12:45:16.
