data_PCOD9414674
_publ_section_title
;
Structure prediction by ZEFSAII (Michael W. Deem and Ramdas Pophale) SiO2 
 PCOD9414674
Probable space group: P M N A
;
_chemical_formula_sum "Si O2"
_cell_formula_units_Z 56
_cell_length_a 9.216395
_cell_length_b 18.286595
_cell_length_c 20.477947
_cell_angle_alpha 90.000000
_cell_angle_beta 90.000000
_cell_angle_gamma 90.000000
_cell_volume 3451.281161
_symmetry_space_group_name_H-M "P M N A"
_symmetry_group_IT_number 53
_symmetry_cell_setting 'orthorhombic'
loop_
_space_group_symop_operation_xyz
x,y,z
1/2-x,-y,1/2+z
x,-y,-z
1/2-x,y,1/2-z
-x,-y,-z
1/2+x,y,1/2-z
-x,y,z
1/2+x,-y,1/2+z
loop_
_atom_site_type_symbol
_atom_site_label
_atom_site_fract_x
_atom_site_fract_y
_atom_site_fract_z
Si Si1 0.333487 0.509534 0.420768
Si Si2 0.674557 0.812452 0.037132
Si Si3 0.673410 0.959274 0.431219
Si Si4 0.673181 0.074240 0.318133
Si Si5 0.667274 0.635028 0.905973
Si Si6 0.174178 0.217796 0.101626
Si Si7 0.333855 0.347682 0.935625
O O1 0.330126 0.500000 0.500000
O O2 0.500000 0.504099 0.400211
O O3 0.239434 0.443137 0.392232
O O4 0.267054 0.589161 0.407319
O O5 0.500000 0.815387 0.028577
O O6 0.736828 0.884612 0.070606
O O7 0.707759 0.736711 0.075091
O O8 0.752816 0.805871 0.966846
O O9 0.500000 0.944136 0.428954
O O10 0.701658 0.000000 0.500000
O O11 0.711520 0.014343 0.372910
O O12 0.750000 0.060840 0.250000
O O13 0.500000 0.071135 0.309716
O O14 0.708152 0.154489 0.346605
O O15 0.500000 0.638442 0.885081
O O16 0.759338 0.703588 0.880347
O O17 0.668519 0.643512 0.985237
O O18 0.000000 0.222399 0.093435
O O19 0.500000 0.359500 0.914791
#
# Coordination Sequence:
#
# PCOD9414674 Si02
#       7
#     8   8   8   8   8   8   8
#     4   9  15  22  34  54  80 116 157 189 227 279
#     4  10  19  29  45  71  95 122 160 203 245 288
#     4  10  19  35  53  71  97 128 163 203 251 300
#     4  10  22  37  53  72  97 130 162 203 252 297
#     4   9  16  25  38  58  84 117 155 194 234 276
#     4  10  18  31  47  65  92 125 160 198 242 289
#     4   8  15  25  35  53  86 119 149 189 236 278
#
# _framework density 16.225857999999999
#
# number of rings (size 3 to 8) (size 9 to 14) (size 15 to 20)
#    0.000    2.571    1.429    2.571    0.000    7.714 
#    0.000    0.000    0.000    0.000    0.000    0.000 
#    0.000    1.143    0.000    5.714    0.000    8.000 
#
# Total GULP energy -312064.979015 kJ/mol
# GULP energy per Si atom -5572.588911 kJ/mol
# Density = 1.618893 g / cm^3
# Si number density = 16.225858 Si / 1000 Ang^3
#
#
#
# Elastic Constant Matrix: (Units=GPa)
#
#
# Indices 1 2 3 4 5 6 
#
# 1 82.9419 78.8836 30.5384 0.0000 0.0000 0.0000
# 2 78.8836 160.4604 42.1711 0.0000 0.0000 0.0000
# 3 30.5384 42.1711 53.1152 0.0000 0.0000 0.0000
# 4 0.0000 0.0000 0.0000 8.4325 0.0000 0.0000
# 5 0.0000 0.0000 0.0000 0.0000 13.4779 0.0000
# 6 0.0000 0.0000 0.0000 0.0000 0.0000 33.6809
#
#
#
# Elastic Compliance Matrix: (Units=1/GPa)
#
#
# Indices 1 2 3 4 5 6 
#
# 1 0.023881 -0.010276 -0.005572 0.000000 0.000000 0.000000
# 2 -0.010276 0.012297 -0.003855 0.000000 0.000000 0.000000
# 3 -0.005572 -0.003855 0.025091 0.000000 0.000000 0.000000
# 4 0.000000 0.000000 0.000000 0.118589 0.000000 0.000000
# 5 0.000000 0.000000 0.000000 0.000000 0.074196 0.000000
# 6 0.000000 0.000000 0.000000 0.000000 0.000000 0.029690
#
#
# Mechanical properties :
#
#
# Convention : Reuss Voigt Hill
#
# Bulk Modulus (GPa) = 45.73777 66.63374 56.18576
# Shear Modulus (GPa) = 15.13143 20.77988 17.95565
#
# Velocity S-wave (km/s) = 3.05708 3.58252 3.33018
# Velocity P-wave (km/s) = 6.38047 7.63336 7.03486
#
# Compressibility (1/GPa) = 0.02186377
#
# Stress axis : x y z
#
# Youngs Moduli (GPa) = 41.87402 81.32119 39.85439
#
# Poissons Ratio (x) = 0.83564 0.22206
# Poissons Ratio (y) = 0.43029 0.15365
# Poissons Ratio (z) = 0.23332 0.31351
#
# Static dielectric constant tensor:
#      x y z
#    x 1.543160 0.000000 0.000000 
#    y 0.000000 1.561940 0.000000 
#    z 0.000000 0.000000 1.509600 
# 
# From -- ./inp_files/31018.got.cif
#   From: 2010.05.17/outbox.cif.g08.bks.cpg/sg53_16_cif.got.tgz:31018.got - 2010.06.03 12:45:16.
