data_PCOD9414699
_publ_section_title
;
Structure prediction by ZEFSAII (Michael W. Deem and Ramdas Pophale) SiO2 
 PCOD9414699
Probable space group: P M N A
;
_chemical_formula_sum "Si O2"
_cell_formula_units_Z 48
_cell_length_a 8.404918
_cell_length_b 19.656193
_cell_length_c 14.212090
_cell_angle_alpha 90.000000
_cell_angle_beta 90.000000
_cell_angle_gamma 90.000000
_cell_volume 2347.960776
_symmetry_space_group_name_H-M "P M N A"
_symmetry_group_IT_number 53
_symmetry_cell_setting 'orthorhombic'
loop_
_space_group_symop_operation_xyz
x,y,z
1/2-x,-y,1/2+z
x,-y,-z
1/2-x,y,1/2-z
-x,-y,-z
1/2+x,y,1/2-z
-x,y,z
1/2+x,-y,1/2+z
loop_
_atom_site_type_symbol
_atom_site_label
_atom_site_fract_x
_atom_site_fract_y
_atom_site_fract_z
Si Si1 0.189396 0.676375 0.644545
Si Si2 0.805910 0.102252 0.548197
Si Si3 0.310733 0.531102 0.641536
Si Si4 0.193979 0.747861 0.463085
Si Si5 0.308355 0.034438 0.146851
Si Si6 0.308913 0.611920 0.142657
O O1 0.250000 0.686164 0.750000
O O2 0.244709 0.602863 0.605798
O O3 0.240063 0.733984 0.571239
O O4 0.000000 0.674720 0.647951
O O5 0.750777 0.178385 0.570787
O O6 0.754511 0.042057 0.618030
O O7 0.000000 0.102055 0.549825
O O8 0.759422 0.081293 0.441630
O O9 0.250000 0.530188 0.750000
O O10 0.500000 0.533070 0.640017
O O11 0.253737 0.459295 0.600175
O O12 0.246678 0.681457 0.406052
O O13 0.000000 0.748122 0.459145
O O14 0.250000 0.054003 0.250000
O O15 0.500000 0.034860 0.148171
O O16 0.250000 0.614378 0.250000
O O17 0.500000 0.609302 0.140179
#
# Coordination Sequence:
#
# PCOD9414699 Si02
#       6
#     8   8   8   8   8   8
#     4  10  19  33  51  72  96 128 167 210 251 295
#     4   8  16  33  51  73 103 137 168 197 236 295
#     4  10  18  31  50  71  96 128 164 209 253 297
#     4   9  19  33  51  72 100 135 170 200 240 299
#     4   9  17  31  56  80 102 131 167 203 240 286
#     4  10  19  33  51  72  96 128 167 210 251 295
#
# _framework density 20.443272
#
# number of rings (size 3 to 8) (size 9 to 14) (size 15 to 20)
#    0.000    2.667    0.000    5.500    0.000    2.000 
#    0.000    8.333    0.000    6.000    0.000    0.000 
#    0.000    0.000    0.000    0.000    0.000    0.000 
#
# Total GULP energy -267757.698396 kJ/mol
# GULP energy per Si atom -5578.285383 kJ/mol
# Density = 2.039674 g / cm^3
# Si number density = 20.443272 Si / 1000 Ang^3
#
#
#
# Elastic Constant Matrix: (Units=GPa)
#
#
# Indices 1 2 3 4 5 6 
#
# 1 41.7586 0.1441 -4.5696 0.0000 0.0000 0.0000
# 2 0.1441 68.3121 -22.0001 0.0000 0.0000 0.0000
# 3 -4.5696 -22.0001 32.7454 0.0000 0.0000 0.0000
# 4 0.0000 0.0000 0.0000 16.7472 0.0000 0.0000
# 5 0.0000 0.0000 0.0000 0.0000 18.7883 0.0000
# 6 0.0000 0.0000 0.0000 0.0000 0.0000 11.3902
#
#
#
# Elastic Compliance Matrix: (Units=1/GPa)
#
#
# Indices 1 2 3 4 5 6 
#
# 1 0.024413 0.001334 0.004303 0.000000 0.000000 0.000000
# 2 0.001334 0.018754 0.012786 0.000000 0.000000 0.000000
# 3 0.004303 0.012786 0.039729 0.000000 0.000000 0.000000
# 4 0.000000 0.000000 0.000000 0.059712 0.000000 0.000000
# 5 0.000000 0.000000 0.000000 0.000000 0.053225 0.000000
# 6 0.000000 0.000000 0.000000 0.000000 0.000000 0.087795
#
#
# Mechanical properties :
#
#
# Convention : Reuss Voigt Hill
#
# Bulk Modulus (GPa) = 8.35115 9.99610 9.17362
# Shear Modulus (GPa) = 17.44015 20.66792 19.05403
#
# Velocity S-wave (km/s) = 2.92396 3.18305 3.05625
# Velocity P-wave (km/s) = 3.93615 4.29062 4.11720
#
# Compressibility (1/GPa) = 0.11974403
#
# Stress axis : x y z
#
# Youngs Moduli (GPa) = 40.96101 53.32309 25.17028
#
# Poissons Ratio (x) = -0.07116 -0.10832
# Poissons Ratio (y) = -0.05466 -0.32182
# Poissons Ratio (z) = -0.17627 -0.68178
#
# Static dielectric constant tensor:
#      x y z
#    x 1.702620 0.000000 0.000000 
#    y 0.000000 1.749400 0.000000 
#    z 0.000000 0.000000 1.738750 
# 
# From -- ./inp_files/20342.got.cif
#   From: 2010.05.17/outbox.cif.g08.bks.cpg/sg53_11_cif.got.tgz:20342.got - 2010.06.03 12:45:16.
