data_PCOD9414127
_publ_section_title
;
Structure prediction by ZEFSAII (Michael W. Deem and Ramdas Pophale) SiO2 
 PCOD9414127
Probable space group: P M N A
;
_chemical_formula_sum "Si O2"
_cell_formula_units_Z 32
_cell_length_a 10.956259
_cell_length_b 7.217789
_cell_length_c 19.705345
_cell_angle_alpha 90.000000
_cell_angle_beta 90.000000
_cell_angle_gamma 90.000000
_cell_volume 1558.298007
_symmetry_space_group_name_H-M "P M N A"
_symmetry_group_IT_number 53
_symmetry_cell_setting 'orthorhombic'
loop_
_space_group_symop_operation_xyz
x,y,z
1/2-x,-y,1/2+z
x,-y,-z
1/2-x,y,1/2-z
-x,-y,-z
1/2+x,y,1/2-z
-x,y,z
1/2+x,-y,1/2+z
loop_
_atom_site_type_symbol
_atom_site_label
_atom_site_fract_x
_atom_site_fract_y
_atom_site_fract_z
Si Si1 0.500000 0.208200 0.421469
Si Si2 0.500000 0.127388 0.268888
Si Si3 0.239728 0.809849 0.368195
Si Si4 0.790270 0.000000 0.000000
Si Si5 0.750000 0.887356 0.750000
Si Si6 0.500000 0.609031 0.355730
Si Si7 0.500000 0.711679 0.204212
O O1 0.500000 0.102558 0.349544
O O2 0.618463 0.145397 0.463219
O O3 0.500000 0.419843 0.398140
O O4 0.625383 0.223677 0.248473
O O5 0.500000 0.926899 0.232019
O O6 0.215097 0.896825 0.441808
O O7 0.255267 0.977534 0.314617
O O8 0.370966 0.708837 0.372098
O O9 0.124751 0.694185 0.339070
O O10 0.500000 0.597109 0.273779
#
# Coordination Sequence:
#
# PCOD9414127 Si02
#       7
#     4   4   8   4   4   4   4
#     4  11  23  35  59  93 121 154 201 252 294 348
#     4  10  17  35  57  82 113 152 202 251 287 333
#     4  11  20  37  63  86 119 159 197 246 302 355
#     4  11  22  39  60  90 120 154 202 250 294 350
#     4  10  16  34  60  80 110 158 200 250 292 344
#     4  12  20  37  61  88 117 158 200 244 299 352
#     4  10  20  39  61  87 121 161 197 241 302 359
#
# _framework density 20.535225000000001
#
# number of rings (size 3 to 8) (size 9 to 14) (size 15 to 20)
#    0.000    1.250    7.500    1.500    0.000    2.500 
#    4.500    0.000    0.000    3.000    0.000    0.000 
#    0.000    0.000    0.000    0.000    0.000    0.000 
#
# Total GULP energy -178539.121362 kJ/mol
# GULP energy per Si atom -5579.347543 kJ/mol
# Density = 2.048849 g / cm^3
# Si number density = 20.535225 Si / 1000 Ang^3
#
#
#
# Elastic Constant Matrix: (Units=GPa)
#
#
# Indices 1 2 3 4 5 6 
#
# 1 145.0343 28.8285 36.2755 0.0000 0.0000 0.0000
# 2 28.8285 59.1807 34.5351 0.0000 0.0000 0.0000
# 3 36.2755 34.5351 122.2788 0.0000 0.0000 0.0000
# 4 0.0000 0.0000 0.0000 14.0828 0.0000 0.0000
# 5 0.0000 0.0000 0.0000 0.0000 34.4631 0.0000
# 6 0.0000 0.0000 0.0000 0.0000 0.0000 -355.0671
#
#
#
# Elastic Compliance Matrix: (Units=1/GPa)
#
#
# Indices 1 2 3 4 5 6 
#
# 1 0.007856 -0.002954 -0.001496 0.000000 0.000000 0.000000
# 2 -0.002954 0.021342 -0.005151 0.000000 0.000000 0.000000
# 3 -0.001496 -0.005151 0.010077 0.000000 0.000000 0.000000
# 4 0.000000 0.000000 0.000000 0.071008 0.000000 0.000000
# 5 0.000000 0.000000 0.000000 0.000000 0.029017 0.000000
# 6 0.000000 0.000000 0.000000 0.000000 0.000000 -0.002816
#
#
# Mechanical properties :
#
#
# Convention : Reuss Voigt Hill
#
# Bulk Modulus (GPa) = 49.81991 58.41910 54.11951
# Shear Modulus (GPa) = 30.79230 -46.18058 -7.69414
#
# Velocity S-wave (km/s) = 3.87652 -4.74735 -1.93777
# Velocity P-wave (km/s) = 6.65957 1.24086 4.62657
#
# Compressibility (1/GPa) = 0.02007230
#
# Stress axis : x y z
#
# Youngs Moduli (GPa) = 127.28598 46.85512 99.23694
#
# Poissons Ratio (x) = 0.13840 0.14850
# Poissons Ratio (y) = 0.37597 0.51121
# Poissons Ratio (z) = 0.19048 0.24137
#
# Static dielectric constant tensor:
#      x y z
#    x 1.808470 0.000000 0.000000 
#    y 0.000000 1.760340 0.000000 
#    z 0.000000 0.000000 1.722500 
# 
# From -- ./inp_files/27339.got.cif
#   From: 2010.05.17/outbox.cif.g08.bks.cpg/sg53_14_cif.got.tgz:27339.got - 2010.06.03 12:45:16.
