data_PCOD9414088
_publ_section_title
;
Structure prediction by ZEFSAII (Michael W. Deem and Ramdas Pophale) SiO2 
 PCOD9414088
Probable space group: P M N A
;
_chemical_formula_sum "Si O2"
_cell_formula_units_Z 64
_cell_length_a 7.628170
_cell_length_b 15.696322
_cell_length_c 30.540835
_cell_angle_alpha 90.000000
_cell_angle_beta 90.000000
_cell_angle_gamma 90.000000
_cell_volume 3656.782831
_symmetry_space_group_name_H-M "P M N A"
_symmetry_group_IT_number 53
_symmetry_cell_setting 'orthorhombic'
loop_
_space_group_symop_operation_xyz
x,y,z
1/2-x,-y,1/2+z
x,-y,-z
1/2-x,y,1/2-z
-x,-y,-z
1/2+x,y,1/2-z
-x,y,z
1/2+x,-y,1/2+z
loop_
_atom_site_type_symbol
_atom_site_label
_atom_site_fract_x
_atom_site_fract_y
_atom_site_fract_z
Si Si1 0.291199 0.541133 0.106191
Si Si2 0.707495 0.488766 0.299071
Si Si3 0.286726 0.873524 0.030574
Si Si4 0.713002 0.951572 0.935679
Si Si5 0.285489 0.679911 0.038203
Si Si6 0.708153 0.295258 0.298974
Si Si7 0.705733 0.793823 0.886223
Si Si8 0.214750 0.368485 0.440738
O O1 0.500000 0.539745 0.099871
O O2 0.261361 0.541157 0.158203
O O3 0.225114 0.621518 0.078445
O O4 0.224075 0.452966 0.084593
O O5 0.750000 0.520063 0.250000
O O6 0.500000 0.481947 0.300864
O O7 0.781060 0.392003 0.303640
O O8 0.500000 0.870776 0.032344
O O9 0.225173 0.777987 0.039694
O O10 0.225020 0.950898 0.061584
O O11 0.243598 0.904412 0.981434
O O12 0.500000 0.957802 0.933851
O O13 0.776442 0.886783 0.898510
O O14 0.500000 0.681891 0.038574
O O15 0.235632 0.638044 0.991620
O O16 0.750000 0.266734 0.250000
O O17 0.500000 0.299171 0.304267
O O18 0.777572 0.234156 0.336382
O O19 0.500000 0.797116 0.897407
O O20 0.777635 0.716193 0.915569
O O21 0.000000 0.368997 0.439364
#
# Coordination Sequence:
#
# PCOD9414088 Si02
#       8
#     8   8   8   8   8   8   8   8
#     4  10  18  27  42  64  89 119 151 181 217 257
#     4  10  20  33  48  64  85 111 143 181 221 263
#     4   8  12  20  33  57  90 117 145 183 217 243
#     4   8  13  20  35  59  88 117 144 178 218 250
#     4   9  15  23  37  60  90 122 155 187 214 245
#     4  10  20  32  46  64  86 113 143 177 218 264
#     4  10  16  25  43  65  89 117 147 179 216 256
#     4   9  15  23  36  59  90 120 151 181 207 244
#
# _framework density 17.501723999999999
#
# number of rings (size 3 to 8) (size 9 to 14) (size 15 to 20)
#    0.000    2.750    2.500    1.875    0.000    2.500 
#    0.000    0.000    0.000    2.250    0.000    3.500 
#    0.000    0.000    0.000    0.000    0.000    0.000 
#
# Total GULP energy -356710.262111 kJ/mol
# GULP energy per Si atom -5573.597845 kJ/mol
# Density = 1.746189 g / cm^3
# Si number density = 17.501724 Si / 1000 Ang^3
#
#
#
# Elastic Constant Matrix: (Units=GPa)
#
#
# Indices 1 2 3 4 5 6 
#
# 1 31.6036 4.1767 -8.8041 0.0000 0.0000 0.0000
# 2 4.1767 104.4719 69.5823 0.0000 0.0000 0.0000
# 3 -8.8041 69.5823 122.4519 0.0000 0.0000 0.0000
# 4 0.0000 0.0000 0.0000 25.0070 0.0000 0.0000
# 5 0.0000 0.0000 0.0000 0.0000 7.2291 0.0000
# 6 0.0000 0.0000 0.0000 0.0000 0.0000 -0.5740
#
#
#
# Elastic Compliance Matrix: (Units=1/GPa)
#
#
# Indices 1 2 3 4 5 6 
#
# 1 0.033701 -0.004764 0.005130 0.000000 0.000000 0.000000
# 2 -0.004764 0.016074 -0.009477 0.000000 0.000000 0.000000
# 3 0.005130 -0.009477 0.013920 0.000000 0.000000 0.000000
# 4 0.000000 0.000000 0.000000 0.039989 0.000000 0.000000
# 5 0.000000 0.000000 0.000000 0.000000 0.138330 0.000000
# 6 0.000000 0.000000 0.000000 0.000000 0.000000 -1.742172
#
#
# Mechanical properties :
#
#
# Convention : Reuss Voigt Hill
#
# Bulk Modulus (GPa) = 21.99052 43.15971 32.57512
# Shear Modulus (GPa) = -3.40883 19.23724 7.91421
#
# Velocity S-wave (km/s) = -1.39712 3.31896 2.12880
# Velocity P-wave (km/s) = 3.16061 6.27703 4.96944
#
# Compressibility (1/GPa) = 0.04547413
#
# Stress axis : x y z
#
# Youngs Moduli (GPa) = 29.67290 62.21153 71.83740
#
# Poissons Ratio (x) = 0.29640 -0.36855
# Poissons Ratio (y) = 0.14137 0.68077
# Poissons Ratio (z) = -0.15223 0.58955
#
# Static dielectric constant tensor:
#      x y z
#    x 1.667470 0.000000 0.000000 
#    y 0.000000 1.615250 0.000000 
#    z 0.000000 0.000000 1.594610 
# 
# From -- ./inp_files/38407.got.cif
#   From: 2010.05.17/outbox.cif.g08.bks.cpg/sg53_20_cif.got.tgz:38407.got - 2010.06.03 12:45:16.
