data_PCOD9414376
_publ_section_title
;
Structure prediction by ZEFSAII (Michael W. Deem and Ramdas Pophale) SiO2 
 PCOD9414376
Probable space group: P M N A
;
_chemical_formula_sum "Si O2"
_cell_formula_units_Z 64
_cell_length_a 8.777703
_cell_length_b 18.836876
_cell_length_c 26.775410
_cell_angle_alpha 90.000000
_cell_angle_beta 90.000000
_cell_angle_gamma 90.000000
_cell_volume 4427.166858
_symmetry_space_group_name_H-M "P M N A"
_symmetry_group_IT_number 53
_symmetry_cell_setting 'orthorhombic'
loop_
_space_group_symop_operation_xyz
x,y,z
1/2-x,-y,1/2+z
x,-y,-z
1/2-x,y,1/2-z
-x,-y,-z
1/2+x,y,1/2-z
-x,y,z
1/2+x,-y,1/2+z
loop_
_atom_site_type_symbol
_atom_site_label
_atom_site_fract_x
_atom_site_fract_y
_atom_site_fract_z
Si Si1 0.318494 0.168049 0.509754
Si Si2 0.682829 0.331874 0.503483
Si Si3 0.318655 0.414532 0.605718
Si Si4 0.317919 0.329110 0.804478
Si Si5 0.824225 0.951320 0.550055
Si Si6 0.816527 0.087923 0.605363
Si Si7 0.817465 0.174499 0.804647
Si Si8 0.675342 0.542616 0.947332
O O1 0.500000 0.165508 0.517741
O O2 0.272981 0.249587 0.501527
O O3 0.273235 0.117281 0.463671
O O4 0.237530 0.136169 0.558777
O O5 0.500000 0.337106 0.498640
O O6 0.721678 0.365016 0.557811
O O7 0.757704 0.380847 0.461197
O O8 0.500000 0.410194 0.613108
O O9 0.232779 0.385054 0.653901
O O10 0.269957 0.494075 0.590672
O O11 0.250000 0.346814 0.750000
O O12 0.500000 0.323278 0.801453
O O13 0.247196 0.252404 0.818554
O O14 0.000000 0.930856 0.558849
O O15 0.822283 0.000000 0.500000
O O16 0.772769 0.006427 0.592538
O O17 0.740637 0.118705 0.654754
O O18 0.000000 0.090736 0.608357
O O19 0.750000 0.158426 0.750000
O O20 0.000000 0.177215 0.802934
O O21 0.500000 0.547086 0.931555
O O22 0.680985 0.500000 0.000000
#
# Coordination Sequence:
#
# PCOD9414376 Si02
#       8
#     8   8   8   8   8   8   8   8
#     4  10  18  27  42  64  88 114 147 182 215 255
#     4   9  18  29  41  60  86 115 144 176 214 255
#     4  10  18  30  46  62  85 116 147 178 215 255
#     4  11  21  33  47  64  87 114 146 181 216 252
#     4   8  16  29  42  58  83 113 143 176 215 256
#     4  10  19  31  45  61  84 115 148 180 216 256
#     4  11  21  33  47  64  86 112 144 180 218 255
#     4   9  17  28  42  61  83 109 143 179 213 252
#
# _framework density 14.456198000000001
#
# number of rings (size 3 to 8) (size 9 to 14) (size 15 to 20)
#    0.000    2.250    0.000    6.000    0.000    6.750 
#    0.000    0.000    0.000    0.000    0.000    0.000 
#    0.000    1.000    0.000    6.750    0.000    5.000 
#
# Total GULP energy -356858.226961 kJ/mol
# GULP energy per Si atom -5575.909796 kJ/mol
# Density = 1.442329 g / cm^3
# Si number density = 14.456198 Si / 1000 Ang^3
#
#
#
# Elastic Constant Matrix: (Units=GPa)
#
#
# Indices 1 2 3 4 5 6 
#
# 1 80.1981 38.1399 30.9886 0.0000 0.0000 0.0000
# 2 38.1399 91.5761 35.3511 0.0000 0.0000 0.0000
# 3 30.9886 35.3511 56.7016 0.0000 0.0000 0.0000
# 4 0.0000 0.0000 0.0000 24.2791 0.0000 0.0000
# 5 0.0000 0.0000 0.0000 0.0000 20.6413 0.0000
# 6 0.0000 0.0000 0.0000 0.0000 0.0000 21.4111
#
#
#
# Elastic Compliance Matrix: (Units=1/GPa)
#
#
# Indices 1 2 3 4 5 6 
#
# 1 0.017191 -0.004653 -0.006495 0.000000 0.000000 0.000000
# 2 -0.004653 0.015640 -0.007208 0.000000 0.000000 0.000000
# 3 -0.006495 -0.007208 0.025680 0.000000 0.000000 0.000000
# 4 0.000000 0.000000 0.000000 0.041188 0.000000 0.000000
# 5 0.000000 0.000000 0.000000 0.000000 0.048447 0.000000
# 6 0.000000 0.000000 0.000000 0.000000 0.000000 0.046705
#
#
# Mechanical properties :
#
#
# Convention : Reuss Voigt Hill
#
# Bulk Modulus (GPa) = 45.87146 48.60389 47.23767
# Shear Modulus (GPa) = 20.93555 21.53273 21.23414
#
# Velocity S-wave (km/s) = 3.80966 3.86361 3.83673
# Velocity P-wave (km/s) = 7.15203 7.32105 7.23704
#
# Compressibility (1/GPa) = 0.02180005
#
# Stress axis : x y z
#
# Youngs Moduli (GPa) = 58.16858 63.93754 38.94130
#
# Poissons Ratio (x) = 0.29749 0.25291
# Poissons Ratio (y) = 0.27065 0.28070
# Poissons Ratio (z) = 0.37778 0.46087
#
# Static dielectric constant tensor:
#      x y z
#    x 1.484950 0.000000 0.000000 
#    y 0.000000 1.477110 0.000000 
#    z 0.000000 0.000000 1.462660 
# 
# From -- ./inp_files/34581.got.cif
#   From: 2010.05.17/outbox.cif.g08.bks.cpg/sg53_18_cif.got.tgz:34581.got - 2010.06.03 12:45:16.
