data_PCOD9414390
_publ_section_title
;
Structure prediction by ZEFSAII (Michael W. Deem and Ramdas Pophale) SiO2 
 PCOD9414390
Probable space group: P M N A
;
_chemical_formula_sum "Si O2"
_cell_formula_units_Z 56
_cell_length_a 8.059321
_cell_length_b 14.237764
_cell_length_c 29.427318
_cell_angle_alpha 90.000000
_cell_angle_beta 90.000000
_cell_angle_gamma 90.000000
_cell_volume 3376.687936
_symmetry_space_group_name_H-M "P M N A"
_symmetry_group_IT_number 53
_symmetry_cell_setting 'orthorhombic'
loop_
_space_group_symop_operation_xyz
x,y,z
1/2-x,-y,1/2+z
x,-y,-z
1/2-x,y,1/2-z
-x,-y,-z
1/2+x,y,1/2-z
-x,y,z
1/2+x,-y,1/2+z
loop_
_atom_site_type_symbol
_atom_site_label
_atom_site_fract_x
_atom_site_fract_y
_atom_site_fract_z
Si Si1 0.203057 0.898606 0.017158
Si Si2 0.201746 0.391846 0.945121
Si Si3 0.703639 0.576378 0.608235
Si Si4 0.297626 0.287868 0.465355
Si Si5 0.800175 0.796316 0.106867
Si Si6 0.804210 0.484782 0.800892
Si Si7 0.694891 0.729974 0.199771
O O1 0.254105 0.871156 0.068628
O O2 0.000000 0.898638 0.017097
O O3 0.255924 0.813905 0.983612
O O4 0.258951 0.000000 0.000000
O O5 0.255619 0.489643 0.924024
O O6 0.252229 0.305020 0.913200
O O7 0.000000 0.394062 0.945403
O O8 0.252100 0.363032 0.995794
O O9 0.500000 0.577054 0.609065
O O10 0.756263 0.672082 0.583288
O O11 0.764323 0.549433 0.658507
O O12 0.500000 0.285555 0.465275
O O13 0.741161 0.798795 0.158584
O O14 0.000000 0.797840 0.107536
O O15 0.750000 0.508323 0.750000
O O16 0.768592 0.374213 0.808908
O O17 0.000000 0.494913 0.802370
O O18 0.750000 0.760998 0.250000
O O19 0.500000 0.717315 0.200859
#
# Coordination Sequence:
#
# PCOD9414390 Si02
#       7
#     8   8   8   8   8   8   8
#     4   8  14  24  40  63  89 112 137 174 218 257
#     4   8  12  19  32  52  79 106 133 165 198 232
#     4   9  14  20  33  53  78 106 138 171 202 236
#     4   8  13  19  31  55  83 107 133 168 206 244
#     4   9  15  26  42  61  86 115 142 172 209 249
#     4  10  18  28  40  56  81 111 145 177 206 241
#     4  11  20  29  42  60  84 113 145 176 208 248
#
# _framework density 16.584296999999999
#
# number of rings (size 3 to 8) (size 9 to 14) (size 15 to 20)
#    0.000    3.000    1.429    4.714    0.000    1.714 
#    0.000    0.000    0.000    0.429    0.000   13.000 
#    0.000    2.286    0.000    0.000    0.000    0.571 
#
# Total GULP energy -311779.082860 kJ/mol
# GULP energy per Si atom -5567.483623 kJ/mol
# Density = 1.654655 g / cm^3
# Si number density = 16.584297 Si / 1000 Ang^3
#
#
#
# Elastic Constant Matrix: (Units=GPa)
#
#
# Indices 1 2 3 4 5 6 
#
# 1 10.2017 4.6000 9.0666 0.0000 0.0000 0.0000
# 2 4.6000 78.6087 75.7848 0.0000 0.0000 0.0000
# 3 9.0666 75.7848 151.9593 0.0000 0.0000 0.0000
# 4 0.0000 0.0000 0.0000 18.7429 0.0000 0.0000
# 5 0.0000 0.0000 0.0000 0.0000 12.1199 0.0000
# 6 0.0000 0.0000 0.0000 0.0000 0.0000 4.3156
#
#
#
# Elastic Compliance Matrix: (Units=1/GPa)
#
#
# Indices 1 2 3 4 5 6 
#
# 1 0.103513 -0.000199 -0.006077 0.000000 0.000000 0.000000
# 2 -0.000199 0.024502 -0.012208 0.000000 0.000000 0.000000
# 3 -0.006077 -0.012208 0.013032 0.000000 0.000000 0.000000
# 4 0.000000 0.000000 0.000000 0.053353 0.000000 0.000000
# 5 0.000000 0.000000 0.000000 0.000000 0.082509 0.000000
# 6 0.000000 0.000000 0.000000 0.000000 0.000000 0.231717
#
#
# Mechanical properties :
#
#
# Convention : Reuss Voigt Hill
#
# Bulk Modulus (GPa) = 9.60802 46.63029 28.11915
# Shear Modulus (GPa) = 8.61644 17.12358 12.87001
#
# Velocity S-wave (km/s) = 2.28185 3.21677 2.78876
# Velocity P-wave (km/s) = 3.57050 6.47881 5.23084
#
# Compressibility (1/GPa) = 0.10407974
#
# Stress axis : x y z
#
# Youngs Moduli (GPa) = 9.66062 40.81283 76.73696
#
# Poissons Ratio (x) = 0.00811 0.46633
# Poissons Ratio (y) = 0.00192 0.93679
# Poissons Ratio (z) = 0.05871 0.49823
#
# Static dielectric constant tensor:
#      x y z
#    x 1.597760 0.000000 0.000000 
#    y 0.000000 1.544520 0.000000 
#    z 0.000000 0.000000 1.613780 
# 
# From -- ./inp_files/38375.got.cif
#   From: 2010.05.17/outbox.cif.g08.bks.cpg/sg53_20_cif.got.tgz:38375.got - 2010.06.03 12:45:16.
