data_PCOD9414477
_publ_section_title
;
Structure prediction by ZEFSAII (Michael W. Deem and Ramdas Pophale) SiO2 
 PCOD9414477
Probable space group: P M N A
;
_chemical_formula_sum "Si O2"
_cell_formula_units_Z 64
_cell_length_a 9.342669
_cell_length_b 13.986568
_cell_length_c 32.349401
_cell_angle_alpha 90.000000
_cell_angle_beta 90.000000
_cell_angle_gamma 90.000000
_cell_volume 4227.156893
_symmetry_space_group_name_H-M "P M N A"
_symmetry_group_IT_number 53
_symmetry_cell_setting 'orthorhombic'
loop_
_space_group_symop_operation_xyz
x,y,z
1/2-x,-y,1/2+z
x,-y,-z
1/2-x,y,1/2-z
-x,-y,-z
1/2+x,y,1/2-z
-x,y,z
1/2+x,-y,1/2+z
loop_
_atom_site_type_symbol
_atom_site_label
_atom_site_fract_x
_atom_site_fract_y
_atom_site_fract_z
Si Si1 0.834840 0.275521 0.628412
Si Si2 0.167329 0.505852 0.624195
Si Si3 0.836429 0.032053 0.451514
Si Si4 0.328142 0.564388 0.540171
Si Si5 0.164340 0.279510 0.790389
Si Si6 0.662887 0.788464 0.529462
Si Si7 0.166571 0.487653 0.208154
Si Si8 0.336454 0.149823 0.566392
O O1 0.829553 0.390242 0.624898
O O2 0.747980 0.247317 0.669148
O O3 0.757762 0.226556 0.590222
O O4 0.000000 0.246877 0.631106
O O5 0.245310 0.536602 0.581953
O O6 0.250664 0.538982 0.665782
O O7 0.000000 0.535086 0.625066
O O8 0.770073 0.137738 0.448861
O O9 0.000000 0.028540 0.437016
O O10 0.837239 0.000000 0.500000
O O11 0.736277 0.953752 0.429989
O O12 0.288183 0.500000 0.500000
O O13 0.500000 0.551552 0.546099
O O14 0.300714 0.676664 0.531950
O O15 0.250000 0.248803 0.750000
O O16 0.164855 0.395962 0.790853
O O17 0.000000 0.248664 0.789952
O O18 0.500000 0.800962 0.545209
O O19 0.661936 0.820001 0.481591
O O20 0.250000 0.457321 0.250000
O O21 0.000000 0.456782 0.207975
O O22 0.500000 0.149355 0.581188
#
# Coordination Sequence:
#
# PCOD9414477 Si02
#       8
#     8   8   8   8   8   8   8   8
#     4  10  19  29  41  60  87 116 146 181 218 257
#     4  10  20  31  43  62  89 120 154 189 224 265
#     4   9  17  29  45  64  85 108 136 174 219 262
#     4  10  20  33  47  63  87 121 159 193 224 262
#     4   9  16  26  40  58  81 111 144 175 211 256
#     4   9  18  31  46  63  84 113 148 184 221 261
#     4   9  16  27  44  63  84 111 144 183 226 269
#     4  10  18  29  46  65  85 110 143 181 220 262
#
# _framework density 15.1402
#
# number of rings (size 3 to 8) (size 9 to 14) (size 15 to 20)
#    0.000    2.500    0.000    3.000    0.000    8.250 
#    0.000    0.000    0.000    0.000    0.000    0.000 
#    0.000    1.000    0.000    5.500    0.000    5.875 
#
# Total GULP energy -356563.070794 kJ/mol
# GULP energy per Si atom -5571.297981 kJ/mol
# Density = 1.510574 g / cm^3
# Si number density = 15.140200 Si / 1000 Ang^3
#
#
#
# Elastic Constant Matrix: (Units=GPa)
#
#
# Indices 1 2 3 4 5 6 
#
# 1 134.5508 38.5966 53.6156 0.0000 0.0000 0.0000
# 2 38.5966 43.9602 17.2747 0.0000 0.0000 0.0000
# 3 53.6156 17.2747 74.0953 0.0000 0.0000 0.0000
# 4 0.0000 0.0000 0.0000 5.6162 0.0000 0.0000
# 5 0.0000 0.0000 0.0000 0.0000 26.9041 0.0000
# 6 0.0000 0.0000 0.0000 0.0000 0.0000 18.2133
#
#
#
# Elastic Compliance Matrix: (Units=1/GPa)
#
#
# Indices 1 2 3 4 5 6 
#
# 1 0.012707 -0.008304 -0.007258 0.000000 0.000000 0.000000
# 2 -0.008304 0.030469 -0.001095 0.000000 0.000000 0.000000
# 3 -0.007258 -0.001095 0.019004 0.000000 0.000000 0.000000
# 4 0.000000 0.000000 0.000000 0.178056 0.000000 0.000000
# 5 0.000000 0.000000 0.000000 0.000000 0.037169 0.000000
# 6 0.000000 0.000000 0.000000 0.000000 0.000000 0.054905
#
#
# Mechanical properties :
#
#
# Convention : Reuss Voigt Hill
#
# Bulk Modulus (GPa) = 34.64452 52.39778 43.52115
# Shear Modulus (GPa) = 13.32462 19.68801 16.50631
#
# Velocity S-wave (km/s) = 2.96984 3.60999 3.30545
# Velocity P-wave (km/s) = 5.89000 7.21523 6.58603
#
# Compressibility (1/GPa) = 0.02886459
#
# Stress axis : x y z
#
# Youngs Moduli (GPa) = 78.69982 32.82041 52.62150
#
# Poissons Ratio (x) = 0.27254 0.38195
# Poissons Ratio (y) = 0.65352 0.05761
# Poissons Ratio (z) = 0.57124 0.03593
#
# Static dielectric constant tensor:
#      x y z
#    x 1.517240 0.000000 0.000000 
#    y 0.000000 1.482200 0.000000 
#    z 0.000000 0.000000 1.517190 
# 
# From -- ./inp_files/38460.got.cif
#   From: 2010.05.17/outbox.cif.g08.bks.cpg/sg53_20_cif.got.tgz:38460.got - 2010.06.03 12:45:16.
