data_PCOD9414893
_publ_section_title
;
Structure prediction by ZEFSAII (Michael W. Deem and Ramdas Pophale) SiO2 
 PCOD9414893
Probable space group: P M N A
;
_chemical_formula_sum "Si O2"
_cell_formula_units_Z 48
_cell_length_a 17.198487
_cell_length_b 7.237019
_cell_length_c 16.541417
_cell_angle_alpha 90.000000
_cell_angle_beta 90.000000
_cell_angle_gamma 90.000000
_cell_volume 2058.840323
_symmetry_space_group_name_H-M "P M N A"
_symmetry_group_IT_number 53
_symmetry_cell_setting 'orthorhombic'
loop_
_space_group_symop_operation_xyz
x,y,z
1/2-x,-y,1/2+z
x,-y,-z
1/2-x,y,1/2-z
-x,-y,-z
1/2+x,y,1/2-z
-x,y,z
1/2+x,-y,1/2+z
loop_
_atom_site_type_symbol
_atom_site_label
_atom_site_fract_x
_atom_site_fract_y
_atom_site_fract_z
Si Si1 0.189001 0.782049 0.512306
Si Si2 0.087909 0.856203 0.658873
Si Si3 0.153815 0.116329 0.932019
Si Si4 0.668135 0.382834 0.708392
Si Si5 0.588080 0.299048 0.868340
Si Si6 0.179680 0.796180 0.809364
O O1 0.151575 0.755741 0.601149
O O2 0.278319 0.775928 0.481284
O O3 0.143125 0.669171 0.444392
O O4 0.170091 0.000000 0.500000
O O5 0.104190 0.819113 0.753016
O O6 0.000000 0.804972 0.634662
O O7 0.094356 0.078648 0.650365
O O8 0.129889 0.255292 0.860714
O O9 0.185749 0.946592 0.878408
O O10 0.105820 0.000000 0.000000
O O11 0.750000 0.314438 0.750000
O O12 0.613208 0.398460 0.786191
O O13 0.684519 0.581424 0.668647
O O14 0.500000 0.341384 0.889582
O O15 0.250000 0.837655 0.750000
#
# Coordination Sequence:
#
# PCOD9414893 Si02
#       6
#     8   8   8   8   8   8
#     4   9  17  31  58  89 122 162 197 239 298 363
#     4  10  20  36  61  93 129 166 204 246 305 376
#     4  11  21  37  63  86 118 159 201 259 306 352
#     4  11  22  37  58  87 120 159 208 252 300 363
#     4  10  18  32  57  85 120 160 196 240 298 363
#     4  11  22  37  60  89 120 163 208 252 301 361
#
# _framework density 23.314094999999998
#
# number of rings (size 3 to 8) (size 9 to 14) (size 15 to 20)
#    0.000    1.667    3.333    4.000    0.000    3.333 
#    0.000    0.833    0.000    4.000    0.000    2.333 
#    0.000    0.000    0.000    0.000    0.000    0.000 
#
# Total GULP energy -267667.350601 kJ/mol
# GULP energy per Si atom -5576.403138 kJ/mol
# Density = 2.326103 g / cm^3
# Si number density = 23.314095 Si / 1000 Ang^3
#
#
#
# Elastic Constant Matrix: (Units=GPa)
#
#
# Indices 1 2 3 4 5 6 
#
# 1 35.6044 -13.4539 7.6091 0.0000 0.0000 0.0000
# 2 -13.4539 54.7667 -9.6131 0.0000 0.0000 0.0000
# 3 7.6091 -9.6131 81.0190 0.0000 0.0000 0.0000
# 4 0.0000 0.0000 0.0000 25.1645 0.0000 0.0000
# 5 0.0000 0.0000 0.0000 0.0000 23.0316 0.0000
# 6 0.0000 0.0000 0.0000 0.0000 0.0000 5.6707
#
#
#
# Elastic Compliance Matrix: (Units=1/GPa)
#
#
# Indices 1 2 3 4 5 6 
#
# 1 0.031297 0.007325 -0.002070 0.000000 0.000000 0.000000
# 2 0.007325 0.020362 0.001728 0.000000 0.000000 0.000000
# 3 -0.002070 0.001728 0.012742 0.000000 0.000000 0.000000
# 4 0.000000 0.000000 0.000000 0.039738 0.000000 0.000000
# 5 0.000000 0.000000 0.000000 0.000000 0.043419 0.000000
# 6 0.000000 0.000000 0.000000 0.000000 0.000000 0.176345
#
#
# Mechanical properties :
#
#
# Convention : Reuss Voigt Hill
#
# Bulk Modulus (GPa) = 12.76052 15.60824 14.18438
# Shear Modulus (GPa) = 14.87832 23.22990 19.05411
#
# Velocity S-wave (km/s) = 2.52894 3.15999 2.86191
# Velocity P-wave (km/s) = 3.74334 4.47474 4.12528
#
# Compressibility (1/GPa) = 0.07836670
#
# Stress axis : x y z
#
# Youngs Moduli (GPa) = 31.95220 49.11104 78.47908
#
# Poissons Ratio (x) = -0.35974 0.16247
# Poissons Ratio (y) = -0.23405 -0.13562
# Poissons Ratio (z) = 0.06615 -0.08487
#
# Static dielectric constant tensor:
#      x y z
#    x 1.909240 0.000000 0.000000 
#    y 0.000000 1.903570 0.000000 
#    z 0.000000 0.000000 1.935510 
# 
# From -- ./inp_files/24186.got.cif
#   From: 2010.05.17/outbox.cif.g08.bks.cpg/sg53_13_cif.got.tgz:24186.got - 2010.06.03 12:45:16.
