data_PCOD9414509
_publ_section_title
;
Structure prediction by ZEFSAII (Michael W. Deem and Ramdas Pophale) SiO2 
 PCOD9414509
Probable space group: P M N A
;
_chemical_formula_sum "Si O2"
_cell_formula_units_Z 48
_cell_length_a 8.744076
_cell_length_b 15.467753
_cell_length_c 21.591630
_cell_angle_alpha 90.000000
_cell_angle_beta 90.000000
_cell_angle_gamma 90.000000
_cell_volume 2920.294035
_symmetry_space_group_name_H-M "P M N A"
_symmetry_group_IT_number 53
_symmetry_cell_setting 'orthorhombic'
loop_
_space_group_symop_operation_xyz
x,y,z
1/2-x,-y,1/2+z
x,-y,-z
1/2-x,y,1/2-z
-x,-y,-z
1/2+x,y,1/2-z
-x,y,z
1/2+x,-y,1/2+z
loop_
_atom_site_type_symbol
_atom_site_label
_atom_site_fract_x
_atom_site_fract_y
_atom_site_fract_z
Si Si1 0.181270 0.800079 0.545745
Si Si2 0.176877 0.978426 0.926335
Si Si3 0.319140 0.156854 0.900299
Si Si4 0.317776 0.692501 0.318587
Si Si5 0.682648 0.616791 0.544869
Si Si6 0.316634 0.443199 0.913060
O O1 0.244148 0.885399 0.579528
O O2 0.207151 0.814906 0.471878
O O3 0.266238 0.712360 0.564086
O O4 0.000000 0.791542 0.554963
O O5 0.000000 0.975469 0.907268
O O6 0.263789 0.058068 0.894682
O O7 0.180501 0.000000 0.000000
O O8 0.500000 0.163942 0.888371
O O9 0.228673 0.221222 0.855969
O O10 0.250000 0.696233 0.250000
O O11 0.500000 0.683523 0.317166
O O12 0.243765 0.613138 0.356323
O O13 0.500000 0.609075 0.542847
O O14 0.754011 0.540934 0.586645
O O15 0.750472 0.599009 0.476211
O O16 0.500000 0.442111 0.915888
#
# Coordination Sequence:
#
# PCOD9414509 Si02
#       6
#     8   8   8   8   8   8
#     4  10  18  29  47  72 103 136 169 205 252 306
#     4   9  17  28  44  68  99 132 167 203 245 295
#     4  10  19  32  49  70 100 134 170 209 253 302
#     4  12  24  38  55  75 101 135 176 217 259 307
#     4  11  20  31  50  75 103 136 171 210 259 313
#     4  11  21  35  51  72 101 134 171 213 260 310
#
# _framework density 16.436699999999998
#
# number of rings (size 3 to 8) (size 9 to 14) (size 15 to 20)
#    0.000    1.500    1.667    7.000    0.000    3.333 
#    0.000    0.000    0.000    0.000    0.000    1.167 
#    0.000    0.000    0.000    0.000    0.000    0.000 
#
# Total GULP energy -268044.691088 kJ/mol
# GULP energy per Si atom -5584.264398 kJ/mol
# Density = 1.639929 g / cm^3
# Si number density = 16.436700 Si / 1000 Ang^3
#
#
#
# Elastic Constant Matrix: (Units=GPa)
#
#
# Indices 1 2 3 4 5 6 
#
# 1 148.9408 71.8619 37.6669 0.0000 0.0000 0.0000
# 2 71.8619 152.0575 31.8070 0.0000 0.0000 0.0000
# 3 37.6669 31.8070 42.4888 0.0000 0.0000 0.0000
# 4 0.0000 0.0000 0.0000 8.5114 0.0000 0.0000
# 5 0.0000 0.0000 0.0000 0.0000 21.0656 0.0000
# 6 0.0000 0.0000 0.0000 0.0000 0.0000 37.0695
#
#
#
# Elastic Compliance Matrix: (Units=1/GPa)
#
#
# Indices 1 2 3 4 5 6 
#
# 1 0.009932 -0.003382 -0.006274 0.000000 0.000000 0.000000
# 2 -0.003382 0.008949 -0.003701 0.000000 0.000000 0.000000
# 3 -0.006274 -0.003701 0.031868 0.000000 0.000000 0.000000
# 4 0.000000 0.000000 0.000000 0.117490 0.000000 0.000000
# 5 0.000000 0.000000 0.000000 0.000000 0.047471 0.000000
# 6 0.000000 0.000000 0.000000 0.000000 0.000000 0.026976
#
#
# Mechanical properties :
#
#
# Convention : Reuss Voigt Hill
#
# Bulk Modulus (GPa) = 41.60399 69.57320 55.58860
# Shear Modulus (GPa) = 18.02380 26.80606 22.41493
#
# Velocity S-wave (km/s) = 3.31502 4.04278 3.69685
# Velocity P-wave (km/s) = 6.32607 8.01324 7.21911
#
# Compressibility (1/GPa) = 0.02403616
#
# Stress axis : x y z
#
# Youngs Moduli (GPa) = 100.68206 111.74652 31.37953
#
# Poissons Ratio (x) = 0.37789 0.19686
# Poissons Ratio (y) = 0.34047 0.11614
# Poissons Ratio (z) = 0.63164 0.41359
#
# Static dielectric constant tensor:
#      x y z
#    x 1.545080 0.000000 0.000000 
#    y 0.000000 1.565830 0.000000 
#    z 0.000000 0.000000 1.521240 
# 
# From -- ./inp_files/26246.got.cif
#   From: 2010.05.17/outbox.cif.g08.bks.cpg/sg53_14_cif.got.tgz:26246.got - 2010.06.03 12:45:16.
