data_PCOD9414229
_publ_section_title
;
Structure prediction by ZEFSAII (Michael W. Deem and Ramdas Pophale) SiO2 
 PCOD9414229
Probable space group: P M N A
;
_chemical_formula_sum "Si O2"
_cell_formula_units_Z 40
_cell_length_a 8.658381
_cell_length_b 7.150376
_cell_length_c 30.570442
_cell_angle_alpha 90.000000
_cell_angle_beta 90.000000
_cell_angle_gamma 90.000000
_cell_volume 1892.636843
_symmetry_space_group_name_H-M "P M N A"
_symmetry_group_IT_number 53
_symmetry_cell_setting 'orthorhombic'
loop_
_space_group_symop_operation_xyz
x,y,z
1/2-x,-y,1/2+z
x,-y,-z
1/2-x,y,1/2-z
-x,-y,-z
1/2+x,y,1/2-z
-x,y,z
1/2+x,-y,1/2+z
loop_
_atom_site_type_symbol
_atom_site_label
_atom_site_fract_x
_atom_site_fract_y
_atom_site_fract_z
Si Si1 0.314977 0.831089 0.870360
Si Si2 0.185293 0.246307 0.465535
Si Si3 0.315999 0.336613 0.552659
Si Si4 0.317241 0.899420 0.296917
Si Si5 0.183000 0.608790 0.356635
O O1 0.500000 0.863675 0.868215
O O2 0.266217 0.859271 0.921114
O O3 0.287093 0.612468 0.859376
O O4 0.232320 0.955237 0.834427
O O5 0.256313 0.207041 0.513098
O O6 0.236924 0.460611 0.455696
O O7 0.000000 0.236678 0.468740
O O8 0.500000 0.353300 0.549994
O O9 0.263689 0.292716 0.601743
O O10 0.250000 0.953895 0.250000
O O11 0.500000 0.885949 0.294422
O O12 0.245780 0.703110 0.312978
O O13 0.000000 0.637479 0.360461
#
# Coordination Sequence:
#
# PCOD9414229 Si02
#       5
#     8   8   8   8   8
#     4   9  20  39  63  89 118 155 196 240 290 345
#     4   9  16  29  51  80 116 158 198 235 283 341
#     4  10  17  27  49  83 120 155 194 238 285 340
#     4  12  26  43  64  88 117 151 191 244 299 353
#     4  10  21  40  64  88 119 157 198 242 291 349
#
# _framework density 21.134536000000001
#
# number of rings (size 3 to 8) (size 9 to 14) (size 15 to 20)
#    0.000    2.000    0.000    7.200    0.000    5.600 
#    0.000    1.000    0.000    6.000    0.000    0.000 
#    0.000    0.000    0.000    0.000    0.000    0.000 
#
# Total GULP energy -223546.512852 kJ/mol
# GULP energy per Si atom -5588.662821 kJ/mol
# Density = 2.108643 g / cm^3
# Si number density = 21.134536 Si / 1000 Ang^3
#
#
#
# Elastic Constant Matrix: (Units=GPa)
#
#
# Indices 1 2 3 4 5 6 
#
# 1 44.9045 15.6218 30.6864 0.0000 0.0000 0.0000
# 2 15.6218 62.8861 30.0400 0.0000 0.0000 0.0000
# 3 30.6864 30.0400 136.5101 0.0000 0.0000 0.0000
# 4 0.0000 0.0000 0.0000 33.5377 0.0000 0.0000
# 5 0.0000 0.0000 0.0000 0.0000 42.4747 0.0000
# 6 0.0000 0.0000 0.0000 0.0000 0.0000 25.5360
#
#
#
# Elastic Compliance Matrix: (Units=1/GPa)
#
#
# Indices 1 2 3 4 5 6 
#
# 1 0.027316 -0.004305 -0.005193 0.000000 0.000000 0.000000
# 2 -0.004305 0.018448 -0.003092 0.000000 0.000000 0.000000
# 3 -0.005193 -0.003092 0.009173 0.000000 0.000000 0.000000
# 4 0.000000 0.000000 0.000000 0.029817 0.000000 0.000000
# 5 0.000000 0.000000 0.000000 0.000000 0.023543 0.000000
# 6 0.000000 0.000000 0.000000 0.000000 0.000000 0.039160
#
#
# Mechanical properties :
#
#
# Convention : Reuss Voigt Hill
#
# Bulk Modulus (GPa) = 33.60516 44.11079 38.85797
# Shear Modulus (GPa) = 27.38865 31.50652 29.44759
#
# Velocity S-wave (km/s) = 3.60379 3.86523 3.73680
# Velocity P-wave (km/s) = 5.76642 6.39036 6.08639
#
# Compressibility (1/GPa) = 0.02975734
#
# Stress axis : x y z
#
# Youngs Moduli (GPa) = 36.60871 54.20596 109.01302
#
# Poissons Ratio (x) = 0.23336 0.56611
# Poissons Ratio (y) = 0.15760 0.33706
# Poissons Ratio (z) = 0.19011 0.16760
#
# Static dielectric constant tensor:
#      x y z
#    x 1.696580 0.000000 0.000000 
#    y 0.000000 1.803370 0.000000 
#    z 0.000000 0.000000 2.013890 
# 
# From -- ./inp_files/36041.got.cif
#   From: 2010.05.17/outbox.cif.g08.bks.cpg/sg53_19_cif.got.tgz:36041.got - 2010.06.03 12:45:16.
