data_PCOD9414463
_publ_section_title
;
Structure prediction by ZEFSAII (Michael W. Deem and Ramdas Pophale) SiO2 
 PCOD9414463
Probable space group: P M N A
;
_chemical_formula_sum "Si O2"
_cell_formula_units_Z 56
_cell_length_a 8.585969
_cell_length_b 13.926628
_cell_length_c 29.362464
_cell_angle_alpha 90.000000
_cell_angle_beta 90.000000
_cell_angle_gamma 90.000000
_cell_volume 3510.975416
_symmetry_space_group_name_H-M "P M N A"
_symmetry_group_IT_number 53
_symmetry_cell_setting 'orthorhombic'
loop_
_space_group_symop_operation_xyz
x,y,z
1/2-x,-y,1/2+z
x,-y,-z
1/2-x,y,1/2-z
-x,-y,-z
1/2+x,y,1/2-z
-x,y,z
1/2+x,-y,1/2+z
loop_
_atom_site_type_symbol
_atom_site_label
_atom_site_fract_x
_atom_site_fract_y
_atom_site_fract_z
Si Si1 0.811438 0.705388 0.969702
Si Si2 0.688205 0.487833 0.700720
Si Si3 0.814910 0.601500 0.444291
Si Si4 0.688113 0.898546 0.479636
Si Si5 0.686595 0.579425 0.608986
Si Si6 0.684693 0.801236 0.107826
Si Si7 0.186251 0.264501 0.799534
O O1 0.760185 0.672501 0.919406
O O2 0.000000 0.702491 0.971519
O O3 0.745942 0.628756 0.005831
O O4 0.761754 0.809851 0.987867
O O5 0.750000 0.517091 0.750000
O O6 0.500000 0.488825 0.701343
O O7 0.745718 0.554600 0.659462
O O8 0.736564 0.376311 0.692986
O O9 0.729795 0.512122 0.421769
O O10 0.782580 0.696245 0.414005
O O11 0.000000 0.584737 0.445330
O O12 0.500000 0.898513 0.478568
O O13 0.746722 0.875675 0.428782
O O14 0.740846 0.000000 0.500000
O O15 0.500000 0.585596 0.612388
O O16 0.500000 0.813451 0.110256
O O17 0.754285 0.798494 0.158355
O O18 0.250000 0.235602 0.750000
O O19 0.000000 0.262865 0.798689
#
# Coordination Sequence:
#
# PCOD9414463 Si02
#       7
#     8   8   8   8   8   8   8
#     4   9  18  30  45  63  86 115 148 184 222 270
#     4   9  18  29  42  60  85 118 154 186 215 254
#     4  10  19  28  40  61  91 121 150 181 215 256
#     4   9  18  33  51  69  89 115 151 194 239 285
#     4  10  18  29  43  61  86 119 152 180 216 260
#     4  10  19  30  45  67  93 123 155 187 228 275
#     4  10  18  29  45  65  92 124 157 190 222 263
#
# _framework density 15.949984000000001
#
# number of rings (size 3 to 8) (size 9 to 14) (size 15 to 20)
#    0.000    2.429    1.429    1.714    0.000    4.857 
#    0.000    0.000    0.000    0.000    0.000    1.000 
#    0.000    2.286    0.000    0.000    0.000    0.000 
#
# Total GULP energy -312144.477544 kJ/mol
# GULP energy per Si atom -5574.008528 kJ/mol
# Density = 1.591368 g / cm^3
# Si number density = 15.949984 Si / 1000 Ang^3
#
#
#
# Elastic Constant Matrix: (Units=GPa)
#
#
# Indices 1 2 3 4 5 6 
#
# 1 -0.3021 9.5023 21.3294 0.0000 0.0000 0.0000
# 2 9.5023 53.9296 62.9505 0.0000 0.0000 0.0000
# 3 21.3294 62.9505 160.4121 0.0000 0.0000 0.0000
# 4 0.0000 0.0000 0.0000 20.3489 0.0000 0.0000
# 5 0.0000 0.0000 0.0000 0.0000 24.9366 0.0000
# 6 0.0000 0.0000 0.0000 0.0000 0.0000 10.9857
#
#
#
# Elastic Compliance Matrix: (Units=1/GPa)
#
#
# Indices 1 2 3 4 5 6 
#
# 1 -0.314259 0.012172 0.037009 0.000000 0.000000 0.000000
# 2 0.012172 0.033745 -0.014861 0.000000 0.000000 0.000000
# 3 0.037009 -0.014861 0.007145 0.000000 0.000000 0.000000
# 4 0.000000 0.000000 0.000000 0.049143 0.000000 0.000000
# 5 0.000000 0.000000 0.000000 0.000000 0.040102 0.000000
# 6 0.000000 0.000000 0.000000 0.000000 0.000000 0.091027
#
#
# Mechanical properties :
#
#
# Convention : Reuss Voigt Hill
#
# Bulk Modulus (GPa) = -4.88452 44.62268 19.86908
# Shear Modulus (GPa) = -21.74093 19.27138 -1.23477
#
# Velocity S-wave (km/s) = -3.69598 3.47974 -0.88081
# Velocity P-wave (km/s) = 4.61332 6.64697 3.38374
#
# Compressibility (1/GPa) = -0.20472834
#
# Stress axis : x y z
#
# Youngs Moduli (GPa) = -3.18209 29.63427 139.96091
#
# Poissons Ratio (x) = -0.36072 -5.17983
# Poissons Ratio (y) = 0.03873 2.07995
# Poissons Ratio (z) = 0.11777 0.44039
#
# Static dielectric constant tensor:
#      x y z
#    x 1.536720 0.000000 0.000000 
#    y 0.000000 1.527140 0.000000 
#    z 0.000000 0.000000 1.553340 
# 
# From -- ./inp_files/38318.got.cif
#   From: 2010.05.17/outbox.cif.g08.bks.cpg/sg53_20_cif.got.tgz:38318.got - 2010.06.03 12:45:16.
