data_PCOD9414980
_publ_section_title
;
Structure prediction by ZEFSAII (Michael W. Deem and Ramdas Pophale) SiO2 
 PCOD9414980
Probable space group: P M N A
;
_chemical_formula_sum "Si O2"
_cell_formula_units_Z 48
_cell_length_a 9.507992
_cell_length_b 29.839545
_cell_length_c 8.868263
_cell_angle_alpha 90.000000
_cell_angle_beta 90.000000
_cell_angle_gamma 90.000000
_cell_volume 2516.051745
_symmetry_space_group_name_H-M "P M N A"
_symmetry_group_IT_number 53
_symmetry_cell_setting 'orthorhombic'
loop_
_space_group_symop_operation_xyz
x,y,z
1/2-x,-y,1/2+z
x,-y,-z
1/2-x,y,1/2-z
-x,-y,-z
1/2+x,y,1/2-z
-x,y,z
1/2+x,-y,1/2+z
loop_
_atom_site_type_symbol
_atom_site_label
_atom_site_fract_x
_atom_site_fract_y
_atom_site_fract_z
Si Si1 0.500000 0.449225 0.060786
Si Si2 0.000000 0.547662 0.924542
Si Si3 0.834664 0.119608 0.405717
Si Si4 0.334945 0.045701 0.595671
Si Si5 0.666208 0.789035 0.096379
Si Si6 0.328015 0.712346 0.587120
Si Si7 0.744563 0.612676 0.566911
O O1 0.500000 0.455213 0.242749
O O2 0.624182 0.415967 0.015573
O O3 0.500000 0.500000 0.000000
O O4 0.126108 0.578204 0.975157
O O5 0.000000 0.500000 0.000000
O O6 0.750000 0.123686 0.250000
O O7 0.750229 0.083431 0.504501
O O8 0.832341 0.166922 0.492140
O O9 0.000000 0.107134 0.382993
O O10 0.250000 0.038620 0.750000
O O11 0.500000 0.057997 0.621269
O O12 0.333593 0.000000 0.500000
O O13 0.750000 0.799053 0.250000
O O14 0.500000 0.777174 0.120798
O O15 0.755332 0.750126 0.014545
O O16 0.250000 0.715752 0.750000
O O17 0.500000 0.715924 0.600101
O O18 0.287712 0.663370 0.520524
O O19 0.750000 0.615542 0.750000
#
# Coordination Sequence:
#
# PCOD9414980 Si02
#       7
#     4   4   8   8   8   8   8
#     4  10  20  34  52  80 108 144 186 234 287 346
#     4  10  18  34  54  76 108 142 184 232 285 346
#     4  11  24  42  66  96 128 167 214 264 315 371
#     4  11  24  41  64  95 132 175 220 269 323 378
#     4  11  25  43  64  91 126 164 201 250 310 371
#     4  11  22  38  63  91 117 153 202 251 302 362
#     4   9  19  33  55  80 107 144 189 235 287 347
#
# _framework density 19.07751
#
# number of rings (size 3 to 8) (size 9 to 14) (size 15 to 20)
#    0.000    1.500    0.833    4.000    4.667    8.000 
#    0.000    1.667    0.000    0.000    0.000    0.000 
#    0.000    0.000    0.000    0.000    0.000    0.000 
#
# Total GULP energy -267621.211560 kJ/mol
# GULP energy per Si atom -5575.441907 kJ/mol
# Density = 1.903409 g / cm^3
# Si number density = 19.077510 Si / 1000 Ang^3
#
#
#
# Elastic Constant Matrix: (Units=GPa)
#
#
# Indices 1 2 3 4 5 6 
#
# 1 231.9725 79.5084 62.5682 0.0000 0.0000 0.0000
# 2 79.5084 123.6675 36.6949 0.0000 0.0000 0.0000
# 3 62.5682 36.6949 89.1660 0.0000 0.0000 0.0000
# 4 0.0000 0.0000 0.0000 39.9394 0.0000 0.0000
# 5 0.0000 0.0000 0.0000 0.0000 27.4769 0.0000
# 6 0.0000 0.0000 0.0000 0.0000 0.0000 35.8374
#
#
#
# Elastic Compliance Matrix: (Units=1/GPa)
#
#
# Indices 1 2 3 4 5 6 
#
# 1 0.006194 -0.003067 -0.003084 0.000000 0.000000 0.000000
# 2 -0.003067 0.010730 -0.002263 0.000000 0.000000 0.000000
# 3 -0.003084 -0.002263 0.014311 0.000000 0.000000 0.000000
# 4 0.000000 0.000000 0.000000 0.025038 0.000000 0.000000
# 5 0.000000 0.000000 0.000000 0.000000 0.036394 0.000000
# 6 0.000000 0.000000 0.000000 0.000000 0.000000 0.027904
#
#
# Mechanical properties :
#
#
# Convention : Reuss Voigt Hill
#
# Bulk Modulus (GPa) = 69.42028 89.14990 79.28509
# Shear Modulus (GPa) = 35.16141 38.38635 36.77388
#
# Velocity S-wave (km/s) = 4.29777 4.49054 4.39521
# Velocity P-wave (km/s) = 7.81635 8.58594 8.21017
#
# Compressibility (1/GPa) = 0.01440501
#
# Stress axis : x y z
#
# Youngs Moduli (GPa) = 161.44768 93.19913 69.87793
#
# Poissons Ratio (x) = 0.28585 0.21551
# Poissons Ratio (y) = 0.49518 0.15817
# Poissons Ratio (z) = 0.49792 0.21095
#
# Static dielectric constant tensor:
#      x y z
#    x 1.688500 0.000000 0.000000 
#    y 0.000000 1.627420 0.000000 
#    z 0.000000 0.000000 1.663520 
# 
# From -- ./inp_files/6842.got.cif
#   From: 2010.05.17/outbox.cif.g08.bks.cpg/sg53_4_cif.got.tgz:6842.got - 2010.06.03 12:45:16.
