data_PCOD9414441
_publ_section_title
;
Structure prediction by ZEFSAII (Michael W. Deem and Ramdas Pophale) SiO2 
 PCOD9414441
Probable space group: P M N A
;
_chemical_formula_sum "Si O2"
_cell_formula_units_Z 56
_cell_length_a 9.322274
_cell_length_b 18.159453
_cell_length_c 20.262843
_cell_angle_alpha 90.000000
_cell_angle_beta 90.000000
_cell_angle_gamma 90.000000
_cell_volume 3430.243938
_symmetry_space_group_name_H-M "P M N A"
_symmetry_group_IT_number 53
_symmetry_cell_setting 'orthorhombic'
loop_
_space_group_symop_operation_xyz
x,y,z
1/2-x,-y,1/2+z
x,-y,-z
1/2-x,y,1/2-z
-x,-y,-z
1/2+x,y,1/2-z
-x,y,z
1/2+x,-y,1/2+z
loop_
_atom_site_type_symbol
_atom_site_label
_atom_site_fract_x
_atom_site_fract_y
_atom_site_fract_z
Si Si1 0.168996 0.532677 0.927242
Si Si2 0.835172 0.013496 0.079640
Si Si3 0.334336 0.842701 0.939940
Si Si4 0.170380 0.301404 0.034411
Si Si5 0.664451 0.871642 0.098758
Si Si6 0.828808 0.290374 0.604703
Si Si7 0.170266 0.561404 0.318426
O O1 0.192391 0.620304 0.930499
O O2 0.265811 0.492213 0.873958
O O3 0.000000 0.518884 0.913539
O O4 0.198711 0.500000 0.000000
O O5 0.765389 0.940926 0.111403
O O6 0.000000 0.023300 0.098998
O O7 0.742872 0.086751 0.091514
O O8 0.832795 0.000000 0.000000
O O9 0.500000 0.836383 0.920016
O O10 0.247577 0.767240 0.930554
O O11 0.332897 0.857184 0.019384
O O12 0.000000 0.287983 0.028790
O O13 0.239483 0.306559 0.961440
O O14 0.500000 0.888929 0.116553
O O15 0.707047 0.792427 0.128265
O O16 0.803571 0.355041 0.656465
O O17 0.000000 0.289637 0.588439
O O18 0.250000 0.548647 0.250000
O O19 0.000000 0.551130 0.311816
#
# Coordination Sequence:
#
# PCOD9414441 Si02
#       7
#     8   8   8   8   8   8   8
#     4  10  20  35  53  75 101 130 165 208 257 307
#     4   9  15  22  33  53  81 114 153 190 230 278
#     4   9  16  25  37  55  85 121 155 191 234 283
#     4  10  18  28  46  69  94 123 158 203 247 291
#     4   8  14  24  37  54  80 115 153 189 229 277
#     4   9  18  31  46  66  92 124 161 199 241 293
#     4  11  23  37  54  74 100 133 169 210 255 304
#
# _framework density 16.325369999999999
#
# number of rings (size 3 to 8) (size 9 to 14) (size 15 to 20)
#    0.000    2.571    1.429    2.571    0.000    7.143 
#    0.000    0.000    0.000    0.000    0.000    0.000 
#    0.000    1.143    0.000   10.571    0.000    7.000 
#
# Total GULP energy -312094.023987 kJ/mol
# GULP energy per Si atom -5573.107571 kJ/mol
# Density = 1.628821 g / cm^3
# Si number density = 16.325370 Si / 1000 Ang^3
#
#
#
# Elastic Constant Matrix: (Units=GPa)
#
#
# Indices 1 2 3 4 5 6 
#
# 1 108.7851 84.6840 41.7906 0.0000 0.0000 0.0000
# 2 84.6840 132.0326 36.2349 0.0000 0.0000 0.0000
# 3 41.7906 36.2349 43.3709 0.0000 0.0000 0.0000
# 4 0.0000 0.0000 0.0000 6.9315 0.0000 0.0000
# 5 0.0000 0.0000 0.0000 0.0000 12.3153 0.0000
# 6 0.0000 0.0000 0.0000 0.0000 0.0000 32.7850
#
#
#
# Elastic Compliance Matrix: (Units=1/GPa)
#
#
# Indices 1 2 3 4 5 6 
#
# 1 0.022637 -0.011071 -0.012562 0.000000 0.000000 0.000000
# 2 -0.011071 0.015242 -0.002066 0.000000 0.000000 0.000000
# 3 -0.012562 -0.002066 0.036888 0.000000 0.000000 0.000000
# 4 0.000000 0.000000 0.000000 0.144269 0.000000 0.000000
# 5 0.000000 0.000000 0.000000 0.000000 0.081200 0.000000
# 6 0.000000 0.000000 0.000000 0.000000 0.000000 0.030502
#
#
# Mechanical properties :
#
#
# Convention : Reuss Voigt Hill
#
# Bulk Modulus (GPa) = 42.79565 67.73418 55.26492
# Shear Modulus (GPa) = 12.82294 18.50497 15.66395
#
# Velocity S-wave (km/s) = 2.80565 3.37042 3.10092
# Velocity P-wave (km/s) = 6.06355 7.53170 6.83715
#
# Compressibility (1/GPa) = 0.02336686
#
# Stress axis : x y z
#
# Youngs Moduli (GPa) = 44.17566 65.60820 27.10933
#
# Poissons Ratio (x) = 0.72638 0.34055
# Poissons Ratio (y) = 0.48909 0.05601
# Poissons Ratio (z) = 0.55495 0.13556
#
# Static dielectric constant tensor:
#      x y z
#    x 1.545540 0.000000 0.000000 
#    y 0.000000 1.569850 0.000000 
#    z 0.000000 0.000000 1.508810 
# 
# From -- ./inp_files/31034.got.cif
#   From: 2010.05.17/outbox.cif.g08.bks.cpg/sg53_16_cif.got.tgz:31034.got - 2010.06.03 12:45:16.
