data_PCOD9414743
_publ_section_title
;
Structure prediction by ZEFSAII (Michael W. Deem and Ramdas Pophale) SiO2 
 PCOD9414743
Probable space group: P M N A
;
_chemical_formula_sum "Si O2"
_cell_formula_units_Z 40
_cell_length_a 9.046428
_cell_length_b 12.870175
_cell_length_c 20.138899
_cell_angle_alpha 90.000000
_cell_angle_beta 90.000000
_cell_angle_gamma 90.000000
_cell_volume 2344.754117
_symmetry_space_group_name_H-M "P M N A"
_symmetry_group_IT_number 53
_symmetry_cell_setting 'orthorhombic'
loop_
_space_group_symop_operation_xyz
x,y,z
1/2-x,-y,1/2+z
x,-y,-z
1/2-x,y,1/2-z
-x,-y,-z
1/2+x,y,1/2-z
-x,y,z
1/2+x,-y,1/2+z
loop_
_atom_site_type_symbol
_atom_site_label
_atom_site_fract_x
_atom_site_fract_y
_atom_site_fract_z
Si Si1 0.176039 0.045992 0.426330
Si Si2 0.824431 0.735389 0.947780
Si Si3 0.675250 0.681803 0.397490
Si Si4 0.177614 0.891021 0.178586
Si Si5 0.829879 0.526426 0.578987
O O1 0.240366 0.162060 0.424426
O O2 0.000000 0.046060 0.414948
O O3 0.203302 0.000000 0.500000
O O4 0.257097 0.973300 0.373373
O O5 0.763917 0.631159 0.913179
O O6 0.000000 0.745914 0.938475
O O7 0.796532 0.720572 0.026950
O O8 0.500000 0.660946 0.392978
O O9 0.714106 0.775639 0.348690
O O10 0.762432 0.575144 0.386490
O O11 0.250000 0.906865 0.250000
O O12 0.000000 0.900041 0.181347
O O13 0.825272 0.500000 0.500000
O O14 0.000000 0.543100 0.597533
#
# Coordination Sequence:
#
# PCOD9414743 Si02
#       5
#     8   8   8   8   8
#     4  11  22  35  55  82 112 145 186 234 282 333
#     4  10  18  31  52  78 109 143 180 223 275 329
#     4   9  18  32  51  75 106 142 179 220 270 329
#     4  11  23  39  57  80 111 148 189 230 279 335
#     4   9  17  28  46  75 108 138 172 216 267 320
#
# _framework density 17.059359000000001
#
# number of rings (size 3 to 8) (size 9 to 14) (size 15 to 20)
#    0.000    2.000    2.000    2.400    0.000    5.600 
#    0.000    0.000    0.000    1.200    0.000    5.600 
#    0.000    0.000    0.000    0.000    0.000    0.000 
#
# Total GULP energy -223254.792623 kJ/mol
# GULP energy per Si atom -5581.369816 kJ/mol
# Density = 1.702053 g / cm^3
# Si number density = 17.059359 Si / 1000 Ang^3
#
#
#
# Elastic Constant Matrix: (Units=GPa)
#
#
# Indices 1 2 3 4 5 6 
#
# 1 88.3242 79.3912 56.0815 0.0000 0.0000 0.0000
# 2 79.3912 151.3554 55.1210 0.0000 0.0000 0.0000
# 3 56.0815 55.1210 75.3376 0.0000 0.0000 0.0000
# 4 0.0000 0.0000 0.0000 15.5410 0.0000 0.0000
# 5 0.0000 0.0000 0.0000 0.0000 17.2785 0.0000
# 6 0.0000 0.0000 0.0000 0.0000 0.0000 35.4445
#
#
#
# Elastic Compliance Matrix: (Units=1/GPa)
#
#
# Indices 1 2 3 4 5 6 
#
# 1 0.030008 -0.010368 -0.014753 0.000000 0.000000 0.000000
# 2 -0.010368 0.012589 -0.001493 0.000000 0.000000 0.000000
# 3 -0.014753 -0.001493 0.025348 0.000000 0.000000 0.000000
# 4 0.000000 0.000000 0.000000 0.064346 0.000000 0.000000
# 5 0.000000 0.000000 0.000000 0.000000 0.057876 0.000000
# 6 0.000000 0.000000 0.000000 0.000000 0.000000 0.028213
#
#
# Mechanical properties :
#
#
# Convention : Reuss Voigt Hill
#
# Bulk Modulus (GPa) = 67.94245 77.35607 72.64926
# Shear Modulus (GPa) = 18.08237 21.94770 20.01503
#
# Velocity S-wave (km/s) = 3.25925 3.59074 3.42900
# Velocity P-wave (km/s) = 7.35372 7.91422 7.63911
#
# Compressibility (1/GPa) = 0.01471834
#
# Stress axis : x y z
#
# Youngs Moduli (GPa) = 33.32411 79.43495 39.45112
#
# Poissons Ratio (x) = 0.82356 0.58201
# Poissons Ratio (y) = 0.34550 0.05890
# Poissons Ratio (z) = 0.49162 0.11859
#
# Static dielectric constant tensor:
#      x y z
#    x 1.565090 0.000000 0.000000 
#    y 0.000000 1.562620 0.000000 
#    z 0.000000 0.000000 1.557310 
# 
# From -- ./inp_files/25841.got.cif
#   From: 2010.05.17/outbox.cif.g08.bks.cpg/sg53_13_cif.got.tgz:25841.got - 2010.06.03 12:45:16.
