data_PCOD9414520
_publ_section_title
;
Structure prediction by ZEFSAII (Michael W. Deem and Ramdas Pophale) SiO2 
 PCOD9414520
Probable space group: P M N A
;
_chemical_formula_sum "Si O2"
_cell_formula_units_Z 48
_cell_length_a 7.885258
_cell_length_b 19.233538
_cell_length_c 17.039123
_cell_angle_alpha 90.000000
_cell_angle_beta 90.000000
_cell_angle_gamma 90.000000
_cell_volume 2584.177409
_symmetry_space_group_name_H-M "P M N A"
_symmetry_group_IT_number 53
_symmetry_cell_setting 'orthorhombic'
loop_
_space_group_symop_operation_xyz
x,y,z
1/2-x,-y,1/2+z
x,-y,-z
1/2-x,y,1/2-z
-x,-y,-z
1/2+x,y,1/2-z
-x,y,z
1/2+x,-y,1/2+z
loop_
_atom_site_type_symbol
_atom_site_label
_atom_site_fract_x
_atom_site_fract_y
_atom_site_fract_z
Si Si1 0.204328 0.837524 0.163437
Si Si2 0.791830 0.579228 0.989244
Si Si3 0.795014 0.078651 0.989631
Si Si4 0.701936 0.666116 0.662327
Si Si5 0.304462 0.213983 0.061442
Si Si6 0.193502 0.703635 0.087057
O O1 0.250000 0.861425 0.250000
O O2 0.263046 0.887491 0.093002
O O3 0.271665 0.758952 0.147317
O O4 0.000000 0.834076 0.157394
O O5 0.738609 0.613412 0.906316
O O6 0.000000 0.580652 0.990592
O O7 0.738165 0.500000 0.000000
O O8 0.731340 0.630350 0.059259
O O9 0.000000 0.077538 0.989299
O O10 0.738955 0.132885 0.056759
O O11 0.734413 0.000000 0.000000
O O12 0.750000 0.645324 0.750000
O O13 0.500000 0.669395 0.657246
O O14 0.772011 0.742406 0.639822
O O15 0.500000 0.222904 0.039077
O O16 0.194097 0.251880 0.994144
O O17 0.000000 0.690039 0.111974
#
# Coordination Sequence:
#
# PCOD9414520 Si02
#       6
#     8   8   8   8   8   8
#     4   9  17  29  46  68  92 120 154 192 233 276
#     4   8  14  27  49  72  92 121 160 198 237 286
#     4   9  18  34  53  70  93 128 163 194 237 293
#     4  10  19  32  50  71  97 128 165 206 247 293
#     4  10  18  29  48  72  95 120 155 197 239 284
#     4   8  15  29  47  66  90 123 161 193 227 281
#
# _framework density 18.574577000000001
#
# number of rings (size 3 to 8) (size 9 to 14) (size 15 to 20)
#    0.000    3.000    0.000    4.000    0.000    3.000 
#    0.000    1.667    0.000   14.500    0.000    0.000 
#    0.000    0.000    0.000    0.000    0.000    0.000 
#
# Total GULP energy -267216.135937 kJ/mol
# GULP energy per Si atom -5567.002832 kJ/mol
# Density = 1.853230 g / cm^3
# Si number density = 18.574577 Si / 1000 Ang^3
#
#
#
# Elastic Constant Matrix: (Units=GPa)
#
#
# Indices 1 2 3 4 5 6 
#
# 1 37.0747 12.7166 6.5042 0.0000 0.0000 0.0000
# 2 12.7166 167.3710 49.2024 0.0000 0.0000 0.0000
# 3 6.5042 49.2024 81.3972 0.0000 0.0000 0.0000
# 4 0.0000 0.0000 0.0000 18.4194 0.0000 0.0000
# 5 0.0000 0.0000 0.0000 0.0000 20.7748 0.0000
# 6 0.0000 0.0000 0.0000 0.0000 0.0000 2.8022
#
#
#
# Elastic Compliance Matrix: (Units=1/GPa)
#
#
# Indices 1 2 3 4 5 6 
#
# 1 0.027782 -0.001773 -0.001148 0.000000 0.000000 0.000000
# 2 -0.001773 0.007379 -0.004319 0.000000 0.000000 0.000000
# 3 -0.001148 -0.004319 0.014988 0.000000 0.000000 0.000000
# 4 0.000000 0.000000 0.000000 0.054291 0.000000 0.000000
# 5 0.000000 0.000000 0.000000 0.000000 0.048135 0.000000
# 6 0.000000 0.000000 0.000000 0.000000 0.000000 0.356868
#
#
# Mechanical properties :
#
#
# Convention : Reuss Voigt Hill
#
# Bulk Modulus (GPa) = 28.03573 46.96548 37.50061
# Shear Modulus (GPa) = 9.33161 22.89392 16.11277
#
# Velocity S-wave (km/s) = 2.24383 3.51456 2.94847
# Velocity P-wave (km/s) = 4.67326 6.46601 5.64131
#
# Compressibility (1/GPa) = 0.03566877
#
# Stress axis : x y z
#
# Youngs Moduli (GPa) = 35.99418 135.51818 66.72116
#
# Poissons Ratio (x) = 0.24032 0.07660
# Poissons Ratio (y) = 0.06383 0.28815
# Poissons Ratio (z) = 0.04132 0.58527
#
# Static dielectric constant tensor:
#      x y z
#    x 1.675280 0.000000 0.000000 
#    y 0.000000 1.672710 0.000000 
#    z 0.000000 0.000000 1.649670 
# 
# From -- ./inp_files/26438.got.cif
#   From: 2010.05.17/outbox.cif.g08.bks.cpg/sg53_14_cif.got.tgz:26438.got - 2010.06.03 12:45:16.
