data_PCOD9414045
_publ_section_title
;
Structure prediction by ZEFSAII (Michael W. Deem and Ramdas Pophale) SiO2 
 PCOD9414045
Probable space group: P N N A
;
_chemical_formula_sum "Si O2"
_cell_formula_units_Z 56
_cell_length_a 21.000000
_cell_length_b 12.000000
_cell_length_c 12.000000
_cell_angle_alpha 90.000000
_cell_angle_beta 90.000000
_cell_angle_gamma 90.000000
_cell_volume 3024.000000
_symmetry_space_group_name_H-M "P N N A"
_symmetry_group_IT_number 52
_symmetry_cell_setting 'orthorhombic'
loop_
_space_group_symop_operation_xyz
x,y,z
1/2-x,-y,z
x,1/2-y,1/2-z
1/2-x,1/2+y,1/2-z
-x,-y,-z
1/2+x,y,-z
-x,1/2+y,1/2+z
1/2+x,1/2-y,1/2+z
loop_
_atom_site_type_symbol
_atom_site_label
_atom_site_fract_x
_atom_site_fract_y
_atom_site_fract_z
Si Si1 0.561598 0.024246 0.804873
Si Si2 0.609600 0.142223 0.016047
Si Si3 0.204652 0.315504 0.866937
Si Si4 0.085644 0.916114 0.851748
Si Si5 0.560525 0.949031 0.565582
Si Si6 0.537797 0.800598 0.936640
Si Si7 0.161528 0.926963 0.629462
O O1 0.578021 0.020917 0.674509
O O2 0.561959 0.899903 0.857436
O O3 0.487144 0.058586 0.814613
O O4 0.603914 0.102064 0.886662
O O5 0.662057 0.235817 0.050541
O O6 0.537899 0.184151 0.043098
O O7 0.614449 0.027662 0.088943
O O8 0.203063 0.250000 0.750000
O O9 0.177770 0.441205 0.852368
O O10 0.278149 0.346665 0.895274
O O11 0.126625 0.888888 0.743098
O O12 0.075518 0.822802 0.947049
O O13 0.545517 0.823886 0.606146
O O14 0.615928 0.933721 0.476516
O O15 0.500000 0.000000 0.500000
#
# Coordination Sequence:
#
# PCOD9414045 Si02
#       7
#     8   8   8   8   8   8   8
#     4   9  19  37  60  88 123 163 206 252 309 382
#     4   9  18  37  63  88 115 164 216 247 304 382
#     4  11  23  40  62  85 117 170 211 262 316 379
#     4   9  17  36  57  91 123 150 201 265 311 379
#     4  12  22  35  56  92 133 162 192 260 328 379
#     4   9  20  33  60  88 123 160 199 254 322 377
#     4  11  24  37  57  95 128 151 208 264 324 383
#
# _framework density 18.518519000000001
#
# number of rings (size 3 to 8) (size 9 to 14) (size 15 to 20)
#    0.000    2.000    2.857    3.000    2.000    0.000 
#    0.000    2.143    0.000    6.857    0.000    0.000 
#    0.000    0.000    0.000    0.000    0.000    0.000 
#
# Total GULP energy -312323.406275 kJ/mol
# GULP energy per Si atom -5577.203683 kJ/mol
# Density = 1.847637 g / cm^3
# Si number density = 18.518519 Si / 1000 Ang^3
#
#
#
# Elastic Constant Matrix: (Units=GPa)
#
#
# Indices 1 2 3 4 5 6 
#
# 1 95.2677 39.8909 61.0512 0.0000 0.0000 0.0000
# 2 39.8909 86.0789 26.8863 0.0000 0.0000 0.0000
# 3 61.0512 26.8863 141.5676 0.0000 0.0000 0.0000
# 4 0.0000 0.0000 0.0000 27.0927 0.0000 0.0000
# 5 0.0000 0.0000 0.0000 0.0000 27.8738 0.0000
# 6 0.0000 0.0000 0.0000 0.0000 0.0000 38.6065
#
#
#
# Elastic Compliance Matrix: (Units=1/GPa)
#
#
# Indices 1 2 3 4 5 6 
#
# 1 0.016934 -0.005918 -0.006179 0.000000 0.000000 0.000000
# 2 -0.005918 0.014418 -0.000186 0.000000 0.000000 0.000000
# 3 -0.006179 -0.000186 0.009764 0.000000 0.000000 0.000000
# 4 0.000000 0.000000 0.000000 0.036910 0.000000 0.000000
# 5 0.000000 0.000000 0.000000 0.000000 0.035876 0.000000
# 6 0.000000 0.000000 0.000000 0.000000 0.000000 0.025902
#
#
# Mechanical properties :
#
#
# Convention : Reuss Voigt Hill
#
# Bulk Modulus (GPa) = 60.42281 64.28566 62.35424
# Shear Modulus (GPa) = 29.43121 31.72032 30.57577
#
# Velocity S-wave (km/s) = 3.99091 4.14321 4.06777
# Velocity P-wave (km/s) = 7.34409 7.59459 7.47039
#
# Compressibility (1/GPa) = 0.01655004
#
# Stress axis : x y z
#
# Youngs Moduli (GPa) = 59.05110 69.35859 102.41835
#
# Poissons Ratio (x) = 0.41045 0.63286
# Poissons Ratio (y) = 0.34945 0.01907
# Poissons Ratio (z) = 0.36488 0.01291
#
# Static dielectric constant tensor:
#      x y z
#    x 1.636420 0.000000 0.000000 
#    y 0.000000 1.678240 0.000000 
#    z 0.000000 0.000000 1.649940 
# 
# From -- ./inp_files/21701.got.cif
#   From: 2010.05.17/outbox.ucp.g08.bks.cvg/sg52_11_cif.got.tgz:21701.got - 2010.06.11 16:30:12.
