data_PCOD9414136
_publ_section_title
;
Structure prediction by ZEFSAII (Michael W. Deem and Ramdas Pophale) SiO2 
 PCOD9414136
Probable space group: P M N A
;
_chemical_formula_sum "Si O2"
_cell_formula_units_Z 32
_cell_length_a 16.920252
_cell_length_b 11.301508
_cell_length_c 7.208256
_cell_angle_alpha 90.000000
_cell_angle_beta 90.000000
_cell_angle_gamma 90.000000
_cell_volume 1378.394164
_symmetry_space_group_name_H-M "P M N A"
_symmetry_group_IT_number 53
_symmetry_cell_setting 'orthorhombic'
loop_
_space_group_symop_operation_xyz
x,y,z
1/2-x,-y,1/2+z
x,-y,-z
1/2-x,y,1/2-z
-x,-y,-z
1/2+x,y,1/2-z
-x,y,z
1/2+x,-y,1/2+z
loop_
_atom_site_type_symbol
_atom_site_label
_atom_site_fract_x
_atom_site_fract_y
_atom_site_fract_z
Si Si1 0.341817 0.381592 0.717282
Si Si2 0.906958 0.122656 0.229669
Si Si3 0.906963 0.867709 0.220351
Si Si4 0.594734 0.375023 0.297343
O O1 0.250000 0.398555 0.750000
O O2 0.367387 0.252494 0.787544
O O3 0.385258 0.498956 0.791551
O O4 0.364652 0.377561 0.499392
O O5 0.877632 0.251355 0.294077
O O6 0.000000 0.116726 0.277638
O O7 0.873478 0.994701 0.285993
O O8 0.902431 0.128388 0.004755
O O9 0.000000 0.860667 0.265903
O O10 0.500000 0.367622 0.323159
#
# Coordination Sequence:
#
# PCOD9414136 Si02
#       4
#     8   8   8   8
#     4  10  17  23  35  59  85 107 131 166 204 239
#     4   7  11  20  38  57  71  90 125 161 188 223
#     4   8  12  21  36  55  74  95 122 157 194 233
#     4   9  16  29  45  59  76 108 142 167 197 239
#
# _framework density 23.215420999999999
#
# number of rings (size 3 to 8) (size 9 to 14) (size 15 to 20)
#    0.000    3.500    0.000    6.000    0.000    0.000 
#    0.000    1.250    0.000    0.000    0.000   31.500 
#    0.000    0.000    0.000  198.000    0.000    4.000 
#
# Total GULP energy -178337.646120 kJ/mol
# GULP energy per Si atom -5573.051441 kJ/mol
# Density = 2.316258 g / cm^3
# Si number density = 23.215421 Si / 1000 Ang^3
#
#
#
# Elastic Constant Matrix: (Units=GPa)
#
#
# Indices 1 2 3 4 5 6 
#
# 1 72.4359 43.2818 10.5976 0.0000 0.0000 0.0000
# 2 43.2818 304.9966 11.5653 0.0000 0.0000 0.0000
# 3 10.5976 11.5653 107.7776 0.0000 0.0000 0.0000
# 4 0.0000 0.0000 0.0000 -34.1762 0.0000 0.0000
# 5 0.0000 0.0000 0.0000 0.0000 1.2995 0.0000
# 6 0.0000 0.0000 0.0000 0.0000 0.0000 46.5080
#
#
#
# Elastic Compliance Matrix: (Units=1/GPa)
#
#
# Indices 1 2 3 4 5 6 
#
# 1 0.015256 -0.002117 -0.001273 0.000000 0.000000 0.000000
# 2 -0.002117 0.003586 -0.000177 0.000000 0.000000 0.000000
# 3 -0.001273 -0.000177 0.009422 0.000000 0.000000 0.000000
# 4 0.000000 0.000000 0.000000 -0.029260 0.000000 0.000000
# 5 0.000000 0.000000 0.000000 0.000000 0.769537 0.000000
# 6 0.000000 0.000000 0.000000 0.000000 0.000000 0.021502
#
#
# Mechanical properties :
#
#
# Convention : Reuss Voigt Hill
#
# Bulk Modulus (GPa) = 47.32188 68.45551 57.88869
# Shear Modulus (GPa) = 6.21720 30.71061 18.46391
#
# Velocity S-wave (km/s) = 1.63825 3.64105 2.82322
# Velocity P-wave (km/s) = 4.89965 6.87222 5.96800
#
# Compressibility (1/GPa) = 0.02113188
#
# Stress axis : x y z
#
# Youngs Moduli (GPa) = 65.54652 278.87715 106.12906
#
# Poissons Ratio (x) = 0.59031 0.13510
# Poissons Ratio (y) = 0.13875 0.01875
# Poissons Ratio (z) = 0.08344 0.04926
#
# Static dielectric constant tensor:
#      x y z
#    x 1.772180 0.000000 0.000000 
#    y 0.000000 2.005400 0.000000 
#    z 0.000000 0.000000 1.868130 
# 
# From -- ./inp_files/7990.got.cif
#   From: 2010.05.17/outbox.cif.g08.bks.cpg/sg53_4_cif.got.tgz:7990.got - 2010.06.03 12:45:16.
