data_PCOD9414022
_publ_section_title
;
Structure prediction by ZEFSAII (Michael W. Deem and Ramdas Pophale) SiO2 
 PCOD9414022
Probable space group: P N N A
;
_chemical_formula_sum "Si O2"
_cell_formula_units_Z 64
_cell_length_a 9.000000
_cell_length_b 12.000000
_cell_length_c 30.000000
_cell_angle_alpha 90.000000
_cell_angle_beta 90.000000
_cell_angle_gamma 90.000000
_cell_volume 3240.000000
_symmetry_space_group_name_H-M "P N N A"
_symmetry_group_IT_number 52
_symmetry_cell_setting 'orthorhombic'
loop_
_space_group_symop_operation_xyz
x,y,z
1/2-x,-y,z
x,1/2-y,1/2-z
1/2-x,1/2+y,1/2-z
-x,-y,-z
1/2+x,y,-z
-x,1/2+y,1/2+z
1/2+x,1/2-y,1/2+z
loop_
_atom_site_type_symbol
_atom_site_label
_atom_site_fract_x
_atom_site_fract_y
_atom_site_fract_z
Si Si1 0.953338 0.213632 0.199089
Si Si2 0.197543 0.372732 0.558235
Si Si3 0.414862 0.546966 0.811757
Si Si4 0.776349 0.629826 0.948575
Si Si5 0.121571 0.204912 0.842050
Si Si6 0.138926 0.099706 0.348060
Si Si7 0.462642 0.238206 0.996574
Si Si8 0.071696 0.526516 0.284851
O O1 0.927989 0.250000 0.250000
O O2 0.085829 0.294333 0.180985
O O3 0.792024 0.210346 0.175991
O O4 0.006974 0.088097 0.196752
O O5 0.250000 0.500000 0.562653
O O6 0.138158 0.328761 0.606052
O O7 0.343506 0.308627 0.539150
O O8 0.066355 0.352401 0.521882
O O9 0.250000 0.500000 0.801900
O O10 0.428404 0.669427 0.831884
O O11 0.483083 0.465744 0.849110
O O12 0.507488 0.541810 0.765463
O O13 0.750000 0.500000 0.958871
O O14 0.799948 0.638380 0.895465
O O15 0.636116 0.698780 0.966483
O O16 0.922325 0.678373 0.972646
O O17 0.006363 0.123840 0.815031
O O18 0.250000 0.000000 0.331759
O O19 0.250000 0.500000 0.284265
#
# Coordination Sequence:
#
# PCOD9414022 Si02
#       8
#     8   8   8   8   8   8   8   8
#     4  12  23  43  67  94 137 184 233 286 343 419
#     4  11  24  45  71 101 135 178 231 294 349 428
#     4  12  24  46  69  99 136 190 235 282 350 423
#     4  10  22  41  65  99 141 176 227 288 351 428
#     4  12  26  44  71 100 136 178 245 285 345 430
#     4  11  25  41  67 100 141 182 229 293 352 413
#     4  10  23  43  69  99 133 184 227 284 366 416
#     4  12  27  43  67 100 139 187 228 294 352 407
#
# _framework density 19.753086
#
# number of rings (size 3 to 8) (size 9 to 14) (size 15 to 20)
#    0.000    0.750    2.500    4.875    5.250    0.000 
#    0.000    1.875    0.000    0.000    0.000    0.000 
#    0.000    0.000    0.000    0.000    0.000    0.000 
#
# Total GULP energy -357184.450094 kJ/mol
# GULP energy per Si atom -5581.007033 kJ/mol
# Density = 1.970813 g / cm^3
# Si number density = 19.753086 Si / 1000 Ang^3
#
#
#
# Elastic Constant Matrix: (Units=GPa)
#
#
# Indices 1 2 3 4 5 6 
#
# 1 98.1180 16.1864 35.0606 0.0000 0.0000 0.0000
# 2 16.1864 130.7614 34.9410 0.0000 0.0000 0.0000
# 3 35.0606 34.9410 99.5194 0.0000 0.0000 0.0000
# 4 0.0000 0.0000 0.0000 28.4646 0.0000 0.0000
# 5 0.0000 0.0000 0.0000 0.0000 30.1129 0.0000
# 6 0.0000 0.0000 0.0000 0.0000 0.0000 35.7611
#
#
#
# Elastic Compliance Matrix: (Units=1/GPa)
#
#
# Indices 1 2 3 4 5 6 
#
# 1 0.011677 -0.000382 -0.003980 0.000000 0.000000 0.000000
# 2 -0.000382 0.008452 -0.002833 0.000000 0.000000 0.000000
# 3 -0.003980 -0.002833 0.012445 0.000000 0.000000 0.000000
# 4 0.000000 0.000000 0.000000 0.035131 0.000000 0.000000
# 5 0.000000 0.000000 0.000000 0.000000 0.033208 0.000000
# 6 0.000000 0.000000 0.000000 0.000000 0.000000 0.027963
#
#
# Mechanical properties :
#
#
# Convention : Reuss Voigt Hill
#
# Bulk Modulus (GPa) = 54.99150 55.64164 55.31657
# Shear Modulus (GPa) = 33.48357 35.01512 34.24934
#
# Velocity S-wave (km/s) = 4.12163 4.21484 4.16850
# Velocity P-wave (km/s) = 7.10988 7.20529 7.15774
#
# Compressibility (1/GPa) = 0.01818463
#
# Stress axis : x y z
#
# Youngs Moduli (GPa) = 85.63937 118.31845 80.35418
#
# Poissons Ratio (x) = 0.04520 0.31978
# Poissons Ratio (y) = 0.03272 0.22763
# Poissons Ratio (z) = 0.34081 0.33517
#
# Static dielectric constant tensor:
#      x y z
#    x 1.740270 0.000000 0.000000 
#    y 0.000000 1.746410 0.000000 
#    z 0.000000 0.000000 1.695270 
# 
# From -- ./inp_files/44622.got.cif
#   From: 2010.05.17/outbox.ucp.g08.bks.cvg/sg52_23_cif.got.tgz:44622.got - 2010.06.11 16:30:12.
