data_PCOD9414583
_publ_section_title
;
Structure prediction by ZEFSAII (Michael W. Deem and Ramdas Pophale) SiO2 
 PCOD9414583
Probable space group: P M N A
;
_chemical_formula_sum "Si O2"
_cell_formula_units_Z 56
_cell_length_a 7.486513
_cell_length_b 26.719816
_cell_length_c 13.985585
_cell_angle_alpha 90.000000
_cell_angle_beta 90.000000
_cell_angle_gamma 90.000000
_cell_volume 2797.651946
_symmetry_space_group_name_H-M "P M N A"
_symmetry_group_IT_number 53
_symmetry_cell_setting 'orthorhombic'
loop_
_space_group_symop_operation_xyz
x,y,z
1/2-x,-y,1/2+z
x,-y,-z
1/2-x,y,1/2-z
-x,-y,-z
1/2+x,y,1/2-z
-x,y,z
1/2+x,-y,1/2+z
loop_
_atom_site_type_symbol
_atom_site_label
_atom_site_fract_x
_atom_site_fract_y
_atom_site_fract_z
Si Si1 0.714281 0.179966 0.138252
Si Si2 0.211709 0.369254 0.357705
Si Si3 0.281698 0.556468 0.018974
Si Si4 0.786869 0.032258 0.640819
Si Si5 0.713101 0.649527 0.139335
Si Si6 0.218488 0.073799 0.440054
Si Si7 0.218102 0.276188 0.473013
O O1 0.750000 0.191152 0.250000
O O2 0.500000 0.179119 0.129411
O O3 0.780805 0.125025 0.108070
O O4 0.779777 0.222114 0.063351
O O5 0.250000 0.380522 0.250000
O O6 0.278026 0.411830 0.427466
O O7 0.275121 0.315031 0.390447
O O8 0.000000 0.368048 0.371979
O O9 0.500000 0.553752 0.024364
O O10 0.224301 0.594068 0.104776
O O11 0.219987 0.500000 0.000000
O O12 0.750000 0.047286 0.750000
O O13 0.725691 0.066223 0.551128
O O14 0.000000 0.030893 0.632350
O O15 0.722970 0.975715 0.617866
O O16 0.750000 0.658172 0.250000
O O17 0.500000 0.648647 0.126009
O O18 0.776977 0.694785 0.069873
O O19 0.000000 0.074287 0.438375
O O20 0.000000 0.273485 0.477714
#
# Coordination Sequence:
#
# PCOD9414583 Si02
#       7
#     8   8   8   8   8   8   8
#     4  10  18  30  48  68  89 115 145 178 218 261
#     4   9  16  27  43  62  83 108 136 166 203 247
#     4   8  15  28  44  61  84 114 143 169 205 257
#     4   9  16  29  46  64  87 117 150 181 216 259
#     4   9  17  31  49  66  85 114 150 182 213 253
#     4   8  16  29  45  64  89 119 147 176 218 271
#     4   8  16  30  46  63  86 115 143 169 207 262
#
# _framework density 20.016784999999999
#
# number of rings (size 3 to 8) (size 9 to 14) (size 15 to 20)
#    0.000    3.286    0.000    3.429    0.000    0.571 
#    0.000    6.429    0.000    0.857    0.000    0.000 
#    0.000    0.000    0.000    0.000    0.000    0.000 
#
# Total GULP energy -311828.197106 kJ/mol
# GULP energy per Si atom -5568.360663 kJ/mol
# Density = 1.997123 g / cm^3
# Si number density = 20.016785 Si / 1000 Ang^3
#
#
#
# Elastic Constant Matrix: (Units=GPa)
#
#
# Indices 1 2 3 4 5 6 
#
# 1 50.6556 6.0906 -5.1660 0.0000 0.0000 0.0000
# 2 6.0906 120.9243 44.4089 0.0000 0.0000 0.0000
# 3 -5.1660 44.4089 123.5896 0.0000 0.0000 0.0000
# 4 0.0000 0.0000 0.0000 13.8712 0.0000 0.0000
# 5 0.0000 0.0000 0.0000 0.0000 23.8721 0.0000
# 6 0.0000 0.0000 0.0000 0.0000 0.0000 -0.5070
#
#
#
# Elastic Compliance Matrix: (Units=1/GPa)
#
#
# Indices 1 2 3 4 5 6 
#
# 1 0.020065 -0.001519 0.001385 0.000000 0.000000 0.000000
# 2 -0.001519 0.009642 -0.003528 0.000000 0.000000 0.000000
# 3 0.001385 -0.003528 0.009417 0.000000 0.000000 0.000000
# 4 0.000000 0.000000 0.000000 0.072092 0.000000 0.000000
# 5 0.000000 0.000000 0.000000 0.000000 0.041890 0.000000
# 6 0.000000 0.000000 0.000000 0.000000 0.000000 -1.972308
#
#
# Mechanical properties :
#
#
# Convention : Reuss Voigt Hill
#
# Bulk Modulus (GPa) = 31.44800 42.87073 37.15937
# Shear Modulus (GPa) = -2.77581 24.10300 10.66360
#
# Velocity S-wave (km/s) = -1.17888 3.47384 2.31060
# Velocity P-wave (km/s) = 3.72719 6.12813 5.07178
#
# Compressibility (1/GPa) = 0.03179853
#
# Stress axis : x y z
#
# Youngs Moduli (GPa) = 49.83807 103.71499 106.19225
#
# Poissons Ratio (x) = 0.15755 -0.14703
# Poissons Ratio (y) = 0.07571 0.37465
# Poissons Ratio (z) = -0.06900 0.36591
#
# Static dielectric constant tensor:
#      x y z
#    x 1.772420 0.000000 0.000000 
#    y 0.000000 1.718720 0.000000 
#    z 0.000000 0.000000 1.678010 
# 
# From -- ./inp_files/15029.got.cif
#   From: 2010.05.17/outbox.cif.g08.bks.cpg/sg53_8_cif.got.tgz:15029.got - 2010.06.03 12:45:16.
