data_PCOD9414268
_publ_section_title
;
Structure prediction by ZEFSAII (Michael W. Deem and Ramdas Pophale) SiO2 
 PCOD9414268
Probable space group: P M N A
;
_chemical_formula_sum "Si O2"
_cell_formula_units_Z 64
_cell_length_a 21.561347
_cell_length_b 15.981712
_cell_length_c 9.975505
_cell_angle_alpha 90.000000
_cell_angle_beta 90.000000
_cell_angle_gamma 90.000000
_cell_volume 3437.431716
_symmetry_space_group_name_H-M "P M N A"
_symmetry_group_IT_number 53
_symmetry_cell_setting 'orthorhombic'
loop_
_space_group_symop_operation_xyz
x,y,z
1/2-x,-y,1/2+z
x,-y,-z
1/2-x,y,1/2-z
-x,-y,-z
1/2+x,y,1/2-z
-x,y,z
1/2+x,-y,1/2+z
loop_
_atom_site_type_symbol
_atom_site_label
_atom_site_fract_x
_atom_site_fract_y
_atom_site_fract_z
Si Si1 0.573693 0.361873 0.721758
Si Si2 0.072264 0.097424 0.806136
Si Si3 0.756538 0.217539 0.892283
Si Si4 0.424634 0.469652 0.147896
Si Si5 0.198330 0.029621 0.849892
Si Si6 0.616455 0.754388 0.504429
Si Si7 0.573172 0.717838 0.793575
Si Si8 0.885577 0.219291 0.574792
O O1 0.500000 0.355340 0.745353
O O2 0.592350 0.457411 0.747880
O O3 0.587925 0.324262 0.576173
O O4 0.604629 0.301845 0.833271
O O5 0.125364 0.025771 0.813296
O O6 0.088266 0.164992 0.924430
O O7 0.084989 0.146443 0.666456
O O8 0.000000 0.072784 0.815923
O O9 0.750000 0.264739 0.750000
O O10 0.786631 0.128245 0.854546
O O11 0.809514 0.254100 0.985373
O O12 0.687730 0.205536 0.945769
O O13 0.500000 0.465291 0.144299
O O14 0.402403 0.376906 0.183015
O O15 0.404928 0.500000 0.000000
O O16 0.250000 0.991712 0.750000
O O17 0.207619 0.000000 0.000000
O O18 0.601452 0.756749 0.659970
O O19 0.500000 0.712440 0.770201
O O20 0.584494 0.767740 0.930644
#
# Coordination Sequence:
#
# PCOD9414268 Si02
#       8
#     8   8   8   8   8   8   8   8
#     4  10  17  29  52  77  99 142 187 225 284 338
#     4  10  19  35  60  87 112 145 189 231 272 331
#     4  10  18  38  59  82 103 141 191 223 257 322
#     4   9  17  29  46  71 104 141 190 230 272 344
#     4  10  20  40  61  85 114 149 186 217 263 331
#     4  10  20  33  52  78 115 142 178 236 288 330
#     4  11  21  32  49  79 113 142 177 238 297 333
#     4  11  18  32  58  77 109 143 187 230 271 329
#
# _framework density 18.618552000000001
#
# number of rings (size 3 to 8) (size 9 to 14) (size 15 to 20)
#    0.000    1.875    6.250    3.000    0.000    1.250 
#    4.500    1.875    0.000    4.875    0.000    0.000 
#    0.000    0.000    0.000    0.000    0.000    0.000 
#
# Total GULP energy -356551.720516 kJ/mol
# GULP energy per Si atom -5571.120633 kJ/mol
# Density = 1.857618 g / cm^3
# Si number density = 18.618552 Si / 1000 Ang^3
#
#
#
# Elastic Constant Matrix: (Units=GPa)
#
#
# Indices 1 2 3 4 5 6 
#
# 1 116.4655 8.3736 21.6095 0.0000 0.0000 0.0000
# 2 8.3736 -28.3796 5.9374 0.0000 0.0000 0.0000
# 3 21.6095 5.9374 117.2670 0.0000 0.0000 0.0000
# 4 0.0000 0.0000 0.0000 5.8754 0.0000 0.0000
# 5 0.0000 0.0000 0.0000 0.0000 7.5889 0.0000
# 6 0.0000 0.0000 0.0000 0.0000 0.0000 -0.9591
#
#
#
# Elastic Compliance Matrix: (Units=1/GPa)
#
#
# Indices 1 2 3 4 5 6 
#
# 1 0.008747 0.002220 -0.001724 0.000000 0.000000 0.000000
# 2 0.002220 -0.034304 0.001328 0.000000 0.000000 0.000000
# 3 -0.001724 0.001328 0.008778 0.000000 0.000000 0.000000
# 4 0.000000 0.000000 0.000000 0.170200 0.000000 0.000000
# 5 0.000000 0.000000 0.000000 0.000000 0.131771 0.000000
# 6 0.000000 0.000000 0.000000 0.000000 0.000000 -1.042602
#
#
# Mechanical properties :
#
#
# Convention : Reuss Voigt Hill
#
# Bulk Modulus (GPa) = -76.14981 30.79932 -22.67525
# Shear Modulus (GPa) = -6.53224 13.79653 3.63215
#
# Velocity S-wave (km/s) = -1.87512 2.72510 1.39823
# Velocity P-wave (km/s) = 6.75847 5.14585 3.09815
#
# Compressibility (1/GPa) = -0.01313201
#
# Stress axis : x y z
#
# Youngs Moduli (GPa) = 114.33096 -29.15134 113.92052
#
# Poissons Ratio (x) = 0.06472 0.19642
# Poissons Ratio (y) = -0.25381 -0.15126
# Poissons Ratio (z) = 0.19713 0.03871
#
# Static dielectric constant tensor:
#      x y z
#    x 1.682670 0.000000 0.000000 
#    y 0.000000 1.649090 0.000000 
#    z 0.000000 0.000000 -4.726490 
# 
# From -- ./inp_files/11180.got.cif
#   From: 2010.05.17/outbox.cif.g08.bks.cpg/sg53_6_cif.got.tgz:11180.got - 2010.06.03 12:45:16.
