data_PCOD9414246
_publ_section_title
;
Structure prediction by ZEFSAII (Michael W. Deem and Ramdas Pophale) SiO2 
 PCOD9414246
Probable space group: P M N A
;
_chemical_formula_sum "Si O2"
_cell_formula_units_Z 48
_cell_length_a 19.977713
_cell_length_b 12.793201
_cell_length_c 10.406306
_cell_angle_alpha 90.000000
_cell_angle_beta 90.000000
_cell_angle_gamma 90.000000
_cell_volume 2659.632219
_symmetry_space_group_name_H-M "P M N A"
_symmetry_group_IT_number 53
_symmetry_cell_setting 'orthorhombic'
loop_
_space_group_symop_operation_xyz
x,y,z
1/2-x,-y,1/2+z
x,-y,-z
1/2-x,y,1/2-z
-x,-y,-z
1/2+x,y,1/2-z
-x,y,z
1/2+x,-y,1/2+z
loop_
_atom_site_type_symbol
_atom_site_label
_atom_site_fract_x
_atom_site_fract_y
_atom_site_fract_z
Si Si1 0.692145 0.486152 0.846761
Si Si2 0.661519 0.285971 0.134867
Si Si3 0.146778 0.138115 0.726879
Si Si4 0.575991 0.678710 0.107140
Si Si5 0.824432 0.918078 0.802198
Si Si6 0.236270 0.821546 0.042491
O O1 0.750000 0.448642 0.750000
O O2 0.671575 0.602205 0.799952
O O3 0.629499 0.407278 0.845491
O O4 0.710021 0.500000 0.000000
O O5 0.653965 0.186322 0.226786
O O6 0.599596 0.297171 0.038107
O O7 0.728481 0.264697 0.047804
O O8 0.087681 0.213339 0.683628
O O9 0.197617 0.126471 0.605534
O O10 0.188850 0.199600 0.836594
O O11 0.132547 0.021349 0.775920
O O12 0.500000 0.642859 0.114442
O O13 0.750000 0.943893 0.750000
O O14 0.809674 0.889370 0.948603
#
# Coordination Sequence:
#
# PCOD9414246 Si02
#       6
#     8   8   8   8   8   8
#     4  10  21  36  59  89 114 144 187 241 288 333
#     4   9  20  33  53  82 109 143 182 224 285 329
#     4  10  19  29  51  81 110 148 181 220 279 332
#     4  10  23  39  56  77 111 153 192 232 277 336
#     4  10  17  28  50  80 116 142 176 226 287 336
#     4   9  17  28  49  81 114 139 173 230 274 331
#
# _framework density 18.047608
#
# number of rings (size 3 to 8) (size 9 to 14) (size 15 to 20)
#    0.000    2.333    1.667    2.000    9.333    5.000 
#    0.000    1.667    0.000    3.500    0.000    0.000 
#    0.000    0.000    0.000    0.000    0.000    0.000 
#
# Total GULP energy -267205.347422 kJ/mol
# GULP energy per Si atom -5566.778071 kJ/mol
# Density = 1.800653 g / cm^3
# Si number density = 18.047608 Si / 1000 Ang^3
#
#
#
# Elastic Constant Matrix: (Units=GPa)
#
#
# Indices 1 2 3 4 5 6 
#
# 1 93.4214 40.0368 38.8590 0.0000 0.0000 0.0000
# 2 40.0368 121.0636 32.9459 0.0000 0.0000 0.0000
# 3 38.8590 32.9459 66.9306 0.0000 0.0000 0.0000
# 4 0.0000 0.0000 0.0000 23.1428 0.0000 0.0000
# 5 0.0000 0.0000 0.0000 0.0000 10.5401 0.0000
# 6 0.0000 0.0000 0.0000 0.0000 0.0000 7.0797
#
#
#
# Elastic Compliance Matrix: (Units=1/GPa)
#
#
# Indices 1 2 3 4 5 6 
#
# 1 0.014995 -0.002990 -0.007234 0.000000 0.000000 0.000000
# 2 -0.002990 0.010134 -0.003252 0.000000 0.000000 0.000000
# 3 -0.007234 -0.003252 0.020742 0.000000 0.000000 0.000000
# 4 0.000000 0.000000 0.000000 0.043210 0.000000 0.000000
# 5 0.000000 0.000000 0.000000 0.000000 0.094876 0.000000
# 6 0.000000 0.000000 0.000000 0.000000 0.000000 0.141249
#
#
# Mechanical properties :
#
#
# Convention : Reuss Voigt Hill
#
# Bulk Modulus (GPa) = 52.86065 56.12210 54.49137
# Shear Modulus (GPa) = 13.94844 19.45746 16.70295
#
# Velocity S-wave (km/s) = 2.78307 3.28703 3.04549
# Velocity P-wave (km/s) = 6.29924 6.75058 6.52881
#
# Compressibility (1/GPa) = 0.01891766
#
# Stress axis : x y z
#
# Youngs Moduli (GPa) = 66.69066 98.67671 48.21245
#
# Poissons Ratio (x) = 0.29507 0.34876
# Poissons Ratio (y) = 0.19942 0.15680
# Poissons Ratio (z) = 0.48242 0.32092
#
# Static dielectric constant tensor:
#      x y z
#    x 1.586360 0.000000 0.000000 
#    y 0.000000 1.695750 0.000000 
#    z 0.000000 0.000000 1.755920 
# 
# From -- ./inp_files/17766.got.cif
#   From: 2010.05.17/outbox.cif.g08.bks.cpg/sg53_9_cif.got.tgz:17766.got - 2010.06.03 12:45:16.
