data_PCOD9414565
_publ_section_title
;
Structure prediction by ZEFSAII (Michael W. Deem and Ramdas Pophale) SiO2 
 PCOD9414565
Probable space group: P M N A
;
_chemical_formula_sum "Si O2"
_cell_formula_units_Z 64
_cell_length_a 29.809718
_cell_length_b 16.198216
_cell_length_c 7.541525
_cell_angle_alpha 90.000000
_cell_angle_beta 90.000000
_cell_angle_gamma 90.000000
_cell_volume 3641.532821
_symmetry_space_group_name_H-M "P M N A"
_symmetry_group_IT_number 53
_symmetry_cell_setting 'orthorhombic'
loop_
_space_group_symop_operation_xyz
x,y,z
1/2-x,-y,1/2+z
x,-y,-z
1/2-x,y,1/2-z
-x,-y,-z
1/2+x,y,1/2-z
-x,y,z
1/2+x,-y,1/2+z
loop_
_atom_site_type_symbol
_atom_site_label
_atom_site_fract_x
_atom_site_fract_y
_atom_site_fract_z
Si Si1 0.700244 0.405409 0.787356
Si Si2 0.392023 0.663940 0.210013
Si Si3 0.299756 0.594591 0.787356
Si Si4 0.392023 0.336060 0.210013
Si Si5 0.052006 0.180439 0.282187
Si Si6 0.948632 0.500000 0.787741
Si Si7 0.552006 0.180439 0.782187
Si Si8 0.945517 0.000000 0.706265
O O1 0.750000 0.372591 0.750000
O O2 0.657629 0.355058 0.718159
O O3 0.698101 0.500000 0.719412
O O4 0.695737 0.409795 0.000000
O O5 0.421997 0.581864 0.231451
O O6 0.417688 0.743998 0.280931
O O7 0.387247 0.678451 1.000000
O O8 0.250000 0.627409 0.750000
O O9 0.342371 0.644942 0.718159
O O10 0.417688 0.256002 0.280931
O O11 0.421997 0.418136 0.231451
O O12 0.052215 0.178939 0.500000
O O13 0.067539 0.089484 0.220131
O O14 0.000000 0.193079 0.230988
O O15 0.000000 0.500000 0.721525
O O16 0.949940 0.500000 0.000000
O O17 0.500000 0.193079 0.730989
O O18 0.567539 0.089484 0.720131
O O19 0.000000 1.000000 0.709671
O O20 0.931681 0.000000 0.500000
#
# Coordination Sequence:
#
# PCOD9414565 Si02
#       8
#     8   8   8   8   8   8   8   8
#     4   9  17  29  43  60  80 103 136 178 216 250
#     4  10  18  30  46  64  83 109 146 179 208 246
#     4   9  17  29  43  60  80 103 136 178 216 250
#     4  10  18  30  46  64  83 109 146 179 208 246
#     4   8  13  21  37  61  87 112 135 165 206 247
#     4  11  23  33  40  57  88 121 146 169 202 245
#     4   8  13  21  37  61  87 112 135 165 206 247
#     4   7  10  18  32  56  88 111 129 161 207 249
#
# _framework density 17.575016000000002
#
# number of rings (size 3 to 8) (size 9 to 14) (size 15 to 20)
#    0.000    3.000    1.250    2.625    0.000    3.000 
#    0.000    0.000    0.000    0.000    0.000    1.750 
#    0.000    5.000    0.000    0.000    0.000    0.000 
#
# Total GULP energy -356626.925758 kJ/mol
# GULP energy per Si atom -5572.295715 kJ/mol
# Density = 1.753501 g / cm^3
# Si number density = 17.575016 Si / 1000 Ang^3
#
#
#
# Elastic Constant Matrix: (Units=GPa)
#
#
# Indices 1 2 3 4 5 6 
#
# 1 148.6411 92.1995 1.2516 0.0000 0.0000 0.0000
# 2 92.1995 165.2203 -0.6162 0.0000 0.0000 0.0000
# 3 1.2516 -0.6162 41.4713 0.0000 0.0000 0.0000
# 4 0.0000 0.0000 0.0000 -0.7399 0.0000 0.0000
# 5 0.0000 0.0000 0.0000 0.0000 9.2605 0.0000
# 6 0.0000 0.0000 0.0000 0.0000 0.0000 15.1401
#
#
#
# Elastic Compliance Matrix: (Units=1/GPa)
#
#
# Indices 1 2 3 4 5 6 
#
# 1 0.010296 -0.005747 -0.000396 0.000000 0.000000 0.000000
# 2 -0.005747 0.009261 0.000311 0.000000 0.000000 0.000000
# 3 -0.000396 0.000311 0.024130 0.000000 0.000000 0.000000
# 4 0.000000 0.000000 0.000000 -1.351526 0.000000 0.000000
# 5 0.000000 0.000000 0.000000 0.000000 0.107985 0.000000
# 6 0.000000 0.000000 0.000000 0.000000 0.000000 0.066050
#
#
# Mechanical properties :
#
#
# Convention : Reuss Voigt Hill
#
# Bulk Modulus (GPa) = 31.22845 60.11141 45.66993
# Shear Modulus (GPa) = -4.49856 22.23197 8.86671
#
# Velocity S-wave (km/s) = -1.60162 3.56051 2.24856
# Velocity P-wave (km/s) = 3.79302 7.15402 5.72569
#
# Compressibility (1/GPa) = 0.03202208
#
# Stress axis : x y z
#
# Youngs Moduli (GPa) = 97.12868 107.98369 41.44279
#
# Poissons Ratio (x) = 0.62057 0.01642
# Poissons Ratio (y) = 0.55818 -0.01289
# Poissons Ratio (z) = 0.03847 -0.03359
#
# Static dielectric constant tensor:
#      x y z
#    x 1.598250 0.000000 0.000000 
#    y 0.000000 1.618940 0.000000 
#    z 0.000000 0.000000 1.673130 
# 
# From -- ./inp_files/12610.got.cif
#   From: 2010.05.17/outbox.cif.g08.bks.cpg/sg53_7_cif.got.tgz:12610.got - 2010.06.03 12:45:16.
