data_PCOD9414240
_publ_section_title
;
Structure prediction by ZEFSAII (Michael W. Deem and Ramdas Pophale) SiO2 
 PCOD9414240
Probable space group: P M N A
;
_chemical_formula_sum "Si O2"
_cell_formula_units_Z 40
_cell_length_a 28.271734
_cell_length_b 16.555603
_cell_length_c 5.275463
_cell_angle_alpha 90.000000
_cell_angle_beta 90.000000
_cell_angle_gamma 90.000000
_cell_volume 2469.210022
_symmetry_space_group_name_H-M "P M N A"
_symmetry_group_IT_number 53
_symmetry_cell_setting 'orthorhombic'
loop_
_space_group_symop_operation_xyz
x,y,z
1/2-x,-y,1/2+z
x,-y,-z
1/2-x,y,1/2-z
-x,-y,-z
1/2+x,y,1/2-z
-x,y,z
1/2+x,-y,1/2+z
loop_
_atom_site_type_symbol
_atom_site_label
_atom_site_fract_x
_atom_site_fract_y
_atom_site_fract_z
Si Si1 0.805923 0.096092 0.999580
Si Si2 0.947953 0.555761 0.250857
Si Si3 0.847420 0.409065 0.887108
Si Si4 0.798731 0.646053 0.622631
Si Si5 0.800855 0.166779 0.496910
O O1 0.827126 0.132954 0.252925
O O2 0.825849 0.139231 0.752090
O O3 0.750455 0.122747 0.000724
O O4 0.808683 0.000000 0.000000
O O5 0.940969 0.500000 0.500000
O O6 0.900797 0.607434 0.209082
O O7 0.000000 0.594934 0.276145
O O8 0.949881 0.500000 0.000000
O O9 0.815447 0.399268 0.633539
O O10 0.844528 0.500000 0.000000
O O11 0.833572 0.356809 0.134003
O O12 0.750000 0.615548 0.750000
O O13 0.792345 0.738405 0.531418
#
# Coordination Sequence:
#
# PCOD9414240 Si02
#       5
#     8   8   8   8   8
#     4  10  17  28  47  66  83 107 158 208 230 259
#     4   9  17  33  56  74  88 106 138 202 271 308
#     4  11  23  37  50  69  90 119 171 213 239 279
#     4  12  23  35  50  62  95 139 167 198 228 271
#     4  10  18  29  43  63  85 117 156 191 223 283
#
# _framework density 16.199513
#
# number of rings (size 3 to 8) (size 9 to 14) (size 15 to 20)
#    0.000    1.600    2.000    7.800    2.800    1.600 
#    0.000    1.000    0.000    0.000    0.000    0.000 
#    0.000    0.000    0.000    0.000    0.000  116.000 
#
# Total GULP energy -222679.475931 kJ/mol
# GULP energy per Si atom -5566.986898 kJ/mol
# Density = 1.616264 g / cm^3
# Si number density = 16.199513 Si / 1000 Ang^3
#
#
#
# Elastic Constant Matrix: (Units=GPa)
#
#
# Indices 1 2 3 4 5 6 
#
# 1 62.6105 18.7765 30.9391 0.0000 0.0000 0.0000
# 2 18.7765 37.2803 22.1787 0.0000 0.0000 0.0000
# 3 30.9391 22.1787 169.8086 0.0000 0.0000 0.0000
# 4 0.0000 0.0000 0.0000 -2.0426 0.0000 0.0000
# 5 0.0000 0.0000 0.0000 0.0000 19.5649 0.0000
# 6 0.0000 0.0000 0.0000 0.0000 0.0000 -1.4594
#
#
#
# Elastic Compliance Matrix: (Units=1/GPa)
#
#
# Indices 1 2 3 4 5 6 
#
# 1 0.019740 -0.008460 -0.002492 0.000000 0.000000 0.000000
# 2 -0.008460 0.032709 -0.002731 0.000000 0.000000 0.000000
# 3 -0.002492 -0.002731 0.006700 0.000000 0.000000 0.000000
# 4 0.000000 0.000000 0.000000 -0.489580 0.000000 0.000000
# 5 0.000000 0.000000 0.000000 0.000000 0.051112 0.000000
# 6 0.000000 0.000000 0.000000 0.000000 0.000000 -0.685233
#
#
# Mechanical properties :
#
#
# Convention : Reuss Voigt Hill
#
# Bulk Modulus (GPa) = 31.46208 45.94314 38.70261
# Shear Modulus (GPa) = -4.87048 16.39960 5.76456
#
# Velocity S-wave (km/s) = -1.73583 3.18520 1.88844
# Velocity P-wave (km/s) = 3.93018 6.47686 5.35705
#
# Compressibility (1/GPa) = 0.03178429
#
# Stress axis : x y z
#
# Youngs Moduli (GPa) = 50.65827 30.57233 149.26186
#
# Poissons Ratio (x) = 0.25864 0.37192
# Poissons Ratio (y) = 0.42856 0.40760
# Poissons Ratio (z) = 0.12623 0.08349
#
# Static dielectric constant tensor:
#      x y z
#    x 1.674800 0.000000 0.000000 
#    y 0.000000 1.547360 0.000000 
#    z 0.000000 0.000000 1.462950 
# 
# From -- ./inp_files/4371.got.cif
#   From: 2010.05.17/outbox.cif.g08.bks.cpg/sg53_3_cif.got.tgz:4371.got - 2010.06.03 12:45:16.
