data_PCOD9414941
_publ_section_title
;
Structure prediction by ZEFSAII (Michael W. Deem and Ramdas Pophale) SiO2 
 PCOD9414941
Probable space group: P M N A
;
_chemical_formula_sum "Si O2"
_cell_formula_units_Z 64
_cell_length_a 7.638707
_cell_length_b 20.614374
_cell_length_c 21.072693
_cell_angle_alpha 90.000000
_cell_angle_beta 90.000000
_cell_angle_gamma 90.000000
_cell_volume 3318.257183
_symmetry_space_group_name_H-M "P M N A"
_symmetry_group_IT_number 53
_symmetry_cell_setting 'orthorhombic'
loop_
_space_group_symop_operation_xyz
x,y,z
1/2-x,-y,1/2+z
x,-y,-z
1/2-x,y,1/2-z
-x,-y,-z
1/2+x,y,1/2-z
-x,y,z
1/2+x,-y,1/2+z
loop_
_atom_site_type_symbol
_atom_site_label
_atom_site_fract_x
_atom_site_fract_y
_atom_site_fract_z
Si Si1 0.288961 0.325281 0.130111
Si Si2 0.287279 0.320340 0.980828
Si Si3 0.203444 0.456765 0.556800
Si Si4 0.699793 0.534961 0.678062
Si Si5 0.709827 0.045440 0.179606
Si Si6 0.286974 0.182130 0.132141
Si Si7 0.713292 0.822126 0.016780
Si Si8 0.714116 0.040388 0.937499
O O1 0.500000 0.326916 0.134065
O O2 0.222769 0.388159 0.166439
O O3 0.227629 0.254042 0.152520
O O4 0.243559 0.330458 0.055318
O O5 0.500000 0.316383 0.977488
O O6 0.224192 0.383591 0.943207
O O7 0.224867 0.248790 0.961118
O O8 0.282986 0.500000 0.500000
O O9 0.206174 0.495330 0.622489
O O10 0.000000 0.447619 0.539110
O O11 0.750000 0.519528 0.750000
O O12 0.500000 0.517708 0.668921
O O13 0.750000 0.022572 0.250000
O O14 0.500000 0.048656 0.172305
O O15 0.776483 0.119119 0.169527
O O16 0.775005 0.997616 0.124739
O O17 0.500000 0.183606 0.135122
O O18 0.241604 0.172439 0.057909
O O19 0.500000 0.822740 0.018944
O O20 0.773610 0.885524 0.054182
O O21 0.500000 0.041138 0.936270
O O22 0.764005 0.000000 0.000000
#
# Coordination Sequence:
#
# PCOD9414941 Si02
#       8
#     8   8   8   8   8   8   8   8
#     4   9  16  31  51  73 100 132 165 198 241 295
#     4   8  14  25  47  75 101 127 156 197 247 297
#     4  10  18  33  56  79 102 131 167 205 249 300
#     4  12  25  38  52  73 102 136 171 209 251 297
#     4  10  19  30  44  68  98 130 162 201 246 288
#     4   8  14  25  45  70  97 126 161 200 238 282
#     4   8  12  21  41  72  99 120 156 204 244 278
#     4   9  14  23  43  70  96 122 162 210 243 270
#
# _framework density 19.287233000000001
#
# number of rings (size 3 to 8) (size 9 to 14) (size 15 to 20)
#    0.000    2.750    2.500    2.625    0.000    0.750 
#    0.000    1.875    0.000    1.125    0.000    3.500 
#    0.000    0.000    0.000    0.000    0.000    0.000 
#
# Total GULP energy -356847.812350 kJ/mol
# GULP energy per Si atom -5575.747068 kJ/mol
# Density = 1.924333 g / cm^3
# Si number density = 19.287233 Si / 1000 Ang^3
#
#
#
# Elastic Constant Matrix: (Units=GPa)
#
#
# Indices 1 2 3 4 5 6 
#
# 1 32.6377 1.5940 -8.2893 0.0000 0.0000 0.0000
# 2 1.5940 157.0145 70.9586 0.0000 0.0000 0.0000
# 3 -8.2893 70.9586 97.4582 0.0000 0.0000 0.0000
# 4 0.0000 0.0000 0.0000 26.6096 0.0000 0.0000
# 5 0.0000 0.0000 0.0000 0.0000 4.5523 0.0000
# 6 0.0000 0.0000 0.0000 0.0000 0.0000 15.6711
#
#
#
# Elastic Compliance Matrix: (Units=1/GPa)
#
#
# Indices 1 2 3 4 5 6 
#
# 1 0.031867 -0.002308 0.004391 0.000000 0.000000 0.000000
# 2 -0.002308 0.009659 -0.007229 0.000000 0.000000 0.000000
# 3 0.004391 -0.007229 0.015898 0.000000 0.000000 0.000000
# 4 0.000000 0.000000 0.000000 0.037580 0.000000 0.000000
# 5 0.000000 0.000000 0.000000 0.000000 0.219670 0.000000
# 6 0.000000 0.000000 0.000000 0.000000 0.000000 0.063812
#
#
# Mechanical properties :
#
#
# Convention : Reuss Voigt Hill
#
# Bulk Modulus (GPa) = 21.21703 46.18190 33.69946
# Shear Modulus (GPa) = 12.36125 24.22307 18.29216
#
# Velocity S-wave (km/s) = 2.53435 3.54773 3.08296
# Velocity P-wave (km/s) = 4.42587 6.38577 5.49393
#
# Compressibility (1/GPa) = 0.04713195
#
# Stress axis : x y z
#
# Youngs Moduli (GPa) = 31.38015 103.52717 62.90189
#
# Poissons Ratio (x) = 0.23892 -0.27619
# Poissons Ratio (y) = 0.07242 0.45473
# Poissons Ratio (z) = -0.13778 0.74841
#
# Static dielectric constant tensor:
#      x y z
#    x 1.720380 0.000000 0.000000 
#    y 0.000000 1.712850 0.000000 
#    z 0.000000 0.000000 1.587460 
# 
# From -- ./inp_files/31365.got.cif
#   From: 2010.05.17/outbox.cif.g08.bks.cpg/sg53_16_cif.got.tgz:31365.got - 2010.06.03 12:45:16.
