data_PCOD9414442
_publ_section_title
;
Structure prediction by ZEFSAII (Michael W. Deem and Ramdas Pophale) SiO2 
 PCOD9414442
Probable space group: P M N A
;
_chemical_formula_sum "Si O2"
_cell_formula_units_Z 64
_cell_length_a 8.941664
_cell_length_b 14.489072
_cell_length_c 30.468461
_cell_angle_alpha 90.000000
_cell_angle_beta 90.000000
_cell_angle_gamma 90.000000
_cell_volume 3947.384532
_symmetry_space_group_name_H-M "P M N A"
_symmetry_group_IT_number 53
_symmetry_cell_setting 'orthorhombic'
loop_
_space_group_symop_operation_xyz
x,y,z
1/2-x,-y,1/2+z
x,-y,-z
1/2-x,y,1/2-z
-x,-y,-z
1/2+x,y,1/2-z
-x,y,z
1/2+x,-y,1/2+z
loop_
_atom_site_type_symbol
_atom_site_label
_atom_site_fract_x
_atom_site_fract_y
_atom_site_fract_z
Si Si1 0.324098 0.028110 0.936304
Si Si2 0.324375 0.800371 0.013903
Si Si3 0.324254 0.289606 0.081491
Si Si4 0.821936 0.004321 0.797086
Si Si5 0.678199 0.877830 0.621189
Si Si6 0.675871 0.328519 0.585617
Si Si7 0.321321 0.156585 0.636500
Si Si8 0.180530 0.509893 0.551159
O O1 0.500000 0.005235 0.937124
O O2 0.289258 0.091395 0.978832
O O3 0.281775 0.101786 0.897962
O O4 0.234835 0.939336 0.919912
O O5 0.500000 0.789222 0.026715
O O6 0.223423 0.737680 0.045253
O O7 0.310475 0.762249 0.965224
O O8 0.500000 0.293180 0.092641
O O9 0.240248 0.225026 0.115947
O O10 0.269389 0.393469 0.072490
O O11 0.750000 0.991079 0.750000
O O12 0.771707 0.931296 0.834568
O O13 0.000000 0.994366 0.792974
O O14 0.793219 0.106367 0.817427
O O15 0.500000 0.877388 0.620688
O O16 0.500000 0.347571 0.583826
O O17 0.706280 0.264732 0.628384
O O18 0.764236 0.422743 0.578817
O O19 0.500000 0.140767 0.626189
O O20 0.229909 0.500000 0.500000
O O21 0.000000 0.511158 0.550113
#
# Coordination Sequence:
#
# PCOD9414442 Si02
#       8
#     8   8   8   8   8   8   8   8
#     4   9  16  27  46  66  87 121 164 198 226 275
#     4   9  17  30  45  63  89 124 164 203 241 273
#     4  10  20  33  48  64  88 126 169 206 238 276
#     4   9  18  33  53  75  99 124 149 182 231 287
#     4  10  21  35  47  65  98 127 150 192 244 287
#     4  10  18  28  46  69  95 126 162 200 240 287
#     4   8  16  30  45  68 101 128 148 185 238 282
#     4  10  19  33  49  65  92 128 166 211 251 274
#
# _framework density 16.213266999999998
#
# number of rings (size 3 to 8) (size 9 to 14) (size 15 to 20)
#    0.000    2.625    1.250    1.875    0.000    5.250 
#    0.000    2.500    0.000    0.000    0.000    0.875 
#    0.000    2.000    0.000    0.000    0.000    0.000 
#
# Total GULP energy -356472.051325 kJ/mol
# GULP energy per Si atom -5569.875802 kJ/mol
# Density = 1.617636 g / cm^3
# Si number density = 16.213267 Si / 1000 Ang^3
#
#
#
# Elastic Constant Matrix: (Units=GPa)
#
#
# Indices 1 2 3 4 5 6 
#
# 1 18.6000 30.5941 22.6924 0.0000 0.0000 0.0000
# 2 30.5941 137.1347 40.7528 0.0000 0.0000 0.0000
# 3 22.6924 40.7528 63.3797 0.0000 0.0000 0.0000
# 4 0.0000 0.0000 0.0000 14.8118 0.0000 0.0000
# 5 0.0000 0.0000 0.0000 0.0000 17.5775 0.0000
# 6 0.0000 0.0000 0.0000 0.0000 0.0000 62.5489
#
#
#
# Elastic Compliance Matrix: (Units=1/GPa)
#
#
# Indices 1 2 3 4 5 6 
#
# 1 0.122449 -0.017665 -0.032483 0.000000 0.000000 0.000000
# 2 -0.017665 0.011563 -0.001110 0.000000 0.000000 0.000000
# 3 -0.032483 -0.001110 0.028122 0.000000 0.000000 0.000000
# 4 0.000000 0.000000 0.000000 0.067514 0.000000 0.000000
# 5 0.000000 0.000000 0.000000 0.000000 0.056891 0.000000
# 6 0.000000 0.000000 0.000000 0.000000 0.000000 0.015987
#
#
# Mechanical properties :
#
#
# Convention : Reuss Voigt Hill
#
# Bulk Modulus (GPa) = 16.77351 45.24365 31.00858
# Shear Modulus (GPa) = 11.76706 27.32598 19.54652
#
# Velocity S-wave (km/s) = 2.69693 4.10983 3.47592
# Velocity P-wave (km/s) = 4.47950 7.10541 5.93939
#
# Compressibility (1/GPa) = 0.05961782
#
# Stress axis : x y z
#
# Youngs Moduli (GPa) = 8.16667 86.48325 35.55931
#
# Poissons Ratio (x) = 1.52769 1.15508
# Poissons Ratio (y) = 0.14426 0.03948
# Poissons Ratio (z) = 0.26528 0.09602
#
# Static dielectric constant tensor:
#      x y z
#    x 1.547290 0.000000 0.000000 
#    y 0.000000 1.582110 0.000000 
#    z 0.000000 0.000000 1.545860 
# 
# From -- ./inp_files/38456.got.cif
#   From: 2010.05.17/outbox.cif.g08.bks.cpg/sg53_20_cif.got.tgz:38456.got - 2010.06.03 12:45:16.
