data_PCOD9414467
_publ_section_title
;
Structure prediction by ZEFSAII (Michael W. Deem and Ramdas Pophale) SiO2 
 PCOD9414467
Probable space group: P M N A
;
_chemical_formula_sum "Si O2"
_cell_formula_units_Z 64
_cell_length_a 8.713859
_cell_length_b 17.730482
_cell_length_c 27.590870
_cell_angle_alpha 90.000000
_cell_angle_beta 90.000000
_cell_angle_gamma 90.000000
_cell_volume 4262.814803
_symmetry_space_group_name_H-M "P M N A"
_symmetry_group_IT_number 53
_symmetry_cell_setting 'orthorhombic'
loop_
_space_group_symop_operation_xyz
x,y,z
1/2-x,-y,1/2+z
x,-y,-z
1/2-x,y,1/2-z
-x,-y,-z
1/2+x,y,1/2-z
-x,y,z
1/2+x,-y,1/2+z
loop_
_atom_site_type_symbol
_atom_site_label
_atom_site_fract_x
_atom_site_fract_y
_atom_site_fract_z
Si Si1 0.316139 0.718745 0.620095
Si Si2 0.314593 0.517731 0.387670
Si Si3 0.315054 0.659521 0.440779
Si Si4 0.184205 0.406099 0.196495
Si Si5 0.822979 0.986939 0.058261
Si Si6 0.817217 0.395118 0.458211
Si Si7 0.186359 0.174406 0.967009
Si Si8 0.318369 0.142539 0.074199
O O1 0.500000 0.715452 0.613980
O O2 0.276010 0.671747 0.668418
O O3 0.237099 0.672739 0.576552
O O4 0.258379 0.803662 0.614200
O O5 0.500000 0.512266 0.389298
O O6 0.270693 0.604722 0.396394
O O7 0.264339 0.474716 0.338803
O O8 0.248926 0.469193 0.432261
O O9 0.500000 0.659629 0.443230
O O10 0.251578 0.621212 0.489380
O O11 0.266662 0.746947 0.442460
O O12 0.250000 0.410128 0.250000
O O13 0.000000 0.409296 0.199239
O O14 0.768726 0.900624 0.062813
O O15 0.000000 0.993414 0.074258
O O16 0.726186 0.054899 0.080292
O O17 0.821844 0.000000 0.000000
O O18 0.000000 0.399047 0.460658
O O19 0.000000 0.172382 0.971522
O O20 0.253498 0.167564 0.021288
O O21 0.500000 0.152272 0.074417
#
# Coordination Sequence:
#
# PCOD9414467 Si02
#       8
#     8   8   8   8   8   8   8   8
#     4  10  19  32  47  63  85 116 149 179 215 265
#     4   9  19  33  46  62  83 114 149 176 212 265
#     4  10  18  29  45  60  83 119 153 181 212 254
#     4   9  19  34  51  67  85 109 140 179 222 267
#     4   8  15  27  40  55  79 115 153 182 211 250
#     4  11  20  28  40  62  88 114 145 183 221 252
#     4   9  17  28  42  58  81 119 156 184 214 250
#     4  11  19  26  40  63  87 113 146 185 220 253
#
# _framework density 15.013553999999999
#
# number of rings (size 3 to 8) (size 9 to 14) (size 15 to 20)
#    0.000    2.375    1.250    4.500    0.000    6.750 
#    0.000    0.000    0.000    0.000    0.000    0.000 
#    0.000    1.000    0.000    4.250    0.000    2.000 
#
# Total GULP energy -356586.070685 kJ/mol
# GULP energy per Si atom -5571.657354 kJ/mol
# Density = 1.497938 g / cm^3
# Si number density = 15.013554 Si / 1000 Ang^3
#
#
#
# Elastic Constant Matrix: (Units=GPa)
#
#
# Indices 1 2 3 4 5 6 
#
# 1 10.6581 22.9671 11.2855 0.0000 0.0000 0.0000
# 2 22.9671 135.7986 53.5943 0.0000 0.0000 0.0000
# 3 11.2855 53.5943 61.7132 0.0000 0.0000 0.0000
# 4 0.0000 0.0000 0.0000 9.6328 0.0000 0.0000
# 5 0.0000 0.0000 0.0000 0.0000 16.7890 0.0000
# 6 0.0000 0.0000 0.0000 0.0000 0.0000 7.9550
#
#
#
# Elastic Compliance Matrix: (Units=1/GPa)
#
#
# Indices 1 2 3 4 5 6 
#
# 1 0.150329 -0.022176 -0.008232 0.000000 0.000000 0.000000
# 2 -0.022176 0.014475 -0.008515 0.000000 0.000000 0.000000
# 3 -0.008232 -0.008515 0.025105 0.000000 0.000000 0.000000
# 4 0.000000 0.000000 0.000000 0.103812 0.000000 0.000000
# 5 0.000000 0.000000 0.000000 0.000000 0.059563 0.000000
# 6 0.000000 0.000000 0.000000 0.000000 0.000000 0.125706
#
#
# Mechanical properties :
#
#
# Convention : Reuss Voigt Hill
#
# Bulk Modulus (GPa) = 8.92364 42.65152 25.78758
# Shear Modulus (GPa) = 8.41479 14.89688 11.65583
#
# Velocity S-wave (km/s) = 2.37001 3.15338 2.78934
# Velocity P-wave (km/s) = 3.66687 6.45978 5.25237
#
# Compressibility (1/GPa) = 0.11206191
#
# Stress axis : x y z
#
# Youngs Moduli (GPa) = 6.65206 69.08433 39.83320
#
# Poissons Ratio (x) = 1.53199 0.32793
# Poissons Ratio (y) = 0.14751 0.33920
# Poissons Ratio (z) = 0.05476 0.58829
#
# Static dielectric constant tensor:
#      x y z
#    x 1.499650 0.000000 0.000000 
#    y 0.000000 1.563810 0.000000 
#    z 0.000000 0.000000 1.462740 
# 
# From -- ./inp_files/34424.got.cif
#   From: 2010.05.17/outbox.cif.g08.bks.cpg/sg53_18_cif.got.tgz:34424.got - 2010.06.03 12:45:16.
