data_PCOD9414277
_publ_section_title
;
Structure prediction by ZEFSAII (Michael W. Deem and Ramdas Pophale) SiO2 
 PCOD9414277
Probable space group: P M N A
;
_chemical_formula_sum "Si O2"
_cell_formula_units_Z 34
_cell_length_a 7.453725
_cell_length_b 13.889690
_cell_length_c 14.002680
_cell_angle_alpha 90.000000
_cell_angle_beta 90.000000
_cell_angle_gamma 90.000000
_cell_volume 1449.696475
_symmetry_space_group_name_H-M "P M N A"
_symmetry_group_IT_number 53
_symmetry_cell_setting 'orthorhombic'
loop_
_space_group_symop_operation_xyz
x,y,z
1/2-x,-y,1/2+z
x,-y,-z
1/2-x,y,1/2-z
-x,-y,-z
1/2+x,y,1/2-z
-x,y,z
1/2+x,-y,1/2+z
loop_
_atom_site_type_symbol
_atom_site_label
_atom_site_fract_x
_atom_site_fract_y
_atom_site_fract_z
Si Si1 0.302746 0.554887 0.358317
Si Si2 0.719192 0.844847 0.966268
Si Si3 0.285488 0.335952 0.145708
Si Si4 0.713418 0.036020 0.859551
Si Si5 0.000000 0.500000 0.500000
O O1 0.250000 0.587101 0.250000
O O2 0.500000 0.592014 0.382249
O O3 0.309036 0.438147 0.351391
O O4 0.155960 0.563084 0.441077
O O5 0.500000 0.840072 0.962512
O O6 0.777838 0.879845 0.070348
O O7 0.778304 0.741614 0.929961
O O8 0.777899 0.931898 0.896501
O O9 0.250000 0.290964 0.250000
O O10 0.500000 0.359520 0.131558
O O11 0.750000 0.052271 0.750000
O O12 0.500000 0.032925 0.873100
#
# Coordination Sequence:
#
# PCOD9414277 Si02
#       5
#     8   8   8   8   2
#     4  11  21  38  61  92 123 153 193 236 288 353
#     4   8  16  28  46  67  97 137 176 216 268 330
#     4  10  17  30  50  77 108 141 174 227 284 330
#     4   9  16  29  44  66  93 133 180 219 268 316
#     4  12  22  40  64  92 120 162 186 230 300 338
#
# _framework density 23.453185999999999
#
# number of rings (size 3 to 8) (size 9 to 14) (size 15 to 20)
#    0.000    2.353    2.353    4.588    0.000    0.000 
#    0.000    5.882    0.000    1.412    0.000    0.000 
#    0.000    0.000    0.000    0.000    0.000    0.000 
#
# Total GULP energy -189412.165103 kJ/mol
# GULP energy per Si atom -5570.946032 kJ/mol
# Density = 2.339981 g / cm^3
# Si number density = 23.453186 Si / 1000 Ang^3
#
#
#
# Elastic Constant Matrix: (Units=GPa)
#
#
# Indices 1 2 3 4 5 6 
#
# 1 145.0653 -17.9566 13.9854 0.0000 0.0000 0.0000
# 2 -17.9566 42.8659 8.6434 0.0000 0.0000 0.0000
# 3 13.9854 8.6434 120.2377 0.0000 0.0000 0.0000
# 4 0.0000 0.0000 0.0000 22.1864 0.0000 0.0000
# 5 0.0000 0.0000 0.0000 0.0000 33.5614 0.0000
# 6 0.0000 0.0000 0.0000 0.0000 0.0000 2.3471
#
#
#
# Elastic Compliance Matrix: (Units=1/GPa)
#
#
# Indices 1 2 3 4 5 6 
#
# 1 0.007411 0.003327 -0.001101 0.000000 0.000000 0.000000
# 2 0.003327 0.025165 -0.002196 0.000000 0.000000 0.000000
# 3 -0.001101 -0.002196 0.008603 0.000000 0.000000 0.000000
# 4 0.000000 0.000000 0.000000 0.045073 0.000000 0.000000
# 5 0.000000 0.000000 0.000000 0.000000 0.029796 0.000000
# 6 0.000000 0.000000 0.000000 0.000000 0.000000 0.426050
#
#
# Mechanical properties :
#
#
# Convention : Reuss Voigt Hill
#
# Bulk Modulus (GPa) = 24.24935 35.27925 29.76430
# Shear Modulus (GPa) = 8.99629 31.85210 20.42419
#
# Velocity S-wave (km/s) = 1.96066 3.68926 2.95422
# Velocity P-wave (km/s) = 3.93541 5.76390 4.93508
#
# Compressibility (1/GPa) = 0.04123822
#
# Stress axis : x y z
#
# Youngs Moduli (GPa) = 134.92730 39.73784 116.24119
#
# Poissons Ratio (x) = -0.13220 0.12800
# Poissons Ratio (y) = -0.44886 0.25526
# Poissons Ratio (z) = 0.14858 0.08726
#
# Static dielectric constant tensor:
#      x y z
#    x 1.916570 0.000000 0.000000 
#    y 0.000000 1.949030 0.000000 
#    z 0.000000 0.000000 1.967520 
# 
# From -- ./inp_files/19997.got.cif
#   From: 2010.05.17/outbox.cif.g08.bks.cpg/sg53_10_cif.got.tgz:19997.got - 2010.06.03 12:45:16.
