data_PCOD9414503
_publ_section_title
;
Structure prediction by ZEFSAII (Michael W. Deem and Ramdas Pophale) SiO2 
 PCOD9414503
Probable space group: P M N A
;
_chemical_formula_sum "Si O2"
_cell_formula_units_Z 44
_cell_length_a 12.996640
_cell_length_b 8.749142
_cell_length_c 24.500187
_cell_angle_alpha 90.000000
_cell_angle_beta 90.000000
_cell_angle_gamma 90.000000
_cell_volume 2785.902761
_symmetry_space_group_name_H-M "P M N A"
_symmetry_group_IT_number 53
_symmetry_cell_setting 'orthorhombic'
loop_
_space_group_symop_operation_xyz
x,y,z
1/2-x,-y,1/2+z
x,-y,-z
1/2-x,y,1/2-z
-x,-y,-z
1/2+x,y,1/2-z
-x,y,z
1/2+x,-y,1/2+z
loop_
_atom_site_type_symbol
_atom_site_label
_atom_site_fract_x
_atom_site_fract_y
_atom_site_fract_z
Si Si1 0.375519 0.569634 0.941107
Si Si2 0.881633 0.423931 0.221113
Si Si3 0.250000 0.856047 0.750000
Si Si4 0.623789 0.924768 0.170276
Si Si5 0.306309 0.577074 0.170942
Si Si6 0.375457 0.921896 0.944478
O O1 0.500000 0.563093 0.936843
O O2 0.331357 0.477920 0.889846
O O3 0.342128 0.746444 0.938514
O O4 0.347851 0.500000 0.000000
O O5 0.826376 0.259220 0.217932
O O6 0.869586 0.477980 0.284279
O O7 0.811642 0.540970 0.186698
O O8 0.000000 0.420304 0.205636
O O9 0.318634 0.961010 0.788975
O O10 0.500000 0.931195 0.177522
O O11 0.662760 0.752540 0.178167
O O12 0.648536 0.979992 0.108900
O O13 0.500000 0.916720 0.948113
O O14 0.337257 0.000000 0.000000
#
# Coordination Sequence:
#
# PCOD9414503 Si02
#       6
#     8   8   4   8   8   8
#     4  10  18  29  47  71 100 131 163 199 241 292
#     4  10  20  35  52  69  95 128 167 210 244 284
#     4  10  20  32  48  72  96 128 166 198 246 292
#     4  11  20  31  48  72 104 131 157 197 241 291
#     4  10  20  32  50  73  97 129 165 197 245 297
#     4   9  17  28  43  66  96 128 157 189 234 284
#
# _framework density 15.793803
#
# number of rings (size 3 to 8) (size 9 to 14) (size 15 to 20)
#    0.000    2.182    0.000    6.545    0.000    4.364 
#    0.000    0.909    0.000    0.545    0.000    0.000 
#    0.000    8.727    0.000    0.000    0.000    0.000 
#
# Total GULP energy -245392.922632 kJ/mol
# GULP energy per Si atom -5577.111878 kJ/mol
# Density = 1.575786 g / cm^3
# Si number density = 15.793803 Si / 1000 Ang^3
#
#
#
# Elastic Constant Matrix: (Units=GPa)
#
#
# Indices 1 2 3 4 5 6 
#
# 1 100.3909 46.9099 40.9859 0.0000 0.0000 0.0000
# 2 46.9099 124.0288 47.6282 0.0000 0.0000 0.0000
# 3 40.9859 47.6282 99.8589 0.0000 0.0000 0.0000
# 4 0.0000 0.0000 0.0000 27.6334 0.0000 0.0000
# 5 0.0000 0.0000 0.0000 0.0000 11.1182 0.0000
# 6 0.0000 0.0000 0.0000 0.0000 0.0000 19.0406
#
#
#
# Elastic Compliance Matrix: (Units=1/GPa)
#
#
# Indices 1 2 3 4 5 6 
#
# 1 0.013127 -0.003545 -0.003697 0.000000 0.000000 0.000000
# 2 -0.003545 0.010828 -0.003709 0.000000 0.000000 0.000000
# 3 -0.003697 -0.003709 0.013301 0.000000 0.000000 0.000000
# 4 0.000000 0.000000 0.000000 0.036188 0.000000 0.000000
# 5 0.000000 0.000000 0.000000 0.000000 0.089942 0.000000
# 6 0.000000 0.000000 0.000000 0.000000 0.000000 0.052519
#
#
# Mechanical properties :
#
#
# Convention : Reuss Voigt Hill
#
# Bulk Modulus (GPa) = 65.13537 66.14742 65.64139
# Shear Modulus (GPa) = 20.58243 24.14209 22.36226
#
# Velocity S-wave (km/s) = 3.61390 3.91395 3.76691
# Velocity P-wave (km/s) = 7.66448 7.89925 7.78275
#
# Compressibility (1/GPa) = 0.01535264
#
# Stress axis : x y z
#
# Youngs Moduli (GPa) = 76.17915 92.35379 75.18419
#
# Poissons Ratio (x) = 0.32741 0.27795
# Poissons Ratio (y) = 0.27007 0.27888
# Poissons Ratio (z) = 0.28163 0.34257
#
# Static dielectric constant tensor:
#      x y z
#    x 1.510630 0.000000 0.000000 
#    y 0.000000 1.537770 0.000000 
#    z 0.000000 0.000000 1.522090 
# 
# From -- ./inp_files/34900.got.cif
#   From: 2010.05.17/outbox.cif.g08.bks.cpg/sg53_18_cif.got.tgz:34900.got - 2010.06.03 12:45:16.
