data_PCOD9414541
_publ_section_title
;
Structure prediction by ZEFSAII (Michael W. Deem and Ramdas Pophale) SiO2 
 PCOD9414541
Probable space group: P M N A
;
_chemical_formula_sum "Si O2"
_cell_formula_units_Z 56
_cell_length_a 7.815887
_cell_length_b 17.485787
_cell_length_c 22.328557
_cell_angle_alpha 90.000000
_cell_angle_beta 90.000000
_cell_angle_gamma 90.000000
_cell_volume 3051.575455
_symmetry_space_group_name_H-M "P M N A"
_symmetry_group_IT_number 53
_symmetry_cell_setting 'orthorhombic'
loop_
_space_group_symop_operation_xyz
x,y,z
1/2-x,-y,1/2+z
x,-y,-z
1/2-x,y,1/2-z
-x,-y,-z
1/2+x,y,1/2-z
-x,y,z
1/2+x,-y,1/2+z
loop_
_atom_site_type_symbol
_atom_site_label
_atom_site_fract_x
_atom_site_fract_y
_atom_site_fract_z
Si Si1 0.203734 0.146605 0.318671
Si Si2 0.291028 0.545575 0.439051
Si Si3 0.702810 0.694502 0.622335
Si Si4 0.705028 0.295174 0.512889
Si Si5 0.294037 0.541100 0.681559
Si Si6 0.794208 0.121664 0.528527
Si Si7 0.291298 0.027407 0.089595
O O1 0.250000 0.147698 0.250000
O O2 0.271685 0.222370 0.350398
O O3 0.267642 0.069989 0.351134
O O4 0.000000 0.148874 0.325392
O O5 0.239726 0.500000 0.500000
O O6 0.500000 0.542285 0.438524
O O7 0.235543 0.633570 0.447231
O O8 0.234540 0.509510 0.375637
O O9 0.500000 0.680766 0.616930
O O10 0.773909 0.693678 0.554823
O O11 0.768905 0.626992 0.665126
O O12 0.500000 0.301898 0.509848
O O13 0.740845 0.209182 0.534114
O O14 0.250000 0.519874 0.750000
O O15 0.500000 0.539847 0.679813
O O16 0.740916 0.083255 0.465354
O O17 0.000000 0.121722 0.528710
O O18 0.733661 0.059020 0.576997
O O19 0.500000 0.025013 0.089115
#
# Coordination Sequence:
#
# PCOD9414541 Si02
#       7
#     8   8   8   8   8   8   8
#     4  11  21  33  48  69  98 133 165 195 235 286
#     4   9  16  31  53  73  96 132 170 203 246 299
#     4  10  19  31  48  73 102 131 162 197 241 294
#     4  10  18  29  50  78 102 123 160 208 247 285
#     4  10  20  34  52  72  98 134 171 205 244 296
#     4   9  16  31  51  70  93 124 157 192 240 292
#     4   8  16  30  49  68  91 126 163 190 227 288
#
# _framework density 18.351175000000001
#
# number of rings (size 3 to 8) (size 9 to 14) (size 15 to 20)
#    0.000    2.429    2.857    1.714    0.000    1.714 
#    0.000    3.571    0.000    1.714    0.000    6.000 
#    0.000    0.000    0.000    0.000    0.000    0.000 
#
# Total GULP energy -312117.273151 kJ/mol
# GULP energy per Si atom -5573.522735 kJ/mol
# Density = 1.830941 g / cm^3
# Si number density = 18.351175 Si / 1000 Ang^3
#
#
#
# Elastic Constant Matrix: (Units=GPa)
#
#
# Indices 1 2 3 4 5 6 
#
# 1 18.6996 7.4366 6.0508 0.0000 0.0000 0.0000
# 2 7.4366 147.3066 78.3841 0.0000 0.0000 0.0000
# 3 6.0508 78.3841 128.3322 0.0000 0.0000 0.0000
# 4 0.0000 0.0000 0.0000 25.5429 0.0000 0.0000
# 5 0.0000 0.0000 0.0000 0.0000 10.6979 0.0000
# 6 0.0000 0.0000 0.0000 0.0000 0.0000 17.3311
#
#
#
# Elastic Compliance Matrix: (Units=1/GPa)
#
#
# Indices 1 2 3 4 5 6 
#
# 1 0.054724 -0.002059 -0.001323 0.000000 0.000000 0.000000
# 2 -0.002059 0.010135 -0.006093 0.000000 0.000000 0.000000
# 3 -0.001323 -0.006093 0.011576 0.000000 0.000000 0.000000
# 4 0.000000 0.000000 0.000000 0.039150 0.000000 0.000000
# 5 0.000000 0.000000 0.000000 0.000000 0.093476 0.000000
# 6 0.000000 0.000000 0.000000 0.000000 0.000000 0.057700
#
#
# Mechanical properties :
#
#
# Convention : Reuss Voigt Hill
#
# Bulk Modulus (GPa) = 17.39569 53.12015 35.25792
# Shear Modulus (GPa) = 16.40034 24.21219 20.30626
#
# Velocity S-wave (km/s) = 2.99272 3.63627 3.33007
# Velocity P-wave (km/s) = 4.63052 6.82929 5.83442
#
# Compressibility (1/GPa) = 0.05748549
#
# Stress axis : x y z
#
# Youngs Moduli (GPa) = 18.27360 98.67041 86.38363
#
# Poissons Ratio (x) = 0.20315 0.11426
# Poissons Ratio (y) = 0.03762 0.52635
# Poissons Ratio (z) = 0.02417 0.60121
#
# Static dielectric constant tensor:
#      x y z
#    x 1.687600 0.000000 0.000000 
#    y 0.000000 1.646630 0.000000 
#    z 0.000000 0.000000 1.629420 
# 
# From -- ./inp_files/31000.got.cif
#   From: 2010.05.17/outbox.cif.g08.bks.cpg/sg53_16_cif.got.tgz:31000.got - 2010.06.03 12:45:16.
