data_PCOD9414303
_publ_section_title
;
Structure prediction by ZEFSAII (Michael W. Deem and Ramdas Pophale) SiO2 
 PCOD9414303
Probable space group: P M N A
;
_chemical_formula_sum "Si O2"
_cell_formula_units_Z 64
_cell_length_a 30.361272
_cell_length_b 5.124574
_cell_length_c 17.040466
_cell_angle_alpha 90.000000
_cell_angle_beta 90.000000
_cell_angle_gamma 90.000000
_cell_volume 2651.301994
_symmetry_space_group_name_H-M "P M N A"
_symmetry_group_IT_number 53
_symmetry_cell_setting 'orthorhombic'
loop_
_space_group_symop_operation_xyz
x,y,z
1/2-x,-y,1/2+z
x,-y,-z
1/2-x,y,1/2-z
-x,-y,-z
1/2+x,y,1/2-z
-x,y,z
1/2+x,-y,1/2+z
loop_
_atom_site_type_symbol
_atom_site_label
_atom_site_fract_x
_atom_site_fract_y
_atom_site_fract_z
Si Si1 0.046730 0.083758 0.287052
Si Si2 0.820064 0.211696 0.458098
Si Si3 0.394065 0.635711 0.390805
Si Si4 0.628750 0.713330 0.216800
Si Si5 0.202535 0.746334 0.052186
Si Si6 0.411189 0.641214 0.919708
Si Si7 0.049587 0.838641 0.888182
Si Si8 0.212682 0.682990 0.372671
O O1 0.049924 0.233972 0.368864
O O2 0.045283 0.235451 0.204418
O O3 0.000000 0.928302 0.286578
O O4 0.093758 0.945455 0.280075
O O5 0.830082 0.500000 0.500000
O O6 0.871339 0.156615 0.434590
O O7 0.792585 0.370014 0.389211
O O8 0.803118 0.885967 0.445391
O O9 0.377645 0.583287 0.301352
O O10 0.348678 0.717984 0.431125
O O11 0.417116 0.374388 0.421885
O O12 0.428831 0.874599 0.393454
O O13 0.611112 0.551084 0.143294
O O14 0.679845 0.761026 0.196507
O O15 0.235480 0.742815 0.126207
O O16 0.217475 0.500000 0.000000
O O17 0.209802 0.000000 0.000000
O O18 0.424911 0.500000 0.000000
O O19 0.000000 0.831805 0.920662
#
# Coordination Sequence:
#
# PCOD9414303 Si02
#       8
#     8   8   8   8   8   8   8   8
#     4  10  22  36  57  87 123 170 222 277 326 375
#     4  10  17  31  55  81 113 158 217 259 299 371
#     4  11  23  43  70 102 137 169 213 279 331 378
#     4  10  21  40  60  89 127 169 226 272 318 385
#     4  12  26  45  69 101 137 172 211 268 341 409
#     4  11  20  33  54  83 122 168 213 271 323 373
#     4  10  21  42  72 100 130 176 222 258 321 412
#     4  10  20  36  59  89 120 172 219 255 307 388
#
# _framework density 24.139085000000001
#
# number of rings (size 3 to 8) (size 9 to 14) (size 15 to 20)
#    0.000    1.500    5.000    2.250    0.000    1.750 
#    0.000    0.625    0.000   10.500    0.000    0.000 
#    0.000    0.000    0.000    0.000    0.000    0.000 
#
# Total GULP energy -356632.326484 kJ/mol
# GULP energy per Si atom -5572.380101 kJ/mol
# Density = 2.408414 g / cm^3
# Si number density = 24.139085 Si / 1000 Ang^3
#
#
#
# Elastic Constant Matrix: (Units=GPa)
#
#
# Indices 1 2 3 4 5 6 
#
# 1 179.8219 29.7641 16.4378 0.0000 0.0000 0.0000
# 2 29.7641 104.1957 15.6407 0.0000 0.0000 0.0000
# 3 16.4378 15.6407 68.8191 0.0000 0.0000 0.0000
# 4 0.0000 0.0000 0.0000 20.2646 0.0000 0.0000
# 5 0.0000 0.0000 0.0000 0.0000 17.7694 0.0000
# 6 0.0000 0.0000 0.0000 0.0000 0.0000 15.0200
#
#
#
# Elastic Compliance Matrix: (Units=1/GPa)
#
#
# Indices 1 2 3 4 5 6 
#
# 1 0.005911 -0.001529 -0.001065 0.000000 0.000000 0.000000
# 2 -0.001529 0.010332 -0.001983 0.000000 0.000000 0.000000
# 3 -0.001065 -0.001983 0.015236 0.000000 0.000000 0.000000
# 4 0.000000 0.000000 0.000000 0.049347 0.000000 0.000000
# 5 0.000000 0.000000 0.000000 0.000000 0.056276 0.000000
# 6 0.000000 0.000000 0.000000 0.000000 0.000000 0.066578
#
#
# Mechanical properties :
#
#
# Convention : Reuss Voigt Hill
#
# Bulk Modulus (GPa) = 44.79017 52.94688 48.86852
# Shear Modulus (GPa) = 22.69891 30.01043 26.35467
#
# Velocity S-wave (km/s) = 3.06982 3.52977 3.30780
# Velocity P-wave (km/s) = 5.58215 6.21241 5.90570
#
# Compressibility (1/GPa) = 0.02232633
#
# Stress axis : x y z
#
# Youngs Moduli (GPa) = 169.16411 96.78953 65.63496
#
# Poissons Ratio (x) = 0.14798 0.06987
# Poissons Ratio (y) = 0.25862 0.13015
# Poissons Ratio (z) = 0.18008 0.19193
#
# Static dielectric constant tensor:
#      x y z
#    x 1.996320 0.000000 0.000000 
#    y 0.000000 1.956820 0.000000 
#    z 0.000000 0.000000 2.096600 
# 
# From -- ./inp_files/29820.got.cif
#   From: 2010.05.17/outbox.cif.g08.bks.cpg/sg53_15_cif.got.tgz:29820.got - 2010.06.03 12:45:16.
