data_PCOD9414233
_publ_section_title
;
Structure prediction by ZEFSAII (Michael W. Deem and Ramdas Pophale) SiO2 
 PCOD9414233
Probable space group: P M N A
;
_chemical_formula_sum "Si O2"
_cell_formula_units_Z 56
_cell_length_a 7.483217
_cell_length_b 15.251946
_cell_length_c 27.117563
_cell_angle_alpha 90.000000
_cell_angle_beta 90.000000
_cell_angle_gamma 90.000000
_cell_volume 3095.025674
_symmetry_space_group_name_H-M "P M N A"
_symmetry_group_IT_number 53
_symmetry_cell_setting 'orthorhombic'
loop_
_space_group_symop_operation_xyz
x,y,z
1/2-x,-y,1/2+z
x,-y,-z
1/2-x,y,1/2-z
-x,-y,-z
1/2+x,y,1/2-z
-x,y,z
1/2+x,-y,1/2+z
loop_
_atom_site_type_symbol
_atom_site_label
_atom_site_fract_x
_atom_site_fract_y
_atom_site_fract_z
Si Si1 0.216227 0.515369 0.391702
Si Si2 0.281632 0.881478 0.043586
Si Si3 0.794923 0.229947 0.370361
Si Si4 0.290086 0.643161 0.540311
Si Si5 0.294143 0.306372 0.930436
Si Si6 0.285820 0.614701 0.807191
Si Si7 0.281535 0.074170 0.067833
O O1 0.264708 0.454208 0.438207
O O2 0.285000 0.613920 0.398874
O O3 0.278855 0.462873 0.343239
O O4 0.000000 0.519302 0.390460
O O5 0.500000 0.879074 0.043314
O O6 0.216083 0.791419 0.067632
O O7 0.228283 0.972469 0.069272
O O8 0.228170 0.888998 0.986052
O O9 0.792593 0.292058 0.418888
O O10 0.714671 0.292325 0.328207
O O11 0.716000 0.138349 0.389159
O O12 0.000000 0.211804 0.356232
O O13 0.500000 0.661813 0.537330
O O14 0.209268 0.659855 0.486941
O O15 0.500000 0.296472 0.914662
O O16 0.250000 0.601400 0.750000
O O17 0.500000 0.617589 0.813806
O O18 0.500000 0.076476 0.068397
#
# Coordination Sequence:
#
# PCOD9414233 Si02
#       7
#     8   8   8   8   8   8   8
#     4   9  19  32  45  60  80 110 145 176 210 253
#     4   8  13  20  38  65  86 108 139 174 203 228
#     4   9  16  29  47  63  84 114 145 174 208 253
#     4  11  20  27  38  60  89 117 145 176 207 243
#     4  10  17  28  44  60  83 116 148 175 204 243
#     4   9  18  31  46  64  82 103 135 176 220 261
#     4   8  12  21  39  64  87 106 137 175 204 232
#
# _framework density 18.093548999999999
#
# number of rings (size 3 to 8) (size 9 to 14) (size 15 to 20)
#    0.000    2.857    1.429    3.429    0.000    4.571 
#    0.000    0.000    0.000    1.714    0.000    1.000 
#    0.000    0.000    0.000    0.000    0.000    0.000 
#
# Total GULP energy -312104.455032 kJ/mol
# GULP energy per Si atom -5573.293840 kJ/mol
# Density = 1.805237 g / cm^3
# Si number density = 18.093549 Si / 1000 Ang^3
#
#
#
# Elastic Constant Matrix: (Units=GPa)
#
#
# Indices 1 2 3 4 5 6 
#
# 1 58.5043 0.7167 -4.4482 0.0000 0.0000 0.0000
# 2 0.7167 176.3072 51.6087 0.0000 0.0000 0.0000
# 3 -4.4482 51.6087 68.2289 0.0000 0.0000 0.0000
# 4 0.0000 0.0000 0.0000 15.2733 0.0000 0.0000
# 5 0.0000 0.0000 0.0000 0.0000 8.2390 0.0000
# 6 0.0000 0.0000 0.0000 0.0000 0.0000 -13.1008
#
#
#
# Elastic Compliance Matrix: (Units=1/GPa)
#
#
# Indices 1 2 3 4 5 6 
#
# 1 0.017214 -0.000512 0.001509 0.000000 0.000000 0.000000
# 2 -0.000512 0.007300 -0.005555 0.000000 0.000000 0.000000
# 3 0.001509 -0.005555 0.018957 0.000000 0.000000 0.000000
# 4 0.000000 0.000000 0.000000 0.065474 0.000000 0.000000
# 5 0.000000 0.000000 0.000000 0.000000 0.121374 0.000000
# 6 0.000000 0.000000 0.000000 0.000000 0.000000 -0.076331
#
#
# Mechanical properties :
#
#
# Convention : Reuss Voigt Hill
#
# Bulk Modulus (GPa) = 29.10731 44.31051 36.70891
# Shear Modulus (GPa) = 28.64440 19.09319 23.86879
#
# Velocity S-wave (km/s) = 3.98317 3.25198 3.63600
# Velocity P-wave (km/s) = 6.10543 6.21638 6.16115
#
# Compressibility (1/GPa) = 0.03435563
#
# Stress axis : x y z
#
# Youngs Moduli (GPa) = 58.09292 136.98399 52.75107
#
# Poissons Ratio (x) = 0.07011 -0.07962
# Poissons Ratio (y) = 0.02973 0.29304
# Poissons Ratio (z) = -0.08769 0.76098
#
# Static dielectric constant tensor:
#      x y z
#    x 1.692920 0.000000 0.000000 
#    y 0.000000 1.675950 0.000000 
#    z 0.000000 0.000000 1.583660 
# 
# From -- ./inp_files/38321.got.cif
#   From: 2010.05.17/outbox.cif.g08.bks.cpg/sg53_20_cif.got.tgz:38321.got - 2010.06.03 12:45:16.
