data_PCOD9414513
_publ_section_title
;
Structure prediction by ZEFSAII (Michael W. Deem and Ramdas Pophale) SiO2 
 PCOD9414513
Probable space group: P M N A
;
_chemical_formula_sum "Si O2"
_cell_formula_units_Z 56
_cell_length_a 9.191366
_cell_length_b 21.410388
_cell_length_c 14.681139
_cell_angle_alpha 90.000000
_cell_angle_beta 90.000000
_cell_angle_gamma 90.000000
_cell_volume 2889.111801
_symmetry_space_group_name_H-M "P M N A"
_symmetry_group_IT_number 53
_symmetry_cell_setting 'orthorhombic'
loop_
_space_group_symop_operation_xyz
x,y,z
1/2-x,-y,1/2+z
x,-y,-z
1/2-x,y,1/2-z
-x,-y,-z
1/2+x,y,1/2-z
-x,y,z
1/2+x,-y,1/2+z
loop_
_atom_site_type_symbol
_atom_site_label
_atom_site_fract_x
_atom_site_fract_y
_atom_site_fract_z
Si Si1 0.161108 0.647368 0.518158
Si Si2 0.675925 0.128435 0.465423
Si Si3 0.676047 0.763090 0.848219
Si Si4 0.337878 0.552330 0.418334
Si Si5 0.329199 0.118394 0.844644
Si Si6 0.342841 0.546359 0.824835
Si Si7 0.329457 0.032530 0.155607
O O1 0.199139 0.705971 0.581093
O O2 0.278108 0.619515 0.449171
O O3 0.148255 0.589058 0.587278
O O4 0.000000 0.657951 0.477591
O O5 0.500000 0.129087 0.465630
O O6 0.744992 0.178357 0.395441
O O7 0.741752 0.140447 0.565972
O O8 0.740426 0.063411 0.426612
O O9 0.750000 0.751833 0.750000
O O10 0.500000 0.771424 0.838745
O O11 0.344461 0.500000 0.500000
O O12 0.500000 0.558603 0.383101
O O13 0.229009 0.518809 0.350017
O O14 0.250000 0.136641 0.750000
O O15 0.500000 0.137139 0.846722
O O16 0.326181 0.042571 0.848539
O O17 0.250000 0.581478 0.750000
O O18 0.500000 0.536538 0.785254
O O19 0.250000 0.051251 0.250000
O O20 0.500000 0.051859 0.154191
#
# Coordination Sequence:
#
# PCOD9414513 Si02
#       7
#     8   8   8   8   8   8   8
#     4   9  19  34  52  73 100 136 173 213 259 309
#     4  12  24  37  55  80 112 149 187 227 273 323
#     4  11  23  39  57  79 109 144 184 226 271 324
#     4   9  17  29  47  71  98 129 165 205 250 302
#     4  10  21  38  60  85 111 141 180 226 275 327
#     4  10  18  29  47  73 104 134 168 209 256 308
#     4  10  20  35  56  83 115 148 182 223 273 328
#
# _framework density 19.383119000000001
#
# number of rings (size 3 to 8) (size 9 to 14) (size 15 to 20)
#    0.000    1.857    0.000    4.714    0.000    6.857 
#    0.000    0.000    0.000    0.857    0.000    0.000 
#    0.000    0.000    0.000    0.000    0.000    0.000 
#
# Total GULP energy -312216.786135 kJ/mol
# GULP energy per Si atom -5575.299752 kJ/mol
# Density = 1.933900 g / cm^3
# Si number density = 19.383119 Si / 1000 Ang^3
#
#
#
# Elastic Constant Matrix: (Units=GPa)
#
#
# Indices 1 2 3 4 5 6 
#
# 1 140.1034 21.9294 19.5568 0.0000 0.0000 0.0000
# 2 21.9294 44.3717 -0.6503 0.0000 0.0000 0.0000
# 3 19.5568 -0.6503 46.1246 0.0000 0.0000 0.0000
# 4 0.0000 0.0000 0.0000 24.2180 0.0000 0.0000
# 5 0.0000 0.0000 0.0000 0.0000 29.4620 0.0000
# 6 0.0000 0.0000 0.0000 0.0000 0.0000 16.6589
#
#
#
# Elastic Compliance Matrix: (Units=1/GPa)
#
#
# Indices 1 2 3 4 5 6 
#
# 1 0.008285 -0.004147 -0.003571 0.000000 0.000000 0.000000
# 2 -0.004147 0.024617 0.002105 0.000000 0.000000 0.000000
# 3 -0.003571 0.002105 0.023224 0.000000 0.000000 0.000000
# 4 0.000000 0.000000 0.000000 0.041292 0.000000 0.000000
# 5 0.000000 0.000000 0.000000 0.000000 0.033942 0.000000
# 6 0.000000 0.000000 0.000000 0.000000 0.000000 0.060028
#
#
# Mechanical properties :
#
#
# Convention : Reuss Voigt Hill
#
# Bulk Modulus (GPa) = 22.27128 34.69681 28.48405
# Shear Modulus (GPa) = 22.97991 26.71871 24.84931
#
# Velocity S-wave (km/s) = 3.44694 3.71678 3.58440
# Velocity P-wave (km/s) = 5.23037 6.02981 5.64427
#
# Compressibility (1/GPa) = 0.04490087
#
# Stress axis : x y z
#
# Youngs Moduli (GPa) = 120.69681 40.62181 43.05821
#
# Poissons Ratio (x) = 0.16846 0.15378
# Poissons Ratio (y) = 0.50054 -0.09066
# Poissons Ratio (z) = 0.43106 -0.08553
#
# Static dielectric constant tensor:
#      x y z
#    x 1.689010 0.000000 0.000000 
#    y 0.000000 1.685650 0.000000 
#    z 0.000000 0.000000 1.729480 
# 
# From -- ./inp_files/20569.got.cif
#   From: 2010.05.17/outbox.cif.g08.bks.cpg/sg53_11_cif.got.tgz:20569.got - 2010.06.03 12:45:16.
