data_PCOD9414576
_publ_section_title
;
Structure prediction by ZEFSAII (Michael W. Deem and Ramdas Pophale) SiO2 
 PCOD9414576
Probable space group: P M N A
;
_chemical_formula_sum "Si O2"
_cell_formula_units_Z 56
_cell_length_a 8.983513
_cell_length_b 13.989492
_cell_length_c 28.961159
_cell_angle_alpha 90.000000
_cell_angle_beta 90.000000
_cell_angle_gamma 90.000000
_cell_volume 3639.687380
_symmetry_space_group_name_H-M "P M N A"
_symmetry_group_IT_number 53
_symmetry_cell_setting 'orthorhombic'
loop_
_space_group_symop_operation_xyz
x,y,z
1/2-x,-y,1/2+z
x,-y,-z
1/2-x,y,1/2-z
-x,-y,-z
1/2+x,y,1/2-z
-x,y,z
1/2+x,-y,1/2+z
loop_
_atom_site_type_symbol
_atom_site_label
_atom_site_fract_x
_atom_site_fract_y
_atom_site_fract_z
Si Si1 0.179005 0.895764 0.019646
Si Si2 0.822872 0.392769 0.943022
Si Si3 0.821856 0.573940 0.604684
Si Si4 0.676207 0.289990 0.461548
Si Si5 0.678858 0.793486 0.102707
Si Si6 0.678916 0.486767 0.798500
Si Si7 0.678413 0.736849 0.201815
O O1 0.257086 0.872940 0.068239
O O2 0.000000 0.887838 0.025976
O O3 0.221466 0.812011 0.983358
O O4 0.213638 0.000000 0.000000
O O5 0.746937 0.488975 0.926026
O O6 0.749059 0.305367 0.915473
O O7 0.000000 0.396610 0.934763
O O8 0.801221 0.365620 0.996625
O O9 0.762735 0.671999 0.582802
O O10 0.776935 0.549905 0.657375
O O11 0.000000 0.570182 0.602170
O O12 0.500000 0.286650 0.451723
O O13 0.500000 0.789207 0.099148
O O14 0.719372 0.798198 0.156785
O O15 0.750000 0.516542 0.750000
O O16 0.500000 0.489806 0.794766
O O17 0.720853 0.374951 0.806505
O O18 0.750000 0.767267 0.250000
O O19 0.500000 0.738871 0.206229
#
# Coordination Sequence:
#
# PCOD9414576 Si02
#       7
#     8   8   8   8   8   8   8
#     4   9  19  36  54  71  94 122 154 193 235 284
#     4  10  19  30  44  63  92 128 162 190 220 266
#     4  11  20  30  44  65  94 124 155 192 232 269
#     4   9  19  32  45  66  91 118 155 189 222 273
#     4  10  18  30  47  70  98 124 155 195 236 278
#     4   9  18  31  43  61  89 123 161 194 226 267
#     4   9  17  29  43  63  93 125 158 193 226 269
#
# _framework density 15.385935999999999
#
# number of rings (size 3 to 8) (size 9 to 14) (size 15 to 20)
#    0.000    2.429    1.429    2.571    0.000    7.143 
#    0.000    0.000    0.000    0.000    0.000    1.000 
#    0.000    0.000    0.000    0.000    0.000    0.000 
#
# Total GULP energy -312135.241578 kJ/mol
# GULP energy per Si atom -5573.843600 kJ/mol
# Density = 1.535092 g / cm^3
# Si number density = 15.385936 Si / 1000 Ang^3
#
#
#
# Elastic Constant Matrix: (Units=GPa)
#
#
# Indices 1 2 3 4 5 6 
#
# 1 34.5407 29.0307 53.8645 0.0000 0.0000 0.0000
# 2 29.0307 64.9900 68.2195 0.0000 0.0000 0.0000
# 3 53.8645 68.2195 132.6100 0.0000 0.0000 0.0000
# 4 0.0000 0.0000 0.0000 15.5965 0.0000 0.0000
# 5 0.0000 0.0000 0.0000 0.0000 26.8402 0.0000
# 6 0.0000 0.0000 0.0000 0.0000 0.0000 19.9838
#
#
#
# Elastic Compliance Matrix: (Units=1/GPa)
#
#
# Indices 1 2 3 4 5 6 
#
# 1 0.079345 -0.003505 -0.030426 0.000000 0.000000 0.000000
# 2 -0.003505 0.033605 -0.015864 0.000000 0.000000 0.000000
# 3 -0.030426 -0.015864 0.028060 0.000000 0.000000 0.000000
# 4 0.000000 0.000000 0.000000 0.064117 0.000000 0.000000
# 5 0.000000 0.000000 0.000000 0.000000 0.037258 0.000000
# 6 0.000000 0.000000 0.000000 0.000000 0.000000 0.050040
#
#
# Mechanical properties :
#
#
# Convention : Reuss Voigt Hill
#
# Bulk Modulus (GPa) = 24.14262 59.37445 41.75854
# Shear Modulus (GPa) = 12.32069 17.88582 15.10326
#
# Velocity S-wave (km/s) = 2.83287 3.41321 3.13649
# Velocity P-wave (km/s) = 5.14059 7.36256 6.34952
#
# Compressibility (1/GPa) = 0.04142053
#
# Stress axis : x y z
#
# Youngs Moduli (GPa) = 12.60322 29.75759 35.63761
#
# Poissons Ratio (x) = 0.10431 1.08429
# Poissons Ratio (y) = 0.04418 0.56534
# Poissons Ratio (z) = 0.38346 0.47207
#
# Static dielectric constant tensor:
#      x y z
#    x 1.513290 0.000000 0.000000 
#    y 0.000000 1.500910 0.000000 
#    z 0.000000 0.000000 1.525030 
# 
# From -- ./inp_files/38364.got.cif
#   From: 2010.05.17/outbox.cif.g08.bks.cpg/sg53_20_cif.got.tgz:38364.got - 2010.06.03 12:45:16.
