data_PCOD9414079
_publ_section_title
;
Structure prediction by ZEFSAII (Michael W. Deem and Ramdas Pophale) SiO2 
 PCOD9414079
Probable space group: P M N A
;
_chemical_formula_sum "Si O2"
_cell_formula_units_Z 64
_cell_length_a 8.909103
_cell_length_b 17.656595
_cell_length_c 27.358001
_cell_angle_alpha 90.000000
_cell_angle_beta 90.000000
_cell_angle_gamma 90.000000
_cell_volume 4303.534575
_symmetry_space_group_name_H-M "P M N A"
_symmetry_group_IT_number 53
_symmetry_cell_setting 'orthorhombic'
loop_
_space_group_symop_operation_xyz
x,y,z
1/2-x,-y,1/2+z
x,-y,-z
1/2-x,y,1/2-z
-x,-y,-z
1/2+x,y,1/2-z
-x,y,z
1/2+x,-y,1/2+z
loop_
_atom_site_type_symbol
_atom_site_label
_atom_site_fract_x
_atom_site_fract_y
_atom_site_fract_z
Si Si1 0.320542 0.171098 0.959365
Si Si2 0.672589 0.984599 0.441528
Si Si3 0.678850 0.859104 0.927499
Si Si4 0.824381 0.722585 0.875007
Si Si5 0.181992 0.671377 0.063521
Si Si6 0.681722 0.591239 0.696650
Si Si7 0.823776 0.600663 0.962142
Si Si8 0.817087 0.522677 0.111832
O O1 0.500000 0.172826 0.957253
O O2 0.259441 0.094087 0.935221
O O3 0.251798 0.245716 0.935046
O O4 0.276306 0.167783 0.017285
O O5 0.500000 0.977610 0.426221
O O6 0.675130 0.000000 0.500000
O O7 0.748943 0.058719 0.418877
O O8 0.500000 0.865712 0.927222
O O9 0.733433 0.797026 0.888847
O O10 0.774883 0.670571 0.829523
O O11 0.814282 0.666180 0.921499
O O12 0.000000 0.741879 0.868753
O O13 0.222899 0.610328 0.105170
O O14 0.000000 0.678431 0.062031
O O15 0.236456 0.632602 0.012758
O O16 0.750000 0.583982 0.750000
O O17 0.500000 0.590385 0.698770
O O18 0.729067 0.522996 0.660186
O O19 0.763117 0.525903 0.935329
O O20 0.000000 0.585412 0.971671
O O21 0.000000 0.518857 0.110733
#
# Coordination Sequence:
#
# PCOD9414079 Si02
#       8
#     8   8   8   8   8   8   8   8
#     4  10  19  28  37  55  87 119 145 176 215 252
#     4   9  17  28  42  57  76 109 152 185 207 238
#     4  10  18  27  40  59  85 114 143 176 215 254
#     4   9  16  27  43  63  84 109 145 182 212 252
#     4  10  16  24  42  61  80 110 148 181 211 250
#     4   9  18  32  48  65  86 111 141 181 225 263
#     4   8  13  22  38  59  81 105 138 178 213 243
#     4   8  15  26  41  63  83 104 141 184 217 251
#
# _framework density 14.871496
#
# number of rings (size 3 to 8) (size 9 to 14) (size 15 to 20)
#    0.000    2.875    1.250    3.000    0.000    4.500 
#    0.000    0.625    0.000    2.250    0.000    0.000 
#    0.000    1.000    0.000    6.250    0.000    4.250 
#
# Total GULP energy -356320.252055 kJ/mol
# GULP energy per Si atom -5567.503938 kJ/mol
# Density = 1.483765 g / cm^3
# Si number density = 14.871496 Si / 1000 Ang^3
#
#
#
# Elastic Constant Matrix: (Units=GPa)
#
#
# Indices 1 2 3 4 5 6 
#
# 1 30.6098 43.7569 17.3575 0.0000 0.0000 0.0000
# 2 43.7569 146.9634 42.6758 0.0000 0.0000 0.0000
# 3 17.3575 42.6758 48.8800 0.0000 0.0000 0.0000
# 4 0.0000 0.0000 0.0000 12.0504 0.0000 0.0000
# 5 0.0000 0.0000 0.0000 0.0000 15.9859 0.0000
# 6 0.0000 0.0000 0.0000 0.0000 0.0000 5.0378
#
#
#
# Elastic Compliance Matrix: (Units=1/GPa)
#
#
# Indices 1 2 3 4 5 6 
#
# 1 0.058863 -0.015347 -0.007503 0.000000 0.000000 0.000000
# 2 -0.015347 0.013117 -0.006002 0.000000 0.000000 0.000000
# 3 -0.007503 -0.006002 0.028363 0.000000 0.000000 0.000000
# 4 0.000000 0.000000 0.000000 0.082985 0.000000 0.000000
# 5 0.000000 0.000000 0.000000 0.000000 0.062555 0.000000
# 6 0.000000 0.000000 0.000000 0.000000 0.000000 0.198501
#
#
# Mechanical properties :
#
#
# Convention : Reuss Voigt Hill
#
# Bulk Modulus (GPa) = 23.45346 48.22593 35.83970
# Shear Modulus (GPa) = 9.68429 14.79235 12.23832
#
# Velocity S-wave (km/s) = 2.55463 3.15727 2.87180
# Velocity P-wave (km/s) = 4.95040 6.76683 5.92860
#
# Compressibility (1/GPa) = 0.04263763
#
# Stress axis : x y z
#
# Youngs Moduli (GPa) = 16.98868 76.23853 35.25724
#
# Poissons Ratio (x) = 1.17003 0.26455
# Poissons Ratio (y) = 0.26072 0.21162
# Poissons Ratio (z) = 0.12747 0.45759
#
# Static dielectric constant tensor:
#      x y z
#    x 1.501110 0.000000 0.000000 
#    y 0.000000 1.507000 0.000000 
#    z 0.000000 0.000000 1.475920 
# 
# From -- ./inp_files/36501.got.cif
#   From: 2010.05.17/outbox.cif.g08.bks.cpg/sg53_19_cif.got.tgz:36501.got - 2010.06.03 12:45:16.
