data_PCOD9414135
_publ_section_title
;
Structure prediction by ZEFSAII (Michael W. Deem and Ramdas Pophale) SiO2 
 PCOD9414135
Probable space group: P M N A
;
_chemical_formula_sum "Si O2"
_cell_formula_units_Z 56
_cell_length_a 9.179951
_cell_length_b 18.408574
_cell_length_c 20.319573
_cell_angle_alpha 90.000000
_cell_angle_beta 90.000000
_cell_angle_gamma 90.000000
_cell_volume 3433.800726
_symmetry_space_group_name_H-M "P M N A"
_symmetry_group_IT_number 53
_symmetry_cell_setting 'orthorhombic'
loop_
_space_group_symop_operation_xyz
x,y,z
1/2-x,-y,1/2+z
x,-y,-z
1/2-x,y,1/2-z
-x,-y,-z
1/2+x,y,1/2-z
-x,y,z
1/2+x,-y,1/2+z
loop_
_atom_site_type_symbol
_atom_site_label
_atom_site_fract_x
_atom_site_fract_y
_atom_site_fract_z
Si Si1 0.673223 0.928228 0.181294
Si Si2 0.329883 0.204558 0.614848
Si Si3 0.825786 0.043002 0.433019
Si Si4 0.826978 0.660291 0.553644
Si Si5 0.825881 0.638198 0.086327
Si Si6 0.167944 0.480322 0.078398
Si Si7 0.327897 0.193075 0.456264
O O1 0.750000 0.943741 0.250000
O O2 0.500000 0.925224 0.189277
O O3 0.731063 0.851779 0.153229
O O4 0.707551 0.990224 0.127704
O O5 0.500000 0.189603 0.628945
O O6 0.300692 0.289753 0.629045
O O7 0.308346 0.194748 0.536020
O O8 0.741209 0.118591 0.430991
O O9 0.000000 0.056710 0.434523
O O10 0.787946 0.000000 0.500000
O O11 0.771025 0.647982 0.478754
O O12 0.768776 0.588743 0.591041
O O13 0.751830 0.736128 0.572878
O O14 0.000000 0.665433 0.556332
O O15 0.797482 0.557300 0.112971
O O16 0.000000 0.640065 0.067990
O O17 0.000000 0.460787 0.091392
O O18 0.176928 0.500000 0.000000
O O19 0.500000 0.196902 0.443758
#
# Coordination Sequence:
#
# PCOD9414135 Si02
#       7
#     8   8   8   8   8   8   8
#     4  11  23  37  53  72  99 131 161 201 249 298
#     4   9  17  30  47  68  93 122 161 200 239 287
#     4  10  20  35  53  74  99 124 159 206 255 296
#     4  10  17  23  35  57  88 121 155 195 238 281
#     4   8  15  26  39  57  83 119 157 194 233 280
#     4   8  13  23  36  51  80 119 156 190 231 280
#     4  10  19  30  47  69  93 124 162 201 242 294
#
# _framework density 16.308458999999999
#
# number of rings (size 3 to 8) (size 9 to 14) (size 15 to 20)
#    0.000    2.571    1.429    3.857    0.000    6.286 
#    0.000    0.000    0.000    0.000    0.000    0.000 
#    0.000    1.143    0.000    8.286    0.000    6.429 
#
# Total GULP energy -311936.132131 kJ/mol
# GULP energy per Si atom -5570.288074 kJ/mol
# Density = 1.627134 g / cm^3
# Si number density = 16.308459 Si / 1000 Ang^3
#
#
#
# Elastic Constant Matrix: (Units=GPa)
#
#
# Indices 1 2 3 4 5 6 
#
# 1 86.9162 91.8594 37.2453 0.0000 0.0000 0.0000
# 2 91.8594 176.7018 45.4798 0.0000 0.0000 0.0000
# 3 37.2453 45.4798 45.5513 0.0000 0.0000 0.0000
# 4 0.0000 0.0000 0.0000 6.3038 0.0000 0.0000
# 5 0.0000 0.0000 0.0000 0.0000 7.5035 0.0000
# 6 0.0000 0.0000 0.0000 0.0000 0.0000 27.4929
#
#
#
# Elastic Compliance Matrix: (Units=1/GPa)
#
#
# Indices 1 2 3 4 5 6 
#
# 1 0.029677 -0.012358 -0.011927 0.000000 0.000000 0.000000
# 2 -0.012358 0.012763 -0.002638 0.000000 0.000000 0.000000
# 3 -0.011927 -0.002638 0.034339 0.000000 0.000000 0.000000
# 4 0.000000 0.000000 0.000000 0.158633 0.000000 0.000000
# 5 0.000000 0.000000 0.000000 0.000000 0.133272 0.000000
# 6 0.000000 0.000000 0.000000 0.000000 0.000000 0.036373
#
#
# Mechanical properties :
#
#
# Convention : Reuss Voigt Hill
#
# Bulk Modulus (GPa) = 43.60535 73.14869 58.37702
# Shear Modulus (GPa) = 10.71701 17.23235 13.97468
#
# Velocity S-wave (km/s) = 2.56626 3.25414 2.93046
# Velocity P-wave (km/s) = 5.96463 7.68569 6.87920
#
# Compressibility (1/GPa) = 0.02293297
#
# Stress axis : x y z
#
# Youngs Moduli (GPa) = 33.69577 78.35379 29.12110
#
# Poissons Ratio (x) = 0.96830 0.34733
# Poissons Ratio (y) = 0.41642 0.07682
# Poissons Ratio (z) = 0.40190 0.20669
#
# Static dielectric constant tensor:
#      x y z
#    x 1.538240 0.000000 0.000000 
#    y 0.000000 1.591740 0.000000 
#    z 0.000000 0.000000 1.526350 
# 
# From -- ./inp_files/30977.got.cif
#   From: 2010.05.17/outbox.cif.g08.bks.cpg/sg53_16_cif.got.tgz:30977.got - 2010.06.03 12:45:16.
