data_PCOD9414320
_publ_section_title
;
Structure prediction by ZEFSAII (Michael W. Deem and Ramdas Pophale) SiO2 
 PCOD9414320
Probable space group: P M N A
;
_chemical_formula_sum "Si O2"
_cell_formula_units_Z 64
_cell_length_a 24.944519
_cell_length_b 7.153978
_cell_length_c 16.149930
_cell_angle_alpha 90.000000
_cell_angle_beta 90.000000
_cell_angle_gamma 90.000000
_cell_volume 2881.996032
_symmetry_space_group_name_H-M "P M N A"
_symmetry_group_IT_number 53
_symmetry_cell_setting 'orthorhombic'
loop_
_space_group_symop_operation_xyz
x,y,z
1/2-x,-y,1/2+z
x,-y,-z
1/2-x,y,1/2-z
-x,-y,-z
1/2+x,y,1/2-z
-x,y,z
1/2+x,-y,1/2+z
loop_
_atom_site_type_symbol
_atom_site_label
_atom_site_fract_x
_atom_site_fract_y
_atom_site_fract_z
Si Si1 0.258081 0.104092 0.656363
Si Si2 0.562472 0.231607 0.637848
Si Si3 0.206380 0.669412 0.857126
Si Si4 0.646283 0.987761 0.906248
Si Si5 0.342783 0.783335 0.473823
Si Si6 0.888740 0.529642 0.740340
Si Si7 0.562654 0.065416 0.232278
Si Si8 0.180097 0.444505 0.404013
O O1 0.250000 0.169191 0.750000
O O2 0.301687 0.214642 0.603117
O O3 0.278299 0.886750 0.661906
O O4 0.201141 0.103025 0.608616
O O5 0.500000 0.241427 0.618735
O O6 0.599518 0.272390 0.559700
O O7 0.578965 0.375956 0.709329
O O8 0.575145 0.029017 0.678819
O O9 0.163648 0.594462 0.792035
O O10 0.260928 0.551939 0.864278
O O11 0.179288 0.674115 0.947555
O O12 0.601703 0.020774 0.836955
O O13 0.664651 0.773423 0.897614
O O14 0.626182 0.000000 0.000000
O O15 0.345297 0.000000 0.500000
O O16 0.924976 0.714663 0.732359
O O17 0.865239 0.460396 0.652564
O O18 0.500000 0.029267 0.215555
O O19 0.180758 0.500000 0.500000
#
# Coordination Sequence:
#
# PCOD9414320 Si02
#       8
#     8   8   8   8   8   8   8   8
#     4  10  17  33  59  90 125 168 206 251 318 389
#     4  11  25  43  65  95 124 163 220 272 315 379
#     4  10  20  37  58  87 131 166 205 257 316 389
#     4  10  20  35  59  88 123 161 207 257 320 384
#     4  10  21  38  61  93 129 166 209 263 323 384
#     4  11  23  42  66  90 124 172 212 262 323 384
#     4  10  22  42  65  87 120 166 213 266 315 370
#     4  10  22  37  59  92 131 166 204 261 321 384
#
# _framework density 22.20683
#
# number of rings (size 3 to 8) (size 9 to 14) (size 15 to 20)
#    0.000    1.750    0.000    7.125    3.500    0.500 
#    2.250    1.875    0.000    1.875    0.000    0.000 
#    0.000    0.000    0.000    0.000    0.000    0.000 
#
# Total GULP energy -358400.550895 kJ/mol
# GULP energy per Si atom -5600.008608 kJ/mol
# Density = 2.215629 g / cm^3
# Si number density = 22.206830 Si / 1000 Ang^3
#
#
#
# Elastic Constant Matrix: (Units=GPa)
#
#
# Indices 1 2 3 4 5 6 
#
# 1 115.4543 10.3182 44.7387 0.0000 0.0000 0.0000
# 2 10.3182 50.8652 -5.5385 0.0000 0.0000 0.0000
# 3 44.7387 -5.5385 114.0747 0.0000 0.0000 0.0000
# 4 0.0000 0.0000 0.0000 23.5586 0.0000 0.0000
# 5 0.0000 0.0000 0.0000 0.0000 24.8243 0.0000
# 6 0.0000 0.0000 0.0000 0.0000 0.0000 26.2756
#
#
#
# Elastic Compliance Matrix: (Units=1/GPa)
#
#
# Indices 1 2 3 4 5 6 
#
# 1 0.010546 -0.002603 -0.004262 0.000000 0.000000 0.000000
# 2 -0.002603 0.020407 0.002012 0.000000 0.000000 0.000000
# 3 -0.004262 0.002012 0.010535 0.000000 0.000000 0.000000
# 4 0.000000 0.000000 0.000000 0.042447 0.000000 0.000000
# 5 0.000000 0.000000 0.000000 0.000000 0.040283 0.000000
# 6 0.000000 0.000000 0.000000 0.000000 0.000000 0.038058
#
#
# Mechanical properties :
#
#
# Convention : Reuss Voigt Hill
#
# Bulk Modulus (GPa) = 31.46590 42.15901 36.81245
# Shear Modulus (GPa) = 27.38556 30.32342 28.85449
#
# Velocity S-wave (km/s) = 3.51551 3.69928 3.60856
# Velocity P-wave (km/s) = 5.53883 6.10509 5.82884
#
# Compressibility (1/GPa) = 0.03178044
#
# Stress axis : x y z
#
# Youngs Moduli (GPa) = 94.82495 49.00294 94.91732
#
# Poissons Ratio (x) = 0.12757 0.40457
# Poissons Ratio (y) = 0.24686 -0.19095
# Poissons Ratio (z) = 0.40417 -0.09858
#
# Static dielectric constant tensor:
#      x y z
#    x 1.767620 0.000000 0.000000 
#    y 0.000000 1.884400 0.000000 
#    z 0.000000 0.000000 1.806740 
# 
# From -- ./inp_files/24702.got.cif
#   From: 2010.05.17/outbox.cif.g08.bks.cpg/sg53_13_cif.got.tgz:24702.got - 2010.06.03 12:45:16.
