data_PCOD9414627
_publ_section_title
;
Structure prediction by ZEFSAII (Michael W. Deem and Ramdas Pophale) SiO2 
 PCOD9414627
Probable space group: P M N A
;
_chemical_formula_sum "Si O2"
_cell_formula_units_Z 64
_cell_length_a 7.672682
_cell_length_b 25.286277
_cell_length_c 15.196611
_cell_angle_alpha 90.000000
_cell_angle_beta 90.000000
_cell_angle_gamma 90.000000
_cell_volume 2948.348636
_symmetry_space_group_name_H-M "P M N A"
_symmetry_group_IT_number 53
_symmetry_cell_setting 'orthorhombic'
loop_
_space_group_symop_operation_xyz
x,y,z
1/2-x,-y,1/2+z
x,-y,-z
1/2-x,y,1/2-z
-x,-y,-z
1/2+x,y,1/2-z
-x,y,z
1/2+x,-y,1/2+z
loop_
_atom_site_type_symbol
_atom_site_label
_atom_site_fract_x
_atom_site_fract_y
_atom_site_fract_z
Si Si1 0.791842 0.907196 0.843288
Si Si2 0.711956 0.982752 0.400358
Si Si3 0.209164 0.134354 0.849727
Si Si4 0.205634 0.722463 0.852974
Si Si5 0.709224 0.401559 0.847583
Si Si6 0.786249 0.182377 0.025891
Si Si7 0.790459 0.619053 0.537540
Si Si8 0.709211 0.477311 0.151704
O O1 0.750000 0.881521 0.750000
O O2 0.731661 0.870758 0.922732
O O3 0.000000 0.910564 0.851847
O O4 0.721709 0.966851 0.845883
O O5 0.500000 0.980363 0.394465
O O6 0.776026 0.925249 0.370957
O O7 0.752167 0.000000 0.500000
O O8 0.250000 0.148857 0.750000
O O9 0.000000 0.131934 0.857508
O O10 0.270395 0.174825 0.925179
O O11 0.250000 0.726177 0.750000
O O12 0.279157 0.768335 0.916816
O O13 0.249590 0.666379 0.896448
O O14 0.000000 0.728529 0.856624
O O15 0.750000 0.380526 0.750000
O O16 0.500000 0.403229 0.851185
O O17 0.775194 0.462455 0.853359
O O18 0.771627 0.373249 0.936908
O O19 0.000000 0.183974 0.026213
O O20 0.725275 0.563848 0.579222
O O21 0.000000 0.615218 0.534133
O O22 0.750000 0.457278 0.250000
O O23 0.500000 0.480125 0.142252
#
# Coordination Sequence:
#
# PCOD9414627 Si02
#       8
#     8   8   8   8   8   8   8   8
#     4  10  18  30  50  75 100 130 166 203 248 301
#     4   9  15  27  50  75 100 135 171 201 241 306
#     4  10  19  34  55  78 104 135 173 213 256 306
#     4  11  23  39  58  80 105 135 173 218 266 314
#     4   9  18  33  53  78 109 144 180 218 261 310
#     4   9  19  36  56  74  98 135 175 210 251 309
#     4  10  20  35  55  79 108 143 180 219 265 315
#     4   9  17  30  50  77 109 143 177 214 260 315
#
# _framework density 21.707066000000001
#
# number of rings (size 3 to 8) (size 9 to 14) (size 15 to 20)
#    0.000    2.375    1.250    1.875    0.000    3.500 
#    0.000    3.125    0.000    7.500    0.000    0.000 
#    0.000    0.000    0.000    0.000    0.000    0.000 
#
# Total GULP energy -357105.375114 kJ/mol
# GULP energy per Si atom -5579.771486 kJ/mol
# Density = 2.165766 g / cm^3
# Si number density = 21.707066 Si / 1000 Ang^3
#
#
#
# Elastic Constant Matrix: (Units=GPa)
#
#
# Indices 1 2 3 4 5 6 
#
# 1 38.0365 2.6203 1.8210 0.0000 0.0000 0.0000
# 2 2.6203 52.0852 45.2292 0.0000 0.0000 0.0000
# 3 1.8210 45.2292 189.2219 0.0000 0.0000 0.0000
# 4 0.0000 0.0000 0.0000 32.5015 0.0000 0.0000
# 5 0.0000 0.0000 0.0000 0.0000 22.3998 0.0000
# 6 0.0000 0.0000 0.0000 0.0000 0.0000 -2.3251
#
#
#
# Elastic Compliance Matrix: (Units=1/GPa)
#
#
# Indices 1 2 3 4 5 6 
#
# 1 0.026383 -0.001397 0.000080 0.000000 0.000000 0.000000
# 2 -0.001397 0.024302 -0.005795 0.000000 0.000000 0.000000
# 3 0.000080 -0.005795 0.006669 0.000000 0.000000 0.000000
# 4 0.000000 0.000000 0.000000 0.030768 0.000000 0.000000
# 5 0.000000 0.000000 0.000000 0.000000 0.044643 0.000000
# 6 0.000000 0.000000 0.000000 0.000000 0.000000 -0.430089
#
#
# Mechanical properties :
#
#
# Convention : Reuss Voigt Hill
#
# Bulk Modulus (GPa) = 23.18573 42.07607 32.63090
# Shear Modulus (GPa) = -18.60655 25.82677 3.61011
#
# Velocity S-wave (km/s) = -2.93092 3.45307 1.29101
# Velocity P-wave (km/s) = 0.86563 5.94339 4.15780
#
# Compressibility (1/GPa) = 0.04312998
#
# Stress axis : x y z
#
# Youngs Moduli (GPa) = 37.90329 41.14860 149.94074
#
# Poissons Ratio (x) = 0.05747 -0.01199
# Poissons Ratio (y) = 0.05294 0.86897
# Poissons Ratio (z) = -0.00303 0.23847
#
# Static dielectric constant tensor:
#      x y z
#    x 1.815730 0.000000 0.000000 
#    y 0.000000 1.800830 0.000000 
#    z 0.000000 0.000000 1.799130 
# 
# From -- ./inp_files/20979.got.cif
#   From: 2010.05.17/outbox.cif.g08.bks.cpg/sg53_11_cif.got.tgz:20979.got - 2010.06.03 12:45:16.
