data_PCOD9414241
_publ_section_title
;
Structure prediction by ZEFSAII (Michael W. Deem and Ramdas Pophale) SiO2 
 PCOD9414241
Probable space group: P M N A
;
_chemical_formula_sum "Si O2"
_cell_formula_units_Z 56
_cell_length_a 14.240121
_cell_length_b 9.639914
_cell_length_c 26.798308
_cell_angle_alpha 90.000000
_cell_angle_beta 90.000000
_cell_angle_gamma 90.000000
_cell_volume 3678.698653
_symmetry_space_group_name_H-M "P M N A"
_symmetry_group_IT_number 53
_symmetry_cell_setting 'orthorhombic'
loop_
_space_group_symop_operation_xyz
x,y,z
1/2-x,-y,1/2+z
x,-y,-z
1/2-x,y,1/2-z
-x,-y,-z
1/2+x,y,1/2-z
-x,y,z
1/2+x,-y,1/2+z
loop_
_atom_site_type_symbol
_atom_site_label
_atom_site_fract_x
_atom_site_fract_y
_atom_site_fract_z
Si Si1 0.214198 0.778838 0.368871
Si Si2 0.112857 0.963844 0.286860
Si Si3 0.108126 0.519994 0.227439
Si Si4 0.111080 0.203848 0.360877
Si Si5 0.888552 0.032218 0.557074
Si Si6 0.712294 0.472339 0.168050
Si Si7 0.892128 0.165484 0.813258
O O1 0.209147 0.613791 0.363577
O O2 0.320843 0.827111 0.358882
O O3 0.158121 0.847406 0.322259
O O4 0.169531 0.843277 0.418222
O O5 0.133847 0.111573 0.311819
O O6 0.000000 0.945359 0.289164
O O7 0.139763 0.942460 0.229405
O O8 0.147249 0.495580 0.282905
O O9 0.182394 0.452076 0.189382
O O10 0.112140 0.684096 0.214072
O O11 0.000000 0.474781 0.222999
O O12 0.127014 0.101564 0.407569
O O13 0.172718 0.340773 0.360820
O O14 0.000000 0.237868 0.359497
O O15 0.000000 0.064399 0.560043
O O16 0.864966 0.000000 0.500000
O O17 0.000000 0.139278 0.827100
#
# Coordination Sequence:
#
# PCOD9414241 Si02
#       7
#     8   8   8   8   8   8   8
#     4  10  17  28  48  69  87 120 160 190 225 271
#     4   9  16  27  43  64  92 126 155 182 219 264
#     4   9  17  28  42  63  97 132 156 182 214 258
#     4   9  18  30  45  67  95 121 149 188 231 271
#     4   9  19  36  53  68  88 116 151 193 243 287
#     4  10  18  28  44  68  94 124 158 186 222 266
#     4   9  16  27  44  66  93 123 160 191 210 255
#
# _framework density 15.222773999999999
#
# number of rings (size 3 to 8) (size 9 to 14) (size 15 to 20)
#    0.000    2.714    1.429    2.143    0.000    1.714 
#   10.286    0.714    0.000    3.000    0.000    0.000 
#    0.000    4.571    0.000    0.000    0.000    0.000 
#
# Total GULP energy -312082.121645 kJ/mol
# GULP energy per Si atom -5572.895029 kJ/mol
# Density = 1.518813 g / cm^3
# Si number density = 15.222774 Si / 1000 Ang^3
#
#
#
# Elastic Constant Matrix: (Units=GPa)
#
#
# Indices 1 2 3 4 5 6 
#
# 1 78.4779 40.8136 32.0380 0.0000 0.0000 0.0000
# 2 40.8136 64.6826 31.8939 0.0000 0.0000 0.0000
# 3 32.0380 31.8939 59.5941 0.0000 0.0000 0.0000
# 4 0.0000 0.0000 0.0000 8.8611 0.0000 0.0000
# 5 0.0000 0.0000 0.0000 0.0000 20.0855 0.0000
# 6 0.0000 0.0000 0.0000 0.0000 0.0000 19.2613
#
#
#
# Elastic Compliance Matrix: (Units=1/GPa)
#
#
# Indices 1 2 3 4 5 6 
#
# 1 0.020206 -0.010044 -0.005488 0.000000 0.000000 0.000000
# 2 -0.010044 0.025995 -0.008512 0.000000 0.000000 0.000000
# 3 -0.005488 -0.008512 0.024286 0.000000 0.000000 0.000000
# 4 0.000000 0.000000 0.000000 0.112853 0.000000 0.000000
# 5 0.000000 0.000000 0.000000 0.000000 0.049787 0.000000
# 6 0.000000 0.000000 0.000000 0.000000 0.000000 0.051917
#
#
# Mechanical properties :
#
#
# Convention : Reuss Voigt Hill
#
# Bulk Modulus (GPa) = 44.64423 45.80508 45.22466
# Shear Modulus (GPa) = 14.68000 16.17553 15.42776
#
# Velocity S-wave (km/s) = 3.10876 3.26327 3.18695
# Velocity P-wave (km/s) = 6.50206 6.65986 6.58143
#
# Compressibility (1/GPa) = 0.02239931
#
# Stress axis : x y z
#
# Youngs Moduli (GPa) = 49.48979 38.46894 41.17589
#
# Poissons Ratio (x) = 0.38638 0.22595
# Poissons Ratio (y) = 0.49707 0.35051
# Poissons Ratio (z) = 0.27158 0.32747
#
# Static dielectric constant tensor:
#      x y z
#    x 1.529800 0.000000 0.000000 
#    y 0.000000 1.507920 0.000000 
#    z 0.000000 0.000000 1.484760 
# 
# From -- ./inp_files/38924.got.cif
#   From: 2010.05.17/outbox.cif.g08.bks.cpg/sg53_20_cif.got.tgz:38924.got - 2010.06.03 12:45:16.
