data_PCOD9414717
_publ_section_title
;
Structure prediction by ZEFSAII (Michael W. Deem and Ramdas Pophale) SiO2 
 PCOD9414717
Probable space group: P M N A
;
_chemical_formula_sum "Si O2"
_cell_formula_units_Z 64
_cell_length_a 8.684042
_cell_length_b 17.192510
_cell_length_c 24.391796
_cell_angle_alpha 90.000000
_cell_angle_beta 90.000000
_cell_angle_gamma 90.000000
_cell_volume 3641.706825
_symmetry_space_group_name_H-M "P M N A"
_symmetry_group_IT_number 53
_symmetry_cell_setting 'orthorhombic'
loop_
_space_group_symop_operation_xyz
x,y,z
1/2-x,-y,1/2+z
x,-y,-z
1/2-x,y,1/2-z
-x,-y,-z
1/2+x,y,1/2-z
-x,y,z
1/2+x,-y,1/2+z
loop_
_atom_site_type_symbol
_atom_site_label
_atom_site_fract_x
_atom_site_fract_y
_atom_site_fract_z
Si Si1 0.681945 0.531915 0.416566
Si Si2 0.680700 0.627382 0.307023
Si Si3 0.315822 0.226799 0.868566
Si Si4 0.685313 0.751325 0.688518
Si Si5 0.314537 0.645430 0.588088
Si Si6 0.316295 0.076360 0.688152
Si Si7 0.815598 0.914506 0.688030
Si Si8 0.683384 0.679918 0.024059
O O1 0.500000 0.533163 0.430946
O O2 0.697541 0.564194 0.354898
O O3 0.739254 0.443743 0.418319
O O4 0.765158 0.594672 0.454646
O O5 0.750000 0.599871 0.250000
O O6 0.500000 0.645354 0.301248
O O7 0.768551 0.704596 0.326826
O O8 0.500000 0.216652 0.867753
O O9 0.234625 0.148524 0.848965
O O10 0.268295 0.259125 0.928555
O O11 0.750000 0.739072 0.750000
O O12 0.500000 0.755840 0.691928
O O13 0.730696 0.684465 0.645554
O O14 0.750221 0.833401 0.665754
O O15 0.500000 0.643958 0.587084
O O16 0.255537 0.692188 0.535416
O O17 0.250000 0.087801 0.750000
O O18 0.500000 0.070626 0.692015
O O19 0.247350 0.995612 0.664788
O O20 0.750000 0.915176 0.750000
O O21 0.000000 0.913902 0.688405
O O22 0.500000 0.682371 0.020492
#
# Coordination Sequence:
#
# PCOD9414717 Si02
#       8
#     8   8   8   8   8   8   8   8
#     4   9  19  35  52  71  98 134 172 210 254 302
#     4  10  19  31  47  68  98 135 171 206 250 301
#     4  10  20  34  49  70 101 134 169 208 250 296
#     4  10  20  35  54  78 106 135 167 205 251 301
#     4  10  21  36  55  76 100 132 169 208 252 304
#     4  11  20  31  50  77 106 136 170 206 246 294
#     4  10  18  31  51  75 104 136 167 203 248 295
#     4  10  21  35  53  76 101 130 168 214 257 296
#
# _framework density 17.574176999999999
#
# number of rings (size 3 to 8) (size 9 to 14) (size 15 to 20)
#    0.000    2.000    0.000    6.000    0.000    5.500 
#    0.000    0.000    0.000    0.750    0.000    5.250 
#    0.000    0.000    0.000    0.000    0.000    0.000 
#
# Total GULP energy -357142.797795 kJ/mol
# GULP energy per Si atom -5580.356216 kJ/mol
# Density = 1.753418 g / cm^3
# Si number density = 17.574177 Si / 1000 Ang^3
#
#
#
# Elastic Constant Matrix: (Units=GPa)
#
#
# Indices 1 2 3 4 5 6 
#
# 1 72.6502 25.1978 28.2943 0.0000 0.0000 0.0000
# 2 25.1978 76.6841 36.8039 0.0000 0.0000 0.0000
# 3 28.2943 36.8039 93.0510 0.0000 0.0000 0.0000
# 4 0.0000 0.0000 0.0000 11.6700 0.0000 0.0000
# 5 0.0000 0.0000 0.0000 0.0000 25.8396 0.0000
# 6 0.0000 0.0000 0.0000 0.0000 0.0000 -8.3426
#
#
#
# Elastic Compliance Matrix: (Units=1/GPa)
#
#
# Indices 1 2 3 4 5 6 
#
# 1 0.016423 -0.003703 -0.003529 0.000000 0.000000 0.000000
# 2 -0.003703 0.016931 -0.005571 0.000000 0.000000 0.000000
# 3 -0.003529 -0.005571 0.014023 0.000000 0.000000 0.000000
# 4 0.000000 0.000000 0.000000 0.085690 0.000000 0.000000
# 5 0.000000 0.000000 0.000000 0.000000 0.038700 0.000000
# 6 0.000000 0.000000 0.000000 0.000000 0.000000 -0.119867
#
#
# Mechanical properties :
#
#
# Convention : Reuss Voigt Hill
#
# Bulk Modulus (GPa) = 45.93056 46.99749 46.46403
# Shear Modulus (GPa) = 58.98777 15.97269 37.48023
#
# Velocity S-wave (km/s) = 5.79982 3.01802 4.62311
# Velocity P-wave (km/s) = 8.42867 6.24059 7.41578
#
# Compressibility (1/GPa) = 0.02177200
#
# Stress axis : x y z
#
# Youngs Moduli (GPa) = 60.88879 59.06404 71.30979
#
# Poissons Ratio (x) = 0.21870 0.25168
# Poissons Ratio (y) = 0.22545 0.39724
# Poissons Ratio (z) = 0.21490 0.32902
#
# Static dielectric constant tensor:
#      x y z
#    x 1.591820 0.000000 0.000000 
#    y 0.000000 1.617040 0.000000 
#    z 0.000000 0.000000 1.606090 
# 
# From -- ./inp_files/34502.got.cif
#   From: 2010.05.17/outbox.cif.g08.bks.cpg/sg53_18_cif.got.tgz:34502.got - 2010.06.03 12:45:16.
