data_PCOD9414081
_publ_section_title
;
Structure prediction by ZEFSAII (Michael W. Deem and Ramdas Pophale) SiO2 
 PCOD9414081
Probable space group: P M N A
;
_chemical_formula_sum "Si O2"
_cell_formula_units_Z 48
_cell_length_a 8.834218
_cell_length_b 15.818234
_cell_length_c 21.918795
_cell_angle_alpha 90.000000
_cell_angle_beta 90.000000
_cell_angle_gamma 90.000000
_cell_volume 3062.970279
_symmetry_space_group_name_H-M "P M N A"
_symmetry_group_IT_number 53
_symmetry_cell_setting 'orthorhombic'
loop_
_space_group_symop_operation_xyz
x,y,z
1/2-x,-y,1/2+z
x,-y,-z
1/2-x,y,1/2-z
-x,-y,-z
1/2+x,y,1/2-z
-x,y,z
1/2+x,-y,1/2+z
loop_
_atom_site_type_symbol
_atom_site_label
_atom_site_fract_x
_atom_site_fract_y
_atom_site_fract_z
Si Si1 0.681290 0.807684 0.817130
Si Si2 0.816841 0.343912 0.406517
Si Si3 0.316665 0.881151 0.453863
Si Si4 0.324390 0.526349 0.071763
Si Si5 0.818892 0.305173 0.960754
Si Si6 0.816881 0.940352 0.909470
O O1 0.750000 0.807238 0.750000
O O2 0.500000 0.811257 0.813972
O O3 0.723962 0.722698 0.854469
O O4 0.742499 0.886353 0.856384
O O5 0.770465 0.441332 0.394455
O O6 0.745717 0.315536 0.470742
O O7 0.000000 0.344416 0.413644
O O8 0.500000 0.882373 0.452039
O O9 0.267073 0.786795 0.437001
O O10 0.276510 0.900262 0.524468
O O11 0.267885 0.961447 0.413835
O O12 0.500000 0.541496 0.086432
O O13 0.235576 0.613645 0.077171
O O14 0.316752 0.500000 0.000000
O O15 0.000000 0.305746 0.964029
O O16 0.000000 0.936720 0.903940
#
# Coordination Sequence:
#
# PCOD9414081 Si02
#       6
#     8   8   8   8   8   8
#     4  11  22  34  48  67  89 119 157 195 231 270
#     4   9  18  31  43  58  87 122 152 181 220 269
#     4   8  15  26  45  68  93 122 149 180 229 277
#     4   8  15  27  40  57  86 121 147 173 215 262
#     4  10  16  24  42  69  93 116 147 181 217 264
#     4   9  16  31  48  64  89 123 154 185 227 274
#
# _framework density 15.671061999999999
#
# number of rings (size 3 to 8) (size 9 to 14) (size 15 to 20)
#    0.000    2.833    1.667    3.000    0.000    3.667 
#    0.000    3.333    0.000    0.000    0.000    1.167 
#    0.000    5.333    0.000    0.000    0.000    0.000 
#
# Total GULP energy -267238.215515 kJ/mol
# GULP energy per Si atom -5567.462823 kJ/mol
# Density = 1.563539 g / cm^3
# Si number density = 15.671062 Si / 1000 Ang^3
#
#
#
# Elastic Constant Matrix: (Units=GPa)
#
#
# Indices 1 2 3 4 5 6 
#
# 1 24.8134 40.9489 22.4620 0.0000 0.0000 0.0000
# 2 40.9489 189.5618 58.9783 0.0000 0.0000 0.0000
# 3 22.4620 58.9783 66.4523 0.0000 0.0000 0.0000
# 4 0.0000 0.0000 0.0000 14.3571 0.0000 0.0000
# 5 0.0000 0.0000 0.0000 0.0000 8.4550 0.0000
# 6 0.0000 0.0000 0.0000 0.0000 0.0000 -98.9022
#
#
#
# Elastic Compliance Matrix: (Units=1/GPa)
#
#
# Indices 1 2 3 4 5 6 
#
# 1 0.071414 -0.010936 -0.014433 0.000000 0.000000 0.000000
# 2 -0.010936 0.008962 -0.004258 0.000000 0.000000 0.000000
# 3 -0.014433 -0.004258 0.023706 0.000000 0.000000 0.000000
# 4 0.000000 0.000000 0.000000 0.069652 0.000000 0.000000
# 5 0.000000 0.000000 0.000000 0.000000 0.118273 0.000000
# 6 0.000000 0.000000 0.000000 0.000000 0.000000 -0.010111
#
#
# Mechanical properties :
#
#
# Convention : Reuss Voigt Hill
#
# Bulk Modulus (GPa) = 22.30733 58.40066 40.35399
# Shear Modulus (GPa) = 14.04131 -4.65546 4.69292
#
# Velocity S-wave (km/s) = 2.99658 -1.72545 1.73238
# Velocity P-wave (km/s) = 5.12233 5.77736 5.45968
#
# Compressibility (1/GPa) = 0.04482832
#
# Stress axis : x y z
#
# Youngs Moduli (GPa) = 14.00293 111.57608 42.18367
#
# Poissons Ratio (x) = 1.22022 0.60883
# Poissons Ratio (y) = 0.15314 0.17961
# Poissons Ratio (z) = 0.20210 0.47507
#
# Static dielectric constant tensor:
#      x y z
#    x 1.526900 0.000000 0.000000 
#    y 0.000000 1.577210 0.000000 
#    z 0.000000 0.000000 1.478350 
# 
# From -- ./inp_files/30950.got.cif
#   From: 2010.05.17/outbox.cif.g08.bks.cpg/sg53_16_cif.got.tgz:30950.got - 2010.06.03 12:45:16.
