data_PCOD9414879
_publ_section_title
;
Structure prediction by ZEFSAII (Michael W. Deem and Ramdas Pophale) SiO2 
 PCOD9414879
Probable space group: P M N A
;
_chemical_formula_sum "Si O2"
_cell_formula_units_Z 64
_cell_length_a 15.680741
_cell_length_b 11.843459
_cell_length_c 17.020782
_cell_angle_alpha 90.000000
_cell_angle_beta 90.000000
_cell_angle_gamma 90.000000
_cell_volume 3161.001136
_symmetry_space_group_name_H-M "P M N A"
_symmetry_group_IT_number 53
_symmetry_cell_setting 'orthorhombic'
loop_
_space_group_symop_operation_xyz
x,y,z
1/2-x,-y,1/2+z
x,-y,-z
1/2-x,y,1/2-z
-x,-y,-z
1/2+x,y,1/2-z
-x,y,z
1/2+x,-y,1/2+z
loop_
_atom_site_type_symbol
_atom_site_label
_atom_site_fract_x
_atom_site_fract_y
_atom_site_fract_z
Si Si1 0.705865 0.805925 0.079807
Si Si2 0.096365 0.889737 0.554240
Si Si3 0.404007 0.221464 0.768121
Si Si4 0.096519 0.402840 0.316368
Si Si5 0.101519 0.853931 0.729133
Si Si6 0.261851 0.541333 0.086383
Si Si7 0.682533 0.958777 0.319245
Si Si8 0.404212 0.564200 0.328362
O O1 0.635218 0.812104 0.148633
O O2 0.734137 0.677028 0.089027
O O3 0.775267 0.903381 0.102920
O O4 0.665576 0.817863 0.993195
O O5 0.118030 0.916132 0.644931
O O6 0.000000 0.840288 0.555025
O O7 0.092775 0.000000 0.500000
O O8 0.500000 0.255527 0.784629
O O9 0.396845 0.117945 0.707728
O O10 0.366759 0.328484 0.720842
O O11 0.122023 0.274591 0.295315
O O12 0.168348 0.474209 0.361893
O O13 0.087723 0.466287 0.234642
O O14 0.000000 0.402713 0.352978
O O15 0.000000 0.859923 0.745725
O O16 0.153750 0.912873 0.799998
O O17 0.164466 0.519912 0.110559
O O18 0.279274 0.500000 0.000000
O O19 0.750000 0.932247 0.250000
O O20 0.500000 0.592708 0.358129
#
# Coordination Sequence:
#
# PCOD9414879 Si02
#       8
#     8   8   8   8   8   8   8   8
#     4  11  21  34  55  88 122 153 203 253 301 368
#     4  10  20  35  54  79 120 162 191 235 304 375
#     4  10  18  32  56  82 110 148 197 255 299 334
#     4  10  22  39  62  90 121 161 204 250 306 374
#     4  10  21  39  58  84 120 158 200 241 294 370
#     4  12  24  38  59  89 128 165 202 255 317 375
#     4  10  20  32  54  85 115 148 200 253 293 347
#     4  10  21  39  61  84 115 159 210 257 299 349
#
# _framework density 20.246751
#
# number of rings (size 3 to 8) (size 9 to 14) (size 15 to 20)
#    0.000    1.625    2.500    3.375    0.000    3.000 
#    0.000    1.250    0.000    0.000    0.000    0.000 
#    0.000   24.500    0.000    0.000    0.000    0.000 
#
# Total GULP energy -356396.924919 kJ/mol
# GULP energy per Si atom -5568.701952 kJ/mol
# Density = 2.020067 g / cm^3
# Si number density = 20.246751 Si / 1000 Ang^3
#
#
#
# Elastic Constant Matrix: (Units=GPa)
#
#
# Indices 1 2 3 4 5 6 
#
# 1 68.9267 34.3849 25.9822 0.0000 0.0000 0.0000
# 2 34.3849 92.8768 20.7430 0.0000 0.0000 0.0000
# 3 25.9822 20.7430 34.2623 0.0000 0.0000 0.0000
# 4 0.0000 0.0000 0.0000 18.7756 0.0000 0.0000
# 5 0.0000 0.0000 0.0000 0.0000 -58.4384 0.0000
# 6 0.0000 0.0000 0.0000 0.0000 0.0000 23.9254
#
#
#
# Elastic Compliance Matrix: (Units=1/GPa)
#
#
# Indices 1 2 3 4 5 6 
#
# 1 0.022276 -0.005174 -0.013760 0.000000 0.000000 0.000000
# 2 -0.005174 0.013652 -0.004342 0.000000 0.000000 0.000000
# 3 -0.013760 -0.004342 0.042250 0.000000 0.000000 0.000000
# 4 0.000000 0.000000 0.000000 0.053261 0.000000 0.000000
# 5 0.000000 0.000000 0.000000 0.000000 -0.017112 0.000000
# 6 0.000000 0.000000 0.000000 0.000000 0.000000 0.041797
#
#
# Mechanical properties :
#
#
# Convention : Reuss Voigt Hill
#
# Bulk Modulus (GPa) = 31.61914 39.80958 35.71436
# Shear Modulus (GPa) = 23.45015 4.51621 13.98318
#
# Velocity S-wave (km/s) = 3.40695 1.49513 2.63085
# Velocity P-wave (km/s) = 5.57918 4.76293 5.18713
#
# Compressibility (1/GPa) = 0.03162642
#
# Stress axis : x y z
#
# Youngs Moduli (GPa) = 44.89075 73.24882 23.66853
#
# Poissons Ratio (x) = 0.37898 0.32569
# Poissons Ratio (y) = 0.23226 0.10276
# Poissons Ratio (z) = 0.61772 0.31803
#
# Static dielectric constant tensor:
#      x y z
#    x 1.814650 0.000000 0.000000 
#    y 0.000000 1.821480 0.000000 
#    z 0.000000 0.000000 1.695810 
# 
# From -- ./inp_files/28541.got.cif
#   From: 2010.05.17/outbox.cif.g08.bks.cpg/sg53_15_cif.got.tgz:28541.got - 2010.06.03 12:45:16.
