data_PCOD9414599
_publ_section_title
;
Structure prediction by ZEFSAII (Michael W. Deem and Ramdas Pophale) SiO2 
 PCOD9414599
Probable space group: P M N A
;
_chemical_formula_sum "Si O2"
_cell_formula_units_Z 64
_cell_length_a 9.260127
_cell_length_b 16.734051
_cell_length_c 22.330371
_cell_angle_alpha 90.000000
_cell_angle_beta 90.000000
_cell_angle_gamma 90.000000
_cell_volume 3460.301729
_symmetry_space_group_name_H-M "P M N A"
_symmetry_group_IT_number 53
_symmetry_cell_setting 'orthorhombic'
loop_
_space_group_symop_operation_xyz
x,y,z
1/2-x,-y,1/2+z
x,-y,-z
1/2-x,y,1/2-z
-x,-y,-z
1/2+x,y,1/2-z
-x,y,z
1/2+x,-y,1/2+z
loop_
_atom_site_type_symbol
_atom_site_label
_atom_site_fract_x
_atom_site_fract_y
_atom_site_fract_z
Si Si1 0.176181 0.887581 0.814299
Si Si2 0.329884 0.724229 0.125919
Si Si3 0.669893 0.576918 0.421991
Si Si4 0.170636 0.605966 0.936001
Si Si5 0.174094 0.235801 0.394573
Si Si6 0.839849 0.846679 0.198545
Si Si7 0.329589 0.850658 0.019115
Si Si8 0.338278 0.974794 0.406968
O O1 0.250000 0.904906 0.750000
O O2 0.241113 0.804725 0.839673
O O3 0.000000 0.887919 0.809411
O O4 0.217919 0.951971 0.866352
O O5 0.500000 0.723521 0.136204
O O6 0.267407 0.636992 0.114934
O O7 0.246049 0.768693 0.178575
O O8 0.302630 0.779096 0.066737
O O9 0.500000 0.590084 0.409479
O O10 0.691670 0.598145 0.492245
O O11 0.701414 0.483418 0.412383
O O12 0.267999 0.675401 0.908506
O O13 0.000000 0.623236 0.926252
O O14 0.209338 0.183440 0.454169
O O15 0.000000 0.234738 0.386314
O O16 0.750000 0.889153 0.250000
O O17 0.848273 0.904358 0.142175
O O18 0.000000 0.828045 0.219483
O O19 0.500000 0.867021 0.019964
O O20 0.249663 0.930581 0.040839
O O21 0.500000 0.995903 0.427217
#
# Coordination Sequence:
#
# PCOD9414599 Si02
#       8
#     8   8   8   8   8   8   8   8
#     4  11  24  42  61  82 105 139 186 234 279 324
#     4  10  18  30  48  74 108 145 180 218 261 315
#     4   9  17  30  50  78 110 143 179 218 264 318
#     4   9  18  32  52  79 110 144 179 218 266 319
#     4  11  22  37  56  82 114 147 183 226 272 324
#     4  10  19  32  50  74 102 138 179 222 269 320
#     4   9  19  33  51  79 114 147 178 214 268 323
#     4   9  20  36  56  80 107 139 179 224 273 325
#
# _framework density 18.495497
#
# number of rings (size 3 to 8) (size 9 to 14) (size 15 to 20)
#    0.000    2.250    1.250    2.625    0.000    4.000 
#    0.000    3.750    0.000    0.750    0.000    0.000 
#    0.000    0.000    0.000    0.000    0.000    0.000 
#
# Total GULP energy -356912.314906 kJ/mol
# GULP energy per Si atom -5576.754920 kJ/mol
# Density = 1.845340 g / cm^3
# Si number density = 18.495497 Si / 1000 Ang^3
#
#
#
# Elastic Constant Matrix: (Units=GPa)
#
#
# Indices 1 2 3 4 5 6 
#
# 1 65.4850 54.4386 24.5498 0.0000 0.0000 0.0000
# 2 54.4386 107.3062 28.7815 0.0000 0.0000 0.0000
# 3 24.5498 28.7815 28.2055 0.0000 0.0000 0.0000
# 4 0.0000 0.0000 0.0000 15.1027 0.0000 0.0000
# 5 0.0000 0.0000 0.0000 0.0000 20.5453 0.0000
# 6 0.0000 0.0000 0.0000 0.0000 0.0000 7.7019
#
#
#
# Elastic Compliance Matrix: (Units=1/GPa)
#
#
# Indices 1 2 3 4 5 6 
#
# 1 0.030270 -0.011414 -0.014700 0.000000 0.000000 0.000000
# 2 -0.011414 0.017135 -0.007550 0.000000 0.000000 0.000000
# 3 -0.014700 -0.007550 0.055953 0.000000 0.000000 0.000000
# 4 0.000000 0.000000 0.000000 0.066213 0.000000 0.000000
# 5 0.000000 0.000000 0.000000 0.000000 0.048673 0.000000
# 6 0.000000 0.000000 0.000000 0.000000 0.000000 0.129838
#
#
# Mechanical properties :
#
#
# Convention : Reuss Voigt Hill
#
# Bulk Modulus (GPa) = 27.75456 46.28182 37.01819
# Shear Modulus (GPa) = 11.69814 14.88512 13.29163
#
# Velocity S-wave (km/s) = 2.51766 2.83997 2.68366
# Velocity P-wave (km/s) = 4.84666 5.98594 5.44618
#
# Compressibility (1/GPa) = 0.03603012
#
# Stress axis : x y z
#
# Youngs Moduli (GPa) = 33.03604 58.36129 17.87219
#
# Poissons Ratio (x) = 0.66612 0.26272
# Poissons Ratio (y) = 0.37707 0.13494
# Poissons Ratio (z) = 0.48562 0.44063
#
# Static dielectric constant tensor:
#      x y z
#    x 1.634470 0.000000 0.000000 
#    y 0.000000 1.637650 0.000000 
#    z 0.000000 0.000000 1.692680 
# 
# From -- ./inp_files/34342.got.cif
#   From: 2010.05.17/outbox.cif.g08.bks.cpg/sg53_18_cif.got.tgz:34342.got - 2010.06.03 12:45:16.
