data_PCOD9414525
_publ_section_title
;
Structure prediction by ZEFSAII (Michael W. Deem and Ramdas Pophale) SiO2 
 PCOD9414525
Probable space group: P M N A
;
_chemical_formula_sum "Si O2"
_cell_formula_units_Z 56
_cell_length_a 9.107771
_cell_length_b 14.420914
_cell_length_c 21.093063
_cell_angle_alpha 90.000000
_cell_angle_beta 90.000000
_cell_angle_gamma 90.000000
_cell_volume 2770.413145
_symmetry_space_group_name_H-M "P M N A"
_symmetry_group_IT_number 53
_symmetry_cell_setting 'orthorhombic'
loop_
_space_group_symop_operation_xyz
x,y,z
1/2-x,-y,1/2+z
x,-y,-z
1/2-x,y,1/2-z
-x,-y,-z
1/2+x,y,1/2-z
-x,y,z
1/2+x,-y,1/2+z
loop_
_atom_site_type_symbol
_atom_site_label
_atom_site_fract_x
_atom_site_fract_y
_atom_site_fract_z
Si Si1 0.824081 0.062445 0.683865
Si Si2 0.824904 0.623158 0.886908
Si Si3 0.166451 0.919946 0.580624
Si Si4 0.325038 0.230590 0.497658
Si Si5 0.175090 0.465393 0.682680
Si Si6 0.165416 0.229035 0.307464
Si Si7 0.826499 0.262211 0.630830
O O1 0.750000 0.034585 0.750000
O O2 0.796457 0.170991 0.672155
O O3 0.000000 0.045942 0.688184
O O4 0.773840 0.007608 0.620260
O O5 0.786970 0.684536 0.949136
O O6 0.743918 0.526455 0.874236
O O7 0.765173 0.685956 0.829399
O O8 0.000000 0.611535 0.885032
O O9 0.257845 0.867297 0.526765
O O10 0.157760 0.842080 0.635200
O O11 0.000000 0.939235 0.558781
O O12 0.500000 0.222810 0.497367
O O13 0.263643 0.254917 0.566211
O O14 0.250000 0.488660 0.750000
O O15 0.203331 0.357542 0.667234
O O16 0.000000 0.480949 0.686232
O O17 0.250000 0.182638 0.250000
O O18 0.000000 0.257709 0.291166
O O19 0.000000 0.260596 0.614800
#
# Coordination Sequence:
#
# PCOD9414525 Si02
#       7
#     8   8   8   8   8   8   8
#     4  10  21  38  60  87 116 151 192 235 284 336
#     4  10  21  37  56  80 111 146 184 231 282 336
#     4   9  19  35  56  81 113 150 186 227 279 337
#     4  10  22  39  60  86 115 149 191 235 283 335
#     4  11  23  39  60  86 114 149 190 234 284 337
#     4  10  18  29  48  76 109 145 182 224 275 332
#     4  10  23  41  60  82 114 154 193 234 283 337
#
# _framework density 20.213591999999998
#
# number of rings (size 3 to 8) (size 9 to 14) (size 15 to 20)
#    0.000    2.000    0.000    3.000    0.000    5.714 
#    0.000    5.714    0.000    0.000    0.000    0.000 
#    0.000    0.000    0.000    0.000    0.000    0.000 
#
# Total GULP energy -312591.425102 kJ/mol
# GULP energy per Si atom -5581.989734 kJ/mol
# Density = 2.016758 g / cm^3
# Si number density = 20.213592 Si / 1000 Ang^3
#
#
#
# Elastic Constant Matrix: (Units=GPa)
#
#
# Indices 1 2 3 4 5 6 
#
# 1 42.0589 24.0366 39.5746 0.0000 0.0000 0.0000
# 2 24.0366 101.9626 13.4017 0.0000 0.0000 0.0000
# 3 39.5746 13.4017 87.1996 0.0000 0.0000 0.0000
# 4 0.0000 0.0000 0.0000 28.9386 0.0000 0.0000
# 5 0.0000 0.0000 0.0000 0.0000 32.6963 0.0000
# 6 0.0000 0.0000 0.0000 0.0000 0.0000 50.8990
#
#
#
# Elastic Compliance Matrix: (Units=1/GPa)
#
#
# Indices 1 2 3 4 5 6 
#
# 1 0.047912 -0.008611 -0.020421 0.000000 0.000000 0.000000
# 2 -0.008611 0.011557 0.002132 0.000000 0.000000 0.000000
# 3 -0.020421 0.002132 0.020408 0.000000 0.000000 0.000000
# 4 0.000000 0.000000 0.000000 0.034556 0.000000 0.000000
# 5 0.000000 0.000000 0.000000 0.000000 0.030585 0.000000
# 6 0.000000 0.000000 0.000000 0.000000 0.000000 0.019647
#
#
# Mechanical properties :
#
#
# Convention : Reuss Voigt Hill
#
# Bulk Modulus (GPa) = 38.34743 42.80521 40.57632
# Shear Modulus (GPa) = 22.01120 32.78732 27.39926
#
# Velocity S-wave (km/s) = 3.30348 4.03183 3.68569
# Velocity P-wave (km/s) = 5.79335 6.54955 6.18302
#
# Compressibility (1/GPa) = 0.02607737
#
# Stress axis : x y z
#
# Youngs Moduli (GPa) = 20.87160 86.52610 48.99995
#
# Poissons Ratio (x) = 0.74505 1.00063
# Poissons Ratio (y) = 0.17972 -0.10445
# Poissons Ratio (z) = 0.42622 -0.18444
#
# Static dielectric constant tensor:
#      x y z
#    x 1.345890 0.000000 0.000000 
#    y 0.000000 1.750690 0.000000 
#    z 0.000000 0.000000 1.747210 
# 
# From -- ./inp_files/30848.got.cif
#   From: 2010.05.17/outbox.cif.g08.bks.cpg/sg53_16_cif.got.tgz:30848.got - 2010.06.03 12:45:16.
