data_PCOD9414972
_publ_section_title
;
Structure prediction by ZEFSAII (Michael W. Deem and Ramdas Pophale) SiO2 
 PCOD9414972
Probable space group: P M N A
;
_chemical_formula_sum "Si O2"
_cell_formula_units_Z 56
_cell_length_a 17.590872
_cell_length_b 12.778582
_cell_length_c 11.957171
_cell_angle_alpha 90.000000
_cell_angle_beta 90.000000
_cell_angle_gamma 90.000000
_cell_volume 2687.809427
_symmetry_space_group_name_H-M "P M N A"
_symmetry_group_IT_number 53
_symmetry_cell_setting 'orthorhombic'
loop_
_space_group_symop_operation_xyz
x,y,z
1/2-x,-y,1/2+z
x,-y,-z
1/2-x,y,1/2-z
-x,-y,-z
1/2+x,y,1/2-z
-x,y,z
1/2+x,-y,1/2+z
loop_
_atom_site_type_symbol
_atom_site_label
_atom_site_fract_x
_atom_site_fract_y
_atom_site_fract_z
Si Si1 0.250551 0.334371 0.550580
Si Si2 0.358998 0.626036 0.261683
Si Si3 0.194369 0.881034 0.504245
Si Si4 0.173029 0.407759 0.323093
Si Si5 0.091196 0.809992 0.706858
Si Si6 0.091765 0.016084 0.124492
Si Si7 0.586207 0.843002 0.205625
O O1 0.199696 0.339772 0.662666
O O2 0.327374 0.376854 0.610107
O O3 0.254092 0.214726 0.506588
O O4 0.206420 0.394646 0.449959
O O5 0.374882 0.509824 0.214952
O O6 0.414450 0.724675 0.252062
O O7 0.141828 0.866898 0.613186
O O8 0.137029 0.858957 0.402515
O O9 0.221495 0.000000 0.500000
O O10 0.250000 0.411474 0.250000
O O11 0.122287 0.307451 0.295304
O O12 0.108749 0.872561 0.820261
O O13 0.000000 0.814469 0.685825
O O14 0.000000 0.007809 0.124208
O O15 0.119253 0.921590 0.202014
O O16 0.117632 0.000000 0.000000
O O17 0.500000 0.873987 0.178081
#
# Coordination Sequence:
#
# PCOD9414972 Si02
#       7
#     8   8   8   8   8   8   8
#     4   9  20  37  56  83 110 146 194 235 281 339
#     4  10  20  37  59  79 111 153 187 236 289 333
#     4  10  18  33  60  88 117 148 184 236 295 343
#     4  11  22  37  60  84 110 150 196 236 285 347
#     4  10  21  36  56  86 119 148 185 237 293 341
#     4   9  18  34  54  77 113 154 185 220 271 337
#     4  10  20  33  56  89 116 146 190 229 282 350
#
# _framework density 20.834811999999999
#
# number of rings (size 3 to 8) (size 9 to 14) (size 15 to 20)
#    0.000    2.143    2.857    0.857    0.000    2.286 
#    0.000    3.571    0.000    5.143    0.000    6.000 
#    0.000    0.000    0.000    0.000    0.000    0.000 
#
# Total GULP energy -311849.894398 kJ/mol
# GULP energy per Si atom -5568.748114 kJ/mol
# Density = 2.078739 g / cm^3
# Si number density = 20.834812 Si / 1000 Ang^3
#
#
#
# Elastic Constant Matrix: (Units=GPa)
#
#
# Indices 1 2 3 4 5 6 
#
# 1 32.4110 16.2209 20.2405 0.0000 0.0000 0.0000
# 2 16.2209 165.0013 37.9137 0.0000 0.0000 0.0000
# 3 20.2405 37.9137 119.5365 0.0000 0.0000 0.0000
# 4 0.0000 0.0000 0.0000 12.5318 0.0000 0.0000
# 5 0.0000 0.0000 0.0000 0.0000 -4.4884 0.0000
# 6 0.0000 0.0000 0.0000 0.0000 0.0000 20.5554
#
#
#
# Elastic Compliance Matrix: (Units=1/GPa)
#
#
# Indices 1 2 3 4 5 6 
#
# 1 0.035266 -0.002259 -0.005255 0.000000 0.000000 0.000000
# 2 -0.002259 0.006682 -0.001737 0.000000 0.000000 0.000000
# 3 -0.005255 -0.001737 0.009806 0.000000 0.000000 0.000000
# 4 0.000000 0.000000 0.000000 0.079797 0.000000 0.000000
# 5 0.000000 0.000000 0.000000 0.000000 -0.222799 0.000000
# 6 0.000000 0.000000 0.000000 0.000000 0.000000 0.048649
#
#
# Mechanical properties :
#
#
# Convention : Reuss Voigt Hill
#
# Bulk Modulus (GPa) = 30.07321 51.74435 40.90878
# Shear Modulus (GPa) = -384.25537 21.89133 -181.18202
#
# Velocity S-wave (km/s) = -13.59521 3.24498 -9.33542
# Velocity P-wave (km/s) = 15.23070 6.23934 9.82459
#
# Compressibility (1/GPa) = 0.03325218
#
# Stress axis : x y z
#
# Youngs Moduli (GPa) = 28.35582 149.66176 101.97583
#
# Poissons Ratio (x) = 0.33816 0.53586
# Poissons Ratio (y) = 0.06407 0.17710
# Poissons Ratio (z) = 0.14900 0.25991
#
# Static dielectric constant tensor:
#      x y z
#    x 1.800150 0.000000 0.000000 
#    y 0.000000 1.825020 0.000000 
#    z 0.000000 0.000000 1.726000 
# 
# From -- ./inp_files/17842.got.cif
#   From: 2010.05.17/outbox.cif.g08.bks.cpg/sg53_9_cif.got.tgz:17842.got - 2010.06.03 12:45:16.
