data_PCOD9414645
_publ_section_title
;
Structure prediction by ZEFSAII (Michael W. Deem and Ramdas Pophale) SiO2 
 PCOD9414645
Probable space group: P M N A
;
_chemical_formula_sum "Si O2"
_cell_formula_units_Z 64
_cell_length_a 8.420215
_cell_length_b 15.527581
_cell_length_c 25.381296
_cell_angle_alpha 90.000000
_cell_angle_beta 90.000000
_cell_angle_gamma 90.000000
_cell_volume 3318.492024
_symmetry_space_group_name_H-M "P M N A"
_symmetry_group_IT_number 53
_symmetry_cell_setting 'orthorhombic'
loop_
_space_group_symop_operation_xyz
x,y,z
1/2-x,-y,1/2+z
x,-y,-z
1/2-x,y,1/2-z
-x,-y,-z
1/2+x,y,1/2-z
-x,y,z
1/2+x,-y,1/2+z
loop_
_atom_site_type_symbol
_atom_site_label
_atom_site_fract_x
_atom_site_fract_y
_atom_site_fract_z
Si Si1 0.691443 0.945802 0.808282
Si Si2 0.183746 0.255699 0.495063
Si Si3 0.808780 0.352819 0.193160
Si Si4 0.309529 0.142830 0.808488
Si Si5 0.810546 0.286830 0.887795
Si Si6 0.182031 0.527330 0.147929
Si Si7 0.675611 0.554933 0.947349
Si Si8 0.806801 0.794615 0.614482
O O1 0.750000 0.922056 0.750000
O O2 0.500000 0.944997 0.807753
O O3 0.744612 0.876823 0.851330
O O4 0.742941 0.044144 0.819150
O O5 0.261388 0.267126 0.552013
O O6 0.188761 0.348294 0.466621
O O7 0.248889 0.198763 0.446463
O O8 0.000000 0.231772 0.504867
O O9 0.750000 0.321217 0.250000
O O10 0.749016 0.451797 0.184997
O O11 0.748721 0.289885 0.146808
O O12 0.000000 0.353495 0.191673
O O13 0.250000 0.165483 0.750000
O O14 0.500000 0.145014 0.809168
O O15 0.244591 0.209621 0.850700
O O16 0.746371 0.378296 0.864188
O O17 0.000000 0.293822 0.887193
O O18 0.192254 0.478781 0.091846
O O19 0.000000 0.540834 0.164739
O O20 0.500000 0.542866 0.922341
O O21 0.680331 0.500000 0.000000
O O22 0.000000 0.791392 0.612794
#
# Coordination Sequence:
#
# PCOD9414645 Si02
#       8
#     8   8   8   8   8   8   8   8
#     4   9  19  36  60  87 111 140 180 227 279 334
#     4  10  20  34  54  82 115 150 188 228 274 329
#     4  11  23  37  52  75 109 147 186 228 278 332
#     4  10  21  40  64  87 111 140 179 229 283 336
#     4  11  23  38  57  83 114 149 191 234 278 328
#     4  10  22  36  51  74 106 143 185 229 274 322
#     4  10  18  30  51  77 104 139 186 229 269 316
#     4  10  20  36  58  84 114 147 184 226 274 332
#
# _framework density 19.285869000000002
#
# number of rings (size 3 to 8) (size 9 to 14) (size 15 to 20)
#    0.000    1.875    2.500    1.500    0.000    4.750 
#    0.000    1.875    0.000    3.750    0.000    0.000 
#    0.000    0.000    0.000    0.000    0.000    0.000 
#
# Total GULP energy -356787.319316 kJ/mol
# GULP energy per Si atom -5574.801864 kJ/mol
# Density = 1.924197 g / cm^3
# Si number density = 19.285869 Si / 1000 Ang^3
#
#
#
# Elastic Constant Matrix: (Units=GPa)
#
#
# Indices 1 2 3 4 5 6 
#
# 1 24.4271 12.5430 15.7062 0.0000 0.0000 0.0000
# 2 12.5430 89.6888 56.0271 0.0000 0.0000 0.0000
# 3 15.7062 56.0271 92.3978 0.0000 0.0000 0.0000
# 4 0.0000 0.0000 0.0000 29.4740 0.0000 0.0000
# 5 0.0000 0.0000 0.0000 0.0000 26.8307 0.0000
# 6 0.0000 0.0000 0.0000 0.0000 0.0000 19.5051
#
#
#
# Elastic Compliance Matrix: (Units=1/GPa)
#
#
# Indices 1 2 3 4 5 6 
#
# 1 0.046310 -0.002509 -0.006350 0.000000 0.000000 0.000000
# 2 -0.002509 0.018084 -0.010539 0.000000 0.000000 0.000000
# 3 -0.006350 -0.010539 0.018293 0.000000 0.000000 0.000000
# 4 0.000000 0.000000 0.000000 0.033928 0.000000 0.000000
# 5 0.000000 0.000000 0.000000 0.000000 0.037271 0.000000
# 6 0.000000 0.000000 0.000000 0.000000 0.000000 0.051269
#
#
# Mechanical properties :
#
#
# Convention : Reuss Voigt Hill
#
# Bulk Modulus (GPa) = 22.78474 41.67404 32.22939
# Shear Modulus (GPa) = 19.33623 23.31113 21.32368
#
# Velocity S-wave (km/s) = 3.16984 3.48043 3.32876
# Velocity P-wave (km/s) = 5.02365 6.14871 5.61443
#
# Compressibility (1/GPa) = 0.04388903
#
# Stress axis : x y z
#
# Youngs Moduli (GPa) = 21.59370 55.29677 54.66626
#
# Poissons Ratio (x) = 0.13877 0.34715
# Poissons Ratio (y) = 0.05419 0.57614
# Poissons Ratio (z) = 0.13713 0.58278
#
# Static dielectric constant tensor:
#      x y z
#    x 1.700500 0.000000 0.000000 
#    y 0.000000 1.712450 0.000000 
#    z 0.000000 0.000000 1.653940 
# 
# From -- ./inp_files/34263.got.cif
#   From: 2010.05.17/outbox.cif.g08.bks.cpg/sg53_18_cif.got.tgz:34263.got - 2010.06.03 12:45:16.
