data_PCOD9414102
_publ_section_title
;
Structure prediction by ZEFSAII (Michael W. Deem and Ramdas Pophale) SiO2 
 PCOD9414102
Probable space group: P M N A
;
_chemical_formula_sum "Si O2"
_cell_formula_units_Z 32
_cell_length_a 17.704272
_cell_length_b 8.338301
_cell_length_c 9.323866
_cell_angle_alpha 90.000000
_cell_angle_beta 90.000000
_cell_angle_gamma 90.000000
_cell_volume 1376.422189
_symmetry_space_group_name_H-M "P M N A"
_symmetry_group_IT_number 53
_symmetry_cell_setting 'orthorhombic'
loop_
_space_group_symop_operation_xyz
x,y,z
1/2-x,-y,1/2+z
x,-y,-z
1/2-x,y,1/2-z
-x,-y,-z
1/2+x,y,1/2-z
-x,y,z
1/2+x,-y,1/2+z
loop_
_atom_site_type_symbol
_atom_site_label
_atom_site_fract_x
_atom_site_fract_y
_atom_site_fract_z
Si Si1 0.911768 0.240325 0.530628
Si Si2 0.408427 0.245993 0.295325
Si Si3 0.162273 0.921678 0.215632
Si Si4 0.588816 0.601006 0.318950
O O1 0.881613 0.257603 0.371230
O O2 0.877958 0.101423 0.629926
O O3 0.905390 0.388503 0.643335
O O4 0.000000 0.209586 0.514059
O O5 0.500000 0.229657 0.302197
O O6 0.390872 0.420385 0.361680
O O7 0.369600 0.084543 0.350653
O O8 0.250000 0.928737 0.250000
O O9 0.138065 0.755413 0.138160
O O10 0.500000 0.629906 0.352915
#
# Coordination Sequence:
#
# PCOD9414102 Si02
#       4
#     8   8   8   8
#     4   8  15  28  44  63  82 103 137 173 201 232
#     4  10  16  27  47  64  79 104 140 176 200 231
#     4  10  19  26  34  56  91 120 133 152 197 253
#     4   8  16  27  42  61  79 102 136 169 200 234
#
# _framework density 23.248681999999999
#
# number of rings (size 3 to 8) (size 9 to 14) (size 15 to 20)
#    1.500    1.500    0.000    3.000    0.000    6.000 
#    0.000    0.000    0.000    0.000    0.000    0.000 
#    0.000   36.000    0.000   48.250    0.000    0.000 
#
# Total GULP energy -178340.056230 kJ/mol
# GULP energy per Si atom -5573.126757 kJ/mol
# Density = 2.319577 g / cm^3
# Si number density = 23.248682 Si / 1000 Ang^3
#
#
#
# Elastic Constant Matrix: (Units=GPa)
#
#
# Indices 1 2 3 4 5 6 
#
# 1 50.5647 94.6169 4.0825 0.0000 0.0000 0.0000
# 2 94.6169 256.8042 44.7709 0.0000 0.0000 0.0000
# 3 4.0825 44.7709 86.5895 0.0000 0.0000 0.0000
# 4 0.0000 0.0000 0.0000 36.3711 0.0000 0.0000
# 5 0.0000 0.0000 0.0000 0.0000 -29.7076 0.0000
# 6 0.0000 0.0000 0.0000 0.0000 0.0000 29.7093
#
#
#
# Elastic Compliance Matrix: (Units=1/GPa)
#
#
# Indices 1 2 3 4 5 6 
#
# 1 0.072736 -0.028797 0.011460 0.000000 0.000000 0.000000
# 2 -0.028797 0.015681 -0.006750 0.000000 0.000000 0.000000
# 3 0.011460 -0.006750 0.014498 0.000000 0.000000 0.000000
# 4 0.000000 0.000000 0.000000 0.027494 0.000000 0.000000
# 5 0.000000 0.000000 0.000000 0.000000 -0.033661 0.000000
# 6 0.000000 0.000000 0.000000 0.000000 0.000000 0.033659
#
#
# Mechanical properties :
#
#
# Convention : Reuss Voigt Hill
#
# Bulk Modulus (GPa) = 18.26769 75.65543 46.96156
# Shear Modulus (GPa) = 25.40292 23.97377 24.68834
#
# Velocity S-wave (km/s) = 3.30913 3.21470 3.26225
# Velocity P-wave (km/s) = 4.74078 6.81113 5.86799
#
# Compressibility (1/GPa) = 0.05474145
#
# Stress axis : x y z
#
# Youngs Moduli (GPa) = 13.74840 63.77304 68.97291
#
# Poissons Ratio (x) = 1.83645 -0.79042
# Poissons Ratio (y) = 0.39591 0.46556
# Poissons Ratio (z) = -0.15755 0.43046
#
# Static dielectric constant tensor:
#      x y z
#    x 1.771750 0.000000 0.000000 
#    y 0.000000 1.929250 0.000000 
#    z 0.000000 0.000000 1.944250 
# 
# From -- ./inp_files/27947.got.cif
#   From: 2010.05.17/outbox.cif.g08.bks.cpg/sg53_14_cif.got.tgz:27947.got - 2010.06.03 12:45:16.
