data_PCOD9414362
_publ_section_title
;
Structure prediction by ZEFSAII (Michael W. Deem and Ramdas Pophale) SiO2 
 PCOD9414362
Probable space group: P M N A
;
_chemical_formula_sum "Si O2"
_cell_formula_units_Z 56
_cell_length_a 7.944833
_cell_length_b 14.145981
_cell_length_c 29.548703
_cell_angle_alpha 90.000000
_cell_angle_beta 90.000000
_cell_angle_gamma 90.000000
_cell_volume 3320.903578
_symmetry_space_group_name_H-M "P M N A"
_symmetry_group_IT_number 53
_symmetry_cell_setting 'orthorhombic'
loop_
_space_group_symop_operation_xyz
x,y,z
1/2-x,-y,1/2+z
x,-y,-z
1/2-x,y,1/2-z
-x,-y,-z
1/2+x,y,1/2-z
-x,y,z
1/2+x,-y,1/2+z
loop_
_atom_site_type_symbol
_atom_site_label
_atom_site_fract_x
_atom_site_fract_y
_atom_site_fract_z
Si Si1 0.797254 0.713648 0.966606
Si Si2 0.700210 0.490326 0.699361
Si Si3 0.703460 0.614016 0.442177
Si Si4 0.798035 0.900596 0.481380
Si Si5 0.705772 0.578113 0.607619
Si Si6 0.697679 0.802512 0.107677
Si Si7 0.299431 0.270519 0.800691
O O1 0.737230 0.671779 0.918821
O O2 0.000000 0.719170 0.965378
O O3 0.753587 0.638011 0.006054
O O4 0.734560 0.814597 0.984028
O O5 0.750000 0.519052 0.750000
O O6 0.500000 0.492649 0.697031
O O7 0.766066 0.554769 0.658257
O O8 0.749742 0.380466 0.692834
O O9 0.500000 0.621445 0.437969
O O10 0.751864 0.512557 0.423016
O O11 0.784037 0.697218 0.412683
O O12 0.729823 0.869488 0.431858
O O13 0.000000 0.908774 0.476862
O O14 0.732026 0.000000 0.500000
O O15 0.500000 0.581445 0.608656
O O16 0.500000 0.826037 0.111699
O O17 0.770287 0.793397 0.158263
O O18 0.250000 0.242191 0.750000
O O19 0.500000 0.267695 0.803352
#
# Coordination Sequence:
#
# PCOD9414362 Si02
#       7
#     8   8   8   8   8   8   8
#     4   9  17  28  44  65  86 109 142 178 208 247
#     4  10  18  28  41  58  84 117 152 180 208 244
#     4   9  15  25  41  60  85 116 145 169 200 246
#     4   9  18  33  49  64  86 113 140 174 220 268
#     4   9  16  26  41  61  86 116 145 174 209 246
#     4   9  17  28  42  62  86 113 143 175 212 252
#     4  10  18  27  40  59  85 114 145 177 208 245
#
# _framework density 16.862879
#
# number of rings (size 3 to 8) (size 9 to 14) (size 15 to 20)
#    0.000    2.714    1.429    2.143    0.000    2.571 
#    0.000    2.143    0.000    3.429    0.000    1.000 
#    0.000    6.857    0.000    0.000    0.000    0.000 
#
# Total GULP energy -311893.634272 kJ/mol
# GULP energy per Si atom -5569.529183 kJ/mol
# Density = 1.682450 g / cm^3
# Si number density = 16.862879 Si / 1000 Ang^3
#
#
#
# Elastic Constant Matrix: (Units=GPa)
#
#
# Indices 1 2 3 4 5 6 
#
# 1 17.4941 2.6292 12.2492 0.0000 0.0000 0.0000
# 2 2.6292 72.6005 74.3868 0.0000 0.0000 0.0000
# 3 12.2492 74.3868 161.1473 0.0000 0.0000 0.0000
# 4 0.0000 0.0000 0.0000 19.1504 0.0000 0.0000
# 5 0.0000 0.0000 0.0000 0.0000 25.1864 0.0000
# 6 0.0000 0.0000 0.0000 0.0000 0.0000 18.5148
#
#
#
# Elastic Compliance Matrix: (Units=1/GPa)
#
#
# Indices 1 2 3 4 5 6 
#
# 1 0.061260 0.004843 -0.006892 0.000000 0.000000 0.000000
# 2 0.004843 0.026518 -0.012609 0.000000 0.000000 0.000000
# 3 -0.006892 -0.012609 0.012550 0.000000 0.000000 0.000000
# 4 0.000000 0.000000 0.000000 0.052218 0.000000 0.000000
# 5 0.000000 0.000000 0.000000 0.000000 0.039704 0.000000
# 6 0.000000 0.000000 0.000000 0.000000 0.000000 0.054011
#
#
# Mechanical properties :
#
#
# Convention : Reuss Voigt Hill
#
# Bulk Modulus (GPa) = 14.08218 47.75250 30.91734
# Shear Modulus (GPa) = 16.70860 23.36876 20.03868
#
# Velocity S-wave (km/s) = 3.15119 3.72669 3.45096
# Velocity P-wave (km/s) = 4.64856 6.84815 5.85262
#
# Compressibility (1/GPa) = 0.07101175
#
# Stress axis : x y z
#
# Youngs Moduli (GPa) = 16.32387 37.71048 79.68257
#
# Poissons Ratio (x) = -0.18264 0.54919
# Poissons Ratio (y) = -0.07906 1.00472
# Poissons Ratio (z) = 0.11251 0.47549
#
# Static dielectric constant tensor:
#      x y z
#    x 1.605150 0.000000 0.000000 
#    y 0.000000 1.543210 0.000000 
#    z 0.000000 0.000000 1.640000 
# 
# From -- ./inp_files/38319.got.cif
#   From: 2010.05.17/outbox.cif.g08.bks.cpg/sg53_20_cif.got.tgz:38319.got - 2010.06.03 12:45:16.
