data_PCOD9414075
_publ_section_title
;
Structure prediction by ZEFSAII (Michael W. Deem and Ramdas Pophale) SiO2 
 PCOD9414075
Probable space group: P M N A
;
_chemical_formula_sum "Si O2"
_cell_formula_units_Z 48
_cell_length_a 8.612018
_cell_length_b 18.376822
_cell_length_c 14.869236
_cell_angle_alpha 90.000000
_cell_angle_beta 90.000000
_cell_angle_gamma 90.000000
_cell_volume 2353.227918
_symmetry_space_group_name_H-M "P M N A"
_symmetry_group_IT_number 53
_symmetry_cell_setting 'orthorhombic'
loop_
_space_group_symop_operation_xyz
x,y,z
1/2-x,-y,1/2+z
x,-y,-z
1/2-x,y,1/2-z
-x,-y,-z
1/2+x,y,1/2-z
-x,y,z
1/2+x,-y,1/2+z
loop_
_atom_site_type_symbol
_atom_site_label
_atom_site_fract_x
_atom_site_fract_y
_atom_site_fract_z
Si Si1 0.685352 0.348244 0.852481
Si Si2 0.185789 0.191773 0.351073
Si Si3 0.312725 0.916735 0.502400
Si Si4 0.185112 0.498062 0.852816
Si Si5 0.313570 0.352527 0.147681
Si Si6 0.813805 0.196347 0.850825
O O1 0.750000 0.347145 0.750000
O O2 0.500000 0.349816 0.851957
O O3 0.749121 0.423261 0.893270
O O4 0.745245 0.271701 0.890045
O O5 0.250000 0.185275 0.250000
O O6 0.249639 0.128463 0.413580
O O7 0.228614 0.272540 0.388344
O O8 0.000000 0.188972 0.347679
O O9 0.500000 0.917343 0.507530
O O10 0.269708 0.871211 0.413510
O O11 0.258103 0.000000 0.500000
O O12 0.250000 0.498986 0.750000
O O13 0.241743 0.574420 0.893706
O O14 0.000000 0.495522 0.850912
O O15 0.250000 0.350235 0.250000
O O16 0.500000 0.359803 0.148074
O O17 0.750000 0.186753 0.750000
O O18 0.000000 0.202853 0.847132
#
# Coordination Sequence:
#
# PCOD9414075 Si02
#       6
#     8   8   8   8   8   8
#     4  10  17  27  45  71 105 143 184 228 274 325
#     4  10  21  37  60  87 117 153 192 235 283 338
#     4  10  23  42  62  86 116 148 185 232 287 345
#     4  10  16  23  39  67 103 142 184 227 271 319
#     4   9  16  27  44  71 105 142 184 227 273 322
#     4  10  20  36  58  83 113 148 187 232 281 336
#
# _framework density 20.397514000000001
#
# number of rings (size 3 to 8) (size 9 to 14) (size 15 to 20)
#    0.000    2.167    0.000    7.500    0.000    4.333 
#    0.000    1.667    0.000    1.000    0.000    7.000 
#    0.000    0.000    0.000    0.000    0.000    0.000 
#
# Total GULP energy -267991.153706 kJ/mol
# GULP energy per Si atom -5583.149036 kJ/mol
# Density = 2.035109 g / cm^3
# Si number density = 20.397514 Si / 1000 Ang^3
#
#
#
# Elastic Constant Matrix: (Units=GPa)
#
#
# Indices 1 2 3 4 5 6 
#
# 1 97.3750 73.8428 27.2478 0.0000 0.0000 0.0000
# 2 73.8428 255.4315 73.8118 0.0000 0.0000 0.0000
# 3 27.2478 73.8118 93.3166 0.0000 0.0000 0.0000
# 4 0.0000 0.0000 0.0000 53.1559 0.0000 0.0000
# 5 0.0000 0.0000 0.0000 0.0000 5.7533 0.0000
# 6 0.0000 0.0000 0.0000 0.0000 0.0000 33.6410
#
#
#
# Elastic Compliance Matrix: (Units=1/GPa)
#
#
# Indices 1 2 3 4 5 6 
#
# 1 0.013238 -0.003513 -0.001087 0.000000 0.000000 0.000000
# 2 -0.003513 0.006007 -0.003726 0.000000 0.000000 0.000000
# 3 -0.001087 -0.003726 0.013981 0.000000 0.000000 0.000000
# 4 0.000000 0.000000 0.000000 0.018813 0.000000 0.000000
# 5 0.000000 0.000000 0.000000 0.000000 0.173812 0.000000
# 6 0.000000 0.000000 0.000000 0.000000 0.000000 0.029726
#
#
# Mechanical properties :
#
#
# Convention : Reuss Voigt Hill
#
# Bulk Modulus (GPa) = 60.33331 88.43644 74.38487
# Shear Modulus (GPa) = 18.00173 36.59144 27.29658
#
# Velocity S-wave (km/s) = 2.97399 4.24006 3.66215
# Velocity P-wave (km/s) = 6.43706 8.21105 7.37757
#
# Compressibility (1/GPa) = 0.01657459
#
# Stress axis : x y z
#
# Youngs Moduli (GPa) = 75.54260 166.46942 71.52797
#
# Poissons Ratio (x) = 0.58478 0.07773
# Poissons Ratio (y) = 0.26537 0.26650
# Poissons Ratio (z) = 0.08209 0.62023
#
# Static dielectric constant tensor:
#      x y z
#    x 1.678020 0.000000 0.000000 
#    y 0.000000 1.770230 0.000000 
#    z 0.000000 0.000000 1.762530 
# 
# From -- ./inp_files/20220.got.cif
#   From: 2010.05.17/outbox.cif.g08.bks.cpg/sg53_11_cif.got.tgz:20220.got - 2010.06.03 12:45:16.
