data_PCOD9414710
_publ_section_title
;
Structure prediction by ZEFSAII (Michael W. Deem and Ramdas Pophale) SiO2 
 PCOD9414710
Probable space group: P M N A
;
_chemical_formula_sum "Si O2"
_cell_formula_units_Z 56
_cell_length_a 8.604099
_cell_length_b 19.882772
_cell_length_c 18.602959
_cell_angle_alpha 90.000000
_cell_angle_beta 90.000000
_cell_angle_gamma 90.000000
_cell_volume 3182.470306
_symmetry_space_group_name_H-M "P M N A"
_symmetry_group_IT_number 53
_symmetry_cell_setting 'orthorhombic'
loop_
_space_group_symop_operation_xyz
x,y,z
1/2-x,-y,1/2+z
x,-y,-z
1/2-x,y,1/2-z
-x,-y,-z
1/2+x,y,1/2-z
-x,y,z
1/2+x,-y,1/2+z
loop_
_atom_site_type_symbol
_atom_site_label
_atom_site_fract_x
_atom_site_fract_y
_atom_site_fract_z
Si Si1 0.313797 0.273332 0.395402
Si Si2 0.313546 0.696802 0.330804
Si Si3 0.311511 0.072789 0.471088
Si Si4 0.813723 0.556958 0.331616
Si Si5 0.811736 0.792489 0.045514
Si Si6 0.313628 0.591122 0.831408
Si Si7 0.814826 0.139173 0.327674
O O1 0.500000 0.270358 0.388818
O O2 0.270309 0.252906 0.476621
O O3 0.254479 0.346533 0.374559
O O4 0.243021 0.214949 0.345278
O O5 0.250000 0.703139 0.250000
O O6 0.500000 0.696355 0.327857
O O7 0.258153 0.625021 0.362869
O O8 0.257488 0.757136 0.381854
O O9 0.500000 0.074171 0.466684
O O10 0.261351 0.132122 0.525815
O O11 0.247561 0.093106 0.392926
O O12 0.263774 0.000000 0.500000
O O13 0.750000 0.555337 0.250000
O O14 0.773012 0.483224 0.361860
O O15 0.000000 0.563245 0.330404
O O16 0.000000 0.793925 0.049001
O O17 0.250000 0.595180 0.750000
O O18 0.500000 0.595770 0.829043
O O19 0.750000 0.118753 0.250000
O O20 0.000000 0.138013 0.326907
#
# Coordination Sequence:
#
# PCOD9414710 Si02
#       7
#     8   8   8   8   8   8   8
#     4  10  19  33  51  71  98 132 170 208 249 298
#     4  10  18  31  51  72  95 123 161 206 248 293
#     4   9  18  36  60  81 105 138 171 205 251 303
#     4   9  17  29  45  66  93 125 163 204 248 295
#     4   8  17  33  52  74  98 127 162 198 242 299
#     4  10  19  30  45  68  97 129 165 206 250 295
#     4  11  21  34  53  78 108 139 174 212 250 296
#
# _framework density 17.596392999999999
#
# number of rings (size 3 to 8) (size 9 to 14) (size 15 to 20)
#    0.000    2.429    0.000    5.143    0.000    2.000 
#    0.000    8.571    0.000    6.000    0.000    0.000 
#    0.000    0.000    0.000    0.000    0.000    0.000 
#
# Total GULP energy -312206.940800 kJ/mol
# GULP energy per Si atom -5575.123943 kJ/mol
# Density = 1.755634 g / cm^3
# Si number density = 17.596393 Si / 1000 Ang^3
#
#
#
# Elastic Constant Matrix: (Units=GPa)
#
#
# Indices 1 2 3 4 5 6 
#
# 1 62.6303 42.3999 28.8429 0.0000 0.0000 0.0000
# 2 42.3999 170.4883 86.3795 0.0000 0.0000 0.0000
# 3 28.8429 86.3795 83.7318 0.0000 0.0000 0.0000
# 4 0.0000 0.0000 0.0000 21.4760 0.0000 0.0000
# 5 0.0000 0.0000 0.0000 0.0000 21.2424 0.0000
# 6 0.0000 0.0000 0.0000 0.0000 0.0000 28.9237
#
#
#
# Elastic Compliance Matrix: (Units=1/GPa)
#
#
# Indices 1 2 3 4 5 6 
#
# 1 0.019712 -0.003063 -0.003630 0.000000 0.000000 0.000000
# 2 -0.003063 0.012764 -0.012113 0.000000 0.000000 0.000000
# 3 -0.003630 -0.012113 0.025689 0.000000 0.000000 0.000000
# 4 0.000000 0.000000 0.000000 0.046564 0.000000 0.000000
# 5 0.000000 0.000000 0.000000 0.000000 0.047076 0.000000
# 6 0.000000 0.000000 0.000000 0.000000 0.000000 0.034574
#
#
# Mechanical properties :
#
#
# Convention : Reuss Voigt Hill
#
# Bulk Modulus (GPa) = 48.65366 70.23276 59.44321
# Shear Modulus (GPa) = 21.65978 24.94362 23.30170
#
# Velocity S-wave (km/s) = 3.51226 3.76911 3.64295
# Velocity P-wave (km/s) = 6.64513 7.67733 7.17980
#
# Compressibility (1/GPa) = 0.02055344
#
# Stress axis : x y z
#
# Youngs Moduli (GPa) = 50.72999 78.34300 38.92661
#
# Poissons Ratio (x) = 0.23997 0.14132
# Poissons Ratio (y) = 0.15539 0.47151
# Poissons Ratio (z) = 0.18417 0.94896
#
# Static dielectric constant tensor:
#      x y z
#    x 1.599110 0.000000 0.000000 
#    y 0.000000 1.619340 0.000000 
#    z 0.000000 0.000000 1.584000 
# 
# From -- ./inp_files/20562.got.cif
#   From: 2010.05.17/outbox.cif.g08.bks.cpg/sg53_11_cif.got.tgz:20562.got - 2010.06.03 12:45:16.
