data_PCOD9414403
_publ_section_title
;
Structure prediction by ZEFSAII (Michael W. Deem and Ramdas Pophale) SiO2 
 PCOD9414403
Probable space group: P M N A
;
_chemical_formula_sum "Si O2"
_cell_formula_units_Z 64
_cell_length_a 8.815317
_cell_length_b 27.158146
_cell_length_c 18.793630
_cell_angle_alpha 90.000000
_cell_angle_beta 90.000000
_cell_angle_gamma 90.000000
_cell_volume 4499.339096
_symmetry_space_group_name_H-M "P M N A"
_symmetry_group_IT_number 53
_symmetry_cell_setting 'orthorhombic'
loop_
_space_group_symop_operation_xyz
x,y,z
1/2-x,-y,1/2+z
x,-y,-z
1/2-x,y,1/2-z
-x,-y,-z
1/2+x,y,1/2-z
-x,y,z
1/2+x,-y,1/2+z
loop_
_atom_site_type_symbol
_atom_site_label
_atom_site_fract_x
_atom_site_fract_y
_atom_site_fract_z
Si Si1 0.683002 0.102345 0.587299
Si Si2 0.182847 0.490901 0.828110
Si Si3 0.319534 0.009272 0.828070
Si Si4 0.681064 0.600988 0.086195
Si Si5 0.182197 0.304668 0.672828
Si Si6 0.174828 0.048663 0.050173
Si Si7 0.317421 0.808546 0.171816
Si Si8 0.824875 0.447788 0.042254
O O1 0.500000 0.100586 0.591793
O O2 0.749997 0.058725 0.636535
O O3 0.724963 0.090746 0.505106
O O4 0.747264 0.153296 0.616456
O O5 0.250000 0.495512 0.750000
O O6 0.243372 0.440887 0.864479
O O7 0.228283 0.536459 0.879432
O O8 0.000000 0.489099 0.826982
O O9 0.250000 0.002552 0.750000
O O10 0.500000 0.014027 0.823945
O O11 0.273334 0.965069 0.881536
O O12 0.500000 0.596416 0.092105
O O13 0.728081 0.654327 0.115686
O O14 0.730686 0.589639 0.005581
O O15 0.250000 0.316980 0.750000
O O16 0.223950 0.248295 0.655386
O O17 0.000000 0.306067 0.678711
O O18 0.000000 0.057000 0.071837
O O19 0.175759 0.000000 0.000000
O O20 0.250000 0.819698 0.250000
O O21 0.500000 0.813035 0.173703
O O22 0.000000 0.431766 0.044963
O O23 0.821749 0.500000 0.000000
#
# Coordination Sequence:
#
# PCOD9414403 Si02
#       8
#     8   8   8   8   8   8   8   8
#     4  10  19  31  45  61  83 110 140 172 208 245
#     4  10  19  29  41  59  83 109 138 170 204 242
#     4  11  20  29  43  62  85 112 142 171 202 242
#     4  10  18  28  43  61  81 108 141 171 204 244
#     4   9  19  31  42  59  82 108 138 174 208 239
#     4   8  16  30  44  59  82 108 134 169 207 242
#     4  10  19  31  44  59  82 109 140 175 208 241
#     4   8  16  29  41  56  80 107 134 167 204 241
#
# _framework density 14.224309999999999
#
# number of rings (size 3 to 8) (size 9 to 14) (size 15 to 20)
#    0.000    2.500    0.000    4.875    0.000    8.000 
#    0.000    0.000    0.000    0.000    0.000    0.000 
#    0.000    1.000    0.000    6.500    0.000    5.250 
#
# Total GULP energy -356629.190221 kJ/mol
# GULP energy per Si atom -5572.331097 kJ/mol
# Density = 1.419194 g / cm^3
# Si number density = 14.224310 Si / 1000 Ang^3
#
#
#
# Elastic Constant Matrix: (Units=GPa)
#
#
# Indices 1 2 3 4 5 6 
#
# 1 58.7461 30.6080 41.6970 0.0000 0.0000 0.0000
# 2 30.6080 74.9262 48.1522 0.0000 0.0000 0.0000
# 3 41.6970 48.1522 99.4869 0.0000 0.0000 0.0000
# 4 0.0000 0.0000 0.0000 27.0034 0.0000 0.0000
# 5 0.0000 0.0000 0.0000 0.0000 24.5232 0.0000
# 6 0.0000 0.0000 0.0000 0.0000 0.0000 110.1337
#
#
#
# Elastic Compliance Matrix: (Units=1/GPa)
#
#
# Indices 1 2 3 4 5 6 
#
# 1 0.025534 -0.005157 -0.008205 0.000000 0.000000 0.000000
# 2 -0.005157 0.020414 -0.007719 0.000000 0.000000 0.000000
# 3 -0.008205 -0.007719 0.017227 0.000000 0.000000 0.000000
# 4 0.000000 0.000000 0.000000 0.037032 0.000000 0.000000
# 5 0.000000 0.000000 0.000000 0.000000 0.040778 0.000000
# 6 0.000000 0.000000 0.000000 0.000000 0.000000 0.009080
#
#
# Mechanical properties :
#
#
# Convention : Reuss Voigt Hill
#
# Bulk Modulus (GPa) = 47.59473 52.67486 50.13479
# Shear Modulus (GPa) = 25.09647 39.84554 32.47100
#
# Velocity S-wave (km/s) = 4.20496 5.29840 4.78303
# Velocity P-wave (km/s) = 7.55701 8.63381 8.11329
#
# Compressibility (1/GPa) = 0.02101073
#
# Stress axis : x y z
#
# Youngs Moduli (GPa) = 39.16405 48.98615 58.04953
#
# Poissons Ratio (x) = 0.25264 0.47633
# Poissons Ratio (y) = 0.20198 0.44808
# Poissons Ratio (z) = 0.32136 0.37812
#
# Static dielectric constant tensor:
#      x y z
#    x 1.476350 0.000000 0.000000 
#    y 0.000000 1.465440 0.000000 
#    z 0.000000 0.000000 1.472130 
# 
# From -- ./inp_files/27085.got.cif
#   From: 2010.05.17/outbox.cif.g08.bks.cpg/sg53_14_cif.got.tgz:27085.got - 2010.06.03 12:45:16.
