data_PCOD9414561
_publ_section_title
;
Structure prediction by ZEFSAII (Michael W. Deem and Ramdas Pophale) SiO2 
 PCOD9414561
Probable space group: P M N A
;
_chemical_formula_sum "Si O2"
_cell_formula_units_Z 64
_cell_length_a 8.087170
_cell_length_b 14.634818
_cell_length_c 30.542448
_cell_angle_alpha 90.000000
_cell_angle_beta 90.000000
_cell_angle_gamma 90.000000
_cell_volume 3614.828865
_symmetry_space_group_name_H-M "P M N A"
_symmetry_group_IT_number 53
_symmetry_cell_setting 'orthorhombic'
loop_
_space_group_symop_operation_xyz
x,y,z
1/2-x,-y,1/2+z
x,-y,-z
1/2-x,y,1/2-z
-x,-y,-z
1/2+x,y,1/2-z
-x,y,z
1/2+x,-y,1/2+z
loop_
_atom_site_type_symbol
_atom_site_label
_atom_site_fract_x
_atom_site_fract_y
_atom_site_fract_z
Si Si1 0.305560 0.034454 0.940407
Si Si2 0.191487 0.801887 0.005875
Si Si3 0.309918 0.299261 0.077363
Si Si4 0.803292 0.997814 0.799219
Si Si5 0.800406 0.876260 0.619200
Si Si6 0.696521 0.324246 0.592436
Si Si7 0.298007 0.157270 0.641785
Si Si8 0.303231 0.504906 0.549842
O O1 0.500000 0.024459 0.949153
O O2 0.230229 0.094466 0.979517
O O3 0.277249 0.098708 0.897951
O O4 0.236734 0.939116 0.921311
O O5 0.214694 0.737969 0.048789
O O6 0.000000 0.794194 0.993033
O O7 0.299513 0.758850 0.967616
O O8 0.500000 0.319855 0.087567
O O9 0.241359 0.227434 0.112968
O O10 0.222075 0.395010 0.069438
O O11 0.750000 0.978685 0.750000
O O12 0.750747 0.099672 0.815375
O O13 0.000000 0.995367 0.801138
O O14 0.741210 0.925730 0.835450
O O15 0.000000 0.874982 0.615333
O O16 0.500000 0.335495 0.600183
O O17 0.757547 0.261104 0.632552
O O18 0.766236 0.423295 0.580075
O O19 0.500000 0.154638 0.637704
O O20 0.236011 0.500000 0.500000
O O21 0.500000 0.488248 0.546161
#
# Coordination Sequence:
#
# PCOD9414561 Si02
#       8
#     8   8   8   8   8   8   8   8
#     4   9  16  28  45  64  88 122 160 198 239 284
#     4  10  18  30  45  63  89 125 165 204 243 287
#     4  11  22  33  45  65  93 127 167 212 250 282
#     4  10  19  32  54  80 103 125 155 189 232 289
#     4   9  20  36  49  65  97 131 159 197 246 291
#     4   8  14  27  46  64  89 123 159 197 239 282
#     4   8  15  28  46  70  96 125 155 187 228 287
#     4  10  18  31  48  67  91 126 168 211 255 290
#
# _framework density 17.704847999999998
#
# number of rings (size 3 to 8) (size 9 to 14) (size 15 to 20)
#    0.000    2.625    1.250    2.250    0.000    2.750 
#    0.000    3.125    0.000    0.000    0.000    0.875 
#    0.000    4.000    0.000    0.000    0.000    0.000 
#
# Total GULP energy -356519.915232 kJ/mol
# GULP energy per Si atom -5570.623676 kJ/mol
# Density = 1.766455 g / cm^3
# Si number density = 17.704848 Si / 1000 Ang^3
#
#
#
# Elastic Constant Matrix: (Units=GPa)
#
#
# Indices 1 2 3 4 5 6 
#
# 1 13.4240 5.1572 4.3166 0.0000 0.0000 0.0000
# 2 5.1572 131.8110 34.6824 0.0000 0.0000 0.0000
# 3 4.3166 34.6824 72.2106 0.0000 0.0000 0.0000
# 4 0.0000 0.0000 0.0000 16.9139 0.0000 0.0000
# 5 0.0000 0.0000 0.0000 0.0000 -13.7619 0.0000
# 6 0.0000 0.0000 0.0000 0.0000 0.0000 18.4636
#
#
#
# Elastic Compliance Matrix: (Units=1/GPa)
#
#
# Indices 1 2 3 4 5 6 
#
# 1 0.076433 -0.002047 -0.003586 0.000000 0.000000 0.000000
# 2 -0.002047 0.008739 -0.004075 0.000000 0.000000 0.000000
# 3 -0.003586 -0.004075 0.016020 0.000000 0.000000 0.000000
# 4 0.000000 0.000000 0.000000 0.059123 0.000000 0.000000
# 5 0.000000 0.000000 0.000000 0.000000 -0.072664 0.000000
# 6 0.000000 0.000000 0.000000 0.000000 0.000000 0.054160
#
#
# Mechanical properties :
#
#
# Convention : Reuss Voigt Hill
#
# Bulk Modulus (GPa) = 12.22851 33.97312 23.10081
# Shear Modulus (GPa) = 26.52730 15.87575 21.20152
#
# Velocity S-wave (km/s) = 3.87500 2.99773 3.46424
# Velocity P-wave (km/s) = 5.19063 5.58678 5.39234
#
# Compressibility (1/GPa) = 0.08177611
#
# Stress axis : x y z
#
# Youngs Moduli (GPa) = 13.08339 114.43090 62.42244
#
# Poissons Ratio (x) = 0.23424 0.22384
# Poissons Ratio (y) = 0.02678 0.25436
# Poissons Ratio (z) = 0.04692 0.46629
#
# Static dielectric constant tensor:
#      x y z
#    x 1.620510 0.000000 0.000000 
#    y 0.000000 1.666570 0.000000 
#    z 0.000000 0.000000 1.637950 
# 
# From -- ./inp_files/38455.got.cif
#   From: 2010.05.17/outbox.cif.g08.bks.cpg/sg53_20_cif.got.tgz:38455.got - 2010.06.03 12:45:16.
