data_PCOD9414143
_publ_section_title
;
Structure prediction by ZEFSAII (Michael W. Deem and Ramdas Pophale) SiO2 
 PCOD9414143
Probable space group: P M N A
;
_chemical_formula_sum "Si O2"
_cell_formula_units_Z 48
_cell_length_a 8.811716
_cell_length_b 15.781925
_cell_length_c 20.458406
_cell_angle_alpha 90.000000
_cell_angle_beta 90.000000
_cell_angle_gamma 90.000000
_cell_volume 2845.065437
_symmetry_space_group_name_H-M "P M N A"
_symmetry_group_IT_number 53
_symmetry_cell_setting 'orthorhombic'
loop_
_space_group_symop_operation_xyz
x,y,z
1/2-x,-y,1/2+z
x,-y,-z
1/2-x,y,1/2-z
-x,-y,-z
1/2+x,y,1/2-z
-x,y,z
1/2+x,-y,1/2+z
loop_
_atom_site_type_symbol
_atom_site_label
_atom_site_fract_x
_atom_site_fract_y
_atom_site_fract_z
Si Si1 0.318843 0.962371 0.929161
Si Si2 0.181933 0.596850 0.937753
Si Si3 0.181380 0.216004 0.045296
Si Si4 0.818294 0.085532 0.821001
Si Si5 0.819131 0.571483 0.416678
Si Si6 0.181969 0.743272 0.106371
O O1 0.500000 0.968360 0.923739
O O2 0.266664 0.865063 0.927327
O O3 0.242798 0.017995 0.873017
O O4 0.273161 0.000000 0.000000
O O5 0.215968 0.694224 0.919817
O O6 0.252037 0.519863 0.896459
O O7 0.000000 0.587550 0.941531
O O8 0.250901 0.586600 0.010573
O O9 0.000000 0.202226 0.048923
O O10 0.219501 0.228154 0.968181
O O11 0.750000 0.070222 0.750000
O O12 0.775954 0.179545 0.846618
O O13 0.000000 0.081238 0.819044
O O14 0.763169 0.654507 0.378455
O O15 0.000000 0.567678 0.419391
O O16 0.000000 0.730168 0.108091
#
# Coordination Sequence:
#
# PCOD9414143 Si02
#       6
#     8   8   8   8   8   8
#     4  11  22  34  52  79 107 137 175 221 269 318
#     4   9  16  27  41  62  96 133 167 202 248 305
#     4   9  17  30  49  72  98 134 176 212 257 311
#     4  11  23  39  57  76 104 139 178 221 267 320
#     4  10  17  24  40  66  96 129 164 205 249 295
#     4   9  18  32  49  69  97 136 171 205 255 314
#
# _framework density 16.871317000000001
#
# number of rings (size 3 to 8) (size 9 to 14) (size 15 to 20)
#    0.000    2.167    1.667    5.000    0.000    5.333 
#    0.000    0.000    0.000    0.000    0.000    1.167 
#    0.000    5.333    0.000    0.000    0.000    0.000 
#
# Total GULP energy -267613.435210 kJ/mol
# GULP energy per Si atom -5575.279900 kJ/mol
# Density = 1.683292 g / cm^3
# Si number density = 16.871317 Si / 1000 Ang^3
#
#
#
# Elastic Constant Matrix: (Units=GPa)
#
#
# Indices 1 2 3 4 5 6 
#
# 1 70.0919 67.9451 33.3096 0.0000 0.0000 0.0000
# 2 67.9451 169.1152 55.5503 0.0000 0.0000 0.0000
# 3 33.3096 55.5503 68.5408 0.0000 0.0000 0.0000
# 4 0.0000 0.0000 0.0000 12.7553 0.0000 0.0000
# 5 0.0000 0.0000 0.0000 0.0000 21.7623 0.0000
# 6 0.0000 0.0000 0.0000 0.0000 0.0000 33.3067
#
#
#
# Elastic Compliance Matrix: (Units=1/GPa)
#
#
# Indices 1 2 3 4 5 6 
#
# 1 0.024758 -0.008170 -0.005411 0.000000 0.000000 0.000000
# 2 -0.008170 0.010754 -0.004746 0.000000 0.000000 0.000000
# 3 -0.005411 -0.004746 0.021066 0.000000 0.000000 0.000000
# 4 0.000000 0.000000 0.000000 0.078399 0.000000 0.000000
# 5 0.000000 0.000000 0.000000 0.000000 0.045951 0.000000
# 6 0.000000 0.000000 0.000000 0.000000 0.000000 0.030024
#
#
# Mechanical properties :
#
#
# Convention : Reuss Voigt Hill
#
# Bulk Modulus (GPa) = 50.18651 69.03976 59.61314
# Shear Modulus (GPa) = 19.66609 23.62772 21.64691
#
# Velocity S-wave (km/s) = 3.41787 3.74634 3.58587
# Velocity P-wave (km/s) = 6.73699 7.72811 7.24951
#
# Compressibility (1/GPa) = 0.01992567
#
# Stress axis : x y z
#
# Youngs Moduli (GPa) = 40.39170 92.98639 47.47076
#
# Poissons Ratio (x) = 0.75966 0.25684
# Poissons Ratio (y) = 0.32998 0.22528
# Poissons Ratio (z) = 0.21854 0.44129
#
# Static dielectric constant tensor:
#      x y z
#    x 1.557680 0.000000 0.000000 
#    y 0.000000 1.618750 0.000000 
#    z 0.000000 0.000000 1.542590 
# 
# From -- ./inp_files/33992.got.cif
#   From: 2010.05.17/outbox.cif.g08.bks.cpg/sg53_17_cif.got.tgz:33992.got - 2010.06.03 12:45:16.
