data_PCOD9414086
_publ_section_title
;
Structure prediction by ZEFSAII (Michael W. Deem and Ramdas Pophale) SiO2 
 PCOD9414086
Probable space group: P M N A
;
_chemical_formula_sum "Si O2"
_cell_formula_units_Z 32
_cell_length_a 5.610382
_cell_length_b 15.982942
_cell_length_c 13.792931
_cell_angle_alpha 90.000000
_cell_angle_beta 90.000000
_cell_angle_gamma 90.000000
_cell_volume 1236.817779
_symmetry_space_group_name_H-M "P M N A"
_symmetry_group_IT_number 53
_symmetry_cell_setting 'orthorhombic'
loop_
_space_group_symop_operation_xyz
x,y,z
1/2-x,-y,1/2+z
x,-y,-z
1/2-x,y,1/2-z
-x,-y,-z
1/2+x,y,1/2-z
-x,y,z
1/2+x,-y,1/2+z
loop_
_atom_site_type_symbol
_atom_site_label
_atom_site_fract_x
_atom_site_fract_y
_atom_site_fract_z
Si Si1 0.000000 0.734576 0.378651
Si Si2 0.500000 0.825739 0.593741
Si Si3 0.500000 0.084631 0.845982
Si Si4 0.500000 0.245558 0.101322
Si Si5 0.000000 0.978720 0.129901
Si Si6 0.500000 0.448374 0.103187
Si Si7 0.000000 0.302464 0.936793
Si Si8 0.500000 0.444379 0.405321
O O1 0.000000 0.817356 0.313967
O O2 0.000000 0.774020 0.486733
O O3 0.252900 0.685466 0.378062
O O4 0.250781 0.790668 0.638656
O O5 0.500000 0.924670 0.601852
O O6 0.500000 0.789704 0.483370
O O7 0.500000 0.032067 0.746645
O O8 0.254176 0.061678 0.899209
O O9 0.500000 0.346721 0.099411
O O10 0.243280 0.464561 0.147304
O O11 0.500000 0.500000 0.000000
O O12 0.000000 0.355736 0.037389
O O13 0.500000 0.500000 0.500000
#
# Coordination Sequence:
#
# PCOD9414086 Si02
#       8
#     4   4   4   4   4   4   4   4
#     4  10  18  30  48  65  91 124 155 197 235 283
#     4  10  18  30  48  65  91 124 155 197 235 283
#     4  10  21  37  52  66  85 116 160 206 253 286
#     4  10  17  30  43  70 100 127 157 181 234 286
#     4  10  21  37  52  66  85 116 160 206 253 286
#     4  10  16  25  41  63  96 137 164 178 211 271
#     4  10  17  30  43  70 100 127 157 181 234 286
#     4  10  16  25  41  63  96 137 164 178 211 271
#
# _framework density 25.872852000000002
#
# number of rings (size 3 to 8) (size 9 to 14) (size 15 to 20)
#    0.000    2.000    5.000    1.500    0.000    0.000 
#    0.000   15.000    0.000    0.000    0.000    0.000 
#    0.000    0.000    0.000  108.000    0.000    0.000 
#
# Total GULP energy -178387.026105 kJ/mol
# GULP energy per Si atom -5574.594566 kJ/mol
# Density = 2.581396 g / cm^3
# Si number density = 25.872852 Si / 1000 Ang^3
#
#
#
# Elastic Constant Matrix: (Units=GPa)
#
#
# Indices 1 2 3 4 5 6 
#
# 1 366.1003 35.0770 20.8256 0.0000 0.0000 0.0000
# 2 35.0770 71.0848 14.8323 0.0000 0.0000 0.0000
# 3 20.8256 14.8323 69.7520 0.0000 0.0000 0.0000
# 4 0.0000 0.0000 0.0000 -80.6431 0.0000 0.0000
# 5 0.0000 0.0000 0.0000 0.0000 -38.7894 0.0000
# 6 0.0000 0.0000 0.0000 0.0000 0.0000 29.0541
#
#
#
# Elastic Compliance Matrix: (Units=1/GPa)
#
#
# Indices 1 2 3 4 5 6 
#
# 1 0.002890 -0.001304 -0.000586 0.000000 0.000000 0.000000
# 2 -0.001304 0.015309 -0.002866 0.000000 0.000000 0.000000
# 3 -0.000586 -0.002866 0.015121 0.000000 0.000000 0.000000
# 4 0.000000 0.000000 0.000000 -0.012400 0.000000 0.000000
# 5 0.000000 0.000000 0.000000 0.000000 -0.025780 0.000000
# 6 0.000000 0.000000 0.000000 0.000000 0.000000 0.034419
#
#
# Mechanical properties :
#
#
# Convention : Reuss Voigt Hill
#
# Bulk Modulus (GPa) = 42.00136 72.04523 57.02329
# Shear Modulus (GPa) = 106.37254 11.00448 58.68851
#
# Velocity S-wave (km/s) = 6.41894 2.06459 4.76788
# Velocity P-wave (km/s) = 8.43837 5.79566 7.23864
#
# Compressibility (1/GPa) = 0.02380875
#
# Stress axis : x y z
#
# Youngs Moduli (GPa) = 346.05466 65.32074 66.13417
#
# Poissons Ratio (x) = 0.08516 0.03872
# Poissons Ratio (y) = 0.45117 0.18955
# Poissons Ratio (z) = 0.20263 0.18722
#
# Static dielectric constant tensor:
#      x y z
#    x 2.198920 0.000000 0.000000 
#    y 0.000000 1.744870 0.000000 
#    z 0.000000 0.000000 2.419710 
# 
# From -- ./inp_files/25360.got.cif
#   From: 2010.05.17/outbox.cif.g08.bks.cpg/sg53_13_cif.got.tgz:25360.got - 2010.06.03 12:45:16.
