data_PCOD9414272
_publ_section_title
;
Structure prediction by ZEFSAII (Michael W. Deem and Ramdas Pophale) SiO2 
 PCOD9414272
Probable space group: P M N A
;
_chemical_formula_sum "Si O2"
_cell_formula_units_Z 64
_cell_length_a 14.403775
_cell_length_b 11.143256
_cell_length_c 17.245029
_cell_angle_alpha 90.000000
_cell_angle_beta 90.000000
_cell_angle_gamma 90.000000
_cell_volume 2767.912555
_symmetry_space_group_name_H-M "P M N A"
_symmetry_group_IT_number 53
_symmetry_cell_setting 'orthorhombic'
loop_
_space_group_symop_operation_xyz
x,y,z
1/2-x,-y,1/2+z
x,-y,-z
1/2-x,y,1/2-z
-x,-y,-z
1/2+x,y,1/2-z
-x,y,z
1/2+x,-y,1/2+z
loop_
_atom_site_type_symbol
_atom_site_label
_atom_site_fract_x
_atom_site_fract_y
_atom_site_fract_z
Si Si1 0.220271 0.500000 0.413824
Si Si2 0.360603 0.142068 0.415780
Si Si3 0.648386 0.768809 0.914862
Si Si4 0.637161 0.756541 0.749524
Si Si5 0.851614 0.768809 0.414862
Si Si6 0.137161 0.243459 0.750476
Si Si7 0.600451 0.500000 0.694982
Si Si8 0.360603 0.857932 0.415780
O O1 0.261373 0.500000 0.500000
O O2 0.163766 0.375752 0.408206
O O3 0.163766 0.624248 0.408206
O O4 0.307539 0.500000 0.356997
O O5 0.251219 0.173618 0.416554
O O6 0.394838 0.190771 0.333054
O O7 0.395751 0.188425 0.500000
O O8 0.374380 0.000000 0.415260
O O9 0.606289 0.808953 0.832487
O O10 0.606594 0.793620 1.000000
O O11 0.750000 0.763559 0.750000
O O12 0.607638 0.618729 0.745569
O O13 0.893711 0.808953 0.332487
O O14 0.748781 0.826382 0.416554
O O15 0.250000 0.236441 0.750000
O O16 0.107638 0.381271 0.754431
O O17 0.105162 0.190771 0.833054
O O18 0.500000 0.500000 0.653942
#
# Coordination Sequence:
#
# PCOD9414272 Si02
#       8
#     8   8   8   8   8   8   8   8
#     4  10  17  30  46  67  94 126 162 195 235 286
#     4   9  17  28  45  73 103 126 156 200 241 284
#     4   9  17  28  49  73  95 123 164 203 235 280
#     4  10  18  31  52  69  94 131 165 195 242 288
#     4   9  17  28  49  73  95 123 164 203 235 280
#     4  10  18  31  52  69  94 131 165 195 242 288
#     4  12  22  31  46  73 102 127 160 205 243 283
#     4   9  17  28  45  73 103 126 156 200 241 284
#
# _framework density 23.122118
#
# number of rings (size 3 to 8) (size 9 to 14) (size 15 to 20)
#    0.000    2.250    5.000    1.125    0.000    4.750 
#    0.000    0.000    0.000    2.250    0.000    1.750 
#    0.000    0.000    0.000   65.500    0.000    0.000 
#
# Total GULP energy -356714.950647 kJ/mol
# GULP energy per Si atom -5573.671104 kJ/mol
# Density = 2.306949 g / cm^3
# Si number density = 23.122118 Si / 1000 Ang^3
#
#
#
# Elastic Constant Matrix: (Units=GPa)
#
#
# Indices 1 2 3 4 5 6 
#
# 1 83.3480 -3.7782 23.3205 0.0000 0.0000 0.0000
# 2 -3.7782 43.4410 39.6988 0.0000 0.0000 0.0000
# 3 23.3205 39.6988 299.0202 0.0000 0.0000 0.0000
# 4 0.0000 0.0000 0.0000 90.4260 0.0000 0.0000
# 5 0.0000 0.0000 0.0000 0.0000 -21.4902 0.0000
# 6 0.0000 0.0000 0.0000 0.0000 0.0000 -24.9185
#
#
#
# Elastic Compliance Matrix: (Units=1/GPa)
#
#
# Indices 1 2 3 4 5 6 
#
# 1 0.012455 0.002243 -0.001269 0.000000 0.000000 0.000000
# 2 0.002243 0.026602 -0.003707 0.000000 0.000000 0.000000
# 3 -0.001269 -0.003707 0.003935 0.000000 0.000000 0.000000
# 4 0.000000 0.000000 0.000000 0.011059 0.000000 0.000000
# 5 0.000000 0.000000 0.000000 0.000000 -0.046533 0.000000
# 6 0.000000 0.000000 0.000000 0.000000 0.000000 -0.040131
#
#
# Mechanical properties :
#
#
# Convention : Reuss Voigt Hill
#
# Bulk Modulus (GPa) = 26.64778 60.47679 43.56229
# Shear Modulus (GPa) = -341.57231 33.24133 -154.16549
#
# Velocity S-wave (km/s) = -12.16742 3.79574 -8.17430
# Velocity P-wave (km/s) = 13.63249 6.73961 8.37922
#
# Compressibility (1/GPa) = 0.03752658
#
# Stress axis : x y z
#
# Youngs Moduli (GPa) = 80.29118 37.59086 254.10711
#
# Poissons Ratio (x) = -0.08432 0.32249
# Poissons Ratio (y) = -0.18009 0.94190
# Poissons Ratio (z) = 0.10190 0.13934
#
# Static dielectric constant tensor:
#      x y z
#    x 1.851700 0.000000 0.000000 
#    y 0.000000 1.825190 0.000000 
#    z 0.000000 0.000000 1.964060 
# 
# From -- ./inp_files/28512.got.cif
#   From: 2010.05.17/outbox.cif.g08.bks.cpg/sg53_15_cif.got.tgz:28512.got - 2010.06.03 12:45:16.
