data_PCOD9414829
_publ_section_title
;
Structure prediction by ZEFSAII (Michael W. Deem and Ramdas Pophale) SiO2 
 PCOD9414829
Probable space group: P M N A
;
_chemical_formula_sum "Si O2"
_cell_formula_units_Z 64
_cell_length_a 18.397971
_cell_length_b 10.826220
_cell_length_c 16.976390
_cell_angle_alpha 90.000000
_cell_angle_beta 90.000000
_cell_angle_gamma 90.000000
_cell_volume 3381.365536
_symmetry_space_group_name_H-M "P M N A"
_symmetry_group_IT_number 53
_symmetry_cell_setting 'orthorhombic'
loop_
_space_group_symop_operation_xyz
x,y,z
1/2-x,-y,1/2+z
x,-y,-z
1/2-x,y,1/2-z
-x,-y,-z
1/2+x,y,1/2-z
-x,y,z
1/2+x,-y,1/2+z
loop_
_atom_site_type_symbol
_atom_site_label
_atom_site_fract_x
_atom_site_fract_y
_atom_site_fract_z
Si Si1 0.271191 0.056584 0.416355
Si Si2 0.419142 0.564406 0.807712
Si Si3 0.733059 0.190845 0.839220
Si Si4 0.123333 0.292126 0.884958
Si Si5 0.771120 0.309399 0.341936
Si Si6 0.879415 0.425729 0.125061
Si Si7 0.579233 0.175471 0.459476
Si Si8 0.418035 0.271814 0.798628
O O1 0.233206 0.182655 0.390119
O O2 0.355694 0.093211 0.426102
O O3 0.246818 0.000000 0.500000
O O4 0.257135 0.949288 0.353763
O O5 0.500000 0.605825 0.831717
O O6 0.350507 0.631263 0.846101
O O7 0.409446 0.583615 0.713887
O O8 0.414084 0.417155 0.819005
O O9 0.750000 0.229986 0.750000
O O10 0.789251 0.271825 0.890169
O O11 0.646977 0.207373 0.846332
O O12 0.105517 0.435026 0.902523
O O13 0.097557 0.263806 0.795799
O O14 0.089329 0.199615 0.947778
O O15 0.750000 0.284809 0.250000
O O16 0.707385 0.400758 0.371565
O O17 0.912271 0.312788 0.076780
O O18 0.500000 0.125100 0.441212
O O19 0.500000 0.227609 0.813919
#
# Coordination Sequence:
#
# PCOD9414829 Si02
#       8
#     8   8   8   8   8   8   8   8
#     4  11  22  39  53  73 100 143 189 222 258 303
#     4   9  16  30  53  82 110 135 169 221 275 320
#     4  10  20  36  56  76 103 140 186 226 263 306
#     4  10  18  32  52  81 113 145 172 206 255 323
#     4   9  18  33  54  77 104 141 182 220 259 310
#     4   9  18  30  50  80 114 144 174 203 254 323
#     4  11  22  34  51  77 113 148 174 206 255 315
#     4   9  18  32  55  83 109 134 170 222 275 318
#
# _framework density 18.927264999999998
#
# number of rings (size 3 to 8) (size 9 to 14) (size 15 to 20)
#    0.000    2.250    1.250    2.250    0.000    5.250 
#    0.000    1.250    0.000    1.500    0.000    1.750 
#    0.000    0.000    0.000    0.000    0.000    0.000 
#
# Total GULP energy -357026.105876 kJ/mol
# GULP energy per Si atom -5578.532904 kJ/mol
# Density = 1.888419 g / cm^3
# Si number density = 18.927265 Si / 1000 Ang^3
#
#
#
# Elastic Constant Matrix: (Units=GPa)
#
#
# Indices 1 2 3 4 5 6 
#
# 1 163.8711 36.4365 18.1833 0.0000 0.0000 0.0000
# 2 36.4365 59.7655 4.6886 0.0000 0.0000 0.0000
# 3 18.1833 4.6886 15.2807 0.0000 0.0000 0.0000
# 4 0.0000 0.0000 0.0000 29.2750 0.0000 0.0000
# 5 0.0000 0.0000 0.0000 0.0000 16.6125 0.0000
# 6 0.0000 0.0000 0.0000 0.0000 0.0000 13.3983
#
#
#
# Elastic Compliance Matrix: (Units=1/GPa)
#
#
# Indices 1 2 3 4 5 6 
#
# 1 0.007942 -0.004202 -0.008162 0.000000 0.000000 0.000000
# 2 -0.004202 0.019368 -0.000943 0.000000 0.000000 0.000000
# 3 -0.008162 -0.000943 0.075443 0.000000 0.000000 0.000000
# 4 0.000000 0.000000 0.000000 0.034159 0.000000 0.000000
# 5 0.000000 0.000000 0.000000 0.000000 0.060196 0.000000
# 6 0.000000 0.000000 0.000000 0.000000 0.000000 0.074636
#
#
# Mechanical properties :
#
#
# Convention : Reuss Voigt Hill
#
# Bulk Modulus (GPa) = 13.13358 39.72602 26.42980
# Shear Modulus (GPa) = 15.44466 23.83108 19.63787
#
# Velocity S-wave (km/s) = 2.85967 3.55221 3.22459
# Velocity P-wave (km/s) = 4.22583 6.15294 5.27808
#
# Compressibility (1/GPa) = 0.07614073
#
# Stress axis : x y z
#
# Youngs Moduli (GPa) = 125.90919 51.63252 13.25502
#
# Poissons Ratio (x) = 0.21695 0.10818
# Poissons Ratio (y) = 0.52904 0.01250
# Poissons Ratio (z) = 1.02762 0.04868
#
# Static dielectric constant tensor:
#      x y z
#    x 1.693520 0.000000 0.000000 
#    y 0.000000 1.653540 0.000000 
#    z 0.000000 0.000000 1.676140 
# 
# From -- ./inp_files/29104.got.cif
#   From: 2010.05.17/outbox.cif.g08.bks.cpg/sg53_15_cif.got.tgz:29104.got - 2010.06.03 12:45:16.
