data_PCOD9414381
_publ_section_title
;
Structure prediction by ZEFSAII (Michael W. Deem and Ramdas Pophale) SiO2 
 PCOD9414381
Probable space group: P M N A
;
_chemical_formula_sum "Si O2"
_cell_formula_units_Z 64
_cell_length_a 7.732544
_cell_length_b 17.678317
_cell_length_c 24.223237
_cell_angle_alpha 90.000000
_cell_angle_beta 90.000000
_cell_angle_gamma 90.000000
_cell_volume 3311.276870
_symmetry_space_group_name_H-M "P M N A"
_symmetry_group_IT_number 53
_symmetry_cell_setting 'orthorhombic'
loop_
_space_group_symop_operation_xyz
x,y,z
1/2-x,-y,1/2+z
x,-y,-z
1/2-x,y,1/2-z
-x,-y,-z
1/2+x,y,1/2-z
-x,y,z
1/2+x,-y,1/2+z
loop_
_atom_site_type_symbol
_atom_site_label
_atom_site_fract_x
_atom_site_fract_y
_atom_site_fract_z
Si Si1 0.707823 0.765663 0.689712
Si Si2 0.787345 0.414088 0.990895
Si Si3 0.302658 0.313014 0.603627
Si Si4 0.708686 0.935363 0.392724
Si Si5 0.207980 0.799628 0.186600
Si Si6 0.799089 0.180571 0.523744
Si Si7 0.791831 0.281140 0.072397
Si Si8 0.708215 0.061570 0.311298
O O1 0.750000 0.733720 0.750000
O O2 0.500000 0.769003 0.686157
O O3 0.771246 0.723148 0.635149
O O4 0.774085 0.852370 0.687582
O O5 0.730989 0.354046 0.037660
O O6 0.000000 0.412525 0.990420
O O7 0.733730 0.500000 0.000000
O O8 0.725290 0.380186 0.932410
O O9 0.500000 0.335000 0.616156
O O10 0.222733 0.277280 0.658473
O O11 0.303891 0.240958 0.561598
O O12 0.500000 0.937656 0.393654
O O13 0.768459 0.870513 0.349628
O O14 0.762725 0.903059 0.452540
O O15 0.769907 0.012359 0.363527
O O16 0.250000 0.807308 0.250000
O O17 0.000000 0.798346 0.180980
O O18 0.754572 0.204890 0.461587
O O19 0.000000 0.196338 0.532544
O O20 0.000000 0.285094 0.073122
O O21 0.750000 0.029433 0.250000
O O22 0.500000 0.063385 0.314556
#
# Coordination Sequence:
#
# PCOD9414381 Si02
#       8
#     8   8   8   8   8   8   8   8
#     4   9  18  32  50  70  90 117 152 188 226 267
#     4   8  13  24  47  73  88 105 141 183 216 254
#     4   8  15  28  42  59  87 116 141 175 217 258
#     4   9  17  29  42  58  85 117 148 186 229 267
#     4   9  16  24  36  55  79 110 143 173 207 246
#     4  10  18  27  43  66  88 114 149 184 220 263
#     4   9  17  31  49  68  93 120 146 180 223 270
#     4   9  17  29  45  64  86 115 153 194 234 272
#
# _framework density 19.32789
#
# number of rings (size 3 to 8) (size 9 to 14) (size 15 to 20)
#    0.000    3.125    0.000    3.000    0.000    3.000 
#    0.000    0.625    0.000   10.500    0.000    0.000 
#    0.000    0.000    0.000    0.000    0.000    0.500 
#
# Total GULP energy -356343.765432 kJ/mol
# GULP energy per Si atom -5567.871335 kJ/mol
# Density = 1.928390 g / cm^3
# Si number density = 19.327890 Si / 1000 Ang^3
#
#
#
# Elastic Constant Matrix: (Units=GPa)
#
#
# Indices 1 2 3 4 5 6 
#
# 1 36.5938 6.0492 2.2898 0.0000 0.0000 0.0000
# 2 6.0492 46.3762 19.7623 0.0000 0.0000 0.0000
# 3 2.2898 19.7623 95.0947 0.0000 0.0000 0.0000
# 4 0.0000 0.0000 0.0000 24.2092 0.0000 0.0000
# 5 0.0000 0.0000 0.0000 0.0000 18.1403 0.0000
# 6 0.0000 0.0000 0.0000 0.0000 0.0000 1.2610
#
#
#
# Elastic Compliance Matrix: (Units=1/GPa)
#
#
# Indices 1 2 3 4 5 6 
#
# 1 0.027930 -0.003683 0.000093 0.000000 0.000000 0.000000
# 2 -0.003683 0.024143 -0.004929 0.000000 0.000000 0.000000
# 3 0.000093 -0.004929 0.011538 0.000000 0.000000 0.000000
# 4 0.000000 0.000000 0.000000 0.041307 0.000000 0.000000
# 5 0.000000 0.000000 0.000000 0.000000 0.055126 0.000000
# 6 0.000000 0.000000 0.000000 0.000000 0.000000 0.793024
#
#
# Mechanical properties :
#
#
# Convention : Reuss Voigt Hill
#
# Bulk Modulus (GPa) = 21.47119 26.02970 23.75044
# Shear Modulus (GPa) = 5.07290 18.71967 11.89629
#
# Velocity S-wave (km/s) = 1.62184 3.11550 2.48362
# Velocity P-wave (km/s) = 3.82625 5.14183 4.53203
#
# Compressibility (1/GPa) = 0.04657405
#
# Stress axis : x y z
#
# Youngs Moduli (GPa) = 35.80382 41.41919 86.67115
#
# Poissons Ratio (x) = 0.15253 -0.00804
# Poissons Ratio (y) = 0.13185 0.42718
# Poissons Ratio (z) = -0.00332 0.20414
#
# Static dielectric constant tensor:
#      x y z
#    x 1.706510 0.000000 0.000000 
#    y 0.000000 1.683330 0.000000 
#    z 0.000000 0.000000 1.714330 
# 
# From -- ./inp_files/34467.got.cif
#   From: 2010.05.17/outbox.cif.g08.bks.cpg/sg53_18_cif.got.tgz:34467.got - 2010.06.03 12:45:16.
