data_PCOD9414284
_publ_section_title
;
Structure prediction by ZEFSAII (Michael W. Deem and Ramdas Pophale) SiO2 
 PCOD9414284
Probable space group: P M N A
;
_chemical_formula_sum "Si O2"
_cell_formula_units_Z 48
_cell_length_a 15.764377
_cell_length_b 9.384382
_cell_length_c 13.494203
_cell_angle_alpha 90.000000
_cell_angle_beta 90.000000
_cell_angle_gamma 90.000000
_cell_volume 1996.318031
_symmetry_space_group_name_H-M "P M N A"
_symmetry_group_IT_number 53
_symmetry_cell_setting 'orthorhombic'
loop_
_space_group_symop_operation_xyz
x,y,z
1/2-x,-y,1/2+z
x,-y,-z
1/2-x,y,1/2-z
-x,-y,-z
1/2+x,y,1/2-z
-x,y,z
1/2+x,-y,1/2+z
loop_
_atom_site_type_symbol
_atom_site_label
_atom_site_fract_x
_atom_site_fract_y
_atom_site_fract_z
Si Si1 0.000000 0.180720 0.495304
Si Si2 0.250000 0.518024 0.250000
Si Si3 0.600377 0.491784 0.618357
Si Si4 0.148959 0.214084 0.069879
Si Si5 0.337196 0.983798 0.744661
Si Si6 0.000000 0.147281 0.938720
Si Si7 0.672708 0.721119 0.890365
Si Si8 0.500000 0.143836 0.793866
O O1 0.916657 0.247157 0.442519
O O2 0.000000 0.238119 0.608727
O O3 0.000000 0.000000 0.500000
O O4 0.328611 0.585363 0.313570
O O5 0.301194 0.425361 0.165344
O O6 0.619196 0.500000 0.500000
O O7 0.500000 0.462924 0.633563
O O8 0.615674 0.660519 0.642363
O O9 0.142346 0.067990 0.133307
O O10 0.245735 0.243480 0.041048
O O11 0.085413 0.216980 0.979234
O O12 0.250000 0.070257 0.750000
O O13 0.320586 0.841908 0.807000
O O14 0.413766 0.055738 0.800022
O O15 0.000000 0.170092 0.822881
O O16 0.000000 0.000000 0.000000
#
# Coordination Sequence:
#
# PCOD9414284 Si02
#       8
#     4   4   8   8   8   4   8   4
#     4  12  24  32  52  75 117 154 194 248 287 338
#     4  10  20  36  64  92 114 146 194 244 284 364
#     4  10  20  35  64  95 117 141 185 244 303 346
#     4  10  19  35  56  85 111 140 192 245 280 336
#     4  10  17  30  52  76 105 139 189 239 280 323
#     4  12  22  32  55  77 109 155 193 241 279 329
#     4  10  19  34  55  82 106 149 184 241 290 324
#     4  12  24  34  44  78 109 155 195 236 286 333
#
# _framework density 24.044266
#
# number of rings (size 3 to 8) (size 9 to 14) (size 15 to 20)
#    0.000    1.500    8.333    0.000    1.167    2.000 
#    0.000    0.000    7.333    0.500    0.000    0.000 
#    0.000    0.000    0.000    0.000    0.000    0.000 
#
# Total GULP energy -267422.879878 kJ/mol
# GULP energy per Si atom -5571.309997 kJ/mol
# Density = 2.398954 g / cm^3
# Si number density = 24.044266 Si / 1000 Ang^3
#
#
#
# Elastic Constant Matrix: (Units=GPa)
#
#
# Indices 1 2 3 4 5 6 
#
# 1 234.2519 9.9917 92.8527 0.0000 0.0000 0.0000
# 2 9.9917 31.6256 0.7646 0.0000 0.0000 0.0000
# 3 92.8527 0.7646 142.0747 0.0000 0.0000 0.0000
# 4 0.0000 0.0000 0.0000 17.5229 0.0000 0.0000
# 5 0.0000 0.0000 0.0000 0.0000 41.6715 0.0000
# 6 0.0000 0.0000 0.0000 0.0000 0.0000 17.7566
#
#
#
# Elastic Compliance Matrix: (Units=1/GPa)
#
#
# Indices 1 2 3 4 5 6 
#
# 1 0.005858 -0.001758 -0.003819 0.000000 0.000000 0.000000
# 2 -0.001758 0.032152 0.000976 0.000000 0.000000 0.000000
# 3 -0.003819 0.000976 0.009529 0.000000 0.000000 0.000000
# 4 0.000000 0.000000 0.000000 0.057068 0.000000 0.000000
# 5 0.000000 0.000000 0.000000 0.000000 0.023997 0.000000
# 6 0.000000 0.000000 0.000000 0.000000 0.000000 0.056317
#
#
# Mechanical properties :
#
#
# Convention : Reuss Voigt Hill
#
# Bulk Modulus (GPa) = 26.08477 68.35227 47.21852
# Shear Modulus (GPa) = 24.16605 35.67974 29.92290
#
# Velocity S-wave (km/s) = 3.17372 3.85635 3.53156
# Velocity P-wave (km/s) = 4.92972 6.95111 6.02578
#
# Compressibility (1/GPa) = 0.03833655
#
# Stress axis : x y z
#
# Youngs Moduli (GPa) = 170.71887 31.10243 104.94238
#
# Poissons Ratio (x) = 0.05469 0.40075
# Poissons Ratio (y) = 0.30018 -0.10243
# Poissons Ratio (z) = 0.65193 -0.03036
#
# Static dielectric constant tensor:
#      x y z
#    x 1.960000 0.000000 0.000000 
#    y 0.000000 2.127890 0.000000 
#    z 0.000000 0.000000 1.945980 
# 
# From -- ./inp_files/22748.got.cif
#   From: 2010.05.17/outbox.cif.g08.bks.cpg/sg53_12_cif.got.tgz:22748.got - 2010.06.03 12:45:16.
