data_PCOD9414955
_publ_section_title
;
Structure prediction by ZEFSAII (Michael W. Deem and Ramdas Pophale) SiO2 
 PCOD9414955
Probable space group: P M N A
;
_chemical_formula_sum "Si O2"
_cell_formula_units_Z 56
_cell_length_a 8.947298
_cell_length_b 17.151252
_cell_length_c 21.506449
_cell_angle_alpha 90.000000
_cell_angle_beta 90.000000
_cell_angle_gamma 90.000000
_cell_volume 3300.322945
_symmetry_space_group_name_H-M "P M N A"
_symmetry_group_IT_number 53
_symmetry_cell_setting 'orthorhombic'
loop_
_space_group_symop_operation_xyz
x,y,z
1/2-x,-y,1/2+z
x,-y,-z
1/2-x,y,1/2-z
-x,-y,-z
1/2+x,y,1/2-z
-x,y,z
1/2+x,-y,1/2+z
loop_
_atom_site_type_symbol
_atom_site_label
_atom_site_fract_x
_atom_site_fract_y
_atom_site_fract_z
Si Si1 0.681140 0.877565 0.029395
Si Si2 0.177828 0.700246 0.475921
Si Si3 0.679062 0.456466 0.564838
Si Si4 0.678208 0.543758 0.817158
Si Si5 0.819746 0.030417 0.403444
Si Si6 0.674223 0.290540 0.122232
Si Si7 0.324058 0.147226 0.315846
O O1 0.500000 0.874987 0.029082
O O2 0.730755 0.788729 0.037545
O O3 0.725176 0.941978 0.080255
O O4 0.721882 0.915574 0.962957
O O5 0.265864 0.632343 0.441497
O O6 0.194973 0.688060 0.550109
O O7 0.000000 0.694594 0.462117
O O8 0.723269 0.500000 0.500000
O O9 0.500000 0.460970 0.569705
O O10 0.752031 0.495696 0.625475
O O11 0.750000 0.526610 0.750000
O O12 0.500000 0.530838 0.814965
O O13 0.703089 0.634594 0.835045
O O14 0.743349 0.068562 0.344567
O O15 0.000000 0.033233 0.397786
O O16 0.500000 0.266593 0.129554
O O17 0.777201 0.218796 0.140256
O O18 0.250000 0.163518 0.250000
O O19 0.500000 0.141828 0.310171
#
# Coordination Sequence:
#
# PCOD9414955 Si02
#       7
#     8   8   8   8   8   8   8
#     4   8  15  29  55  81 104 136 172 215 264 315
#     4  10  18  33  57  84 112 144 183 224 273 327
#     4  11  23  37  55  82 115 150 188 232 279 329
#     4  11  23  39  59  82 110 148 189 233 281 335
#     4   9  16  32  54  77 104 137 177 215 258 313
#     4  10  20  35  56  81 111 146 183 222 270 331
#     4  12  24  35  50  74 108 148 184 221 266 319
#
# _framework density 16.968035
#
# number of rings (size 3 to 8) (size 9 to 14) (size 15 to 20)
#    0.000    1.857    2.857    3.429    0.000    3.429 
#    0.000    2.143    0.000    0.857    0.000    4.000 
#    0.000    0.000    0.000    0.000    0.000    0.000 
#
# Total GULP energy -312493.199757 kJ/mol
# GULP energy per Si atom -5580.235710 kJ/mol
# Density = 1.692942 g / cm^3
# Si number density = 16.968035 Si / 1000 Ang^3
#
#
#
# Elastic Constant Matrix: (Units=GPa)
#
#
# Indices 1 2 3 4 5 6 
#
# 1 57.3641 41.1138 44.7926 0.0000 0.0000 0.0000
# 2 41.1138 108.5686 38.5776 0.0000 0.0000 0.0000
# 3 44.7926 38.5776 74.4489 0.0000 0.0000 0.0000
# 4 0.0000 0.0000 0.0000 19.1459 0.0000 0.0000
# 5 0.0000 0.0000 0.0000 0.0000 19.9031 0.0000
# 6 0.0000 0.0000 0.0000 0.0000 0.0000 15.4098
#
#
#
# Elastic Compliance Matrix: (Units=1/GPa)
#
#
# Indices 1 2 3 4 5 6 
#
# 1 0.037319 -0.007543 -0.018545 0.000000 0.000000 0.000000
# 2 -0.007543 0.012814 -0.002102 0.000000 0.000000 0.000000
# 3 -0.018545 -0.002102 0.025679 0.000000 0.000000 0.000000
# 4 0.000000 0.000000 0.000000 0.052231 0.000000 0.000000
# 5 0.000000 0.000000 0.000000 0.000000 0.050243 0.000000
# 6 0.000000 0.000000 0.000000 0.000000 0.000000 0.064894
#
#
# Mechanical properties :
#
#
# Convention : Reuss Voigt Hill
#
# Bulk Modulus (GPa) = 51.45843 54.37217 52.91530
# Shear Modulus (GPa) = 16.33792 18.61826 17.47809
#
# Velocity S-wave (km/s) = 3.10637 3.31608 3.21294
# Velocity P-wave (km/s) = 6.57713 6.83925 6.70947
#
# Compressibility (1/GPa) = 0.01943316
#
# Stress axis : x y z
#
# Youngs Moduli (GPa) = 26.79570 78.03979 38.94281
#
# Poissons Ratio (x) = 0.58865 0.72219
# Poissons Ratio (y) = 0.20212 0.08184
# Poissons Ratio (z) = 0.49692 0.16401
#
# Static dielectric constant tensor:
#      x y z
#    x 1.566600 0.000000 0.000000 
#    y 0.000000 1.584620 0.000000 
#    z 0.000000 0.000000 1.569940 
# 
# From -- ./inp_files/30796.got.cif
#   From: 2010.05.17/outbox.cif.g08.bks.cpg/sg53_16_cif.got.tgz:30796.got - 2010.06.03 12:45:16.
