data_PCOD9414708
_publ_section_title
;
Structure prediction by ZEFSAII (Michael W. Deem and Ramdas Pophale) SiO2 
 PCOD9414708
Probable space group: P M N A
;
_chemical_formula_sum "Si O2"
_cell_formula_units_Z 64
_cell_length_a 17.739685
_cell_length_b 12.514110
_cell_length_c 15.825826
_cell_angle_alpha 90.000000
_cell_angle_beta 90.000000
_cell_angle_gamma 90.000000
_cell_volume 3513.275916
_symmetry_space_group_name_H-M "P M N A"
_symmetry_group_IT_number 53
_symmetry_cell_setting 'orthorhombic'
loop_
_space_group_symop_operation_xyz
x,y,z
1/2-x,-y,1/2+z
x,-y,-z
1/2-x,y,1/2-z
-x,-y,-z
1/2+x,y,1/2-z
-x,y,z
1/2+x,-y,1/2+z
loop_
_atom_site_type_symbol
_atom_site_label
_atom_site_fract_x
_atom_site_fract_y
_atom_site_fract_z
Si Si1 0.911935 0.612575 0.048745
Si Si2 0.274764 0.755775 0.503375
Si Si3 0.591571 0.514450 0.272306
Si Si4 0.708384 0.879707 0.839320
Si Si5 0.084280 0.297101 0.654962
Si Si6 0.414143 0.298115 0.199527
Si Si7 0.125150 0.623137 0.519496
Si Si8 0.791436 0.876120 0.340325
O O1 0.855512 0.699283 0.008887
O O2 0.887380 0.578071 0.143179
O O3 0.000000 0.647754 0.049627
O O4 0.909116 0.500000 0.000000
O O5 0.259776 0.828856 0.586133
O O6 0.211305 0.663995 0.515426
O O7 0.254501 0.821881 0.417952
O O8 0.500000 0.505305 0.271446
O O9 0.614876 0.593059 0.196348
O O10 0.617808 0.391423 0.261877
O O11 0.750000 0.882986 0.750000
O O12 0.636932 0.804504 0.818921
O O13 0.689517 0.001564 0.863205
O O14 0.084527 0.312823 0.554808
O O15 0.135731 0.196843 0.673435
O O16 0.000000 0.282093 0.687678
O O17 0.500000 0.270914 0.223840
O O18 0.412409 0.356070 0.108999
O O19 0.120942 0.500000 0.500000
O O20 0.750000 0.875431 0.250000
#
# Coordination Sequence:
#
# PCOD9414708 Si02
#       8
#     8   8   8   8   8   8   8   8
#     4  10  21  36  56  82 113 148 185 228 280 337
#     4  10  21  37  58  80 111 149 184 232 278 328
#     4   9  18  32  51  81 115 143 175 221 278 329
#     4  10  23  40  57  80 108 148 193 235 279 330
#     4  10  19  31  54  84 113 145 183 229 275 328
#     4  10  20  34  55  81 115 151 180 220 273 334
#     4  10  18  31  50  81 116 149 179 207 261 337
#     4  10  21  39  59  79 108 146 190 237 286 328
#
# _framework density 18.216616999999999
#
# number of rings (size 3 to 8) (size 9 to 14) (size 15 to 20)
#    0.000    2.125    1.250    1.875    1.750    1.000 
#    0.000    0.625    0.000    7.500    0.000    0.000 
#    0.000    0.000    0.000    0.000    0.000    0.000 
#
# Total GULP energy -356681.410779 kJ/mol
# GULP energy per Si atom -5573.147043 kJ/mol
# Density = 1.817516 g / cm^3
# Si number density = 18.216617 Si / 1000 Ang^3
#
#
#
# Elastic Constant Matrix: (Units=GPa)
#
#
# Indices 1 2 3 4 5 6 
#
# 1 78.3000 57.9358 17.8874 0.0000 0.0000 0.0000
# 2 57.9358 121.3278 6.8915 0.0000 0.0000 0.0000
# 3 17.8874 6.8915 53.3531 0.0000 0.0000 0.0000
# 4 0.0000 0.0000 0.0000 28.8115 0.0000 0.0000
# 5 0.0000 0.0000 0.0000 0.0000 8.7598 0.0000
# 6 0.0000 0.0000 0.0000 0.0000 0.0000 39.4512
#
#
#
# Elastic Compliance Matrix: (Units=1/GPa)
#
#
# Indices 1 2 3 4 5 6 
#
# 1 0.021454 -0.009909 -0.005913 0.000000 0.000000 0.000000
# 2 -0.009909 0.012879 0.001658 0.000000 0.000000 0.000000
# 3 -0.005913 0.001658 0.020511 0.000000 0.000000 0.000000
# 4 0.000000 0.000000 0.000000 0.034708 0.000000 0.000000
# 5 0.000000 0.000000 0.000000 0.000000 0.114158 0.000000
# 6 0.000000 0.000000 0.000000 0.000000 0.000000 0.025348
#
#
# Mechanical properties :
#
#
# Convention : Reuss Voigt Hill
#
# Bulk Modulus (GPa) = 37.70977 46.49004 42.09991
# Shear Modulus (GPa) = 18.78120 26.75559 22.76839
#
# Velocity S-wave (km/s) = 3.21439 3.83658 3.53918
# Velocity P-wave (km/s) = 5.87555 6.72323 6.31364
#
# Compressibility (1/GPa) = 0.02651832
#
# Stress axis : x y z
#
# Youngs Moduli (GPa) = 46.61195 77.64315 48.75389
#
# Poissons Ratio (x) = 0.76934 0.28827
# Poissons Ratio (y) = 0.46186 -0.08085
# Poissons Ratio (z) = 0.27561 -0.12876
#
# Static dielectric constant tensor:
#      x y z
#    x 1.686670 0.000000 0.000000 
#    y 0.000000 1.619970 0.000000 
#    z 0.000000 0.000000 1.659990 
# 
# From -- ./inp_files/23874.got.cif
#   From: 2010.05.17/outbox.cif.g08.bks.cpg/sg53_12_cif.got.tgz:23874.got - 2010.06.03 12:45:16.
