data_PCOD9414615
_publ_section_title
;
Structure prediction by ZEFSAII (Michael W. Deem and Ramdas Pophale) SiO2 
 PCOD9414615
Probable space group: P M N A
;
_chemical_formula_sum "Si O2"
_cell_formula_units_Z 56
_cell_length_a 27.412470
_cell_length_b 15.887698
_cell_length_c 7.677567
_cell_angle_alpha 90.000000
_cell_angle_beta 90.000000
_cell_angle_gamma 90.000000
_cell_volume 3343.742001
_symmetry_space_group_name_H-M "P M N A"
_symmetry_group_IT_number 53
_symmetry_cell_setting 'orthorhombic'
loop_
_space_group_symop_operation_xyz
x,y,z
1/2-x,-y,1/2+z
x,-y,-z
1/2-x,y,1/2-z
-x,-y,-z
1/2+x,y,1/2-z
-x,y,z
1/2+x,-y,1/2+z
loop_
_atom_site_type_symbol
_atom_site_label
_atom_site_fract_x
_atom_site_fract_y
_atom_site_fract_z
Si Si1 0.806357 1.000000 0.707375
Si Si2 0.871600 0.844606 0.296957
Si Si3 0.628400 0.155394 0.203043
Si Si4 0.192625 0.500000 0.208519
Si Si5 0.307775 0.685027 0.708962
Si Si6 0.441997 0.898582 0.500000
Si Si7 0.307775 0.685027 0.291038
O O1 0.750000 0.000000 0.750000
O O2 0.833879 0.083435 0.767032
O O3 0.810045 0.000000 0.500000
O O4 0.833879 0.916565 0.767032
O O5 0.884373 0.859060 0.500000
O O6 0.842357 0.757381 0.282134
O O7 0.917208 0.855992 0.169033
O O8 0.657643 0.242619 0.217866
O O9 0.582792 0.144008 0.330968
O O10 0.250000 0.500000 0.250000
O O11 0.176028 0.408289 0.272546
O O12 0.176028 0.591711 0.272546
O O13 0.185981 0.500000 0.000000
O O14 0.250000 0.697445 0.750000
O O15 0.311806 0.687221 0.500000
O O16 0.500000 0.887429 0.500000
O O17 0.432405 0.000000 0.500000
O O18 0.250000 0.697445 0.250000
#
# Coordination Sequence:
#
# PCOD9414615 Si02
#       7
#     8   8   8   8   8   8   8
#     4  10  22  32  48  75 109 146 176 210 257 316
#     4  11  22  37  54  81 111 140 182 226 272 331
#     4  11  22  37  54  81 111 140 182 226 272 331
#     4   8  16  28  44  70 108 149 190 225 257 309
#     4  10  18  30  49  77 114 154 188 223 267 322
#     4  11  24  42  64  81 103 143 185 236 286 325
#     4  10  18  30  49  77 114 154 188 223 267 322
#
# _framework density 16.747703999999999
#
# number of rings (size 3 to 8) (size 9 to 14) (size 15 to 20)
#    0.000    1.857    2.857    1.714    2.000    4.000 
#    0.000    1.429    0.000    0.000    0.000    2.000 
#    0.000    2.286    0.000    0.000    0.000    0.000 
#
# Total GULP energy -312206.010876 kJ/mol
# GULP energy per Si atom -5575.107337 kJ/mol
# Density = 1.670959 g / cm^3
# Si number density = 16.747704 Si / 1000 Ang^3
#
#
#
# Elastic Constant Matrix: (Units=GPa)
#
#
# Indices 1 2 3 4 5 6 
#
# 1 98.5670 55.6395 39.8932 0.0000 0.0000 0.0000
# 2 55.6395 147.4373 25.7056 0.0000 0.0000 0.0000
# 3 39.8932 25.7056 86.0143 0.0000 0.0000 0.0000
# 4 0.0000 0.0000 0.0000 24.5627 0.0000 0.0000
# 5 0.0000 0.0000 0.0000 0.0000 22.4514 0.0000
# 6 0.0000 0.0000 0.0000 0.0000 0.0000 8.9023
#
#
#
# Elastic Compliance Matrix: (Units=1/GPa)
#
#
# Indices 1 2 3 4 5 6 
#
# 1 0.015063 -0.004712 -0.005578 0.000000 0.000000 0.000000
# 2 -0.004712 0.008629 -0.000394 0.000000 0.000000 0.000000
# 3 -0.005578 -0.000394 0.014331 0.000000 0.000000 0.000000
# 4 0.000000 0.000000 0.000000 0.040712 0.000000 0.000000
# 5 0.000000 0.000000 0.000000 0.000000 0.044541 0.000000
# 6 0.000000 0.000000 0.000000 0.000000 0.000000 0.112331
#
#
# Mechanical properties :
#
#
# Convention : Reuss Voigt Hill
#
# Bulk Modulus (GPa) = 60.03829 63.83282 61.93556
# Shear Modulus (GPa) = 19.04581 25.23530 22.14056
#
# Velocity S-wave (km/s) = 3.37593 3.88595 3.63988
# Velocity P-wave (km/s) = 7.14999 7.63749 7.39776
#
# Compressibility (1/GPa) = 0.01665604
#
# Stress axis : x y z
#
# Youngs Moduli (GPa) = 66.38924 115.88430 69.78071
#
# Poissons Ratio (x) = 0.54603 0.38923
# Poissons Ratio (y) = 0.31281 0.02746
# Poissons Ratio (z) = 0.37031 0.04561
#
# Static dielectric constant tensor:
#      x y z
#    x 1.536060 0.000000 0.000000 
#    y 0.000000 1.616470 0.000000 
#    z 0.000000 0.000000 1.591930 
# 
# From -- ./inp_files/11092.got.cif
#   From: 2010.05.17/outbox.cif.g08.bks.cpg/sg53_6_cif.got.tgz:11092.got - 2010.06.03 12:45:16.
