data_PCOD9414591
_publ_section_title
;
Structure prediction by ZEFSAII (Michael W. Deem and Ramdas Pophale) SiO2 
 PCOD9414591
Probable space group: P M N A
;
_chemical_formula_sum "Si O2"
_cell_formula_units_Z 48
_cell_length_a 7.968881
_cell_length_b 12.396304
_cell_length_c 26.777768
_cell_angle_alpha 90.000000
_cell_angle_beta 90.000000
_cell_angle_gamma 90.000000
_cell_volume 2645.233013
_symmetry_space_group_name_H-M "P M N A"
_symmetry_group_IT_number 53
_symmetry_cell_setting 'orthorhombic'
loop_
_space_group_symop_operation_xyz
x,y,z
1/2-x,-y,1/2+z
x,-y,-z
1/2-x,y,1/2-z
-x,-y,-z
1/2+x,y,1/2-z
-x,y,z
1/2+x,-y,1/2+z
loop_
_atom_site_type_symbol
_atom_site_label
_atom_site_fract_x
_atom_site_fract_y
_atom_site_fract_z
Si Si1 0.193436 0.851902 0.109251
Si Si2 0.700230 0.685324 0.192661
Si Si3 0.295515 0.504600 0.877513
Si Si4 0.202370 0.661821 0.462091
Si Si5 0.304064 0.950111 0.948244
Si Si6 0.704703 0.287953 0.073603
O O1 0.240861 0.785815 0.158893
O O2 0.225322 0.767182 0.064603
O O3 0.000000 0.881470 0.111566
O O4 0.291537 0.959377 0.094295
O O5 0.750000 0.693937 0.250000
O O6 0.500000 0.683885 0.189005
O O7 0.763349 0.573493 0.167154
O O8 0.500000 0.507088 0.874933
O O9 0.250206 0.439309 0.927970
O O10 0.236915 0.627636 0.884182
O O11 0.247797 0.660819 0.519777
O O12 0.000000 0.670116 0.459536
O O13 0.500000 0.928421 0.959587
O O14 0.233905 0.835368 0.929568
O O15 0.231019 0.000000 0.000000
O O16 0.500000 0.285278 0.077338
#
# Coordination Sequence:
#
# PCOD9414591 Si02
#       6
#     8   8   8   8   8   8
#     4  11  21  32  48  72 103 135 172 210 252 298
#     4  10  20  36  58  79  99 122 159 207 260 308
#     4   8  15  26  46  75  99 123 160 205 248 299
#     4   9  15  27  46  69  98 131 169 207 243 288
#     4  10  18  30  48  71 101 139 181 216 246 289
#     4   9  15  25  45  71 100 134 171 205 243 292
#
# _framework density 18.145851
#
# number of rings (size 3 to 8) (size 9 to 14) (size 15 to 20)
#    0.000    2.500    1.667    3.500    0.000    2.333 
#    0.000    0.000    0.000   15.000    0.000    2.333 
#    0.000    0.000    0.000    0.000    0.000    0.000 
#
# Total GULP energy -267444.353148 kJ/mol
# GULP energy per Si atom -5571.757357 kJ/mol
# Density = 1.810455 g / cm^3
# Si number density = 18.145851 Si / 1000 Ang^3
#
#
#
# Elastic Constant Matrix: (Units=GPa)
#
#
# Indices 1 2 3 4 5 6 
#
# 1 10.1696 -6.0837 -7.5472 0.0000 0.0000 0.0000
# 2 -6.0837 111.9846 37.3716 0.0000 0.0000 0.0000
# 3 -7.5472 37.3716 78.5380 0.0000 0.0000 0.0000
# 4 0.0000 0.0000 0.0000 10.4980 0.0000 0.0000
# 5 0.0000 0.0000 0.0000 0.0000 15.1458 0.0000
# 6 0.0000 0.0000 0.0000 0.0000 0.0000 -4.2577
#
#
#
# Elastic Compliance Matrix: (Units=1/GPa)
#
#
# Indices 1 2 3 4 5 6 
#
# 1 0.106628 0.002821 0.008904 0.000000 0.000000 0.000000
# 2 0.002821 0.010690 -0.004816 0.000000 0.000000 0.000000
# 3 0.008904 -0.004816 0.015880 0.000000 0.000000 0.000000
# 4 0.000000 0.000000 0.000000 0.095257 0.000000 0.000000
# 5 0.000000 0.000000 0.000000 0.000000 0.066025 0.000000
# 6 0.000000 0.000000 0.000000 0.000000 0.000000 -0.234869
#
#
# Mechanical properties :
#
#
# Convention : Reuss Voigt Hill
#
# Bulk Modulus (GPa) = 6.80196 27.57486 17.18841
# Shear Modulus (GPa) = 52.74450 16.07398 34.40924
#
# Velocity S-wave (km/s) = 5.39723 2.97950 4.35933
# Velocity P-wave (km/s) = 6.52662 5.20248 5.90180
#
# Compressibility (1/GPa) = 0.14701645
#
# Stress axis : x y z
#
# Youngs Moduli (GPa) = 9.37844 93.54393 62.97295
#
# Poissons Ratio (x) = -0.26390 -0.56071
# Poissons Ratio (y) = -0.02646 0.30326
# Poissons Ratio (z) = -0.08351 0.45048
#
# Static dielectric constant tensor:
#      x y z
#    x 1.646630 0.000000 0.000000 
#    y 0.000000 1.661660 0.000000 
#    z 0.000000 0.000000 1.567490 
# 
# From -- ./inp_files/36156.got.cif
#   From: 2010.05.17/outbox.cif.g08.bks.cpg/sg53_19_cif.got.tgz:36156.got - 2010.06.03 12:45:16.
