data_PCOD9414286
_publ_section_title
;
Structure prediction by ZEFSAII (Michael W. Deem and Ramdas Pophale) SiO2 
 PCOD9414286
Probable space group: P M N A
;
_chemical_formula_sum "Si O2"
_cell_formula_units_Z 64
_cell_length_a 17.335744
_cell_length_b 9.860765
_cell_length_c 21.914707
_cell_angle_alpha 90.000000
_cell_angle_beta 90.000000
_cell_angle_gamma 90.000000
_cell_volume 3746.181048
_symmetry_space_group_name_H-M "P M N A"
_symmetry_group_IT_number 53
_symmetry_cell_setting 'orthorhombic'
loop_
_space_group_symop_operation_xyz
x,y,z
1/2-x,-y,1/2+z
x,-y,-z
1/2-x,y,1/2-z
-x,-y,-z
1/2+x,y,1/2-z
-x,y,z
1/2+x,-y,1/2+z
loop_
_atom_site_type_symbol
_atom_site_label
_atom_site_fract_x
_atom_site_fract_y
_atom_site_fract_z
Si Si1 0.281706 0.674129 0.398397
Si Si2 0.175776 0.303433 0.711303
Si Si3 0.409257 0.578987 0.812986
Si Si4 0.589260 0.780359 0.321239
Si Si5 0.179265 0.250892 0.211985
Si Si6 0.715345 0.855427 0.516845
Si Si7 0.410542 0.929516 0.615396
Si Si8 0.226289 0.622847 0.604293
O O1 0.214770 0.734203 0.353354
O O2 0.359486 0.670755 0.357714
O O3 0.296878 0.771207 0.455228
O O4 0.254049 0.524621 0.418485
O O5 0.250000 0.352948 0.750000
O O6 0.116934 0.425749 0.701308
O O7 0.131693 0.199258 0.755829
O O8 0.500000 0.592036 0.818743
O O9 0.375838 0.671444 0.758685
O O10 0.361651 0.616693 0.873640
O O11 0.500000 0.742530 0.312893
O O12 0.592642 0.915125 0.362392
O O13 0.250000 0.184283 0.250000
O O14 0.129614 0.152406 0.170122
O O15 0.222898 0.351742 0.165378
O O16 0.638705 0.897236 0.554897
O O17 0.759737 0.749766 0.560428
O O18 0.753536 0.000000 0.500000
O O19 0.500000 0.891848 0.607315
#
# Coordination Sequence:
#
# PCOD9414286 Si02
#       8
#     8   8   8   8   8   8   8   8
#     4  10  19  35  55  76 104 138 177 221 263 303
#     4   9  18  31  50  77 107 137 172 214 265 316
#     4  10  17  30  54  80 107 138 172 216 276 324
#     4  10  19  32  51  78 112 142 170 213 269 321
#     4   9  17  31  51  77 108 142 179 214 259 322
#     4  11  21  37  56  76  99 143 189 218 261 309
#     4  10  21  34  49  76 113 146 178 219 267 314
#     4   9  20  35  53  80 107 136 177 229 262 311
#
# _framework density 17.084064999999999
#
# number of rings (size 3 to 8) (size 9 to 14) (size 15 to 20)
#    0.000    2.250    1.250    3.750    0.000    2.250 
#    2.250    2.500    0.000   10.875    0.000    0.000 
#    0.000    0.000    0.000    0.000    0.000    0.000 
#
# Total GULP energy -356438.433520 kJ/mol
# GULP energy per Si atom -5569.350524 kJ/mol
# Density = 1.704518 g / cm^3
# Si number density = 17.084065 Si / 1000 Ang^3
#
#
#
# Elastic Constant Matrix: (Units=GPa)
#
#
# Indices 1 2 3 4 5 6 
#
# 1 133.6942 40.9302 51.0662 0.0000 0.0000 0.0000
# 2 40.9302 63.0026 43.9246 0.0000 0.0000 0.0000
# 3 51.0662 43.9246 98.4024 0.0000 0.0000 0.0000
# 4 0.0000 0.0000 0.0000 32.6303 0.0000 0.0000
# 5 0.0000 0.0000 0.0000 0.0000 12.8341 0.0000
# 6 0.0000 0.0000 0.0000 0.0000 0.0000 19.7965
#
#
#
# Elastic Compliance Matrix: (Units=1/GPa)
#
#
# Indices 1 2 3 4 5 6 
#
# 1 0.010039 -0.004195 -0.003337 0.000000 0.000000 0.000000
# 2 -0.004195 0.024797 -0.008892 0.000000 0.000000 0.000000
# 3 -0.003337 -0.008892 0.015863 0.000000 0.000000 0.000000
# 4 0.000000 0.000000 0.000000 0.030646 0.000000 0.000000
# 5 0.000000 0.000000 0.000000 0.000000 0.077917 0.000000
# 6 0.000000 0.000000 0.000000 0.000000 0.000000 0.050514
#
#
# Mechanical properties :
#
#
# Convention : Reuss Voigt Hill
#
# Bulk Modulus (GPa) = 56.01909 62.99345 59.50627
# Shear Modulus (GPa) = 20.11467 23.66406 21.88937
#
# Velocity S-wave (km/s) = 3.43504 3.72580 3.58337
# Velocity P-wave (km/s) = 6.97095 7.44725 7.21303
#
# Compressibility (1/GPa) = 0.01785106
#
# Stress axis : x y z
#
# Youngs Moduli (GPa) = 99.61436 40.32747 63.03932
#
# Poissons Ratio (x) = 0.16918 0.21036
# Poissons Ratio (y) = 0.41791 0.56053
# Poissons Ratio (z) = 0.33241 0.35858
#
# Static dielectric constant tensor:
#      x y z
#    x 1.563310 0.000000 0.000000 
#    y 0.000000 1.593460 0.000000 
#    z 0.000000 0.000000 1.609560 
# 
# From -- ./inp_files/35543.got.cif
#   From: 2010.05.17/outbox.cif.g08.bks.cpg/sg53_18_cif.got.tgz:35543.got - 2010.06.03 12:45:16.
