data_PCOD9414192
_publ_section_title
;
Structure prediction by ZEFSAII (Michael W. Deem and Ramdas Pophale) SiO2 
 PCOD9414192
Probable space group: P M N A
;
_chemical_formula_sum "Si O2"
_cell_formula_units_Z 60
_cell_length_a 14.473132
_cell_length_b 10.766684
_cell_length_c 18.313864
_cell_angle_alpha 90.000000
_cell_angle_beta 90.000000
_cell_angle_gamma 90.000000
_cell_volume 2853.806183
_symmetry_space_group_name_H-M "P M N A"
_symmetry_group_IT_number 53
_symmetry_cell_setting 'orthorhombic'
loop_
_space_group_symop_operation_xyz
x,y,z
1/2-x,-y,1/2+z
x,-y,-z
1/2-x,y,1/2-z
-x,-y,-z
1/2+x,y,1/2-z
-x,y,z
1/2+x,-y,1/2+z
loop_
_atom_site_type_symbol
_atom_site_label
_atom_site_fract_x
_atom_site_fract_y
_atom_site_fract_z
Si Si1 0.608175 0.833458 0.889184
Si Si2 0.351021 0.768824 0.231388
Si Si3 0.394498 0.810038 0.714757
Si Si4 0.802309 0.911233 0.408447
Si Si5 0.389404 0.672884 0.014154
Si Si6 0.105337 0.475862 0.650781
Si Si7 0.750000 0.374535 0.250000
Si Si8 0.397976 0.072059 0.631873
O O1 0.500000 0.857436 0.905144
O O2 0.616440 0.829953 0.801970
O O3 0.664937 0.949189 0.920526
O O4 0.633366 0.704304 0.929649
O O5 0.250000 0.716855 0.250000
O O6 0.329449 0.880910 0.175711
O O7 0.402381 0.658865 0.190736
O O8 0.395391 0.825750 0.303464
O O9 0.500000 0.765968 0.702364
O O10 0.314798 0.711481 0.698411
O O11 0.383623 0.938376 0.671033
O O12 0.854190 0.801188 0.449803
O O13 0.691861 0.902587 0.416830
O O14 0.500000 0.662852 0.018111
O O15 0.359691 0.562918 0.069263
O O16 0.177973 0.549249 0.700509
O O17 0.000000 0.528740 0.648988
O O18 0.500000 0.073347 0.597518
#
# Coordination Sequence:
#
# PCOD9414192 Si02
#       8
#     8   8   8   8   8   8   4   8
#     4  10  18  31  52  78 106 139 172 208 258 316
#     4   9  16  28  47  75 104 134 159 203 258 309
#     4  10  21  34  52  78 106 138 173 216 263 309
#     4  10  17  26  48  76 110 142 170 204 251 314
#     4   9  19  33  51  77 108 140 173 207 254 316
#     4  10  20  34  52  75 105 137 168 210 258 309
#     4  12  22  36  52  72 104 140 172 218 258 310
#     4  10  19  31  49  77 110 138 170 212 264 314
#
# _framework density 21.024553999999998
#
# number of rings (size 3 to 8) (size 9 to 14) (size 15 to 20)
#    0.000    2.133    2.000    2.400    0.933    2.133 
#    0.000    0.667    0.000    4.800    0.000    0.000 
#    0.000    6.400    0.000    0.000    0.000    0.000 
#
# Total GULP energy -334822.686379 kJ/mol
# GULP energy per Si atom -5580.378106 kJ/mol
# Density = 2.097670 g / cm^3
# Si number density = 21.024554 Si / 1000 Ang^3
#
#
#
# Elastic Constant Matrix: (Units=GPa)
#
#
# Indices 1 2 3 4 5 6 
#
# 1 96.6324 39.4286 9.3914 0.0000 0.0000 0.0000
# 2 39.4286 78.7141 4.1859 0.0000 0.0000 0.0000
# 3 9.3914 4.1859 37.3555 0.0000 0.0000 0.0000
# 4 0.0000 0.0000 0.0000 32.0512 0.0000 0.0000
# 5 0.0000 0.0000 0.0000 0.0000 18.1021 0.0000
# 6 0.0000 0.0000 0.0000 0.0000 0.0000 47.6125
#
#
#
# Elastic Compliance Matrix: (Units=1/GPa)
#
#
# Indices 1 2 3 4 5 6 
#
# 1 0.013254 -0.006501 -0.002604 0.000000 0.000000 0.000000
# 2 -0.006501 0.015969 -0.000155 0.000000 0.000000 0.000000
# 3 -0.002604 -0.000155 0.027442 0.000000 0.000000 0.000000
# 4 0.000000 0.000000 0.000000 0.031200 0.000000 0.000000
# 5 0.000000 0.000000 0.000000 0.000000 0.055242 0.000000
# 6 0.000000 0.000000 0.000000 0.000000 0.000000 0.021003
#
#
# Mechanical properties :
#
#
# Convention : Reuss Voigt Hill
#
# Bulk Modulus (GPa) = 26.21529 35.41264 30.81396
# Shear Modulus (GPa) = 25.59592 30.19955 27.89773
#
# Velocity S-wave (km/s) = 3.49295 3.79409 3.64663
# Velocity P-wave (km/s) = 5.36317 6.00612 5.69373
#
# Compressibility (1/GPa) = 0.03814568
#
# Stress axis : x y z
#
# Youngs Moduli (GPa) = 75.44920 62.62272 36.44075
#
# Poissons Ratio (x) = 0.40708 0.09488
# Poissons Ratio (y) = 0.49046 0.00565
# Poissons Ratio (z) = 0.19645 0.00971
#
# Static dielectric constant tensor:
#      x y z
#    x 1.745810 0.000000 0.000000 
#    y 0.000000 1.808000 0.000000 
#    z 0.000000 0.000000 1.850390 
# 
# From -- ./inp_files/32603.got.cif
#   From: 2010.05.17/outbox.cif.g08.bks.cpg/sg53_17_cif.got.tgz:32603.got - 2010.06.03 12:45:16.
