data_PCOD9414502
_publ_section_title
;
Structure prediction by ZEFSAII (Michael W. Deem and Ramdas Pophale) SiO2 
 PCOD9414502
Probable space group: P M N A
;
_chemical_formula_sum "Si O2"
_cell_formula_units_Z 64
_cell_length_a 13.758878
_cell_length_b 8.017524
_cell_length_c 33.460865
_cell_angle_alpha 90.000000
_cell_angle_beta 90.000000
_cell_angle_gamma 90.000000
_cell_volume 3691.139443
_symmetry_space_group_name_H-M "P M N A"
_symmetry_group_IT_number 53
_symmetry_cell_setting 'orthorhombic'
loop_
_space_group_symop_operation_xyz
x,y,z
1/2-x,-y,1/2+z
x,-y,-z
1/2-x,y,1/2-z
-x,-y,-z
1/2+x,y,1/2-z
-x,y,z
1/2+x,-y,1/2+z
loop_
_atom_site_type_symbol
_atom_site_label
_atom_site_fract_x
_atom_site_fract_y
_atom_site_fract_z
Si Si1 0.384920 0.320838 0.327712
Si Si2 0.112356 0.199156 0.088301
Si Si3 0.111898 0.301360 0.003235
Si Si4 0.798665 0.327898 0.837071
Si Si5 0.614507 0.832523 0.263653
Si Si6 0.882774 0.192704 0.257531
Si Si7 0.385589 0.464347 0.799324
Si Si8 0.387466 0.196807 0.582830
O O1 0.500000 0.284319 0.328793
O O2 0.342724 0.262974 0.370311
O O3 0.366876 0.516775 0.324886
O O4 0.348412 0.234470 0.287453
O O5 0.156966 0.253382 0.045880
O O6 0.000000 0.263361 0.087523
O O7 0.109858 0.000501 0.089291
O O8 0.000000 0.235957 0.004235
O O9 0.109651 0.500000 0.000000
O O10 0.152291 0.232846 0.961556
O O11 0.825514 0.186918 0.804506
O O12 0.689153 0.393313 0.831755
O O13 0.826568 0.276505 0.881581
O O14 0.500000 0.847797 0.274138
O O15 0.626436 0.664553 0.237718
O O16 0.640484 0.997022 0.237673
O O17 0.856123 0.348493 0.285846
O O18 0.000000 0.202172 0.257955
O O19 0.500000 0.462382 0.810219
O O20 0.500000 0.259952 0.584756
#
# Coordination Sequence:
#
# PCOD9414502 Si02
#       8
#     8   8   8   8   8   8   8   8
#     4  10  18  29  47  71 100 127 157 203 246 294
#     4   9  17  29  44  69 104 140 169 195 240 299
#     4   9  16  27  44  66  97 140 174 194 232 293
#     4  12  21  32  48  75  97 129 169 208 257 298
#     4  10  19  34  54  74  97 125 160 205 255 309
#     4   9  18  34  53  70  95 131 165 204 253 297
#     4  10  22  40  52  67  96 130 173 217 257 302
#     4  10  19  30  46  70 104 137 168 206 243 295
#
# _framework density 17.338819999999998
#
# number of rings (size 3 to 8) (size 9 to 14) (size 15 to 20)
#    0.000    2.125    1.250    3.375    0.000    5.500 
#    6.750    0.000    0.000    0.000    0.000    0.000 
#    0.000    6.500    0.000    0.000    0.000    0.250 
#
# Total GULP energy -356771.024919 kJ/mol
# GULP energy per Si atom -5574.547264 kJ/mol
# Density = 1.729936 g / cm^3
# Si number density = 17.338820 Si / 1000 Ang^3
#
#
#
# Elastic Constant Matrix: (Units=GPa)
#
#
# Indices 1 2 3 4 5 6 
#
# 1 59.5096 1.5106 16.7534 0.0000 0.0000 0.0000
# 2 1.5106 62.9324 -0.7106 0.0000 0.0000 0.0000
# 3 16.7534 -0.7106 46.7801 0.0000 0.0000 0.0000
# 4 0.0000 0.0000 0.0000 27.7811 0.0000 0.0000
# 5 0.0000 0.0000 0.0000 0.0000 9.6471 0.0000
# 6 0.0000 0.0000 0.0000 0.0000 0.0000 8.1550
#
#
#
# Elastic Compliance Matrix: (Units=1/GPa)
#
#
# Indices 1 2 3 4 5 6 
#
# 1 0.018706 -0.000525 -0.006707 0.000000 0.000000 0.000000
# 2 -0.000525 0.015908 0.000430 0.000000 0.000000 0.000000
# 3 -0.006707 0.000430 0.023785 0.000000 0.000000 0.000000
# 4 0.000000 0.000000 0.000000 0.035996 0.000000 0.000000
# 5 0.000000 0.000000 0.000000 0.000000 0.103658 0.000000
# 6 0.000000 0.000000 0.000000 0.000000 0.000000 0.122625
#
#
# Mechanical properties :
#
#
# Convention : Reuss Voigt Hill
#
# Bulk Modulus (GPa) = 22.32449 22.70319 22.51384
# Shear Modulus (GPa) = 14.31795 19.22788 16.77291
#
# Velocity S-wave (km/s) = 2.87675 3.33370 3.11362
# Velocity P-wave (km/s) = 4.89261 5.28587 5.09303
#
# Compressibility (1/GPa) = 0.04479386
#
# Stress axis : x y z
#
# Youngs Moduli (GPa) = 53.46020 62.86343 42.04309
#
# Poissons Ratio (x) = 0.03299 0.28198
# Poissons Ratio (y) = 0.02805 -0.01806
# Poissons Ratio (z) = 0.35856 -0.02700
#
# Static dielectric constant tensor:
#      x y z
#    x 1.609740 0.000000 0.000000 
#    y 0.000000 1.628020 0.000000 
#    z 0.000000 0.000000 1.618570 
# 
# From -- ./inp_files/38947.got.cif
#   From: 2010.05.17/outbox.cif.g08.bks.cpg/sg53_20_cif.got.tgz:38947.got - 2010.06.03 12:45:16.
