data_PCOD9414204
_publ_section_title
;
Structure prediction by ZEFSAII (Michael W. Deem and Ramdas Pophale) SiO2 
 PCOD9414204
Probable space group: P M N A
;
_chemical_formula_sum "Si O2"
_cell_formula_units_Z 48
_cell_length_a 9.322149
_cell_length_b 15.341341
_cell_length_c 21.539218
_cell_angle_alpha 90.000000
_cell_angle_beta 90.000000
_cell_angle_gamma 90.000000
_cell_volume 3080.415467
_symmetry_space_group_name_H-M "P M N A"
_symmetry_group_IT_number 53
_symmetry_cell_setting 'orthorhombic'
loop_
_space_group_symop_operation_xyz
x,y,z
1/2-x,-y,1/2+z
x,-y,-z
1/2-x,y,1/2-z
-x,-y,-z
1/2+x,y,1/2-z
-x,y,z
1/2+x,-y,1/2+z
loop_
_atom_site_type_symbol
_atom_site_label
_atom_site_fract_x
_atom_site_fract_y
_atom_site_fract_z
Si Si1 0.169730 0.870926 0.452988
Si Si2 0.670200 0.061006 0.093184
Si Si3 0.334862 0.523958 0.073601
Si Si4 0.328386 0.189094 0.315769
Si Si5 0.830163 0.694474 0.046290
Si Si6 0.168924 0.645338 0.902021
O O1 0.194597 0.896533 0.525191
O O2 0.261251 0.786690 0.436291
O O3 0.000000 0.852234 0.446751
O O4 0.202031 0.958328 0.414207
O O5 0.500000 0.070443 0.106775
O O6 0.764876 0.110491 0.143259
O O7 0.500000 0.534831 0.091939
O O8 0.246777 0.613202 0.079365
O O9 0.261143 0.441727 0.106507
O O10 0.331955 0.500000 0.000000
O O11 0.250000 0.191233 0.250000
O O12 0.500000 0.181078 0.309065
O O13 0.298237 0.278072 0.353855
O O14 0.000000 0.692903 0.057087
O O15 0.806137 0.680755 0.972051
O O16 0.000000 0.623732 0.897953
#
# Coordination Sequence:
#
# PCOD9414204 Si02
#       6
#     8   8   8   8   8   8
#     4   9  17  29  47  70  97 127 159 195 242 293
#     4   9  18  32  48  68  95 127 160 200 244 288
#     4   9  17  27  42  65  91 122 156 188 228 277
#     4  11  22  35  50  70  95 128 167 204 242 285
#     4  10  17  27  44  68  97 127 156 190 235 284
#     4   9  18  31  44  63  93 125 157 195 236 280
#
# _framework density 15.582312999999999
#
# number of rings (size 3 to 8) (size 9 to 14) (size 15 to 20)
#    0.000    2.500    1.667    2.500    0.000    4.667 
#    0.000    1.667    0.000    0.000    0.000    1.167 
#    0.000    2.667    0.000    0.000    0.000    0.000 
#
# Total GULP energy -267600.618415 kJ/mol
# GULP energy per Si atom -5575.012884 kJ/mol
# Density = 1.554685 g / cm^3
# Si number density = 15.582313 Si / 1000 Ang^3
#
#
#
# Elastic Constant Matrix: (Units=GPa)
#
#
# Indices 1 2 3 4 5 6 
#
# 1 95.3401 99.8093 48.1921 0.0000 0.0000 0.0000
# 2 99.8093 154.8007 43.4205 0.0000 0.0000 0.0000
# 3 48.1921 43.4205 58.8601 0.0000 0.0000 0.0000
# 4 0.0000 0.0000 0.0000 11.2599 0.0000 0.0000
# 5 0.0000 0.0000 0.0000 0.0000 10.4990 0.0000
# 6 0.0000 0.0000 0.0000 0.0000 0.0000 35.4830
#
#
#
# Elastic Compliance Matrix: (Units=1/GPa)
#
#
# Indices 1 2 3 4 5 6 
#
# 1 0.044945 -0.023525 -0.019445 0.000000 0.000000 0.000000
# 2 -0.023525 0.020458 0.004169 0.000000 0.000000 0.000000
# 3 -0.019445 0.004169 0.029835 0.000000 0.000000 0.000000
# 4 0.000000 0.000000 0.000000 0.088811 0.000000 0.000000
# 5 0.000000 0.000000 0.000000 0.000000 0.095247 0.000000
# 6 0.000000 0.000000 0.000000 0.000000 0.000000 0.028183
#
#
# Mechanical properties :
#
#
# Convention : Reuss Voigt Hill
#
# Bulk Modulus (GPa) = 56.69992 76.87162 66.78577
# Shear Modulus (GPa) = 12.78903 19.28696 16.03800
#
# Velocity S-wave (km/s) = 2.86796 3.52198 3.21166
# Velocity P-wave (km/s) = 6.88718 8.12274 7.53034
#
# Compressibility (1/GPa) = 0.01763671
#
# Stress axis : x y z
#
# Youngs Moduli (GPa) = 22.24922 48.87989 33.51772
#
# Poissons Ratio (x) = 1.14989 0.65176
# Poissons Ratio (y) = 0.52341 -0.13974
# Poissons Ratio (z) = 0.43264 -0.20379
#
# Static dielectric constant tensor:
#      x y z
#    x 1.515730 0.000000 0.000000 
#    y 0.000000 1.513820 0.000000 
#    z 0.000000 0.000000 1.488810 
# 
# From -- ./inp_files/26247.got.cif
#   From: 2010.05.17/outbox.cif.g08.bks.cpg/sg53_14_cif.got.tgz:26247.got - 2010.06.03 12:45:16.
