data_PCOD9414935
_publ_section_title
;
Structure prediction by ZEFSAII (Michael W. Deem and Ramdas Pophale) SiO2 
 PCOD9414935
Probable space group: P M N A
;
_chemical_formula_sum "Si O2"
_cell_formula_units_Z 64
_cell_length_a 19.198994
_cell_length_b 8.825243
_cell_length_c 21.365185
_cell_angle_alpha 90.000000
_cell_angle_beta 90.000000
_cell_angle_gamma 90.000000
_cell_volume 3620.026944
_symmetry_space_group_name_H-M "P M N A"
_symmetry_group_IT_number 53
_symmetry_cell_setting 'orthorhombic'
loop_
_space_group_symop_operation_xyz
x,y,z
1/2-x,-y,1/2+z
x,-y,-z
1/2-x,y,1/2-z
-x,-y,-z
1/2+x,y,1/2-z
-x,y,z
1/2+x,-y,1/2+z
loop_
_atom_site_type_symbol
_atom_site_label
_atom_site_fract_x
_atom_site_fract_y
_atom_site_fract_z
Si Si1 0.823866 0.588948 0.940534
Si Si2 0.920026 0.953252 0.760590
Si Si3 0.216809 0.334148 0.603749
Si Si4 0.823403 0.837410 0.655738
Si Si5 0.212744 0.086708 0.814828
Si Si6 0.823689 0.495337 0.283488
Si Si7 0.713888 0.827146 0.981068
Si Si8 0.079820 0.616781 0.820771
O O1 0.761863 0.480144 0.915610
O O2 0.785699 0.741408 0.963328
O O3 0.877118 0.613627 0.884733
O O4 0.854831 0.500000 0.000000
O O5 0.883070 0.928310 0.693125
O O6 0.918820 0.787476 0.793109
O O7 0.000000 0.003274 0.756425
O O8 0.867840 0.058659 0.800195
O O9 0.268586 0.208306 0.632695
O O10 0.166888 0.386907 0.659906
O O11 0.184588 0.262973 0.541184
O O12 0.818936 0.672371 0.686444
O O13 0.832400 0.823727 0.581539
O O14 0.751500 0.929250 0.667251
O O15 0.250000 0.133160 0.750000
O O16 0.750000 0.524501 0.250000
O O17 0.882245 0.488611 0.230506
O O18 0.725628 0.000000 0.000000
O O19 0.000000 0.572540 0.830082
#
# Coordination Sequence:
#
# PCOD9414935 Si02
#       8
#     8   8   8   8   8   8   8   8
#     4  10  21  35  52  82 111 144 181 222 275 326
#     4   9  19  34  56  82 109 145 192 233 270 329
#     4  11  21  30  53  82 113 138 176 230 279 329
#     4  10  18  33  55  81 107 144 183 229 280 320
#     4  10  19  31  52  82 107 140 179 228 278 316
#     4  11  18  32  57  80 109 137 178 228 278 328
#     4  11  20  34  54  81 107 141 184 234 274 324
#     4  10  20  35  58  81 109 150 186 222 275 334
#
# _framework density 17.679427
#
# number of rings (size 3 to 8) (size 9 to 14) (size 15 to 20)
#    0.000    1.750    3.750    3.000    0.000    0.250 
#    0.000    0.625    0.000    2.250    0.000    3.500 
#    0.000    0.000    0.000    0.000    0.000    0.000 
#
# Total GULP energy -357076.630946 kJ/mol
# GULP energy per Si atom -5579.322359 kJ/mol
# Density = 1.763919 g / cm^3
# Si number density = 17.679427 Si / 1000 Ang^3
#
#
#
# Elastic Constant Matrix: (Units=GPa)
#
#
# Indices 1 2 3 4 5 6 
#
# 1 59.3842 10.8658 11.6983 0.0000 0.0000 0.0000
# 2 10.8658 49.4659 16.4067 0.0000 0.0000 0.0000
# 3 11.6983 16.4067 107.5502 0.0000 0.0000 0.0000
# 4 0.0000 0.0000 0.0000 33.9694 0.0000 0.0000
# 5 0.0000 0.0000 0.0000 0.0000 15.5546 0.0000
# 6 0.0000 0.0000 0.0000 0.0000 0.0000 6.5603
#
#
#
# Elastic Compliance Matrix: (Units=1/GPa)
#
#
# Indices 1 2 3 4 5 6 
#
# 1 0.017744 -0.003431 -0.001407 0.000000 0.000000 0.000000
# 2 -0.003431 0.021957 -0.002976 0.000000 0.000000 0.000000
# 3 -0.001407 -0.002976 0.009905 0.000000 0.000000 0.000000
# 4 0.000000 0.000000 0.000000 0.029438 0.000000 0.000000
# 5 0.000000 0.000000 0.000000 0.000000 0.064290 0.000000
# 6 0.000000 0.000000 0.000000 0.000000 0.000000 0.152432
#
#
# Mechanical properties :
#
#
# Convention : Reuss Voigt Hill
#
# Bulk Modulus (GPa) = 29.43083 32.70463 31.06773
# Shear Modulus (GPa) = 15.49328 23.04551 19.26940
#
# Velocity S-wave (km/s) = 2.96352 3.61435 3.30500
# Velocity P-wave (km/s) = 5.32851 5.99640 5.67230
#
# Compressibility (1/GPa) = 0.03397798
#
# Stress axis : x y z
#
# Youngs Moduli (GPa) = 56.35573 45.54399 100.95899
#
# Poissons Ratio (x) = 0.15627 0.14201
# Poissons Ratio (y) = 0.19337 0.30048
# Poissons Ratio (z) = 0.07927 0.13555
#
# Static dielectric constant tensor:
#      x y z
#    x 1.569830 0.000000 0.000000 
#    y 0.000000 1.640070 0.000000 
#    z 0.000000 0.000000 1.646020 
# 
# From -- ./inp_files/33089.got.cif
#   From: 2010.05.17/outbox.cif.g08.bks.cpg/sg53_17_cif.got.tgz:33089.got - 2010.06.03 12:45:16.
