data_PCOD9414573
_publ_section_title
;
Structure prediction by ZEFSAII (Michael W. Deem and Ramdas Pophale) SiO2 
 PCOD9414573
Probable space group: P M N A
;
_chemical_formula_sum "Si O2"
_cell_formula_units_Z 48
_cell_length_a 10.209370
_cell_length_b 29.808569
_cell_length_c 8.408231
_cell_angle_alpha 90.000000
_cell_angle_beta 90.000000
_cell_angle_gamma 90.000000
_cell_volume 2558.849278
_symmetry_space_group_name_H-M "P M N A"
_symmetry_group_IT_number 53
_symmetry_cell_setting 'orthorhombic'
loop_
_space_group_symop_operation_xyz
x,y,z
1/2-x,-y,1/2+z
x,-y,-z
1/2-x,y,1/2-z
-x,-y,-z
1/2+x,y,1/2-z
-x,y,z
1/2+x,-y,1/2+z
loop_
_atom_site_type_symbol
_atom_site_label
_atom_site_fract_x
_atom_site_fract_y
_atom_site_fract_z
Si Si1 0.246270 0.392604 0.945094
Si Si2 0.000000 0.450234 0.936999
Si Si3 0.000000 0.051871 0.441056
Si Si4 0.343401 0.701437 0.406077
Si Si5 0.000000 0.551970 0.446977
Si Si6 0.343368 0.199004 0.594024
Si Si7 0.500000 0.049985 0.436893
Si Si8 0.754060 0.104829 0.941346
O O1 0.250000 0.391112 0.750000
O O2 0.214756 0.341700 0.996670
O O3 0.375581 0.418437 0.998186
O O4 0.126353 0.423610 0.992950
O O5 0.000000 0.449953 0.745220
O O6 0.000000 0.500000 0.000000
O O7 0.875492 0.080376 0.498822
O O8 0.000000 0.050021 0.251968
O O9 0.000000 0.000000 0.500000
O O10 0.250000 0.703868 0.250000
O O11 0.500000 0.693316 0.369596
O O12 0.335832 0.751203 0.481056
O O13 0.000000 0.500000 0.500000
O O14 0.250000 0.201390 0.750000
O O15 0.500000 0.191150 0.629747
O O16 0.285092 0.155873 0.503594
O O17 0.626037 0.075133 0.501935
O O18 0.500000 0.000000 0.500000
O O19 0.750000 0.105859 0.750000
#
# Coordination Sequence:
#
# PCOD9414573 Si02
#       8
#     8   4   4   8   4   8   4   8
#     4   9  17  28  44  68  97 131 166 214 264 319
#     4  10  18  30  47  68  92 124 171 212 259 314
#     4  12  26  42  61  88 118 158 199 242 289 342
#     4   9  16  27  45  74 107 138 171 217 274 326
#     4  10  20  32  45  66  98 134 167 212 269 314
#     4   9  18  31  52  82 115 146 181 227 281 337
#     4  12  24  42  63  86 118 154 199 242 287 346
#     4  11  22  39  61  89 120 155 190 237 291 344
#
# _framework density 18.758433
#
# number of rings (size 3 to 8) (size 9 to 14) (size 15 to 20)
#    0.000    2.000    1.667    3.000    7.000    0.000 
#    0.000    0.000    0.000    0.000    0.000    7.000 
#    0.000    0.000    0.000    0.000    0.000    0.000 
#
# Total GULP energy -267350.741514 kJ/mol
# GULP energy per Si atom -5569.807115 kJ/mol
# Density = 1.871574 g / cm^3
# Si number density = 18.758433 Si / 1000 Ang^3
#
#
#
# Elastic Constant Matrix: (Units=GPa)
#
#
# Indices 1 2 3 4 5 6 
#
# 1 183.1385 104.0575 20.1072 0.0000 0.0000 0.0000
# 2 104.0575 239.5781 26.3220 0.0000 0.0000 0.0000
# 3 20.1072 26.3220 39.5847 0.0000 0.0000 0.0000
# 4 0.0000 0.0000 0.0000 23.5323 0.0000 0.0000
# 5 0.0000 0.0000 0.0000 0.0000 16.1686 0.0000
# 6 0.0000 0.0000 0.0000 0.0000 0.0000 39.4814
#
#
#
# Elastic Compliance Matrix: (Units=1/GPa)
#
#
# Indices 1 2 3 4 5 6 
#
# 1 0.007359 -0.003005 -0.001740 0.000000 0.000000 0.000000
# 2 -0.003005 0.005730 -0.002284 0.000000 0.000000 0.000000
# 3 -0.001740 -0.002284 0.027665 0.000000 0.000000 0.000000
# 4 0.000000 0.000000 0.000000 0.042495 0.000000 0.000000
# 5 0.000000 0.000000 0.000000 0.000000 0.061848 0.000000
# 6 0.000000 0.000000 0.000000 0.000000 0.000000 0.025328
#
#
# Mechanical properties :
#
#
# Convention : Reuss Voigt Hill
#
# Bulk Modulus (GPa) = 37.45834 84.80833 61.13333
# Shear Modulus (GPa) = 25.85568 36.62410 31.23989
#
# Velocity S-wave (km/s) = 3.71664 4.42340 4.08533
# Velocity P-wave (km/s) = 6.19920 8.44971 7.41038
#
# Compressibility (1/GPa) = 0.02669633
#
# Stress axis : x y z
#
# Youngs Moduli (GPa) = 135.89172 174.51605 36.14726
#
# Poissons Ratio (x) = 0.52443 0.06289
# Poissons Ratio (y) = 0.40836 0.08255
# Poissons Ratio (z) = 0.23641 0.39857
#
# Static dielectric constant tensor:
#      x y z
#    x 1.581820 0.000000 0.000000 
#    y 0.000000 1.692200 0.000000 
#    z 0.000000 0.000000 1.641040 
# 
# From -- ./inp_files/6865.got.cif
#   From: 2010.05.17/outbox.cif.g08.bks.cpg/sg53_4_cif.got.tgz:6865.got - 2010.06.03 12:45:16.
