data_PCOD9414683
_publ_section_title
;
Structure prediction by ZEFSAII (Michael W. Deem and Ramdas Pophale) SiO2 
 PCOD9414683
Probable space group: P M N A
;
_chemical_formula_sum "Si O2"
_cell_formula_units_Z 48
_cell_length_a 8.940817
_cell_length_b 15.662858
_cell_length_c 21.334372
_cell_angle_alpha 90.000000
_cell_angle_beta 90.000000
_cell_angle_gamma 90.000000
_cell_volume 2987.638725
_symmetry_space_group_name_H-M "P M N A"
_symmetry_group_IT_number 53
_symmetry_cell_setting 'orthorhombic'
loop_
_space_group_symop_operation_xyz
x,y,z
1/2-x,-y,1/2+z
x,-y,-z
1/2-x,y,1/2-z
-x,-y,-z
1/2+x,y,1/2-z
-x,y,z
1/2+x,-y,1/2+z
loop_
_atom_site_type_symbol
_atom_site_label
_atom_site_fract_x
_atom_site_fract_y
_atom_site_fract_z
Si Si1 0.328158 0.517310 0.575159
Si Si2 0.318706 0.120917 0.047686
Si Si3 0.818968 0.938933 0.407273
Si Si4 0.321744 0.801282 0.318416
Si Si5 0.322513 0.690209 0.949030
Si Si6 0.675728 0.344116 0.902134
O O1 0.324485 0.500000 0.500000
O O2 0.500000 0.512534 0.595527
O O3 0.261195 0.611551 0.583094
O O4 0.232219 0.441112 0.604833
O O5 0.500000 0.123164 0.048514
O O6 0.267204 0.214762 0.067576
O O7 0.274932 0.038593 0.088266
O O8 0.279381 0.101348 0.975264
O O9 0.740276 0.884996 0.353812
O O10 0.000000 0.933215 0.400889
O O11 0.250000 0.795532 0.250000
O O12 0.500000 0.803377 0.314572
O O13 0.267743 0.720839 0.359695
O O14 0.500000 0.683330 0.936322
O O15 0.304873 0.680461 0.024458
O O16 0.500000 0.336682 0.887822
#
# Coordination Sequence:
#
# PCOD9414683 Si02
#       6
#     8   8   8   8   8   8
#     4   9  17  27  40  64  97 128 156 190 233 277
#     4   8  14  26  49  73  97 128 161 195 239 295
#     4   9  16  31  50  70  95 127 163 200 241 289
#     4  12  24  36  50  69  95 128 166 206 246 290
#     4   9  15  26  45  70  96 128 162 190 230 288
#     4  10  18  31  49  67  92 125 162 200 237 285
#
# _framework density 16.066199999999998
#
# number of rings (size 3 to 8) (size 9 to 14) (size 15 to 20)
#    0.000    2.500    1.667    3.500    0.000    2.667 
#    0.000    2.500    0.000    0.000    0.000    1.167 
#    0.000    2.667    0.000    0.000    0.000    0.000 
#
# Total GULP energy -267524.521927 kJ/mol
# GULP energy per Si atom -5573.427540 kJ/mol
# Density = 1.602963 g / cm^3
# Si number density = 16.066200 Si / 1000 Ang^3
#
#
#
# Elastic Constant Matrix: (Units=GPa)
#
#
# Indices 1 2 3 4 5 6 
#
# 1 78.2795 44.5252 29.5726 0.0000 0.0000 0.0000
# 2 44.5252 143.5570 18.5127 0.0000 0.0000 0.0000
# 3 29.5726 18.5127 33.1310 0.0000 0.0000 0.0000
# 4 0.0000 0.0000 0.0000 7.6433 0.0000 0.0000
# 5 0.0000 0.0000 0.0000 0.0000 15.5488 0.0000
# 6 0.0000 0.0000 0.0000 0.0000 0.0000 23.8682
#
#
#
# Elastic Compliance Matrix: (Units=1/GPa)
#
#
# Indices 1 2 3 4 5 6 
#
# 1 0.021740 -0.004570 -0.016852 0.000000 0.000000 0.000000
# 2 -0.004570 0.008467 -0.000652 0.000000 0.000000 0.000000
# 3 -0.016852 -0.000652 0.045590 0.000000 0.000000 0.000000
# 4 0.000000 0.000000 0.000000 0.130833 0.000000 0.000000
# 5 0.000000 0.000000 0.000000 0.000000 0.064314 0.000000
# 6 0.000000 0.000000 0.000000 0.000000 0.000000 0.041897
#
#
# Mechanical properties :
#
#
# Convention : Reuss Voigt Hill
#
# Bulk Modulus (GPa) = 31.59626 48.90983 40.25304
# Shear Modulus (GPa) = 13.60403 20.23587 16.91995
#
# Velocity S-wave (km/s) = 2.91305 3.55284 3.24873
# Velocity P-wave (km/s) = 5.56987 6.88033 6.25949
#
# Compressibility (1/GPa) = 0.03164931
#
# Stress axis : x y z
#
# Youngs Moduli (GPa) = 45.99754 118.10082 21.93483
#
# Poissons Ratio (x) = 0.53969 0.36964
# Poissons Ratio (y) = 0.21020 0.01431
# Poissons Ratio (z) = 0.77514 0.07705
#
# Static dielectric constant tensor:
#      x y z
#    x 1.534150 0.000000 0.000000 
#    y 0.000000 1.565200 0.000000 
#    z 0.000000 0.000000 1.504340 
# 
# From -- ./inp_files/26295.got.cif
#   From: 2010.05.17/outbox.cif.g08.bks.cpg/sg53_14_cif.got.tgz:26295.got - 2010.06.03 12:45:16.
