data_PCOD9414448
_publ_section_title
;
Structure prediction by ZEFSAII (Michael W. Deem and Ramdas Pophale) SiO2 
 PCOD9414448
Probable space group: P M N A
;
_chemical_formula_sum "Si O2"
_cell_formula_units_Z 48
_cell_length_a 8.572188
_cell_length_b 12.240643
_cell_length_c 26.999111
_cell_angle_alpha 90.000000
_cell_angle_beta 90.000000
_cell_angle_gamma 90.000000
_cell_volume 2832.992230
_symmetry_space_group_name_H-M "P M N A"
_symmetry_group_IT_number 53
_symmetry_cell_setting 'orthorhombic'
loop_
_space_group_symop_operation_xyz
x,y,z
1/2-x,-y,1/2+z
x,-y,-z
1/2-x,y,1/2-z
-x,-y,-z
1/2+x,y,1/2-z
-x,y,z
1/2+x,-y,1/2+z
loop_
_atom_site_type_symbol
_atom_site_label
_atom_site_fract_x
_atom_site_fract_y
_atom_site_fract_z
Si Si1 0.183438 0.162430 0.615151
Si Si2 0.191185 0.960416 0.555093
Si Si3 0.682656 0.360964 0.959637
Si Si4 0.187175 0.665757 0.305343
Si Si5 0.182621 0.513960 0.877320
Si Si6 0.188116 0.710557 0.568734
O O1 0.191018 0.245064 0.568555
O O2 0.247711 0.231649 0.661423
O O3 0.000000 0.144593 0.625870
O O4 0.247954 0.047539 0.595998
O O5 0.238947 0.836739 0.567014
O O6 0.000000 0.962394 0.555011
O O7 0.238189 0.000000 0.500000
O O8 0.500000 0.395483 0.958287
O O9 0.779704 0.444956 0.927098
O O10 0.731866 0.343011 0.015835
O O11 0.250000 0.669085 0.250000
O O12 0.236386 0.555474 0.333920
O O13 0.000000 0.670180 0.305281
O O14 0.246342 0.634854 0.887899
O O15 0.000000 0.516741 0.868095
O O16 0.000000 0.709101 0.570890
#
# Coordination Sequence:
#
# PCOD9414448 Si02
#       6
#     8   8   8   8   8   8
#     4   8  14  26  46  75 103 127 160 206 249 292
#     4   9  14  24  46  75 103 133 173 209 239 287
#     4   9  16  28  46  69  99 133 170 210 249 290
#     4  10  20  36  58  79  99 122 158 207 261 308
#     4  11  22  33  46  68 100 134 170 208 251 302
#     4  10  18  28  47  72 101 137 175 210 245 291
#
# _framework density 16.943217000000001
#
# number of rings (size 3 to 8) (size 9 to 14) (size 15 to 20)
#    0.000    2.500    1.667    3.500    0.000    2.667 
#    0.000    0.000    0.000    6.500    0.000    2.333 
#    0.000    0.000    0.000    0.000    0.000    0.000 
#
# Total GULP energy -267537.278196 kJ/mol
# GULP energy per Si atom -5573.693296 kJ/mol
# Density = 1.690465 g / cm^3
# Si number density = 16.943217 Si / 1000 Ang^3
#
#
#
# Elastic Constant Matrix: (Units=GPa)
#
#
# Indices 1 2 3 4 5 6 
#
# 1 24.7613 21.0867 22.2459 0.0000 0.0000 0.0000
# 2 21.0867 107.2843 59.1283 0.0000 0.0000 0.0000
# 3 22.2459 59.1283 115.0075 0.0000 0.0000 0.0000
# 4 0.0000 0.0000 0.0000 9.4165 0.0000 0.0000
# 5 0.0000 0.0000 0.0000 0.0000 15.5360 0.0000
# 6 0.0000 0.0000 0.0000 0.0000 0.0000 26.5895
#
#
#
# Elastic Compliance Matrix: (Units=1/GPa)
#
#
# Indices 1 2 3 4 5 6 
#
# 1 0.051956 -0.006521 -0.006697 0.000000 0.000000 0.000000
# 2 -0.006521 0.013825 -0.005846 0.000000 0.000000 0.000000
# 3 -0.006697 -0.005846 0.012996 0.000000 0.000000 0.000000
# 4 0.000000 0.000000 0.000000 0.106196 0.000000 0.000000
# 5 0.000000 0.000000 0.000000 0.000000 0.064367 0.000000
# 6 0.000000 0.000000 0.000000 0.000000 0.000000 0.037609
#
#
# Mechanical properties :
#
#
# Convention : Reuss Voigt Hill
#
# Bulk Modulus (GPa) = 24.60147 50.21943 37.41045
# Shear Modulus (GPa) = 14.76551 19.94788 17.35670
#
# Velocity S-wave (km/s) = 2.95527 3.43496 3.20410
# Velocity P-wave (km/s) = 5.11823 6.74063 5.98466
#
# Compressibility (1/GPa) = 0.04064797
#
# Stress axis : x y z
#
# Youngs Moduli (GPa) = 19.24717 72.33360 76.94480
#
# Poissons Ratio (x) = 0.47167 0.51532
# Poissons Ratio (y) = 0.12551 0.44985
# Poissons Ratio (z) = 0.12890 0.42289
#
# Static dielectric constant tensor:
#      x y z
#    x 1.577780 0.000000 0.000000 
#    y 0.000000 1.603590 0.000000 
#    z 0.000000 0.000000 1.555540 
# 
# From -- ./inp_files/37899.got.cif
#   From: 2010.05.17/outbox.cif.g08.bks.cpg/sg53_19_cif.got.tgz:37899.got - 2010.06.03 12:45:16.
