data_PCOD9414072
_publ_section_title
;
Structure prediction by ZEFSAII (Michael W. Deem and Ramdas Pophale) SiO2 
 PCOD9414072
Probable space group: P M N A
;
_chemical_formula_sum "Si O2"
_cell_formula_units_Z 56
_cell_length_a 14.365215
_cell_length_b 30.606946
_cell_length_c 5.441289
_cell_angle_alpha 90.000000
_cell_angle_beta 90.000000
_cell_angle_gamma 90.000000
_cell_volume 2392.400699
_symmetry_space_group_name_H-M "P M N A"
_symmetry_group_IT_number 53
_symmetry_cell_setting 'orthorhombic'
loop_
_space_group_symop_operation_xyz
x,y,z
1/2-x,-y,1/2+z
x,-y,-z
1/2-x,y,1/2-z
-x,-y,-z
1/2+x,y,1/2-z
-x,y,z
1/2+x,-y,1/2+z
loop_
_atom_site_type_symbol
_atom_site_label
_atom_site_fract_x
_atom_site_fract_y
_atom_site_fract_z
Si Si1 0.148323 0.273270 0.473010
Si Si2 0.640413 0.411884 0.511124
Si Si3 0.886706 0.825669 0.643852
Si Si4 0.387052 0.974964 0.249638
Si Si5 0.613175 0.124260 0.643949
Si Si6 0.140584 0.691386 0.022209
Si Si7 0.648544 0.551921 0.994577
O O1 0.151788 0.222885 0.394846
O O2 0.250965 0.294301 0.499536
O O3 0.104844 0.282489 0.739953
O O4 0.100700 0.296263 0.242283
O O5 0.632195 0.360284 0.548326
O O6 0.749658 0.425365 0.501437
O O7 0.603532 0.430013 0.253570
O O8 0.601497 0.434662 0.752323
O O9 0.862163 0.850225 0.391885
O O10 0.000000 0.822467 0.655415
O O11 0.856346 0.851580 0.891355
O O12 0.500000 0.973710 0.229738
O O13 0.356513 0.925362 0.302463
O O14 0.363969 0.000000 0.500000
O O15 0.355341 0.000000 0.000000
O O16 0.500000 0.123240 0.626815
O O17 0.660735 0.500000 0.000000
#
# Coordination Sequence:
#
# PCOD9414072 Si02
#       7
#     8   8   8   8   8   8   8
#     4  10  18  30  44  61  81 106 146 182 211 250
#     4  10  16  25  36  51  75 102 138 163 194 244
#     4  10  19  30  44  61  85 117 145 173 211 253
#     4   9  15  23  37  56  78 107 140 169 195 231
#     4   9  17  28  40  58  84 113 144 170 201 250
#     4  10  19  30  45  62  80 110 145 181 217 244
#     4  10  16  22  33  51  75 105 136 157 184 237
#
# _framework density 23.407450000000001
#
# number of rings (size 3 to 8) (size 9 to 14) (size 15 to 20)
#    0.000    2.286    0.000    8.143    0.000    3.429 
#    0.000    0.000    0.000    0.000    0.000    0.000 
#    0.000    0.000    0.000  144.000    0.000  466.143 
#
# Total GULP energy -312771.907787 kJ/mol
# GULP energy per Si atom -5585.212639 kJ/mol
# Density = 2.335417 g / cm^3
# Si number density = 23.407450 Si / 1000 Ang^3
#
#
#
# Elastic Constant Matrix: (Units=GPa)
#
#
# Indices 1 2 3 4 5 6 
#
# 1 86.1702 -8.9010 13.0564 0.0000 0.0000 0.0000
# 2 -8.9010 195.0767 89.2216 0.0000 0.0000 0.0000
# 3 13.0564 89.2216 271.9514 0.0000 0.0000 0.0000
# 4 0.0000 0.0000 0.0000 49.9537 0.0000 0.0000
# 5 0.0000 0.0000 0.0000 0.0000 -18.2060 0.0000
# 6 0.0000 0.0000 0.0000 0.0000 0.0000 15.3825
#
#
#
# Elastic Compliance Matrix: (Units=1/GPa)
#
#
# Indices 1 2 3 4 5 6 
#
# 1 0.011835 0.000941 -0.000877 0.000000 0.000000 0.000000
# 2 0.000941 0.006106 -0.002048 0.000000 0.000000 0.000000
# 3 -0.000877 -0.002048 0.004391 0.000000 0.000000 0.000000
# 4 0.000000 0.000000 0.000000 0.020019 0.000000 0.000000
# 5 0.000000 0.000000 0.000000 0.000000 -0.054927 0.000000
# 6 0.000000 0.000000 0.000000 0.000000 0.000000 0.065009
#
#
# Mechanical properties :
#
#
# Convention : Reuss Voigt Hill
#
# Bulk Modulus (GPa) = 54.45514 82.21692 68.33603
# Shear Modulus (GPa) = 79.97106 40.08079 60.02593
#
# Velocity S-wave (km/s) = 5.85141 4.14250 5.06948
# Velocity P-wave (km/s) = 8.30461 7.62108 7.97017
#
# Compressibility (1/GPa) = 0.01836374
#
# Stress axis : x y z
#
# Youngs Moduli (GPa) = 84.49494 163.77281 227.72391
#
# Poissons Ratio (x) = -0.15413 0.19970
# Poissons Ratio (y) = -0.07952 0.46648
# Poissons Ratio (z) = 0.07410 0.33548
#
# Static dielectric constant tensor:
#      x y z
#    x 1.668180 0.000000 0.000000 
#    y 0.000000 1.857080 0.000000 
#    z 0.000000 0.000000 1.951700 
# 
# From -- ./inp_files/3863.got.cif
#   From: 2010.05.17/outbox.cif.g08.bks.cpg/sg53_2_cif.got.tgz:3863.got - 2010.06.03 12:45:16.
