data_PCOD9414374
_publ_section_title
;
Structure prediction by ZEFSAII (Michael W. Deem and Ramdas Pophale) SiO2 
 PCOD9414374
Probable space group: P M N A
;
_chemical_formula_sum "Si O2"
_cell_formula_units_Z 64
_cell_length_a 9.024963
_cell_length_b 18.742644
_cell_length_c 27.111185
_cell_angle_alpha 90.000000
_cell_angle_beta 90.000000
_cell_angle_gamma 90.000000
_cell_volume 4585.902181
_symmetry_space_group_name_H-M "P M N A"
_symmetry_group_IT_number 53
_symmetry_cell_setting 'orthorhombic'
loop_
_space_group_symop_operation_xyz
x,y,z
1/2-x,-y,1/2+z
x,-y,-z
1/2-x,y,1/2-z
-x,-y,-z
1/2+x,y,1/2-z
-x,y,z
1/2+x,-y,1/2+z
loop_
_atom_site_type_symbol
_atom_site_label
_atom_site_fract_x
_atom_site_fract_y
_atom_site_fract_z
Si Si1 0.321231 0.910243 0.103384
Si Si2 0.677075 0.166264 0.509075
Si Si3 0.178394 0.583883 0.101575
Si Si4 0.822507 0.330679 0.802133
Si Si5 0.328869 0.455988 0.051631
Si Si6 0.169723 0.950927 0.549347
Si Si7 0.322137 0.836899 0.302887
Si Si8 0.677653 0.331528 0.501911
O O1 0.500000 0.904365 0.103636
O O2 0.256123 0.863394 0.058300
O O3 0.250447 0.882597 0.153710
O O4 0.284241 0.993120 0.091428
O O5 0.500000 0.161759 0.515849
O O6 0.728347 0.115631 0.464202
O O7 0.717918 0.248529 0.500195
O O8 0.227134 0.620359 0.152421
O O9 0.247416 0.506838 0.090552
O O10 0.000000 0.578031 0.101994
O O11 0.217539 0.635545 0.055522
O O12 0.750000 0.349476 0.750000
O O13 0.790414 0.247203 0.812640
O O14 0.000000 0.336827 0.797915
O O15 0.500000 0.446511 0.064602
O O16 0.252398 0.381042 0.039261
O O17 0.321048 0.500000 0.000000
O O18 0.000000 0.927675 0.557693
O O19 0.169144 0.000000 0.500000
O O20 0.250000 0.854047 0.250000
O O21 0.500000 0.845841 0.301578
O O22 0.500000 0.337414 0.497142
#
# Coordination Sequence:
#
# PCOD9414374 Si02
#       8
#     8   8   8   8   8   8   8   8
#     4  10  19  30  43  59  82 113 144 172 207 247
#     4  10  18  27  42  63  84 108 141 175 205 243
#     4   9  16  28  43  56  77 110 140 165 200 242
#     4   9  18  30  43  60  82 108 138 172 207 241
#     4   9  17  27  39  58  80 102 133 170 203 237
#     4   8  16  29  41  56  81 110 138 169 206 246
#     4  10  19  31  45  62  84 109 141 177 210 244
#     4   9  17  28  41  58  81 109 138 167 202 245
#
# _framework density 13.955814999999999
#
# number of rings (size 3 to 8) (size 9 to 14) (size 15 to 20)
#    0.000    2.750    0.000    3.000    0.000    8.250 
#    0.000    2.500    0.000    0.000    0.000    0.000 
#    0.000    1.000    0.000    5.500    0.000    4.250 
#
# Total GULP energy -356534.227088 kJ/mol
# GULP energy per Si atom -5570.847298 kJ/mol
# Density = 1.392405 g / cm^3
# Si number density = 13.955815 Si / 1000 Ang^3
#
#
#
# Elastic Constant Matrix: (Units=GPa)
#
#
# Indices 1 2 3 4 5 6 
#
# 1 46.9429 50.7204 40.2625 0.0000 0.0000 0.0000
# 2 50.7204 109.8931 62.7838 0.0000 0.0000 0.0000
# 3 40.2625 62.7838 95.8178 0.0000 0.0000 0.0000
# 4 0.0000 0.0000 0.0000 27.8950 0.0000 0.0000
# 5 0.0000 0.0000 0.0000 0.0000 20.0850 0.0000
# 6 0.0000 0.0000 0.0000 0.0000 0.0000 14.6072
#
#
#
# Elastic Compliance Matrix: (Units=1/GPa)
#
#
# Indices 1 2 3 4 5 6 
#
# 1 0.046710 -0.016535 -0.008793 0.000000 0.000000 0.000000
# 2 -0.016535 0.020398 -0.006418 0.000000 0.000000 0.000000
# 3 -0.008793 -0.006418 0.018336 0.000000 0.000000 0.000000
# 4 0.000000 0.000000 0.000000 0.035849 0.000000 0.000000
# 5 0.000000 0.000000 0.000000 0.000000 0.049788 0.000000
# 6 0.000000 0.000000 0.000000 0.000000 0.000000 0.068459
#
#
# Mechanical properties :
#
#
# Convention : Reuss Voigt Hill
#
# Bulk Modulus (GPa) = 45.55209 62.24305 53.89757
# Shear Modulus (GPa) = 16.11092 19.10992 17.61042
#
# Velocity S-wave (km/s) = 3.40137 3.70444 3.55613
# Velocity P-wave (km/s) = 6.93807 7.93688 7.45422
#
# Compressibility (1/GPa) = 0.02195289
#
# Stress axis : x y z
#
# Youngs Moduli (GPa) = 21.40883 49.02491 54.53672
#
# Poissons Ratio (x) = 0.81063 0.47954
# Poissons Ratio (y) = 0.35399 0.34999
# Poissons Ratio (z) = 0.18825 0.31462
#
# Static dielectric constant tensor:
#      x y z
#    x 1.467370 0.000000 0.000000 
#    y 0.000000 1.454740 0.000000 
#    z 0.000000 0.000000 1.442040 
# 
# From -- ./inp_files/34506.got.cif
#   From: 2010.05.17/outbox.cif.g08.bks.cpg/sg53_18_cif.got.tgz:34506.got - 2010.06.03 12:45:16.
