data_PCOD9414315
_publ_section_title
;
Structure prediction by ZEFSAII (Michael W. Deem and Ramdas Pophale) SiO2 
 PCOD9414315
Probable space group: P M N A
;
_chemical_formula_sum "Si O2"
_cell_formula_units_Z 36
_cell_length_a 15.186025
_cell_length_b 9.418365
_cell_length_c 13.560948
_cell_angle_alpha 90.000000
_cell_angle_beta 90.000000
_cell_angle_gamma 90.000000
_cell_volume 1939.588847
_symmetry_space_group_name_H-M "P M N A"
_symmetry_group_IT_number 53
_symmetry_cell_setting 'orthorhombic'
loop_
_space_group_symop_operation_xyz
x,y,z
1/2-x,-y,1/2+z
x,-y,-z
1/2-x,y,1/2-z
-x,-y,-z
1/2+x,y,1/2-z
-x,y,z
1/2+x,-y,1/2+z
loop_
_atom_site_type_symbol
_atom_site_label
_atom_site_fract_x
_atom_site_fract_y
_atom_site_fract_z
Si Si1 0.644015 0.000000 0.500000
Si Si2 0.096365 0.721553 0.094546
Si Si3 0.284608 0.115386 0.146272
Si Si4 0.102479 0.161331 0.682564
Si Si5 0.710303 0.657139 0.025909
O O1 0.592448 0.141288 0.523768
O O2 0.707260 0.027385 0.407172
O O3 0.108732 0.781240 0.205548
O O4 0.186600 0.647768 0.059145
O O5 0.000000 0.647885 0.090509
O O6 0.250000 0.173288 0.250000
O O7 0.359290 0.997884 0.168269
O O8 0.303023 0.240112 0.068662
O O9 0.157901 0.266487 0.613543
O O10 0.000000 0.161924 0.654647
O O11 0.678981 0.500000 0.000000
#
# Coordination Sequence:
#
# PCOD9414315 Si02
#       5
#     4   8   8   8   8
#     4  10  17  32  59  86 116 142 175 246 295 348
#     4  10  20  35  61  88 113 145 189 241 295 343
#     4  11  19  36  59  86 113 145 196 243 291 339
#     4  11  21  37  63  87 114 150 193 245 293 343
#     4  11  24  39  57  82 121 163 193 234 281 347
#
# _framework density 18.560635000000001
#
# number of rings (size 3 to 8) (size 9 to 14) (size 15 to 20)
#    0.000    1.333    6.667    1.000    0.000    4.444 
#    0.000    0.000    0.000    0.000    0.000    0.000 
#    0.000    0.000    0.000    0.000    0.000    0.000 
#
# Total GULP energy -200683.421207 kJ/mol
# GULP energy per Si atom -5574.539478 kJ/mol
# Density = 1.851839 g / cm^3
# Si number density = 18.560635 Si / 1000 Ang^3
#
#
#
# Elastic Constant Matrix: (Units=GPa)
#
#
# Indices 1 2 3 4 5 6 
#
# 1 85.9028 27.1851 42.8116 0.0000 0.0000 0.0000
# 2 27.1851 77.2303 10.7677 0.0000 0.0000 0.0000
# 3 42.8116 10.7677 86.3040 0.0000 0.0000 0.0000
# 4 0.0000 0.0000 0.0000 10.0117 0.0000 0.0000
# 5 0.0000 0.0000 0.0000 0.0000 15.8590 0.0000
# 6 0.0000 0.0000 0.0000 0.0000 0.0000 8.2610
#
#
#
# Elastic Compliance Matrix: (Units=1/GPa)
#
#
# Indices 1 2 3 4 5 6 
#
# 1 0.017130 -0.004931 -0.007882 0.000000 0.000000 0.000000
# 2 -0.004931 0.014597 0.000625 0.000000 0.000000 0.000000
# 3 -0.007882 0.000625 0.015419 0.000000 0.000000 0.000000
# 4 0.000000 0.000000 0.000000 0.099883 0.000000 0.000000
# 5 0.000000 0.000000 0.000000 0.000000 0.063056 0.000000
# 6 0.000000 0.000000 0.000000 0.000000 0.000000 0.121050
#
#
# Mechanical properties :
#
#
# Convention : Reuss Voigt Hill
#
# Bulk Modulus (GPa) = 43.91875 45.66286 44.79081
# Shear Modulus (GPa) = 13.77032 18.07121 15.92076
#
# Velocity S-wave (km/s) = 2.72676 3.12369 2.93195
# Velocity P-wave (km/s) = 5.79890 6.13721 5.97045
#
# Compressibility (1/GPa) = 0.02276932
#
# Stress axis : x y z
#
# Youngs Moduli (GPa) = 58.37824 68.50822 64.85517
#
# Poissons Ratio (x) = 0.33779 0.51120
# Poissons Ratio (y) = 0.28785 -0.04052
# Poissons Ratio (z) = 0.46014 -0.04280
#
# Static dielectric constant tensor:
#      x y z
#    x 1.686020 0.000000 0.000000 
#    y 0.000000 1.617590 0.000000 
#    z 0.000000 0.000000 1.656230 
# 
# From -- ./inp_files/22298.got.cif
#   From: 2010.05.17/outbox.cif.g08.bks.cpg/sg53_12_cif.got.tgz:22298.got - 2010.06.03 12:45:16.
