data_PCOD9414001
_publ_section_title
;
Structure prediction by ZEFSAII (Michael W. Deem and Ramdas Pophale) SiO2 
 PCOD9414001
Probable space group: P N N A
;
_chemical_formula_sum "Si O2"
_cell_formula_units_Z 64
_cell_length_a 9.000000
_cell_length_b 12.000000
_cell_length_c 30.000000
_cell_angle_alpha 90.000000
_cell_angle_beta 90.000000
_cell_angle_gamma 90.000000
_cell_volume 3240.000000
_symmetry_space_group_name_H-M "P N N A"
_symmetry_group_IT_number 52
_symmetry_cell_setting 'orthorhombic'
loop_
_space_group_symop_operation_xyz
x,y,z
1/2-x,-y,z
x,1/2-y,1/2-z
1/2-x,1/2+y,1/2-z
-x,-y,-z
1/2+x,y,-z
-x,1/2+y,1/2+z
1/2+x,1/2-y,1/2+z
loop_
_atom_site_type_symbol
_atom_site_label
_atom_site_fract_x
_atom_site_fract_y
_atom_site_fract_z
Si Si1 0.589299 0.436501 0.874900
Si Si2 0.573544 0.969749 0.802967
Si Si3 0.543776 0.224486 0.935758
Si Si4 0.520038 0.381082 0.063594
Si Si5 0.134710 0.599539 0.633503
Si Si6 0.075899 0.467920 0.793864
Si Si7 0.723121 0.694812 0.000558
Si Si8 0.578719 0.240745 0.149222
O O1 0.750000 0.500000 0.872576
O O2 0.592912 0.316315 0.898474
O O3 0.483890 0.507345 0.907937
O O4 0.509811 0.445709 0.826848
O O5 0.513340 0.958879 0.752460
O O6 0.524614 0.857430 0.830235
O O7 0.750000 0.000000 0.804986
O O8 0.470554 0.064625 0.825660
O O9 0.477551 0.123718 0.906984
O O10 0.401788 0.260164 0.965784
O O11 0.680196 0.217626 0.970822
O O12 0.656299 0.370706 0.029752
O O13 0.528656 0.281184 0.099912
O O14 0.369609 0.376128 0.035070
O O15 0.250000 0.500000 0.623079
O O16 0.249902 0.699199 0.644873
O O17 0.250000 0.500000 0.787324
O O18 0.070572 0.348758 0.819112
#
# Coordination Sequence:
#
# PCOD9414001 Si02
#       8
#     8   8   8   8   8   8   8   8
#     4  11  23  37  59  91 132 165 198 248 309 378
#     4  11  25  42  67  92 123 162 208 253 303 372
#     4  11  22  40  60  90 126 163 207 257 309 359
#     4  10  21  37  58  91 127 164 204 250 314 362
#     4  10  22  43  67  88 121 162 209 256 309 370
#     4  11  23  41  66  97 125 160 204 251 311 381
#     4  10  22  36  62  88 125 162 214 252 302 381
#     4  10  21  42  66  89 128 164 201 255 313 364
#
# _framework density 19.753086
#
# number of rings (size 3 to 8) (size 9 to 14) (size 15 to 20)
#    0.000    1.500    2.500    2.625    3.500    3.000 
#    0.000    6.250    0.000    0.000    0.000    0.000 
#    0.000    0.000    0.000    0.000    0.000    0.000 
#
# Total GULP energy -357389.377408 kJ/mol
# GULP energy per Si atom -5584.209022 kJ/mol
# Density = 1.970813 g / cm^3
# Si number density = 19.753086 Si / 1000 Ang^3
#
#
#
# Elastic Constant Matrix: (Units=GPa)
#
#
# Indices 1 2 3 4 5 6 
#
# 1 118.4451 14.5509 33.0315 0.0000 0.0000 0.0000
# 2 14.5509 36.9897 25.7197 0.0000 0.0000 0.0000
# 3 33.0315 25.7197 113.7939 0.0000 0.0000 0.0000
# 4 0.0000 0.0000 0.0000 21.6282 0.0000 0.0000
# 5 0.0000 0.0000 0.0000 0.0000 37.7995 0.0000
# 6 0.0000 0.0000 0.0000 0.0000 0.0000 23.1982
#
#
#
# Elastic Compliance Matrix: (Units=1/GPa)
#
#
# Indices 1 2 3 4 5 6 
#
# 1 0.009324 -0.002119 -0.002228 0.000000 0.000000 0.000000
# 2 -0.002119 0.032557 -0.006743 0.000000 0.000000 0.000000
# 3 -0.002228 -0.006743 0.010959 0.000000 0.000000 0.000000
# 4 0.000000 0.000000 0.000000 0.046236 0.000000 0.000000
# 5 0.000000 0.000000 0.000000 0.000000 0.026455 0.000000
# 6 0.000000 0.000000 0.000000 0.000000 0.000000 0.043107
#
#
# Mechanical properties :
#
#
# Convention : Reuss Voigt Hill
#
# Bulk Modulus (GPa) = 32.61617 46.20364 39.40991
# Shear Modulus (GPa) = 24.87091 29.58695 27.22893
#
# Velocity S-wave (km/s) = 3.55221 3.87439 3.71680
# Velocity P-wave (km/s) = 5.77686 6.59211 6.19790
#
# Compressibility (1/GPa) = 0.03065964
#
# Stress axis : x y z
#
# Youngs Moduli (GPa) = 107.24670 30.71540 91.25248
#
# Poissons Ratio (x) = 0.06509 0.20328
# Poissons Ratio (y) = 0.22726 0.61535
# Poissons Ratio (z) = 0.23891 0.20713
#
# Static dielectric constant tensor:
#      x y z
#    x 1.685060 0.000000 0.000000 
#    y 0.000000 1.731810 0.000000 
#    z 0.000000 0.000000 1.704420 
# 
# From -- ./inp_files/44586.got.cif
#   From: 2010.05.17/outbox.ucp.g08.bks.cvg/sg52_23_cif.got.tgz:44586.got - 2010.06.11 16:30:12.
