data_PCOD9414404
_publ_section_title
;
Structure prediction by ZEFSAII (Michael W. Deem and Ramdas Pophale) SiO2 
 PCOD9414404
Probable space group: P M N A
;
_chemical_formula_sum "Si O2"
_cell_formula_units_Z 64
_cell_length_a 8.978070
_cell_length_b 26.894343
_cell_length_c 18.742635
_cell_angle_alpha 90.000000
_cell_angle_beta 90.000000
_cell_angle_gamma 90.000000
_cell_volume 4525.583416
_symmetry_space_group_name_H-M "P M N A"
_symmetry_group_IT_number 53
_symmetry_cell_setting 'orthorhombic'
loop_
_space_group_symop_operation_xyz
x,y,z
1/2-x,-y,1/2+z
x,-y,-z
1/2-x,y,1/2-z
-x,-y,-z
1/2+x,y,1/2-z
-x,y,z
1/2+x,-y,1/2+z
loop_
_atom_site_type_symbol
_atom_site_label
_atom_site_fract_x
_atom_site_fract_y
_atom_site_fract_z
Si Si1 0.177418 0.895380 0.919052
Si Si2 0.679683 0.509840 0.672491
Si Si3 0.828156 0.948951 0.453779
Si Si4 0.322105 0.399328 0.085105
Si Si5 0.171377 0.552844 0.042080
Si Si6 0.678391 0.304516 0.173893
Si Si7 0.822431 0.004419 0.172125
Si Si8 0.178876 0.810176 0.672814
O O1 0.206399 0.942360 0.866252
O O2 0.255369 0.847691 0.884892
O O3 0.000000 0.888866 0.923345
O O4 0.243559 0.909849 0.996056
O O5 0.750000 0.505001 0.750000
O O6 0.500000 0.513264 0.675047
O O7 0.744017 0.559296 0.634868
O O8 0.718669 0.463131 0.621274
O O9 0.000000 0.934909 0.442150
O O10 0.826987 0.000000 0.500000
O O11 0.747178 0.962981 0.380268
O O12 0.500000 0.405228 0.090286
O O13 0.279854 0.345188 0.114988
O O14 0.269754 0.410230 0.004610
O O15 0.000000 0.569878 0.042761
O O16 0.173952 0.500000 0.000000
O O17 0.750000 0.317521 0.250000
O O18 0.500000 0.306318 0.182021
O O19 0.717859 0.247437 0.156649
O O20 0.750000 0.003549 0.250000
O O21 0.000000 0.998222 0.176911
O O22 0.250000 0.821939 0.750000
O O23 0.000000 0.814810 0.676784
#
# Coordination Sequence:
#
# PCOD9414404 Si02
#       8
#     8   8   8   8   8   8   8   8
#     4  10  19  30  44  62  84 111 143 175 209 247
#     4  10  19  29  41  59  83 109 138 170 204 243
#     4   9  17  29  44  61  82 109 140 172 207 247
#     4  10  18  28  43  61  81 108 141 172 205 245
#     4   8  16  29  41  56  80 107 134 167 204 241
#     4   9  19  31  42  59  82 108 139 175 209 242
#     4  10  19  29  42  61  86 113 141 174 208 245
#     4  10  19  31  44  59  82 110 141 176 211 244
#
# _framework density 14.141821999999999
#
# number of rings (size 3 to 8) (size 9 to 14) (size 15 to 20)
#    0.000    2.500    0.000    3.750    0.000    9.250 
#    0.000    0.000    0.000    0.000    0.000    0.000 
#    0.000    1.000    0.000    6.500    0.000    5.500 
#
# Total GULP energy -356702.585177 kJ/mol
# GULP energy per Si atom -5573.477893 kJ/mol
# Density = 1.410964 g / cm^3
# Si number density = 14.141822 Si / 1000 Ang^3
#
#
#
# Elastic Constant Matrix: (Units=GPa)
#
#
# Indices 1 2 3 4 5 6 
#
# 1 63.8810 38.8245 49.2254 0.0000 0.0000 0.0000
# 2 38.8245 65.9223 41.8076 0.0000 0.0000 0.0000
# 3 49.2254 41.8076 98.7890 0.0000 0.0000 0.0000
# 4 0.0000 0.0000 0.0000 25.6771 0.0000 0.0000
# 5 0.0000 0.0000 0.0000 0.0000 27.1087 0.0000
# 6 0.0000 0.0000 0.0000 0.0000 0.0000 16.1649
#
#
#
# Elastic Compliance Matrix: (Units=1/GPa)
#
#
# Indices 1 2 3 4 5 6 
#
# 1 0.030637 -0.011429 -0.010429 0.000000 0.000000 0.000000
# 2 -0.011429 0.024998 -0.004884 0.000000 0.000000 0.000000
# 3 -0.010429 -0.004884 0.017386 0.000000 0.000000 0.000000
# 4 0.000000 0.000000 0.000000 0.038945 0.000000 0.000000
# 5 0.000000 0.000000 0.000000 0.000000 0.036889 0.000000
# 6 0.000000 0.000000 0.000000 0.000000 0.000000 0.061863
#
#
# Mechanical properties :
#
#
# Convention : Reuss Voigt Hill
#
# Bulk Modulus (GPa) = 51.18718 54.25637 52.72177
# Shear Modulus (GPa) = 18.46963 20.37245 19.42104
#
# Velocity S-wave (km/s) = 3.61782 3.79962 3.70983
# Velocity P-wave (km/s) = 7.32978 7.59596 7.46406
#
# Compressibility (1/GPa) = 0.01953614
#
# Stress axis : x y z
#
# Youngs Moduli (GPa) = 32.64040 40.00311 57.51668
#
# Poissons Ratio (x) = 0.45721 0.59985
# Poissons Ratio (y) = 0.37306 0.28092
# Poissons Ratio (z) = 0.34041 0.19538
#
# Static dielectric constant tensor:
#      x y z
#    x 1.472280 0.000000 0.000000 
#    y 0.000000 1.453460 0.000000 
#    z 0.000000 0.000000 1.459930 
# 
# From -- ./inp_files/27090.got.cif
#   From: 2010.05.17/outbox.cif.g08.bks.cpg/sg53_14_cif.got.tgz:27090.got - 2010.06.03 12:45:16.
