data_PCOD9414048
_publ_section_title
;
Structure prediction by ZEFSAII (Michael W. Deem and Ramdas Pophale) SiO2 
 PCOD9414048
Probable space group: P N N A
;
_chemical_formula_sum "Si O2"
_cell_formula_units_Z 36
_cell_length_a 9.000000
_cell_length_b 9.000000
_cell_length_c 21.000000
_cell_angle_alpha 90.000000
_cell_angle_beta 90.000000
_cell_angle_gamma 90.000000
_cell_volume 1701.000000
_symmetry_space_group_name_H-M "P N N A"
_symmetry_group_IT_number 52
_symmetry_cell_setting 'orthorhombic'
loop_
_space_group_symop_operation_xyz
x,y,z
1/2-x,-y,z
x,1/2-y,1/2-z
1/2-x,1/2+y,1/2-z
-x,-y,-z
1/2+x,y,-z
-x,1/2+y,1/2+z
1/2+x,1/2-y,1/2+z
loop_
_atom_site_type_symbol
_atom_site_label
_atom_site_fract_x
_atom_site_fract_y
_atom_site_fract_z
Si Si1 0.379322 0.225466 0.557086
Si Si2 0.727003 0.176528 0.579404
Si Si3 0.750000 0.500000 0.158618
Si Si4 0.250000 0.500000 0.344307
Si Si5 0.972042 0.914095 0.230599
Si Si6 0.750000 0.500000 0.376762
O O1 0.552513 0.188000 0.563196
O O2 0.320403 0.190362 0.486296
O O3 0.290339 0.131744 0.610320
O O4 0.347642 0.394840 0.578094
O O5 0.759599 0.336336 0.618280
O O6 0.750000 0.000000 0.603609
O O7 0.888051 0.523226 0.207109
O O8 0.393439 0.507499 0.298447
O O9 0.023575 0.750000 0.250000
O O10 0.853889 0.908811 0.172408
#
# Coordination Sequence:
#
# PCOD9414048 Si02
#       6
#     8   8   4   4   8   4
#     4  12  26  48  77 111 156 201 262 321 393 473
#     4  12  29  48  78 116 158 203 259 321 396 473
#     4  11  26  46  75 105 146 200 257 310 388 465
#     4  12  29  50  75 117 154 201 256 326 396 462
#     4  11  25  46  73 105 149 202 250 319 386 462
#     4  11  23  46  74 108 146 199 257 316 388 471
#
# _framework density 21.164021000000002
#
# number of rings (size 3 to 8) (size 9 to 14) (size 15 to 20)
#    0.000    0.444    5.556    1.333    6.222    3.556 
#    0.000    0.000    0.000    0.000    0.000    0.000 
#    0.000    0.000    0.000    0.000    0.000    0.000 
#
# Total GULP energy -200978.201638 kJ/mol
# GULP energy per Si atom -5582.727823 kJ/mol
# Density = 2.111585 g / cm^3
# Si number density = 21.164021 Si / 1000 Ang^3
#
#
#
# Elastic Constant Matrix: (Units=GPa)
#
#
# Indices 1 2 3 4 5 6 
#
# 1 113.3794 20.8655 23.3104 0.0000 0.0000 0.0000
# 2 20.8655 134.5993 35.8136 0.0000 0.0000 0.0000
# 3 23.3104 35.8136 80.4912 0.0000 0.0000 0.0000
# 4 0.0000 0.0000 0.0000 23.1304 0.0000 0.0000
# 5 0.0000 0.0000 0.0000 0.0000 33.0688 0.0000
# 6 0.0000 0.0000 0.0000 0.0000 0.0000 36.3284
#
#
#
# Elastic Compliance Matrix: (Units=1/GPa)
#
#
# Indices 1 2 3 4 5 6 
#
# 1 0.009461 -0.000837 -0.002368 0.000000 0.000000 0.000000
# 2 -0.000837 0.008501 -0.003540 0.000000 0.000000 0.000000
# 3 -0.002368 -0.003540 0.014685 0.000000 0.000000 0.000000
# 4 0.000000 0.000000 0.000000 0.043233 0.000000 0.000000
# 5 0.000000 0.000000 0.000000 0.000000 0.030240 0.000000
# 6 0.000000 0.000000 0.000000 0.000000 0.000000 0.027527
#
#
# Mechanical properties :
#
#
# Convention : Reuss Voigt Hill
#
# Bulk Modulus (GPa) = 52.19878 54.27211 53.23545
# Shear Modulus (GPa) = 32.56887 35.07086 33.81986
#
# Velocity S-wave (km/s) = 3.92711 4.07516 4.00182
# Velocity P-wave (km/s) = 6.72907 6.91678 6.82357
#
# Compressibility (1/GPa) = 0.01915754
#
# Stress axis : x y z
#
# Youngs Moduli (GPa) = 105.70062 117.63167 68.09882
#
# Poissons Ratio (x) = 0.09841 0.16123
# Poissons Ratio (y) = 0.08843 0.24108
# Poissons Ratio (z) = 0.25026 0.41644
#
# Static dielectric constant tensor:
#      x y z
#    x 1.779110 0.000000 0.000000 
#    y 0.000000 1.833050 0.000000 
#    z 0.000000 0.000000 1.731680 
# 
# From -- ./inp_files/35607.got.cif
#   From: 2010.05.17/outbox.ucp.g08.bks.cvg/sg52_18_cif.got.tgz:35607.got - 2010.06.11 16:30:12.
