data_PCOD9414655
_publ_section_title
;
Structure prediction by ZEFSAII (Michael W. Deem and Ramdas Pophale) SiO2 
 PCOD9414655
Probable space group: P M N A
;
_chemical_formula_sum "Si O2"
_cell_formula_units_Z 40
_cell_length_a 19.202849
_cell_length_b 7.608679
_cell_length_c 12.061671
_cell_angle_alpha 90.000000
_cell_angle_beta 90.000000
_cell_angle_gamma 90.000000
_cell_volume 1762.310413
_symmetry_space_group_name_H-M "P M N A"
_symmetry_group_IT_number 53
_symmetry_cell_setting 'orthorhombic'
loop_
_space_group_symop_operation_xyz
x,y,z
1/2-x,-y,1/2+z
x,-y,-z
1/2-x,y,1/2-z
-x,-y,-z
1/2+x,y,1/2-z
-x,y,z
1/2+x,-y,1/2+z
loop_
_atom_site_type_symbol
_atom_site_label
_atom_site_fract_x
_atom_site_fract_y
_atom_site_fract_z
Si Si1 0.187957 0.310009 0.452158
Si Si2 0.157648 0.291962 0.036065
Si Si3 0.921382 0.220076 0.827401
Si Si4 0.074722 0.145659 0.593164
Si Si5 0.418918 0.372973 0.248033
O O1 0.203302 0.500000 0.500000
O O2 0.264538 0.236179 0.428311
O O3 0.145989 0.229343 0.554308
O O4 0.134384 0.322235 0.349821
O O5 0.105170 0.279299 0.138880
O O6 0.154712 0.500000 0.000000
O O7 0.131989 0.192886 0.926184
O O8 0.917575 0.093153 0.721103
O O9 0.911825 0.416517 0.774072
O O10 0.000000 0.215554 0.872862
O O11 0.000000 0.248039 0.588679
O O12 0.067337 0.000000 0.500000
O O13 0.500000 0.337960 0.220735
#
# Coordination Sequence:
#
# PCOD9414655 Si02
#       5
#     8   8   8   8   8
#     4  11  20  32  54  82 112 140 181 233 289 336
#     4   9  19  31  50  80 113 146 183 231 283 336
#     4   9  17  32  54  79 109 146 187 228 276 336
#     4  10  21  36  55  80 109 144 186 228 276 333
#     4  10  18  30  52  81 112 144 183 232 279 331
#
# _framework density 22.697476999999999
#
# number of rings (size 3 to 8) (size 9 to 14) (size 15 to 20)
#    0.000    2.200    2.000    1.800    0.000    4.000 
#    0.000    0.000    8.800    0.000    0.000    5.600 
#    0.000    0.000    0.000    0.000    0.000    0.000 
#
# Total GULP energy -223069.682593 kJ/mol
# GULP energy per Si atom -5576.742065 kJ/mol
# Density = 2.264582 g / cm^3
# Si number density = 22.697477 Si / 1000 Ang^3
#
#
#
# Elastic Constant Matrix: (Units=GPa)
#
#
# Indices 1 2 3 4 5 6 
#
# 1 157.9400 14.3725 86.7177 0.0000 0.0000 0.0000
# 2 14.3725 14.3594 10.2880 0.0000 0.0000 0.0000
# 3 86.7177 10.2880 160.0807 0.0000 0.0000 0.0000
# 4 0.0000 0.0000 0.0000 30.4154 0.0000 0.0000
# 5 0.0000 0.0000 0.0000 0.0000 41.1663 0.0000
# 6 0.0000 0.0000 0.0000 0.0000 0.0000 9.1216
#
#
#
# Elastic Compliance Matrix: (Units=1/GPa)
#
#
# Indices 1 2 3 4 5 6 
#
# 1 0.009496 -0.006100 -0.004752 0.000000 0.000000 0.000000
# 2 -0.006100 0.076921 -0.001639 0.000000 0.000000 0.000000
# 3 -0.004752 -0.001639 0.008926 0.000000 0.000000 0.000000
# 4 0.000000 0.000000 0.000000 0.032878 0.000000 0.000000
# 5 0.000000 0.000000 0.000000 0.000000 0.024292 0.000000
# 6 0.000000 0.000000 0.000000 0.000000 0.000000 0.109629
#
#
# Mechanical properties :
#
#
# Convention : Reuss Voigt Hill
#
# Bulk Modulus (GPa) = 14.21241 61.68186 37.94713
# Shear Modulus (GPa) = 16.09905 30.87411 23.48658
#
# Velocity S-wave (km/s) = 2.66614 3.69215 3.22027
# Velocity P-wave (km/s) = 3.96900 6.73874 5.53008
#
# Compressibility (1/GPa) = 0.07036107
#
# Stress axis : x y z
#
# Youngs Moduli (GPa) = 105.31142 13.00039 112.02781
#
# Poissons Ratio (x) = 0.07930 0.53234
# Poissons Ratio (y) = 0.64238 0.18364
# Poissons Ratio (z) = 0.50043 0.02131
#
# Static dielectric constant tensor:
#      x y z
#    x 1.924290 0.000000 0.000000 
#    y 0.000000 1.938990 0.000000 
#    z 0.000000 0.000000 1.808070 
# 
# From -- ./inp_files/16649.got.cif
#   From: 2010.05.17/outbox.cif.g08.bks.cpg/sg53_9_cif.got.tgz:16649.got - 2010.06.03 12:45:16.
