data_PCOD9414999
_publ_section_title
;
Structure prediction by ZEFSAII (Michael W. Deem and Ramdas Pophale) SiO2 
 PCOD9414999
Probable space group: P M N A
;
_chemical_formula_sum "Si O2"
_cell_formula_units_Z 56
_cell_length_a 9.015390
_cell_length_b 20.501974
_cell_length_c 16.100284
_cell_angle_alpha 90.000000
_cell_angle_beta 90.000000
_cell_angle_gamma 90.000000
_cell_volume 2975.868484
_symmetry_space_group_name_H-M "P M N A"
_symmetry_group_IT_number 53
_symmetry_cell_setting 'orthorhombic'
loop_
_space_group_symop_operation_xyz
x,y,z
1/2-x,-y,1/2+z
x,-y,-z
1/2-x,y,1/2-z
-x,-y,-z
1/2+x,y,1/2-z
-x,y,z
1/2+x,-y,1/2+z
loop_
_atom_site_type_symbol
_atom_site_label
_atom_site_fract_x
_atom_site_fract_y
_atom_site_fract_z
Si Si1 0.668975 0.921910 0.001233
Si Si2 0.173559 0.746827 0.373049
Si Si3 0.671287 0.423289 0.984731
Si Si4 0.174046 0.291593 0.435068
Si Si5 0.325631 0.120609 0.667623
Si Si6 0.319887 0.164951 0.160056
Si Si7 0.326988 0.385952 0.674484
O O1 0.500000 0.897630 0.018467
O O2 0.714470 0.886839 0.914605
O O3 0.770932 0.906496 0.079655
O O4 0.663975 0.000000 0.000000
O O5 0.191674 0.739103 0.472662
O O6 0.271379 0.805068 0.339194
O O7 0.234661 0.680601 0.335045
O O8 0.000000 0.756782 0.354836
O O9 0.500000 0.403164 0.959804
O O10 0.791401 0.418665 0.912438
O O11 0.661809 0.500000 0.000000
O O12 0.717288 0.368180 0.053270
O O13 0.234683 0.236962 0.371601
O O14 0.000000 0.294002 0.415640
O O15 0.250000 0.090946 0.750000
O O16 0.500000 0.115520 0.676348
O O17 0.250000 0.149756 0.250000
O O18 0.500000 0.165132 0.167513
O O19 0.250000 0.423637 0.750000
O O20 0.500000 0.375665 0.687973
#
# Coordination Sequence:
#
# PCOD9414999 Si02
#       7
#     8   8   8   8   8   8   8
#     4  10  22  42  64  85 115 156 198 246 305 362
#     4  10  18  34  57  81 112 147 186 230 286 344
#     4   9  18  34  56  80 108 148 191 235 294 354
#     4   8  15  31  56  80 108 146 187 233 287 344
#     4  12  24  37  57  86 120 154 192 236 291 355
#     4  10  20  37  60  87 116 152 197 247 301 356
#     4  11  21  33  50  77 110 144 185 229 282 341
#
# _framework density 18.818034000000001
#
# number of rings (size 3 to 8) (size 9 to 14) (size 15 to 20)
#    0.000    2.000    1.429    4.286    0.000    1.714 
#    0.000    2.857    0.000    1.714    0.000    0.000 
#    0.000    0.000    0.000    0.000    0.000    0.000 
#
# Total GULP energy -311839.682485 kJ/mol
# GULP energy per Si atom -5568.565759 kJ/mol
# Density = 1.877520 g / cm^3
# Si number density = 18.818034 Si / 1000 Ang^3
#
#
#
# Elastic Constant Matrix: (Units=GPa)
#
#
# Indices 1 2 3 4 5 6 
#
# 1 94.7587 21.6827 59.7796 0.0000 0.0000 0.0000
# 2 21.6827 87.1784 44.5445 0.0000 0.0000 0.0000
# 3 59.7796 44.5445 115.7082 0.0000 0.0000 0.0000
# 4 0.0000 0.0000 0.0000 -2.8882 0.0000 0.0000
# 5 0.0000 0.0000 0.0000 0.0000 33.1326 0.0000
# 6 0.0000 0.0000 0.0000 0.0000 0.0000 18.7421
#
#
#
# Elastic Compliance Matrix: (Units=1/GPa)
#
#
# Indices 1 2 3 4 5 6 
#
# 1 0.015662 0.000298 -0.008206 0.000000 0.000000 0.000000
# 2 0.000298 0.014285 -0.005653 0.000000 0.000000 0.000000
# 3 -0.008206 -0.005653 0.015058 0.000000 0.000000 0.000000
# 4 0.000000 0.000000 0.000000 -0.346238 0.000000 0.000000
# 5 0.000000 0.000000 0.000000 0.000000 0.030182 0.000000
# 6 0.000000 0.000000 0.000000 0.000000 0.000000 0.053356
#
#
# Mechanical properties :
#
#
# Convention : Reuss Voigt Hill
#
# Bulk Modulus (GPa) = 55.92179 61.07321 58.49750
# Shear Modulus (GPa) = -27.08405 21.23988 -2.92208
#
# Velocity S-wave (km/s) = -3.79787 3.36326 -1.24747
# Velocity P-wave (km/s) = 3.24805 6.89979 5.39244
#
# Compressibility (1/GPa) = 0.01788212
#
# Stress axis : x y z
#
# Youngs Moduli (GPa) = 63.84885 70.00228 66.40802
#
# Poissons Ratio (x) = -0.02084 0.54496
# Poissons Ratio (y) = -0.01900 0.37542
# Poissons Ratio (z) = 0.52396 0.39574
#
# Static dielectric constant tensor:
#      x y z
#    x 1.638740 0.000000 0.000000 
#    y 0.000000 1.717970 0.000000 
#    z 0.000000 0.000000 1.739000 
# 
# From -- ./inp_files/20615.got.cif
#   From: 2010.05.17/outbox.cif.g08.bks.cpg/sg53_11_cif.got.tgz:20615.got - 2010.06.03 12:45:16.
