data_PCOD9414851
_publ_section_title
;
Structure prediction by ZEFSAII (Michael W. Deem and Ramdas Pophale) SiO2 
 PCOD9414851
Probable space group: P M N A
;
_chemical_formula_sum "Si O2"
_cell_formula_units_Z 24
_cell_length_a 25.160026
_cell_length_b 7.247926
_cell_length_c 5.313002
_cell_angle_alpha 90.000000
_cell_angle_beta 90.000000
_cell_angle_gamma 90.000000
_cell_volume 968.868454
_symmetry_space_group_name_H-M "P M N A"
_symmetry_group_IT_number 53
_symmetry_cell_setting 'orthorhombic'
loop_
_space_group_symop_operation_xyz
x,y,z
1/2-x,-y,1/2+z
x,-y,-z
1/2-x,y,1/2-z
-x,-y,-z
1/2+x,y,1/2-z
-x,y,z
1/2+x,-y,1/2+z
loop_
_atom_site_type_symbol
_atom_site_label
_atom_site_fract_x
_atom_site_fract_y
_atom_site_fract_z
Si Si1 0.282060 0.722812 0.002904
Si Si2 0.060865 0.786860 0.811536
Si Si3 0.398689 0.797650 0.184777
O O1 0.250000 0.778137 0.250000
O O2 0.340850 0.796840 0.058068
O O3 0.286278 0.500000 0.000000
O O4 0.250000 0.777076 0.750000
O O5 0.066486 0.704906 0.532933
O O6 0.000000 0.778291 0.896567
O O7 0.078524 0.998550 0.749987
O O8 0.097783 0.711384 0.036162
#
# Coordination Sequence:
#
# PCOD9414851 Si02
#       3
#     8   8   8
#     4  10  21  37  55  75 103 141 183 226 269 313
#     4  10  19  33  54  79 108 138 169 212 267 324
#     4  10  18  32  54  77 101 138 176 211 262 321
#
# _framework density 24.771166000000001
#
# number of rings (size 3 to 8) (size 9 to 14) (size 15 to 20)
#    0.000    2.000    0.000    7.000    0.000    0.000 
#    0.000   13.333    0.000   11.000    0.000    0.000 
#    0.000    0.000    0.000    0.000    0.000    0.000 
#
# Total GULP energy -133927.518759 kJ/mol
# GULP energy per Si atom -5580.313282 kJ/mol
# Density = 2.471479 g / cm^3
# Si number density = 24.771166 Si / 1000 Ang^3
#
#
#
# Elastic Constant Matrix: (Units=GPa)
#
#
# Indices 1 2 3 4 5 6 
#
# 1 165.1577 6.9141 62.9545 0.0000 0.0000 0.0000
# 2 6.9141 103.8935 18.1166 0.0000 0.0000 0.0000
# 3 62.9545 18.1166 275.2384 0.0000 0.0000 0.0000
# 4 0.0000 0.0000 0.0000 -30.5399 0.0000 0.0000
# 5 0.0000 0.0000 0.0000 0.0000 64.0968 0.0000
# 6 0.0000 0.0000 0.0000 0.0000 0.0000 0.7837
#
#
#
# Elastic Compliance Matrix: (Units=1/GPa)
#
#
# Indices 1 2 3 4 5 6 
#
# 1 0.006636 -0.000179 -0.001506 0.000000 0.000000 0.000000
# 2 -0.000179 0.009742 -0.000600 0.000000 0.000000 0.000000
# 3 -0.001506 -0.000600 0.004017 0.000000 0.000000 0.000000
# 4 0.000000 0.000000 0.000000 -0.032744 0.000000 0.000000
# 5 0.000000 0.000000 0.000000 0.000000 0.015601 0.000000
# 6 0.000000 0.000000 0.000000 0.000000 0.000000 1.276042
#
#
# Mechanical properties :
#
#
# Convention : Reuss Voigt Hill
#
# Bulk Modulus (GPa) = 63.19278 80.02889 71.61084
# Shear Modulus (GPa) = 3.87855 37.28841 20.58348
#
# Velocity S-wave (km/s) = 1.25266 3.88405 2.88574
# Velocity P-wave (km/s) = 5.25911 7.24513 6.33048
#
# Compressibility (1/GPa) = 0.01582459
#
# Stress axis : x y z
#
# Youngs Moduli (GPa) = 150.68354 102.65015 248.92822
#
# Poissons Ratio (x) = 0.01838 0.37492
# Poissons Ratio (y) = 0.02698 0.14943
# Poissons Ratio (z) = 0.22695 0.06162
#
# Static dielectric constant tensor:
#      x y z
#    x 2.078640 0.000000 0.000000 
#    y 0.000000 2.158970 0.000000 
#    z 0.000000 0.000000 2.240350 
# 
# From -- ./inp_files/3236.got.cif
#   From: 2010.05.17/outbox.cif.g08.bks.cpg/sg53_2_cif.got.tgz:3236.got - 2010.06.03 12:45:16.
