data_PCOD9414471
_publ_section_title
;
Structure prediction by ZEFSAII (Michael W. Deem and Ramdas Pophale) SiO2 
 PCOD9414471
Probable space group: P M N A
;
_chemical_formula_sum "Si O2"
_cell_formula_units_Z 56
_cell_length_a 8.907601
_cell_length_b 16.461555
_cell_length_c 25.226020
_cell_angle_alpha 90.000000
_cell_angle_beta 90.000000
_cell_angle_gamma 90.000000
_cell_volume 3698.966077
_symmetry_space_group_name_H-M "P M N A"
_symmetry_group_IT_number 53
_symmetry_cell_setting 'orthorhombic'
loop_
_space_group_symop_operation_xyz
x,y,z
1/2-x,-y,1/2+z
x,-y,-z
1/2-x,y,1/2-z
-x,-y,-z
1/2+x,y,1/2-z
-x,y,z
1/2+x,-y,1/2+z
loop_
_atom_site_type_symbol
_atom_site_label
_atom_site_fract_x
_atom_site_fract_y
_atom_site_fract_z
Si Si1 0.179279 0.809731 0.983543
Si Si2 0.172886 0.963596 0.559865
Si Si3 0.818596 0.478814 0.580565
Si Si4 0.820372 0.777627 0.306059
Si Si5 0.178618 0.879886 0.099854
Si Si6 0.818976 0.621596 0.986638
Si Si7 0.319984 0.588039 0.194162
O O1 0.260146 0.873626 0.945200
O O2 0.217819 0.715525 0.976161
O O3 0.000000 0.819211 0.977318
O O4 0.215701 0.835705 0.044014
O O5 0.000000 0.962094 0.576541
O O6 0.179332 0.000000 0.500000
O O7 0.265760 0.027471 0.594555
O O8 0.751849 0.409153 0.542050
O O9 0.749500 0.561760 0.557515
O O10 0.777318 0.461186 0.641453
O O11 0.000000 0.479578 0.575818
O O12 0.750000 0.802697 0.250000
O O13 0.758236 0.832411 0.353066
O O14 0.777844 0.682784 0.314431
O O15 0.000000 0.782332 0.303869
O O16 0.000000 0.877359 0.106558
O O17 0.000000 0.612841 0.988891
O O18 0.250000 0.561103 0.250000
O O19 0.500000 0.584641 0.198905
#
# Coordination Sequence:
#
# PCOD9414471 Si02
#       7
#     8   8   8   8   8   8   8
#     4   9  18  30  44  64  90 118 149 182 218 262
#     4   9  17  28  43  64  88 114 145 178 212 254
#     4  10  19  31  45  65  92 120 151 187 228 271
#     4  10  19  31  45  64  89 116 149 184 218 259
#     4  10  18  29  45  64  89 120 148 179 219 259
#     4  10  19  30  45  66  91 122 155 186 223 269
#     4   9  19  32  47  66  89 118 151 188 227 267
#
# _framework density 15.139366000000001
#
# number of rings (size 3 to 8) (size 9 to 14) (size 15 to 20)
#    0.000    2.429    0.000    3.857    0.000    5.143 
#    0.000    0.000    0.000    0.000    0.000    1.000 
#    0.000    4.571    0.000    0.000    0.000    0.000 
#
# Total GULP energy -312241.069279 kJ/mol
# GULP energy per Si atom -5575.733380 kJ/mol
# Density = 1.510491 g / cm^3
# Si number density = 15.139366 Si / 1000 Ang^3
#
#
#
# Elastic Constant Matrix: (Units=GPa)
#
#
# Indices 1 2 3 4 5 6 
#
# 1 51.6614 36.9442 38.1074 0.0000 0.0000 0.0000
# 2 36.9442 97.4038 43.7909 0.0000 0.0000 0.0000
# 3 38.1074 43.7909 97.0358 0.0000 0.0000 0.0000
# 4 0.0000 0.0000 0.0000 18.6927 0.0000 0.0000
# 5 0.0000 0.0000 0.0000 0.0000 26.2458 0.0000
# 6 0.0000 0.0000 0.0000 0.0000 0.0000 15.0221
#
#
#
# Elastic Compliance Matrix: (Units=1/GPa)
#
#
# Indices 1 2 3 4 5 6 
#
# 1 0.031572 -0.008030 -0.008775 0.000000 0.000000 0.000000
# 2 -0.008030 0.014922 -0.003581 0.000000 0.000000 0.000000
# 3 -0.008775 -0.003581 0.015367 0.000000 0.000000 0.000000
# 4 0.000000 0.000000 0.000000 0.053497 0.000000 0.000000
# 5 0.000000 0.000000 0.000000 0.000000 0.038101 0.000000
# 6 0.000000 0.000000 0.000000 0.000000 0.000000 0.066569
#
#
# Mechanical properties :
#
#
# Convention : Reuss Voigt Hill
#
# Bulk Modulus (GPa) = 47.41502 53.75400 50.58451
# Shear Modulus (GPa) = 18.66863 20.47603 19.57233
#
# Velocity S-wave (km/s) = 3.51539 3.68163 3.59947
# Velocity P-wave (km/s) = 6.91840 7.32501 7.12460
#
# Compressibility (1/GPa) = 0.02109037
#
# Stress axis : x y z
#
# Youngs Moduli (GPa) = 31.67376 67.01549 65.07259
#
# Poissons Ratio (x) = 0.53812 0.57101
# Poissons Ratio (y) = 0.25433 0.23300
# Poissons Ratio (z) = 0.27794 0.23996
#
# Static dielectric constant tensor:
#      x y z
#    x 1.507630 0.000000 0.000000 
#    y 0.000000 1.495720 0.000000 
#    z 0.000000 0.000000 1.482390 
# 
# From -- ./inp_files/34363.got.cif
#   From: 2010.05.17/outbox.cif.g08.bks.cpg/sg53_18_cif.got.tgz:34363.got - 2010.06.03 12:45:16.
