data_PCOD9414532
_publ_section_title
;
Structure prediction by ZEFSAII (Michael W. Deem and Ramdas Pophale) SiO2 
 PCOD9414532
Probable space group: P M N A
;
_chemical_formula_sum "Si O2"
_cell_formula_units_Z 56
_cell_length_a 29.356739
_cell_length_b 5.268440
_cell_length_c 18.373667
_cell_angle_alpha 90.000000
_cell_angle_beta 90.000000
_cell_angle_gamma 90.000000
_cell_volume 2841.748839
_symmetry_space_group_name_H-M "P M N A"
_symmetry_group_IT_number 53
_symmetry_cell_setting 'orthorhombic'
loop_
_space_group_symop_operation_xyz
x,y,z
1/2-x,-y,1/2+z
x,-y,-z
1/2-x,y,1/2-z
-x,-y,-z
1/2+x,y,1/2-z
-x,y,z
1/2+x,-y,1/2+z
loop_
_atom_site_type_symbol
_atom_site_label
_atom_site_fract_x
_atom_site_fract_y
_atom_site_fract_z
Si Si1 0.256363 0.430465 0.662446
Si Si2 0.550500 0.450675 0.899423
Si Si3 0.688006 0.235053 0.955058
Si Si4 0.394245 0.917563 0.728871
Si Si5 0.790232 0.934317 0.811453
Si Si6 0.596704 0.953475 0.902670
Si Si7 0.446864 0.579601 0.277346
O O1 0.250000 0.459775 0.750000
O O2 0.213393 0.328386 0.618157
O O3 0.292778 0.208745 0.652201
O O4 0.272917 0.705889 0.638375
O O5 0.500000 0.538441 0.918066
O O6 0.559094 0.162401 0.923067
O O7 0.553364 0.436160 0.811305
O O8 0.585596 0.666224 0.926035
O O9 0.642407 0.090489 0.929236
O O10 0.682725 0.500000 0.000000
O O11 0.711394 0.000000 0.000000
O O12 0.340370 0.877085 0.717715
O O13 0.400656 0.932470 0.815789
O O14 0.416185 0.179661 0.700782
O O15 0.422949 0.680776 0.698896
O O16 0.750000 0.961251 0.750000
O O17 0.500000 0.602462 0.298756
#
# Coordination Sequence:
#
# PCOD9414532 Si02
#       7
#     8   8   8   8   8   8   8
#     4  10  21  37  57  78 105 137 174 219 266 319
#     4   9  17  29  48  71  93 126 174 228 282 328
#     4  12  25  40  57  79 107 139 180 227 281 329
#     4  10  18  29  49  75 100 135 180 225 272 315
#     4  10  19  31  50  76 105 132 175 226 268 314
#     4  10  19  32  51  70  97 132 172 227 281 326
#     4   9  17  28  43  69 104 137 175 220 271 328
#
# _framework density 19.706174000000001
#
# number of rings (size 3 to 8) (size 9 to 14) (size 15 to 20)
#    0.000    2.000    0.000    5.143    0.000   10.286 
#    0.000    0.000    0.000    8.571    0.000    0.000 
#    0.000    0.000    0.000    0.000    0.000  180.000 
#
# Total GULP energy -311968.121946 kJ/mol
# GULP energy per Si atom -5570.859320 kJ/mol
# Density = 1.966132 g / cm^3
# Si number density = 19.706174 Si / 1000 Ang^3
#
#
#
# Elastic Constant Matrix: (Units=GPa)
#
#
# Indices 1 2 3 4 5 6 
#
# 1 108.5182 35.4797 12.7042 0.0000 0.0000 0.0000
# 2 35.4797 151.2969 11.2563 0.0000 0.0000 0.0000
# 3 12.7042 11.2563 23.2330 0.0000 0.0000 0.0000
# 4 0.0000 0.0000 0.0000 18.9654 0.0000 0.0000
# 5 0.0000 0.0000 0.0000 0.0000 -2.6222 0.0000
# 6 0.0000 0.0000 0.0000 0.0000 0.0000 31.5031
#
#
#
# Elastic Compliance Matrix: (Units=1/GPa)
#
#
# Indices 1 2 3 4 5 6 
#
# 1 0.010452 -0.002102 -0.004697 0.000000 0.000000 0.000000
# 2 -0.002102 0.007279 -0.002378 0.000000 0.000000 0.000000
# 3 -0.004697 -0.002378 0.046763 0.000000 0.000000 0.000000
# 4 0.000000 0.000000 0.000000 0.052728 0.000000 0.000000
# 5 0.000000 0.000000 0.000000 0.000000 -0.381354 0.000000
# 6 0.000000 0.000000 0.000000 0.000000 0.000000 0.031743
#
#
# Mechanical properties :
#
#
# Convention : Reuss Voigt Hill
#
# Bulk Modulus (GPa) = 21.67257 44.65873 33.16565
# Shear Modulus (GPa) = -25.16909 24.47644 -0.34633
#
# Velocity S-wave (km/s) = -3.57770 3.52812 -0.41967
# Velocity P-wave (km/s) = 2.45862 6.26964 4.07821
#
# Compressibility (1/GPa) = 0.04614128
#
# Stress axis : x y z
#
# Youngs Moduli (GPa) = 95.67502 137.37694 21.38459
#
# Poissons Ratio (x) = 0.28871 0.10045
# Poissons Ratio (y) = 0.20107 0.05084
# Poissons Ratio (z) = 0.44940 0.32663
#
# Static dielectric constant tensor:
#      x y z
#    x 1.727380 0.000000 0.000000 
#    y 0.000000 1.766410 0.000000 
#    z 0.000000 0.000000 1.694290 
# 
# From -- ./inp_files/33265.got.cif
#   From: 2010.05.17/outbox.cif.g08.bks.cpg/sg53_17_cif.got.tgz:33265.got - 2010.06.03 12:45:16.
