data_PCOD9414055
_publ_section_title
;
Structure prediction by ZEFSAII (Michael W. Deem and Ramdas Pophale) SiO2 
 PCOD9414055
Probable space group: P M N A
;
_chemical_formula_sum "Si O2"
_cell_formula_units_Z 48
_cell_length_a 32.026713
_cell_length_b 5.306346
_cell_length_c 13.978134
_cell_angle_alpha 90.000000
_cell_angle_beta 90.000000
_cell_angle_gamma 90.000000
_cell_volume 2375.511472
_symmetry_space_group_name_H-M "P M N A"
_symmetry_group_IT_number 53
_symmetry_cell_setting 'orthorhombic'
loop_
_space_group_symop_operation_xyz
x,y,z
1/2-x,-y,1/2+z
x,-y,-z
1/2-x,y,1/2-z
-x,-y,-z
1/2+x,y,1/2-z
-x,y,z
1/2+x,-y,1/2+z
loop_
_atom_site_type_symbol
_atom_site_label
_atom_site_fract_x
_atom_site_fract_y
_atom_site_fract_z
Si Si1 0.045901 0.975673 0.767631
Si Si2 0.224875 0.103719 0.353726
Si Si3 0.258201 0.603038 0.365270
Si Si4 0.849855 0.457022 0.161547
Si Si5 0.638203 0.955644 0.223616
Si Si6 0.940297 0.527026 0.107276
O O1 0.088579 0.003550 0.705126
O O2 0.047793 0.211974 0.841199
O O3 0.000000 0.984393 0.719834
O O4 0.048390 0.713117 0.826519
O O5 0.250000 0.130031 0.250000
O O6 0.248708 0.876808 0.403726
O O7 0.176532 0.025690 0.345191
O O8 0.228701 0.378327 0.397260
O O9 0.250000 0.630721 0.250000
O O10 0.305173 0.515199 0.381815
O O11 0.854419 0.664791 0.247000
O O12 0.890218 0.522167 0.101359
O O13 0.853040 0.165565 0.193267
O O14 0.956374 0.500000 0.000000
#
# Coordination Sequence:
#
# PCOD9414055 Si02
#       6
#     8   8   8   8   8   8
#     4  10  21  32  43  53  65  85 116 152 189 216
#     4  10  14  20  34  52  72  85  98 115 153 205
#     4  10  14  20  34  52  72  85  98 115 153 205
#     4  10  16  25  36  52  69  85 101 129 166 210
#     4  10  16  25  36  52  69  85 101 129 166 210
#     4  10  21  32  43  53  65  85 116 152 189 216
#
# _framework density 20.206173
#
# number of rings (size 3 to 8) (size 9 to 14) (size 15 to 20)
#    0.000    2.000    6.667    1.000    0.000    2.000 
#    0.000    0.000    0.000    0.000    0.000    0.000 
#    0.000    0.000    0.000    0.000    0.000    0.000 
#
# Total GULP energy -267222.535591 kJ/mol
# GULP energy per Si atom -5567.136158 kJ/mol
# Density = 2.016018 g / cm^3
# Si number density = 20.206173 Si / 1000 Ang^3
#
#
#
# Elastic Constant Matrix: (Units=GPa)
#
#
# Indices 1 2 3 4 5 6 
#
# 1 153.4105 -14.9228 0.6746 0.0000 0.0000 0.0000
# 2 -14.9228 112.7539 7.7956 0.0000 0.0000 0.0000
# 3 0.6746 7.7956 20.7379 0.0000 0.0000 0.0000
# 4 0.0000 0.0000 0.0000 10.5695 0.0000 0.0000
# 5 0.0000 0.0000 0.0000 0.0000 -6.4053 0.0000
# 6 0.0000 0.0000 0.0000 0.0000 0.0000 2.2769
#
#
#
# Elastic Compliance Matrix: (Units=1/GPa)
#
#
# Indices 1 2 3 4 5 6 
#
# 1 0.006610 0.000913 -0.000558 0.000000 0.000000 0.000000
# 2 0.000913 0.009232 -0.003500 0.000000 0.000000 0.000000
# 3 -0.000558 -0.003500 0.049555 0.000000 0.000000 0.000000
# 4 0.000000 0.000000 0.000000 0.094612 0.000000 0.000000
# 5 0.000000 0.000000 0.000000 0.000000 -0.156121 0.000000
# 6 0.000000 0.000000 0.000000 0.000000 0.000000 0.439190
#
#
# Mechanical properties :
#
#
# Convention : Reuss Voigt Hill
#
# Bulk Modulus (GPa) = 16.91867 30.44414 23.68141
# Shear Modulus (GPa) = 10.65941 20.84521 15.75231
#
# Velocity S-wave (km/s) = 2.29930 3.21538 2.79512
# Velocity P-wave (km/s) = 3.92941 5.37442 4.70768
#
# Compressibility (1/GPa) = 0.05910628
#
# Stress axis : x y z
#
# Youngs Moduli (GPa) = 151.29139 108.32192 20.17968
#
# Poissons Ratio (x) = -0.09894 0.01127
# Poissons Ratio (y) = -0.13819 0.07063
# Poissons Ratio (z) = 0.08448 0.37913
#
# Static dielectric constant tensor:
#      x y z
#    x 1.775850 0.000000 0.000000 
#    y 0.000000 1.765030 0.000000 
#    z 0.000000 0.000000 1.801860 
# 
# From -- ./inp_files/29658.got.cif
#   From: 2010.05.17/outbox.cif.g08.bks.cpg/sg53_15_cif.got.tgz:29658.got - 2010.06.03 12:45:16.
