data_PCOD9414987
_publ_section_title
;
Structure prediction by ZEFSAII (Michael W. Deem and Ramdas Pophale) SiO2 
 PCOD9414987
Probable space group: P M N A
;
_chemical_formula_sum "Si O2"
_cell_formula_units_Z 52
_cell_length_a 25.292618
_cell_length_b 17.673771
_cell_length_c 5.263408
_cell_angle_alpha 90.000000
_cell_angle_beta 90.000000
_cell_angle_gamma 90.000000
_cell_volume 2352.827267
_symmetry_space_group_name_H-M "P M N A"
_symmetry_group_IT_number 53
_symmetry_cell_setting 'orthorhombic'
loop_
_space_group_symop_operation_xyz
x,y,z
1/2-x,-y,1/2+z
x,-y,-z
1/2-x,y,1/2-z
-x,-y,-z
1/2+x,y,1/2-z
-x,y,z
1/2+x,-y,1/2+z
loop_
_atom_site_type_symbol
_atom_site_label
_atom_site_fract_x
_atom_site_fract_y
_atom_site_fract_z
Si Si1 0.181675 0.916548 0.034541
Si Si2 0.278000 0.760266 0.495072
Si Si3 0.000000 0.762178 0.949172
Si Si4 0.383267 0.124127 0.038834
Si Si5 0.115673 0.281518 0.186575
Si Si6 0.619387 0.447839 0.245824
Si Si7 0.000000 0.136154 0.550360
Si Si8 0.500000 0.548461 0.751183
O O1 0.139296 0.907511 0.803953
O O2 0.224935 0.851306 0.003021
O O3 0.152801 0.901042 0.303443
O O4 0.204128 0.000000 0.000000
O O5 0.250000 0.728129 0.250000
O O6 0.340462 0.746566 0.488422
O O7 0.250000 0.732852 0.750000
O O8 0.057027 0.719974 0.942945
O O9 0.000000 0.805686 0.684096
O O10 0.000000 0.818671 0.185169
O O11 0.384200 0.216085 0.094183
O O12 0.443078 0.097249 0.979814
O O13 0.141601 0.362972 0.260395
O O14 0.627436 0.500000 0.500000
O O15 0.558163 0.419501 0.238164
O O16 0.630228 0.500000 0.000000
O O17 0.500000 0.500000 0.500000
O O18 0.500000 0.500000 0.000000
#
# Coordination Sequence:
#
# PCOD9414987 Si02
#       8
#     8   8   4   8   8   8   4   4
#     4  11  23  41  62  88 122 154 194 251 315 374
#     4  11  24  41  65  93 120 160 204 250 306 363
#     4  10  21  34  62  93 121 164 203 258 318 357
#     4  10  21  37  60  88 120 164 205 249 303 362
#     4  10  22  41  64  93 128 164 214 262 307 377
#     4  10  21  34  55  86 123 164 202 251 309 359
#     4  10  18  34  54  85 121 158 214 254 288 363
#     4   8  15  30  47  76 119 156 194 238 299 370
#
# _framework density 22.101071000000001
#
# number of rings (size 3 to 8) (size 9 to 14) (size 15 to 20)
#    0.000    1.846    0.000    5.538    0.000    8.000 
#    0.000    6.923    0.000    1.846    0.000    0.000 
#    0.000    0.000    0.000    0.000    0.000    0.000 
#
# Total GULP energy -289549.850400 kJ/mol
# GULP energy per Si atom -5568.266354 kJ/mol
# Density = 2.205077 g / cm^3
# Si number density = 22.101071 Si / 1000 Ang^3
#
#
#
# Elastic Constant Matrix: (Units=GPa)
#
#
# Indices 1 2 3 4 5 6 
#
# 1 87.1123 -9.9770 38.3294 0.0000 0.0000 0.0000
# 2 -9.9770 91.7217 13.2080 0.0000 0.0000 0.0000
# 3 38.3294 13.2080 164.3254 0.0000 0.0000 0.0000
# 4 0.0000 0.0000 0.0000 10.9669 0.0000 0.0000
# 5 0.0000 0.0000 0.0000 0.0000 31.1846 0.0000
# 6 0.0000 0.0000 0.0000 0.0000 0.0000 -2.9710
#
#
#
# Elastic Compliance Matrix: (Units=1/GPa)
#
#
# Indices 1 2 3 4 5 6 
#
# 1 0.013108 0.001888 -0.003209 0.000000 0.000000 0.000000
# 2 0.001888 0.011302 -0.001349 0.000000 0.000000 0.000000
# 3 -0.003209 -0.001349 0.006942 0.000000 0.000000 0.000000
# 4 0.000000 0.000000 0.000000 0.091183 0.000000 0.000000
# 5 0.000000 0.000000 0.000000 0.000000 0.032067 0.000000
# 6 0.000000 0.000000 0.000000 0.000000 0.000000 -0.336581
#
#
# Mechanical properties :
#
#
# Convention : Reuss Voigt Hill
#
# Bulk Modulus (GPa) = 38.44355 47.36447 42.90401
# Shear Modulus (GPa) = -29.76758 27.94270 -0.91244
#
# Velocity S-wave (km/s) = -3.67397 3.55958 -0.64323
# Velocity P-wave (km/s) = 0.75183 6.19447 4.34777
#
# Compressibility (1/GPa) = 0.02601217
#
# Stress axis : x y z
#
# Youngs Moduli (GPa) = 76.29109 88.47894 144.04147
#
# Poissons Ratio (x) = -0.16704 0.46225
# Poissons Ratio (y) = -0.14403 0.19428
# Poissons Ratio (z) = 0.24483 0.11934
#
# Static dielectric constant tensor:
#      x y z
#    x 1.815340 0.000000 0.000000 
#    y 0.000000 1.862040 0.000000 
#    z 0.000000 0.000000 1.758480 
# 
# From -- ./inp_files/4625.got.cif
#   From: 2010.05.17/outbox.cif.g08.bks.cpg/sg53_3_cif.got.tgz:4625.got - 2010.06.03 12:45:16.
