data_PCOD9414007
_publ_section_title
;
Structure prediction by ZEFSAII (Michael W. Deem and Ramdas Pophale) SiO2 
 PCOD9414007
Probable space group: P N N A
;
_chemical_formula_sum "Si O2"
_cell_formula_units_Z 60
_cell_length_a 12.000000
_cell_length_b 9.000000
_cell_length_c 27.000000
_cell_angle_alpha 90.000000
_cell_angle_beta 90.000000
_cell_angle_gamma 90.000000
_cell_volume 2916.000000
_symmetry_space_group_name_H-M "P N N A"
_symmetry_group_IT_number 52
_symmetry_cell_setting 'orthorhombic'
loop_
_space_group_symop_operation_xyz
x,y,z
1/2-x,-y,z
x,1/2-y,1/2-z
1/2-x,1/2+y,1/2-z
-x,-y,-z
1/2+x,y,-z
-x,1/2+y,1/2+z
1/2+x,1/2-y,1/2+z
loop_
_atom_site_type_symbol
_atom_site_label
_atom_site_fract_x
_atom_site_fract_y
_atom_site_fract_z
Si Si1 0.073083 0.717306 0.146592
Si Si2 0.428898 0.502347 0.920155
Si Si3 0.005833 0.988173 0.268706
Si Si4 0.176915 0.250000 0.750000
Si Si5 0.649554 0.391539 0.976572
Si Si6 0.788025 0.668832 0.595697
Si Si7 0.142682 0.702969 0.834591
Si Si8 0.025859 0.440283 0.335370
O O1 0.075526 0.627759 0.198342
O O2 0.192886 0.730616 0.120790
O O3 0.983791 0.625702 0.114938
O O4 0.033731 0.887371 0.150407
O O5 0.535043 0.424466 0.947059
O O6 0.356966 0.389042 0.886107
O O7 0.367012 0.581331 0.965510
O O8 0.903433 0.892041 0.245933
O O9 0.064770 0.060682 0.221794
O O10 0.949877 0.113359 0.302568
O O11 0.250483 0.283555 0.798885
O O12 0.750000 0.500000 0.960977
O O13 0.685112 0.230298 0.958323
O O14 0.750000 0.500000 0.592848
O O15 0.894770 0.661059 0.631035
O O16 0.094844 0.867603 0.841311
#
# Coordination Sequence:
#
# PCOD9414007 Si02
#       8
#     8   8   8   4   8   8   8   8
#     4  10  21  40  64  89 130 167 208 259 325 378
#     4  10  23  40  65  99 120 163 213 267 318 389
#     4  11  22  39  60  91 129 172 210 261 309 383
#     4  12  22  38  66  86 130 176 212 256 324 374
#     4  11  21  42  69  90 125 162 212 268 329 381
#     4  10  22  40  67  93 126 173 210 268 331 385
#     4  11  23  37  62  94 125 168 216 255 316 382
#     4  11  20  40  60  91 128 164 211 261 312 383
#
# _framework density 20.576132000000001
#
# number of rings (size 3 to 8) (size 9 to 14) (size 15 to 20)
#    0.000    1.333    5.333    0.400    0.000    2.133 
#    0.000   12.000    0.000    0.000    0.000    0.000 
#    0.000    0.000    0.000    0.000    0.000    0.000 
#
# Total GULP energy -334882.674509 kJ/mol
# GULP energy per Si atom -5581.377908 kJ/mol
# Density = 2.052930 g / cm^3
# Si number density = 20.576132 Si / 1000 Ang^3
#
#
#
# Elastic Constant Matrix: (Units=GPa)
#
#
# Indices 1 2 3 4 5 6 
#
# 1 40.1089 -2.4793 25.5250 0.0000 0.0000 0.0000
# 2 -2.4793 33.8186 33.0328 0.0000 0.0000 0.0000
# 3 25.5250 33.0328 136.6409 0.0000 0.0000 0.0000
# 4 0.0000 0.0000 0.0000 29.6796 0.0000 0.0000
# 5 0.0000 0.0000 0.0000 0.0000 -5.4808 0.0000
# 6 0.0000 0.0000 0.0000 0.0000 0.0000 20.2175
#
#
#
# Elastic Compliance Matrix: (Units=1/GPa)
#
#
# Indices 1 2 3 4 5 6 
#
# 1 0.030822 0.010320 -0.008253 0.000000 0.000000 0.000000
# 2 0.010320 0.042166 -0.012121 0.000000 0.000000 0.000000
# 3 -0.008253 -0.012121 0.011790 0.000000 0.000000 0.000000
# 4 0.000000 0.000000 0.000000 0.033693 0.000000 0.000000
# 5 0.000000 0.000000 0.000000 0.000000 -0.182455 0.000000
# 6 0.000000 0.000000 0.000000 0.000000 0.000000 0.049462
#
#
# Mechanical properties :
#
#
# Convention : Reuss Voigt Hill
#
# Bulk Modulus (GPa) = 15.46289 35.85837 25.66063
# Shear Modulus (GPa) = 184.21317 19.18258 101.69787
#
# Velocity S-wave (km/s) = 9.47217 3.05663 7.03793
# Velocity P-wave (km/s) = 11.27655 5.47013 8.86236
#
# Compressibility (1/GPa) = 0.06467095
#
# Stress axis : x y z
#
# Youngs Moduli (GPa) = 32.44443 23.71586 84.81470
#
# Poissons Ratio (x) = -0.24476 0.69994
# Poissons Ratio (y) = -0.33484 1.02808
# Poissons Ratio (z) = 0.26775 0.28747
#
# Static dielectric constant tensor:
#      x y z
#    x 1.761590 0.000000 0.000000 
#    y 0.000000 1.725740 0.000000 
#    z 0.000000 0.000000 1.774740 
# 
# From -- ./inp_files/42775.got.cif
#   From: 2010.05.17/outbox.ucp.g08.bks.cvg/sg52_22_cif.got.tgz:42775.got - 2010.06.11 16:30:12.
