data_PCOD9414247
_publ_section_title
;
Structure prediction by ZEFSAII (Michael W. Deem and Ramdas Pophale) SiO2 
 PCOD9414247
Probable space group: P M N A
;
_chemical_formula_sum "Si O2"
_cell_formula_units_Z 40
_cell_length_a 8.648954
_cell_length_b 15.466364
_cell_length_c 14.845932
_cell_angle_alpha 90.000000
_cell_angle_beta 90.000000
_cell_angle_gamma 90.000000
_cell_volume 1985.908713
_symmetry_space_group_name_H-M "P M N A"
_symmetry_group_IT_number 53
_symmetry_cell_setting 'orthorhombic'
loop_
_space_group_symop_operation_xyz
x,y,z
1/2-x,-y,1/2+z
x,-y,-z
1/2-x,y,1/2-z
-x,-y,-z
1/2+x,y,1/2-z
-x,y,z
1/2+x,-y,1/2+z
loop_
_atom_site_type_symbol
_atom_site_label
_atom_site_fract_x
_atom_site_fract_y
_atom_site_fract_z
Si Si1 0.185068 0.600785 0.996227
Si Si2 0.185775 0.277527 0.648592
Si Si3 0.315068 0.914888 0.147959
Si Si4 0.184321 0.908658 0.852533
Si Si5 0.184130 0.728783 0.649061
O O1 0.240873 0.650710 0.085111
O O2 0.000000 0.607217 0.988210
O O3 0.227686 0.500000 0.000000
O O4 0.262327 0.650106 0.912754
O O5 0.250000 0.284395 0.750000
O O6 0.222672 0.180614 0.611969
O O7 0.000000 0.285317 0.650032
O O8 0.250000 0.911908 0.250000
O O9 0.500000 0.924807 0.149922
O O10 0.242305 0.001105 0.105989
O O11 0.250000 0.909093 0.750000
O O12 0.250169 0.819162 0.890409
O O13 0.000000 0.906591 0.850682
O O14 0.250000 0.718724 0.750000
O O15 0.000000 0.734625 0.652805
#
# Coordination Sequence:
#
# PCOD9414247 Si02
#       5
#     8   8   8   8   8
#     4  11  25  44  64  87 116 150 193 247 302 355
#     4  10  21  38  62  90 121 158 197 241 291 347
#     4   9  16  28  49  80 116 153 193 233 279 335
#     4  10  17  28  50  81 117 155 194 234 281 337
#     4  11  22  39  63  89 120 156 196 241 291 349
#
# _framework density 20.141912999999999
#
# number of rings (size 3 to 8) (size 9 to 14) (size 15 to 20)
#    0.000    1.800    0.000    7.800    0.000    4.800 
#    0.000    1.000    0.000    6.000    0.000    0.000 
#    0.000    0.000    0.000    0.000    0.000    0.000 
#
# Total GULP energy -223480.100738 kJ/mol
# GULP energy per Si atom -5587.002518 kJ/mol
# Density = 2.009607 g / cm^3
# Si number density = 20.141913 Si / 1000 Ang^3
#
#
#
# Elastic Constant Matrix: (Units=GPa)
#
#
# Indices 1 2 3 4 5 6 
#
# 1 146.1041 98.6260 39.8648 0.0000 0.0000 0.0000
# 2 98.6260 217.1303 69.0116 0.0000 0.0000 0.0000
# 3 39.8648 69.0116 97.2753 0.0000 0.0000 0.0000
# 4 0.0000 0.0000 0.0000 39.3053 0.0000 0.0000
# 5 0.0000 0.0000 0.0000 0.0000 20.3489 0.0000
# 6 0.0000 0.0000 0.0000 0.0000 0.0000 34.0787
#
#
#
# Elastic Compliance Matrix: (Units=1/GPa)
#
#
# Indices 1 2 3 4 5 6 
#
# 1 0.009966 -0.004169 -0.001127 0.000000 0.000000 0.000000
# 2 -0.004169 0.007690 -0.003747 0.000000 0.000000 0.000000
# 3 -0.001127 -0.003747 0.013400 0.000000 0.000000 0.000000
# 4 0.000000 0.000000 0.000000 0.025442 0.000000 0.000000
# 5 0.000000 0.000000 0.000000 0.000000 0.049143 0.000000
# 6 0.000000 0.000000 0.000000 0.000000 0.000000 0.029344
#
#
# Mechanical properties :
#
#
# Convention : Reuss Voigt Hill
#
# Bulk Modulus (GPa) = 77.09548 97.27939 87.18743
# Shear Modulus (GPa) = 31.76747 35.61372 33.69060
#
# Velocity S-wave (km/s) = 3.97568 4.20949 4.09425
# Velocity P-wave (km/s) = 7.70934 8.48694 8.10747
#
# Compressibility (1/GPa) = 0.01297093
#
# Stress axis : x y z
#
# Youngs Moduli (GPa) = 100.34268 130.03821 74.62480
#
# Poissons Ratio (x) = 0.54208 0.08408
# Poissons Ratio (y) = 0.41829 0.27964
# Poissons Ratio (z) = 0.11306 0.48729
#
# Static dielectric constant tensor:
#      x y z
#    x 1.666730 0.000000 0.000000 
#    y 0.000000 1.741400 0.000000 
#    z 0.000000 0.000000 1.851660 
# 
# From -- ./inp_files/19897.got.cif
#   From: 2010.05.17/outbox.cif.g08.bks.cpg/sg53_10_cif.got.tgz:19897.got - 2010.06.03 12:45:16.
