data_PCOD9414046
_publ_section_title
;
Structure prediction by ZEFSAII (Michael W. Deem and Ramdas Pophale) SiO2 
 PCOD9414046
Probable space group: P N N A
;
_chemical_formula_sum "Si O2"
_cell_formula_units_Z 56
_cell_length_a 15.000000
_cell_length_b 30.000000
_cell_length_c 6.000000
_cell_angle_alpha 90.000000
_cell_angle_beta 90.000000
_cell_angle_gamma 90.000000
_cell_volume 2700.000000
_symmetry_space_group_name_H-M "P N N A"
_symmetry_group_IT_number 52
_symmetry_cell_setting 'orthorhombic'
loop_
_space_group_symop_operation_xyz
x,y,z
1/2-x,-y,z
x,1/2-y,1/2-z
1/2-x,1/2+y,1/2-z
-x,-y,-z
1/2+x,y,-z
-x,1/2+y,1/2+z
1/2+x,1/2-y,1/2+z
loop_
_atom_site_type_symbol
_atom_site_label
_atom_site_fract_x
_atom_site_fract_y
_atom_site_fract_z
Si Si1 0.247638 0.649007 0.494838
Si Si2 0.508305 0.383412 0.834467
Si Si3 0.105393 0.727234 0.494833
Si Si4 0.343733 0.085062 0.374281
Si Si5 0.992445 0.950255 0.087486
Si Si6 0.423907 0.703175 0.359069
Si Si7 0.172828 0.417930 0.862525
O O1 0.169678 0.684934 0.529957
O O2 0.208178 0.617410 0.298883
O O3 0.336171 0.676885 0.432237
O O4 0.280355 0.619162 0.703893
O O5 0.505792 0.412106 0.604991
O O6 0.524764 0.331226 0.801540
O O7 0.413578 0.390782 0.957253
O O8 0.597334 0.399235 0.967070
O O9 0.108120 0.750000 0.750000
O O10 0.001548 0.713534 0.462890
O O11 0.130812 0.750000 0.250000
O O12 0.418323 0.056879 0.237961
O O13 0.260030 0.062670 0.507380
O O14 0.895564 0.946423 0.208907
O O15 0.000000 0.000000 0.000000
O O16 0.398104 0.750000 0.250000
#
# Coordination Sequence:
#
# PCOD9414046 Si02
#       7
#     8   8   8   8   8   8   8
#     4  12  25  44  72 105 145 201 252 316 380 466
#     4  11  24  47  70 103 145 197 247 312 385 463
#     4  11  28  45  67 106 151 202 261 328 394 465
#     4  11  24  43  76 101 148 194 243 308 383 455
#     4  11  25  49  76 111 149 192 248 312 389 474
#     4  11  24  44  70 103 142 194 255 316 381 447
#     4  11  23  43  75 105 145 195 250 307 384 459
#
# _framework density 20.740741
#
# number of rings (size 3 to 8) (size 9 to 14) (size 15 to 20)
#    0.000    0.857    2.857    3.000    8.000    4.000 
#    0.000   10.714    0.000    0.000    0.000    0.000 
#    0.000    0.000    0.000    0.000    0.000    0.000 
#
# Total GULP energy -312233.203081 kJ/mol
# GULP energy per Si atom -5575.592912 kJ/mol
# Density = 2.069353 g / cm^3
# Si number density = 20.740741 Si / 1000 Ang^3
#
#
#
# Elastic Constant Matrix: (Units=GPa)
#
#
# Indices 1 2 3 4 5 6 
#
# 1 193.3669 43.1085 52.2589 0.0000 0.0000 0.0000
# 2 43.1085 96.3914 36.8795 0.0000 0.0000 0.0000
# 3 52.2589 36.8795 95.0628 0.0000 0.0000 0.0000
# 4 0.0000 0.0000 0.0000 20.4482 0.0000 0.0000
# 5 0.0000 0.0000 0.0000 0.0000 55.8030 0.0000
# 6 0.0000 0.0000 0.0000 0.0000 0.0000 23.4546
#
#
#
# Elastic Compliance Matrix: (Units=1/GPa)
#
#
# Indices 1 2 3 4 5 6 
#
# 1 0.006318 -0.001757 -0.002791 0.000000 0.000000 0.000000
# 2 -0.001757 0.012672 -0.003950 0.000000 0.000000 0.000000
# 3 -0.002791 -0.003950 0.013586 0.000000 0.000000 0.000000
# 4 0.000000 0.000000 0.000000 0.048904 0.000000 0.000000
# 5 0.000000 0.000000 0.000000 0.000000 0.017920 0.000000
# 6 0.000000 0.000000 0.000000 0.000000 0.000000 0.042636
#
#
# Mechanical properties :
#
#
# Convention : Reuss Voigt Hill
#
# Bulk Modulus (GPa) = 64.19154 72.14612 68.16883
# Shear Modulus (GPa) = 30.44608 36.77943 33.61276
#
# Velocity S-wave (km/s) = 3.83552 4.21562 4.03005
# Velocity P-wave (km/s) = 7.11559 7.65216 7.38875
#
# Compressibility (1/GPa) = 0.01557838
#
# Stress axis : x y z
#
# Youngs Moduli (GPa) = 158.28619 78.91696 73.60481
#
# Poissons Ratio (x) = 0.13870 0.20545
# Poissons Ratio (y) = 0.27819 0.29072
# Poissons Ratio (z) = 0.44181 0.31170
#
# Static dielectric constant tensor:
#      x y z
#    x 1.715470 0.000000 0.000000 
#    y 0.000000 1.742140 0.000000 
#    z 0.000000 0.000000 1.841800 
# 
# From -- ./inp_files/2631.got.cif
#   From: 2010.05.17/outbox.ucp.g08.bks.cvg/sg52_2_cif.got.tgz:2631.got - 2010.06.11 16:30:12.
