data_PCOD9414889
_publ_section_title
;
Structure prediction by ZEFSAII (Michael W. Deem and Ramdas Pophale) SiO2 
 PCOD9414889
Probable space group: P M N A
;
_chemical_formula_sum "Si O2"
_cell_formula_units_Z 64
_cell_length_a 15.818693
_cell_length_b 21.702833
_cell_length_c 8.852946
_cell_angle_alpha 90.000000
_cell_angle_beta 90.000000
_cell_angle_gamma 90.000000
_cell_volume 3039.308897
_symmetry_space_group_name_H-M "P M N A"
_symmetry_group_IT_number 53
_symmetry_cell_setting 'orthorhombic'
loop_
_space_group_symop_operation_xyz
x,y,z
1/2-x,-y,1/2+z
x,-y,-z
1/2-x,y,1/2-z
-x,-y,-z
1/2+x,y,1/2-z
-x,y,z
1/2+x,-y,1/2+z
loop_
_atom_site_type_symbol
_atom_site_label
_atom_site_fract_x
_atom_site_fract_y
_atom_site_fract_z
Si Si1 0.842754 0.743274 0.823061
Si Si2 0.901046 0.619408 0.692151
Si Si3 0.901140 0.748752 0.148822
Si Si4 0.845091 0.865407 0.679583
Si Si5 0.838506 0.488632 0.680322
Si Si6 0.097535 0.639940 0.358026
Si Si7 0.344940 0.867017 0.182957
Si Si8 0.155614 0.998785 0.681799
O O1 0.750000 0.736779 0.750000
O O2 0.887835 0.678258 0.795773
O O3 0.884910 0.802683 0.742974
O O4 0.844972 0.756387 0.000060
O O5 0.862691 0.555044 0.747743
O O6 0.864271 0.637460 0.526565
O O7 0.000000 0.606439 0.671087
O O8 0.867360 0.690868 0.245527
O O9 0.894754 0.810089 0.248115
O O10 0.000000 0.738428 0.106048
O O11 0.750000 0.865947 0.750000
O O12 0.841348 0.861886 0.498492
O O13 0.883728 0.932283 0.722028
O O14 0.835316 0.500000 0.500000
O O15 0.750000 0.469781 0.750000
O O16 0.897913 0.429700 0.703571
O O17 0.000000 0.658546 0.377280
O O18 0.250000 0.864465 0.250000
O O19 0.381958 0.934742 0.224399
O O20 0.250000 0.998534 0.750000
O O21 0.162265 0.000000 0.500000
#
# Coordination Sequence:
#
# PCOD9414889 Si02
#       8
#     8   8   8   8   8   8   8   8
#     4  11  22  36  55  81 112 147 191 238 282 332
#     4  10  20  37  59  81 110 147 184 224 277 339
#     4  11  24  40  57  82 118 154 190 235 288 344
#     4   9  17  31  52  82 114 143 183 236 288 335
#     4  10  21  36  57  84 111 139 177 226 273 323
#     4   9  20  38  58  79 105 143 184 221 271 334
#     4  10  18  32  57  84 110 145 190 237 284 337
#     4   8  15  27  48  79 110 140 180 232 284 334
#
# _framework density 21.057417999999998
#
# number of rings (size 3 to 8) (size 9 to 14) (size 15 to 20)
#    0.000    2.250    0.000    3.375    0.000    6.000 
#    0.000    0.625    0.000    8.625    0.000    0.000 
#    0.000    0.000    0.000    0.000    0.000    0.000 
#
# Total GULP energy -356841.248955 kJ/mol
# GULP energy per Si atom -5575.644515 kJ/mol
# Density = 2.100949 g / cm^3
# Si number density = 21.057418 Si / 1000 Ang^3
#
#
#
# Elastic Constant Matrix: (Units=GPa)
#
#
# Indices 1 2 3 4 5 6 
#
# 1 26.3830 -10.9704 1.5571 0.0000 0.0000 0.0000
# 2 -10.9704 145.7518 38.2896 0.0000 0.0000 0.0000
# 3 1.5571 38.2896 59.4795 0.0000 0.0000 0.0000
# 4 0.0000 0.0000 0.0000 57.6971 0.0000 0.0000
# 5 0.0000 0.0000 0.0000 0.0000 11.5505 0.0000
# 6 0.0000 0.0000 0.0000 0.0000 0.0000 28.8303
#
#
#
# Elastic Compliance Matrix: (Units=1/GPa)
#
#
# Indices 1 2 3 4 5 6 
#
# 1 0.039748 0.003930 -0.003570 0.000000 0.000000 0.000000
# 2 0.003930 0.008646 -0.005669 0.000000 0.000000 0.000000
# 3 -0.003570 -0.005669 0.020555 0.000000 0.000000 0.000000
# 4 0.000000 0.000000 0.000000 0.017332 0.000000 0.000000
# 5 0.000000 0.000000 0.000000 0.000000 0.086576 0.000000
# 6 0.000000 0.000000 0.000000 0.000000 0.000000 0.034686
#
#
# Mechanical properties :
#
#
# Convention : Reuss Voigt Hill
#
# Bulk Modulus (GPa) = 17.14369 32.15191 24.64780
# Shear Modulus (GPa) = 21.04334 33.13144 27.08739
#
# Velocity S-wave (km/s) = 3.16465 3.97090 3.59047
# Velocity P-wave (km/s) = 4.63815 6.02709 5.37765
#
# Compressibility (1/GPa) = 0.05833050
#
# Stress axis : x y z
#
# Youngs Moduli (GPa) = 25.15853 115.66137 48.64966
#
# Poissons Ratio (x) = -0.45451 0.17369
# Poissons Ratio (y) = -0.09886 0.27578
# Poissons Ratio (z) = 0.08982 0.65564
#
# Static dielectric constant tensor:
#      x y z
#    x 1.693010 0.000000 0.000000 
#    y 0.000000 1.806190 0.000000 
#    z 0.000000 0.000000 1.740920 
# 
# From -- ./inp_files/8978.got.cif
#   From: 2010.05.17/outbox.cif.g08.bks.cpg/sg53_5_cif.got.tgz:8978.got - 2010.06.03 12:45:16.
