data_PCOD9414676
_publ_section_title
;
Structure prediction by ZEFSAII (Michael W. Deem and Ramdas Pophale) SiO2 
 PCOD9414676
Probable space group: P M N A
;
_chemical_formula_sum "Si O2"
_cell_formula_units_Z 64
_cell_length_a 8.322284
_cell_length_b 16.212906
_cell_length_c 29.528219
_cell_angle_alpha 90.000000
_cell_angle_beta 90.000000
_cell_angle_gamma 90.000000
_cell_volume 3984.195587
_symmetry_space_group_name_H-M "P M N A"
_symmetry_group_IT_number 53
_symmetry_cell_setting 'orthorhombic'
loop_
_space_group_symop_operation_xyz
x,y,z
1/2-x,-y,1/2+z
x,-y,-z
1/2-x,y,1/2-z
-x,-y,-z
1/2+x,y,1/2-z
-x,y,z
1/2+x,-y,1/2+z
loop_
_atom_site_type_symbol
_atom_site_label
_atom_site_fract_x
_atom_site_fract_y
_atom_site_fract_z
Si Si1 0.694302 0.664178 0.644801
Si Si2 0.192176 0.994026 0.197924
Si Si3 0.695737 0.594613 0.550772
Si Si4 0.306507 0.659289 0.143824
Si Si5 0.191885 0.819017 0.301975
Si Si6 0.806157 0.402991 0.949545
Si Si7 0.807011 0.502958 0.698360
Si Si8 0.694461 0.175101 0.302004
O O1 0.500000 0.667065 0.643985
O O2 0.750945 0.647885 0.593442
O O3 0.744006 0.585693 0.674681
O O4 0.752225 0.748665 0.667770
O O5 0.250000 0.994055 0.250000
O O6 0.256846 0.908164 0.178670
O O7 0.000000 0.990489 0.196878
O O8 0.244520 0.084133 0.180384
O O9 0.500000 0.595414 0.550692
O O10 0.746903 0.620828 0.500356
O O11 0.743288 0.498816 0.557549
O O12 0.500000 0.659608 0.146108
O O13 0.247691 0.742023 0.168545
O O14 0.256909 0.650612 0.091759
O O15 0.249845 0.577658 0.170704
O O16 0.250000 0.811528 0.250000
O O17 0.000000 0.816784 0.300895
O O18 0.000000 0.401310 0.948679
O O19 0.750000 0.498515 0.750000
O O20 0.000000 0.504294 0.697442
O O21 0.750000 0.184740 0.250000
O O22 0.500000 0.176233 0.301651
#
# Coordination Sequence:
#
# PCOD9414676 Si02
#       8
#     8   8   8   8   8   8   8   8
#     4  10  18  31  48  66  90 121 151 182 220 262
#     4   9  16  28  44  64  87 112 145 183 221 261
#     4   8  15  28  47  69  89 112 148 189 224 262
#     4  10  21  33  44  64  92 118 148 185 224 263
#     4  10  19  31  46  65  89 118 150 184 222 265
#     4   9  16  29  49  68  86 114 151 187 223 266
#     4  11  22  33  43  60  89 123 155 183 213 254
#     4   9  18  29  44  65  90 119 148 180 219 259
#
# _framework density 16.063469000000001
#
# number of rings (size 3 to 8) (size 9 to 14) (size 15 to 20)
#    0.000    2.500    1.250    3.375    0.000    3.500 
#    0.000    1.875    0.000    0.000    0.000    0.875 
#    0.000    7.000    0.000    0.000    0.000    0.000 
#
# Total GULP energy -356662.340010 kJ/mol
# GULP energy per Si atom -5572.849063 kJ/mol
# Density = 1.602691 g / cm^3
# Si number density = 16.063469 Si / 1000 Ang^3
#
#
#
# Elastic Constant Matrix: (Units=GPa)
#
#
# Indices 1 2 3 4 5 6 
#
# 1 13.2913 18.2287 8.8339 0.0000 0.0000 0.0000
# 2 18.2287 151.5585 74.3928 0.0000 0.0000 0.0000
# 3 8.8339 74.3928 115.3603 0.0000 0.0000 0.0000
# 4 0.0000 0.0000 0.0000 8.6640 0.0000 0.0000
# 5 0.0000 0.0000 0.0000 0.0000 18.1224 0.0000
# 6 0.0000 0.0000 0.0000 0.0000 0.0000 18.3523
#
#
#
# Elastic Compliance Matrix: (Units=1/GPa)
#
#
# Indices 1 2 3 4 5 6 
#
# 1 0.090101 -0.010901 0.000130 0.000000 0.000000 0.000000
# 2 -0.010901 0.010973 -0.006241 0.000000 0.000000 0.000000
# 3 0.000130 -0.006241 0.012683 0.000000 0.000000 0.000000
# 4 0.000000 0.000000 0.000000 0.115420 0.000000 0.000000
# 5 0.000000 0.000000 0.000000 0.000000 0.055180 0.000000
# 6 0.000000 0.000000 0.000000 0.000000 0.000000 0.054489
#
#
# Mechanical properties :
#
#
# Convention : Reuss Voigt Hill
#
# Bulk Modulus (GPa) = 12.54183 53.68009 33.11096
# Shear Modulus (GPa) = 12.51725 20.94471 16.73098
#
# Velocity S-wave (km/s) = 2.79451 3.61483 3.23081
# Velocity P-wave (km/s) = 4.27048 7.13532 5.88004
#
# Compressibility (1/GPa) = 0.07973317
#
# Stress axis : x y z
#
# Youngs Moduli (GPa) = 11.09864 91.13493 78.84322
#
# Poissons Ratio (x) = 0.99343 -0.01024
# Poissons Ratio (y) = 0.12098 0.49208
# Poissons Ratio (z) = -0.00144 0.56880
#
# Static dielectric constant tensor:
#      x y z
#    x 1.560490 0.000000 0.000000 
#    y 0.000000 1.561190 0.000000 
#    z 0.000000 0.000000 1.524060 
# 
# From -- ./inp_files/38400.got.cif
#   From: 2010.05.17/outbox.cif.g08.bks.cpg/sg53_20_cif.got.tgz:38400.got - 2010.06.03 12:45:16.
