data_PCOD9414287
_publ_section_title
;
Structure prediction by ZEFSAII (Michael W. Deem and Ramdas Pophale) SiO2 
 PCOD9414287
Probable space group: P M N A
;
_chemical_formula_sum "Si O2"
_cell_formula_units_Z 64
_cell_length_a 7.868950
_cell_length_b 12.330873
_cell_length_c 32.000572
_cell_angle_alpha 90.000000
_cell_angle_beta 90.000000
_cell_angle_gamma 90.000000
_cell_volume 3105.048241
_symmetry_space_group_name_H-M "P M N A"
_symmetry_group_IT_number 53
_symmetry_cell_setting 'orthorhombic'
loop_
_space_group_symop_operation_xyz
x,y,z
1/2-x,-y,1/2+z
x,-y,-z
1/2-x,y,1/2-z
-x,-y,-z
1/2+x,y,1/2-z
-x,y,z
1/2+x,-y,1/2+z
loop_
_atom_site_type_symbol
_atom_site_label
_atom_site_fract_x
_atom_site_fract_y
_atom_site_fract_z
Si Si1 0.708045 0.269221 0.048025
Si Si2 0.200174 0.502617 0.178946
Si Si3 0.697991 0.740943 0.203731
Si Si4 0.293970 0.502782 0.081752
Si Si5 0.292501 0.733811 0.045619
Si Si6 0.296863 0.122540 0.124625
Si Si7 0.290768 0.875164 0.124585
Si Si8 0.702581 0.733232 0.703741
O O1 0.500000 0.267862 0.048428
O O2 0.759186 0.392132 0.059212
O O3 0.768530 0.189652 0.084651
O O4 0.763009 0.239393 0.001311
O O5 0.272940 0.612821 0.197761
O O6 0.231204 0.503094 0.129297
O O7 0.271229 0.389377 0.196747
O O8 0.000000 0.505381 0.187386
O O9 0.750000 0.775051 0.250000
O O10 0.500000 0.760506 0.201038
O O11 0.773092 0.806897 0.164581
O O12 0.500000 0.503603 0.083145
O O13 0.239843 0.612090 0.058376
O O14 0.500000 0.734248 0.045478
O O15 0.237963 0.815788 0.081894
O O16 0.500000 0.116006 0.119620
O O17 0.263426 0.189176 0.166779
O O18 0.233522 0.999467 0.126612
O O19 0.500000 0.874019 0.124606
O O20 0.750000 0.771254 0.750000
O O21 0.500000 0.727921 0.700544
#
# Coordination Sequence:
#
# PCOD9414287 Si02
#       8
#     8   8   8   8   8   8   8   8
#     4   9  17  28  51  85 115 146 184 227 277 327
#     4  11  22  36  57  85 113 144 181 224 277 337
#     4  11  22  38  58  83 112 146 181 225 279 331
#     4  10  17  30  54  82 112 148 184 227 280 332
#     4   9  16  29  51  83 117 145 181 231 279 326
#     4  10  20  36  57  83 113 147 190 233 272 322
#     4   9  19  34  54  81 114 148 187 234 277 317
#     4  11  24  40  59  83 111 144 180 226 279 333
#
# _framework density 20.611597
#
# number of rings (size 3 to 8) (size 9 to 14) (size 15 to 20)
#    0.000    2.000    2.500    1.875    0.000    5.000 
#    0.000    5.000    0.000    2.250    0.000    0.875 
#    0.000    0.000    0.000    0.000    0.000    0.000 
#
# Total GULP energy -357491.520010 kJ/mol
# GULP energy per Si atom -5585.805000 kJ/mol
# Density = 2.056468 g / cm^3
# Si number density = 20.611597 Si / 1000 Ang^3
#
#
#
# Elastic Constant Matrix: (Units=GPa)
#
#
# Indices 1 2 3 4 5 6 
#
# 1 14.6778 -0.2581 -4.2689 0.0000 0.0000 0.0000
# 2 -0.2581 153.4257 89.2840 0.0000 0.0000 0.0000
# 3 -4.2689 89.2840 194.3593 0.0000 0.0000 0.0000
# 4 0.0000 0.0000 0.0000 8.1087 0.0000 0.0000
# 5 0.0000 0.0000 0.0000 0.0000 18.9687 0.0000
# 6 0.0000 0.0000 0.0000 0.0000 0.0000 0.1684
#
#
#
# Elastic Compliance Matrix: (Units=1/GPa)
#
#
# Indices 1 2 3 4 5 6 
#
# 1 0.068690 -0.001041 0.001987 0.000000 0.000000 0.000000
# 2 -0.001041 0.008912 -0.004117 0.000000 0.000000 0.000000
# 3 0.001987 -0.004117 0.007080 0.000000 0.000000 0.000000
# 4 0.000000 0.000000 0.000000 0.123325 0.000000 0.000000
# 5 0.000000 0.000000 0.000000 0.000000 0.052718 0.000000
# 6 0.000000 0.000000 0.000000 0.000000 0.000000 5.939202
#
#
# Mechanical properties :
#
#
# Convention : Reuss Voigt Hill
#
# Bulk Modulus (GPa) = 12.76487 59.10854 35.93671
# Shear Modulus (GPa) = 0.80226 23.96287 12.38257
#
# Velocity S-wave (km/s) = 0.62456 3.41338 2.45369
# Velocity P-wave (km/s) = 2.59357 6.65391 5.04980
#
# Compressibility (1/GPa) = 0.07834000
#
# Stress axis : x y z
#
# Youngs Moduli (GPa) = 14.55826 112.21198 141.24595
#
# Poissons Ratio (x) = 0.11677 -0.28062
# Poissons Ratio (y) = 0.01515 0.58146
# Poissons Ratio (z) = -0.02892 0.46194
#
# Static dielectric constant tensor:
#      x y z
#    x 1.758480 0.000000 0.000000 
#    y 0.000000 1.722980 0.000000 
#    z 0.000000 0.000000 1.802850 
# 
# From -- ./inp_files/38195.got.cif
#   From: 2010.05.17/outbox.cif.g08.bks.cpg/sg53_20_cif.got.tgz:38195.got - 2010.06.03 12:45:16.
