data_PCOD9414846
_publ_section_title
;
Structure prediction by ZEFSAII (Michael W. Deem and Ramdas Pophale) SiO2 
 PCOD9414846
Probable space group: P M N A
;
_chemical_formula_sum "Si O2"
_cell_formula_units_Z 64
_cell_length_a 14.863310
_cell_length_b 8.796748
_cell_length_c 26.226237
_cell_angle_alpha 90.000000
_cell_angle_beta 90.000000
_cell_angle_gamma 90.000000
_cell_volume 3429.048820
_symmetry_space_group_name_H-M "P M N A"
_symmetry_group_IT_number 53
_symmetry_cell_setting 'orthorhombic'
loop_
_space_group_symop_operation_xyz
x,y,z
1/2-x,-y,1/2+z
x,-y,-z
1/2-x,y,1/2-z
-x,-y,-z
1/2+x,y,1/2-z
-x,y,z
1/2+x,-y,1/2+z
loop_
_atom_site_type_symbol
_atom_site_label
_atom_site_fract_x
_atom_site_fract_y
_atom_site_fract_z
Si Si1 0.099868 0.824530 0.084888
Si Si2 0.399554 0.595669 0.263620
Si Si3 0.398858 0.332562 0.477449
Si Si4 0.900368 0.460305 0.348760
Si Si5 0.230204 0.632669 0.149466
Si Si6 0.399422 0.104952 0.127757
Si Si7 0.826569 0.107367 0.713577
Si Si8 0.728402 0.081568 0.444316
O O1 0.092024 0.778058 0.026052
O O2 0.155267 0.689985 0.110965
O O3 0.000000 0.840916 0.106702
O O4 0.156982 0.977844 0.086274
O O5 0.500000 0.576921 0.284398
O O6 0.392541 0.502136 0.211167
O O7 0.323086 0.553399 0.304067
O O8 0.383832 0.772439 0.247269
O O9 0.379246 0.500000 0.500000
O O10 0.500000 0.339250 0.453081
O O11 0.317955 0.248882 0.447767
O O12 0.812816 0.538163 0.373106
O O13 0.897707 0.282270 0.358055
O O14 0.000000 0.517769 0.365125
O O15 0.275340 0.781732 0.174141
O O16 0.500000 0.066040 0.109131
O O17 0.380068 0.009946 0.179181
O O18 0.321904 0.079027 0.086053
O O19 0.750000 0.037078 0.750000
O O20 0.740069 0.000000 0.500000
#
# Coordination Sequence:
#
# PCOD9414846 Si02
#       8
#     8   8   8   8   8   8   8   8
#     4  10  19  33  55  84 112 140 172 214 275 336
#     4   9  17  32  53  78 108 143 181 226 268 322
#     4   9  19  35  58  83 108 142 179 220 274 340
#     4   9  20  34  50  72 105 145 186 221 266 319
#     4  10  18  32  53  82 107 141 179 224 268 317
#     4  11  22  37  57  80 111 151 190 233 283 337
#     4   9  18  32  53  79 108 141 189 226 271 322
#     4  10  21  38  58  83 112 146 183 235 289 338
#
# _framework density 18.664068
#
# number of rings (size 3 to 8) (size 9 to 14) (size 15 to 20)
#    0.000    2.375    1.250    2.250    1.750    3.250 
#    0.000    0.000    0.000    0.375    0.000    0.000 
#    0.000    0.000    0.000    0.000    0.000    0.000 
#
# Total GULP energy -356468.728588 kJ/mol
# GULP energy per Si atom -5569.823884 kJ/mol
# Density = 1.862159 g / cm^3
# Si number density = 18.664068 Si / 1000 Ang^3
#
#
#
# Elastic Constant Matrix: (Units=GPa)
#
#
# Indices 1 2 3 4 5 6 
#
# 1 163.1899 48.0785 27.1582 0.0000 0.0000 0.0000
# 2 48.0785 58.8020 9.0476 0.0000 0.0000 0.0000
# 3 27.1582 9.0476 18.5234 0.0000 0.0000 0.0000
# 4 0.0000 0.0000 0.0000 13.6681 0.0000 0.0000
# 5 0.0000 0.0000 0.0000 0.0000 22.4843 0.0000
# 6 0.0000 0.0000 0.0000 0.0000 0.0000 23.3406
#
#
#
# Elastic Compliance Matrix: (Units=1/GPa)
#
#
# Indices 1 2 3 4 5 6 
#
# 1 0.009893 -0.006333 -0.011411 0.000000 0.000000 0.000000
# 2 -0.006333 0.022442 -0.001677 0.000000 0.000000 0.000000
# 3 -0.011411 -0.001677 0.071535 0.000000 0.000000 0.000000
# 4 0.000000 0.000000 0.000000 0.073163 0.000000 0.000000
# 5 0.000000 0.000000 0.000000 0.000000 0.044475 0.000000
# 6 0.000000 0.000000 0.000000 0.000000 0.000000 0.042844
#
#
# Mechanical properties :
#
#
# Convention : Reuss Voigt Hill
#
# Bulk Modulus (GPa) = 15.37784 45.45377 30.41580
# Shear Modulus (GPa) = 15.39083 22.31402 18.85243
#
# Velocity S-wave (km/s) = 2.87474 3.46144 3.18164
# Velocity P-wave (km/s) = 4.39045 6.35468 5.46159
#
# Compressibility (1/GPa) = 0.06502864
#
# Stress axis : x y z
#
# Youngs Moduli (GPa) = 101.08595 44.55912 13.97921
#
# Poissons Ratio (x) = 0.28218 0.15951
# Poissons Ratio (y) = 0.64015 0.02344
# Poissons Ratio (z) = 1.15348 0.07472
#
# Static dielectric constant tensor:
#      x y z
#    x 1.701610 0.000000 0.000000 
#    y 0.000000 1.642830 0.000000 
#    z 0.000000 0.000000 1.655020 
# 
# From -- ./inp_files/38948.got.cif
#   From: 2010.05.17/outbox.cif.g08.bks.cpg/sg53_20_cif.got.tgz:38948.got - 2010.06.03 12:45:16.
