data_PCOD9414566
_publ_section_title
;
Structure prediction by ZEFSAII (Michael W. Deem and Ramdas Pophale) SiO2 
 PCOD9414566
Probable space group: P M N A
;
_chemical_formula_sum "Si O2"
_cell_formula_units_Z 64
_cell_length_a 8.469152
_cell_length_b 16.079945
_cell_length_c 29.718125
_cell_angle_alpha 90.000000
_cell_angle_beta 90.000000
_cell_angle_gamma 90.000000
_cell_volume 4047.118227
_symmetry_space_group_name_H-M "P M N A"
_symmetry_group_IT_number 53
_symmetry_cell_setting 'orthorhombic'
loop_
_space_group_symop_operation_xyz
x,y,z
1/2-x,-y,1/2+z
x,-y,-z
1/2-x,y,1/2-z
-x,-y,-z
1/2+x,y,1/2-z
-x,y,z
1/2+x,-y,1/2+z
loop_
_atom_site_type_symbol
_atom_site_label
_atom_site_fract_x
_atom_site_fract_y
_atom_site_fract_z
Si Si1 0.191068 0.334237 0.606664
Si Si2 0.191230 0.821725 0.551471
Si Si3 0.809706 0.404400 0.298530
Si Si4 0.685814 0.180731 0.550127
Si Si5 0.309694 0.597844 0.201384
Si Si6 0.807326 0.501954 0.448275
Si Si7 0.681987 0.996109 0.054554
Si Si8 0.307007 0.338430 0.106825
O O1 0.250826 0.250729 0.583630
O O2 0.242884 0.349863 0.658082
O O3 0.241986 0.414414 0.577342
O O4 0.000000 0.333010 0.606191
O O5 0.239573 0.808247 0.499622
O O6 0.245382 0.745861 0.582556
O O7 0.000000 0.824525 0.552154
O O8 0.246402 0.913090 0.567725
O O9 0.750000 0.375688 0.250000
O O10 0.759709 0.501106 0.304552
O O11 0.756489 0.351899 0.341681
O O12 0.000000 0.404022 0.298091
O O13 0.500000 0.188710 0.545447
O O14 0.727818 0.087698 0.566692
O O15 0.250000 0.626522 0.250000
O O16 0.500000 0.598196 0.201856
O O17 0.755309 0.500000 0.500000
O O18 0.757864 0.419339 0.421714
O O19 0.000000 0.501967 0.448232
O O20 0.500000 0.987995 0.069340
O O21 0.681325 0.000000 0.000000
O O22 0.500000 0.337633 0.106525
#
# Coordination Sequence:
#
# PCOD9414566 Si02
#       8
#     8   8   8   8   8   8   8   8
#     4  10  18  30  46  65  88 119 157 189 218 258
#     4   9  17  30  49  69  89 117 152 190 225 260
#     4   9  16  28  45  66  90 115 148 186 223 263
#     4  11  21  30  43  65  93 123 151 184 227 271
#     4   9  17  29  46  66  88 115 149 189 228 265
#     4   9  15  23  40  64  87 114 150 186 213 243
#     4   8  15  29  47  66  87 113 149 189 226 265
#     4   9  15  26  45  69  90 113 151 190 218 255
#
# _framework density 15.813720999999999
#
# number of rings (size 3 to 8) (size 9 to 14) (size 15 to 20)
#    0.000    2.750    1.250    2.625    0.000    4.750 
#    0.000    0.625    0.000    3.375    0.000    0.875 
#    0.000    2.000    0.000    0.000    0.000    0.000 
#
# Total GULP energy -356587.203973 kJ/mol
# GULP energy per Si atom -5571.675062 kJ/mol
# Density = 1.577773 g / cm^3
# Si number density = 15.813721 Si / 1000 Ang^3
#
#
#
# Elastic Constant Matrix: (Units=GPa)
#
#
# Indices 1 2 3 4 5 6 
#
# 1 7.9446 18.5032 15.4733 0.0000 0.0000 0.0000
# 2 18.5032 137.8787 80.5196 0.0000 0.0000 0.0000
# 3 15.4733 80.5196 131.2513 0.0000 0.0000 0.0000
# 4 0.0000 0.0000 0.0000 8.9789 0.0000 0.0000
# 5 0.0000 0.0000 0.0000 0.0000 17.6244 0.0000
# 6 0.0000 0.0000 0.0000 0.0000 0.0000 4.0965
#
#
#
# Elastic Compliance Matrix: (Units=1/GPa)
#
#
# Indices 1 2 3 4 5 6 
#
# 1 0.192203 -0.019573 -0.010651 0.000000 0.000000 0.000000
# 2 -0.019573 0.013295 -0.005849 0.000000 0.000000 0.000000
# 3 -0.010651 -0.005849 0.012463 0.000000 0.000000 0.000000
# 4 0.000000 0.000000 0.000000 0.111373 0.000000 0.000000
# 5 0.000000 0.000000 0.000000 0.000000 0.056739 0.000000
# 6 0.000000 0.000000 0.000000 0.000000 0.000000 0.244109
#
#
# Mechanical properties :
#
#
# Convention : Reuss Voigt Hill
#
# Bulk Modulus (GPa) = 6.85804 56.22964 31.54384
# Shear Modulus (GPa) = 6.65838 16.97853 11.81846
#
# Velocity S-wave (km/s) = 2.05418 3.28023 2.73674
# Velocity P-wave (km/s) = 3.15791 7.06974 5.47511
#
# Compressibility (1/GPa) = 0.14581434
#
# Stress axis : x y z
#
# Youngs Moduli (GPa) = 5.20284 75.21620 80.23952
#
# Poissons Ratio (x) = 1.47222 0.85465
# Poissons Ratio (y) = 0.10184 0.46930
# Poissons Ratio (z) = 0.05542 0.43992
#
# Static dielectric constant tensor:
#      x y z
#    x 1.544970 0.000000 0.000000 
#    y 0.000000 1.535580 0.000000 
#    z 0.000000 0.000000 1.516620 
# 
# From -- ./inp_files/38502.got.cif
#   From: 2010.05.17/outbox.cif.g08.bks.cpg/sg53_20_cif.got.tgz:38502.got - 2010.06.03 12:45:16.
