data_PCOD9414216
_publ_section_title
;
Structure prediction by ZEFSAII (Michael W. Deem and Ramdas Pophale) SiO2 
 PCOD9414216
Probable space group: P M N A
;
_chemical_formula_sum "Si O2"
_cell_formula_units_Z 40
_cell_length_a 8.662724
_cell_length_b 9.114236
_cell_length_c 27.055901
_cell_angle_alpha 90.000000
_cell_angle_beta 90.000000
_cell_angle_gamma 90.000000
_cell_volume 2136.174609
_symmetry_space_group_name_H-M "P M N A"
_symmetry_group_IT_number 53
_symmetry_cell_setting 'orthorhombic'
loop_
_space_group_symop_operation_xyz
x,y,z
1/2-x,-y,1/2+z
x,-y,-z
1/2-x,y,1/2-z
-x,-y,-z
1/2+x,y,1/2-z
-x,y,z
1/2+x,-y,1/2+z
loop_
_atom_site_type_symbol
_atom_site_label
_atom_site_fract_x
_atom_site_fract_y
_atom_site_fract_z
Si Si1 0.817243 0.667409 0.902324
Si Si2 0.814962 0.661271 0.402866
Si Si3 0.684260 0.328773 0.199367
Si Si4 0.183317 0.826860 0.503828
Si Si5 0.815775 0.337316 0.800611
O O1 0.746537 0.504551 0.908885
O O2 0.743479 0.735139 0.852433
O O3 0.775074 0.759069 0.950588
O O4 0.000000 0.654569 0.895500
O O5 0.775107 0.750870 0.451984
O O6 0.742375 0.726457 0.352609
O O7 0.000000 0.657280 0.397349
O O8 0.750000 0.260994 0.250000
O O9 0.500000 0.332532 0.200898
O O10 0.749422 0.495933 0.198456
O O11 0.000000 0.799818 0.512171
O O12 0.207608 0.000000 0.500000
O O13 0.750000 0.269158 0.750000
O O14 0.000000 0.342080 0.798770
#
# Coordination Sequence:
#
# PCOD9414216 Si02
#       5
#     8   8   8   8   8
#     4  11  21  33  52  79 108 137 172 212 255 304
#     4  10  19  33  54  78 104 135 172 212 256 304
#     4  10  17  28  47  73 105 136 168 207 254 302
#     4  10  22  39  56  74 100 136 175 216 263 311
#     4  10  17  27  45  72 105 135 166 205 252 301
#
# _framework density 18.725062000000001
#
# number of rings (size 3 to 8) (size 9 to 14) (size 15 to 20)
#    0.000    1.800    0.000   10.200    0.000    4.400 
#    0.000    0.000    0.000    1.200    0.000    5.600 
#    0.000    0.000    0.000    0.000    0.000    0.000 
#
# Total GULP energy -223265.533984 kJ/mol
# GULP energy per Si atom -5581.638350 kJ/mol
# Density = 1.868244 g / cm^3
# Si number density = 18.725062 Si / 1000 Ang^3
#
#
#
# Elastic Constant Matrix: (Units=GPa)
#
#
# Indices 1 2 3 4 5 6 
#
# 1 150.0544 20.8908 91.3209 0.0000 0.0000 0.0000
# 2 20.8908 15.8951 28.6789 0.0000 0.0000 0.0000
# 3 91.3209 28.6789 188.9460 0.0000 0.0000 0.0000
# 4 0.0000 0.0000 0.0000 -6.9219 0.0000 0.0000
# 5 0.0000 0.0000 0.0000 0.0000 39.6574 0.0000
# 6 0.0000 0.0000 0.0000 0.0000 0.0000 -16.2719
#
#
#
# Elastic Compliance Matrix: (Units=1/GPa)
#
#
# Indices 1 2 3 4 5 6 
#
# 1 0.009839 -0.005993 -0.003846 0.000000 0.000000 0.000000
# 2 -0.005993 0.090289 -0.010808 0.000000 0.000000 0.000000
# 3 -0.003846 -0.010808 0.008792 0.000000 0.000000 0.000000
# 4 0.000000 0.000000 0.000000 -0.144469 0.000000 0.000000
# 5 0.000000 0.000000 0.000000 0.000000 0.025216 0.000000
# 6 0.000000 0.000000 0.000000 0.000000 0.000000 -0.061456
#
#
# Mechanical properties :
#
#
# Convention : Reuss Voigt Hill
#
# Bulk Modulus (GPa) = 14.78702 70.74187 42.76445
# Shear Modulus (GPa) = -628.60887 17.55972 -305.52457
#
# Velocity S-wave (km/s) = -18.34212 3.06562 -12.78740
# Velocity P-wave (km/s) = 20.99199 7.09873 13.96911
#
# Compressibility (1/GPa) = 0.06762687
#
# Stress axis : x y z
#
# Youngs Moduli (GPa) = 101.63597 11.07555 113.74283
#
# Poissons Ratio (x) = 0.06637 0.43743
# Poissons Ratio (y) = 0.60905 1.22935
# Poissons Ratio (z) = 0.39087 0.11971
#
# Static dielectric constant tensor:
#      x y z
#    x 1.629340 0.000000 0.000000 
#    y 0.000000 1.610340 0.000000 
#    z 0.000000 0.000000 1.714180 
# 
# From -- ./inp_files/36032.got.cif
#   From: 2010.05.17/outbox.cif.g08.bks.cpg/sg53_19_cif.got.tgz:36032.got - 2010.06.03 12:45:16.
