data_PCOD9414145
_publ_section_title
;
Structure prediction by ZEFSAII (Michael W. Deem and Ramdas Pophale) SiO2 
 PCOD9414145
Probable space group: P M N A
;
_chemical_formula_sum "Si O2"
_cell_formula_units_Z 64
_cell_length_a 8.360361
_cell_length_b 19.282336
_cell_length_c 26.019057
_cell_angle_alpha 90.000000
_cell_angle_beta 90.000000
_cell_angle_gamma 90.000000
_cell_volume 4194.461664
_symmetry_space_group_name_H-M "P M N A"
_symmetry_group_IT_number 53
_symmetry_cell_setting 'orthorhombic'
loop_
_space_group_symop_operation_xyz
x,y,z
1/2-x,-y,1/2+z
x,-y,-z
1/2-x,y,1/2-z
-x,-y,-z
1/2+x,y,1/2-z
-x,y,z
1/2+x,-y,1/2+z
loop_
_atom_site_type_symbol
_atom_site_label
_atom_site_fract_x
_atom_site_fract_y
_atom_site_fract_z
Si Si1 0.808988 0.233968 0.491019
Si Si2 0.804937 0.815851 0.395763
Si Si3 0.187613 0.038993 0.574206
Si Si4 0.192169 0.284413 0.694766
Si Si5 0.186420 0.093731 0.033578
Si Si6 0.306740 0.611335 0.509438
Si Si7 0.194887 0.485430 0.917270
Si Si8 0.690993 0.557690 0.306077
O O1 0.754869 0.215720 0.549374
O O2 0.734611 0.172949 0.456121
O O3 0.758524 0.312385 0.480356
O O4 0.000000 0.228147 0.488666
O O5 0.753871 0.896223 0.391719
O O6 0.751879 0.766240 0.350228
O O7 0.000000 0.816790 0.395999
O O8 0.213189 0.069856 0.516566
O O9 0.000000 0.027560 0.582705
O O10 0.275347 0.965301 0.575414
O O11 0.250000 0.258480 0.750000
O O12 0.258854 0.361935 0.688590
O O13 0.000000 0.288289 0.694018
O O14 0.000000 0.090020 0.020401
O O15 0.500000 0.614163 0.509167
O O16 0.255894 0.578849 0.454177
O O17 0.257762 0.555286 0.552684
O O18 0.249993 0.479144 0.858424
O O19 0.000000 0.484550 0.916714
O O20 0.750000 0.533041 0.250000
O O21 0.500000 0.553627 0.305283
#
# Coordination Sequence:
#
# PCOD9414145 Si02
#       8
#     8   8   8   8   8   8   8   8
#     4  10  18  28  40  58  81 108 137 168 202 240
#     4   8  16  27  40  55  77 107 137 164 198 238
#     4   9  15  26  40  55  76 104 132 163 198 231
#     4  10  18  29  41  57  79 105 135 170 204 237
#     4  10  17  25  37  56  79 105 133 163 192 228
#     4   9  16  29  45  61  80 108 139 171 206 249
#     4   8  16  29  45  61  82 108 137 169 209 251
#     4  10  18  29  43  61  81 107 138 171 206 244
#
# _framework density 15.258215
#
# number of rings (size 3 to 8) (size 9 to 14) (size 15 to 20)
#    0.000    2.750    0.000    6.375    0.000    0.000 
#    0.000   10.000    0.000    0.000    0.000    0.000 
#    0.000    1.000    0.000   11.500    0.000    3.750 
#
# Total GULP energy -356338.444944 kJ/mol
# GULP energy per Si atom -5567.788202 kJ/mol
# Density = 1.522349 g / cm^3
# Si number density = 15.258215 Si / 1000 Ang^3
#
#
#
# Elastic Constant Matrix: (Units=GPa)
#
#
# Indices 1 2 3 4 5 6 
#
# 1 26.5223 12.7319 10.6645 0.0000 0.0000 0.0000
# 2 12.7319 103.1488 34.8760 0.0000 0.0000 0.0000
# 3 10.6645 34.8760 77.3392 0.0000 0.0000 0.0000
# 4 0.0000 0.0000 0.0000 20.9036 0.0000 0.0000
# 5 0.0000 0.0000 0.0000 0.0000 42.4846 0.0000
# 6 0.0000 0.0000 0.0000 0.0000 0.0000 25.1550
#
#
#
# Elastic Compliance Matrix: (Units=1/GPa)
#
#
# Indices 1 2 3 4 5 6 
#
# 1 0.041095 -0.003724 -0.003987 0.000000 0.000000 0.000000
# 2 -0.003724 0.011776 -0.004797 0.000000 0.000000 0.000000
# 3 -0.003987 -0.004797 0.015643 0.000000 0.000000 0.000000
# 4 0.000000 0.000000 0.000000 0.047839 0.000000 0.000000
# 5 0.000000 0.000000 0.000000 0.000000 0.023538 0.000000
# 6 0.000000 0.000000 0.000000 0.000000 0.000000 0.039753
#
#
# Mechanical properties :
#
#
# Convention : Reuss Voigt Hill
#
# Bulk Modulus (GPa) = 22.98980 35.95054 29.47017
# Shear Modulus (GPa) = 22.81426 27.62450 25.21938
#
# Velocity S-wave (km/s) = 3.87099 4.25957 4.06992
# Velocity P-wave (km/s) = 5.92278 6.91408 6.43754
#
# Compressibility (1/GPa) = 0.04349756
#
# Stress axis : x y z
#
# Youngs Moduli (GPa) = 24.33371 84.91592 63.92612
#
# Poissons Ratio (x) = 0.31626 0.25489
# Poissons Ratio (y) = 0.09063 0.30665
# Poissons Ratio (z) = 0.09702 0.40734
#
# Static dielectric constant tensor:
#      x y z
#    x 1.523040 0.000000 0.000000 
#    y 0.000000 1.532420 0.000000 
#    z 0.000000 0.000000 1.509400 
# 
# From -- ./inp_files/36529.got.cif
#   From: 2010.05.17/outbox.cif.g08.bks.cpg/sg53_19_cif.got.tgz:36529.got - 2010.06.03 12:45:16.
