data_PCOD9414000
_publ_section_title
;
Structure prediction by ZEFSAII (Michael W. Deem and Ramdas Pophale) SiO2 
 PCOD9414000
Probable space group: P N N A
;
_chemical_formula_sum "Si O2"
_cell_formula_units_Z 64
_cell_length_a 21.000000
_cell_length_b 18.000000
_cell_length_c 9.000000
_cell_angle_alpha 90.000000
_cell_angle_beta 90.000000
_cell_angle_gamma 90.000000
_cell_volume 3402.000000
_symmetry_space_group_name_H-M "P N N A"
_symmetry_group_IT_number 52
_symmetry_cell_setting 'orthorhombic'
loop_
_space_group_symop_operation_xyz
x,y,z
1/2-x,-y,z
x,1/2-y,1/2-z
1/2-x,1/2+y,1/2-z
-x,-y,-z
1/2+x,y,-z
-x,1/2+y,1/2+z
1/2+x,1/2-y,1/2+z
loop_
_atom_site_type_symbol
_atom_site_label
_atom_site_fract_x
_atom_site_fract_y
_atom_site_fract_z
Si Si1 0.481201 0.904611 0.663581
Si Si2 0.944204 0.439415 0.540272
Si Si3 0.683773 0.470026 0.920065
Si Si4 0.347252 0.666010 0.886270
Si Si5 0.079261 0.939789 0.578813
Si Si6 0.315045 0.534863 0.430077
Si Si7 0.720947 0.173548 0.096844
Si Si8 0.371484 0.169292 0.823360
O O1 0.528769 0.904965 0.804650
O O2 0.421874 0.846258 0.659073
O O3 0.522850 0.899429 0.512136
O O4 0.450338 0.987864 0.660708
O O5 0.879312 0.489406 0.534886
O O6 0.922279 0.367882 0.439548
O O7 0.000000 0.500000 0.500000
O O8 0.750000 0.500000 0.985430
O O9 0.689475 0.468289 0.745532
O O10 0.665538 0.389224 0.979253
O O11 0.627446 0.525475 0.961072
O O12 0.315939 0.747072 0.914082
O O13 0.304940 0.637648 0.748954
O O14 0.120001 0.888436 0.687606
O O15 0.250000 0.500000 0.497046
O O16 0.308700 0.620463 0.473733
O O17 0.798630 0.175899 0.109358
O O18 0.386221 0.250000 0.750000
#
# Coordination Sequence:
#
# PCOD9414000 Si02
#       8
#     8   8   8   8   8   8   8   8
#     4  10  21  42  68  96 130 178 220 286 339 408
#     4  12  23  43  71 101 135 176 231 287 342 414
#     4  10  21  36  65  96 125 170 226 273 339 395
#     4  10  22  41  64  92 131 177 222 282 336 407
#     4  10  21  41  67  96 132 170 231 278 335 408
#     4  11  23  40  66 101 130 174 227 282 336 413
#     4  11  23  42  64  94 137 172 234 277 343 408
#     4  12  25  44  67  98 137 182 227 285 343 415
#
# _framework density 18.812463000000001
#
# number of rings (size 3 to 8) (size 9 to 14) (size 15 to 20)
#    0.000    1.250    5.000    1.500    1.750    1.000 
#    6.750    0.000    2.750    0.000    0.000    0.000 
#    0.000    0.000    0.000    0.000    0.000    0.000 
#
# Total GULP energy -356289.291657 kJ/mol
# GULP energy per Si atom -5567.020182 kJ/mol
# Density = 1.876965 g / cm^3
# Si number density = 18.812463 Si / 1000 Ang^3
#
#
#
# Elastic Constant Matrix: (Units=GPa)
#
#
# Indices 1 2 3 4 5 6 
#
# 1 141.1908 54.6190 35.2861 0.0000 0.0000 0.0000
# 2 54.6190 97.4758 43.9861 0.0000 0.0000 0.0000
# 3 35.2861 43.9861 65.4370 0.0000 0.0000 0.0000
# 4 0.0000 0.0000 0.0000 24.8345 0.0000 0.0000
# 5 0.0000 0.0000 0.0000 0.0000 28.0066 0.0000
# 6 0.0000 0.0000 0.0000 0.0000 0.0000 40.3857
#
#
#
# Elastic Compliance Matrix: (Units=1/GPa)
#
#
# Indices 1 2 3 4 5 6 
#
# 1 0.009250 -0.004209 -0.002159 0.000000 0.000000 0.000000
# 2 -0.004209 0.016641 -0.008916 0.000000 0.000000 0.000000
# 3 -0.002159 -0.008916 0.022439 0.000000 0.000000 0.000000
# 4 0.000000 0.000000 0.000000 0.040267 0.000000 0.000000
# 5 0.000000 0.000000 0.000000 0.000000 0.035706 0.000000
# 6 0.000000 0.000000 0.000000 0.000000 0.000000 0.024761
#
#
# Mechanical properties :
#
#
# Convention : Reuss Voigt Hill
#
# Bulk Modulus (GPa) = 56.29852 63.54289 59.92071
# Shear Modulus (GPa) = 26.94643 29.99286 28.46965
#
# Velocity S-wave (km/s) = 3.78877 3.99721 3.89439
# Velocity P-wave (km/s) = 7.00934 7.42657 7.22097
#
# Compressibility (1/GPa) = 0.01776245
#
# Stress axis : x y z
#
# Youngs Moduli (GPa) = 108.10302 60.09290 44.56464
#
# Poissons Ratio (x) = 0.25294 0.09621
# Poissons Ratio (y) = 0.45502 0.39734
# Poissons Ratio (z) = 0.23337 0.53580
#
# Static dielectric constant tensor:
#      x y z
#    x 1.681630 0.000000 0.000000 
#    y 0.000000 1.673930 0.000000 
#    z 0.000000 0.000000 1.712280 
# 
# From -- ./inp_files/13594.got.cif
#   From: 2010.05.17/outbox.ucp.g08.bks.cvg/sg52_7_cif.got.tgz:13594.got - 2010.06.11 16:30:12.
