data_PCOD9414460
_publ_section_title
;
Structure prediction by ZEFSAII (Michael W. Deem and Ramdas Pophale) SiO2 
 PCOD9414460
Probable space group: P M N A
;
_chemical_formula_sum "Si O2"
_cell_formula_units_Z 48
_cell_length_a 31.009079
_cell_length_b 8.506527
_cell_length_c 9.209456
_cell_angle_alpha 90.000000
_cell_angle_beta 90.000000
_cell_angle_gamma 90.000000
_cell_volume 2429.266323
_symmetry_space_group_name_H-M "P M N A"
_symmetry_group_IT_number 53
_symmetry_cell_setting 'orthorhombic'
loop_
_space_group_symop_operation_xyz
x,y,z
1/2-x,-y,1/2+z
x,-y,-z
1/2-x,y,1/2-z
-x,-y,-z
1/2+x,y,1/2-z
-x,y,z
1/2+x,-y,1/2+z
loop_
_atom_site_type_symbol
_atom_site_label
_atom_site_fract_x
_atom_site_fract_y
_atom_site_fract_z
Si Si1 0.370209 0.268178 0.202042
Si Si2 0.452820 0.326810 0.576001
Si Si3 0.185557 0.500000 0.500000
Si Si4 0.143137 0.308891 0.984420
Si Si5 0.203157 0.772116 0.291525
Si Si6 0.850683 0.000000 0.500000
Si Si7 0.951565 0.465100 0.333616
O O1 0.346184 0.243339 0.355244
O O2 0.376592 0.113691 0.106757
O O3 0.415927 0.350305 0.230531
O O4 0.343550 0.390181 0.103170
O O5 0.453919 0.500000 0.500000
O O6 0.500000 0.253092 0.543886
O O7 0.406350 0.253827 0.543586
O O8 0.450793 0.372893 0.745432
O O9 0.210163 0.614829 0.389371
O O10 0.174120 0.263788 0.851068
O O11 0.143373 0.500000 0.000000
O O12 0.250000 0.834138 0.250000
O O13 0.178262 0.892363 0.395284
O O14 0.941748 0.500000 0.500000
O O15 0.000000 0.400365 0.321660
#
# Coordination Sequence:
#
# PCOD9414460 Si02
#       7
#     8   8   4   8   8   4   8
#     4  11  20  38  60  86 126 159 209 246 306 364
#     4   9  16  28  50  90 126 146 187 249 314 356
#     4  10  20  36  63  90 118 148 193 260 300 354
#     4  11  20  35  63  97 119 153 201 265 312 349
#     4  11  25  43  65  91 123 156 207 250 316 370
#     4  10  28  44  59  84 120 180 193 248 300 386
#     4  10  18  28  53  90 123 159 201 259 311 355
#
# _framework density 19.759052000000001
#
# number of rings (size 3 to 8) (size 9 to 14) (size 15 to 20)
#    0.000    1.667    5.833    0.000    3.500    2.000 
#    0.000    3.750    0.000    1.000    0.000    2.333 
#    0.000    0.000    0.000    0.000    0.000    0.000 
#
# Total GULP energy -267567.869481 kJ/mol
# GULP energy per Si atom -5574.330614 kJ/mol
# Density = 1.971408 g / cm^3
# Si number density = 19.759052 Si / 1000 Ang^3
#
#
#
# Elastic Constant Matrix: (Units=GPa)
#
#
# Indices 1 2 3 4 5 6 
#
# 1 77.5836 -4.5856 21.7090 0.0000 0.0000 0.0000
# 2 -4.5856 34.2737 11.5395 0.0000 0.0000 0.0000
# 3 21.7090 11.5395 144.5649 0.0000 0.0000 0.0000
# 4 0.0000 0.0000 0.0000 24.6217 0.0000 0.0000
# 5 0.0000 0.0000 0.0000 0.0000 19.5068 0.0000
# 6 0.0000 0.0000 0.0000 0.0000 0.0000 5.8677
#
#
#
# Elastic Compliance Matrix: (Units=1/GPa)
#
#
# Indices 1 2 3 4 5 6 
#
# 1 0.013675 0.002591 -0.002260 0.000000 0.000000 0.000000
# 2 0.002591 0.030473 -0.002821 0.000000 0.000000 0.000000
# 3 -0.002260 -0.002821 0.007482 0.000000 0.000000 0.000000
# 4 0.000000 0.000000 0.000000 0.040615 0.000000 0.000000
# 5 0.000000 0.000000 0.000000 0.000000 0.051264 0.000000
# 6 0.000000 0.000000 0.000000 0.000000 0.000000 0.170423
#
#
# Mechanical properties :
#
#
# Convention : Reuss Voigt Hill
#
# Bulk Modulus (GPa) = 21.43714 34.86089 28.14902
# Shear Modulus (GPa) = 14.94928 25.18320 20.06624
#
# Velocity S-wave (km/s) = 2.75358 3.57391 3.19022
# Velocity P-wave (km/s) = 4.58066 5.89167 5.27703
#
# Compressibility (1/GPa) = 0.04664800
#
# Stress axis : x y z
#
# Youngs Moduli (GPa) = 73.12658 32.81543 133.65496
#
# Poissons Ratio (x) = -0.08501 0.30210
# Poissons Ratio (y) = -0.18945 0.37711
# Poissons Ratio (z) = 0.16529 0.09259
#
# Static dielectric constant tensor:
#      x y z
#    x 1.706450 0.000000 0.000000 
#    y 0.000000 1.685810 0.000000 
#    z 0.000000 0.000000 1.762090 
# 
# From -- ./inp_files/13071.got.cif
#   From: 2010.05.17/outbox.cif.g08.bks.cpg/sg53_7_cif.got.tgz:13071.got - 2010.06.03 12:45:16.
