data_PCOD9414385
_publ_section_title
;
Structure prediction by ZEFSAII (Michael W. Deem and Ramdas Pophale) SiO2 
 PCOD9414385
Probable space group: P M N A
;
_chemical_formula_sum "Si O2"
_cell_formula_units_Z 64
_cell_length_a 8.858159
_cell_length_b 22.445603
_cell_length_c 18.590460
_cell_angle_alpha 90.000000
_cell_angle_beta 90.000000
_cell_angle_gamma 90.000000
_cell_volume 3696.280189
_symmetry_space_group_name_H-M "P M N A"
_symmetry_group_IT_number 53
_symmetry_cell_setting 'orthorhombic'
loop_
_space_group_symop_operation_xyz
x,y,z
1/2-x,-y,1/2+z
x,-y,-z
1/2-x,y,1/2-z
-x,-y,-z
1/2+x,y,1/2-z
-x,y,z
1/2+x,-y,1/2+z
loop_
_atom_site_type_symbol
_atom_site_label
_atom_site_fract_x
_atom_site_fract_y
_atom_site_fract_z
Si Si1 0.315683 0.935451 0.973925
Si Si2 0.818251 0.125988 0.325965
Si Si3 0.826158 0.502550 0.587468
Si Si4 0.316827 0.814858 0.044451
Si Si5 0.820956 0.378729 0.909889
Si Si6 0.818977 0.732270 0.328393
Si Si7 0.820648 0.626707 0.918622
Si Si8 0.318217 0.750387 0.896715
O O1 0.500000 0.936144 0.974278
O O2 0.271224 0.915280 0.893413
O O3 0.266966 0.881784 0.026526
O O4 0.263572 0.000000 0.000000
O O5 0.750000 0.108160 0.250000
O O6 0.775921 0.194459 0.345264
O O7 0.000000 0.124132 0.322702
O O8 0.822508 0.500000 0.500000
O O9 0.733018 0.444839 0.611381
O O10 0.755808 0.565920 0.608536
O O11 0.000000 0.498115 0.610054
O O12 0.500000 0.815731 0.045016
O O13 0.266585 0.785050 0.118156
O O14 0.274764 0.773353 0.976706
O O15 0.734535 0.329017 0.864897
O O16 0.000000 0.372773 0.899805
O O17 0.788195 0.370174 0.995184
O O18 0.750000 0.738365 0.250000
O O19 0.000000 0.732985 0.324625
O O20 0.757198 0.686898 0.883617
O O21 0.000000 0.622840 0.910020
O O22 0.500000 0.743969 0.894907
#
# Coordination Sequence:
#
# PCOD9414385 Si02
#       8
#     8   8   8   8   8   8   8   8
#     4   8  14  28  52  79 103 133 175 212 243 289
#     4   9  18  31  50  76 105 135 168 209 251 299
#     4   9  17  28  44  66  93 127 162 197 246 303
#     4   8  15  28  47  69  94 126 165 208 247 290
#     4  10  19  31  46  67  96 125 162 210 259 307
#     4  11  21  33  49  68  95 131 171 214 260 307
#     4  10  18  27  44  72 100 124 157 207 260 302
#     4   9  16  29  48  69  94 128 168 204 245 300
#
# _framework density 17.314706000000001
#
# number of rings (size 3 to 8) (size 9 to 14) (size 15 to 20)
#    0.000    2.750    1.250    3.000    0.000    3.000 
#    0.000    0.625    0.000    1.125    0.000    3.500 
#    0.000    0.000    0.000    0.000    0.000    0.000 
#
# Total GULP energy -356710.395116 kJ/mol
# GULP energy per Si atom -5573.599924 kJ/mol
# Density = 1.727530 g / cm^3
# Si number density = 17.314706 Si / 1000 Ang^3
#
#
#
# Elastic Constant Matrix: (Units=GPa)
#
#
# Indices 1 2 3 4 5 6 
#
# 1 26.2546 28.7074 26.5618 0.0000 0.0000 0.0000
# 2 28.7074 147.1515 49.3095 0.0000 0.0000 0.0000
# 3 26.5618 49.3095 80.6072 0.0000 0.0000 0.0000
# 4 0.0000 0.0000 0.0000 12.2998 0.0000 0.0000
# 5 0.0000 0.0000 0.0000 0.0000 19.3702 0.0000
# 6 0.0000 0.0000 0.0000 0.0000 0.0000 7.2559
#
#
#
# Elastic Compliance Matrix: (Units=1/GPa)
#
#
# Indices 1 2 3 4 5 6 
#
# 1 0.061823 -0.006584 -0.016345 0.000000 0.000000 0.000000
# 2 -0.006584 0.009249 -0.003488 0.000000 0.000000 0.000000
# 3 -0.016345 -0.003488 0.019926 0.000000 0.000000 0.000000
# 4 0.000000 0.000000 0.000000 0.081302 0.000000 0.000000
# 5 0.000000 0.000000 0.000000 0.000000 0.051626 0.000000
# 6 0.000000 0.000000 0.000000 0.000000 0.000000 0.137819
#
#
# Mechanical properties :
#
#
# Convention : Reuss Voigt Hill
#
# Bulk Modulus (GPa) = 26.20243 51.46340 38.83291
# Shear Modulus (GPa) = 11.70137 17.74748 14.72442
#
# Velocity S-wave (km/s) = 2.60245 3.20503 2.91933
# Velocity P-wave (km/s) = 4.91896 6.59418 5.81719
#
# Compressibility (1/GPa) = 0.03816440
#
# Stress axis : x y z
#
# Youngs Moduli (GPa) = 16.17509 108.11867 50.18670
#
# Poissons Ratio (x) = 0.71186 0.82028
# Poissons Ratio (y) = 0.10650 0.17507
# Poissons Ratio (z) = 0.26437 0.37715
#
# Static dielectric constant tensor:
#      x y z
#    x 1.576190 0.000000 0.000000 
#    y 0.000000 1.586790 0.000000 
#    z 0.000000 0.000000 1.584490 
# 
# From -- ./inp_files/27051.got.cif
#   From: 2010.05.17/outbox.cif.g08.bks.cpg/sg53_14_cif.got.tgz:27051.got - 2010.06.03 12:45:16.
