data_PCOD9414875
_publ_section_title
;
Structure prediction by ZEFSAII (Michael W. Deem and Ramdas Pophale) SiO2 
 PCOD9414875
Probable space group: P M N A
;
_chemical_formula_sum "Si O2"
_cell_formula_units_Z 48
_cell_length_a 8.617770
_cell_length_b 31.861557
_cell_length_c 9.165133
_cell_angle_alpha 90.000000
_cell_angle_beta 90.000000
_cell_angle_gamma 90.000000
_cell_volume 2516.521618
_symmetry_space_group_name_H-M "P M N A"
_symmetry_group_IT_number 53
_symmetry_cell_setting 'orthorhombic'
loop_
_space_group_symop_operation_xyz
x,y,z
1/2-x,-y,1/2+z
x,-y,-z
1/2-x,y,1/2-z
-x,-y,-z
1/2+x,y,1/2-z
-x,y,z
1/2+x,-y,1/2+z
loop_
_atom_site_type_symbol
_atom_site_label
_atom_site_fract_x
_atom_site_fract_y
_atom_site_fract_z
Si Si1 0.314142 0.957148 0.086598
Si Si2 0.314755 0.622178 0.085129
Si Si3 0.686084 0.542562 0.587027
Si Si4 0.314508 0.122667 0.413415
Si Si5 0.685583 0.709589 0.416002
Si Si6 0.314335 0.202684 0.915418
O O1 0.250000 0.959903 0.250000
O O2 0.500000 0.951567 0.089871
O O3 0.238479 0.917903 0.004408
O O4 0.279380 0.000000 0.000000
O O5 0.250000 0.617538 0.250000
O O6 0.500000 0.624824 0.091437
O O7 0.247429 0.665790 0.020869
O O8 0.260153 0.582479 0.992826
O O9 0.724421 0.500000 0.500000
O O10 0.750000 0.539404 0.750000
O O11 0.500000 0.547197 0.588661
O O12 0.250000 0.119187 0.250000
O O13 0.500000 0.125344 0.411292
O O14 0.244934 0.163820 0.490470
O O15 0.750000 0.709294 0.250000
O O16 0.500000 0.710144 0.414566
O O17 0.750970 0.753107 0.478166
O O18 0.250000 0.198197 0.750000
O O19 0.500000 0.203761 0.909804
#
# Coordination Sequence:
#
# PCOD9414875 Si02
#       6
#     8   8   8   8   8   8
#     4  11  24  42  65  93 124 159 199 244 295 350
#     4  11  21  36  59  87 119 155 195 240 291 346
#     4  11  24  41  61  86 116 151 192 238 290 347
#     4  12  25  42  62  87 120 158 200 246 298 353
#     4  10  18  32  55  85 118 153 195 241 290 344
#     4  11  21  37  60  88 120 156 199 245 294 346
#
# _framework density 19.073947
#
# number of rings (size 3 to 8) (size 9 to 14) (size 15 to 20)
#    0.000    1.000    0.000   10.500    0.000    5.333 
#    0.000    0.833    0.000    0.000    0.000    0.000 
#    0.000    0.000    0.000    0.000    0.000    0.000 
#
# Total GULP energy -268492.973000 kJ/mol
# GULP energy per Si atom -5593.603604 kJ/mol
# Density = 1.903053 g / cm^3
# Si number density = 19.073947 Si / 1000 Ang^3
#
#
#
# Elastic Constant Matrix: (Units=GPa)
#
#
# Indices 1 2 3 4 5 6 
#
# 1 195.7915 110.1196 65.5974 0.0000 0.0000 0.0000
# 2 110.1196 201.9412 87.4372 0.0000 0.0000 0.0000
# 3 65.5974 87.4372 122.6690 0.0000 0.0000 0.0000
# 4 0.0000 0.0000 0.0000 13.1594 0.0000 0.0000
# 5 0.0000 0.0000 0.0000 0.0000 30.6755 0.0000
# 6 0.0000 0.0000 0.0000 0.0000 0.0000 37.5261
#
#
#
# Elastic Compliance Matrix: (Units=1/GPa)
#
#
# Indices 1 2 3 4 5 6 
#
# 1 0.007578 -0.003439 -0.001601 0.000000 0.000000 0.000000
# 2 -0.003439 0.008723 -0.004379 0.000000 0.000000 0.000000
# 3 -0.001601 -0.004379 0.012129 0.000000 0.000000 0.000000
# 4 0.000000 0.000000 0.000000 0.075991 0.000000 0.000000
# 5 0.000000 0.000000 0.000000 0.000000 0.032599 0.000000
# 6 0.000000 0.000000 0.000000 0.000000 0.000000 0.026648
#
#
# Mechanical properties :
#
#
# Convention : Reuss Voigt Hill
#
# Bulk Modulus (GPa) = 104.24459 116.30112 110.27286
# Shear Modulus (GPa) = 26.92442 33.42204 30.17323
#
# Velocity S-wave (km/s) = 3.76118 4.19051 3.98164
# Velocity P-wave (km/s) = 8.58099 9.19348 8.89251
#
# Compressibility (1/GPa) = 0.00959282
#
# Stress axis : x y z
#
# Youngs Moduli (GPa) = 131.95737 114.63568 82.44513
#
# Poissons Ratio (x) = 0.39426 0.13200
# Poissons Ratio (y) = 0.45383 0.36101
# Poissons Ratio (z) = 0.21126 0.50196
#
# Static dielectric constant tensor:
#      x y z
#    x 1.635700 0.000000 0.000000 
#    y 0.000000 1.673840 0.000000 
#    z 0.000000 0.000000 1.656650 
# 
# From -- ./inp_files/6672.got.cif
#   From: 2010.05.17/outbox.cif.g08.bks.cpg/sg53_4_cif.got.tgz:6672.got - 2010.06.03 12:45:16.
