data_PCOD9414702
_publ_section_title
;
Structure prediction by ZEFSAII (Michael W. Deem and Ramdas Pophale) SiO2 
 PCOD9414702
Probable space group: P M N A
;
_chemical_formula_sum "Si O2"
_cell_formula_units_Z 48
_cell_length_a 8.398049
_cell_length_b 12.385798
_cell_length_c 26.543981
_cell_angle_alpha 90.000000
_cell_angle_beta 90.000000
_cell_angle_gamma 90.000000
_cell_volume 2761.013022
_symmetry_space_group_name_H-M "P M N A"
_symmetry_group_IT_number 53
_symmetry_cell_setting 'orthorhombic'
loop_
_space_group_symop_operation_xyz
x,y,z
1/2-x,-y,1/2+z
x,-y,-z
1/2-x,y,1/2-z
-x,-y,-z
1/2+x,y,1/2-z
-x,y,z
1/2+x,-y,1/2+z
loop_
_atom_site_type_symbol
_atom_site_label
_atom_site_fract_x
_atom_site_fract_y
_atom_site_fract_z
Si Si1 0.691446 0.015112 0.611524
Si Si2 0.808822 0.528410 0.443438
Si Si3 0.816413 0.849294 0.531364
Si Si4 0.308028 0.847290 0.806934
Si Si5 0.314261 0.234547 0.571075
Si Si6 0.814143 0.331407 0.381637
O O1 0.500000 0.011169 0.608852
O O2 0.741576 0.140309 0.608961
O O3 0.760685 0.952634 0.562873
O O4 0.749069 0.948320 0.659822
O O5 0.749318 0.500000 0.500000
O O6 0.773040 0.651266 0.429374
O O7 0.744008 0.443076 0.402373
O O8 0.000000 0.513819 0.445139
O O9 0.710731 0.818208 0.483964
O O10 0.810061 0.750393 0.570966
O O11 0.000000 0.861526 0.515175
O O12 0.250000 0.852525 0.750000
O O13 0.500000 0.846839 0.808941
O O14 0.247128 0.738392 0.835325
O O15 0.500000 0.254956 0.579811
O O16 0.000000 0.351577 0.369217
#
# Coordination Sequence:
#
# PCOD9414702 Si02
#       6
#     8   8   8   8   8   8
#     4  10  21  35  49  72 106 137 171 216 264 311
#     4  10  18  32  52  72 101 141 182 217 251 298
#     4  10  18  31  50  72 101 138 179 215 253 306
#     4  10  20  36  59  82 103 129 167 214 269 321
#     4  11  22  32  45  71 108 144 176 213 257 305
#     4   8  16  31  50  75 102 131 169 214 257 301
#
# _framework density 17.384922
#
# number of rings (size 3 to 8) (size 9 to 14) (size 15 to 20)
#    0.000    2.167    1.667    3.500    0.000    5.000 
#    0.000    1.667    0.000    1.000    0.000    4.667 
#    0.000    0.000    0.000    0.000    0.000    0.000 
#
# Total GULP energy -267657.147303 kJ/mol
# GULP energy per Si atom -5576.190569 kJ/mol
# Density = 1.734535 g / cm^3
# Si number density = 17.384922 Si / 1000 Ang^3
#
#
#
# Elastic Constant Matrix: (Units=GPa)
#
#
# Indices 1 2 3 4 5 6 
#
# 1 19.3111 9.6170 -0.1875 0.0000 0.0000 0.0000
# 2 9.6170 137.7887 47.7402 0.0000 0.0000 0.0000
# 3 -0.1875 47.7402 78.7554 0.0000 0.0000 0.0000
# 4 0.0000 0.0000 0.0000 9.4671 0.0000 0.0000
# 5 0.0000 0.0000 0.0000 0.0000 -556.3149 0.0000
# 6 0.0000 0.0000 0.0000 0.0000 0.0000 16.2082
#
#
#
# Elastic Compliance Matrix: (Units=1/GPa)
#
#
# Indices 1 2 3 4 5 6 
#
# 1 0.054228 -0.004848 0.003068 0.000000 0.000000 0.000000
# 2 -0.004848 0.009620 -0.005843 0.000000 0.000000 0.000000
# 3 0.003068 -0.005843 0.016247 0.000000 0.000000 0.000000
# 4 0.000000 0.000000 0.000000 0.105628 0.000000 0.000000
# 5 0.000000 0.000000 0.000000 0.000000 -0.001798 0.000000
# 6 0.000000 0.000000 0.000000 0.000000 0.000000 0.061697
#
#
# Mechanical properties :
#
#
# Convention : Reuss Voigt Hill
#
# Bulk Modulus (GPa) = 15.42053 38.91049 27.16551
# Shear Modulus (GPa) = 17.70001 -94.21554 -38.25777
#
# Velocity S-wave (km/s) = 3.19427 -7.36963 -4.69618
# Velocity P-wave (km/s) = 4.74276 7.07000 3.70751
#
# Compressibility (1/GPa) = 0.06484861
#
# Stress axis : x y z
#
# Youngs Moduli (GPa) = 18.44073 103.94612 61.55015
#
# Poissons Ratio (x) = 0.50390 -0.18882
# Poissons Ratio (y) = 0.08940 0.35965
# Poissons Ratio (z) = -0.05657 0.60738
#
# Static dielectric constant tensor:
#      x y z
#    x 1.601130 0.000000 0.000000 
#    y 0.000000 1.621680 0.000000 
#    z 0.000000 0.000000 1.571700 
# 
# From -- ./inp_files/33912.got.cif
#   From: 2010.05.17/outbox.cif.g08.bks.cpg/sg53_17_cif.got.tgz:33912.got - 2010.06.03 12:45:16.
