data_PCOD9414897
_publ_section_title
;
Structure prediction by ZEFSAII (Michael W. Deem and Ramdas Pophale) SiO2 
 PCOD9414897
Probable space group: P M N A
;
_chemical_formula_sum "Si O2"
_cell_formula_units_Z 52
_cell_length_a 9.497709
_cell_length_b 13.566918
_cell_length_c 21.765806
_cell_angle_alpha 90.000000
_cell_angle_beta 90.000000
_cell_angle_gamma 90.000000
_cell_volume 2804.625079
_symmetry_space_group_name_H-M "P M N A"
_symmetry_group_IT_number 53
_symmetry_cell_setting 'orthorhombic'
loop_
_space_group_symop_operation_xyz
x,y,z
1/2-x,-y,1/2+z
x,-y,-z
1/2-x,y,1/2-z
-x,-y,-z
1/2+x,y,1/2-z
-x,y,z
1/2+x,-y,1/2+z
loop_
_atom_site_type_symbol
_atom_site_label
_atom_site_fract_x
_atom_site_fract_y
_atom_site_fract_z
Si Si1 0.750000 0.740821 0.750000
Si Si2 0.334080 0.376936 0.807728
Si Si3 0.844271 0.433677 0.167358
Si Si4 0.833463 0.255978 0.568024
Si Si5 0.167421 0.052259 0.934742
Si Si6 0.165900 0.862607 0.858616
Si Si7 0.660898 0.311466 0.454519
O O1 0.655238 0.659928 0.713684
O O2 0.768523 0.816911 0.693093
O O3 0.250000 0.333659 0.750000
O O4 0.500000 0.380278 0.795647
O O5 0.272812 0.486756 0.816976
O O6 0.309272 0.315866 0.869491
O O7 0.500000 0.479240 0.330671
O O8 0.818462 0.391127 0.099262
O O9 0.767558 0.313934 0.510365
O O10 0.000000 0.242792 0.559555
O O11 0.755749 0.151192 0.571249
O O12 0.196739 0.972574 0.881249
O O13 0.000000 0.074271 0.933949
O O14 0.197428 0.000000 0.000000
O O15 0.174096 0.792446 0.918440
O O16 0.000000 0.857914 0.837829
O O17 0.500000 0.319600 0.477047
#
# Coordination Sequence:
#
# PCOD9414897 Si02
#       7
#     4   8   8   8   8   8   8
#     4  10  18  32  58  88 122 148 184 240 300 336
#     4  11  25  43  62  83 116 158 202 245 293 349
#     4  10  21  37  62  92 121 152 197 241 288 353
#     4  11  24  40  58  87 122 153 192 248 300 344
#     4  10  19  37  65  87 109 152 199 238 287 350
#     4   9  18  34  56  86 119 151 196 238 281 350
#     4   9  18  36  61  89 119 155 193 235 282 350
#
# _framework density 18.540804000000001
#
# number of rings (size 3 to 8) (size 9 to 14) (size 15 to 20)
#    0.000    2.000    2.308    2.308    0.000    4.615 
#    1.385    9.231    0.000    0.000    0.000    0.000 
#    0.000    0.000    0.000    0.000    0.000    0.000 
#
# Total GULP energy -289793.674938 kJ/mol
# GULP energy per Si atom -5572.955287 kJ/mol
# Density = 1.849860 g / cm^3
# Si number density = 18.540804 Si / 1000 Ang^3
#
#
#
# Elastic Constant Matrix: (Units=GPa)
#
#
# Indices 1 2 3 4 5 6 
#
# 1 82.5105 46.5831 78.8347 0.0000 0.0000 0.0000
# 2 46.5831 68.6775 52.5556 0.0000 0.0000 0.0000
# 3 78.8347 52.5556 125.0327 0.0000 0.0000 0.0000
# 4 0.0000 0.0000 0.0000 27.3064 0.0000 0.0000
# 5 0.0000 0.0000 0.0000 0.0000 23.2085 0.0000
# 6 0.0000 0.0000 0.0000 0.0000 0.0000 73.5174
#
#
#
# Elastic Compliance Matrix: (Units=1/GPa)
#
#
# Indices 1 2 3 4 5 6 
#
# 1 0.034574 -0.009979 -0.017605 0.000000 0.000000 0.000000
# 2 -0.009979 0.024346 -0.003941 0.000000 0.000000 0.000000
# 3 -0.017605 -0.003941 0.020755 0.000000 0.000000 0.000000
# 4 0.000000 0.000000 0.000000 0.036621 0.000000 0.000000
# 5 0.000000 0.000000 0.000000 0.000000 0.043088 0.000000
# 6 0.000000 0.000000 0.000000 0.000000 0.000000 0.013602
#
#
# Mechanical properties :
#
#
# Convention : Reuss Voigt Hill
#
# Bulk Modulus (GPa) = 60.15463 70.24084 65.19774
# Shear Modulus (GPa) = 20.69726 31.35628 26.02677
#
# Velocity S-wave (km/s) = 3.34474 4.11689 3.75074
# Velocity P-wave (km/s) = 6.88704 7.78235 7.34835
#
# Compressibility (1/GPa) = 0.01662383
#
# Stress axis : x y z
#
# Youngs Moduli (GPa) = 28.92331 41.07508 48.18175
#
# Poissons Ratio (x) = 0.40989 0.84824
# Poissons Ratio (y) = 0.28863 0.18990
# Poissons Ratio (z) = 0.50919 0.16189
#
# Static dielectric constant tensor:
#      x y z
#    x 1.625050 0.000000 0.000000 
#    y 0.000000 1.632610 0.000000 
#    z 0.000000 0.000000 1.653370 
# 
# From -- ./inp_files/30635.got.cif
#   From: 2010.05.17/outbox.cif.g08.bks.cpg/sg53_16_cif.got.tgz:30635.got - 2010.06.03 12:45:16.
