data_PCOD9414496
_publ_section_title
;
Structure prediction by ZEFSAII (Michael W. Deem and Ramdas Pophale) SiO2 
 PCOD9414496
Probable space group: P M N A
;
_chemical_formula_sum "Si O2"
_cell_formula_units_Z 64
_cell_length_a 18.213782
_cell_length_b 9.784976
_cell_length_c 24.931146
_cell_angle_alpha 90.000000
_cell_angle_beta 90.000000
_cell_angle_gamma 90.000000
_cell_volume 4443.264236
_symmetry_space_group_name_H-M "P M N A"
_symmetry_group_IT_number 53
_symmetry_cell_setting 'orthorhombic'
loop_
_space_group_symop_operation_xyz
x,y,z
1/2-x,-y,1/2+z
x,-y,-z
1/2-x,y,1/2-z
-x,-y,-z
1/2+x,y,1/2-z
-x,y,z
1/2+x,-y,1/2+z
loop_
_atom_site_type_symbol
_atom_site_label
_atom_site_fract_x
_atom_site_fract_y
_atom_site_fract_z
Si Si1 0.583359 0.616956 0.044494
Si Si2 0.673397 0.188593 0.140642
Si Si3 0.586142 0.141786 0.031361
Si Si4 0.586900 0.491741 0.746671
Si Si5 0.205267 0.008754 0.193653
Si Si6 0.913006 0.190496 0.247361
Si Si7 0.796831 0.306437 0.805539
Si Si8 0.323093 0.510568 0.143319
O O1 0.500000 0.645255 0.064040
O O2 0.633835 0.566538 0.092240
O O3 0.579052 0.500000 0.000000
O O4 0.611765 0.746914 0.011922
O O5 0.631756 0.148295 0.086121
O O6 0.743565 0.093729 0.152962
O O7 0.619599 0.173712 0.192390
O O8 0.693818 0.349354 0.137867
O O9 0.500000 0.172110 0.043903
O O10 0.589653 0.000000 0.000000
O O11 0.500000 0.469162 0.748655
O O12 0.600428 0.650765 0.731592
O O13 0.628564 0.386408 0.708146
O O14 0.623176 0.475465 0.805315
O O15 0.250000 0.007333 0.250000
O O16 0.131209 0.090144 0.208142
O O17 0.193314 0.851050 0.177682
O O18 0.000000 0.165939 0.247565
O O19 0.750000 0.304289 0.750000
O O20 0.748138 0.397800 0.845334
#
# Coordination Sequence:
#
# PCOD9414496 Si02
#       8
#     8   8   8   8   8   8   8   8
#     4  10  19  31  46  65  90 119 154 191 222 255
#     4  10  18  30  47  64  88 122 156 186 221 262
#     4  10  21  33  44  63  92 123 154 190 226 259
#     4   9  17  29  46  67  90 116 149 186 224 267
#     4   9  18  30  43  62  89 118 148 183 222 268
#     4   9  17  29  47  67  88 117 152 185 220 268
#     4   9  18  30  43  63  90 116 146 185 226 268
#     4  10  18  29  47  66  88 120 154 187 224 262
#
# _framework density 14.403824999999999
#
# number of rings (size 3 to 8) (size 9 to 14) (size 15 to 20)
#    0.000    2.500    1.250    1.500    1.750    4.500 
#    0.000    0.000    0.000    0.000    0.000    0.000 
#    0.000    2.000    0.000    0.125    0.000    0.000 
#
# Total GULP energy -356547.292962 kJ/mol
# GULP energy per Si atom -5571.051453 kJ/mol
# Density = 1.437104 g / cm^3
# Si number density = 14.403825 Si / 1000 Ang^3
#
#
#
# Elastic Constant Matrix: (Units=GPa)
#
#
# Indices 1 2 3 4 5 6 
#
# 1 81.6387 65.2975 37.6618 0.0000 0.0000 0.0000
# 2 65.2975 108.8192 47.1012 0.0000 0.0000 0.0000
# 3 37.6618 47.1012 63.0048 0.0000 0.0000 0.0000
# 4 0.0000 0.0000 0.0000 18.8390 0.0000 0.0000
# 5 0.0000 0.0000 0.0000 0.0000 37.9815 0.0000
# 6 0.0000 0.0000 0.0000 0.0000 0.0000 21.9466
#
#
#
# Elastic Compliance Matrix: (Units=1/GPa)
#
#
# Indices 1 2 3 4 5 6 
#
# 1 0.024762 -0.012495 -0.005461 0.000000 0.000000 0.000000
# 2 -0.012495 0.019891 -0.007401 0.000000 0.000000 0.000000
# 3 -0.005461 -0.007401 0.024669 0.000000 0.000000 0.000000
# 4 0.000000 0.000000 0.000000 0.053081 0.000000 0.000000
# 5 0.000000 0.000000 0.000000 0.000000 0.026329 0.000000
# 6 0.000000 0.000000 0.000000 0.000000 0.000000 0.045565
#
#
# Mechanical properties :
#
#
# Convention : Reuss Voigt Hill
#
# Bulk Modulus (GPa) = 53.73954 61.50930 57.62442
# Shear Modulus (GPa) = 19.90343 22.64691 21.27517
#
# Velocity S-wave (km/s) = 3.72131 3.96951 3.84741
# Velocity P-wave (km/s) = 7.47358 7.98783 7.73498
#
# Compressibility (1/GPa) = 0.01860827
#
# Stress axis : x y z
#
# Youngs Moduli (GPa) = 40.38393 50.27493 40.53707
#
# Poissons Ratio (x) = 0.62819 0.22137
# Poissons Ratio (y) = 0.50460 0.30001
# Poissons Ratio (z) = 0.22053 0.37207
#
# Static dielectric constant tensor:
#      x y z
#    x 1.461840 0.000000 0.000000 
#    y 0.000000 1.455970 0.000000 
#    z 0.000000 0.000000 1.442180 
# 
# From -- ./inp_files/33080.got.cif
#   From: 2010.05.17/outbox.cif.g08.bks.cpg/sg53_17_cif.got.tgz:33080.got - 2010.06.03 12:45:16.
