data_PCOD9414459
_publ_section_title
;
Structure prediction by ZEFSAII (Michael W. Deem and Ramdas Pophale) SiO2 
 PCOD9414459
Probable space group: P M N A
;
_chemical_formula_sum "Si O2"
_cell_formula_units_Z 64
_cell_length_a 7.798672
_cell_length_b 17.384355
_cell_length_c 22.577658
_cell_angle_alpha 90.000000
_cell_angle_beta 90.000000
_cell_angle_gamma 90.000000
_cell_volume 3060.963332
_symmetry_space_group_name_H-M "P M N A"
_symmetry_group_IT_number 53
_symmetry_cell_setting 'orthorhombic'
loop_
_space_group_symop_operation_xyz
x,y,z
1/2-x,-y,1/2+z
x,-y,-z
1/2-x,y,1/2-z
-x,-y,-z
1/2+x,y,1/2-z
-x,y,z
1/2+x,-y,1/2+z
loop_
_atom_site_type_symbol
_atom_site_label
_atom_site_fract_x
_atom_site_fract_y
_atom_site_fract_z
Si Si1 0.704899 0.793614 0.313022
Si Si2 0.290552 0.711058 0.430211
Si Si3 0.709434 0.950013 0.362768
Si Si4 0.703150 0.269035 0.182363
Si Si5 0.206774 0.462674 0.938072
Si Si6 0.794197 0.886359 0.883689
Si Si7 0.795553 0.557312 0.681155
Si Si8 0.208929 0.131420 0.984816
O O1 0.750000 0.761056 0.250000
O O2 0.500000 0.796767 0.318558
O O3 0.767302 0.741555 0.366409
O O4 0.770585 0.880932 0.320878
O O5 0.500000 0.709134 0.431374
O O6 0.229478 0.625153 0.439440
O O7 0.239807 0.779835 0.474059
O O8 0.500000 0.950092 0.360786
O O9 0.758535 0.920993 0.428944
O O10 0.768539 0.036664 0.350363
O O11 0.750000 0.250815 0.250000
O O12 0.500000 0.274699 0.177226
O O13 0.756464 0.196977 0.142706
O O14 0.773918 0.355246 0.170242
O O15 0.246102 0.504438 0.875249
O O16 0.000000 0.461493 0.941068
O O17 0.268278 0.500000 0.000000
O O18 0.000000 0.891657 0.885444
O O19 0.730269 0.893415 0.951043
O O20 0.750000 0.535461 0.750000
O O21 0.000000 0.560105 0.680669
O O22 0.000000 0.129165 0.984919
#
# Coordination Sequence:
#
# PCOD9414459 Si02
#       8
#     8   8   8   8   8   8   8   8
#     4   9  17  31  50  68  98 136 173 213 256 306
#     4   8  16  31  48  74 106 137 169 210 257 306
#     4   8  15  28  45  73 105 134 171 217 260 303
#     4  10  22  39  55  74 102 136 175 219 266 320
#     4  10  21  35  57  88 120 147 180 226 278 337
#     4  10  18  28  52  81 102 131 173 217 263 312
#     4  10  22  41  62  81 108 147 189 231 280 337
#     4   8  14  26  48  74 104 137 174 213 251 304
#
# _framework density 20.908450999999999
#
# number of rings (size 3 to 8) (size 9 to 14) (size 15 to 20)
#    0.000    2.875    0.000    2.625    1.750    4.250 
#    0.000    3.750    0.000    4.500    0.000    0.000 
#    0.000    0.000    0.000    0.000    0.000    0.000 
#
# Total GULP energy -356616.742218 kJ/mol
# GULP energy per Si atom -5572.136597 kJ/mol
# Density = 2.086086 g / cm^3
# Si number density = 20.908451 Si / 1000 Ang^3
#
#
#
# Elastic Constant Matrix: (Units=GPa)
#
#
# Indices 1 2 3 4 5 6 
#
# 1 27.4551 8.7221 1.7511 0.0000 0.0000 0.0000
# 2 8.7221 124.2753 38.6459 0.0000 0.0000 0.0000
# 3 1.7511 38.6459 63.6980 0.0000 0.0000 0.0000
# 4 0.0000 0.0000 0.0000 8.1507 0.0000 0.0000
# 5 0.0000 0.0000 0.0000 0.0000 18.0457 0.0000
# 6 0.0000 0.0000 0.0000 0.0000 0.0000 9.8131
#
#
#
# Elastic Compliance Matrix: (Units=1/GPa)
#
#
# Indices 1 2 3 4 5 6 
#
# 1 0.037279 -0.002832 0.000693 0.000000 0.000000 0.000000
# 2 -0.002832 0.010133 -0.006070 0.000000 0.000000 0.000000
# 3 0.000693 -0.006070 0.019363 0.000000 0.000000 0.000000
# 4 0.000000 0.000000 0.000000 0.122689 0.000000 0.000000
# 5 0.000000 0.000000 0.000000 0.000000 0.055415 0.000000
# 6 0.000000 0.000000 0.000000 0.000000 0.000000 0.101904
#
#
# Mechanical properties :
#
#
# Convention : Reuss Voigt Hill
#
# Bulk Modulus (GPa) = 19.85811 34.85184 27.35498
# Shear Modulus (GPa) = 13.15842 18.28920 15.72381
#
# Velocity S-wave (km/s) = 2.51138 2.96079 2.74529
# Velocity P-wave (km/s) = 4.23410 5.32854 4.81253
#
# Compressibility (1/GPa) = 0.05035726
#
# Stress axis : x y z
#
# Youngs Moduli (GPa) = 26.82506 98.68790 51.64587
#
# Poissons Ratio (x) = 0.27948 -0.03581
# Poissons Ratio (y) = 0.07597 0.31348
# Poissons Ratio (z) = -0.01860 0.59902
#
# Static dielectric constant tensor:
#      x y z
#    x 1.780620 0.000000 0.000000 
#    y 0.000000 1.778250 0.000000 
#    z 0.000000 0.000000 1.749690 
# 
# From -- ./inp_files/34224.got.cif
#   From: 2010.05.17/outbox.cif.g08.bks.cpg/sg53_18_cif.got.tgz:34224.got - 2010.06.03 12:45:16.
