data_PCOD9414914
_publ_section_title
;
Structure prediction by ZEFSAII (Michael W. Deem and Ramdas Pophale) SiO2 
 PCOD9414914
Probable space group: P M N A
;
_chemical_formula_sum "Si O2"
_cell_formula_units_Z 56
_cell_length_a 15.140155
_cell_length_b 7.747169
_cell_length_c 22.905947
_cell_angle_alpha 90.000000
_cell_angle_beta 90.000000
_cell_angle_gamma 90.000000
_cell_volume 2686.715017
_symmetry_space_group_name_H-M "P M N A"
_symmetry_group_IT_number 53
_symmetry_cell_setting 'orthorhombic'
loop_
_space_group_symop_operation_xyz
x,y,z
1/2-x,-y,1/2+z
x,-y,-z
1/2-x,y,1/2-z
-x,-y,-z
1/2+x,y,1/2-z
-x,y,z
1/2+x,-y,1/2+z
loop_
_atom_site_type_symbol
_atom_site_label
_atom_site_fract_x
_atom_site_fract_y
_atom_site_fract_z
Si Si1 0.714184 0.212990 0.891472
Si Si2 0.902595 0.725622 0.718037
Si Si3 0.097631 0.195455 0.146300
Si Si4 0.398162 0.787904 0.998294
Si Si5 0.349145 0.343904 0.770222
Si Si6 0.596563 0.214842 0.646289
Si Si7 0.782410 0.196444 0.389841
O O1 0.663273 0.243023 0.830548
O O2 0.814085 0.284643 0.883952
O O3 0.724576 0.008241 0.900142
O O4 0.656168 0.276079 0.945496
O O5 0.886565 0.782323 0.784469
O O6 0.900983 0.518837 0.718932
O O7 0.828969 0.781539 0.672515
O O8 0.000000 0.789809 0.700219
O O9 0.182969 0.268543 0.113318
O O10 0.000000 0.267494 0.132984
O O11 0.094509 0.990272 0.135239
O O12 0.500000 0.732188 0.998256
O O13 0.345510 0.733265 0.940319
O O14 0.399484 0.000000 0.000000
O O15 0.250000 0.392802 0.750000
O O16 0.390266 0.242195 0.715850
O O17 0.500000 0.286125 0.629601
#
# Coordination Sequence:
#
# PCOD9414914 Si02
#       7
#     8   8   8   8   8   8   8
#     4   9  19  33  51  72  95 128 165 199 237 283
#     4  11  21  31  47  73 101 129 160 196 242 288
#     4   9  18  31  49  73  99 127 158 195 241 289
#     4   9  18  32  50  71  94 124 163 202 238 279
#     4  10  19  31  48  72 101 130 159 194 239 287
#     4   9  17  31  50  73 100 127 157 195 240 289
#     4  10  18  33  52  70  96 128 164 201 236 282
#
# _framework density 20.843298999999998
#
# number of rings (size 3 to 8) (size 9 to 14) (size 15 to 20)
#    0.000    2.429    0.000    3.000    0.000    4.000 
#    0.000    1.429    0.000    6.000    0.000    0.000 
#    0.000    9.143    0.000    0.000    0.000    0.000 
#
# Total GULP energy -312412.094337 kJ/mol
# GULP energy per Si atom -5578.787399 kJ/mol
# Density = 2.079586 g / cm^3
# Si number density = 20.843299 Si / 1000 Ang^3
#
#
#
# Elastic Constant Matrix: (Units=GPa)
#
#
# Indices 1 2 3 4 5 6 
#
# 1 193.2773 11.6556 80.3464 0.0000 0.0000 0.0000
# 2 11.6556 26.1061 -2.7638 0.0000 0.0000 0.0000
# 3 80.3464 -2.7638 65.9024 0.0000 0.0000 0.0000
# 4 0.0000 0.0000 0.0000 -39.5904 0.0000 0.0000
# 5 0.0000 0.0000 0.0000 0.0000 33.5874 0.0000
# 6 0.0000 0.0000 0.0000 0.0000 0.0000 11.7296
#
#
#
# Elastic Compliance Matrix: (Units=1/GPa)
#
#
# Indices 1 2 3 4 5 6 
#
# 1 0.011543 -0.006673 -0.014352 0.000000 0.000000 0.000000
# 2 -0.006673 0.042334 0.009911 0.000000 0.000000 0.000000
# 3 -0.014352 0.009911 0.033088 0.000000 0.000000 0.000000
# 4 0.000000 0.000000 0.000000 -0.025259 0.000000 0.000000
# 5 0.000000 0.000000 0.000000 0.000000 0.029773 0.000000
# 6 0.000000 0.000000 0.000000 0.000000 0.000000 0.085254
#
#
# Mechanical properties :
#
#
# Convention : Reuss Voigt Hill
#
# Bulk Modulus (GPa) = 15.44754 51.52914 33.48834
# Shear Modulus (GPa) = 22.67164 14.21519 18.44341
#
# Velocity S-wave (km/s) = 3.30164 2.61435 2.97789
# Velocity P-wave (km/s) = 4.68634 5.82142 5.28444
#
# Compressibility (1/GPa) = 0.06473524
#
# Stress axis : x y z
#
# Youngs Moduli (GPa) = 86.63492 23.62179 30.22277
#
# Poissons Ratio (x) = 0.15763 0.43377
# Poissons Ratio (y) = 0.57811 -0.29954
# Poissons Ratio (z) = 1.24342 -0.23411
#
# Static dielectric constant tensor:
#      x y z
#    x 1.778790 0.000000 0.000000 
#    y 0.000000 1.745120 0.000000 
#    z 0.000000 0.000000 1.710900 
# 
# From -- ./inp_files/32415.got.cif
#   From: 2010.05.17/outbox.cif.g08.bks.cpg/sg53_17_cif.got.tgz:32415.got - 2010.06.03 12:45:16.
