data_PCOD9414461
_publ_section_title
;
Structure prediction by ZEFSAII (Michael W. Deem and Ramdas Pophale) SiO2 
 PCOD9414461
Probable space group: P M N A
;
_chemical_formula_sum "Si O2"
_cell_formula_units_Z 60
_cell_length_a 22.882705
_cell_length_b 29.537320
_cell_length_c 5.310957
_cell_angle_alpha 90.000000
_cell_angle_beta 90.000000
_cell_angle_gamma 90.000000
_cell_volume 3589.642802
_symmetry_space_group_name_H-M "P M N A"
_symmetry_group_IT_number 53
_symmetry_cell_setting 'orthorhombic'
loop_
_space_group_symop_operation_xyz
x,y,z
1/2-x,-y,1/2+z
x,-y,-z
1/2-x,y,1/2-z
-x,-y,-z
1/2+x,y,1/2-z
-x,y,z
1/2+x,-y,1/2+z
loop_
_atom_site_type_symbol
_atom_site_label
_atom_site_fract_x
_atom_site_fract_y
_atom_site_fract_z
Si Si1 0.432675 0.201164 0.776892
Si Si2 0.321595 0.368507 0.747835
Si Si3 0.178823 0.526504 0.249860
Si Si4 0.681171 0.116702 0.258777
Si Si5 0.363491 0.781261 0.722307
Si Si6 0.108797 0.901533 0.258528
Si Si7 0.680863 0.681476 0.752776
Si Si8 0.500000 0.030329 0.750196
O O1 0.500000 0.212707 0.744256
O O2 0.394424 0.220381 0.548577
O O3 0.423642 0.147017 0.760805
O O4 0.409318 0.215943 0.048754
O O5 0.250000 0.367670 0.750000
O O6 0.338986 0.421052 0.748214
O O7 0.342234 0.342225 0.499520
O O8 0.342371 0.342465 0.996452
O O9 0.160019 0.500000 0.500000
O O10 0.250000 0.526351 0.250000
O O11 0.159976 0.500000 0.000000
O O12 0.750000 0.106646 0.250000
O O13 0.672342 0.171549 0.262940
O O14 0.649710 0.098105 0.510503
O O15 0.648063 0.097933 0.011373
O O16 0.328370 0.735114 0.755549
O O17 0.058491 0.939077 0.252114
O O18 0.750000 0.673087 0.750000
O O19 0.500000 0.000000 0.500000
O O20 0.500000 0.000000 0.000000
#
# Coordination Sequence:
#
# PCOD9414461 Si02
#       8
#     8   8   8   8   8   8   8   4
#     4  10  19  34  52  73 101 126 161 205 247 288
#     4   9  17  26  38  54  78 119 155 196 245 275
#     4   9  15  23  35  51  71  99 149 204 240 278
#     4  10  20  35  57  82 110 142 177 212 254 304
#     4  10  20  30  49  74  97 133 167 201 242 284
#     4  10  21  37  58  83 110 139 171 216 263 300
#     4  10  18  29  41  59  92 123 161 197 225 280
#     4  12  24  40  64  88 112 136 176 224 268 316
#
# _framework density 16.714753000000002
#
# number of rings (size 3 to 8) (size 9 to 14) (size 15 to 20)
#    0.000    2.133    0.667    3.600    0.000    3.200 
#    0.000    4.000    0.000    8.000    0.000    0.000 
#    0.000    0.000    0.000    0.000    0.000  168.000 
#
# Total GULP energy -334594.677695 kJ/mol
# GULP energy per Si atom -5576.577962 kJ/mol
# Density = 1.667671 g / cm^3
# Si number density = 16.714753 Si / 1000 Ang^3
#
#
#
# Elastic Constant Matrix: (Units=GPa)
#
#
# Indices 1 2 3 4 5 6 
#
# 1 58.9710 26.8697 32.1573 0.0000 0.0000 0.0000
# 2 26.8697 95.7079 71.0577 0.0000 0.0000 0.0000
# 3 32.1573 71.0577 140.7781 0.0000 0.0000 0.0000
# 4 0.0000 0.0000 0.0000 18.1420 0.0000 0.0000
# 5 0.0000 0.0000 0.0000 0.0000 10.2120 0.0000
# 6 0.0000 0.0000 0.0000 0.0000 0.0000 49.7357
#
#
#
# Elastic Compliance Matrix: (Units=1/GPa)
#
#
# Indices 1 2 3 4 5 6 
#
# 1 0.020107 -0.003575 -0.002789 0.000000 0.000000 0.000000
# 2 -0.003575 0.017346 -0.007939 0.000000 0.000000 0.000000
# 3 -0.002789 -0.007939 0.011748 0.000000 0.000000 0.000000
# 4 0.000000 0.000000 0.000000 0.055121 0.000000 0.000000
# 5 0.000000 0.000000 0.000000 0.000000 0.097924 0.000000
# 6 0.000000 0.000000 0.000000 0.000000 0.000000 0.020106
#
#
# Mechanical properties :
#
#
# Convention : Reuss Voigt Hill
#
# Bulk Modulus (GPa) = 48.55235 61.73626 55.14431
# Shear Modulus (GPa) = 19.39323 26.64276 23.01799
#
# Velocity S-wave (km/s) = 3.40993 3.99678 3.71496
# Velocity P-wave (km/s) = 6.67939 7.63639 7.17386
#
# Compressibility (1/GPa) = 0.02059633
#
# Stress axis : x y z
#
# Youngs Moduli (GPa) = 49.73421 57.64941 85.12390
#
# Poissons Ratio (x) = 0.20607 0.23738
# Poissons Ratio (y) = 0.17778 0.67580
# Poissons Ratio (z) = 0.13869 0.45768
#
# Static dielectric constant tensor:
#      x y z
#    x 1.530080 0.000000 0.000000 
#    y 0.000000 1.548480 0.000000 
#    z 0.000000 0.000000 1.655130 
# 
# From -- ./inp_files/3078.got.cif
#   From: 2010.05.17/outbox.cif.g08.bks.cpg/sg53_2_cif.got.tgz:3078.got - 2010.06.03 12:45:16.
