data_PCOD9414934
_publ_section_title
;
Structure prediction by ZEFSAII (Michael W. Deem and Ramdas Pophale) SiO2 
 PCOD9414934
Probable space group: P M N A
;
_chemical_formula_sum "Si O2"
_cell_formula_units_Z 56
_cell_length_a 8.552093
_cell_length_b 20.531572
_cell_length_c 16.348460
_cell_angle_alpha 90.000000
_cell_angle_beta 90.000000
_cell_angle_gamma 90.000000
_cell_volume 2870.591975
_symmetry_space_group_name_H-M "P M N A"
_symmetry_group_IT_number 53
_symmetry_cell_setting 'orthorhombic'
loop_
_space_group_symop_operation_xyz
x,y,z
1/2-x,-y,1/2+z
x,-y,-z
1/2-x,y,1/2-z
-x,-y,-z
1/2+x,y,1/2-z
-x,y,z
1/2+x,-y,1/2+z
loop_
_atom_site_type_symbol
_atom_site_label
_atom_site_fract_x
_atom_site_fract_y
_atom_site_fract_z
Si Si1 0.682434 0.077010 0.513066
Si Si2 0.819468 0.748890 0.125167
Si Si3 0.820595 0.119268 0.674953
Si Si4 0.186090 0.790591 0.938256
Si Si5 0.688497 0.665280 0.658218
Si Si6 0.179801 0.619854 0.334704
Si Si7 0.313418 0.422603 0.009914
O O1 0.500000 0.094490 0.533717
O O2 0.796533 0.085677 0.588913
O O3 0.731495 0.132664 0.446376
O O4 0.681841 0.000000 0.500000
O O5 0.788882 0.817622 0.166716
O O6 0.702140 0.697306 0.163620
O O7 0.000000 0.728080 0.134873
O O8 0.785924 0.760503 0.028839
O O9 0.750000 0.079047 0.750000
O O10 0.000000 0.135917 0.687108
O O11 0.247383 0.736867 0.873899
O O12 0.000000 0.791399 0.924810
O O13 0.750000 0.652076 0.750000
O O14 0.500000 0.665417 0.660374
O O15 0.739886 0.612376 0.589163
O O16 0.250000 0.594084 0.250000
O O17 0.252615 0.602269 0.422695
O O18 0.000000 0.600043 0.336628
O O19 0.500000 0.408423 0.013994
O O20 0.294695 0.500000 0.000000
#
# Coordination Sequence:
#
# PCOD9414934 Si02
#       7
#     8   8   8   8   8   8   8
#     4   9  18  35  58  82 112 153 194 238 297 356
#     4  10  18  33  55  80 111 144 183 227 281 342
#     4  11  21  33  50  76 109 144 185 229 280 338
#     4   8  16  32  56  83 112 149 192 239 290 348
#     4  11  22  39  63  91 121 159 208 259 310 365
#     4  11  22  35  55  83 116 150 186 230 288 350
#     4  10  23  43  63  86 119 156 199 251 304 362
#
# _framework density 19.508171000000001
#
# number of rings (size 3 to 8) (size 9 to 14) (size 15 to 20)
#    0.000    2.000    1.429    3.857    0.000    1.714 
#    0.000    2.857    0.000    1.714    0.000    0.000 
#    0.000    0.000    0.000    0.000    0.000    0.000 
#
# Total GULP energy -311765.830906 kJ/mol
# GULP energy per Si atom -5567.246980 kJ/mol
# Density = 1.946377 g / cm^3
# Si number density = 19.508171 Si / 1000 Ang^3
#
#
#
# Elastic Constant Matrix: (Units=GPa)
#
#
# Indices 1 2 3 4 5 6 
#
# 1 53.0194 12.7414 39.7348 0.0000 0.0000 0.0000
# 2 12.7414 71.5211 47.9606 0.0000 0.0000 0.0000
# 3 39.7348 47.9606 138.7089 0.0000 0.0000 0.0000
# 4 0.0000 0.0000 0.0000 2.8097 0.0000 0.0000
# 5 0.0000 0.0000 0.0000 0.0000 27.9988 0.0000
# 6 0.0000 0.0000 0.0000 0.0000 0.0000 15.4695
#
#
#
# Elastic Compliance Matrix: (Units=1/GPa)
#
#
# Indices 1 2 3 4 5 6 
#
# 1 0.024028 0.000436 -0.007034 0.000000 0.000000 0.000000
# 2 0.000436 0.018210 -0.006421 0.000000 0.000000 0.000000
# 3 -0.007034 -0.006421 0.011445 0.000000 0.000000 0.000000
# 4 0.000000 0.000000 0.000000 0.355913 0.000000 0.000000
# 5 0.000000 0.000000 0.000000 0.000000 0.035716 0.000000
# 6 0.000000 0.000000 0.000000 0.000000 0.000000 0.064643
#
#
# Mechanical properties :
#
#
# Convention : Reuss Voigt Hill
#
# Bulk Modulus (GPa) = 36.17368 51.56923 43.87145
# Shear Modulus (GPa) = 9.17083 20.10978 14.64031
#
# Velocity S-wave (km/s) = 2.17054 3.21415 2.74244
# Velocity P-wave (km/s) = 4.98645 6.34558 5.70663
#
# Compressibility (1/GPa) = 0.02764441
#
# Stress axis : x y z
#
# Youngs Moduli (GPa) = 41.61877 54.91413 87.37773
#
# Poissons Ratio (x) = -0.02396 0.61460
# Poissons Ratio (y) = -0.01816 0.56109
# Poissons Ratio (z) = 0.29274 0.35263
#
# Static dielectric constant tensor:
#      x y z
#    x 1.680310 0.000000 0.000000 
#    y 0.000000 1.737650 0.000000 
#    z 0.000000 0.000000 1.814540 
# 
# From -- ./inp_files/20552.got.cif
#   From: 2010.05.17/outbox.cif.g08.bks.cpg/sg53_11_cif.got.tgz:20552.got - 2010.06.03 12:45:16.
