data_PCOD9414179
_publ_section_title
;
Structure prediction by ZEFSAII (Michael W. Deem and Ramdas Pophale) SiO2 
 PCOD9414179
Probable space group: P M N A
;
_chemical_formula_sum "Si O2"
_cell_formula_units_Z 56
_cell_length_a 8.496710
_cell_length_b 20.993518
_cell_length_c 14.436584
_cell_angle_alpha 90.000000
_cell_angle_beta 90.000000
_cell_angle_gamma 90.000000
_cell_volume 2575.137716
_symmetry_space_group_name_H-M "P M N A"
_symmetry_group_IT_number 53
_symmetry_cell_setting 'orthorhombic'
loop_
_space_group_symop_operation_xyz
x,y,z
1/2-x,-y,1/2+z
x,-y,-z
1/2-x,y,1/2-z
-x,-y,-z
1/2+x,y,1/2-z
-x,y,z
1/2+x,-y,1/2+z
loop_
_atom_site_type_symbol
_atom_site_label
_atom_site_fract_x
_atom_site_fract_y
_atom_site_fract_z
Si Si1 0.810916 0.387000 0.654164
Si Si2 0.314084 0.053908 0.620271
Si Si3 0.816836 0.187890 0.654576
Si Si4 0.690025 0.075741 0.085994
Si Si5 0.685241 0.651934 0.545683
Si Si6 0.189459 0.215422 0.445894
Si Si7 0.177937 0.522951 0.606800
O O1 0.750000 0.358117 0.750000
O O2 0.760127 0.355217 0.557508
O O3 0.747833 0.460155 0.651576
O O4 0.000000 0.388779 0.654397
O O5 0.500000 0.060292 0.639032
O O6 0.212655 0.112043 0.659291
O O7 0.278952 0.064074 0.511073
O O8 0.250544 0.983797 0.645401
O O9 0.750000 0.214951 0.750000
O O10 0.752701 0.207985 0.553475
O O11 0.000000 0.202238 0.652919
O O12 0.500000 0.070504 0.073724
O O13 0.726469 0.149622 0.108053
O O14 0.500000 0.652197 0.534506
O O15 0.742060 0.718355 0.588939
O O16 0.735075 0.589998 0.604573
O O17 0.000000 0.219880 0.448345
O O18 0.166829 0.500000 0.500000
O O19 0.000000 0.532548 0.641756
#
# Coordination Sequence:
#
# PCOD9414179 Si02
#       7
#     8   8   8   8   8   8   8
#     4  10  20  34  52  73  98 127 160 199 240 284
#     4  10  17  26  43  65  88 114 145 186 230 271
#     4  10  20  33  47  64  89 123 159 194 232 277
#     4   9  16  28  45  64  86 113 147 188 228 266
#     4  11  21  31  48  72  99 130 163 199 237 285
#     4   9  19  33  47  64  92 127 159 192 231 276
#     4   8  16  32  51  69  93 125 158 195 239 283
#
# _framework density 21.746410000000001
#
# number of rings (size 3 to 8) (size 9 to 14) (size 15 to 20)
#    0.000    2.429    0.000    6.429    0.000    7.143 
#    0.000    1.429    0.000    0.000    0.000    1.000 
#    0.000    4.571    0.000    0.000    0.000    0.000 
#
# Total GULP energy -312195.877543 kJ/mol
# GULP energy per Si atom -5574.926385 kJ/mol
# Density = 2.169691 g / cm^3
# Si number density = 21.746410 Si / 1000 Ang^3
#
#
#
# Elastic Constant Matrix: (Units=GPa)
#
#
# Indices 1 2 3 4 5 6 
#
# 1 49.2774 11.9098 -15.1369 0.0000 0.0000 0.0000
# 2 11.9098 164.8939 -6.0031 0.0000 0.0000 0.0000
# 3 -15.1369 -6.0031 20.2282 0.0000 0.0000 0.0000
# 4 0.0000 0.0000 0.0000 -10.6997 0.0000 0.0000
# 5 0.0000 0.0000 0.0000 0.0000 11.5303 0.0000
# 6 0.0000 0.0000 0.0000 0.0000 0.0000 28.6989
#
#
#
# Elastic Compliance Matrix: (Units=1/GPa)
#
#
# Indices 1 2 3 4 5 6 
#
# 1 0.026587 -0.001209 0.019536 0.000000 0.000000 0.000000
# 2 -0.001209 0.006186 0.000931 0.000000 0.000000 0.000000
# 3 0.019536 0.000931 0.064331 0.000000 0.000000 0.000000
# 4 0.000000 0.000000 0.000000 -0.093460 0.000000 0.000000
# 5 0.000000 0.000000 0.000000 0.000000 0.086728 0.000000
# 6 0.000000 0.000000 0.000000 0.000000 0.000000 0.034845
#
#
# Mechanical properties :
#
#
# Convention : Reuss Voigt Hill
#
# Bulk Modulus (GPa) = 7.37358 23.99323 15.68340
# Shear Modulus (GPa) = 37.90570 22.14788 30.02679
#
# Velocity S-wave (km/s) = 4.17955 3.19480 3.71990
# Velocity P-wave (km/s) = 5.16620 4.96650 5.06733
#
# Compressibility (1/GPa) = 0.13561937
#
# Stress axis : x y z
#
# Youngs Moduli (GPa) = 37.61306 161.66257 15.54458
#
# Poissons Ratio (x) = 0.19546 -0.30368
# Poissons Ratio (y) = 0.04548 -0.01447
# Poissons Ratio (z) = -0.73481 -0.15051
#
# Static dielectric constant tensor:
#      x y z
#    x 1.734730 0.000000 0.000000 
#    y 0.000000 1.856630 0.000000 
#    z 0.000000 0.000000 1.847490 
# 
# From -- ./inp_files/26640.got.cif
#   From: 2010.05.17/outbox.cif.g08.bks.cpg/sg53_14_cif.got.tgz:26640.got - 2010.06.03 12:45:16.
