data_PCOD9414967
_publ_section_title
;
Structure prediction by ZEFSAII (Michael W. Deem and Ramdas Pophale) SiO2 
 PCOD9414967
Probable space group: P M N A
;
_chemical_formula_sum "Si O2"
_cell_formula_units_Z 64
_cell_length_a 7.836580
_cell_length_b 15.839651
_cell_length_c 24.352488
_cell_angle_alpha 90.000000
_cell_angle_beta 90.000000
_cell_angle_gamma 90.000000
_cell_volume 3022.842488
_symmetry_space_group_name_H-M "P M N A"
_symmetry_group_IT_number 53
_symmetry_cell_setting 'orthorhombic'
loop_
_space_group_symop_operation_xyz
x,y,z
1/2-x,-y,1/2+z
x,-y,-z
1/2-x,y,1/2-z
-x,-y,-z
1/2+x,y,1/2-z
-x,y,z
1/2+x,-y,1/2+z
loop_
_atom_site_type_symbol
_atom_site_label
_atom_site_fract_x
_atom_site_fract_y
_atom_site_fract_z
Si Si1 0.707420 0.171352 0.995975
Si Si2 0.696864 0.417900 0.130060
Si Si3 0.791894 0.905756 0.611600
Si Si4 0.205865 0.750882 0.686672
Si Si5 0.200624 0.400343 0.891427
Si Si6 0.202709 0.746208 0.187206
Si Si7 0.199141 0.364795 0.010726
Si Si8 0.295398 0.906158 0.119752
O O1 0.500000 0.179444 0.994956
O O2 0.783229 0.264158 0.004044
O O3 0.765245 0.131103 0.938652
O O4 0.752100 0.114676 0.048559
O O5 0.500000 0.428043 0.145760
O O6 0.771080 0.338848 0.163694
O O7 0.780998 0.508967 0.136463
O O8 0.709114 0.392666 0.066047
O O9 0.731402 0.829311 0.650055
O O10 0.000000 0.905546 0.614449
O O11 0.731299 0.998734 0.628466
O O12 0.250000 0.761977 0.750000
O O13 0.000000 0.748838 0.680651
O O14 0.274519 0.325002 0.854372
O O15 0.270108 0.402332 0.953658
O O16 0.000000 0.382466 0.898982
O O17 0.250000 0.730754 0.250000
O O18 0.255130 0.838563 0.166452
O O19 0.000000 0.741517 0.183703
O O20 0.000000 0.388924 0.017564
O O21 0.500000 0.911673 0.115486
#
# Coordination Sequence:
#
# PCOD9414967 Si02
#       8
#     8   8   8   8   8   8   8   8
#     4  10  18  33  59  89 121 154 192 236 288 349
#     4  11  23  39  61  89 117 150 193 243 289 344
#     4   9  18  36  59  87 122 154 191 238 288 344
#     4  10  22  40  59  81 114 151 193 241 287 337
#     4  10  23  41  60  85 119 155 187 234 296 350
#     4  11  24  43  62  83 117 156 199 248 294 344
#     4  11  21  36  59  87 121 157 189 230 292 351
#     4  10  20  35  62  92 118 155 194 236 293 351
#
# _framework density 21.172125000000001
#
# number of rings (size 3 to 8) (size 9 to 14) (size 15 to 20)
#    0.000    1.750    2.500    1.875    0.000    7.000 
#    0.000    5.000    0.000    1.500    0.000    0.000 
#    0.000    0.000    0.000    0.000    0.000    0.000 
#
# Total GULP energy -357634.315064 kJ/mol
# GULP energy per Si atom -5588.036173 kJ/mol
# Density = 2.112394 g / cm^3
# Si number density = 21.172125 Si / 1000 Ang^3
#
#
#
# Elastic Constant Matrix: (Units=GPa)
#
#
# Indices 1 2 3 4 5 6 
#
# 1 22.2347 -7.5810 -8.5642 0.0000 0.0000 0.0000
# 2 -7.5810 88.2427 3.8986 0.0000 0.0000 0.0000
# 3 -8.5642 3.8986 71.1378 0.0000 0.0000 0.0000
# 4 0.0000 0.0000 0.0000 12.4274 0.0000 0.0000
# 5 0.0000 0.0000 0.0000 0.0000 17.1227 0.0000
# 6 0.0000 0.0000 0.0000 0.0000 0.0000 19.9548
#
#
#
# Elastic Compliance Matrix: (Units=1/GPa)
#
#
# Indices 1 2 3 4 5 6 
#
# 1 0.048475 0.003916 0.005621 0.000000 0.000000 0.000000
# 2 0.003916 0.011676 -0.000168 0.000000 0.000000 0.000000
# 3 0.005621 -0.000168 0.014743 0.000000 0.000000 0.000000
# 4 0.000000 0.000000 0.000000 0.080468 0.000000 0.000000
# 5 0.000000 0.000000 0.000000 0.000000 0.058402 0.000000
# 6 0.000000 0.000000 0.000000 0.000000 0.000000 0.050113
#
#
# Mechanical properties :
#
#
# Convention : Reuss Voigt Hill
#
# Bulk Modulus (GPa) = 10.68005 17.45801 14.06903
# Shear Modulus (GPa) = 18.09297 22.82508 20.45903
#
# Velocity S-wave (km/s) = 2.92647 3.28696 3.11194
# Velocity P-wave (km/s) = 4.05885 4.76121 4.42399
#
# Compressibility (1/GPa) = 0.09363248
#
# Stress axis : x y z
#
# Youngs Moduli (GPa) = 20.62914 85.64382 67.82797
#
# Poissons Ratio (x) = -0.33540 -0.38128
# Poissons Ratio (y) = -0.08079 0.01142
# Poissons Ratio (z) = -0.11596 0.01443
#
# Static dielectric constant tensor:
#      x y z
#    x 1.767520 0.000000 0.000000 
#    y 0.000000 1.764630 0.000000 
#    z 0.000000 0.000000 1.732100 
# 
# From -- ./inp_files/34237.got.cif
#   From: 2010.05.17/outbox.cif.g08.bks.cpg/sg53_18_cif.got.tgz:34237.got - 2010.06.03 12:45:16.
