data_PCOD9414769
_publ_section_title
;
Structure prediction by ZEFSAII (Michael W. Deem and Ramdas Pophale) SiO2 
 PCOD9414769
Probable space group: P M N A
;
_chemical_formula_sum "Si O2"
_cell_formula_units_Z 36
_cell_length_a 7.650742
_cell_length_b 15.193922
_cell_length_c 19.179020
_cell_angle_alpha 90.000000
_cell_angle_beta 90.000000
_cell_angle_gamma 90.000000
_cell_volume 2229.460907
_symmetry_space_group_name_H-M "P M N A"
_symmetry_group_IT_number 53
_symmetry_cell_setting 'orthorhombic'
loop_
_space_group_symop_operation_xyz
x,y,z
1/2-x,-y,1/2+z
x,-y,-z
1/2-x,y,1/2-z
-x,-y,-z
1/2+x,y,1/2-z
-x,y,z
1/2+x,-y,1/2+z
loop_
_atom_site_type_symbol
_atom_site_label
_atom_site_fract_x
_atom_site_fract_y
_atom_site_fract_z
Si Si1 0.796047 0.001246 0.172484
Si Si2 0.797353 0.803846 0.871875
Si Si3 0.500000 0.225439 0.018771
Si Si4 0.000000 0.426310 0.440679
Si Si5 0.205128 0.392946 0.171546
Si Si6 0.000000 0.062193 0.569085
O O1 0.750000 0.969760 0.250000
O O2 0.765222 0.106769 0.169784
O O3 0.000000 0.985509 0.157720
O O4 0.669185 0.960514 0.115133
O O5 0.764394 0.712955 0.831306
O O6 0.000000 0.803466 0.893209
O O7 0.669539 0.802909 0.937231
O O8 0.500000 0.164952 0.951085
O O9 0.500000 0.331263 0.020320
O O10 0.000000 0.500000 0.500000
O O11 0.832603 0.429942 0.388490
O O12 0.250000 0.423234 0.250000
O O13 0.000000 0.409022 0.157451
O O14 0.000000 0.000000 0.500000
#
# Coordination Sequence:
#
# PCOD9414769 Si02
#       6
#     8   8   4   4   8   4
#     4  11  21  33  51  77 110 149 189 230 265 312
#     4   9  18  29  48  79 113 140 173 211 271 325
#     4  10  20  36  54  76 110 143 174 223 272 323
#     4  10  22  38  58  82 113 142 177 223 289 326
#     4  10  18  31  53  84 113 143 173 217 269 339
#     4  12  22  36  54  78 111 147 186 217 270 319
#
# _framework density 16.147400999999999
#
# number of rings (size 3 to 8) (size 9 to 14) (size 15 to 20)
#    0.000    1.778    4.444    0.667    0.000    1.778 
#    0.000    0.000    0.000    1.333    0.000    0.000 
#    0.000    0.000    0.000    0.000    0.000    0.000 
#
# Total GULP energy -200708.867942 kJ/mol
# GULP energy per Si atom -5575.246332 kJ/mol
# Density = 1.611065 g / cm^3
# Si number density = 16.147401 Si / 1000 Ang^3
#
#
#
# Elastic Constant Matrix: (Units=GPa)
#
#
# Indices 1 2 3 4 5 6 
#
# 1 76.3266 46.7235 75.9688 0.0000 0.0000 0.0000
# 2 46.7235 60.5495 58.0355 0.0000 0.0000 0.0000
# 3 75.9688 58.0355 127.3485 0.0000 0.0000 0.0000
# 4 0.0000 0.0000 0.0000 23.6188 0.0000 0.0000
# 5 0.0000 0.0000 0.0000 0.0000 26.7642 0.0000
# 6 0.0000 0.0000 0.0000 0.0000 0.0000 13.3554
#
#
#
# Elastic Compliance Matrix: (Units=1/GPa)
#
#
# Indices 1 2 3 4 5 6 
#
# 1 0.037436 -0.013286 -0.016277 0.000000 0.000000 0.000000
# 2 -0.013286 0.034040 -0.007587 0.000000 0.000000 0.000000
# 3 -0.016277 -0.007587 0.021020 0.000000 0.000000 0.000000
# 4 0.000000 0.000000 0.000000 0.042339 0.000000 0.000000
# 5 0.000000 0.000000 0.000000 0.000000 0.037363 0.000000
# 6 0.000000 0.000000 0.000000 0.000000 0.000000 0.074876
#
#
# Mechanical properties :
#
#
# Convention : Reuss Voigt Hill
#
# Bulk Modulus (GPa) = 54.96048 69.52004 62.24026
# Shear Modulus (GPa) = 15.27002 18.31413 16.79208
#
# Velocity S-wave (km/s) = 3.07850 3.37142 3.22828
# Velocity P-wave (km/s) = 6.83717 7.63558 7.24738
#
# Compressibility (1/GPa) = 0.01819489
#
# Stress axis : x y z
#
# Youngs Moduli (GPa) = 26.71258 29.37752 47.57389
#
# Poissons Ratio (x) = 0.39032 0.77436
# Poissons Ratio (y) = 0.35491 0.36094
# Poissons Ratio (z) = 0.43480 0.22288
#
# Static dielectric constant tensor:
#      x y z
#    x 1.548200 0.000000 0.000000 
#    y 0.000000 1.536990 0.000000 
#    z 0.000000 0.000000 1.532830 
# 
# From -- ./inp_files/19800.got.cif
#   From: 2010.05.17/outbox.cif.g08.bks.cpg/sg53_10_cif.got.tgz:19800.got - 2010.06.03 12:45:16.
