data_PCOD9414848
_publ_section_title
;
Structure prediction by ZEFSAII (Michael W. Deem and Ramdas Pophale) SiO2 
 PCOD9414848
Probable space group: P M N A
;
_chemical_formula_sum "Si O2"
_cell_formula_units_Z 48
_cell_length_a 9.745340
_cell_length_b 30.075405
_cell_length_c 9.167730
_cell_angle_alpha 90.000000
_cell_angle_beta 90.000000
_cell_angle_gamma 90.000000
_cell_volume 2687.016259
_symmetry_space_group_name_H-M "P M N A"
_symmetry_group_IT_number 53
_symmetry_cell_setting 'orthorhombic'
loop_
_space_group_symop_operation_xyz
x,y,z
1/2-x,-y,1/2+z
x,-y,-z
1/2-x,y,1/2-z
-x,-y,-z
1/2+x,y,1/2-z
-x,y,z
1/2+x,-y,1/2+z
loop_
_atom_site_type_symbol
_atom_site_label
_atom_site_fract_x
_atom_site_fract_y
_atom_site_fract_z
Si Si1 0.252948 0.890627 0.926856
Si Si2 0.338785 0.795478 0.896168
Si Si3 0.163866 0.709394 0.397785
Si Si4 0.000000 0.951145 0.930550
Si Si5 0.339882 0.539608 0.606743
Si Si6 0.334484 0.358384 0.402868
Si Si7 0.500000 0.953169 0.921762
O O1 0.250000 0.887417 0.750000
O O2 0.277296 0.839863 0.971511
O O3 0.124181 0.919206 0.973300
O O4 0.374417 0.922961 0.967474
O O5 0.250000 0.786663 0.750000
O O6 0.500000 0.804255 0.858739
O O7 0.332925 0.753542 0.002415
O O8 0.250000 0.716833 0.250000
O O9 0.250191 0.672090 0.485350
O O10 0.000000 0.698580 0.374831
O O11 0.000000 0.957808 0.754467
O O12 0.000000 0.000000 0.000000
O O13 0.298970 0.500000 0.500000
O O14 0.250000 0.537007 0.750000
O O15 0.500000 0.533339 0.643046
O O16 0.326502 0.589964 0.548267
O O17 0.250000 0.354651 0.250000
O O18 0.500000 0.347588 0.388150
O O19 0.500000 0.000000 0.000000
#
# Coordination Sequence:
#
# PCOD9414848 Si02
#       7
#     8   8   8   4   8   8   4
#     4   9  18  33  53  77 103 132 175 217 261 314
#     4  10  21  37  60  85 107 139 185 230 275 330
#     4  11  24  41  58  83 117 151 186 232 291 348
#     4  10  20  34  50  78 106 134 174 216 259 314
#     4   9  19  35  55  82 116 152 193 239 286 336
#     4  10  20  37  60  86 115 152 198 243 284 336
#     4  10  18  32  54  74 102 138 168 212 259 314
#
# _framework density 17.863679000000001
#
# number of rings (size 3 to 8) (size 9 to 14) (size 15 to 20)
#    0.000    2.167    0.833    2.000    3.500    4.333 
#    0.000    3.333    0.000    0.000    0.000    0.000 
#    0.000    0.000    0.000    0.000    0.000    0.000 
#
# Total GULP energy -267357.231294 kJ/mol
# GULP energy per Si atom -5569.942319 kJ/mol
# Density = 1.782302 g / cm^3
# Si number density = 17.863679 Si / 1000 Ang^3
#
#
#
# Elastic Constant Matrix: (Units=GPa)
#
#
# Indices 1 2 3 4 5 6 
#
# 1 161.7753 79.0867 46.9658 0.0000 0.0000 0.0000
# 2 79.0867 135.3343 53.1857 0.0000 0.0000 0.0000
# 3 46.9658 53.1857 55.4047 0.0000 0.0000 0.0000
# 4 0.0000 0.0000 0.0000 31.0434 0.0000 0.0000
# 5 0.0000 0.0000 0.0000 0.0000 26.0472 0.0000
# 6 0.0000 0.0000 0.0000 0.0000 0.0000 34.4161
#
#
#
# Elastic Compliance Matrix: (Units=1/GPa)
#
#
# Indices 1 2 3 4 5 6 
#
# 1 0.009238 -0.003727 -0.004253 0.000000 0.000000 0.000000
# 2 -0.003727 0.013369 -0.009674 0.000000 0.000000 0.000000
# 3 -0.004253 -0.009674 0.030941 0.000000 0.000000 0.000000
# 4 0.000000 0.000000 0.000000 0.032213 0.000000 0.000000
# 5 0.000000 0.000000 0.000000 0.000000 0.038392 0.000000
# 6 0.000000 0.000000 0.000000 0.000000 0.000000 0.029056
#
#
# Mechanical properties :
#
#
# Convention : Reuss Voigt Hill
#
# Bulk Modulus (GPa) = 54.82663 78.99895 66.91279
# Shear Modulus (GPa) = 25.69392 29.85308 27.77350
#
# Velocity S-wave (km/s) = 3.79665 4.09242 3.94731
# Velocity P-wave (km/s) = 7.06949 8.16393 7.63634
#
# Compressibility (1/GPa) = 0.01823931
#
# Stress axis : x y z
#
# Youngs Moduli (GPa) = 108.24507 74.79940 32.31939
#
# Poissons Ratio (x) = 0.27879 0.13746
# Poissons Ratio (y) = 0.40345 0.31266
# Poissons Ratio (z) = 0.46040 0.72362
#
# Static dielectric constant tensor:
#      x y z
#    x 7.374730 0.000000 0.000000 
#    y 0.000000 1.621260 0.000000 
#    z 0.000000 0.000000 1.605840 
# 
# From -- ./inp_files/6808.got.cif
#   From: 2010.05.17/outbox.cif.g08.bks.cpg/sg53_4_cif.got.tgz:6808.got - 2010.06.03 12:45:16.
