data_PCOD9414139
_publ_section_title
;
Structure prediction by ZEFSAII (Michael W. Deem and Ramdas Pophale) SiO2 
 PCOD9414139
Probable space group: P M N A
;
_chemical_formula_sum "Si O2"
_cell_formula_units_Z 56
_cell_length_a 8.754511
_cell_length_b 18.479976
_cell_length_c 22.250436
_cell_angle_alpha 90.000000
_cell_angle_beta 90.000000
_cell_angle_gamma 90.000000
_cell_volume 3599.745696
_symmetry_space_group_name_H-M "P M N A"
_symmetry_group_IT_number 53
_symmetry_cell_setting 'orthorhombic'
loop_
_space_group_symop_operation_xyz
x,y,z
1/2-x,-y,1/2+z
x,-y,-z
1/2-x,y,1/2-z
-x,-y,-z
1/2+x,y,1/2-z
-x,y,z
1/2+x,-y,1/2+z
loop_
_atom_site_type_symbol
_atom_site_label
_atom_site_fract_x
_atom_site_fract_y
_atom_site_fract_z
Si Si1 0.816596 0.915046 0.057259
Si Si2 0.816825 0.242415 0.964137
Si Si3 0.683490 0.394768 0.957405
Si Si4 0.684528 0.452297 0.089386
Si Si5 0.815869 0.206123 0.101901
Si Si6 0.317887 0.940150 0.923387
Si Si7 0.817183 0.342382 0.183565
O O1 0.774752 0.831672 0.070540
O O2 0.000000 0.921956 0.058092
O O3 0.742149 0.980312 0.094611
O O4 0.757824 0.926142 0.988887
O O5 0.748271 0.316911 0.940754
O O6 0.000000 0.247506 0.963516
O O7 0.770863 0.231714 0.034379
O O8 0.500000 0.391963 0.956523
O O9 0.730160 0.463544 0.917135
O O10 0.728818 0.414387 0.026113
O O11 0.500000 0.449280 0.093461
O O12 0.756898 0.409038 0.143912
O O13 0.738689 0.128735 0.114328
O O14 0.773170 0.268638 0.148479
O O15 0.000000 0.197192 0.101798
O O16 0.500000 0.940882 0.928592
O O17 0.750000 0.343554 0.250000
O O18 0.000000 0.344832 0.185871
#
# Coordination Sequence:
#
# PCOD9414139 Si02
#       7
#     8   8   8   8   8   8   8
#     4   9  16  26  37  53  84 119 145 174 214 257
#     4   9  16  26  41  62  87 116 152 184 216 267
#     4   9  17  28  45  66  91 119 148 186 229 273
#     4   9  18  32  46  65  90 118 150 185 231 278
#     4   9  18  31  43  58  84 117 149 180 224 272
#     4  10  17  24  38  59  80 108 148 184 212 250
#     4  11  22  35  50  67  88 118 155 194 233 274
#
# _framework density 15.556653000000001
#
# number of rings (size 3 to 8) (size 9 to 14) (size 15 to 20)
#    0.000    2.571    1.429    4.714    0.000    4.571 
#    0.000    1.429    0.000    0.000    0.000    0.000 
#    0.000    1.143    0.000    6.286    0.000    5.286 
#
# Total GULP energy -311887.042211 kJ/mol
# GULP energy per Si atom -5569.411468 kJ/mol
# Density = 1.552125 g / cm^3
# Si number density = 15.556653 Si / 1000 Ang^3
#
#
#
# Elastic Constant Matrix: (Units=GPa)
#
#
# Indices 1 2 3 4 5 6 
#
# 1 31.3038 42.3779 18.9779 0.0000 0.0000 0.0000
# 2 42.3779 179.8936 45.6300 0.0000 0.0000 0.0000
# 3 18.9779 45.6300 50.2936 0.0000 0.0000 0.0000
# 4 0.0000 0.0000 0.0000 11.2842 0.0000 0.0000
# 5 0.0000 0.0000 0.0000 0.0000 6.3363 0.0000
# 6 0.0000 0.0000 0.0000 0.0000 0.0000 29.5785
#
#
#
# Elastic Compliance Matrix: (Units=1/GPa)
#
#
# Indices 1 2 3 4 5 6 
#
# 1 0.051093 -0.009282 -0.010858 0.000000 0.000000 0.000000
# 2 -0.009282 0.008907 -0.004578 0.000000 0.000000 0.000000
# 3 -0.010858 -0.004578 0.028134 0.000000 0.000000 0.000000
# 4 0.000000 0.000000 0.000000 0.088620 0.000000 0.000000
# 5 0.000000 0.000000 0.000000 0.000000 0.157821 0.000000
# 6 0.000000 0.000000 0.000000 0.000000 0.000000 0.033808
#
#
# Mechanical properties :
#
#
# Convention : Reuss Voigt Hill
#
# Bulk Modulus (GPa) = 25.84173 52.82918 39.33545
# Shear Modulus (GPa) = 11.60848 19.74014 15.67431
#
# Velocity S-wave (km/s) = 2.73464 3.56605 3.17766
# Velocity P-wave (km/s) = 5.15931 7.14063 6.22925
#
# Compressibility (1/GPa) = 0.03869710
#
# Stress axis : x y z
#
# Youngs Moduli (GPa) = 19.57198 112.27493 35.54372
#
# Poissons Ratio (x) = 1.04213 0.38595
# Poissons Ratio (y) = 0.18167 0.16273
# Poissons Ratio (z) = 0.21252 0.51403
#
# Static dielectric constant tensor:
#      x y z
#    x 1.518660 0.000000 0.000000 
#    y 0.000000 1.573910 0.000000 
#    z 0.000000 0.000000 1.479420 
# 
# From -- ./inp_files/30997.got.cif
#   From: 2010.05.17/outbox.cif.g08.bks.cpg/sg53_16_cif.got.tgz:30997.got - 2010.06.03 12:45:16.
