data_PCOD9414988
_publ_section_title
;
Structure prediction by ZEFSAII (Michael W. Deem and Ramdas Pophale) SiO2 
 PCOD9414988
Probable space group: P M N A
;
_chemical_formula_sum "Si O2"
_cell_formula_units_Z 56
_cell_length_a 14.684322
_cell_length_b 16.543534
_cell_length_c 10.446915
_cell_angle_alpha 90.000000
_cell_angle_beta 90.000000
_cell_angle_gamma 90.000000
_cell_volume 2537.875123
_symmetry_space_group_name_H-M "P M N A"
_symmetry_group_IT_number 53
_symmetry_cell_setting 'orthorhombic'
loop_
_space_group_symop_operation_xyz
x,y,z
1/2-x,-y,1/2+z
x,-y,-z
1/2-x,y,1/2-z
-x,-y,-z
1/2+x,y,1/2-z
-x,y,z
1/2+x,-y,1/2+z
loop_
_atom_site_type_symbol
_atom_site_label
_atom_site_fract_x
_atom_site_fract_y
_atom_site_fract_z
Si Si1 0.640001 0.861181 0.252928
Si Si2 0.854318 0.202701 0.242627
Si Si3 0.895054 0.970593 0.862455
Si Si4 0.638371 0.259172 0.525035
Si Si5 0.360700 0.562707 0.391716
Si Si6 0.861316 0.565763 0.397241
Si Si7 0.138964 0.252859 0.521845
O O1 0.750000 0.862204 0.250000
O O2 0.609749 0.811152 0.378037
O O3 0.610226 0.811979 0.128309
O O4 0.609431 0.952849 0.268953
O O5 0.750000 0.230881 0.250000
O O6 0.853494 0.108196 0.203797
O O7 0.892331 0.224840 0.381389
O O8 0.895051 0.245754 0.118571
O O9 0.000000 0.949107 0.887827
O O10 0.854329 0.000000 0.000000
O O11 0.611285 0.346188 0.576431
O O12 0.749587 0.254437 0.523651
O O13 0.390711 0.500000 0.500000
O O14 0.389563 0.544326 0.246997
O O15 0.249712 0.563683 0.395197
O O16 0.891674 0.500000 0.500000
O O17 0.888450 0.656548 0.437750
#
# Coordination Sequence:
#
# PCOD9414988 Si02
#       7
#     8   8   8   8   8   8   8
#     4  10  18  34  55  73 100 138 175 210 251 304
#     4  10  20  34  52  77 102 134 178 214 252 306
#     4  11  23  38  55  77 105 133 168 215 266 315
#     4   9  16  29  47  68 101 136 176 210 241 302
#     4   9  16  24  38  63  98 140 170 199 248 302
#     4   9  16  25  37  62 101 137 168 202 252 303
#     4   9  18  29  47  71  98 135 172 214 252 292
#
# _framework density 22.065704
#
# number of rings (size 3 to 8) (size 9 to 14) (size 15 to 20)
#    0.000    2.429    2.857    0.429    2.000    0.571 
#    0.000    1.429    0.000    0.000    0.000    0.000 
#    0.000    6.857    0.000    0.000    0.000    0.000 
#
# Total GULP energy -312820.680643 kJ/mol
# GULP energy per Si atom -5586.083583 kJ/mol
# Density = 2.201548 g / cm^3
# Si number density = 22.065704 Si / 1000 Ang^3
#
#
#
# Elastic Constant Matrix: (Units=GPa)
#
#
# Indices 1 2 3 4 5 6 
#
# 1 74.8320 -13.0645 2.8587 0.0000 0.0000 0.0000
# 2 -13.0645 96.2989 68.4481 0.0000 0.0000 0.0000
# 3 2.8587 68.4481 209.8599 0.0000 0.0000 0.0000
# 4 0.0000 0.0000 0.0000 47.1698 0.0000 0.0000
# 5 0.0000 0.0000 0.0000 0.0000 -12.8866 0.0000
# 6 0.0000 0.0000 0.0000 0.0000 0.0000 -94.5063
#
#
#
# Elastic Compliance Matrix: (Units=1/GPa)
#
#
# Indices 1 2 3 4 5 6 
#
# 1 0.013861 0.002623 -0.001044 0.000000 0.000000 0.000000
# 2 0.002623 0.014015 -0.004607 0.000000 0.000000 0.000000
# 3 -0.001044 -0.004607 0.006282 0.000000 0.000000 0.000000
# 4 0.000000 0.000000 0.000000 0.021200 0.000000 0.000000
# 5 0.000000 0.000000 0.000000 0.000000 -0.077600 0.000000
# 6 0.000000 0.000000 0.000000 0.000000 0.000000 -0.010581
#
#
# Mechanical properties :
#
#
# Convention : Reuss Voigt Hill
#
# Bulk Modulus (GPa) = 35.58603 55.27504 45.43053
# Shear Modulus (GPa) = -287.34768 9.47196 -138.93786
#
# Velocity S-wave (km/s) = -11.42394 2.07411 -7.94369
# Velocity P-wave (km/s) = 12.56368 5.55342 7.96887
#
# Compressibility (1/GPa) = 0.02810092
#
# Stress axis : x y z
#
# Youngs Moduli (GPa) = 72.14468 71.35445 159.18903
#
# Poissons Ratio (x) = -0.18714 0.16623
# Poissons Ratio (y) = -0.18921 0.73334
# Poissons Ratio (z) = 0.07534 0.32871
#
# Static dielectric constant tensor:
#      x y z
#    x 1.869010 0.000000 0.000000 
#    y 0.000000 1.750490 0.000000 
#    z 0.000000 0.000000 1.805280 
# 
# From -- ./inp_files/11165.got.cif
#   From: 2010.05.17/outbox.cif.g08.bks.cpg/sg53_6_cif.got.tgz:11165.got - 2010.06.03 12:45:16.
