data_PCOD9414572
_publ_section_title
;
Structure prediction by ZEFSAII (Michael W. Deem and Ramdas Pophale) SiO2 
 PCOD9414572
Probable space group: P M N A
;
_chemical_formula_sum "Si O2"
_cell_formula_units_Z 56
_cell_length_a 8.191994
_cell_length_b 13.983259
_cell_length_c 29.357380
_cell_angle_alpha 90.000000
_cell_angle_beta 90.000000
_cell_angle_gamma 90.000000
_cell_volume 3362.910597
_symmetry_space_group_name_H-M "P M N A"
_symmetry_group_IT_number 53
_symmetry_cell_setting 'orthorhombic'
loop_
_space_group_symop_operation_xyz
x,y,z
1/2-x,-y,1/2+z
x,-y,-z
1/2-x,y,1/2-z
-x,-y,-z
1/2+x,y,1/2-z
-x,y,z
1/2+x,-y,1/2+z
loop_
_atom_site_type_symbol
_atom_site_label
_atom_site_fract_x
_atom_site_fract_y
_atom_site_fract_z
Si Si1 0.688899 0.596010 0.556777
Si Si2 0.303556 0.520300 0.800164
Si Si3 0.801456 0.897624 0.517045
Si Si4 0.306484 0.214577 0.104496
Si Si5 0.801734 0.296416 0.531554
Si Si6 0.693291 0.740838 0.699497
Si Si7 0.190552 0.581256 0.389050
O O1 0.500000 0.567544 0.556945
O O2 0.715201 0.690014 0.587744
O O3 0.742595 0.628904 0.506696
O O4 0.792867 0.511064 0.578318
O O5 0.250000 0.488700 0.750000
O O6 0.500000 0.523820 0.802266
O O7 0.243136 0.629244 0.806386
O O8 0.239415 0.452637 0.840659
O O9 0.758886 0.868511 0.568933
O O10 0.749497 0.808557 0.485277
O O11 0.000000 0.900228 0.515153
O O12 0.740622 0.000000 0.500000
O O13 0.500000 0.231923 0.098552
O O14 0.269474 0.201193 0.157495
O O15 0.742158 0.331378 0.580921
O O16 0.000000 0.298141 0.531257
O O17 0.750000 0.769741 0.750000
O O18 0.500000 0.747524 0.697026
O O19 0.000000 0.601897 0.381088
#
# Coordination Sequence:
#
# PCOD9414572 Si02
#       7
#     8   8   8   8   8   8   8
#     4  11  20  28  41  63  91 122 154 186 222 263
#     4  10  19  30  44  61  87 121 158 191 223 262
#     4   8  15  29  50  72  91 113 149 195 236 277
#     4  10  18  30  47  67  93 124 156 190 230 276
#     4   9  18  31  46  64  88 118 151 186 227 276
#     4  11  20  30  45  66  93 124 158 191 227 268
#     4  10  19  30  44  61  87 123 155 183 221 268
#
# _framework density 16.652241
#
# number of rings (size 3 to 8) (size 9 to 14) (size 15 to 20)
#    0.000    2.143    1.429    5.571    0.000    2.857 
#    0.000    0.000    0.000   10.714    0.000    1.000 
#    0.000    2.286    0.000    0.000    0.000    0.571 
#
# Total GULP energy -312247.688310 kJ/mol
# GULP energy per Si atom -5575.851577 kJ/mol
# Density = 1.661434 g / cm^3
# Si number density = 16.652241 Si / 1000 Ang^3
#
#
#
# Elastic Constant Matrix: (Units=GPa)
#
#
# Indices 1 2 3 4 5 6 
#
# 1 26.2193 -4.4849 0.2643 0.0000 0.0000 0.0000
# 2 -4.4849 59.7116 61.1068 0.0000 0.0000 0.0000
# 3 0.2643 61.1068 142.4056 0.0000 0.0000 0.0000
# 4 0.0000 0.0000 0.0000 34.4891 0.0000 0.0000
# 5 0.0000 0.0000 0.0000 0.0000 20.3890 0.0000
# 6 0.0000 0.0000 0.0000 0.0000 0.0000 2.0008
#
#
#
# Elastic Compliance Matrix: (Units=1/GPa)
#
#
# Indices 1 2 3 4 5 6 
#
# 1 0.039082 0.005366 -0.002375 0.000000 0.000000 0.000000
# 2 0.005366 0.030596 -0.013139 0.000000 0.000000 0.000000
# 3 -0.002375 -0.013139 0.012665 0.000000 0.000000 0.000000
# 4 0.000000 0.000000 0.000000 0.028995 0.000000 0.000000
# 5 0.000000 0.000000 0.000000 0.000000 0.049046 0.000000
# 6 0.000000 0.000000 0.000000 0.000000 0.000000 0.499801
#
#
# Mechanical properties :
#
#
# Convention : Reuss Voigt Hill
#
# Bulk Modulus (GPa) = 16.11701 38.01209 27.06455
# Shear Modulus (GPa) = 7.13102 22.80581 14.96841
#
# Velocity S-wave (km/s) = 2.07162 3.70474 3.00139
# Velocity P-wave (km/s) = 3.92705 6.41690 5.31970
#
# Compressibility (1/GPa) = 0.06204626
#
# Stress axis : x y z
#
# Youngs Moduli (GPa) = 25.58749 32.68398 78.96071
#
# Poissons Ratio (x) = -0.17538 0.18754
# Poissons Ratio (y) = -0.13730 1.03745
# Poissons Ratio (z) = 0.06077 0.42943
#
# Static dielectric constant tensor:
#      x y z
#    x 1.584590 0.000000 0.000000 
#    y 0.000000 1.543350 0.000000 
#    z 0.000000 0.000000 1.607900 
# 
# From -- ./inp_files/38315.got.cif
#   From: 2010.05.17/outbox.cif.g08.bks.cpg/sg53_20_cif.got.tgz:38315.got - 2010.06.03 12:45:16.
