data_PCOD9414974
_publ_section_title
;
Structure prediction by ZEFSAII (Michael W. Deem and Ramdas Pophale) SiO2 
 PCOD9414974
Probable space group: P M N A
;
_chemical_formula_sum "Si O2"
_cell_formula_units_Z 56
_cell_length_a 16.658755
_cell_length_b 13.619801
_cell_length_c 12.266335
_cell_angle_alpha 90.000000
_cell_angle_beta 90.000000
_cell_angle_gamma 90.000000
_cell_volume 2783.095599
_symmetry_space_group_name_H-M "P M N A"
_symmetry_group_IT_number 53
_symmetry_cell_setting 'orthorhombic'
loop_
_space_group_symop_operation_xyz
x,y,z
1/2-x,-y,1/2+z
x,-y,-z
1/2-x,y,1/2-z
-x,-y,-z
1/2+x,y,1/2-z
-x,y,z
1/2+x,-y,1/2+z
loop_
_atom_site_type_symbol
_atom_site_label
_atom_site_fract_x
_atom_site_fract_y
_atom_site_fract_z
Si Si1 0.347448 0.265899 0.564496
Si Si2 0.596507 0.270196 0.111715
Si Si3 0.903468 0.346639 0.150866
Si Si4 0.334813 0.313729 0.882726
Si Si5 0.903526 0.866714 0.239846
Si Si6 0.402237 0.954661 0.883887
Si Si7 0.908003 0.560912 0.201927
O O1 0.359189 0.278317 0.436295
O O2 0.259055 0.294505 0.604305
O O3 0.370682 0.163833 0.621570
O O4 0.404217 0.348762 0.618337
O O5 0.500000 0.269088 0.101873
O O6 0.617105 0.320836 0.225065
O O7 0.625135 0.157330 0.119601
O O8 0.630053 0.320539 0.003720
O O9 0.882712 0.461688 0.141162
O O10 0.000000 0.334319 0.136299
O O11 0.373942 0.218855 0.822518
O O12 0.356066 0.405608 0.805809
O O13 0.876809 0.971267 0.288199
O O14 0.000000 0.864284 0.237952
O O15 0.500000 0.953086 0.881049
O O16 0.378594 0.000000 0.000000
O O17 0.000000 0.546320 0.238787
#
# Coordination Sequence:
#
# PCOD9414974 Si02
#       7
#     8   8   8   8   8   8   8
#     4  11  22  37  55  83 120 157 188 226 285 351
#     4  10  20  37  60  86 114 146 192 243 288 336
#     4  10  22  40  60  80 113 155 195 237 279 340
#     4  11  21  35  56  86 117 149 183 243 295 339
#     4  10  18  33  62  89 110 144 195 243 277 329
#     4   9  16  30  59  90 109 135 186 242 288 327
#     4  10  20  38  62  85 106 144 201 242 277 330
#
# _framework density 20.121478
#
# number of rings (size 3 to 8) (size 9 to 14) (size 15 to 20)
#    0.000    1.857    1.429    5.571    0.000    2.286 
#    7.714    2.857    9.429    3.429    0.000    0.000 
#    0.000    0.000    0.000    0.000    0.000    0.000 
#
# Total GULP energy -312672.160493 kJ/mol
# GULP energy per Si atom -5583.431437 kJ/mol
# Density = 2.007568 g / cm^3
# Si number density = 20.121478 Si / 1000 Ang^3
#
#
#
# Elastic Constant Matrix: (Units=GPa)
#
#
# Indices 1 2 3 4 5 6 
#
# 1 55.3957 -8.9232 14.1227 0.0000 0.0000 0.0000
# 2 -8.9232 30.9820 7.6281 0.0000 0.0000 0.0000
# 3 14.1227 7.6281 101.2050 0.0000 0.0000 0.0000
# 4 0.0000 0.0000 0.0000 29.7558 0.0000 0.0000
# 5 0.0000 0.0000 0.0000 0.0000 16.2044 0.0000
# 6 0.0000 0.0000 0.0000 0.0000 0.0000 -2.6932
#
#
#
# Elastic Compliance Matrix: (Units=1/GPa)
#
#
# Indices 1 2 3 4 5 6 
#
# 1 0.019942 0.006550 -0.003277 0.000000 0.000000 0.000000
# 2 0.006550 0.035039 -0.003555 0.000000 0.000000 0.000000
# 3 -0.003277 -0.003555 0.010606 0.000000 0.000000 0.000000
# 4 0.000000 0.000000 0.000000 0.033607 0.000000 0.000000
# 5 0.000000 0.000000 0.000000 0.000000 0.061712 0.000000
# 6 0.000000 0.000000 0.000000 0.000000 0.000000 -0.371305
#
#
# Mechanical properties :
#
#
# Convention : Reuss Voigt Hill
#
# Bulk Modulus (GPa) = 15.37877 23.69309 19.53593
# Shear Modulus (GPa) = -26.57288 20.30374 -3.13457
#
# Velocity S-wave (km/s) = -3.63798 3.18001 -1.24948
# Velocity P-wave (km/s) = 3.16022 5.02831 2.76559
#
# Compressibility (1/GPa) = 0.06502472
#
# Stress axis : x y z
#
# Youngs Moduli (GPa) = 50.14436 28.53992 94.28517
#
# Poissons Ratio (x) = -0.18695 0.30893
# Poissons Ratio (y) = -0.32846 0.33519
# Poissons Ratio (z) = 0.16430 0.10146
#
# Static dielectric constant tensor:
#      x y z
#    x 1.713750 0.000000 0.000000 
#    y 0.000000 1.723970 0.000000 
#    z 0.000000 0.000000 1.719560 
# 
# From -- ./inp_files/16029.got.cif
#   From: 2010.05.17/outbox.cif.g08.bks.cpg/sg53_9_cif.got.tgz:16029.got - 2010.06.03 12:45:16.
