data_PCOD9414443
_publ_section_title
;
Structure prediction by ZEFSAII (Michael W. Deem and Ramdas Pophale) SiO2 
 PCOD9414443
Probable space group: P M N A
;
_chemical_formula_sum "Si O2"
_cell_formula_units_Z 56
_cell_length_a 9.370207
_cell_length_b 21.275121
_cell_length_c 14.697029
_cell_angle_alpha 90.000000
_cell_angle_beta 90.000000
_cell_angle_gamma 90.000000
_cell_volume 2929.886354
_symmetry_space_group_name_H-M "P M N A"
_symmetry_group_IT_number 53
_symmetry_cell_setting 'orthorhombic'
loop_
_space_group_symop_operation_xyz
x,y,z
1/2-x,-y,1/2+z
x,-y,-z
1/2-x,y,1/2-z
-x,-y,-z
1/2+x,y,1/2-z
-x,y,z
1/2+x,-y,1/2+z
loop_
_atom_site_type_symbol
_atom_site_label
_atom_site_fract_x
_atom_site_fract_y
_atom_site_fract_z
Si Si1 0.343894 0.453637 0.176547
Si Si2 0.161074 0.352645 0.480872
Si Si3 0.667394 0.881025 0.342775
Si Si4 0.667992 0.242663 0.154482
Si Si5 0.166477 0.033036 0.157892
Si Si6 0.338758 0.447833 0.582111
Si Si7 0.668759 0.878624 0.972881
O O1 0.250000 0.417774 0.250000
O O2 0.500000 0.464701 0.213881
O O3 0.353898 0.411091 0.088222
O O4 0.265358 0.517638 0.151674
O O5 0.214195 0.295317 0.418971
O O6 0.270473 0.381643 0.552591
O O7 0.000000 0.338236 0.515543
O O8 0.750000 0.862440 0.250000
O O9 0.500000 0.861989 0.342772
O O10 0.753414 0.860487 0.432913
O O11 0.669254 0.957425 0.346067
O O12 0.750000 0.243576 0.250000
O O13 0.500000 0.254966 0.172400
O O14 0.680727 0.176830 0.101567
O O15 0.250000 0.051923 0.250000
O O16 0.248672 0.063116 0.072937
O O17 0.000000 0.053016 0.160177
O O18 0.344992 0.500000 0.500000
O O19 0.500000 0.439365 0.613664
O O20 0.500000 0.891400 0.988185
#
# Coordination Sequence:
#
# PCOD9414443 Si02
#       7
#     8   8   8   8   8   8   8
#     4  10  18  28  46  71  99 130 162 200 247 296
#     4   9  18  33  50  69  97 132 168 205 247 295
#     4  10  21  37  57  80 105 135 174 220 268 318
#     4  10  22  37  53  76 106 140 177 216 257 306
#     4  10  20  34  53  79 110 142 176 216 264 317
#     4   9  17  29  46  69  95 123 158 199 243 293
#     4  11  22  35  53  78 109 144 179 217 263 312
#
# _framework density 19.113368999999999
#
# number of rings (size 3 to 8) (size 9 to 14) (size 15 to 20)
#    0.000    2.143    0.000    3.429    0.000    8.571 
#    0.000    0.000    0.000    0.857    0.000    4.000 
#    0.000    0.000    0.000    0.000    0.000    0.000 
#
# Total GULP energy -312211.135105 kJ/mol
# GULP energy per Si atom -5575.198841 kJ/mol
# Density = 1.906987 g / cm^3
# Si number density = 19.113369 Si / 1000 Ang^3
#
#
#
# Elastic Constant Matrix: (Units=GPa)
#
#
# Indices 1 2 3 4 5 6 
#
# 1 121.5759 13.4356 22.3065 0.0000 0.0000 0.0000
# 2 13.4356 32.1985 -0.0728 0.0000 0.0000 0.0000
# 3 22.3065 -0.0728 49.8704 0.0000 0.0000 0.0000
# 4 0.0000 0.0000 0.0000 24.1315 0.0000 0.0000
# 5 0.0000 0.0000 0.0000 0.0000 29.4570 0.0000
# 6 0.0000 0.0000 0.0000 0.0000 0.0000 17.4675
#
#
#
# Elastic Compliance Matrix: (Units=1/GPa)
#
#
# Indices 1 2 3 4 5 6 
#
# 1 0.009437 -0.003947 -0.004227 0.000000 0.000000 0.000000
# 2 -0.003947 0.032709 0.001813 0.000000 0.000000 0.000000
# 3 -0.004227 0.001813 0.021945 0.000000 0.000000 0.000000
# 4 0.000000 0.000000 0.000000 0.041440 0.000000 0.000000
# 5 0.000000 0.000000 0.000000 0.000000 0.033948 0.000000
# 6 0.000000 0.000000 0.000000 0.000000 0.000000 0.057249
#
#
# Mechanical properties :
#
#
# Convention : Reuss Voigt Hill
#
# Bulk Modulus (GPa) = 19.46694 30.55371 25.01032
# Shear Modulus (GPa) = 22.06798 25.40955 23.73877
#
# Velocity S-wave (km/s) = 3.40160 3.65007 3.52802
# Velocity P-wave (km/s) = 5.06310 5.81242 5.45065
#
# Compressibility (1/GPa) = 0.05136915
#
# Stress axis : x y z
#
# Youngs Moduli (GPa) = 105.96487 30.57296 45.56794
#
# Poissons Ratio (x) = 0.12068 0.19261
# Poissons Ratio (y) = 0.41829 -0.08263
# Poissons Ratio (z) = 0.44790 -0.05544
#
# Static dielectric constant tensor:
#      x y z
#    x 1.676360 0.000000 0.000000 
#    y 0.000000 1.667890 0.000000 
#    z 0.000000 0.000000 1.713360 
# 
# From -- ./inp_files/20655.got.cif
#   From: 2010.05.17/outbox.cif.g08.bks.cpg/sg53_11_cif.got.tgz:20655.got - 2010.06.03 12:45:16.
