data_PCOD9414278
_publ_section_title
;
Structure prediction by ZEFSAII (Michael W. Deem and Ramdas Pophale) SiO2 
 PCOD9414278
Probable space group: P M N A
;
_chemical_formula_sum "Si O2"
_cell_formula_units_Z 48
_cell_length_a 10.436632
_cell_length_b 14.108622
_cell_length_c 18.997442
_cell_angle_alpha 90.000000
_cell_angle_beta 90.000000
_cell_angle_gamma 90.000000
_cell_volume 2797.306764
_symmetry_space_group_name_H-M "P M N A"
_symmetry_group_IT_number 53
_symmetry_cell_setting 'orthorhombic'
loop_
_space_group_symop_operation_xyz
x,y,z
1/2-x,-y,1/2+z
x,-y,-z
1/2-x,y,1/2-z
-x,-y,-z
1/2+x,y,1/2-z
-x,y,z
1/2+x,-y,1/2+z
loop_
_atom_site_type_symbol
_atom_site_label
_atom_site_fract_x
_atom_site_fract_y
_atom_site_fract_z
Si Si1 0.756263 0.791895 0.107200
Si Si2 0.500000 0.097490 0.902959
Si Si3 0.000000 0.913727 0.094665
Si Si4 0.850861 0.442177 0.070193
Si Si5 0.751369 0.239992 0.438191
Si Si6 0.000000 0.878845 0.573671
Si Si7 0.500000 0.126233 0.426037
Si Si8 0.651315 0.604038 0.312757
O O1 0.624794 0.846547 0.124116
O O2 0.791758 0.696516 0.148100
O O3 0.872592 0.863471 0.120899
O O4 0.751031 0.767791 0.023654
O O5 0.500000 0.983614 0.891656
O O6 0.500000 0.106138 0.988557
O O7 0.000000 0.024407 0.109867
O O8 0.000000 0.896281 0.010023
O O9 0.763310 0.350239 0.079954
O O10 0.846228 0.515623 0.133939
O O11 0.000000 0.410440 0.060390
O O12 0.815124 0.500000 0.000000
O O13 0.875068 0.184006 0.411184
O O14 0.626322 0.185533 0.410956
O O15 0.750000 0.584758 0.250000
O O16 0.500000 0.619495 0.293670
#
# Coordination Sequence:
#
# PCOD9414278 Si02
#       8
#     8   4   4   8   8   4   4   8
#     4  10  18  31  52  76 108 147 183 218 275 331
#     4   9  18  30  48  73 115 158 172 208 270 328
#     4   9  16  26  44  77 107 138 170 222 266 318
#     4  10  19  34  59  83 108 143 187 239 287 330
#     4  10  17  30  50  81 111 145 179 224 283 327
#     4   9  18  30  44  76 122 149 174 212 272 333
#     4   9  16  24  46  76 110 133 176 222 268 321
#     4  11  24  40  57  81 112 147 187 233 282 342
#
# _framework density 17.159362000000002
#
# number of rings (size 3 to 8) (size 9 to 14) (size 15 to 20)
#    0.000    2.167    3.333    1.000    1.167    4.000 
#    1.500    0.417    0.000    0.000    0.000    7.000 
#    0.000    0.000    0.000    0.000    0.000    0.000 
#
# Total GULP energy -267545.843348 kJ/mol
# GULP energy per Si atom -5573.871736 kJ/mol
# Density = 1.712031 g / cm^3
# Si number density = 17.159362 Si / 1000 Ang^3
#
#
#
# Elastic Constant Matrix: (Units=GPa)
#
#
# Indices 1 2 3 4 5 6 
#
# 1 164.1786 82.1951 26.5435 0.0000 0.0000 0.0000
# 2 82.1951 151.5570 20.0487 0.0000 0.0000 0.0000
# 3 26.5435 20.0487 27.9582 0.0000 0.0000 0.0000
# 4 0.0000 0.0000 0.0000 11.3039 0.0000 0.0000
# 5 0.0000 0.0000 0.0000 0.0000 9.6651 0.0000
# 6 0.0000 0.0000 0.0000 0.0000 0.0000 29.1691
#
#
#
# Elastic Compliance Matrix: (Units=1/GPa)
#
#
# Indices 1 2 3 4 5 6 
#
# 1 0.009099 -0.004190 -0.005635 0.000000 0.000000 0.000000
# 2 -0.004190 0.009219 -0.002633 0.000000 0.000000 0.000000
# 3 -0.005635 -0.002633 0.043005 0.000000 0.000000 0.000000
# 4 0.000000 0.000000 0.000000 0.088465 0.000000 0.000000
# 5 0.000000 0.000000 0.000000 0.000000 0.103465 0.000000
# 6 0.000000 0.000000 0.000000 0.000000 0.000000 0.034283
#
#
# Mechanical properties :
#
#
# Convention : Reuss Voigt Hill
#
# Bulk Modulus (GPa) = 27.46587 66.80761 47.13674
# Shear Modulus (GPa) = 15.40416 24.35471 19.87944
#
# Velocity S-wave (km/s) = 2.99943 3.77148 3.40739
# Velocity P-wave (km/s) = 5.29496 7.61469 6.55821
#
# Compressibility (1/GPa) = 0.03640882
#
# Stress axis : x y z
#
# Youngs Moduli (GPa) = 109.89744 108.47566 23.25292
#
# Poissons Ratio (x) = 0.45447 0.13102
# Poissons Ratio (y) = 0.46042 0.06123
# Poissons Ratio (z) = 0.61923 0.28562
#
# Static dielectric constant tensor:
#      x y z
#    x 1.582990 0.000000 0.000000 
#    y 0.000000 1.564300 0.000000 
#    z 0.000000 0.000000 1.570550 
# 
# From -- ./inp_files/26368.got.cif
#   From: 2010.05.17/outbox.cif.g08.bks.cpg/sg53_14_cif.got.tgz:26368.got - 2010.06.03 12:45:16.
