data_PCOD9414324
_publ_section_title
;
Structure prediction by ZEFSAII (Michael W. Deem and Ramdas Pophale) SiO2 
 PCOD9414324
Probable space group: P M N A
;
_chemical_formula_sum "Si O2"
_cell_formula_units_Z 40
_cell_length_a 18.870574
_cell_length_b 8.630983
_cell_length_c 10.265535
_cell_angle_alpha 90.000000
_cell_angle_beta 90.000000
_cell_angle_gamma 90.000000
_cell_volume 1671.964145
_symmetry_space_group_name_H-M "P M N A"
_symmetry_group_IT_number 53
_symmetry_cell_setting 'orthorhombic'
loop_
_space_group_symop_operation_xyz
x,y,z
1/2-x,-y,1/2+z
x,-y,-z
1/2-x,y,1/2-z
-x,-y,-z
1/2+x,y,1/2-z
-x,y,z
1/2+x,-y,1/2+z
loop_
_atom_site_type_symbol
_atom_site_label
_atom_site_fract_x
_atom_site_fract_y
_atom_site_fract_z
Si Si1 0.698994 0.921980 0.857071
Si Si2 0.577145 0.322083 0.556536
Si Si3 0.377157 0.360315 0.845470
Si Si4 0.233055 0.318727 0.981489
Si Si5 0.419466 0.713556 0.870579
O O1 0.750000 0.997134 0.750000
O O2 0.620795 0.865757 0.818294
O O3 0.734240 0.758155 0.892083
O O4 0.698442 0.000000 0.000000
O O5 0.576851 0.500000 0.500000
O O6 0.500000 0.256711 0.518211
O O7 0.585362 0.315694 0.712642
O O8 0.653797 0.250108 0.522820
O O9 0.295167 0.310949 0.870889
O O10 0.383613 0.547085 0.842251
O O11 0.415840 0.288490 0.971357
O O12 0.223871 0.500000 0.000000
O O13 0.500000 0.707095 0.825568
#
# Coordination Sequence:
#
# PCOD9414324 Si02
#       5
#     8   8   8   8   8
#     4  11  26  45  65  92 128 170 218 262 314 380
#     4  10  21  30  48  88 134 164 194 248 317 376
#     4  10  17  34  56  93 128 159 202 261 312 373
#     4  10  20  37  64  90 119 160 209 261 311 374
#     4  10  20  35  63  92 120 159 208 264 316 366
#
# _framework density 23.923959
#
# number of rings (size 3 to 8) (size 9 to 14) (size 15 to 20)
#    0.000    1.800    4.000    3.000    5.600    3.600 
#    0.000    0.000    0.000    2.400    0.000    0.000 
#    0.000    0.000    0.000    0.000    0.000    0.000 
#
# Total GULP energy -222779.079609 kJ/mol
# GULP energy per Si atom -5569.476990 kJ/mol
# Density = 2.386951 g / cm^3
# Si number density = 23.923959 Si / 1000 Ang^3
#
#
#
# Elastic Constant Matrix: (Units=GPa)
#
#
# Indices 1 2 3 4 5 6 
#
# 1 211.4504 25.1978 15.4318 0.0000 0.0000 0.0000
# 2 25.1978 46.1893 17.9086 0.0000 0.0000 0.0000
# 3 15.4318 17.9086 42.5357 0.0000 0.0000 0.0000
# 4 0.0000 0.0000 0.0000 12.1459 0.0000 0.0000
# 5 0.0000 0.0000 0.0000 0.0000 19.4123 0.0000
# 6 0.0000 0.0000 0.0000 0.0000 0.0000 2.0809
#
#
#
# Elastic Compliance Matrix: (Units=1/GPa)
#
#
# Indices 1 2 3 4 5 6 
#
# 1 0.005081 -0.002459 -0.000808 0.000000 0.000000 0.000000
# 2 -0.002459 0.027063 -0.010502 0.000000 0.000000 0.000000
# 3 -0.000808 -0.010502 0.028225 0.000000 0.000000 0.000000
# 4 0.000000 0.000000 0.000000 0.082333 0.000000 0.000000
# 5 0.000000 0.000000 0.000000 0.000000 0.051514 0.000000
# 6 0.000000 0.000000 0.000000 0.000000 0.000000 0.480553
#
#
# Mechanical properties :
#
#
# Convention : Reuss Voigt Hill
#
# Bulk Modulus (GPa) = 30.45935 46.36133 38.41034
# Shear Modulus (GPa) = 7.01016 22.83697 14.92356
#
# Velocity S-wave (km/s) = 1.71364 3.09295 2.50029
# Velocity P-wave (km/s) = 4.08348 5.67238 4.94220
#
# Compressibility (1/GPa) = 0.03283064
#
# Stress axis : x y z
#
# Youngs Moduli (GPa) = 196.80344 36.95050 35.43003
#
# Poissons Ratio (x) = 0.09085 0.02864
# Poissons Ratio (y) = 0.48385 0.37210
# Poissons Ratio (z) = 0.15908 0.38807
#
# Static dielectric constant tensor:
#      x y z
#    x 2.095070 0.000000 0.000000 
#    y 0.000000 1.838430 0.000000 
#    z 0.000000 0.000000 1.891720 
# 
# From -- ./inp_files/17627.got.cif
#   From: 2010.05.17/outbox.cif.g08.bks.cpg/sg53_9_cif.got.tgz:17627.got - 2010.06.03 12:45:16.
