data_PCOD9414344
_publ_section_title
;
Structure prediction by ZEFSAII (Michael W. Deem and Ramdas Pophale) SiO2 
 PCOD9414344
Probable space group: P M N A
;
_chemical_formula_sum "Si O2"
_cell_formula_units_Z 64
_cell_length_a 8.958527
_cell_length_b 20.723282
_cell_length_c 23.076442
_cell_angle_alpha 90.000000
_cell_angle_beta 90.000000
_cell_angle_gamma 90.000000
_cell_volume 4284.143334
_symmetry_space_group_name_H-M "P M N A"
_symmetry_group_IT_number 53
_symmetry_cell_setting 'orthorhombic'
loop_
_space_group_symop_operation_xyz
x,y,z
1/2-x,-y,1/2+z
x,-y,-z
1/2-x,y,1/2-z
-x,-y,-z
1/2+x,y,1/2-z
-x,y,z
1/2+x,-y,1/2+z
loop_
_atom_site_type_symbol
_atom_site_label
_atom_site_fract_x
_atom_site_fract_y
_atom_site_fract_z
Si Si1 0.179920 0.891442 0.601895
Si Si2 0.323321 0.849751 0.479521
Si Si3 0.825659 0.412431 0.946099
Si Si4 0.174899 0.716266 0.473348
Si Si5 0.671564 0.029493 0.934758
Si Si6 0.824929 0.319471 0.390517
Si Si7 0.674568 0.551769 0.583000
Si Si8 0.678353 0.789427 0.686714
O O1 0.242317 0.864079 0.540994
O O2 0.253910 0.850646 0.652644
O O3 0.000000 0.884415 0.601904
O O4 0.215013 0.967933 0.603901
O O5 0.500000 0.850181 0.488210
O O6 0.267205 0.780156 0.458883
O O7 0.273713 0.907698 0.437097
O O8 0.776280 0.477151 0.912471
O O9 0.000000 0.400749 0.932805
O O10 0.731905 0.347425 0.940333
O O11 0.818953 0.431073 0.014401
O O12 0.195163 0.702284 0.542357
O O13 0.000000 0.726957 0.463454
O O14 0.500000 0.047771 0.922456
O O15 0.673744 0.000000 0.000000
O O16 0.770976 0.393416 0.386284
O O17 0.728888 0.272805 0.350314
O O18 0.000000 0.313124 0.376728
O O19 0.500000 0.556277 0.599745
O O20 0.750000 0.785675 0.750000
O O21 0.500000 0.793367 0.689602
#
# Coordination Sequence:
#
# PCOD9414344 Si02
#       8
#     8   8   8   8   8   8   8   8
#     4  10  19  33  48  62  82 108 140 177 219 262
#     4  11  19  26  41  63  86 113 145 178 212 255
#     4   8  14  24  37  55  79 106 139 174 207 245
#     4  10  18  26  39  57  84 115 144 178 213 251
#     4   8  16  29  44  60  82 109 136 172 213 255
#     4  10  19  30  44  60  80 108 142 180 216 257
#     4   8  14  25  40  56  77 105 137 174 211 248
#     4  12  24  36  50  65  84 110 143 185 226 264
#
# _framework density 14.938808999999999
#
# number of rings (size 3 to 8) (size 9 to 14) (size 15 to 20)
#    0.000    2.375    1.250    4.875    0.000    4.250 
#    0.000    2.500    0.000    0.000    0.000    0.000 
#    0.000    0.000    0.000    1.125    0.000   17.250 
#
# Total GULP energy -356612.577714 kJ/mol
# GULP energy per Si atom -5572.071527 kJ/mol
# Density = 1.490481 g / cm^3
# Si number density = 14.938809 Si / 1000 Ang^3
#
#
#
# Elastic Constant Matrix: (Units=GPa)
#
#
# Indices 1 2 3 4 5 6 
#
# 1 96.3343 69.3238 24.3894 0.0000 0.0000 0.0000
# 2 69.3238 122.5244 24.6094 0.0000 0.0000 0.0000
# 3 24.3894 24.6094 26.9396 0.0000 0.0000 0.0000
# 4 0.0000 0.0000 0.0000 6.5037 0.0000 0.0000
# 5 0.0000 0.0000 0.0000 0.0000 0.6107 0.0000
# 6 0.0000 0.0000 0.0000 0.0000 0.0000 4.0056
#
#
#
# Elastic Compliance Matrix: (Units=1/GPa)
#
#
# Indices 1 2 3 4 5 6 
#
# 1 0.019182 -0.009020 -0.009126 0.000000 0.000000 0.000000
# 2 -0.009020 0.014237 -0.004839 0.000000 0.000000 0.000000
# 3 -0.009126 -0.004839 0.049803 0.000000 0.000000 0.000000
# 4 0.000000 0.000000 0.000000 0.153759 0.000000 0.000000
# 5 0.000000 0.000000 0.000000 0.000000 1.637503 0.000000
# 6 0.000000 0.000000 0.000000 0.000000 0.000000 0.249648
#
#
# Mechanical properties :
#
#
# Convention : Reuss Voigt Hill
#
# Bulk Modulus (GPa) = 26.84511 53.60484 40.22497
# Shear Modulus (GPa) = 2.29093 10.72238 6.50665
#
# Velocity S-wave (km/s) = 1.23971 2.68200 2.08926
# Velocity P-wave (km/s) = 4.47864 6.74920 5.72756
#
# Compressibility (1/GPa) = 0.03725073
#
# Stress axis : x y z
#
# Youngs Moduli (GPa) = 52.13188 70.23846 20.07898
#
# Poissons Ratio (x) = 0.63356 0.18325
# Poissons Ratio (y) = 0.47024 0.09717
# Poissons Ratio (z) = 0.47577 0.33992
#
# Static dielectric constant tensor:
#      x y z
#    x 1.495750 0.000000 0.000000 
#    y 0.000000 1.528650 0.000000 
#    z 0.000000 0.000000 1.462880 
# 
# From -- ./inp_files/31329.got.cif
#   From: 2010.05.17/outbox.cif.g08.bks.cpg/sg53_16_cif.got.tgz:31329.got - 2010.06.03 12:45:16.
