data_PCOD9414992
_publ_section_title
;
Structure prediction by ZEFSAII (Michael W. Deem and Ramdas Pophale) SiO2 
 PCOD9414992
Probable space group: P M N A
;
_chemical_formula_sum "Si O2"
_cell_formula_units_Z 44
_cell_length_a 7.724037
_cell_length_b 28.449133
_cell_length_c 9.363857
_cell_angle_alpha 90.000000
_cell_angle_beta 90.000000
_cell_angle_gamma 90.000000
_cell_volume 2057.634125
_symmetry_space_group_name_H-M "P M N A"
_symmetry_group_IT_number 53
_symmetry_cell_setting 'orthorhombic'
loop_
_space_group_symop_operation_xyz
x,y,z
1/2-x,-y,1/2+z
x,-y,-z
1/2-x,y,1/2-z
-x,-y,-z
1/2+x,y,1/2-z
-x,y,z
1/2+x,-y,1/2+z
loop_
_atom_site_type_symbol
_atom_site_label
_atom_site_fract_x
_atom_site_fract_y
_atom_site_fract_z
Si Si1 0.208458 0.149117 0.417197
Si Si2 0.301489 0.566551 0.015984
Si Si3 0.708500 0.240484 0.916511
Si Si4 0.791720 0.332411 0.417010
Si Si5 0.250000 0.499241 0.250000
Si Si6 0.291689 0.045276 0.083447
O O1 0.250000 0.155994 0.250000
O O2 0.274557 0.192628 0.509997
O O3 0.272900 0.097150 0.461363
O O4 0.000000 0.148332 0.429718
O O5 0.500000 0.568505 0.073528
O O6 0.231368 0.618194 0.983156
O O7 0.318284 0.538231 0.866990
O O8 0.191121 0.537245 0.129934
O O9 0.750000 0.242184 0.750000
O O10 0.500000 0.240378 0.931637
O O11 0.773518 0.286734 0.999024
O O12 0.750000 0.329607 0.250000
O O13 0.000000 0.333766 0.429398
O O14 0.250000 0.040323 0.250000
O O15 0.500000 0.045802 0.066868
O O16 0.223163 0.000000 0.000000
#
# Coordination Sequence:
#
# PCOD9414992 Si02
#       6
#     8   8   8   8   4   8
#     4   9  18  34  54  78 104 139 179 218 262 310
#     4  10  21  37  54  77 107 135 169 214 255 304
#     4  10  22  37  56  79 108 137 171 218 265 312
#     4  10  21  39  58  79 106 138 174 214 260 309
#     4  10  18  34  56  74 102 136 168 202 256 300
#     4   9  18  32  50  74 107 142 178 219 262 309
#
# _framework density 21.383782
#
# number of rings (size 3 to 8) (size 9 to 14) (size 15 to 20)
#    0.000    2.364    0.909    1.636    1.273    2.545 
#    0.000    9.091    0.000    0.000    0.000    0.000 
#    0.000    0.000    0.000    0.000    0.000    0.000 
#
# Total GULP energy -245080.854629 kJ/mol
# GULP energy per Si atom -5570.019423 kJ/mol
# Density = 2.133511 g / cm^3
# Si number density = 21.383782 Si / 1000 Ang^3
#
#
#
# Elastic Constant Matrix: (Units=GPa)
#
#
# Indices 1 2 3 4 5 6 
#
# 1 38.6998 15.4380 5.2487 0.0000 0.0000 0.0000
# 2 15.4380 258.7418 106.4881 0.0000 0.0000 0.0000
# 3 5.2487 106.4881 112.0195 0.0000 0.0000 0.0000
# 4 0.0000 0.0000 0.0000 54.4196 0.0000 0.0000
# 5 0.0000 0.0000 0.0000 0.0000 16.8870 0.0000
# 6 0.0000 0.0000 0.0000 0.0000 0.0000 42.6167
#
#
#
# Elastic Compliance Matrix: (Units=1/GPa)
#
#
# Indices 1 2 3 4 5 6 
#
# 1 0.026483 -0.001757 0.000429 0.000000 0.000000 0.000000
# 2 -0.001757 0.006465 -0.006064 0.000000 0.000000 0.000000
# 3 0.000429 -0.006064 0.014671 0.000000 0.000000 0.000000
# 4 0.000000 0.000000 0.000000 0.018376 0.000000 0.000000
# 5 0.000000 0.000000 0.000000 0.000000 0.059217 0.000000
# 6 0.000000 0.000000 0.000000 0.000000 0.000000 0.023465
#
#
# Mechanical properties :
#
#
# Convention : Reuss Voigt Hill
#
# Bulk Modulus (GPa) = 30.45399 73.75673 52.10536
# Shear Modulus (GPa) = 28.66890 41.60374 35.13632
#
# Velocity S-wave (km/s) = 3.66551 4.41565 4.05795
# Velocity P-wave (km/s) = 5.67337 7.78229 6.80996
#
# Compressibility (1/GPa) = 0.03283642
#
# Stress axis : x y z
#
# Youngs Moduli (GPa) = 37.76075 154.67293 68.16074
#
# Poissons Ratio (x) = 0.27171 -0.02925
# Poissons Ratio (y) = 0.06633 0.41331
# Poissons Ratio (z) = -0.01620 0.93789
#
# Static dielectric constant tensor:
#      x y z
#    x 1.872590 0.000000 0.000000 
#    y 0.000000 1.802570 0.000000 
#    z 0.000000 0.000000 1.702170 
# 
# From -- ./inp_files/6527.got.cif
#   From: 2010.05.17/outbox.cif.g08.bks.cpg/sg53_4_cif.got.tgz:6527.got - 2010.06.03 12:45:16.
