data_PCOD9414150
_publ_section_title
;
Structure prediction by ZEFSAII (Michael W. Deem and Ramdas Pophale) SiO2 
 PCOD9414150
Probable space group: P M N A
;
_chemical_formula_sum "Si O2"
_cell_formula_units_Z 64
_cell_length_a 8.736297
_cell_length_b 19.008684
_cell_length_c 25.551413
_cell_angle_alpha 90.000000
_cell_angle_beta 90.000000
_cell_angle_gamma 90.000000
_cell_volume 4243.208406
_symmetry_space_group_name_H-M "P M N A"
_symmetry_group_IT_number 53
_symmetry_cell_setting 'orthorhombic'
loop_
_space_group_symop_operation_xyz
x,y,z
1/2-x,-y,1/2+z
x,-y,-z
1/2-x,y,1/2-z
-x,-y,-z
1/2+x,y,1/2-z
-x,y,z
1/2+x,-y,1/2+z
loop_
_atom_site_type_symbol
_atom_site_label
_atom_site_fract_x
_atom_site_fract_y
_atom_site_fract_z
Si Si1 0.318907 0.682801 0.109478
Si Si2 0.683581 0.989931 0.080659
Si Si3 0.318731 0.892968 0.505267
Si Si4 0.684116 0.408349 0.038642
Si Si5 0.682783 0.543562 0.426249
Si Si6 0.683641 0.057902 0.805340
Si Si7 0.317626 0.785528 0.305065
Si Si8 0.319878 0.258207 0.008588
O O1 0.500000 0.680089 0.119940
O O2 0.248900 0.604481 0.110682
O O3 0.235493 0.734200 0.149305
O O4 0.299624 0.714434 0.050999
O O5 0.500000 0.993319 0.076013
O O6 0.741312 0.921907 0.048131
O O7 0.723988 0.984084 0.141836
O O8 0.756713 0.056235 0.051052
O O9 0.500000 0.901074 0.500522
O O10 0.274105 0.812623 0.515824
O O11 0.500000 0.414890 0.033452
O O12 0.746545 0.465541 0.079549
O O13 0.761261 0.430737 0.983716
O O14 0.719558 0.325649 0.044754
O O15 0.500000 0.540961 0.424412
O O16 0.750000 0.031213 0.750000
O O17 0.500000 0.061241 0.801474
O O18 0.748135 0.136687 0.812803
O O19 0.250000 0.759437 0.250000
O O20 0.500000 0.790540 0.302393
O O21 0.500000 0.242409 0.015652
#
# Coordination Sequence:
#
# PCOD9414150 Si02
#       8
#     8   8   8   8   8   8   8   8
#     4  10  19  31  45  61  84 116 151 183 216 260
#     4  10  20  34  49  63  87 120 151 181 221 272
#     4  11  21  30  45  67  90 117 150 188 227 263
#     4   9  16  27  41  57  81 114 145 174 208 248
#     4  10  17  25  39  60  84 110 141 177 213 248
#     4  10  20  33  50  69  88 116 149 185 226 267
#     4  11  21  32  46  64  87 114 144 182 222 260
#     4   9  18  30  44  61  85 117 149 179 216 262
#
# _framework density 15.082927
#
# number of rings (size 3 to 8) (size 9 to 14) (size 15 to 20)
#    0.000    2.000    0.000    8.625    0.000    8.000 
#    0.000    0.000    0.000    0.000    0.000    0.000 
#    0.000    1.000    0.000    5.250    0.000    5.250 
#
# Total GULP energy -356855.585263 kJ/mol
# GULP energy per Si atom -5575.868520 kJ/mol
# Density = 1.504860 g / cm^3
# Si number density = 15.082927 Si / 1000 Ang^3
#
#
#
# Elastic Constant Matrix: (Units=GPa)
#
#
# Indices 1 2 3 4 5 6 
#
# 1 84.4381 32.2274 27.6167 0.0000 0.0000 0.0000
# 2 32.2274 72.6622 18.5343 0.0000 0.0000 0.0000
# 3 27.6167 18.5343 60.6402 0.0000 0.0000 0.0000
# 4 0.0000 0.0000 0.0000 17.0996 0.0000 0.0000
# 5 0.0000 0.0000 0.0000 0.0000 20.5015 0.0000
# 6 0.0000 0.0000 0.0000 0.0000 0.0000 35.3066
#
#
#
# Elastic Compliance Matrix: (Units=1/GPa)
#
#
# Indices 1 2 3 4 5 6 
#
# 1 0.015769 -0.005599 -0.005470 0.000000 0.000000 0.000000
# 2 -0.005599 0.016914 -0.002620 0.000000 0.000000 0.000000
# 3 -0.005470 -0.002620 0.019783 0.000000 0.000000 0.000000
# 4 0.000000 0.000000 0.000000 0.058481 0.000000 0.000000
# 5 0.000000 0.000000 0.000000 0.000000 0.048777 0.000000
# 6 0.000000 0.000000 0.000000 0.000000 0.000000 0.028323
#
#
# Mechanical properties :
#
#
# Convention : Reuss Voigt Hill
#
# Bulk Modulus (GPa) = 39.85990 41.61081 40.73535
# Shear Modulus (GPa) = 22.34272 23.87235 23.10753
#
# Velocity S-wave (km/s) = 3.85297 3.98268 3.91836
# Velocity P-wave (km/s) = 6.80282 6.98548 6.89476
#
# Compressibility (1/GPa) = 0.02508787
#
# Stress axis : x y z
#
# Youngs Moduli (GPa) = 63.41584 59.12374 50.54910
#
# Poissons Ratio (x) = 0.33101 0.27652
# Poissons Ratio (y) = 0.35504 0.13243
# Poissons Ratio (z) = 0.34690 0.15490
#
# Static dielectric constant tensor:
#      x y z
#    x 1.500790 0.000000 0.000000 
#    y 0.000000 1.520510 0.000000 
#    z 0.000000 0.000000 1.516170 
# 
# From -- ./inp_files/36505.got.cif
#   From: 2010.05.17/outbox.cif.g08.bks.cpg/sg53_19_cif.got.tgz:36505.got - 2010.06.03 12:45:16.
