data_PCOD9414860
_publ_section_title
;
Structure prediction by ZEFSAII (Michael W. Deem and Ramdas Pophale) SiO2 
 PCOD9414860
Probable space group: P M N A
;
_chemical_formula_sum "Si O2"
_cell_formula_units_Z 48
_cell_length_a 14.824587
_cell_length_b 7.330831
_cell_length_c 20.966657
_cell_angle_alpha 90.000000
_cell_angle_beta 90.000000
_cell_angle_gamma 90.000000
_cell_volume 2278.583779
_symmetry_space_group_name_H-M "P M N A"
_symmetry_group_IT_number 53
_symmetry_cell_setting 'orthorhombic'
loop_
_space_group_symop_operation_xyz
x,y,z
1/2-x,-y,1/2+z
x,-y,-z
1/2-x,y,1/2-z
-x,-y,-z
1/2+x,y,1/2-z
-x,y,z
1/2+x,-y,1/2+z
loop_
_atom_site_type_symbol
_atom_site_label
_atom_site_fract_x
_atom_site_fract_y
_atom_site_fract_z
Si Si1 0.853575 0.749075 0.770221
Si Si2 0.103369 0.222667 0.495912
Si Si3 0.603450 0.898789 0.340282
Si Si4 0.399546 0.110937 0.135392
Si Si5 0.284704 0.249496 0.884325
Si Si6 0.897243 0.625073 0.271713
O O1 0.750000 0.763084 0.750000
O O2 0.902312 0.805044 0.704767
O O3 0.881303 0.539747 0.777679
O O4 0.875760 0.888071 0.826886
O O5 0.122182 0.253553 0.421075
O O6 0.173058 0.299500 0.547268
O O7 0.000000 0.276755 0.510246
O O8 0.109173 0.000000 0.500000
O O9 0.500000 0.876211 0.361454
O O10 0.678866 0.795337 0.381718
O O11 0.611738 0.807486 0.270011
O O12 0.500000 0.039183 0.120551
O O13 0.330860 0.945015 0.132957
O O14 0.323374 0.376681 0.827748
O O15 0.000000 0.617097 0.297030
#
# Coordination Sequence:
#
# PCOD9414860 Si02
#       6
#     8   8   8   8   8   8
#     4  12  21  35  54  80 113 147 179 216 264 320
#     4   8  16  29  52  80 105 136 174 217 271 323
#     4  11  22  36  52  77 110 144 182 223 266 312
#     4  10  18  32  54  80 108 141 175 216 271 324
#     4  11  18  34  53  77 105 142 179 217 263 321
#     4  11  22  34  53  81 112 142 176 223 272 323
#
# _framework density 21.065719000000001
#
# number of rings (size 3 to 8) (size 9 to 14) (size 15 to 20)
#    0.000    1.500    3.333    5.500    0.000    0.000 
#    0.000    0.833    0.000    7.500    0.000    0.000 
#    0.000    4.000    0.000    0.000    0.000    0.000 
#
# Total GULP energy -267964.699784 kJ/mol
# GULP energy per Si atom -5582.597912 kJ/mol
# Density = 2.101777 g / cm^3
# Si number density = 21.065719 Si / 1000 Ang^3
#
#
#
# Elastic Constant Matrix: (Units=GPa)
#
#
# Indices 1 2 3 4 5 6 
#
# 1 130.4344 6.6249 16.6147 0.0000 0.0000 0.0000
# 2 6.6249 65.4977 0.8908 0.0000 0.0000 0.0000
# 3 16.6147 0.8908 46.2372 0.0000 0.0000 0.0000
# 4 0.0000 0.0000 0.0000 11.6887 0.0000 0.0000
# 5 0.0000 0.0000 0.0000 0.0000 135.3520 0.0000
# 6 0.0000 0.0000 0.0000 0.0000 0.0000 11.4982
#
#
#
# Elastic Compliance Matrix: (Units=1/GPa)
#
#
# Indices 1 2 3 4 5 6 
#
# 1 0.008074 -0.000777 -0.002886 0.000000 0.000000 0.000000
# 2 -0.000777 0.015347 -0.000016 0.000000 0.000000 0.000000
# 3 -0.002886 -0.000016 0.022665 0.000000 0.000000 0.000000
# 4 0.000000 0.000000 0.000000 0.085553 0.000000 0.000000
# 5 0.000000 0.000000 0.000000 0.000000 0.007388 0.000000
# 6 0.000000 0.000000 0.000000 0.000000 0.000000 0.086970
#
#
# Mechanical properties :
#
#
# Convention : Reuss Voigt Hill
#
# Bulk Modulus (GPa) = 25.82275 32.27000 29.04638
# Shear Modulus (GPa) = 20.30333 46.24370 33.27352
#
# Velocity S-wave (km/s) = 3.10790 4.69039 3.97862
# Velocity P-wave (km/s) = 5.01632 6.68468 5.90967
#
# Compressibility (1/GPa) = 0.03872554
#
# Stress axis : x y z
#
# Youngs Moduli (GPa) = 123.85709 65.16116 44.12084
#
# Poissons Ratio (x) = 0.05066 0.12734
# Poissons Ratio (y) = 0.09628 0.00072
# Poissons Ratio (z) = 0.35748 0.00106
#
# Static dielectric constant tensor:
#      x y z
#    x 1.834360 0.000000 0.000000 
#    y 0.000000 1.825040 0.000000 
#    z 0.000000 0.000000 1.801370 
# 
# From -- ./inp_files/32284.got.cif
#   From: 2010.05.17/outbox.cif.g08.bks.cpg/sg53_17_cif.got.tgz:32284.got - 2010.06.03 12:45:16.
