data_PCOD9414524
_publ_section_title
;
Structure prediction by ZEFSAII (Michael W. Deem and Ramdas Pophale) SiO2 
 PCOD9414524
Probable space group: P M N A
;
_chemical_formula_sum "Si O2"
_cell_formula_units_Z 48
_cell_length_a 8.467453
_cell_length_b 13.266590
_cell_length_c 23.789097
_cell_angle_alpha 90.000000
_cell_angle_beta 90.000000
_cell_angle_gamma 90.000000
_cell_volume 2672.329830
_symmetry_space_group_name_H-M "P M N A"
_symmetry_group_IT_number 53
_symmetry_cell_setting 'orthorhombic'
loop_
_space_group_symop_operation_xyz
x,y,z
1/2-x,-y,1/2+z
x,-y,-z
1/2-x,y,1/2-z
-x,-y,-z
1/2+x,y,1/2-z
-x,y,z
1/2+x,-y,1/2+z
loop_
_atom_site_type_symbol
_atom_site_label
_atom_site_fract_x
_atom_site_fract_y
_atom_site_fract_z
Si Si1 0.309455 0.390473 0.934707
Si Si2 0.309270 0.385268 0.438088
Si Si3 0.684625 0.195478 0.879041
Si Si4 0.181960 0.186920 0.114875
Si Si5 0.811003 0.997161 0.186679
Si Si6 0.325200 0.880920 0.994263
O O1 0.500000 0.387862 0.936391
O O2 0.250523 0.503293 0.923545
O O3 0.255832 0.310312 0.887096
O O4 0.250259 0.364058 0.998048
O O5 0.500000 0.384188 0.439510
O O6 0.252686 0.300228 0.393654
O O7 0.500000 0.198476 0.862730
O O8 0.763539 0.109063 0.841811
O O9 0.696116 0.159378 0.943491
O O10 0.251507 0.096199 0.152593
O O11 0.195635 0.148292 0.050860
O O12 0.000000 0.197874 0.132268
O O13 0.750000 0.000513 0.250000
O O14 0.000000 0.002055 0.185723
O O15 0.500000 0.847613 0.973605
O O16 0.327031 0.000000 0.000000
#
# Coordination Sequence:
#
# PCOD9414524 Si02
#       6
#     8   8   8   8   8   8
#     4  10  19  31  49  76 110 144 177 210 251 308
#     4  10  19  31  48  74 110 145 176 211 256 310
#     4  10  20  34  53  78 109 141 174 215 260 314
#     4  10  21  34  51  76 107 140 174 215 261 313
#     4  11  24  40  57  77 102 136 178 223 269 315
#     4  10  18  29  48  76 107 139 171 206 257 315
#
# _framework density 17.961856000000001
#
# number of rings (size 3 to 8) (size 9 to 14) (size 15 to 20)
#    0.000    1.833    3.333    2.500    0.000    3.667 
#    0.000    0.000    0.000    1.000    0.000    4.667 
#    0.000    0.000    0.000    0.000    0.000    0.000 
#
# Total GULP energy -267318.428637 kJ/mol
# GULP energy per Si atom -5569.133930 kJ/mol
# Density = 1.792097 g / cm^3
# Si number density = 17.961856 Si / 1000 Ang^3
#
#
#
# Elastic Constant Matrix: (Units=GPa)
#
#
# Indices 1 2 3 4 5 6 
#
# 1 39.5253 32.1286 18.3393 0.0000 0.0000 0.0000
# 2 32.1286 164.4328 61.8814 0.0000 0.0000 0.0000
# 3 18.3393 61.8814 56.6722 0.0000 0.0000 0.0000
# 4 0.0000 0.0000 0.0000 9.3960 0.0000 0.0000
# 5 0.0000 0.0000 0.0000 0.0000 15.5045 0.0000
# 6 0.0000 0.0000 0.0000 0.0000 0.0000 12.3768
#
#
#
# Elastic Compliance Matrix: (Units=1/GPa)
#
#
# Indices 1 2 3 4 5 6 
#
# 1 0.031174 -0.003895 -0.005835 0.000000 0.000000 0.000000
# 2 -0.003895 0.010811 -0.010544 0.000000 0.000000 0.000000
# 3 -0.005835 -0.010544 0.031046 0.000000 0.000000 0.000000
# 4 0.000000 0.000000 0.000000 0.106428 0.000000 0.000000
# 5 0.000000 0.000000 0.000000 0.000000 0.064497 0.000000
# 6 0.000000 0.000000 0.000000 0.000000 0.000000 0.080796
#
#
# Mechanical properties :
#
#
# Convention : Reuss Voigt Hill
#
# Bulk Modulus (GPa) = 30.78495 53.92544 42.35519
# Shear Modulus (GPa) = 13.29337 17.34087 15.31712
#
# Velocity S-wave (km/s) = 2.72341 3.11050 2.92337
# Velocity P-wave (km/s) = 5.20246 6.55650 5.91833
#
# Compressibility (1/GPa) = 0.03248341
#
# Stress axis : x y z
#
# Youngs Moduli (GPa) = 32.07826 92.50225 32.21001
#
# Poissons Ratio (x) = 0.36033 0.18793
# Poissons Ratio (y) = 0.12495 0.33961
# Poissons Ratio (z) = 0.18716 0.97531
#
# Static dielectric constant tensor:
#      x y z
#    x 1.657840 0.000000 0.000000 
#    y 0.000000 1.720860 0.000000 
#    z 0.000000 0.000000 1.577990 
# 
# From -- ./inp_files/30525.got.cif
#   From: 2010.05.17/outbox.cif.g08.bks.cpg/sg53_16_cif.got.tgz:30525.got - 2010.06.03 12:45:16.
