data_PCOD9414281
_publ_section_title
;
Structure prediction by ZEFSAII (Michael W. Deem and Ramdas Pophale) SiO2 
 PCOD9414281
Probable space group: P M N A
;
_chemical_formula_sum "Si O2"
_cell_formula_units_Z 64
_cell_length_a 7.551494
_cell_length_b 10.792375
_cell_length_c 39.762923
_cell_angle_alpha 90.000000
_cell_angle_beta 90.000000
_cell_angle_gamma 90.000000
_cell_volume 3240.620769
_symmetry_space_group_name_H-M "P M N A"
_symmetry_group_IT_number 53
_symmetry_cell_setting 'orthorhombic'
loop_
_space_group_symop_operation_xyz
x,y,z
1/2-x,-y,1/2+z
x,-y,-z
1/2-x,y,1/2-z
-x,-y,-z
1/2+x,y,1/2-z
-x,y,z
1/2+x,-y,1/2+z
loop_
_atom_site_type_symbol
_atom_site_label
_atom_site_fract_x
_atom_site_fract_y
_atom_site_fract_z
Si Si1 0.286612 0.148606 0.535843
Si Si2 0.788128 0.408455 0.712427
Si Si3 0.217395 0.981873 0.356783
Si Si4 0.208649 0.738055 0.395766
Si Si5 0.717598 0.508190 0.858325
Si Si6 0.790611 0.235645 0.389507
Si Si7 0.213418 0.134412 0.039692
Si Si8 0.711585 0.124794 0.787365
O O1 0.500000 0.146173 0.535600
O O2 0.231126 0.243646 0.564508
O O3 0.227537 0.174054 0.497641
O O4 0.225836 0.008396 0.544905
O O5 0.750000 0.455487 0.750000
O O6 0.726819 0.486522 0.680350
O O7 0.719276 0.266466 0.710062
O O8 0.000000 0.401494 0.709570
O O9 0.281494 0.110560 0.372355
O O10 0.000000 0.983699 0.358151
O O11 0.279171 0.862544 0.378041
O O12 0.272974 0.957854 0.318399
O O13 0.277712 0.611137 0.379873
O O14 0.000000 0.737358 0.388248
O O15 0.500000 0.509656 0.859062
O O16 0.780348 0.636652 0.874396
O O17 0.768416 0.219263 0.429424
O O18 0.000000 0.236497 0.382589
O O19 0.000000 0.131559 0.039281
O O20 0.750000 0.077869 0.750000
O O21 0.500000 0.132920 0.790633
#
# Coordination Sequence:
#
# PCOD9414281 Si02
#       8
#     8   8   8   8   8   8   8   8
#     4   9  18  32  50  73  99 127 159 197 243 291
#     4   9  16  29  48  68  92 124 159 194 236 282
#     4   9  16  28  48  71  94 120 155 197 237 278
#     4  10  17  30  51  74  96 123 161 202 239 277
#     4   9  18  32  50  72 101 131 158 197 248 288
#     4  10  19  32  51  74  96 125 165 200 235 286
#     4   9  18  33  50  70 100 131 156 193 248 293
#     4   9  16  28  46  68  94 122 154 194 239 282
#
# _framework density 19.749303999999999
#
# number of rings (size 3 to 8) (size 9 to 14) (size 15 to 20)
#    0.000    2.750    2.500    0.750    0.000    0.500 
#    0.000    5.625    0.000    3.750    0.000    0.000 
#    0.000    0.000    0.000    0.000    0.000    0.000 
#
# Total GULP energy -356942.960543 kJ/mol
# GULP energy per Si atom -5577.233758 kJ/mol
# Density = 1.970435 g / cm^3
# Si number density = 19.749304 Si / 1000 Ang^3
#
#
#
# Elastic Constant Matrix: (Units=GPa)
#
#
# Indices 1 2 3 4 5 6 
#
# 1 43.4022 9.7020 -6.3020 0.0000 0.0000 0.0000
# 2 9.7020 141.4384 104.4463 0.0000 0.0000 0.0000
# 3 -6.3020 104.4463 182.0477 0.0000 0.0000 0.0000
# 4 0.0000 0.0000 0.0000 28.1323 0.0000 0.0000
# 5 0.0000 0.0000 0.0000 0.0000 22.3291 0.0000
# 6 0.0000 0.0000 0.0000 0.0000 0.0000 2.9624
#
#
#
# Elastic Compliance Matrix: (Units=1/GPa)
#
#
# Indices 1 2 3 4 5 6 
#
# 1 0.024385 -0.003984 0.003130 0.000000 0.000000 0.000000
# 2 -0.003984 0.012919 -0.007550 0.000000 0.000000 0.000000
# 3 0.003130 -0.007550 0.009933 0.000000 0.000000 0.000000
# 4 0.000000 0.000000 0.000000 0.035546 0.000000 0.000000
# 5 0.000000 0.000000 0.000000 0.000000 0.044785 0.000000
# 6 0.000000 0.000000 0.000000 0.000000 0.000000 0.337569
#
#
# Mechanical properties :
#
#
# Convention : Reuss Voigt Hill
#
# Bulk Modulus (GPa) = 32.86312 64.73121 48.79716
# Shear Modulus (GPa) = 10.16080 27.95422 19.05751
#
# Velocity S-wave (km/s) = 2.27070 3.76633 3.10977
# Velocity P-wave (km/s) = 4.85294 7.19453 6.13646
#
# Compressibility (1/GPa) = 0.03042925
#
# Stress axis : x y z
#
# Youngs Moduli (GPa) = 41.00820 77.40736 100.67519
#
# Poissons Ratio (x) = 0.30839 -0.31510
# Poissons Ratio (y) = 0.16338 0.76007
# Poissons Ratio (z) = -0.12835 0.58441
#
# Static dielectric constant tensor:
#      x y z
#    x 1.744990 0.000000 0.000000 
#    y 0.000000 1.671480 0.000000 
#    z 0.000000 0.000000 1.704250 
# 
# From -- ./inp_files/38717.got.cif
#   From: 2010.05.17/outbox.cif.g08.bks.cpg/sg53_20_cif.got.tgz:38717.got - 2010.06.03 12:45:16.
