data_PCOD9414406
_publ_section_title
;
Structure prediction by ZEFSAII (Michael W. Deem and Ramdas Pophale) SiO2 
 PCOD9414406
Probable space group: P M N A
;
_chemical_formula_sum "Si O2"
_cell_formula_units_Z 64
_cell_length_a 9.042386
_cell_length_b 18.581280
_cell_length_c 26.994807
_cell_angle_alpha 90.000000
_cell_angle_beta 90.000000
_cell_angle_gamma 90.000000
_cell_volume 4535.643342
_symmetry_space_group_name_H-M "P M N A"
_symmetry_group_IT_number 53
_symmetry_cell_setting 'orthorhombic'
loop_
_space_group_symop_operation_xyz
x,y,z
1/2-x,-y,1/2+z
x,-y,-z
1/2-x,y,1/2-z
-x,-y,-z
1/2+x,y,1/2-z
-x,y,z
1/2+x,-y,1/2+z
loop_
_atom_site_type_symbol
_atom_site_label
_atom_site_fract_x
_atom_site_fract_y
_atom_site_fract_z
Si Si1 0.177296 0.170135 0.697801
Si Si2 0.323460 0.417815 0.604728
Si Si3 0.170343 0.545492 0.551300
Si Si4 0.329606 0.046852 0.449176
Si Si5 0.676290 0.827169 0.003227
Si Si6 0.177585 0.338605 0.696950
Si Si7 0.823704 0.328587 0.996090
Si Si8 0.677182 0.080748 0.897788
O O1 0.250000 0.150893 0.750000
O O2 0.211866 0.254040 0.687102
O O3 0.224821 0.119514 0.652658
O O4 0.000000 0.165149 0.702093
O O5 0.500000 0.422371 0.611119
O O6 0.256378 0.495147 0.589894
O O7 0.246155 0.385443 0.653030
O O8 0.294379 0.365125 0.557668
O O9 0.169701 0.500000 0.500000
O O10 0.252018 0.619100 0.537103
O O11 0.000000 0.557168 0.565898
O O12 0.500000 0.062730 0.437653
O O13 0.240012 0.118861 0.461763
O O14 0.326143 0.000000 0.500000
O O15 0.256054 0.994594 0.408961
O O16 0.500000 0.820064 0.998434
O O17 0.753025 0.749995 0.001806
O O18 0.707334 0.865540 0.056159
O O19 0.250000 0.356435 0.750000
O O20 0.000000 0.346533 0.698938
O O21 0.000000 0.325453 0.002449
O O22 0.500000 0.069809 0.896708
#
# Coordination Sequence:
#
# PCOD9414406 Si02
#       8
#     8   8   8   8   8   8   8   8
#     4   9  18  30  43  60  83 110 142 179 214 248
#     4  10  19  30  44  62  85 114 145 177 215 254
#     4   9  17  29  44  61  82 110 143 176 210 251
#     4   9  17  28  41  59  82 107 137 173 211 250
#     4  10  18  28  43  61  83 112 144 175 209 251
#     4  10  19  31  45  62  85 113 146 182 217 252
#     4  10  19  29  42  62  88 114 142 177 213 251
#     4   9  17  29  43  59  81 111 144 175 209 250
#
# _framework density 14.110457
#
# number of rings (size 3 to 8) (size 9 to 14) (size 15 to 20)
#    0.000    2.500    0.000    3.000    0.000    7.000 
#    0.000    0.000    0.000    0.000    0.000    0.000 
#    0.000    1.000    0.000    8.500    0.000    5.750 
#
# Total GULP energy -356803.290639 kJ/mol
# GULP energy per Si atom -5575.051416 kJ/mol
# Density = 1.407834 g / cm^3
# Si number density = 14.110457 Si / 1000 Ang^3
#
#
#
# Elastic Constant Matrix: (Units=GPa)
#
#
# Indices 1 2 3 4 5 6 
#
# 1 79.3142 65.7894 51.9629 0.0000 0.0000 0.0000
# 2 65.7894 107.0255 58.1413 0.0000 0.0000 0.0000
# 3 51.9629 58.1413 93.7834 0.0000 0.0000 0.0000
# 4 0.0000 0.0000 0.0000 27.3115 0.0000 0.0000
# 5 0.0000 0.0000 0.0000 0.0000 22.7844 0.0000
# 6 0.0000 0.0000 0.0000 0.0000 0.0000 27.2089
#
#
#
# Elastic Compliance Matrix: (Units=1/GPa)
#
#
# Indices 1 2 3 4 5 6 
#
# 1 0.028867 -0.013654 -0.007529 0.000000 0.000000 0.000000
# 2 -0.013654 0.020547 -0.005173 0.000000 0.000000 0.000000
# 3 -0.007529 -0.005173 0.018041 0.000000 0.000000 0.000000
# 4 0.000000 0.000000 0.000000 0.036615 0.000000 0.000000
# 5 0.000000 0.000000 0.000000 0.000000 0.043890 0.000000
# 6 0.000000 0.000000 0.000000 0.000000 0.000000 0.036753
#
#
# Mechanical properties :
#
#
# Convention : Reuss Voigt Hill
#
# Bulk Modulus (GPa) = 67.83022 70.21225 69.02123
# Shear Modulus (GPa) = 20.63219 22.40959 21.52089
#
# Velocity S-wave (km/s) = 3.82801 3.98949 3.90958
# Velocity P-wave (km/s) = 8.22882 8.43139 8.33072
#
# Compressibility (1/GPa) = 0.01474269
#
# Stress axis : x y z
#
# Youngs Moduli (GPa) = 34.64161 48.66863 55.42786
#
# Poissons Ratio (x) = 0.66455 0.41733
# Poissons Ratio (y) = 0.47301 0.28671
# Poissons Ratio (z) = 0.26083 0.25175
#
# Static dielectric constant tensor:
#      x y z
#    x 1.471200 0.000000 0.000000 
#    y 0.000000 1.446700 0.000000 
#    z 0.000000 0.000000 1.441510 
# 
# From -- ./inp_files/34416.got.cif
#   From: 2010.05.17/outbox.cif.g08.bks.cpg/sg53_18_cif.got.tgz:34416.got - 2010.06.03 12:45:16.
