data_PCOD9414004
_publ_section_title
;
Structure prediction by ZEFSAII (Michael W. Deem and Ramdas Pophale) SiO2 
 PCOD9414004
Probable space group: P N N A
;
_chemical_formula_sum "Si O2"
_cell_formula_units_Z 48
_cell_length_a 18.000000
_cell_length_b 9.000000
_cell_length_c 15.000000
_cell_angle_alpha 90.000000
_cell_angle_beta 90.000000
_cell_angle_gamma 90.000000
_cell_volume 2430.000000
_symmetry_space_group_name_H-M "P N N A"
_symmetry_group_IT_number 52
_symmetry_cell_setting 'orthorhombic'
loop_
_space_group_symop_operation_xyz
x,y,z
1/2-x,-y,z
x,1/2-y,1/2-z
1/2-x,1/2+y,1/2-z
-x,-y,-z
1/2+x,y,-z
-x,1/2+y,1/2+z
1/2+x,1/2-y,1/2+z
loop_
_atom_site_type_symbol
_atom_site_label
_atom_site_fract_x
_atom_site_fract_y
_atom_site_fract_z
Si Si1 0.794693 0.640584 0.829582
Si Si2 0.561259 0.174498 0.556738
Si Si3 0.361456 0.925694 0.963589
Si Si4 0.831755 0.925707 0.230947
Si Si5 0.210757 0.728661 0.495879
Si Si6 0.095313 0.561431 0.905146
O O1 0.750000 0.500000 0.794318
O O2 0.809800 0.750000 0.750000
O O3 0.873195 0.616414 0.878717
O O4 0.738435 0.709956 0.902063
O O5 0.579865 0.340073 0.523809
O O6 0.479817 0.158438 0.597993
O O7 0.570935 0.075446 0.467867
O O8 0.377629 0.951977 0.860163
O O9 0.288031 0.819541 0.957978
O O10 0.336763 0.078590 0.008817
O O11 0.824454 0.750000 0.250000
O O12 0.750000 0.000000 0.221892
O O13 0.874687 0.002311 0.312080
O O14 0.162558 0.849087 0.548328
#
# Coordination Sequence:
#
# PCOD9414004 Si02
#       6
#     8   8   8   8   8   8
#     4  11  24  42  66  93 120 164 219 273 309 367
#     4  10  23  44  62  89 130 171 210 245 325 379
#     4  10  21  39  63  95 127 163 209 263 311 376
#     4  12  23  37  63 101 127 160 211 269 314 372
#     4  10  21  41  65  91 123 165 212 258 319 370
#     4  11  23  40  67  91 129 174 202 252 318 391
#
# _framework density 19.753086
#
# number of rings (size 3 to 8) (size 9 to 14) (size 15 to 20)
#    0.000    1.333    5.000    1.000    7.000    0.667 
#    3.000    2.500    0.000    0.000    0.000    0.000 
#    0.000    0.000    0.000    0.000    0.000    0.000 
#
# Total GULP energy -268071.246695 kJ/mol
# GULP energy per Si atom -5584.817639 kJ/mol
# Density = 1.970813 g / cm^3
# Si number density = 19.753086 Si / 1000 Ang^3
#
#
#
# Elastic Constant Matrix: (Units=GPa)
#
#
# Indices 1 2 3 4 5 6 
#
# 1 53.4889 13.1695 28.6128 0.0000 0.0000 0.0000
# 2 13.1695 29.0728 -9.4749 0.0000 0.0000 0.0000
# 3 28.6128 -9.4749 -0.3197 0.0000 0.0000 0.0000
# 4 0.0000 0.0000 0.0000 15.5478 0.0000 0.0000
# 5 0.0000 0.0000 0.0000 0.0000 -0.1615 0.0000
# 6 0.0000 0.0000 0.0000 0.0000 0.0000 25.6264
#
#
#
# Elastic Compliance Matrix: (Units=1/GPa)
#
#
# Indices 1 2 3 4 5 6 
#
# 1 0.002738 0.007376 0.026437 0.000000 0.000000 0.000000
# 2 0.007376 0.023097 -0.024419 0.000000 0.000000 0.000000
# 3 0.026437 -0.024419 -0.038182 0.000000 0.000000 0.000000
# 4 0.000000 0.000000 0.000000 0.064318 0.000000 0.000000
# 5 0.000000 0.000000 0.000000 0.000000 -6.192819 0.000000
# 6 0.000000 0.000000 0.000000 0.000000 0.000000 0.039022
#
#
# Mechanical properties :
#
#
# Convention : Reuss Voigt Hill
#
# Bulk Modulus (GPa) = 155.27678 16.31742 85.79710
# Shear Modulus (GPa) = -0.81720 11.53151 5.35716
#
# Velocity S-wave (km/s) = -0.64390 2.41878 1.64862
# Velocity P-wave (km/s) = 8.84459 4.00990 6.86680
#
# Compressibility (1/GPa) = 0.00644011
#
# Stress axis : x y z
#
# Youngs Moduli (GPa) = 365.25853 43.29526 -26.19056
#
# Poissons Ratio (x) = -0.31933 0.69239
# Poissons Ratio (y) = -2.69400 -0.63954
# Poissons Ratio (z) = -9.65621 1.05722
#
# Static dielectric constant tensor:
#      x y z
#    x 1.676120 0.000000 0.000000 
#    y 0.000000 1.742910 0.000000 
#    z 0.000000 0.000000 1.694830 
# 
# From -- ./inp_files/28087.got.cif
#   From: 2010.05.17/outbox.ucp.g08.bks.cvg/sg52_15_cif.got.tgz:28087.got - 2010.06.11 16:30:12.
