data_PCOD9414689
_publ_section_title
;
Structure prediction by ZEFSAII (Michael W. Deem and Ramdas Pophale) SiO2 
 PCOD9414689
Probable space group: P M N A
;
_chemical_formula_sum "Si O2"
_cell_formula_units_Z 48
_cell_length_a 9.056527
_cell_length_b 15.777576
_cell_length_c 19.973116
_cell_angle_alpha 90.000000
_cell_angle_beta 90.000000
_cell_angle_gamma 90.000000
_cell_volume 2853.959405
_symmetry_space_group_name_H-M "P M N A"
_symmetry_group_IT_number 53
_symmetry_cell_setting 'orthorhombic'
loop_
_space_group_symop_operation_xyz
x,y,z
1/2-x,-y,1/2+z
x,-y,-z
1/2-x,y,1/2-z
-x,-y,-z
1/2+x,y,1/2-z
-x,y,z
1/2+x,-y,1/2+z
loop_
_atom_site_type_symbol
_atom_site_label
_atom_site_fract_x
_atom_site_fract_y
_atom_site_fract_z
Si Si1 0.676256 0.723978 0.452554
Si Si2 0.676273 0.408215 0.179220
Si Si3 0.823723 0.750147 0.889745
Si Si4 0.175332 0.534237 0.075671
Si Si5 0.327318 0.106299 0.930194
Si Si6 0.826031 0.921642 0.591120
O O1 0.500000 0.729379 0.447694
O O2 0.710724 0.728073 0.532196
O O3 0.721338 0.632726 0.424310
O O4 0.745292 0.805946 0.417325
O O5 0.750000 0.429019 0.250000
O O6 0.500000 0.406226 0.183753
O O7 0.739094 0.317500 0.155211
O O8 0.731272 0.476658 0.125177
O O9 0.767474 0.845716 0.877627
O O10 0.000000 0.743296 0.880766
O O11 0.000000 0.527932 0.092251
O O12 0.190844 0.500000 0.000000
O O13 0.500000 0.115312 0.914582
O O14 0.274756 0.018363 0.896749
O O15 0.316228 0.091602 0.010554
O O16 0.000000 0.914541 0.608392
#
# Coordination Sequence:
#
# PCOD9414689 Si02
#       6
#     8   8   8   8   8   8
#     4   9  17  28  47  72 101 135 169 208 258 309
#     4  12  25  39  55  76 103 137 177 220 265 319
#     4  10  18  31  49  72 100 134 170 209 257 308
#     4  10  19  36  56  76 106 139 173 218 268 316
#     4   8  14  24  39  62  98 133 165 206 248 292
#     4   8  14  25  40  63  95 133 167 202 248 294
#
# _framework density 16.818739000000001
#
# number of rings (size 3 to 8) (size 9 to 14) (size 15 to 20)
#    0.000    2.500    1.667    3.000    0.000    2.333 
#    0.000    3.333    0.000    0.000    0.000    1.167 
#    0.000    2.667    0.000    0.000    0.000    0.000 
#
# Total GULP energy -267510.227582 kJ/mol
# GULP energy per Si atom -5573.129741 kJ/mol
# Density = 1.678046 g / cm^3
# Si number density = 16.818739 Si / 1000 Ang^3
#
#
#
# Elastic Constant Matrix: (Units=GPa)
#
#
# Indices 1 2 3 4 5 6 
#
# 1 70.1886 52.2725 35.7840 0.0000 0.0000 0.0000
# 2 52.2725 145.0841 29.1944 0.0000 0.0000 0.0000
# 3 35.7840 29.1944 41.0483 0.0000 0.0000 0.0000
# 4 0.0000 0.0000 0.0000 8.3845 0.0000 0.0000
# 5 0.0000 0.0000 0.0000 0.0000 10.2410 0.0000
# 6 0.0000 0.0000 0.0000 0.0000 0.0000 34.6829
#
#
#
# Elastic Compliance Matrix: (Units=1/GPa)
#
#
# Indices 1 2 3 4 5 6 
#
# 1 0.030114 -0.006497 -0.021631 0.000000 0.000000 0.000000
# 2 -0.006497 0.009445 -0.001054 0.000000 0.000000 0.000000
# 3 -0.021631 -0.001054 0.043968 0.000000 0.000000 0.000000
# 4 0.000000 0.000000 0.000000 0.119268 0.000000 0.000000
# 5 0.000000 0.000000 0.000000 0.000000 0.097647 0.000000
# 6 0.000000 0.000000 0.000000 0.000000 0.000000 0.028833
#
#
# Mechanical properties :
#
#
# Convention : Reuss Voigt Hill
#
# Bulk Modulus (GPa) = 39.74046 54.53589 47.13817
# Shear Modulus (GPa) = 12.62537 19.93301 16.27919
#
# Velocity S-wave (km/s) = 2.74281 3.44636 3.11452
# Velocity P-wave (km/s) = 5.80609 6.95216 6.40481
#
# Compressibility (1/GPa) = 0.02516327
#
# Stress axis : x y z
#
# Youngs Moduli (GPa) = 33.20694 105.87054 22.74373
#
# Poissons Ratio (x) = 0.68786 0.49197
# Poissons Ratio (y) = 0.21575 0.02397
# Poissons Ratio (z) = 0.71831 0.11158
#
# Static dielectric constant tensor:
#      x y z
#    x 1.557940 0.000000 0.000000 
#    y 0.000000 1.607860 0.000000 
#    z 0.000000 0.000000 1.556310 
# 
# From -- ./inp_files/30528.got.cif
#   From: 2010.05.17/outbox.cif.g08.bks.cpg/sg53_16_cif.got.tgz:30528.got - 2010.06.03 12:45:16.
