data_PCOD9414855
_publ_section_title
;
Structure prediction by ZEFSAII (Michael W. Deem and Ramdas Pophale) SiO2 
 PCOD9414855
Probable space group: P M N A
;
_chemical_formula_sum "Si O2"
_cell_formula_units_Z 64
_cell_length_a 18.295247
_cell_length_b 13.431646
_cell_length_c 14.702913
_cell_angle_alpha 90.000000
_cell_angle_beta 90.000000
_cell_angle_gamma 90.000000
_cell_volume 3613.024460
_symmetry_space_group_name_H-M "P M N A"
_symmetry_group_IT_number 53
_symmetry_cell_setting 'orthorhombic'
loop_
_space_group_symop_operation_xyz
x,y,z
1/2-x,-y,1/2+z
x,-y,-z
1/2-x,y,1/2-z
-x,-y,-z
1/2+x,y,1/2-z
-x,y,z
1/2+x,-y,1/2+z
loop_
_atom_site_type_symbol
_atom_site_label
_atom_site_fract_x
_atom_site_fract_y
_atom_site_fract_z
Si Si1 0.419215 0.822992 0.680881
Si Si2 0.912363 0.493777 0.215673
Si Si3 0.776437 0.936897 0.853938
Si Si4 0.086546 0.320428 0.352421
Si Si5 0.724284 0.167818 0.646444
Si Si6 0.868592 0.352531 0.059342
Si Si7 0.085411 0.695061 0.137929
Si Si8 0.216089 0.754062 0.531322
O O1 0.500000 0.865299 0.686624
O O2 0.360010 0.902208 0.651064
O O3 0.402821 0.765449 0.775418
O O4 0.414047 0.735702 0.606969
O O5 0.893861 0.425020 0.302593
O O6 0.875739 0.443873 0.127685
O O7 0.896728 0.611287 0.214160
O O8 0.000000 0.483481 0.203917
O O9 0.750000 0.928312 0.750000
O O10 0.732718 0.858181 0.915896
O O11 0.772760 0.051819 0.881262
O O12 0.141103 0.293285 0.433446
O O13 0.000000 0.322298 0.375482
O O14 0.750000 0.176322 0.750000
O O15 0.643173 0.215003 0.639285
O O16 0.776116 0.225374 0.575635
O O17 0.784643 0.316906 0.055620
O O18 0.900932 0.359905 0.958757
O O19 0.000000 0.723391 0.145168
#
# Coordination Sequence:
#
# PCOD9414855 Si02
#       8
#     8   8   8   8   8   8   8   8
#     4   9  16  26  46  79 113 137 169 218 268 323
#     4   9  17  29  50  80 111 138 169 214 268 320
#     4  10  18  32  54  78 104 140 174 214 273 323
#     4   9  17  31  52  82 111 136 172 222 275 323
#     4  10  23  39  52  72 104 144 186 226 263 319
#     4   9  17  27  48  79 112 139 172 208 269 325
#     4  10  19  34  53  73 104 147 183 216 259 318
#     4  10  19  34  55  79 107 139 177 222 275 326
#
# _framework density 17.713692000000002
#
# number of rings (size 3 to 8) (size 9 to 14) (size 15 to 20)
#    0.000    2.500    1.250    2.625    0.000    1.500 
#    2.250    0.625    0.000    6.750    0.000    2.625 
#    0.000    0.000    0.000    0.000    0.000    0.000 
#
# Total GULP energy -356615.649893 kJ/mol
# GULP energy per Si atom -5572.119530 kJ/mol
# Density = 1.767337 g / cm^3
# Si number density = 17.713692 Si / 1000 Ang^3
#
#
#
# Elastic Constant Matrix: (Units=GPa)
#
#
# Indices 1 2 3 4 5 6 
#
# 1 64.1951 20.5233 28.9748 0.0000 0.0000 0.0000
# 2 20.5233 49.6475 24.6172 0.0000 0.0000 0.0000
# 3 28.9748 24.6172 61.2766 0.0000 0.0000 0.0000
# 4 0.0000 0.0000 0.0000 7.7520 0.0000 0.0000
# 5 0.0000 0.0000 0.0000 0.0000 18.8040 0.0000
# 6 0.0000 0.0000 0.0000 0.0000 0.0000 4.6659
#
#
#
# Elastic Compliance Matrix: (Units=1/GPa)
#
#
# Indices 1 2 3 4 5 6 
#
# 1 0.020614 -0.004606 -0.007897 0.000000 0.000000 0.000000
# 2 -0.004606 0.026181 -0.008340 0.000000 0.000000 0.000000
# 3 -0.007897 -0.008340 0.023404 0.000000 0.000000 0.000000
# 4 0.000000 0.000000 0.000000 0.129000 0.000000 0.000000
# 5 0.000000 0.000000 0.000000 0.000000 0.053180 0.000000
# 6 0.000000 0.000000 0.000000 0.000000 0.000000 0.214320
#
#
# Mechanical properties :
#
#
# Convention : Reuss Voigt Hill
#
# Bulk Modulus (GPa) = 35.07109 35.92776 35.49942
# Shear Modulus (GPa) = 9.65454 12.97796 11.31625
#
# Velocity S-wave (km/s) = 2.33713 2.70969 2.53027
# Velocity P-wave (km/s) = 5.20814 5.48784 5.34982
#
# Compressibility (1/GPa) = 0.02851351
#
# Stress axis : x y z
#
# Youngs Moduli (GPa) = 48.50963 38.19513 42.72723
#
# Poissons Ratio (x) = 0.17592 0.33743
# Poissons Ratio (y) = 0.22343 0.35635
# Poissons Ratio (z) = 0.38309 0.31856
#
# Static dielectric constant tensor:
#      x y z
#    x 1.617460 0.000000 0.000000 
#    y 0.000000 1.620940 0.000000 
#    z 0.000000 0.000000 1.613100 
# 
# From -- ./inp_files/23938.got.cif
#   From: 2010.05.17/outbox.cif.g08.bks.cpg/sg53_12_cif.got.tgz:23938.got - 2010.06.03 12:45:16.
