data_PCOD9414258
_publ_section_title
;
Structure prediction by ZEFSAII (Michael W. Deem and Ramdas Pophale) SiO2 
 PCOD9414258
Probable space group: P M N A
;
_chemical_formula_sum "Si O2"
_cell_formula_units_Z 40
_cell_length_a 22.254794
_cell_length_b 9.829058
_cell_length_c 7.519595
_cell_angle_alpha 90.000000
_cell_angle_beta 90.000000
_cell_angle_gamma 90.000000
_cell_volume 1644.863740
_symmetry_space_group_name_H-M "P M N A"
_symmetry_group_IT_number 53
_symmetry_cell_setting 'orthorhombic'
loop_
_space_group_symop_operation_xyz
x,y,z
1/2-x,-y,1/2+z
x,-y,-z
1/2-x,y,1/2-z
-x,-y,-z
1/2+x,y,1/2-z
-x,y,z
1/2+x,-y,1/2+z
loop_
_atom_site_type_symbol
_atom_site_label
_atom_site_fract_x
_atom_site_fract_y
_atom_site_fract_z
Si Si1 0.394209 0.694841 0.359557
Si Si2 0.433288 0.979493 0.286317
Si Si3 0.570335 0.398757 0.246373
Si Si4 0.217653 0.836818 0.997141
Si Si5 0.156191 0.809947 0.624275
O O1 0.427642 0.818366 0.262659
O O2 0.421545 0.675423 0.560032
O O3 0.403572 0.549202 0.272471
O O4 0.325915 0.749212 0.377937
O O5 0.500000 0.028859 0.241086
O O6 0.424790 0.000000 0.500000
O O7 0.384343 0.059839 0.173396
O O8 0.500000 0.403402 0.203652
O O9 0.610285 0.313989 0.108870
O O10 0.193157 0.788629 0.806787
O O11 0.289410 0.821743 0.014096
O O12 0.207456 0.000000 0.000000
#
# Coordination Sequence:
#
# PCOD9414258 Si02
#       5
#     8   8   8   8   8
#     4  10  17  29  48  74 100 134 164 210 275 307
#     4  11  17  27  48  77 103 128 169 221 270 307
#     4  10  18  29  48  76 106 130 167 217 269 317
#     4  10  18  33  51  69 105 144 178 212 249 322
#     4  10  19  30  51  73 104 143 173 209 260 316
#
# _framework density 24.318125999999999
#
# number of rings (size 3 to 8) (size 9 to 14) (size 15 to 20)
#    0.000    1.800    6.000    3.000    0.000    0.000 
#    0.000    0.000   30.800    2.400    0.000    0.000 
#    0.000    3.200    0.000    0.000    0.000    0.000 
#
# Total GULP energy -223689.616306 kJ/mol
# GULP energy per Si atom -5592.240408 kJ/mol
# Density = 2.426278 g / cm^3
# Si number density = 24.318126 Si / 1000 Ang^3
#
#
#
# Elastic Constant Matrix: (Units=GPa)
#
#
# Indices 1 2 3 4 5 6 
#
# 1 267.2196 96.7328 39.2741 0.0000 0.0000 0.0000
# 2 96.7328 151.3049 -2.6876 0.0000 0.0000 0.0000
# 3 39.2741 -2.6876 53.6857 0.0000 0.0000 0.0000
# 4 0.0000 0.0000 0.0000 10.8713 0.0000 0.0000
# 5 0.0000 0.0000 0.0000 0.0000 -80.4319 0.0000
# 6 0.0000 0.0000 0.0000 0.0000 0.0000 -25.7169
#
#
#
# Elastic Compliance Matrix: (Units=1/GPa)
#
#
# Indices 1 2 3 4 5 6 
#
# 1 0.005746 -0.003751 -0.004391 0.000000 0.000000 0.000000
# 2 -0.003751 0.009064 0.003198 0.000000 0.000000 0.000000
# 3 -0.004391 0.003198 0.021999 0.000000 0.000000 0.000000
# 4 0.000000 0.000000 0.000000 0.091985 0.000000 0.000000
# 5 0.000000 0.000000 0.000000 0.000000 -0.012433 0.000000
# 6 0.000000 0.000000 0.000000 0.000000 0.000000 -0.038885
#
#
# Mechanical properties :
#
#
# Convention : Reuss Voigt Hill
#
# Bulk Modulus (GPa) = 37.14621 82.09431 59.62026
# Shear Modulus (GPa) = 51.90046 3.53724 27.71885
#
# Velocity S-wave (km/s) = 4.62478 1.20736 3.37982
# Velocity P-wave (km/s) = 6.62015 5.98125 6.30880
#
# Compressibility (1/GPa) = 0.02692065
#
# Stress axis : x y z
#
# Youngs Moduli (GPa) = 174.04799 110.32367 45.45600
#
# Poissons Ratio (x) = 0.41385 0.19960
# Poissons Ratio (y) = 0.65290 -0.14537
# Poissons Ratio (z) = 0.76424 -0.35282
#
# Static dielectric constant tensor:
#      x y z
#    x 1.964320 0.000000 0.000000 
#    y 0.000000 1.920360 0.000000 
#    z 0.000000 0.000000 2.003460 
# 
# From -- ./inp_files/24120.got.cif
#   From: 2010.05.17/outbox.cif.g08.bks.cpg/sg53_13_cif.got.tgz:24120.got - 2010.06.03 12:45:16.
