data_PCOD9414191
_publ_section_title
;
Structure prediction by ZEFSAII (Michael W. Deem and Ramdas Pophale) SiO2 
 PCOD9414191
Probable space group: P M N A
;
_chemical_formula_sum "Si O2"
_cell_formula_units_Z 40
_cell_length_a 13.136440
_cell_length_b 9.459210
_cell_length_c 17.266971
_cell_angle_alpha 90.000000
_cell_angle_beta 90.000000
_cell_angle_gamma 90.000000
_cell_volume 2145.599767
_symmetry_space_group_name_H-M "P M N A"
_symmetry_group_IT_number 53
_symmetry_cell_setting 'orthorhombic'
loop_
_space_group_symop_operation_xyz
x,y,z
1/2-x,-y,1/2+z
x,-y,-z
1/2-x,y,1/2-z
-x,-y,-z
1/2+x,y,1/2-z
-x,y,z
1/2+x,-y,1/2+z
loop_
_atom_site_type_symbol
_atom_site_label
_atom_site_fract_x
_atom_site_fract_y
_atom_site_fract_z
Si Si1 0.376094 0.266711 0.370179
Si Si2 0.383890 0.809449 0.203346
Si Si3 0.879899 0.710246 0.043132
Si Si4 0.623382 0.447993 0.697740
Si Si5 0.687372 0.051101 0.639921
O O1 0.500000 0.247238 0.369555
O O2 0.345385 0.320484 0.456256
O O3 0.349296 0.387803 0.308343
O O4 0.323703 0.116164 0.358589
O O5 0.500000 0.813256 0.175522
O O6 0.353592 0.648642 0.227490
O O7 0.374980 0.888961 0.286207
O O8 0.301660 0.888928 0.150917
O O9 0.839540 0.624661 0.117521
O O10 0.858613 0.873100 0.064821
O O11 0.000000 0.683880 0.041937
O O12 0.500000 0.442664 0.694477
#
# Coordination Sequence:
#
# PCOD9414191 Si02
#       5
#     8   8   8   8   8
#     4  10  17  26  46  75  99 118 148 195 241 277
#     4   9  18  33  47  61  89 127 162 192 224 270
#     4   9  16  27  44  69 101 127 146 180 235 290
#     4   8  15  28  46  67  92 122 154 190 234 280
#     4  10  18  28  45  68  94 123 153 187 236 286
#
# _framework density 18.642806
#
# number of rings (size 3 to 8) (size 9 to 14) (size 15 to 20)
#    0.000    2.800    0.000    4.200    0.000    4.000 
#    0.000    8.000    0.000    2.400    0.000    1.400 
#    0.000   16.000    0.000    0.000    0.000    4.800 
#
# Total GULP energy -222743.804531 kJ/mol
# GULP energy per Si atom -5568.595113 kJ/mol
# Density = 1.860037 g / cm^3
# Si number density = 18.642806 Si / 1000 Ang^3
#
#
#
# Elastic Constant Matrix: (Units=GPa)
#
#
# Indices 1 2 3 4 5 6 
#
# 1 50.6970 6.5301 1.8840 0.0000 0.0000 0.0000
# 2 6.5301 114.6583 6.0364 0.0000 0.0000 0.0000
# 3 1.8840 6.0364 31.1814 0.0000 0.0000 0.0000
# 4 0.0000 0.0000 0.0000 13.2094 0.0000 0.0000
# 5 0.0000 0.0000 0.0000 0.0000 16.4529 0.0000
# 6 0.0000 0.0000 0.0000 0.0000 0.0000 11.0304
#
#
#
# Elastic Compliance Matrix: (Units=1/GPa)
#
#
# Indices 1 2 3 4 5 6 
#
# 1 0.019901 -0.001081 -0.000993 0.000000 0.000000 0.000000
# 2 -0.001081 0.008870 -0.001652 0.000000 0.000000 0.000000
# 3 -0.000993 -0.001652 0.032450 0.000000 0.000000 0.000000
# 4 0.000000 0.000000 0.000000 0.075704 0.000000 0.000000
# 5 0.000000 0.000000 0.000000 0.000000 0.060779 0.000000
# 6 0.000000 0.000000 0.000000 0.000000 0.000000 0.090659
#
#
# Mechanical properties :
#
#
# Convention : Reuss Voigt Hill
#
# Bulk Modulus (GPa) = 18.59802 25.04865 21.82333
# Shear Modulus (GPa) = 15.93684 20.27762 18.10723
#
# Velocity S-wave (km/s) = 2.92696 3.30159 3.11990
# Velocity P-wave (km/s) = 4.62822 5.29144 4.97090
#
# Compressibility (1/GPa) = 0.05376917
#
# Stress axis : x y z
#
# Youngs Moduli (GPa) = 50.24824 112.73824 30.81651
#
# Poissons Ratio (x) = 0.12189 0.03061
# Poissons Ratio (y) = 0.05433 0.05090
# Poissons Ratio (z) = 0.04990 0.18622
#
# Static dielectric constant tensor:
#      x y z
#    x 1.673360 0.000000 0.000000 
#    y 0.000000 1.722210 0.000000 
#    z 0.000000 0.000000 1.670360 
# 
# From -- ./inp_files/28048.got.cif
#   From: 2010.05.17/outbox.cif.g08.bks.cpg/sg53_15_cif.got.tgz:28048.got - 2010.06.03 12:45:16.
