data_PCOD9414943
_publ_section_title
;
Structure prediction by ZEFSAII (Michael W. Deem and Ramdas Pophale) SiO2 
 PCOD9414943
Probable space group: P M N A
;
_chemical_formula_sum "Si O2"
_cell_formula_units_Z 48
_cell_length_a 8.638299
_cell_length_b 9.843522
_cell_length_c 31.114437
_cell_angle_alpha 90.000000
_cell_angle_beta 90.000000
_cell_angle_gamma 90.000000
_cell_volume 2645.700599
_symmetry_space_group_name_H-M "P M N A"
_symmetry_group_IT_number 53
_symmetry_cell_setting 'orthorhombic'
loop_
_space_group_symop_operation_xyz
x,y,z
1/2-x,-y,1/2+z
x,-y,-z
1/2-x,y,1/2-z
-x,-y,-z
1/2+x,y,1/2-z
-x,y,z
1/2+x,-y,1/2+z
loop_
_atom_site_type_symbol
_atom_site_label
_atom_site_fract_x
_atom_site_fract_y
_atom_site_fract_z
Si Si1 0.313719 0.522566 0.369958
Si Si2 0.816864 0.183056 0.613706
Si Si3 0.684605 0.677783 0.797707
Si Si4 0.685404 0.095830 0.356595
Si Si5 0.184798 0.151709 0.981045
Si Si6 0.187514 0.294951 0.065624
O O1 0.500000 0.527927 0.369502
O O2 0.244924 0.671959 0.370710
O O3 0.255869 0.435269 0.329506
O O4 0.265182 0.436326 0.412488
O O5 0.770486 0.168236 0.563711
O O6 0.000000 0.174747 0.618710
O O7 0.738113 0.058190 0.638604
O O8 0.750000 0.662671 0.750000
O O9 0.500000 0.667596 0.797762
O O10 0.736965 0.821563 0.818013
O O11 0.500000 0.104819 0.352635
O O12 0.730136 0.176592 0.400459
O O13 0.000000 0.171230 0.973428
O O14 0.239756 0.255757 0.018029
O O15 0.203402 0.000000 0.000000
O O16 0.000000 0.294906 0.063768
#
# Coordination Sequence:
#
# PCOD9414943 Si02
#       6
#     8   8   8   8   8   8
#     4  10  21  39  60  83 114 157 199 240 290 349
#     4  12  24  36  52  83 121 156 193 245 300 344
#     4  11  22  40  65  94 120 148 184 230 282 345
#     4  10  19  37  61  85 112 150 193 236 283 342
#     4  10  18  33  56  80 109 152 202 249 291 344
#     4   8  16  32  56  81 105 144 198 243 282 335
#
# _framework density 18.142641999999999
#
# number of rings (size 3 to 8) (size 9 to 14) (size 15 to 20)
#    0.000    1.833    1.667    5.000    0.000    1.000 
#    0.000    5.833    0.000    0.000    0.000    0.000 
#    0.000    0.000    0.000    0.000    0.000    0.000 
#
# Total GULP energy -268079.042572 kJ/mol
# GULP energy per Si atom -5584.980054 kJ/mol
# Density = 1.810135 g / cm^3
# Si number density = 18.142642 Si / 1000 Ang^3
#
#
#
# Elastic Constant Matrix: (Units=GPa)
#
#
# Indices 1 2 3 4 5 6 
#
# 1 55.9649 4.3287 7.7315 0.0000 0.0000 0.0000
# 2 4.3287 93.7053 10.0564 0.0000 0.0000 0.0000
# 3 7.7315 10.0564 66.9545 0.0000 0.0000 0.0000
# 4 0.0000 0.0000 0.0000 14.0446 0.0000 0.0000
# 5 0.0000 0.0000 0.0000 0.0000 27.7935 0.0000
# 6 0.0000 0.0000 0.0000 0.0000 0.0000 27.3993
#
#
#
# Elastic Compliance Matrix: (Units=1/GPa)
#
#
# Indices 1 2 3 4 5 6 
#
# 1 0.018194 -0.000625 -0.002007 0.000000 0.000000 0.000000
# 2 -0.000625 0.010868 -0.001560 0.000000 0.000000 0.000000
# 3 -0.002007 -0.001560 0.015402 0.000000 0.000000 0.000000
# 4 0.000000 0.000000 0.000000 0.071202 0.000000 0.000000
# 5 0.000000 0.000000 0.000000 0.000000 0.035980 0.000000
# 6 0.000000 0.000000 0.000000 0.000000 0.000000 0.036497
#
#
# Mechanical properties :
#
#
# Convention : Reuss Voigt Hill
#
# Bulk Modulus (GPa) = 27.71691 28.98421 28.35056
# Shear Modulus (GPa) = 23.97467 26.81467 25.39467
#
# Velocity S-wave (km/s) = 3.63912 3.84864 3.74535
# Velocity P-wave (km/s) = 5.74178 5.97995 5.86207
#
# Compressibility (1/GPa) = 0.03607906
#
# Stress axis : x y z
#
# Youngs Moduli (GPa) = 54.96332 92.01264 64.92829
#
# Poissons Ratio (x) = 0.05751 0.13031
# Poissons Ratio (y) = 0.03436 0.10130
# Poissons Ratio (z) = 0.11031 0.14356
#
# Static dielectric constant tensor:
#      x y z
#    x 1.608390 0.000000 0.000000 
#    y 0.000000 1.617520 0.000000 
#    z 0.000000 0.000000 1.608220 
# 
# From -- ./inp_files/37686.got.cif
#   From: 2010.05.17/outbox.cif.g08.bks.cpg/sg53_19_cif.got.tgz:37686.got - 2010.06.03 12:45:16.
