data_PCOD9414778
_publ_section_title
;
Structure prediction by ZEFSAII (Michael W. Deem and Ramdas Pophale) SiO2 
 PCOD9414778
Probable space group: P M N A
;
_chemical_formula_sum "Si O2"
_cell_formula_units_Z 64
_cell_length_a 16.829864
_cell_length_b 11.759854
_cell_length_c 16.229450
_cell_angle_alpha 90.000000
_cell_angle_beta 90.000000
_cell_angle_gamma 90.000000
_cell_volume 3212.079892
_symmetry_space_group_name_H-M "P M N A"
_symmetry_group_IT_number 53
_symmetry_cell_setting 'orthorhombic'
loop_
_space_group_symop_operation_xyz
x,y,z
1/2-x,-y,1/2+z
x,-y,-z
1/2-x,y,1/2-z
-x,-y,-z
1/2+x,y,1/2-z
-x,y,z
1/2+x,-y,1/2+z
loop_
_atom_site_type_symbol
_atom_site_label
_atom_site_fract_x
_atom_site_fract_y
_atom_site_fract_z
Si Si1 0.711775 0.819418 0.063749
Si Si2 0.087581 0.892668 0.559661
Si Si3 0.410683 0.185462 0.787886
Si Si4 0.169807 0.393323 0.304636
Si Si5 0.093404 0.845704 0.737732
Si Si6 0.233675 0.559076 0.082795
Si Si7 0.685164 0.972800 0.323645
Si Si8 0.413603 0.571521 0.295098
O O1 0.645161 0.827264 0.134175
O O2 0.741965 0.689894 0.068489
O O3 0.774816 0.917272 0.094326
O O4 0.666617 0.833993 0.976759
O O5 0.096536 0.924677 0.655602
O O6 0.000000 0.832722 0.553936
O O7 0.082389 0.000000 0.500000
O O8 0.500000 0.154111 0.808983
O O9 0.380464 0.115586 0.709075
O O10 0.407742 0.316244 0.759980
O O11 0.250000 0.389368 0.250000
O O12 0.135361 0.266006 0.300629
O O13 0.198864 0.472519 0.381060
O O14 0.099451 0.464260 0.262925
O O15 0.000000 0.828730 0.758358
O O16 0.142139 0.904170 0.812799
O O17 0.160562 0.567322 0.144840
O O18 0.205699 0.500000 0.000000
O O19 0.750000 0.973529 0.250000
O O20 0.500000 0.570212 0.335828
#
# Coordination Sequence:
#
# PCOD9414778 Si02
#       8
#     8   8   8   8   8   8   8   8
#     4  11  20  35  57  85 118 153 200 244 294 350
#     4  10  21  36  53  79 118 157 188 231 297 362
#     4  10  18  31  54  82 111 142 190 247 287 329
#     4  10  21  37  59  83 117 153 199 238 292 349
#     4  11  22  38  56  83 121 156 194 237 289 359
#     4  11  22  37  57  86 121 156 196 247 300 359
#     4  10  20  32  56  84 112 145 198 245 289 336
#     4  10  20  36  58  82 112 152 197 245 291 337
#
# _framework density 19.924785
#
# number of rings (size 3 to 8) (size 9 to 14) (size 15 to 20)
#    0.000    1.625    2.500    3.750    0.000    1.250 
#    0.000    0.000    0.000    3.000    0.000    0.000 
#    0.000   27.500    0.000    0.000    0.000    0.000 
#
# Total GULP energy -356446.964705 kJ/mol
# GULP energy per Si atom -5569.483824 kJ/mol
# Density = 1.987944 g / cm^3
# Si number density = 19.924785 Si / 1000 Ang^3
#
#
#
# Elastic Constant Matrix: (Units=GPa)
#
#
# Indices 1 2 3 4 5 6 
#
# 1 83.9863 27.9589 13.5835 0.0000 0.0000 0.0000
# 2 27.9589 101.3372 7.5828 0.0000 0.0000 0.0000
# 3 13.5835 7.5828 36.4600 0.0000 0.0000 0.0000
# 4 0.0000 0.0000 0.0000 17.5603 0.0000 0.0000
# 5 0.0000 0.0000 0.0000 0.0000 22.5559 0.0000
# 6 0.0000 0.0000 0.0000 0.0000 0.0000 49.6153
#
#
#
# Elastic Compliance Matrix: (Units=1/GPa)
#
#
# Indices 1 2 3 4 5 6 
#
# 1 0.013775 -0.003471 -0.004410 0.000000 0.000000 0.000000
# 2 -0.003471 0.010898 -0.000974 0.000000 0.000000 0.000000
# 3 -0.004410 -0.000974 0.029273 0.000000 0.000000 0.000000
# 4 0.000000 0.000000 0.000000 0.056947 0.000000 0.000000
# 5 0.000000 0.000000 0.000000 0.000000 0.044334 0.000000
# 6 0.000000 0.000000 0.000000 0.000000 0.000000 0.020155
#
#
# Mechanical properties :
#
#
# Convention : Reuss Voigt Hill
#
# Bulk Modulus (GPa) = 27.59564 35.55932 31.57748
# Shear Modulus (GPa) = 24.36990 29.45684 26.91337
#
# Velocity S-wave (km/s) = 3.50107 3.84917 3.67924
# Velocity P-wave (km/s) = 5.49757 6.13517 5.82510
#
# Compressibility (1/GPa) = 0.03623761
#
# Stress axis : x y z
#
# Youngs Moduli (GPa) = 72.59329 91.75629 34.16128
#
# Poissons Ratio (x) = 0.31845 0.15066
# Poissons Ratio (y) = 0.25194 0.03326
# Poissons Ratio (z) = 0.32016 0.08933
#
# Static dielectric constant tensor:
#      x y z
#    x 1.735820 0.000000 0.000000 
#    y 0.000000 1.798790 0.000000 
#    z 0.000000 0.000000 1.716490 
# 
# From -- ./inp_files/28540.got.cif
#   From: 2010.05.17/outbox.cif.g08.bks.cpg/sg53_15_cif.got.tgz:28540.got - 2010.06.03 12:45:16.
