data_PCOD9414472
_publ_section_title
;
Structure prediction by ZEFSAII (Michael W. Deem and Ramdas Pophale) SiO2 
 PCOD9414472
Probable space group: P M N A
;
_chemical_formula_sum "Si O2"
_cell_formula_units_Z 64
_cell_length_a 8.006643
_cell_length_b 15.408647
_cell_length_c 30.889508
_cell_angle_alpha 90.000000
_cell_angle_beta 90.000000
_cell_angle_gamma 90.000000
_cell_volume 3810.886037
_symmetry_space_group_name_H-M "P M N A"
_symmetry_group_IT_number 53
_symmetry_cell_setting 'orthorhombic'
loop_
_space_group_symop_operation_xyz
x,y,z
1/2-x,-y,1/2+z
x,-y,-z
1/2-x,y,1/2-z
-x,-y,-z
1/2+x,y,1/2-z
-x,y,z
1/2+x,-y,1/2+z
loop_
_atom_site_type_symbol
_atom_site_label
_atom_site_fract_x
_atom_site_fract_y
_atom_site_fract_z
Si Si1 0.795094 0.324053 0.038704
Si Si2 0.798737 0.537385 0.891056
Si Si3 0.301610 0.369950 0.556566
Si Si4 0.299007 0.294900 0.797031
Si Si5 0.298623 0.052779 0.563562
Si Si6 0.698321 0.211518 0.885101
Si Si7 0.698407 0.506457 0.202840
Si Si8 0.296380 0.127093 0.469938
O O1 0.741981 0.383126 0.078868
O O2 0.740116 0.223859 0.041044
O O3 0.000000 0.323871 0.038066
O O4 0.738412 0.364230 0.992693
O O5 0.734856 0.448014 0.913479
O O6 0.751293 0.541672 0.840801
O O7 0.000000 0.535548 0.892577
O O8 0.500000 0.384256 0.553062
O O9 0.273671 0.278359 0.580097
O O10 0.250000 0.260687 0.750000
O O11 0.500000 0.297989 0.798808
O O12 0.239048 0.239758 0.837827
O O13 0.234325 0.394204 0.800441
O O14 0.500000 0.053147 0.564031
O O15 0.237473 0.113400 0.601928
O O16 0.246214 0.099019 0.518494
O O17 0.243422 0.952644 0.560749
O O18 0.500000 0.224182 0.886412
O O19 0.750000 0.471466 0.250000
O O20 0.500000 0.511276 0.202714
O O21 0.500000 0.128293 0.469745
#
# Coordination Sequence:
#
# PCOD9414472 Si02
#       8
#     8   8   8   8   8   8   8   8
#     4   9  16  28  46  68  94 124 160 199 228 259
#     4  10  19  29  46  71  94 122 159 194 232 273
#     4  10  18  29  45  65  92 128 164 191 216 263
#     4   9  19  32  46  64  88 118 150 185 227 274
#     4   9  16  28  47  68  87 118 158 190 224 268
#     4  11  20  30  44  67  96 123 150 188 235 278
#     4  10  19  33  49  66  91 120 153 192 233 277
#     4   8  14  26  46  68  90 116 155 198 225 255
#
# _framework density 16.793994999999999
#
# number of rings (size 3 to 8) (size 9 to 14) (size 15 to 20)
#    0.000    2.500    2.500    1.875    0.000    3.000 
#    0.000    1.875    0.000    1.500    0.000    0.875 
#    0.000    2.000    0.000    0.000    0.000    0.000 
#
# Total GULP energy -356762.129605 kJ/mol
# GULP energy per Si atom -5574.408275 kJ/mol
# Density = 1.675577 g / cm^3
# Si number density = 16.793995 Si / 1000 Ang^3
#
#
#
# Elastic Constant Matrix: (Units=GPa)
#
#
# Indices 1 2 3 4 5 6 
#
# 1 11.8517 6.3931 10.7880 0.0000 0.0000 0.0000
# 2 6.3931 80.3337 57.8556 0.0000 0.0000 0.0000
# 3 10.7880 57.8556 149.7524 0.0000 0.0000 0.0000
# 4 0.0000 0.0000 0.0000 22.1813 0.0000 0.0000
# 5 0.0000 0.0000 0.0000 0.0000 16.0029 0.0000
# 6 0.0000 0.0000 0.0000 0.0000 0.0000 10.9473
#
#
#
# Elastic Compliance Matrix: (Units=1/GPa)
#
#
# Indices 1 2 3 4 5 6 
#
# 1 0.090999 -0.003492 -0.005206 0.000000 0.000000 0.000000
# 2 -0.003492 0.017381 -0.006463 0.000000 0.000000 0.000000
# 3 -0.005206 -0.006463 0.009550 0.000000 0.000000 0.000000
# 4 0.000000 0.000000 0.000000 0.045083 0.000000 0.000000
# 5 0.000000 0.000000 0.000000 0.000000 0.062489 0.000000
# 6 0.000000 0.000000 0.000000 0.000000 0.000000 0.091347
#
#
# Mechanical properties :
#
#
# Convention : Reuss Voigt Hill
#
# Bulk Modulus (GPa) = 11.41475 43.55679 27.48577
# Shear Modulus (GPa) = 13.28465 20.95303 17.11884
#
# Velocity S-wave (km/s) = 2.81559 3.53604 3.19618
# Velocity P-wave (km/s) = 4.16914 6.53174 5.47930
#
# Compressibility (1/GPa) = 0.08760595
#
# Stress axis : x y z
#
# Youngs Moduli (GPa) = 10.98911 57.53458 104.71416
#
# Poissons Ratio (x) = 0.20093 0.54517
# Poissons Ratio (y) = 0.03838 0.67681
# Poissons Ratio (z) = 0.05721 0.37187
#
# Static dielectric constant tensor:
#      x y z
#    x 1.604190 0.000000 0.000000 
#    y 0.000000 1.568680 0.000000 
#    z 0.000000 0.000000 1.569660 
# 
# From -- ./inp_files/38409.got.cif
#   From: 2010.05.17/outbox.cif.g08.bks.cpg/sg53_20_cif.got.tgz:38409.got - 2010.06.03 12:45:16.
