data_PCOD9414041
_publ_section_title
;
Structure prediction by ZEFSAII (Michael W. Deem and Ramdas Pophale) SiO2 
 PCOD9414041
Probable space group: P N N A
;
_chemical_formula_sum "Si O2"
_cell_formula_units_Z 48
_cell_length_a 9.000000
_cell_length_b 15.000000
_cell_length_c 18.000000
_cell_angle_alpha 90.000000
_cell_angle_beta 90.000000
_cell_angle_gamma 90.000000
_cell_volume 2430.000000
_symmetry_space_group_name_H-M "P N N A"
_symmetry_group_IT_number 52
_symmetry_cell_setting 'orthorhombic'
loop_
_space_group_symop_operation_xyz
x,y,z
1/2-x,-y,z
x,1/2-y,1/2-z
1/2-x,1/2+y,1/2-z
-x,-y,-z
1/2+x,y,-z
-x,1/2+y,1/2+z
1/2+x,1/2-y,1/2+z
loop_
_atom_site_type_symbol
_atom_site_label
_atom_site_fract_x
_atom_site_fract_y
_atom_site_fract_z
Si Si1 0.713352 0.236077 0.073157
Si Si2 0.422821 0.652325 0.711057
Si Si3 0.856729 0.926577 0.358324
Si Si4 0.066550 0.240642 0.083219
Si Si5 0.738191 0.348471 0.714535
Si Si6 0.126966 0.441027 0.138887
O O1 0.654950 0.165859 0.133099
O O2 0.653144 0.333799 0.098654
O O3 0.890377 0.234419 0.075393
O O4 0.649657 0.218875 0.992529
O O5 0.430008 0.750000 0.750000
O O6 0.330526 0.596567 0.771506
O O7 0.592741 0.622086 0.698532
O O8 0.750000 0.000000 0.391982
O O9 0.005010 0.982886 0.356630
O O10 0.132429 0.173438 0.145138
O O11 0.095407 0.345520 0.102159
O O12 0.752293 0.250000 0.750000
O O13 0.671759 0.411937 0.777551
O O14 0.250000 0.500000 0.097745
#
# Coordination Sequence:
#
# PCOD9414041 Si02
#       6
#     8   8   8   8   8   8
#     4  11  24  38  57  82 116 156 190 232 279 337
#     4   9  19  36  58  80 111 149 190 230 274 333
#     4  11  22  37  58  89 118 144 186 236 287 333
#     4  11  24  38  57  82 116 154 193 229 280 340
#     4   9  19  36  58  81 109 149 193 229 273 334
#     4  11  22  37  60  88 115 148 185 234 288 337
#
# _framework density 19.753086
#
# number of rings (size 3 to 8) (size 9 to 14) (size 15 to 20)
#    0.000    1.667    3.333    1.000    7.000    3.333 
#    0.000    0.000    0.000    2.000    0.000    0.000 
#    0.000    0.000    0.000    0.000    0.000    0.000 
#
# Total GULP energy -267283.289041 kJ/mol
# GULP energy per Si atom -5568.401855 kJ/mol
# Density = 1.970813 g / cm^3
# Si number density = 19.753086 Si / 1000 Ang^3
#
#
#
# Elastic Constant Matrix: (Units=GPa)
#
#
# Indices 1 2 3 4 5 6 
#
# 1 71.7577 2.8194 38.5801 0.0000 0.0000 0.0000
# 2 2.8194 1.0212 -13.1757 0.0000 0.0000 0.0000
# 3 38.5801 -13.1757 93.0934 0.0000 0.0000 0.0000
# 4 0.0000 0.0000 0.0000 18.7546 0.0000 0.0000
# 5 0.0000 0.0000 0.0000 0.0000 25.3194 0.0000
# 6 0.0000 0.0000 0.0000 0.0000 0.0000 58.3501
#
#
#
# Elastic Compliance Matrix: (Units=1/GPa)
#
#
# Indices 1 2 3 4 5 6 
#
# 1 0.007298 0.071623 0.007113 0.000000 0.000000 0.000000
# 2 0.071623 -0.482426 -0.097961 0.000000 0.000000 0.000000
# 3 0.007113 -0.097961 -0.006070 0.000000 0.000000 0.000000
# 4 0.000000 0.000000 0.000000 0.053320 0.000000 0.000000
# 5 0.000000 0.000000 0.000000 0.000000 0.039495 0.000000
# 6 0.000000 0.000000 0.000000 0.000000 0.000000 0.017138
#
#
# Mechanical properties :
#
#
# Convention : Reuss Voigt Hill
#
# Bulk Modulus (GPa) = -1.92437 24.70221 11.38892
# Shear Modulus (GPa) = -9.88120 29.66139 9.89009
#
# Velocity S-wave (km/s) = -2.23902 3.87926 2.24003
# Velocity P-wave (km/s) = 2.76778 5.70943 3.53107
#
# Compressibility (1/GPa) = -0.51964953
#
# Stress axis : x y z
#
# Youngs Moduli (GPa) = 137.03140 -2.07286 -164.73431
#
# Poissons Ratio (x) = 0.14846 1.17170
# Poissons Ratio (y) = -9.81461 -16.13755
# Poissons Ratio (z) = -0.97466 -0.20306
#
# Static dielectric constant tensor:
#      x y z
#    x 1.687040 0.000000 0.000000 
#    y 0.000000 1.649290 0.000000 
#    z 0.000000 0.000000 1.675390 
# 
# From -- ./inp_files/31205.got.cif
#   From: 2010.05.17/outbox.ucp.g08.bks.cvg/sg52_16_cif.got.tgz:31205.got - 2010.06.11 16:30:12.
