data_PCOD9414181
_publ_section_title
;
Structure prediction by ZEFSAII (Michael W. Deem and Ramdas Pophale) SiO2 
 PCOD9414181
Probable space group: P M N A
;
_chemical_formula_sum "Si O2"
_cell_formula_units_Z 32
_cell_length_a 8.652301
_cell_length_b 22.027888
_cell_length_c 9.351539
_cell_angle_alpha 90.000000
_cell_angle_beta 90.000000
_cell_angle_gamma 90.000000
_cell_volume 1782.327748
_symmetry_space_group_name_H-M "P M N A"
_symmetry_group_IT_number 53
_symmetry_cell_setting 'orthorhombic'
loop_
_space_group_symop_operation_xyz
x,y,z
1/2-x,-y,1/2+z
x,-y,-z
1/2-x,y,1/2-z
-x,-y,-z
1/2+x,y,1/2-z
-x,y,z
1/2+x,-y,1/2+z
loop_
_atom_site_type_symbol
_atom_site_label
_atom_site_fract_x
_atom_site_fract_y
_atom_site_fract_z
Si Si1 0.314905 0.559724 0.589607
Si Si2 0.815881 0.314819 0.412729
Si Si3 0.814661 0.190843 0.087563
Si Si4 0.186493 0.057732 0.089696
O O1 0.274748 0.500000 0.500000
O O2 0.250000 0.553178 0.750000
O O3 0.500000 0.565628 0.596152
O O4 0.245827 0.621924 0.524749
O O5 0.750000 0.315029 0.250000
O O6 0.755521 0.251862 0.479731
O O7 0.000000 0.314717 0.407794
O O8 0.750000 0.188853 0.250000
O O9 0.772702 0.124390 0.026845
O O10 0.000000 0.196625 0.091877
O O11 0.250000 0.053919 0.250000
O O12 0.000000 0.055829 0.096142
O O13 0.241593 0.000000 0.000000
#
# Coordination Sequence:
#
# PCOD9414181 Si02
#       4
#     8   8   8   8
#     4  10  20  33  50  72  97 125 156 190 231 277
#     4  10  17  26  43  66  92 119 152 192 231 271
#     4   9  15  25  42  63  89 117 149 190 232 272
#     4   9  18  31  47  69  95 123 155 191 232 277
#
# _framework density 17.954048
#
# number of rings (size 3 to 8) (size 9 to 14) (size 15 to 20)
#    0.000    2.500    0.000    6.750    0.000    3.500 
#    0.000    0.000    0.000    1.500    0.000    3.500 
#    0.000    0.000    0.000    0.000    0.000    0.000 
#
# Total GULP energy -178228.678738 kJ/mol
# GULP energy per Si atom -5569.646211 kJ/mol
# Density = 1.791318 g / cm^3
# Si number density = 17.954048 Si / 1000 Ang^3
#
#
#
# Elastic Constant Matrix: (Units=GPa)
#
#
# Indices 1 2 3 4 5 6 
#
# 1 76.7506 69.8999 11.0762 0.0000 0.0000 0.0000
# 2 69.8999 241.3212 43.6743 0.0000 0.0000 0.0000
# 3 11.0762 43.6743 19.2107 0.0000 0.0000 0.0000
# 4 0.0000 0.0000 0.0000 23.1475 0.0000 0.0000
# 5 0.0000 0.0000 0.0000 0.0000 13.1572 0.0000
# 6 0.0000 0.0000 0.0000 0.0000 0.0000 37.8830
#
#
#
# Elastic Compliance Matrix: (Units=1/GPa)
#
#
# Indices 1 2 3 4 5 6 
#
# 1 0.017767 -0.005594 0.002474 0.000000 0.000000 0.000000
# 2 -0.005594 0.008802 -0.016786 0.000000 0.000000 0.000000
# 3 0.002474 -0.016786 0.088789 0.000000 0.000000 0.000000
# 4 0.000000 0.000000 0.000000 0.043201 0.000000 0.000000
# 5 0.000000 0.000000 0.000000 0.000000 0.076004 0.000000
# 6 0.000000 0.000000 0.000000 0.000000 0.000000 0.026397
#
#
# Mechanical properties :
#
#
# Convention : Reuss Voigt Hill
#
# Bulk Modulus (GPa) = 13.23688 65.17592 39.20640
# Shear Modulus (GPa) = 15.33959 29.01301 22.17630
#
# Velocity S-wave (km/s) = 2.92615 4.02426 3.51831
# Velocity P-wave (km/s) = 4.33649 7.61402 6.19590
#
# Compressibility (1/GPa) = 0.07554648
#
# Stress axis : x y z
#
# Youngs Moduli (GPa) = 56.28456 113.60999 11.26266
#
# Poissons Ratio (x) = 0.63553 -0.02786
# Poissons Ratio (y) = 0.31486 0.18905
# Poissons Ratio (z) = -0.13924 1.90701
#
# Static dielectric constant tensor:
#      x y z
#    x 1.600630 0.000000 0.000000 
#    y 0.000000 1.716980 0.000000 
#    z 0.000000 0.000000 1.588270 
# 
# From -- ./inp_files/13862.got.cif
#   From: 2010.05.17/outbox.cif.g08.bks.cpg/sg53_7_cif.got.tgz:13862.got - 2010.06.03 12:45:16.
