data_PCOD9414633
_publ_section_title
;
Structure prediction by ZEFSAII (Michael W. Deem and Ramdas Pophale) SiO2 
 PCOD9414633
Probable space group: P M N A
;
_chemical_formula_sum "Si O2"
_cell_formula_units_Z 64
_cell_length_a 8.725032
_cell_length_b 25.707279
_cell_length_c 14.587190
_cell_angle_alpha 90.000000
_cell_angle_beta 90.000000
_cell_angle_gamma 90.000000
_cell_volume 3271.860503
_symmetry_space_group_name_H-M "P M N A"
_symmetry_group_IT_number 53
_symmetry_cell_setting 'orthorhombic'
loop_
_space_group_symop_operation_xyz
x,y,z
1/2-x,-y,1/2+z
x,-y,-z
1/2-x,y,1/2-z
-x,-y,-z
1/2+x,y,1/2-z
-x,y,z
1/2+x,-y,1/2+z
loop_
_atom_site_type_symbol
_atom_site_label
_atom_site_fract_x
_atom_site_fract_y
_atom_site_fract_z
Si Si1 0.185145 0.376974 0.543482
Si Si2 0.683400 0.976751 0.646152
Si Si3 0.684731 0.597482 0.847064
Si Si4 0.181296 0.719875 0.149645
Si Si5 0.682831 0.812257 0.032293
Si Si6 0.184430 0.477335 0.652412
Si Si7 0.183870 0.132578 0.351729
Si Si8 0.317066 0.916702 0.147520
O O1 0.231789 0.371193 0.437419
O O2 0.255836 0.334061 0.609050
O O3 0.228366 0.434890 0.577217
O O4 0.000000 0.373192 0.548247
O O5 0.750000 0.978596 0.750000
O O6 0.500000 0.975174 0.646635
O O7 0.750858 0.922436 0.611285
O O8 0.741733 0.031174 0.605455
O O9 0.750000 0.615433 0.750000
O O10 0.500000 0.597950 0.842568
O O11 0.733934 0.537048 0.861254
O O12 0.250000 0.730009 0.250000
O O13 0.231029 0.765305 0.080371
O O14 0.000000 0.717601 0.157464
O O15 0.500000 0.802202 0.037027
O O16 0.712551 0.865324 0.088593
O O17 0.723187 0.823770 0.926591
O O18 0.250000 0.459927 0.750000
O O19 0.000000 0.478026 0.655768
O O20 0.250000 0.141579 0.250000
O O21 0.000000 0.128245 0.346013
O O22 0.250000 0.909151 0.250000
O O23 0.500000 0.924730 0.153824
#
# Coordination Sequence:
#
# PCOD9414633 Si02
#       8
#     8   8   8   8   8   8   8   8
#     4  10  20  36  58  82 113 152 194 236 280 332
#     4  10  18  30  50  78 112 148 183 221 268 325
#     4   9  18  33  54  82 117 155 192 234 281 330
#     4  12  26  43  64  87 114 144 181 229 279 332
#     4  10  23  41  61  83 109 144 186 231 282 334
#     4   9  17  30  51  81 115 152 191 231 280 334
#     4  10  20  37  59  83 112 145 182 227 276 329
#     4  10  19  33  53  79 110 144 181 223 273 330
#
# _framework density 19.560735999999999
#
# number of rings (size 3 to 8) (size 9 to 14) (size 15 to 20)
#    0.000    2.000    0.000    5.625    0.000    7.000 
#    0.000    3.125    0.000    3.750    0.000    0.000 
#    0.000    0.000    0.000    0.000    0.000    0.000 
#
# Total GULP energy -357406.463466 kJ/mol
# GULP energy per Si atom -5584.475992 kJ/mol
# Density = 1.951621 g / cm^3
# Si number density = 19.560736 Si / 1000 Ang^3
#
#
#
# Elastic Constant Matrix: (Units=GPa)
#
#
# Indices 1 2 3 4 5 6 
#
# 1 56.1242 21.2378 30.3053 0.0000 0.0000 0.0000
# 2 21.2378 29.3718 17.9749 0.0000 0.0000 0.0000
# 3 30.3053 17.9749 100.7468 0.0000 0.0000 0.0000
# 4 0.0000 0.0000 0.0000 30.7997 0.0000 0.0000
# 5 0.0000 0.0000 0.0000 0.0000 23.5034 0.0000
# 6 0.0000 0.0000 0.0000 0.0000 0.0000 28.6677
#
#
#
# Elastic Compliance Matrix: (Units=1/GPa)
#
#
# Indices 1 2 3 4 5 6 
#
# 1 0.026717 -0.016165 -0.005152 0.000000 0.000000 0.000000
# 2 -0.016165 0.048000 -0.003701 0.000000 0.000000 0.000000
# 3 -0.005152 -0.003701 0.012136 0.000000 0.000000 0.000000
# 4 0.000000 0.000000 0.000000 0.032468 0.000000 0.000000
# 5 0.000000 0.000000 0.000000 0.000000 0.042547 0.000000
# 6 0.000000 0.000000 0.000000 0.000000 0.000000 0.034882
#
#
# Mechanical properties :
#
#
# Convention : Reuss Voigt Hill
#
# Bulk Modulus (GPa) = 27.16277 36.14208 31.65243
# Shear Modulus (GPa) = 19.30065 24.37584 21.83824
#
# Velocity S-wave (km/s) = 3.14459 3.53393 3.34493
# Velocity P-wave (km/s) = 5.20587 5.93031 5.57986
#
# Compressibility (1/GPa) = 0.03681510
#
# Stress axis : x y z
#
# Youngs Moduli (GPa) = 37.42990 20.83351 82.39833
#
# Poissons Ratio (x) = 0.33677 0.42456
# Poissons Ratio (y) = 0.60504 0.30500
# Poissons Ratio (z) = 0.19286 0.07711
#
# Static dielectric constant tensor:
#      x y z
#    x 1.657760 0.000000 0.000000 
#    y 0.000000 1.689540 0.000000 
#    z 0.000000 0.000000 1.783890 
# 
# From -- ./inp_files/21013.got.cif
#   From: 2010.05.17/outbox.cif.g08.bks.cpg/sg53_11_cif.got.tgz:21013.got - 2010.06.03 12:45:16.
