data_PCOD9414092
_publ_section_title
;
Structure prediction by ZEFSAII (Michael W. Deem and Ramdas Pophale) SiO2 
 PCOD9414092
Probable space group: P M N A
;
_chemical_formula_sum "Si O2"
_cell_formula_units_Z 48
_cell_length_a 25.694595
_cell_length_b 5.621783
_cell_length_c 11.876460
_cell_angle_alpha 90.000000
_cell_angle_beta 90.000000
_cell_angle_gamma 90.000000
_cell_volume 1715.547965
_symmetry_space_group_name_H-M "P M N A"
_symmetry_group_IT_number 53
_symmetry_cell_setting 'orthorhombic'
loop_
_space_group_symop_operation_xyz
x,y,z
1/2-x,-y,1/2+z
x,-y,-z
1/2-x,y,1/2-z
-x,-y,-z
1/2+x,y,1/2-z
-x,y,z
1/2+x,-y,1/2+z
loop_
_atom_site_type_symbol
_atom_site_label
_atom_site_fract_x
_atom_site_fract_y
_atom_site_fract_z
Si Si1 0.192299 0.250000 0.300106
Si Si2 0.440077 0.250000 0.042557
Si Si3 0.695664 0.750000 0.447904
Si Si4 0.415112 0.750000 0.365020
Si Si5 0.171972 0.750000 0.307535
Si Si6 0.579617 0.250000 0.306298
O O1 0.250000 0.250000 0.250000
O O2 0.184172 0.499123 0.362157
O O3 0.144159 0.250000 0.207298
O O4 0.184172 0.000877 0.362157
O O5 0.500000 0.250000 0.001433
O O6 0.438433 0.250000 0.177183
O O7 0.417070 0.500000 0.000000
O O8 0.417070 0.000000 0.000000
O O9 0.713523 0.500000 0.500000
O O10 0.632561 0.750000 0.452479
O O11 0.703078 0.750000 0.313196
O O12 0.713523 0.000000 0.500000
O O13 0.386872 0.750000 0.240341
O O14 0.439490 0.490675 0.365146
O O15 0.439490 0.009324 0.365146
#
# Coordination Sequence:
#
# PCOD9414092 Si02
#       6
#     8   8   8   8   8   8
#     4  10  17  29  47  68  91 129 169 207 243 298
#     4  10  21  36  56  81 105 134 170 209 268 330
#     4  10  16  26  44  65  98 128 153 198 246 286
#     4   8  17  27  45  71  96 124 168 196 248 298
#     4   8  17  27  39  64  92 118 167 204 237 290
#     4  10  17  33  50  71 100 129 162 220 246 299
#
# _framework density 27.979399999999998
#
# number of rings (size 3 to 8) (size 9 to 14) (size 15 to 20)
#    1.000    1.667    0.000    3.500    0.000    0.000 
#    0.000    0.000    0.000    6.000    0.000    0.000 
#    0.000   13.333    0.000    0.000    0.000    0.000 
#
# Total GULP energy -268309.376699 kJ/mol
# GULP energy per Si atom -5589.778681 kJ/mol
# Density = 2.791572 g / cm^3
# Si number density = 27.979400 Si / 1000 Ang^3
#
#
#
# Elastic Constant Matrix: (Units=GPa)
#
#
# Indices 1 2 3 4 5 6 
#
# 1 127.3620 28.2194 11.0136 0.0000 0.0000 0.0000
# 2 28.2194 378.4515 51.8820 0.0000 0.0000 0.0000
# 3 11.0136 51.8820 109.7638 0.0000 0.0000 0.0000
# 4 0.0000 0.0000 0.0000 11.1586 0.0000 0.0000
# 5 0.0000 0.0000 0.0000 0.0000 8.3534 0.0000
# 6 0.0000 0.0000 0.0000 0.0000 0.0000 -58.8996
#
#
#
# Elastic Compliance Matrix: (Units=1/GPa)
#
#
# Indices 1 2 3 4 5 6 
#
# 1 0.008015 -0.000521 -0.000558 0.000000 0.000000 0.000000
# 2 -0.000521 0.002859 -0.001299 0.000000 0.000000 0.000000
# 3 -0.000558 -0.001299 0.009781 0.000000 0.000000 0.000000
# 4 0.000000 0.000000 0.000000 0.089617 0.000000 0.000000
# 5 0.000000 0.000000 0.000000 0.000000 0.119711 0.000000
# 6 0.000000 0.000000 0.000000 0.000000 0.000000 -0.016978
#
#
# Mechanical properties :
#
#
# Convention : Reuss Voigt Hill
#
# Bulk Modulus (GPa) = 62.89858 88.64525 75.77192
# Shear Modulus (GPa) = 22.41532 27.08664 24.75098
#
# Velocity S-wave (km/s) = 2.83351 3.11479 2.97747
# Velocity P-wave (km/s) = 5.76490 6.68484 6.24184
#
# Compressibility (1/GPa) = 0.01589861
#
# Stress axis : x y z
#
# Youngs Moduli (GPa) = 124.76053 349.73363 102.24375
#
# Poissons Ratio (x) = 0.18228 0.05704
# Poissons Ratio (y) = 0.06502 0.13284
# Poissons Ratio (z) = 0.06960 0.45438
#
# Static dielectric constant tensor:
#      x y z
#    x 2.208760 0.000000 0.000000 
#    y 0.000000 2.230260 0.000000 
#    z 0.000000 0.000000 2.134950 
# 
# From -- ./inp_files/25096.got.cif
#   From: 2010.05.17/outbox.cif.g08.bks.cpg/sg53_13_cif.got.tgz:25096.got - 2010.06.03 12:45:16.
