data_PCOD9414961
_publ_section_title
;
Structure prediction by ZEFSAII (Michael W. Deem and Ramdas Pophale) SiO2 
 PCOD9414961
Probable space group: P M N A
;
_chemical_formula_sum "Si O2"
_cell_formula_units_Z 48
_cell_length_a 13.284935
_cell_length_b 11.394517
_cell_length_c 17.827542
_cell_angle_alpha 90.000000
_cell_angle_beta 90.000000
_cell_angle_gamma 90.000000
_cell_volume 2698.651617
_symmetry_space_group_name_H-M "P M N A"
_symmetry_group_IT_number 53
_symmetry_cell_setting 'orthorhombic'
loop_
_space_group_symop_operation_xyz
x,y,z
1/2-x,-y,1/2+z
x,-y,-z
1/2-x,y,1/2-z
-x,-y,-z
1/2+x,y,1/2-z
-x,y,z
1/2+x,-y,1/2+z
loop_
_atom_site_type_symbol
_atom_site_label
_atom_site_fract_x
_atom_site_fract_y
_atom_site_fract_z
Si Si1 0.742010 0.497976 0.838913
Si Si2 0.244425 0.705125 0.554975
Si Si3 0.615198 0.354616 0.579973
Si Si4 0.720507 0.140561 0.663399
Si Si5 0.119209 0.932641 0.919623
Si Si6 0.881878 0.280895 0.586334
O O1 0.750000 0.496714 0.750000
O O2 0.717123 0.622311 0.875854
O O3 0.851958 0.464059 0.870436
O O4 0.668777 0.395145 0.872260
O O5 0.320206 0.643739 0.495615
O O6 0.306594 0.821190 0.576576
O O7 0.147399 0.720611 0.501508
O O8 0.500000 0.348610 0.561366
O O9 0.647692 0.242113 0.630065
O O10 0.750000 0.152253 0.750000
O O11 0.824277 0.167763 0.619606
O O12 0.665244 0.020782 0.641917
O O13 0.000000 0.905403 0.907274
O O14 0.124765 0.000000 0.000000
O O15 0.000000 0.280785 0.598744
#
# Coordination Sequence:
#
# PCOD9414961 Si02
#       6
#     8   8   8   8   8   8
#     4  10  22  36  52  80 116 147 181 227 281 337
#     4  10  21  36  56  83 110 145 190 235 276 330
#     4  10  18  33  58  83 108 139 183 236 286 333
#     4  10  21  35  55  87 117 143 183 236 285 330
#     4  11  20  37  62  84 110 147 188 230 283 335
#     4  10  20  37  60  81 108 151 194 229 274 333
#
# _framework density 17.786660000000001
#
# number of rings (size 3 to 8) (size 9 to 14) (size 15 to 20)
#    0.000    2.167    3.333    5.000    0.000    7.333 
#    0.000    1.667    0.000    2.000    0.000    0.000 
#    0.000    0.000    0.000    0.000    0.000    0.000 
#
# Total GULP energy -267389.601006 kJ/mol
# GULP energy per Si atom -5570.616688 kJ/mol
# Density = 1.774618 g / cm^3
# Si number density = 17.786660 Si / 1000 Ang^3
#
#
#
# Elastic Constant Matrix: (Units=GPa)
#
#
# Indices 1 2 3 4 5 6 
#
# 1 87.0361 -3.6131 -3.3718 0.0000 0.0000 0.0000
# 2 -3.6131 59.8108 18.4171 0.0000 0.0000 0.0000
# 3 -3.3718 18.4171 60.8807 0.0000 0.0000 0.0000
# 4 0.0000 0.0000 0.0000 12.3574 0.0000 0.0000
# 5 0.0000 0.0000 0.0000 0.0000 5.9147 0.0000
# 6 0.0000 0.0000 0.0000 0.0000 0.0000 4.1862
#
#
#
# Elastic Compliance Matrix: (Units=1/GPa)
#
#
# Indices 1 2 3 4 5 6 
#
# 1 0.011531 0.000551 0.000472 0.000000 0.000000 0.000000
# 2 0.000551 0.018463 -0.005555 0.000000 0.000000 0.000000
# 3 0.000472 -0.005555 0.018132 0.000000 0.000000 0.000000
# 4 0.000000 0.000000 0.000000 0.080923 0.000000 0.000000
# 5 0.000000 0.000000 0.000000 0.000000 0.169071 0.000000
# 6 0.000000 0.000000 0.000000 0.000000 0.000000 0.238879
#
#
# Mechanical properties :
#
#
# Convention : Reuss Voigt Hill
#
# Bulk Modulus (GPa) = 25.60000 25.62135 25.61067
# Shear Modulus (GPa) = 8.94322 17.57803 13.26063
#
# Velocity S-wave (km/s) = 2.24476 3.14709 2.73342
# Velocity P-wave (km/s) = 4.59812 5.25753 4.93884
#
# Compressibility (1/GPa) = 0.03906250
#
# Stress axis : x y z
#
# Youngs Moduli (GPa) = 86.72539 54.16202 55.15088
#
# Poissons Ratio (x) = -0.02986 -0.02602
# Poissons Ratio (y) = -0.04781 0.30635
# Poissons Ratio (z) = -0.04092 0.30086
#
# Static dielectric constant tensor:
#      x y z
#    x 1.602200 0.000000 0.000000 
#    y 0.000000 1.666360 0.000000 
#    z 0.000000 0.000000 1.616370 
# 
# From -- ./inp_files/32541.got.cif
#   From: 2010.05.17/outbox.cif.g08.bks.cpg/sg53_17_cif.got.tgz:32541.got - 2010.06.03 12:45:16.
