data_PCOD9414234
_publ_section_title
;
Structure prediction by ZEFSAII (Michael W. Deem and Ramdas Pophale) SiO2 
 PCOD9414234
Probable space group: P M N A
;
_chemical_formula_sum "Si O2"
_cell_formula_units_Z 56
_cell_length_a 8.701272
_cell_length_b 15.123382
_cell_length_c 26.976951
_cell_angle_alpha 90.000000
_cell_angle_beta 90.000000
_cell_angle_gamma 90.000000
_cell_volume 3549.968750
_symmetry_space_group_name_H-M "P M N A"
_symmetry_group_IT_number 53
_symmetry_cell_setting 'orthorhombic'
loop_
_space_group_symop_operation_xyz
x,y,z
1/2-x,-y,1/2+z
x,-y,-z
1/2-x,y,1/2-z
-x,-y,-z
1/2+x,y,1/2-z
-x,y,z
1/2+x,-y,1/2+z
loop_
_atom_site_type_symbol
_atom_site_label
_atom_site_fract_x
_atom_site_fract_y
_atom_site_fract_z
Si Si1 0.687052 0.616919 0.545009
Si Si2 0.814106 0.014174 0.110071
Si Si3 0.315295 0.809291 0.566648
Si Si4 0.314505 0.577881 0.431540
Si Si5 0.180496 0.124409 0.536154
Si Si6 0.183559 0.120284 0.804661
Si Si7 0.820141 0.736019 0.374438
O O1 0.500000 0.616966 0.545528
O O2 0.742342 0.708338 0.569100
O O3 0.734335 0.524865 0.570311
O O4 0.730758 0.611684 0.486802
O O5 0.748280 0.962106 0.062610
O O6 0.764728 0.959291 0.158562
O O7 0.000000 0.010160 0.107838
O O8 0.765159 0.116429 0.106095
O O9 0.500000 0.805266 0.568999
O O10 0.267547 0.846778 0.513097
O O11 0.500000 0.581748 0.429185
O O12 0.246359 0.641523 0.390058
O O13 0.198582 0.201638 0.577080
O O14 0.000000 0.112653 0.525824
O O15 0.250000 0.111161 0.750000
O O16 0.236840 0.211329 0.830550
O O17 0.000000 0.118629 0.802629
O O18 0.000000 0.729691 0.363149
#
# Coordination Sequence:
#
# PCOD9414234 Si02
#       7
#     8   8   8   8   8   8   8
#     4   8  15  25  42  64  89 121 159 195 222 255
#     4   9  19  31  45  64  86 115 150 184 223 270
#     4  10  17  28  44  62  87 122 158 189 218 260
#     4   9  15  27  44  64  88 121 159 193 227 261
#     4  10  19  28  39  60  91 123 153 185 221 261
#     4  10  20  35  52  70  90 113 144 186 232 280
#     4  10  19  30  45  67  93 122 153 187 228 274
#
# _framework density 15.774787999999999
#
# number of rings (size 3 to 8) (size 9 to 14) (size 15 to 20)
#    0.000    2.571    1.429    2.571    0.000    4.000 
#    0.000    2.143    0.000    0.000    0.000    1.000 
#    0.000    2.286    0.000    0.000    0.000    0.000 
#
# Total GULP energy -312055.350599 kJ/mol
# GULP energy per Si atom -5572.416975 kJ/mol
# Density = 1.573888 g / cm^3
# Si number density = 15.774788 Si / 1000 Ang^3
#
#
#
# Elastic Constant Matrix: (Units=GPa)
#
#
# Indices 1 2 3 4 5 6 
#
# 1 12.5174 23.1633 15.6875 0.0000 0.0000 0.0000
# 2 23.1633 155.3576 51.0645 0.0000 0.0000 0.0000
# 3 15.6875 51.0645 62.3746 0.0000 0.0000 0.0000
# 4 0.0000 0.0000 0.0000 12.0752 0.0000 0.0000
# 5 0.0000 0.0000 0.0000 0.0000 20.3269 0.0000
# 6 0.0000 0.0000 0.0000 0.0000 0.0000 -2.4964
#
#
#
# Elastic Compliance Matrix: (Units=1/GPa)
#
#
# Indices 1 2 3 4 5 6 
#
# 1 0.130993 -0.011905 -0.023199 0.000000 0.000000 0.000000
# 2 -0.011905 0.009889 -0.005101 0.000000 0.000000 0.000000
# 3 -0.023199 -0.005101 0.026043 0.000000 0.000000 0.000000
# 4 0.000000 0.000000 0.000000 0.082814 0.000000 0.000000
# 5 0.000000 0.000000 0.000000 0.000000 0.049196 0.000000
# 6 0.000000 0.000000 0.000000 0.000000 0.000000 -0.400583
#
#
# Mechanical properties :
#
#
# Convention : Reuss Voigt Hill
#
# Bulk Modulus (GPa) = 11.55883 45.56449 28.56166
# Shear Modulus (GPa) = 657.85300 15.33679 336.59490
#
# Velocity S-wave (km/s) = 20.44342 3.12145 14.62322
# Velocity P-wave (km/s) = 23.76106 6.47598 17.41445
#
# Compressibility (1/GPa) = 0.08651394
#
# Stress axis : x y z
#
# Youngs Moduli (GPa) = 7.63397 101.12720 38.39804
#
# Poissons Ratio (x) = 1.20397 0.89079
# Poissons Ratio (y) = 0.09089 0.19588
# Poissons Ratio (z) = 0.17710 0.51587
#
# Static dielectric constant tensor:
#      x y z
#    x 1.525980 0.000000 0.000000 
#    y 0.000000 1.569970 0.000000 
#    z 0.000000 0.000000 1.496240 
# 
# From -- ./inp_files/38325.got.cif
#   From: 2010.05.17/outbox.cif.g08.bks.cpg/sg53_20_cif.got.tgz:38325.got - 2010.06.03 12:45:16.
