data_PCOD9414255
_publ_section_title
;
Structure prediction by ZEFSAII (Michael W. Deem and Ramdas Pophale) SiO2 
 PCOD9414255
Probable space group: P M N A
;
_chemical_formula_sum "Si O2"
_cell_formula_units_Z 64
_cell_length_a 7.676274
_cell_length_b 14.960737
_cell_length_c 31.554490
_cell_angle_alpha 90.000000
_cell_angle_beta 90.000000
_cell_angle_gamma 90.000000
_cell_volume 3623.803348
_symmetry_space_group_name_H-M "P M N A"
_symmetry_group_IT_number 53
_symmetry_cell_setting 'orthorhombic'
loop_
_space_group_symop_operation_xyz
x,y,z
1/2-x,-y,1/2+z
x,-y,-z
1/2-x,y,1/2-z
-x,-y,-z
1/2+x,y,1/2-z
-x,y,z
1/2+x,-y,1/2+z
loop_
_atom_site_type_symbol
_atom_site_label
_atom_site_fract_x
_atom_site_fract_y
_atom_site_fract_z
Si Si1 0.709246 0.635745 0.297904
Si Si2 0.703675 0.042384 0.456370
Si Si3 0.207101 0.928220 0.119655
Si Si4 0.293650 0.747185 0.433303
Si Si5 0.301911 0.758978 0.971454
Si Si6 0.294024 0.561917 0.961263
Si Si7 0.790346 0.841145 0.202257
Si Si8 0.710689 0.433755 0.614038
O O1 0.750000 0.606400 0.250000
O O2 0.500000 0.639620 0.301240
O O3 0.774129 0.738437 0.303117
O O4 0.770476 0.574950 0.337170
O O5 0.500000 0.015038 0.456426
O O6 0.714090 0.149038 0.457487
O O7 0.778501 0.000000 0.500000
O O8 0.779752 0.000888 0.413214
O O9 0.225755 0.833661 0.095700
O O10 0.278211 0.908304 0.166443
O O11 0.000000 0.947422 0.124939
O O12 0.500000 0.738247 0.442653
O O13 0.199643 0.759212 0.477581
O O14 0.236891 0.658622 0.408877
O O15 0.500000 0.762843 0.955465
O O16 0.221551 0.662622 0.959837
O O17 0.500000 0.572753 0.970352
O O18 0.272925 0.512252 0.916626
O O19 0.223450 0.500000 0.000000
O O20 0.750000 0.868827 0.250000
O O21 0.000000 0.836439 0.197438
O O22 0.500000 0.437549 0.614087
#
# Coordination Sequence:
#
# PCOD9414255 Si02
#       8
#     8   8   8   8   8   8   8   8
#     4   9  17  29  45  69  98 125 154 190 231 277
#     4  10  19  32  51  70  90 122 162 195 231 278
#     4   9  16  29  48  68  92 126 158 188 227 272
#     4  10  17  29  48  68  93 125 161 196 229 268
#     4  11  22  34  46  65  96 128 157 197 238 274
#     4  10  21  35  47  64  95 130 160 192 239 292
#     4   9  16  28  45  66  95 125 153 185 226 273
#     4  10  19  30  49  73  94 123 165 204 230 266
#
# _framework density 17.661003999999998
#
# number of rings (size 3 to 8) (size 9 to 14) (size 15 to 20)
#    0.000    2.250    3.750    0.375    0.000    2.000 
#    0.000    1.250    0.000    0.000    0.000    0.875 
#    0.000    2.000    0.000    0.000    0.000    0.000 
#
# Total GULP energy -356768.958009 kJ/mol
# GULP energy per Si atom -5574.514969 kJ/mol
# Density = 1.762081 g / cm^3
# Si number density = 17.661004 Si / 1000 Ang^3
#
#
#
# Elastic Constant Matrix: (Units=GPa)
#
#
# Indices 1 2 3 4 5 6 
#
# 1 25.9457 1.6706 2.5984 0.0000 0.0000 0.0000
# 2 1.6706 74.5945 50.9377 0.0000 0.0000 0.0000
# 3 2.5984 50.9377 138.6748 0.0000 0.0000 0.0000
# 4 0.0000 0.0000 0.0000 19.9895 0.0000 0.0000
# 5 0.0000 0.0000 0.0000 0.0000 99.0965 0.0000
# 6 0.0000 0.0000 0.0000 0.0000 0.0000 2.3886
#
#
#
# Elastic Compliance Matrix: (Units=1/GPa)
#
#
# Indices 1 2 3 4 5 6 
#
# 1 0.038628 -0.000495 -0.000542 0.000000 0.000000 0.000000
# 2 -0.000495 0.017900 -0.006566 0.000000 0.000000 0.000000
# 3 -0.000542 -0.006566 0.009633 0.000000 0.000000 0.000000
# 4 0.000000 0.000000 0.000000 0.050026 0.000000 0.000000
# 5 0.000000 0.000000 0.000000 0.000000 0.010091 0.000000
# 6 0.000000 0.000000 0.000000 0.000000 0.000000 0.418651
#
#
# Mechanical properties :
#
#
# Convention : Reuss Voigt Hill
#
# Bulk Modulus (GPa) = 19.62480 38.84758 29.23619
# Shear Modulus (GPa) = 8.66369 36.56215 22.61292
#
# Velocity S-wave (km/s) = 2.21725 4.55490 3.58213
# Velocity P-wave (km/s) = 4.20607 7.05031 5.80508
#
# Compressibility (1/GPa) = 0.05095595
#
# Stress axis : x y z
#
# Youngs Moduli (GPa) = 25.88785 55.86442 103.80948
#
# Poissons Ratio (x) = 0.02766 0.05626
# Poissons Ratio (y) = 0.01282 0.68160
# Poissons Ratio (z) = 0.01403 0.36680
#
# Static dielectric constant tensor:
#      x y z
#    x 1.674930 0.000000 0.000000 
#    y 0.000000 1.596920 0.000000 
#    z 0.000000 0.000000 1.620870 
# 
# From -- ./inp_files/38464.got.cif
#   From: 2010.05.17/outbox.cif.g08.bks.cpg/sg53_20_cif.got.tgz:38464.got - 2010.06.03 12:45:16.
