data_PCOD9414130
_publ_section_title
;
Structure prediction by ZEFSAII (Michael W. Deem and Ramdas Pophale) SiO2 
 PCOD9414130
Probable space group: P M N A
;
_chemical_formula_sum "Si O2"
_cell_formula_units_Z 32
_cell_length_a 14.396484
_cell_length_b 10.636716
_cell_length_c 10.064845
_cell_angle_alpha 90.000000
_cell_angle_beta 90.000000
_cell_angle_gamma 90.000000
_cell_volume 1541.242917
_symmetry_space_group_name_H-M "P M N A"
_symmetry_group_IT_number 53
_symmetry_cell_setting 'orthorhombic'
loop_
_space_group_symop_operation_xyz
x,y,z
1/2-x,-y,1/2+z
x,-y,-z
1/2-x,y,1/2-z
-x,-y,-z
1/2+x,y,1/2-z
-x,y,z
1/2+x,-y,1/2+z
loop_
_atom_site_type_symbol
_atom_site_label
_atom_site_fract_x
_atom_site_fract_y
_atom_site_fract_z
Si Si1 0.682838 0.748373 0.630315
Si Si2 0.000000 0.601504 0.383999
Si Si3 0.000000 0.579149 0.867652
Si Si4 0.841262 0.200992 0.553041
Si Si5 0.391101 0.037239 0.206582
O O1 0.750000 0.703324 0.750000
O O2 0.590658 0.666772 0.633850
O O3 0.741356 0.749082 0.494729
O O4 0.654711 0.890919 0.670183
O O5 0.000000 0.500000 0.500000
O O6 0.000000 0.520133 0.251344
O O7 0.910096 0.690039 0.400680
O O8 0.000000 0.500000 0.000000
O O9 0.881499 0.133523 0.418778
O O10 0.842978 0.091062 0.661615
O O11 0.500000 0.013669 0.229005
#
# Coordination Sequence:
#
# PCOD9414130 Si02
#       5
#     8   4   4   8   8
#     4  10  22  40  68  97 134 177 220 285 351 400
#     4  12  22  40  71  99 121 183 247 281 315 399
#     4  12  28  47  63  95 145 186 222 283 351 391
#     4  10  20  36  67 101 124 165 237 280 321 416
#     4  10  16  36  68  98 135 167 212 282 353 404
#
# _framework density 20.762463
#
# number of rings (size 3 to 8) (size 9 to 14) (size 15 to 20)
#    0.000    1.500    3.750    3.750    0.000    3.000 
#    0.000   15.000    0.000   15.000    0.000    0.000 
#    0.000    0.000    0.000    0.000    0.000    0.000 
#
# Total GULP energy -178937.219527 kJ/mol
# GULP energy per Si atom -5591.788110 kJ/mol
# Density = 2.071521 g / cm^3
# Si number density = 20.762463 Si / 1000 Ang^3
#
#
#
# Elastic Constant Matrix: (Units=GPa)
#
#
# Indices 1 2 3 4 5 6 
#
# 1 193.2373 89.7476 61.0579 0.0000 0.0000 0.0000
# 2 89.7476 158.3164 69.6506 0.0000 0.0000 0.0000
# 3 61.0579 69.6506 88.8742 0.0000 0.0000 0.0000
# 4 0.0000 0.0000 0.0000 30.2692 0.0000 0.0000
# 5 0.0000 0.0000 0.0000 0.0000 16.9271 0.0000
# 6 0.0000 0.0000 0.0000 0.0000 0.0000 3.3947
#
#
#
# Elastic Compliance Matrix: (Units=1/GPa)
#
#
# Indices 1 2 3 4 5 6 
#
# 1 0.007442 -0.003006 -0.002757 0.000000 0.000000 0.000000
# 2 -0.003006 0.010854 -0.006441 0.000000 0.000000 0.000000
# 3 -0.002757 -0.006441 0.018194 0.000000 0.000000 0.000000
# 4 0.000000 0.000000 0.000000 0.033037 0.000000 0.000000
# 5 0.000000 0.000000 0.000000 0.000000 0.059077 0.000000
# 6 0.000000 0.000000 0.000000 0.000000 0.000000 0.294575
#
#
# Mechanical properties :
#
#
# Convention : Reuss Voigt Hill
#
# Bulk Modulus (GPa) = 82.76949 97.92666 90.34808
# Shear Modulus (GPa) = 11.07135 24.78300 17.92718
#
# Velocity S-wave (km/s) = 2.31170 3.45866 2.94163
# Velocity P-wave (km/s) = 6.86125 7.95094 7.42611
#
# Compressibility (1/GPa) = 0.01208175
#
# Stress axis : x y z
#
# Youngs Moduli (GPa) = 134.36776 92.12893 54.96231
#
# Poissons Ratio (x) = 0.27693 0.15154
# Poissons Ratio (y) = 0.40389 0.35404
# Poissons Ratio (z) = 0.37048 0.59344
#
# Static dielectric constant tensor:
#      x y z
#    x 1.819640 0.000000 0.000000 
#    y 0.000000 1.713440 0.000000 
#    z 0.000000 0.000000 1.734740 
# 
# From -- ./inp_files/15544.got.cif
#   From: 2010.05.17/outbox.cif.g08.bks.cpg/sg53_8_cif.got.tgz:15544.got - 2010.06.03 12:45:16.
