data_PCOD9414173
_publ_section_title
;
Structure prediction by ZEFSAII (Michael W. Deem and Ramdas Pophale) SiO2 
 PCOD9414173
Probable space group: P M N A
;
_chemical_formula_sum "Si O2"
_cell_formula_units_Z 56
_cell_length_a 8.943232
_cell_length_b 15.025856
_cell_length_c 27.044683
_cell_angle_alpha 90.000000
_cell_angle_beta 90.000000
_cell_angle_gamma 90.000000
_cell_volume 3634.256826
_symmetry_space_group_name_H-M "P M N A"
_symmetry_group_IT_number 53
_symmetry_cell_setting 'orthorhombic'
loop_
_space_group_symop_operation_xyz
x,y,z
1/2-x,-y,1/2+z
x,-y,-z
1/2-x,y,1/2-z
-x,-y,-z
1/2+x,y,1/2-z
-x,y,z
1/2+x,-y,1/2+z
loop_
_atom_site_type_symbol
_atom_site_label
_atom_site_fract_x
_atom_site_fract_y
_atom_site_fract_z
Si Si1 0.182088 0.618896 0.544608
Si Si2 0.822165 0.021434 0.111826
Si Si3 0.179987 0.814254 0.567809
Si Si4 0.182250 0.576351 0.432226
Si Si5 0.173894 0.115705 0.541070
Si Si6 0.178888 0.117369 0.803666
Si Si7 0.824722 0.740133 0.371897
O O1 0.230909 0.711563 0.568586
O O2 0.226848 0.611376 0.486822
O O3 0.228402 0.526778 0.570572
O O4 0.000000 0.619998 0.544369
O O5 0.769126 0.962974 0.064836
O O6 0.775524 0.963605 0.159693
O O7 0.000000 0.028491 0.111817
O O8 0.749933 0.118227 0.106881
O O9 0.217737 0.851809 0.513131
O O10 0.000000 0.816058 0.572060
O O11 0.231359 0.643511 0.389380
O O12 0.000000 0.578847 0.431725
O O13 0.183143 0.198397 0.578917
O O14 0.000000 0.087129 0.539576
O O15 0.250000 0.107859 0.750000
O O16 0.235076 0.207678 0.830065
O O17 0.000000 0.117982 0.800456
O O18 0.000000 0.734948 0.357743
#
# Coordination Sequence:
#
# PCOD9414173 Si02
#       7
#     8   8   8   8   8   8   8
#     4   8  13  21  37  63  93 122 155 189 211 235
#     4  10  21  32  42  60  86 115 145 180 226 273
#     4  10  17  26  41  63  90 122 157 187 210 244
#     4   8  12  21  39  64  92 121 152 185 216 243
#     4   9  16  26  40  61  88 119 154 185 210 246
#     4  10  21  36  51  67  86 109 141 184 232 280
#     4   9  15  26  46  69  92 119 149 182 222 263
#
# _framework density 15.408928
#
# number of rings (size 3 to 8) (size 9 to 14) (size 15 to 20)
#    0.000    2.857    1.429    2.143    0.000    4.000 
#    0.000    0.000    0.000    0.857    0.000    3.000 
#    0.000    2.286    0.000    0.000    0.000    0.000 
#
# Total GULP energy -311928.579258 kJ/mol
# GULP energy per Si atom -5570.153201 kJ/mol
# Density = 1.537386 g / cm^3
# Si number density = 15.408928 Si / 1000 Ang^3
#
#
#
# Elastic Constant Matrix: (Units=GPa)
#
#
# Indices 1 2 3 4 5 6 
#
# 1 16.5187 32.3661 24.9207 0.0000 0.0000 0.0000
# 2 32.3661 150.0044 54.9482 0.0000 0.0000 0.0000
# 3 24.9207 54.9482 68.8803 0.0000 0.0000 0.0000
# 4 0.0000 0.0000 0.0000 12.0777 0.0000 0.0000
# 5 0.0000 0.0000 0.0000 0.0000 12.3795 0.0000
# 6 0.0000 0.0000 0.0000 0.0000 0.0000 -723.1781
#
#
#
# Elastic Compliance Matrix: (Units=1/GPa)
#
#
# Indices 1 2 3 4 5 6 
#
# 1 0.165726 -0.019490 -0.044412 0.000000 0.000000 0.000000
# 2 -0.019490 0.011711 -0.002291 0.000000 0.000000 0.000000
# 3 -0.044412 -0.002291 0.032413 0.000000 0.000000 0.000000
# 4 0.000000 0.000000 0.000000 0.082797 0.000000 0.000000
# 5 0.000000 0.000000 0.000000 0.000000 0.080779 0.000000
# 6 0.000000 0.000000 0.000000 0.000000 0.000000 -0.001383
#
#
# Mechanical properties :
#
#
# Convention : Reuss Voigt Hill
#
# Bulk Modulus (GPa) = 12.90890 51.09706 32.00298
# Shear Modulus (GPa) = 9.42951 -131.53297 -61.05173
#
# Velocity S-wave (km/s) = 2.47645 -9.24915 -6.30135
# Velocity P-wave (km/s) = 4.07097 8.99054 5.66820
#
# Compressibility (1/GPa) = 0.07746593
#
# Stress axis : x y z
#
# Youngs Moduli (GPa) = 6.03405 85.39051 30.85146
#
# Poissons Ratio (x) = 1.66425 1.37016
# Poissons Ratio (y) = 0.11760 0.07067
# Poissons Ratio (z) = 0.26798 0.19561
#
# Static dielectric constant tensor:
#      x y z
#    x 1.514450 0.000000 0.000000 
#    y 0.000000 1.549080 0.000000 
#    z 0.000000 0.000000 1.488130 
# 
# From -- ./inp_files/38353.got.cif
#   From: 2010.05.17/outbox.cif.g08.bks.cpg/sg53_20_cif.got.tgz:38353.got - 2010.06.03 12:45:16.
