data_PCOD9414493
_publ_section_title
;
Structure prediction by ZEFSAII (Michael W. Deem and Ramdas Pophale) SiO2 
 PCOD9414493
Probable space group: P M N A
;
_chemical_formula_sum "Si O2"
_cell_formula_units_Z 58
_cell_length_a 7.563914
_cell_length_b 17.891283
_cell_length_c 19.455581
_cell_angle_alpha 90.000000
_cell_angle_beta 90.000000
_cell_angle_gamma 90.000000
_cell_volume 2632.887316
_symmetry_space_group_name_H-M "P M N A"
_symmetry_group_IT_number 53
_symmetry_cell_setting 'orthorhombic'
loop_
_space_group_symop_operation_xyz
x,y,z
1/2-x,-y,1/2+z
x,-y,-z
1/2-x,y,1/2-z
-x,-y,-z
1/2+x,y,1/2-z
-x,y,z
1/2+x,-y,1/2+z
loop_
_atom_site_type_symbol
_atom_site_label
_atom_site_fract_x
_atom_site_fract_y
_atom_site_fract_z
Si Si1 0.297943 0.386693 0.023175
Si Si2 0.801575 0.096408 0.437110
Si Si3 0.787213 0.019633 0.672299
Si Si4 0.288754 0.190636 0.825415
Si Si5 0.784762 0.775007 0.472581
Si Si6 0.289655 0.616703 0.674202
Si Si7 0.000000 0.500000 0.000000
Si Si8 0.209851 0.789378 0.825191
O O1 0.500000 0.392903 0.998430
O O2 0.290645 0.412102 0.103345
O O3 0.155711 0.437273 0.985908
O O4 0.240589 0.299289 0.015689
O O5 0.719378 0.028938 0.392608
O O6 0.718673 0.144601 0.498961
O O7 0.808699 0.161847 0.380355
O O8 0.000000 0.073888 0.458305
O O9 0.750000 0.991359 0.750000
O O10 0.000000 0.018940 0.665298
O O11 0.721476 0.105005 0.671116
O O12 0.250000 0.221986 0.750000
O O13 0.500000 0.185825 0.830067
O O14 0.228473 0.233319 0.893479
O O15 0.000000 0.779978 0.475675
O O16 0.250000 0.584660 0.750000
O O17 0.500000 0.613369 0.664627
O O18 0.230997 0.703385 0.676010
O O19 0.250000 0.819728 0.750000
O O20 0.000000 0.792105 0.838590
#
# Coordination Sequence:
#
# PCOD9414493 Si02
#       8
#     8   8   8   8   8   8   2   8
#     4  11  22  41  66  97 127 164 206 253 309 377
#     4  10  18  29  46  74 109 150 191 240 291 344
#     4   9  18  30  48  71 110 156 201 244 294 349
#     4   9  18  36  56  81 107 147 199 252 308 361
#     4   9  19  35  59  84 114 145 193 252 301 357
#     4  10  19  33  55  88 125 163 204 246 289 356
#     4  12  26  44  68  94 132 158 202 246 316 402
#     4  10  19  28  43  69 108 152 193 234 275 326
#
# _framework density 22.029048
#
# number of rings (size 3 to 8) (size 9 to 14) (size 15 to 20)
#    0.000    2.207    2.069    1.448    0.000    3.310 
#    1.241    2.759    0.000    0.828    3.586    4.828 
#    0.000    0.000    0.000    0.000    0.000    0.000 
#
# Total GULP energy -322895.194904 kJ/mol
# GULP energy per Si atom -5567.158533 kJ/mol
# Density = 2.197891 g / cm^3
# Si number density = 22.029048 Si / 1000 Ang^3
#
#
#
# Elastic Constant Matrix: (Units=GPa)
#
#
# Indices 1 2 3 4 5 6 
#
# 1 81.8719 14.6670 2.4970 0.0000 0.0000 0.0000
# 2 14.6670 44.0708 12.4374 0.0000 0.0000 0.0000
# 3 2.4970 12.4374 118.6553 0.0000 0.0000 0.0000
# 4 0.0000 0.0000 0.0000 3.3616 0.0000 0.0000
# 5 0.0000 0.0000 0.0000 0.0000 15.6404 0.0000
# 6 0.0000 0.0000 0.0000 0.0000 0.0000 9.7677
#
#
#
# Elastic Compliance Matrix: (Units=1/GPa)
#
#
# Indices 1 2 3 4 5 6 
#
# 1 0.012993 -0.004376 0.000185 0.000000 0.000000 0.000000
# 2 -0.004376 0.024857 -0.002513 0.000000 0.000000 0.000000
# 3 0.000185 -0.002513 0.008687 0.000000 0.000000 0.000000
# 4 0.000000 0.000000 0.000000 0.297479 0.000000 0.000000
# 5 0.000000 0.000000 0.000000 0.000000 0.063937 0.000000
# 6 0.000000 0.000000 0.000000 0.000000 0.000000 0.102378
#
#
# Mechanical properties :
#
#
# Convention : Reuss Voigt Hill
#
# Bulk Modulus (GPa) = 30.18622 33.75566 31.97094
# Shear Modulus (GPa) = 9.34960 20.08703 14.71832
#
# Velocity S-wave (km/s) = 2.06238 3.02295 2.58763
# Velocity P-wave (km/s) = 4.40499 5.24793 4.84483
#
# Compressibility (1/GPa) = 0.03312769
#
# Stress axis : x y z
#
# Youngs Moduli (GPa) = 76.96719 40.23090 115.11028
#
# Poissons Ratio (x) = 0.17606 -0.02133
# Poissons Ratio (y) = 0.33683 0.28931
# Poissons Ratio (z) = -0.01426 0.10111
#
# Static dielectric constant tensor:
#      x y z
#    x 1.841300 0.000000 0.000000 
#    y 0.000000 1.820800 0.000000 
#    z 0.000000 0.000000 1.892470 
# 
# From -- ./inp_files/26556.got.cif
#   From: 2010.05.17/outbox.cif.g08.bks.cpg/sg53_14_cif.got.tgz:26556.got - 2010.06.03 12:45:16.
