data_PCOD9414501
_publ_section_title
;
Structure prediction by ZEFSAII (Michael W. Deem and Ramdas Pophale) SiO2 
 PCOD9414501
Probable space group: P M N A
;
_chemical_formula_sum "Si O2"
_cell_formula_units_Z 64
_cell_length_a 7.437568
_cell_length_b 25.600909
_cell_length_c 15.121723
_cell_angle_alpha 90.000000
_cell_angle_beta 90.000000
_cell_angle_gamma 90.000000
_cell_volume 2879.304617
_symmetry_space_group_name_H-M "P M N A"
_symmetry_group_IT_number 53
_symmetry_cell_setting 'orthorhombic'
loop_
_space_group_symop_operation_xyz
x,y,z
1/2-x,-y,1/2+z
x,-y,-z
1/2-x,y,1/2-z
-x,-y,-z
1/2+x,y,1/2-z
-x,y,z
1/2+x,-y,1/2+z
loop_
_atom_site_type_symbol
_atom_site_label
_atom_site_fract_x
_atom_site_fract_y
_atom_site_fract_z
Si Si1 0.279880 0.680853 0.027374
Si Si2 0.214537 0.023670 0.650197
Si Si3 0.213813 0.408724 0.655534
Si Si4 0.214929 0.904602 0.650893
Si Si5 0.784716 0.777787 0.354429
Si Si6 0.220201 0.121300 0.539190
Si Si7 0.781769 0.482524 0.400037
Si Si8 0.785201 0.366781 0.350923
O O1 0.500000 0.682437 0.028967
O O2 0.221353 0.628093 0.077505
O O3 0.217830 0.729826 0.085234
O O4 0.222222 0.673647 0.925972
O O5 0.250000 0.042808 0.750000
O O6 0.279780 0.065804 0.579667
O O7 0.000000 0.020212 0.638036
O O8 0.285322 0.964449 0.644899
O O9 0.250000 0.383395 0.750000
O O10 0.286213 0.467601 0.654538
O O11 0.000000 0.412616 0.643652
O O12 0.250000 0.884415 0.750000
O O13 0.276637 0.874323 0.563303
O O14 0.000000 0.907348 0.644171
O O15 0.750000 0.772870 0.250000
O O16 0.719071 0.831843 0.397657
O O17 0.000000 0.777920 0.363128
O O18 0.000000 0.121453 0.541126
O O19 0.740571 0.500000 0.500000
O O20 0.715352 0.425653 0.371108
O O21 0.000000 0.479907 0.393795
O O22 0.750000 0.352449 0.250000
O O23 0.000000 0.369603 0.361229
#
# Coordination Sequence:
#
# PCOD9414501 Si02
#       8
#     8   8   8   8   8   8   8   8
#     4   9  18  33  52  70  92 125 160 189 227 284
#     4   9  16  27  45  69  96 126 159 195 236 282
#     4  10  18  29  47  70  93 120 153 187 227 274
#     4   9  17  30  47  68  95 127 162 197 233 277
#     4  10  20  35  54  75  97 123 156 194 237 283
#     4   9  17  30  49  70  94 127 162 194 234 287
#     4   9  15  27  48  69  91 124 159 187 221 277
#     4  10  19  33  52  72  95 125 161 197 233 276
#
# _framework density 22.227591
#
# number of rings (size 3 to 8) (size 9 to 14) (size 15 to 20)
#    0.000    2.625    1.250    1.500    0.000    1.500 
#    0.000    3.125    0.000    3.750    0.000    0.000 
#    0.000    0.000    0.000    0.000    0.000    0.000 
#
# Total GULP energy -357166.849218 kJ/mol
# GULP energy per Si atom -5580.732019 kJ/mol
# Density = 2.217700 g / cm^3
# Si number density = 22.227591 Si / 1000 Ang^3
#
#
#
# Elastic Constant Matrix: (Units=GPa)
#
#
# Indices 1 2 3 4 5 6 
#
# 1 68.1102 4.7240 -5.7199 0.0000 0.0000 0.0000
# 2 4.7240 68.7111 62.3714 0.0000 0.0000 0.0000
# 3 -5.7199 62.3714 197.5811 0.0000 0.0000 0.0000
# 4 0.0000 0.0000 0.0000 34.0974 0.0000 0.0000
# 5 0.0000 0.0000 0.0000 0.0000 20.8546 0.0000
# 6 0.0000 0.0000 0.0000 0.0000 0.0000 -6.2913
#
#
#
# Elastic Compliance Matrix: (Units=1/GPa)
#
#
# Indices 1 2 3 4 5 6 
#
# 1 0.014909 -0.001986 0.001058 0.000000 0.000000 0.000000
# 2 -0.001986 0.020664 -0.006580 0.000000 0.000000 0.000000
# 3 0.001058 -0.006580 0.007169 0.000000 0.000000 0.000000
# 4 0.000000 0.000000 0.000000 0.029328 0.000000 0.000000
# 5 0.000000 0.000000 0.000000 0.000000 0.047951 0.000000
# 6 0.000000 0.000000 0.000000 0.000000 0.000000 -0.158950
#
#
# Mechanical properties :
#
#
# Convention : Reuss Voigt Hill
#
# Bulk Modulus (GPa) = 36.06751 50.79484 43.43118
# Shear Modulus (GPa) = -340.78270 27.93393 -156.42438
#
# Velocity S-wave (km/s) = -12.39548 3.54887 -8.39802
# Velocity P-wave (km/s) = 13.73326 6.30035 8.62867
#
# Compressibility (1/GPa) = 0.02772578
#
# Stress axis : x y z
#
# Youngs Moduli (GPa) = 67.07489 48.39447 139.48677
#
# Poissons Ratio (x) = 0.09610 -0.14764
# Poissons Ratio (y) = 0.13320 0.91789
# Poissons Ratio (z) = -0.07100 0.31846
#
# Static dielectric constant tensor:
#      x y z
#    x 1.884620 0.000000 0.000000 
#    y 0.000000 1.805310 0.000000 
#    z 0.000000 0.000000 1.829470 
# 
# From -- ./inp_files/15037.got.cif
#   From: 2010.05.17/outbox.cif.g08.bks.cpg/sg53_8_cif.got.tgz:15037.got - 2010.06.03 12:45:16.
