data_PCOD9414539
_publ_section_title
;
Structure prediction by ZEFSAII (Michael W. Deem and Ramdas Pophale) SiO2 
 PCOD9414539
Probable space group: P M N A
;
_chemical_formula_sum "Si O2"
_cell_formula_units_Z 56
_cell_length_a 7.925980
_cell_length_b 17.363695
_cell_length_c 22.186977
_cell_angle_alpha 90.000000
_cell_angle_beta 90.000000
_cell_angle_gamma 90.000000
_cell_volume 3053.467163
_symmetry_space_group_name_H-M "P M N A"
_symmetry_group_IT_number 53
_symmetry_cell_setting 'orthorhombic'
loop_
_space_group_symop_operation_xyz
x,y,z
1/2-x,-y,1/2+z
x,-y,-z
1/2-x,y,1/2-z
-x,-y,-z
1/2+x,y,1/2-z
-x,y,z
1/2+x,-y,1/2+z
loop_
_atom_site_type_symbol
_atom_site_label
_atom_site_fract_x
_atom_site_fract_y
_atom_site_fract_z
Si Si1 0.304250 0.484070 0.092591
Si Si2 0.798142 0.197428 0.125093
Si Si3 0.803465 0.379978 0.983065
Si Si4 0.793799 0.045857 0.938916
Si Si5 0.796680 0.958278 0.817844
Si Si6 0.701043 0.359801 0.180970
Si Si7 0.794068 0.794062 0.012133
O O1 0.500000 0.503242 0.102233
O O2 0.213314 0.562001 0.072813
O O3 0.231636 0.436351 0.148375
O O4 0.291629 0.423301 0.037170
O O5 0.734999 0.128886 0.167906
O O6 0.759682 0.281987 0.148880
O O7 0.000000 0.189468 0.122637
O O8 0.737639 0.189421 0.056429
O O9 0.742665 0.293134 0.972034
O O10 0.000000 0.376039 0.001260
O O11 0.740131 0.134623 0.946744
O O12 0.000000 0.043080 0.938739
O O13 0.738309 0.008448 0.875625
O O14 0.742649 0.000000 0.000000
O O15 0.750000 0.982078 0.750000
O O16 0.000000 0.958753 0.819752
O O17 0.750000 0.356896 0.250000
O O18 0.500000 0.362371 0.174993
O O19 0.000000 0.794754 0.012760
#
# Coordination Sequence:
#
# PCOD9414539 Si02
#       7
#     8   8   8   8   8   8   8
#     4  10  20  33  48  69  98 129 161 197 241 296
#     4  10  18  31  50  74 103 133 164 203 248 299
#     4  10  18  29  50  75  97 125 158 202 246 287
#     4   9  15  28  50  75  99 129 170 211 250 290
#     4  10  20  32  51  74 101 137 171 209 252 300
#     4  11  23  35  49  70  99 136 169 201 243 295
#     4   9  16  27  48  77 103 125 163 211 248 287
#
# _framework density 18.339805999999999
#
# number of rings (size 3 to 8) (size 9 to 14) (size 15 to 20)
#    0.000    2.143    2.857    2.571    0.000    3.429 
#    0.000    0.000    0.000    3.857    0.000    4.000 
#    0.000    0.000    0.000    0.000    0.000    0.000 
#
# Total GULP energy -312298.919761 kJ/mol
# GULP energy per Si atom -5576.766424 kJ/mol
# Density = 1.829806 g / cm^3
# Si number density = 18.339806 Si / 1000 Ang^3
#
#
#
# Elastic Constant Matrix: (Units=GPa)
#
#
# Indices 1 2 3 4 5 6 
#
# 1 17.5215 4.3100 2.7419 0.0000 0.0000 0.0000
# 2 4.3100 119.4392 55.7453 0.0000 0.0000 0.0000
# 3 2.7419 55.7453 110.9487 0.0000 0.0000 0.0000
# 4 0.0000 0.0000 0.0000 27.2398 0.0000 0.0000
# 5 0.0000 0.0000 0.0000 0.0000 6.7116 0.0000
# 6 0.0000 0.0000 0.0000 0.0000 0.0000 9.7266
#
#
#
# Elastic Compliance Matrix: (Units=1/GPa)
#
#
# Indices 1 2 3 4 5 6 
#
# 1 0.057605 -0.001847 -0.000495 0.000000 0.000000 0.000000
# 2 -0.001847 0.010997 -0.005479 0.000000 0.000000 0.000000
# 3 -0.000495 -0.005479 0.011779 0.000000 0.000000 0.000000
# 4 0.000000 0.000000 0.000000 0.036711 0.000000 0.000000
# 5 0.000000 0.000000 0.000000 0.000000 0.148995 0.000000
# 6 0.000000 0.000000 0.000000 0.000000 0.000000 0.102811
#
#
# Mechanical properties :
#
#
# Convention : Reuss Voigt Hill
#
# Bulk Modulus (GPa) = 15.44758 41.50043 28.47400
# Shear Modulus (GPa) = 12.31164 21.07642 16.69403
#
# Velocity S-wave (km/s) = 2.59377 3.39369 3.02033
# Velocity P-wave (km/s) = 4.17270 6.16716 5.26523
#
# Compressibility (1/GPa) = 0.06473507
#
# Stress axis : x y z
#
# Youngs Moduli (GPa) = 17.35972 90.93777 84.90030
#
# Poissons Ratio (x) = 0.16801 0.04206
# Poissons Ratio (y) = 0.03207 0.46521
# Poissons Ratio (z) = 0.00860 0.49829
#
# Static dielectric constant tensor:
#      x y z
#    x 1.666760 0.000000 0.000000 
#    y 0.000000 1.649700 0.000000 
#    z 0.000000 0.000000 1.629560 
# 
# From -- ./inp_files/31026.got.cif
#   From: 2010.05.17/outbox.cif.g08.bks.cpg/sg53_16_cif.got.tgz:31026.got - 2010.06.03 12:45:16.
