data_PCOD9414523
_publ_section_title
;
Structure prediction by ZEFSAII (Michael W. Deem and Ramdas Pophale) SiO2 
 PCOD9414523
Probable space group: P M N A
;
_chemical_formula_sum "Si O2"
_cell_formula_units_Z 48
_cell_length_a 14.124705
_cell_length_b 9.978609
_cell_length_c 19.728481
_cell_angle_alpha 90.000000
_cell_angle_beta 90.000000
_cell_angle_gamma 90.000000
_cell_volume 2780.628948
_symmetry_space_group_name_H-M "P M N A"
_symmetry_group_IT_number 53
_symmetry_cell_setting 'orthorhombic'
loop_
_space_group_symop_operation_xyz
x,y,z
1/2-x,-y,1/2+z
x,-y,-z
1/2-x,y,1/2-z
-x,-y,-z
1/2+x,y,1/2-z
-x,y,z
1/2+x,-y,1/2+z
loop_
_atom_site_type_symbol
_atom_site_label
_atom_site_fract_x
_atom_site_fract_y
_atom_site_fract_z
Si Si1 0.386399 0.654305 0.980323
Si Si2 0.385669 0.002216 0.203665
Si Si3 0.114624 0.298717 0.323665
Si Si4 0.387850 0.588166 0.212347
Si Si5 0.110194 0.195344 0.826476
Si Si6 0.297689 0.790215 0.105569
O O1 0.500000 0.671046 0.987498
O O2 0.334627 0.754129 0.031663
O O3 0.364923 0.500000 0.000000
O O4 0.360313 0.681872 0.902570
O O5 0.500000 0.997293 0.197554
O O6 0.363565 0.921945 0.272738
O O7 0.343753 0.920923 0.140203
O O8 0.352734 0.155460 0.203488
O O9 0.142609 0.434209 0.285094
O O10 0.000000 0.294454 0.320586
O O11 0.500000 0.593281 0.194015
O O12 0.378056 0.669371 0.281951
O O13 0.333013 0.669270 0.154494
O O14 0.185119 0.197106 0.886526
O O15 0.000000 0.181816 0.845157
#
# Coordination Sequence:
#
# PCOD9414523 Si02
#       6
#     8   8   8   8   8   8
#     4  10  18  29  48  75 105 130 153 187 234 297
#     4   9  17  29  46  71 100 124 150 193 242 292
#     4   9  17  28  45  74 105 129 150 180 240 301
#     4   9  15  27  47  71  97 125 155 192 239 295
#     4   9  19  33  48  66  91 126 170 209 239 272
#     4  11  18  29  47  68  96 130 165 195 234 286
#
# _framework density 17.262281999999999
#
# number of rings (size 3 to 8) (size 9 to 14) (size 15 to 20)
#    0.000    2.500    1.667    4.500    0.000    0.667 
#    0.000    5.833    0.000    0.500    0.000    2.333 
#    0.000    0.000    0.000    0.000    0.000    0.000 
#
# Total GULP energy -267698.136060 kJ/mol
# GULP energy per Si atom -5577.044501 kJ/mol
# Density = 1.722299 g / cm^3
# Si number density = 17.262282 Si / 1000 Ang^3
#
#
#
# Elastic Constant Matrix: (Units=GPa)
#
#
# Indices 1 2 3 4 5 6 
#
# 1 60.6368 16.9711 24.4336 0.0000 0.0000 0.0000
# 2 16.9711 128.7825 15.1563 0.0000 0.0000 0.0000
# 3 24.4336 15.1563 27.2672 0.0000 0.0000 0.0000
# 4 0.0000 0.0000 0.0000 7.1403 0.0000 0.0000
# 5 0.0000 0.0000 0.0000 0.0000 22.3089 0.0000
# 6 0.0000 0.0000 0.0000 0.0000 0.0000 -3.5812
#
#
#
# Elastic Compliance Matrix: (Units=1/GPa)
#
#
# Indices 1 2 3 4 5 6 
#
# 1 0.025875 -0.000729 -0.022781 0.000000 0.000000 0.000000
# 2 -0.000729 0.008329 -0.003977 0.000000 0.000000 0.000000
# 3 -0.022781 -0.003977 0.059298 0.000000 0.000000 0.000000
# 4 0.000000 0.000000 0.000000 0.140050 0.000000 0.000000
# 5 0.000000 0.000000 0.000000 0.000000 0.044825 0.000000
# 6 0.000000 0.000000 0.000000 0.000000 0.000000 -0.279233
#
#
# Mechanical properties :
#
#
# Convention : Reuss Voigt Hill
#
# Bulk Modulus (GPa) = 25.95424 36.64539 31.29982
# Shear Modulus (GPa) = 74.66989 15.84862 45.25925
#
# Velocity S-wave (km/s) = 6.58407 3.03332 5.12596
# Velocity P-wave (km/s) = 8.53627 5.79160 7.29419
#
# Compressibility (1/GPa) = 0.03852935
#
# Stress axis : x y z
#
# Youngs Moduli (GPa) = 38.64692 120.06128 16.86391
#
# Poissons Ratio (x) = 0.08750 0.38418
# Poissons Ratio (y) = 0.02816 0.06706
# Poissons Ratio (z) = 0.88042 0.47744
#
# Static dielectric constant tensor:
#      x y z
#    x 1.599140 0.000000 0.000000 
#    y 0.000000 1.613830 0.000000 
#    z 0.000000 0.000000 1.553260 
# 
# From -- ./inp_files/32282.got.cif
#   From: 2010.05.17/outbox.cif.g08.bks.cpg/sg53_17_cif.got.tgz:32282.got - 2010.06.03 12:45:16.
