data_PCOD9414013
_publ_section_title
;
Structure prediction by ZEFSAII (Michael W. Deem and Ramdas Pophale) SiO2 
 PCOD9414013
Probable space group: P N N A
;
_chemical_formula_sum "Si O2"
_cell_formula_units_Z 40
_cell_length_a 9.000000
_cell_length_b 9.000000
_cell_length_c 24.000000
_cell_angle_alpha 90.000000
_cell_angle_beta 90.000000
_cell_angle_gamma 90.000000
_cell_volume 1944.000000
_symmetry_space_group_name_H-M "P N N A"
_symmetry_group_IT_number 52
_symmetry_cell_setting 'orthorhombic'
loop_
_space_group_symop_operation_xyz
x,y,z
1/2-x,-y,z
x,1/2-y,1/2-z
1/2-x,1/2+y,1/2-z
-x,-y,-z
1/2+x,y,-z
-x,1/2+y,1/2+z
1/2+x,1/2-y,1/2+z
loop_
_atom_site_type_symbol
_atom_site_label
_atom_site_fract_x
_atom_site_fract_y
_atom_site_fract_z
Si Si1 0.338193 0.158284 0.577076
Si Si2 0.617115 0.885926 0.976605
Si Si3 0.426253 0.983423 0.341951
Si Si4 0.088460 0.432186 0.741692
Si Si5 0.938290 0.801469 0.130606
O O1 0.361948 0.247229 0.519163
O O2 0.485928 0.121164 0.613771
O O3 0.229361 0.267419 0.611326
O O4 0.250000 0.000000 0.568683
O O5 0.546835 0.830628 0.920065
O O6 0.750000 0.000000 0.967025
O O7 0.500000 0.000000 0.000000
O O8 0.250000 0.000000 0.350410
O O9 0.472087 0.967242 0.276786
O O10 0.502353 0.143370 0.348832
O O11 0.250000 0.500000 0.754786
O O12 0.092722 0.250000 0.750000
O O13 0.056045 0.431667 0.675807
#
# Coordination Sequence:
#
# PCOD9414013 Si02
#       5
#     8   8   8   8   8
#     4  10  23  45  68  93 128 177 228 264 328 407
#     4  12  26  43  64  97 135 173 220 273 335 393
#     4  10  22  40  68  98 126 164 221 276 325 381
#     4  10  21  42  66  94 128 168 216 261 322 395
#     4  10  23  42  65  92 131 175 215 266 324 401
#
# _framework density 20.576132000000001
#
# number of rings (size 3 to 8) (size 9 to 14) (size 15 to 20)
#    0.000    1.600    2.000    3.000    5.600    4.800 
#    0.000    9.000    0.000    0.000    0.000    0.000 
#    0.000    0.000    0.000    0.000    0.000    0.000 
#
# Total GULP energy -222711.580782 kJ/mol
# GULP energy per Si atom -5567.789520 kJ/mol
# Density = 2.052930 g / cm^3
# Si number density = 20.576132 Si / 1000 Ang^3
#
#
#
# Elastic Constant Matrix: (Units=GPa)
#
#
# Indices 1 2 3 4 5 6 
#
# 1 129.7870 5.7161 38.6080 0.0000 0.0000 0.0000
# 2 5.7161 51.5951 28.0714 0.0000 0.0000 0.0000
# 3 38.6080 28.0714 98.7551 0.0000 0.0000 0.0000
# 4 0.0000 0.0000 0.0000 -17.7535 0.0000 0.0000
# 5 0.0000 0.0000 0.0000 0.0000 22.8234 0.0000
# 6 0.0000 0.0000 0.0000 0.0000 0.0000 19.7879
#
#
#
# Elastic Compliance Matrix: (Units=1/GPa)
#
#
# Indices 1 2 3 4 5 6 
#
# 1 0.008767 0.001057 -0.003728 0.000000 0.000000 0.000000
# 2 0.001057 0.023055 -0.006967 0.000000 0.000000 0.000000
# 3 -0.003728 -0.006967 0.013564 0.000000 0.000000 0.000000
# 4 0.000000 0.000000 0.000000 -0.056327 0.000000 0.000000
# 5 0.000000 0.000000 0.000000 0.000000 0.043815 0.000000
# 6 0.000000 0.000000 0.000000 0.000000 0.000000 0.050536
#
#
# Mechanical properties :
#
#
# Convention : Reuss Voigt Hill
#
# Bulk Modulus (GPa) = 38.29844 47.21426 42.75635
# Shear Modulus (GPa) = 44.88780 18.82100 31.85440
#
# Velocity S-wave (km/s) = 4.67577 3.02768 3.93889
# Velocity P-wave (km/s) = 6.91404 5.93451 6.44292
#
# Compressibility (1/GPa) = 0.02611072
#
# Stress axis : x y z
#
# Youngs Moduli (GPa) = 114.05937 43.37469 73.72560
#
# Poissons Ratio (x) = -0.04585 0.27485
# Poissons Ratio (y) = -0.12056 0.51362
# Poissons Ratio (z) = 0.42522 0.30218
#
# Static dielectric constant tensor:
#      x y z
#    x 1.624870 0.000000 0.000000 
#    y 0.000000 1.676510 0.000000 
#    z 0.000000 0.000000 1.966760 
# 
# From -- ./inp_files/39180.got.cif
#   From: 2010.05.17/outbox.ucp.g08.bks.cvg/sg52_20_cif.got.tgz:39180.got - 2010.06.11 16:30:12.
