data_PCOD9414435
_publ_section_title
;
Structure prediction by ZEFSAII (Michael W. Deem and Ramdas Pophale) SiO2 
 PCOD9414435
Probable space group: P M N A
;
_chemical_formula_sum "Si O2"
_cell_formula_units_Z 64
_cell_length_a 7.361032
_cell_length_b 22.715583
_cell_length_c 18.311392
_cell_angle_alpha 90.000000
_cell_angle_beta 90.000000
_cell_angle_gamma 90.000000
_cell_volume 3061.850298
_symmetry_space_group_name_H-M "P M N A"
_symmetry_group_IT_number 53
_symmetry_cell_setting 'orthorhombic'
loop_
_space_group_symop_operation_xyz
x,y,z
1/2-x,-y,1/2+z
x,-y,-z
1/2-x,y,1/2-z
-x,-y,-z
1/2+x,y,1/2-z
-x,y,z
1/2+x,-y,1/2+z
loop_
_atom_site_type_symbol
_atom_site_label
_atom_site_fract_x
_atom_site_fract_y
_atom_site_fract_z
Si Si1 0.720625 0.245466 0.604575
Si Si2 0.716766 0.275585 0.335890
Si Si3 0.783965 0.874369 0.168664
Si Si4 0.222049 0.390840 0.076931
Si Si5 0.779484 0.184768 0.048103
Si Si6 0.783340 0.504639 0.164881
Si Si7 0.278201 0.376071 0.592082
Si Si8 0.722054 0.064893 0.521479
O O1 0.500000 0.246961 0.607390
O O2 0.784294 0.192529 0.656574
O O3 0.768540 0.224343 0.522560
O O4 0.783271 0.311699 0.618469
O O5 0.750000 0.275103 0.250000
O O6 0.500000 0.276155 0.345540
O O7 0.783217 0.334848 0.375568
O O8 0.784120 0.218285 0.379715
O O9 0.750000 0.895699 0.250000
O O10 0.718592 0.915072 0.102450
O O11 0.000000 0.871340 0.159214
O O12 0.284096 0.451159 0.114725
O O13 0.000000 0.390982 0.077609
O O14 0.274842 0.384842 0.992516
O O15 0.000000 0.182861 0.049412
O O16 0.720644 0.118066 0.032097
O O17 0.750000 0.493564 0.250000
O O18 0.715228 0.568446 0.139335
O O19 0.000000 0.505885 0.154471
O O20 0.500000 0.375498 0.593603
O O21 0.500000 0.063904 0.520746
O O22 0.783490 0.000000 0.500000
#
# Coordination Sequence:
#
# PCOD9414435 Si02
#       8
#     8   8   8   8   8   8   8   8
#     4   8  13  24  43  66  86 108 143 184 218 249
#     4  10  18  28  45  67  90 115 143 180 224 265
#     4   9  17  28  45  69  94 118 146 182 223 263
#     4   9  16  28  46  66  85 110 149 189 219 252
#     4   8  13  24  42  63  86 112 144 180 216 253
#     4  10  20  31  44  64  89 115 143 180 224 266
#     4   9  15  26  46  68  85 107 148 193 219 247
#     4   8  14  26  46  69  89 115 155 193 215 243
#
# _framework density 20.902394000000001
#
# number of rings (size 3 to 8) (size 9 to 14) (size 15 to 20)
#    0.000    3.125    1.250    2.250    0.000    2.000 
#    0.000    0.625    0.000    5.625    0.000    0.000 
#    0.000    0.000    0.000    0.000    0.000    0.000 
#
# Total GULP energy -357138.500981 kJ/mol
# GULP energy per Si atom -5580.289078 kJ/mol
# Density = 2.085482 g / cm^3
# Si number density = 20.902394 Si / 1000 Ang^3
#
#
#
# Elastic Constant Matrix: (Units=GPa)
#
#
# Indices 1 2 3 4 5 6 
#
# 1 74.7723 9.9406 -2.4454 0.0000 0.0000 0.0000
# 2 9.9406 161.7245 30.1265 0.0000 0.0000 0.0000
# 3 -2.4454 30.1265 54.3461 0.0000 0.0000 0.0000
# 4 0.0000 0.0000 0.0000 20.3271 0.0000 0.0000
# 5 0.0000 0.0000 0.0000 0.0000 15.7792 0.0000
# 6 0.0000 0.0000 0.0000 0.0000 0.0000 -15.5144
#
#
#
# Elastic Compliance Matrix: (Units=1/GPa)
#
#
# Indices 1 2 3 4 5 6 
#
# 1 0.013553 -0.001056 0.001195 0.000000 0.000000 0.000000
# 2 -0.001056 0.006978 -0.003916 0.000000 0.000000 0.000000
# 3 0.001195 -0.003916 0.020625 0.000000 0.000000 0.000000
# 4 0.000000 0.000000 0.000000 0.049195 0.000000 0.000000
# 5 0.000000 0.000000 0.000000 0.000000 0.063375 0.000000
# 6 0.000000 0.000000 0.000000 0.000000 0.000000 -0.064456
#
#
# Mechanical properties :
#
#
# Convention : Reuss Voigt Hill
#
# Bulk Modulus (GPa) = 29.75869 40.67624 35.21746
# Shear Modulus (GPa) = 46.28636 20.99979 33.64308
#
# Velocity S-wave (km/s) = 4.71085 3.17308 4.01625
# Velocity P-wave (km/s) = 6.62249 5.73819 6.19614
#
# Compressibility (1/GPa) = 0.03360364
#
# Stress axis : x y z
#
# Youngs Moduli (GPa) = 73.78237 143.31497 48.48510
#
# Poissons Ratio (x) = 0.15130 -0.05794
# Poissons Ratio (y) = 0.07789 0.18984
# Poissons Ratio (z) = -0.08818 0.56115
#
# Static dielectric constant tensor:
#      x y z
#    x 1.813360 0.000000 0.000000 
#    y 0.000000 1.740080 0.000000 
#    z 0.000000 0.000000 1.714060 
# 
# From -- ./inp_files/27746.got.cif
#   From: 2010.05.17/outbox.cif.g08.bks.cpg/sg53_14_cif.got.tgz:27746.got - 2010.06.03 12:45:16.
