data_PCOD9414222
_publ_section_title
;
Structure prediction by ZEFSAII (Michael W. Deem and Ramdas Pophale) SiO2 
 PCOD9414222
Probable space group: P M N A
;
_chemical_formula_sum "Si O2"
_cell_formula_units_Z 48
_cell_length_a 8.661808
_cell_length_b 18.362637
_cell_length_c 14.785824
_cell_angle_alpha 90.000000
_cell_angle_beta 90.000000
_cell_angle_gamma 90.000000
_cell_volume 2351.739069
_symmetry_space_group_name_H-M "P M N A"
_symmetry_group_IT_number 53
_symmetry_cell_setting 'orthorhombic'
loop_
_space_group_symop_operation_xyz
x,y,z
1/2-x,-y,1/2+z
x,-y,-z
1/2-x,y,1/2-z
-x,-y,-z
1/2+x,y,1/2-z
-x,y,z
1/2+x,-y,1/2+z
loop_
_atom_site_type_symbol
_atom_site_label
_atom_site_fract_x
_atom_site_fract_y
_atom_site_fract_z
Si Si1 0.315791 0.303155 0.148977
Si Si2 0.686107 0.584463 0.005606
Si Si3 0.685073 0.847718 0.647408
Si Si4 0.314563 0.006779 0.647150
Si Si5 0.683421 0.306600 0.649019
Si Si6 0.184068 0.155605 0.647164
O O1 0.250000 0.312290 0.250000
O O2 0.500000 0.298009 0.154789
O O3 0.253299 0.226765 0.108939
O O4 0.273983 0.370354 0.084717
O O5 0.500000 0.588507 0.017047
O O6 0.765522 0.626206 0.087917
O O7 0.729768 0.500000 0.000000
O O8 0.750000 0.848749 0.750000
O O9 0.500000 0.842470 0.649540
O O10 0.725427 0.927213 0.607585
O O11 0.250000 0.004740 0.750000
O O12 0.500000 0.013206 0.649105
O O13 0.245348 0.080237 0.605489
O O14 0.750000 0.315533 0.750000
O O15 0.500000 0.299563 0.653601
O O16 0.753309 0.231491 0.609062
O O17 0.250000 0.155750 0.750000
O O18 0.000000 0.155663 0.649067
#
# Coordination Sequence:
#
# PCOD9414222 Si02
#       6
#     8   8   8   8   8   8
#     4  10  20  35  58  84 114 150 187 231 280 335
#     4  10  23  43  63  86 116 148 185 233 288 344
#     4   9  16  26  44  71 106 145 186 230 274 325
#     4   9  15  23  38  66 103 142 184 229 273 318
#     4  11  22  38  61  87 117 152 191 235 283 340
#     4  10  17  27  46  73 107 146 187 230 276 327
#
# _framework density 20.410429000000001
#
# number of rings (size 3 to 8) (size 9 to 14) (size 15 to 20)
#    0.000    2.167    0.000    7.500    0.000    4.333 
#    0.000    1.667    0.000    1.000    0.000    7.000 
#    0.000    0.000    0.000    0.000    0.000    0.000 
#
# Total GULP energy -267982.524776 kJ/mol
# GULP energy per Si atom -5582.969266 kJ/mol
# Density = 2.036397 g / cm^3
# Si number density = 20.410429 Si / 1000 Ang^3
#
#
#
# Elastic Constant Matrix: (Units=GPa)
#
#
# Indices 1 2 3 4 5 6 
#
# 1 108.2164 88.2736 40.8731 0.0000 0.0000 0.0000
# 2 88.2736 239.5453 66.0716 0.0000 0.0000 0.0000
# 3 40.8731 66.0716 92.0525 0.0000 0.0000 0.0000
# 4 0.0000 0.0000 0.0000 -506.4227 0.0000 0.0000
# 5 0.0000 0.0000 0.0000 0.0000 6.9989 0.0000
# 6 0.0000 0.0000 0.0000 0.0000 0.0000 22.8564
#
#
#
# Elastic Compliance Matrix: (Units=1/GPa)
#
#
# Indices 1 2 3 4 5 6 
#
# 1 0.013891 -0.004261 -0.003109 0.000000 0.000000 0.000000
# 2 -0.004261 0.006512 -0.002782 0.000000 0.000000 0.000000
# 3 -0.003109 -0.002782 0.014241 0.000000 0.000000 0.000000
# 4 0.000000 0.000000 0.000000 -0.001975 0.000000 0.000000
# 5 0.000000 0.000000 0.000000 0.000000 0.142880 0.000000
# 6 0.000000 0.000000 0.000000 0.000000 0.000000 0.043751
#
#
# Mechanical properties :
#
#
# Convention : Reuss Voigt Hill
#
# Bulk Modulus (GPa) = 69.74128 92.25010 80.99569
# Shear Modulus (GPa) = 20.45943 -79.00708 -29.27383
#
# Velocity S-wave (km/s) = 3.16951 -6.22842 -3.79127
# Velocity P-wave (km/s) = 6.90203 2.53547 4.53924
#
# Compressibility (1/GPa) = 0.01433871
#
# Stress axis : x y z
#
# Youngs Moduli (GPa) = 71.98818 153.55624 70.22046
#
# Poissons Ratio (x) = 0.65436 0.21834
# Poissons Ratio (y) = 0.30677 0.19536
# Poissons Ratio (z) = 0.22383 0.42721
#
# Static dielectric constant tensor:
#      x y z
#    x 1.679290 0.000000 0.000000 
#    y 0.000000 1.767470 0.000000 
#    z 0.000000 0.000000 1.787420 
# 
# From -- ./inp_files/20189.got.cif
#   From: 2010.05.17/outbox.cif.g08.bks.cpg/sg53_11_cif.got.tgz:20189.got - 2010.06.03 12:45:16.
