data_PCOD9414547
_publ_section_title
;
Structure prediction by ZEFSAII (Michael W. Deem and Ramdas Pophale) SiO2 
 PCOD9414547
Probable space group: P M N A
;
_chemical_formula_sum "Si O2"
_cell_formula_units_Z 64
_cell_length_a 9.045742
_cell_length_b 19.518529
_cell_length_c 21.948767
_cell_angle_alpha 90.000000
_cell_angle_beta 90.000000
_cell_angle_gamma 90.000000
_cell_volume 3875.265029
_symmetry_space_group_name_H-M "P M N A"
_symmetry_group_IT_number 53
_symmetry_cell_setting 'orthorhombic'
loop_
_space_group_symop_operation_xyz
x,y,z
1/2-x,-y,1/2+z
x,-y,-z
1/2-x,y,1/2-z
-x,-y,-z
1/2+x,y,1/2-z
-x,y,z
1/2+x,-y,1/2+z
loop_
_atom_site_type_symbol
_atom_site_label
_atom_site_fract_x
_atom_site_fract_y
_atom_site_fract_z
Si Si1 0.180404 0.041585 0.439100
Si Si2 0.672680 0.187127 0.016696
Si Si3 0.830080 0.179258 0.625495
Si Si4 0.326462 0.703103 0.311623
Si Si5 0.176740 0.033663 0.684938
Si Si6 0.674834 0.596673 0.110632
Si Si7 0.176627 0.332278 0.007096
Si Si8 0.167558 0.531166 0.931285
O O1 0.223241 0.121242 0.445202
O O2 0.000000 0.039049 0.439992
O O3 0.228709 0.000000 0.500000
O O4 0.227687 0.009195 0.374611
O O5 0.500000 0.201875 0.030425
O O6 0.764736 0.256880 0.022207
O O7 0.677228 0.163036 0.946039
O O8 0.717080 0.239517 0.639412
O O9 0.798246 0.112841 0.665884
O O10 0.000000 0.202070 0.637942
O O11 0.250000 0.727165 0.250000
O O12 0.500000 0.696117 0.305298
O O13 0.251974 0.632670 0.332462
O O14 0.250000 0.018156 0.750000
O O15 0.000000 0.024317 0.690496
O O16 0.500000 0.604695 0.112565
O O17 0.721935 0.517660 0.104535
O O18 0.739100 0.637494 0.051883
O O19 0.203584 0.389009 0.059811
O O20 0.000000 0.332151 0.995084
O O21 0.000000 0.523673 0.907732
O O22 0.166499 0.500000 0.000000
#
# Coordination Sequence:
#
# PCOD9414547 Si02
#       8
#     8   8   8   8   8   8   8   8
#     4   9  16  31  53  75  98 132 174 216 260 310
#     4  10  18  29  51  76  99 130 172 214 256 306
#     4  10  19  32  50  73  99 132 171 213 254 305
#     4  12  24  36  49  67  97 136 175 213 252 299
#     4  10  20  34  53  75 102 134 174 216 262 313
#     4  11  20  31  48  70  96 127 166 207 247 292
#     4  10  19  31  47  70 101 132 161 197 248 303
#     4   8  16  30  46  66  94 127 159 192 237 291
#
# _framework density 16.514999
#
# number of rings (size 3 to 8) (size 9 to 14) (size 15 to 20)
#    0.000    2.000    2.500    3.750    0.000    4.250 
#    0.000    0.625    0.000    0.750    0.000    0.875 
#    0.000    4.000    0.000    0.000    0.000    0.000 
#
# Total GULP energy -356828.149209 kJ/mol
# GULP energy per Si atom -5575.439831 kJ/mol
# Density = 1.647741 g / cm^3
# Si number density = 16.514999 Si / 1000 Ang^3
#
#
#
# Elastic Constant Matrix: (Units=GPa)
#
#
# Indices 1 2 3 4 5 6 
#
# 1 79.9745 40.5052 26.6721 0.0000 0.0000 0.0000
# 2 40.5052 97.2091 36.0297 0.0000 0.0000 0.0000
# 3 26.6721 36.0297 60.4767 0.0000 0.0000 0.0000
# 4 0.0000 0.0000 0.0000 14.6990 0.0000 0.0000
# 5 0.0000 0.0000 0.0000 0.0000 4.3711 0.0000
# 6 0.0000 0.0000 0.0000 0.0000 0.0000 17.3346
#
#
#
# Elastic Compliance Matrix: (Units=1/GPa)
#
#
# Indices 1 2 3 4 5 6 
#
# 1 0.016608 -0.005397 -0.004109 0.000000 0.000000 0.000000
# 2 -0.005397 0.014956 -0.006530 0.000000 0.000000 0.000000
# 3 -0.004109 -0.006530 0.022238 0.000000 0.000000 0.000000
# 4 0.000000 0.000000 0.000000 0.068032 0.000000 0.000000
# 5 0.000000 0.000000 0.000000 0.000000 0.228773 0.000000
# 6 0.000000 0.000000 0.000000 0.000000 0.000000 0.057688
#
#
# Mechanical properties :
#
#
# Convention : Reuss Voigt Hill
#
# Bulk Modulus (GPa) = 46.02078 49.34161 47.68120
# Shear Modulus (GPa) = 11.17040 16.24450 13.70745
#
# Velocity S-wave (km/s) = 2.60355 3.13968 2.88410
# Velocity P-wave (km/s) = 6.07984 6.56393 6.32652
#
# Compressibility (1/GPa) = 0.02172931
#
# Stress axis : x y z
#
# Youngs Moduli (GPa) = 60.21198 66.86132 44.96821
#
# Poissons Ratio (x) = 0.36086 0.18478
# Poissons Ratio (y) = 0.32498 0.29365
# Poissons Ratio (z) = 0.24742 0.43661
#
# Static dielectric constant tensor:
#      x y z
#    x 1.554350 0.000000 0.000000 
#    y 0.000000 1.579380 0.000000 
#    z 0.000000 0.000000 1.606980 
# 
# From -- ./inp_files/31391.got.cif
#   From: 2010.05.17/outbox.cif.g08.bks.cpg/sg53_16_cif.got.tgz:31391.got - 2010.06.03 12:45:16.
