data_PCOD9414212
_publ_section_title
;
Structure prediction by ZEFSAII (Michael W. Deem and Ramdas Pophale) SiO2 
 PCOD9414212
Probable space group: P M N A
;
_chemical_formula_sum "Si O2"
_cell_formula_units_Z 48
_cell_length_a 8.619445
_cell_length_b 32.275588
_cell_length_c 9.122889
_cell_angle_alpha 90.000000
_cell_angle_beta 90.000000
_cell_angle_gamma 90.000000
_cell_volume 2537.966332
_symmetry_space_group_name_H-M "P M N A"
_symmetry_group_IT_number 53
_symmetry_cell_setting 'orthorhombic'
loop_
_space_group_symop_operation_xyz
x,y,z
1/2-x,-y,1/2+z
x,-y,-z
1/2-x,y,1/2-z
-x,-y,-z
1/2+x,y,1/2-z
-x,y,z
1/2+x,-y,1/2+z
loop_
_atom_site_type_symbol
_atom_site_label
_atom_site_fract_x
_atom_site_fract_y
_atom_site_fract_z
Si Si1 0.185469 0.787311 0.917167
Si Si2 0.314578 0.378536 0.586053
Si Si3 0.185639 0.700743 0.583978
Si Si4 0.814907 0.872550 0.582713
Si Si5 0.185724 0.041906 0.085513
Si Si6 0.685774 0.542441 0.913909
O O1 0.250000 0.787283 0.750000
O O2 0.249725 0.744211 0.979437
O O3 0.247443 0.830224 0.984881
O O4 0.000000 0.787213 0.914329
O O5 0.250000 0.382046 0.750000
O O6 0.500000 0.375634 0.587761
O O7 0.244006 0.337938 0.509386
O O8 0.262095 0.418772 0.495548
O O9 0.250000 0.696293 0.750000
O O10 0.000000 0.702212 0.589439
O O11 0.750000 0.873564 0.750000
O O12 0.500000 0.870630 0.913252
O O13 0.757959 0.916162 0.517718
O O14 0.250000 0.037893 0.250000
O O15 0.000000 0.046697 0.090270
O O16 0.224628 0.000000 0.000000
O O17 0.750000 0.539659 0.750000
O O18 0.500000 0.548080 0.911096
O O19 0.720315 0.500000 0.000000
#
# Coordination Sequence:
#
# PCOD9414212 Si02
#       6
#     8   8   8   8   8   8
#     4  10  17  28  47  74 106 138 175 221 272 323
#     4  12  25  42  62  86 117 154 195 237 283 334
#     4  11  21  36  57  84 115 147 185 229 279 331
#     4  10  17  27  45  70 100 134 172 216 267 320
#     4  10  20  33  50  73 101 134 173 217 266 320
#     4  11  24  42  65  93 124 158 196 239 287 337
#
# _framework density 18.912780000000001
#
# number of rings (size 3 to 8) (size 9 to 14) (size 15 to 20)
#    0.000    1.333    0.000   11.000    0.000    4.000 
#    0.000    0.000    0.000    1.000    0.000    4.667 
#    0.000    0.000    0.000    0.000    0.000    0.000 
#
# Total GULP energy -268187.134993 kJ/mol
# GULP energy per Si atom -5587.231979 kJ/mol
# Density = 1.886973 g / cm^3
# Si number density = 18.912780 Si / 1000 Ang^3
#
#
#
# Elastic Constant Matrix: (Units=GPa)
#
#
# Indices 1 2 3 4 5 6 
#
# 1 185.0345 104.3509 43.2820 0.0000 0.0000 0.0000
# 2 104.3509 206.7933 65.0141 0.0000 0.0000 0.0000
# 3 43.2820 65.0141 76.5633 0.0000 0.0000 0.0000
# 4 0.0000 0.0000 0.0000 18.1649 0.0000 0.0000
# 5 0.0000 0.0000 0.0000 0.0000 15.3412 0.0000
# 6 0.0000 0.0000 0.0000 0.0000 0.0000 38.3194
#
#
#
# Elastic Compliance Matrix: (Units=1/GPa)
#
#
# Indices 1 2 3 4 5 6 
#
# 1 0.007667 -0.003419 -0.001431 0.000000 0.000000 0.000000
# 2 -0.003419 0.008122 -0.004964 0.000000 0.000000 0.000000
# 3 -0.001431 -0.004964 0.018085 0.000000 0.000000 0.000000
# 4 0.000000 0.000000 0.000000 0.055051 0.000000 0.000000
# 5 0.000000 0.000000 0.000000 0.000000 0.065184 0.000000
# 6 0.000000 0.000000 0.000000 0.000000 0.000000 0.026096
#
#
# Mechanical properties :
#
#
# Convention : Reuss Voigt Hill
#
# Bulk Modulus (GPa) = 70.19369 99.29836 84.74603
# Shear Modulus (GPa) = 24.44008 31.41470 27.92739
#
# Velocity S-wave (km/s) = 3.59869 4.08000 3.84688
# Velocity P-wave (km/s) = 7.37987 8.64942 8.03974
#
# Compressibility (1/GPa) = 0.01424629
#
# Stress axis : x y z
#
# Youngs Moduli (GPa) = 130.42245 123.12790 55.29448
#
# Poissons Ratio (x) = 0.42099 0.07913
# Poissons Ratio (y) = 0.44594 0.27446
# Poissons Ratio (z) = 0.18664 0.61116
#
# Static dielectric constant tensor:
#      x y z
#    x 1.629480 0.000000 0.000000 
#    y 0.000000 1.703570 0.000000 
#    z 0.000000 0.000000 1.650470 
# 
# From -- ./inp_files/6722.got.cif
#   From: 2010.05.17/outbox.cif.g08.bks.cpg/sg53_4_cif.got.tgz:6722.got - 2010.06.03 12:45:16.
