data_PCOD9414898
_publ_section_title
;
Structure prediction by ZEFSAII (Michael W. Deem and Ramdas Pophale) SiO2 
 PCOD9414898
Probable space group: P M N A
;
_chemical_formula_sum "Si O2"
_cell_formula_units_Z 40
_cell_length_a 26.842588
_cell_length_b 7.399626
_cell_length_c 8.131938
_cell_angle_alpha 90.000000
_cell_angle_beta 90.000000
_cell_angle_gamma 90.000000
_cell_volume 1615.207097
_symmetry_space_group_name_H-M "P M N A"
_symmetry_group_IT_number 53
_symmetry_cell_setting 'orthorhombic'
loop_
_space_group_symop_operation_xyz
x,y,z
1/2-x,-y,1/2+z
x,-y,-z
1/2-x,y,1/2-z
-x,-y,-z
1/2+x,y,1/2-z
-x,y,z
1/2+x,-y,1/2+z
loop_
_atom_site_type_symbol
_atom_site_label
_atom_site_fract_x
_atom_site_fract_y
_atom_site_fract_z
Si Si1 0.197159 0.786593 0.463237
Si Si2 0.689687 0.695645 0.426200
Si Si3 0.943590 0.162440 0.681187
Si Si4 0.913915 0.797907 0.986762
Si Si5 0.400856 0.234073 0.143834
O O1 0.187448 0.728122 0.272237
O O2 0.066570 0.729709 0.484392
O O3 0.155065 0.712023 0.588699
O O4 0.195019 0.000000 0.500000
O O5 0.677609 0.500000 0.500000
O O6 0.645797 0.812487 0.503675
O O7 0.745407 0.734369 0.488933
O O8 0.931856 0.279552 0.841080
O O9 0.000000 0.095755 0.682666
O O10 0.906894 0.986414 0.672556
O O11 0.922636 0.700153 0.815801
O O12 0.936485 0.000000 0.000000
#
# Coordination Sequence:
#
# PCOD9414898 Si02
#       5
#     8   8   8   8   8
#     4  11  21  41  67  91 132 184 234 283 345 427
#     4  11  25  42  63  98 142 182 226 287 352 420
#     4  10  19  34  57  94 135 165 217 296 354 400
#     4  10  20  36  61  92 128 177 226 275 343 421
#     4  10  18  32  58  88 127 164 215 279 348 400
#
# _framework density 24.764626
#
# number of rings (size 3 to 8) (size 9 to 14) (size 15 to 20)
#    0.000    1.600    4.000    3.000    0.000   10.000 
#    0.000    0.000    0.000    0.600    0.000    1.400 
#    0.000    0.000    0.000    0.000    0.000    0.000 
#
# Total GULP energy -223131.692598 kJ/mol
# GULP energy per Si atom -5578.292315 kJ/mol
# Density = 2.470826 g / cm^3
# Si number density = 24.764626 Si / 1000 Ang^3
#
#
#
# Elastic Constant Matrix: (Units=GPa)
#
#
# Indices 1 2 3 4 5 6 
#
# 1 113.2124 2.7419 35.3088 0.0000 0.0000 0.0000
# 2 2.7419 107.4127 26.8691 0.0000 0.0000 0.0000
# 3 35.3088 26.8691 244.2525 0.0000 0.0000 0.0000
# 4 0.0000 0.0000 0.0000 10.3477 0.0000 0.0000
# 5 0.0000 0.0000 0.0000 0.0000 -5.6111 0.0000
# 6 0.0000 0.0000 0.0000 0.0000 0.0000 -196.7069
#
#
#
# Elastic Compliance Matrix: (Units=1/GPa)
#
#
# Indices 1 2 3 4 5 6 
#
# 1 0.009251 0.000101 -0.001348 0.000000 0.000000 0.000000
# 2 0.000101 0.009574 -0.001068 0.000000 0.000000 0.000000
# 3 -0.001348 -0.001068 0.004407 0.000000 0.000000 0.000000
# 4 0.000000 0.000000 0.000000 0.096640 0.000000 0.000000
# 5 0.000000 0.000000 0.000000 0.000000 -0.178218 0.000000
# 6 0.000000 0.000000 0.000000 0.000000 0.000000 -0.005084
#
#
# Mechanical properties :
#
#
# Convention : Reuss Voigt Hill
#
# Bulk Modulus (GPa) = 53.75846 66.07965 59.91906
# Shear Modulus (GPa) = -95.05932 -11.73020 -53.39476
#
# Velocity S-wave (km/s) = -6.20229 -2.17875 -4.64841
# Velocity P-wave (km/s) = 5.43474 4.51793 2.13596
#
# Compressibility (1/GPa) = 0.01860172
#
# Stress axis : x y z
#
# Youngs Moduli (GPa) = 108.09571 104.44486 226.93621
#
# Poissons Ratio (x) = -0.01057 0.30601
# Poissons Ratio (y) = -0.01094 0.24234
# Poissons Ratio (z) = 0.14576 0.11153
#
# Static dielectric constant tensor:
#      x y z
#    x 1.922110 0.000000 0.000000 
#    y 0.000000 2.016080 0.000000 
#    z 0.000000 0.000000 2.094570 
# 
# From -- ./inp_files/17624.got.cif
#   From: 2010.05.17/outbox.cif.g08.bks.cpg/sg53_9_cif.got.tgz:17624.got - 2010.06.03 12:45:16.
