data_PCOD9414051
_publ_section_title
;
Structure prediction by ZEFSAII (Michael W. Deem and Ramdas Pophale) SiO2 
 PCOD9414051
Probable space group: P N N A
;
_chemical_formula_sum "Si O2"
_cell_formula_units_Z 56
_cell_length_a 21.000000
_cell_length_b 12.000000
_cell_length_c 12.000000
_cell_angle_alpha 90.000000
_cell_angle_beta 90.000000
_cell_angle_gamma 90.000000
_cell_volume 3024.000000
_symmetry_space_group_name_H-M "P N N A"
_symmetry_group_IT_number 52
_symmetry_cell_setting 'orthorhombic'
loop_
_space_group_symop_operation_xyz
x,y,z
1/2-x,-y,z
x,1/2-y,1/2-z
1/2-x,1/2+y,1/2-z
-x,-y,-z
1/2+x,y,-z
-x,1/2+y,1/2+z
1/2+x,1/2-y,1/2+z
loop_
_atom_site_type_symbol
_atom_site_label
_atom_site_fract_x
_atom_site_fract_y
_atom_site_fract_z
Si Si1 0.553678 0.728113 0.074024
Si Si2 0.750000 0.000000 0.630036
Si Si3 0.250000 0.000000 0.764606
Si Si4 0.502457 0.925591 0.229862
Si Si5 0.294054 0.334185 0.933620
Si Si6 0.649480 0.122464 0.793533
Si Si7 0.532411 0.320862 0.363285
Si Si8 0.821590 0.649981 0.443578
O O1 0.537911 0.835230 0.151263
O O2 0.524632 0.619864 0.144771
O O3 0.631314 0.708725 0.063277
O O4 0.515714 0.765091 0.958106
O O5 0.780666 0.090691 0.544326
O O6 0.695589 0.051511 0.711402
O O7 0.281893 0.090569 0.678837
O O8 0.199981 0.058379 0.850382
O O9 0.425412 0.911265 0.218840
O O10 0.518446 0.049953 0.179113
O O11 0.236733 0.241042 0.935348
O O12 0.654242 0.250000 0.750000
O O13 0.671352 0.115161 0.924652
O O14 0.527427 0.250000 0.250000
O O15 0.605829 0.313926 0.409539
#
# Coordination Sequence:
#
# PCOD9414051 Si02
#       8
#     8   4   4   8   8   8   8   8
#     4  11  25  46  73 103 137 193 232 298 354 431
#     4  11  27  46  74 106 141 183 234 298 354 431
#     4  11  25  42  70 106 139 189 228 294 350 429
#     4  11  25  48  75 100 145 185 246 292 358 435
#     4  11  26  46  70 104 148 180 238 290 359 424
#     4  12  23  49  73 104 139 190 237 292 362 426
#     4  12  27  45  70 109 143 186 240 297 358 431
#     4  12  25  45  71  99 142 184 234 288 355 422
#
# _framework density 18.518519000000001
#
# number of rings (size 3 to 8) (size 9 to 14) (size 15 to 20)
#    0.000    0.571    4.286    3.000    8.000    2.857 
#    0.000    0.000    0.000    0.000    0.000    0.000 
#    0.000    0.000    0.000    0.000    0.000    0.000 
#
# Total GULP energy -312328.410004 kJ/mol
# GULP energy per Si atom -5577.293036 kJ/mol
# Density = 1.847637 g / cm^3
# Si number density = 18.518519 Si / 1000 Ang^3
#
#
#
# Elastic Constant Matrix: (Units=GPa)
#
#
# Indices 1 2 3 4 5 6 
#
# 1 207.3117 70.6367 71.8930 0.0000 0.0000 0.0000
# 2 70.6367 113.7427 61.1748 0.0000 0.0000 0.0000
# 3 71.8930 61.1748 186.3555 0.0000 0.0000 0.0000
# 4 0.0000 0.0000 0.0000 47.1751 0.0000 0.0000
# 5 0.0000 0.0000 0.0000 0.0000 43.0175 0.0000
# 6 0.0000 0.0000 0.0000 0.0000 0.0000 39.2318
#
#
#
# Elastic Compliance Matrix: (Units=1/GPa)
#
#
# Indices 1 2 3 4 5 6 
#
# 1 0.006412 -0.003220 -0.001417 0.000000 0.000000 0.000000
# 2 -0.003220 0.012294 -0.002793 0.000000 0.000000 0.000000
# 3 -0.001417 -0.002793 0.006830 0.000000 0.000000 0.000000
# 4 0.000000 0.000000 0.000000 0.021198 0.000000 0.000000
# 5 0.000000 0.000000 0.000000 0.000000 0.023246 0.000000
# 6 0.000000 0.000000 0.000000 0.000000 0.000000 0.025490
#
#
# Mechanical properties :
#
#
# Convention : Reuss Voigt Hill
#
# Bulk Modulus (GPa) = 93.67463 101.64653 97.66058
# Shear Modulus (GPa) = 43.90275 46.13190 45.01733
#
# Velocity S-wave (km/s) = 4.87432 4.99653 4.93580
# Velocity P-wave (km/s) = 9.07594 9.39656 9.23764
#
# Compressibility (1/GPa) = 0.01067525
#
# Stress axis : x y z
#
# Youngs Moduli (GPa) = 155.95491 81.34064 146.42148
#
# Poissons Ratio (x) = 0.26193 0.20742
# Poissons Ratio (y) = 0.50220 0.40902
# Poissons Ratio (z) = 0.22093 0.22722
#
# Static dielectric constant tensor:
#      x y z
#    x 1.638070 0.000000 0.000000 
#    y 0.000000 1.679300 0.000000 
#    z 0.000000 0.000000 1.657280 
# 
# From -- ./inp_files/21719.got.cif
#   From: 2010.05.17/outbox.ucp.g08.bks.cvg/sg52_11_cif.got.tgz:21719.got - 2010.06.11 16:30:12.
