data_PCOD9414553
_publ_section_title
;
Structure prediction by ZEFSAII (Michael W. Deem and Ramdas Pophale) SiO2 
 PCOD9414553
Probable space group: P M N A
;
_chemical_formula_sum "Si O2"
_cell_formula_units_Z 64
_cell_length_a 15.603949
_cell_length_b 12.943062
_cell_length_c 15.138699
_cell_angle_alpha 90.000000
_cell_angle_beta 90.000000
_cell_angle_gamma 90.000000
_cell_volume 3057.455240
_symmetry_space_group_name_H-M "P M N A"
_symmetry_group_IT_number 53
_symmetry_cell_setting 'orthorhombic'
loop_
_space_group_symop_operation_xyz
x,y,z
1/2-x,-y,1/2+z
x,-y,-z
1/2-x,y,1/2-z
-x,-y,-z
1/2+x,y,1/2-z
-x,y,z
1/2+x,-y,1/2+z
loop_
_atom_site_type_symbol
_atom_site_label
_atom_site_fract_x
_atom_site_fract_y
_atom_site_fract_z
Si Si1 0.103926 0.219147 0.806553
Si Si2 0.868968 0.533744 0.406623
Si Si3 0.096601 0.233460 0.613789
Si Si4 0.605182 0.152848 0.247962
Si Si5 0.604152 0.893332 0.951160
Si Si6 0.304274 0.428109 0.658790
Si Si7 0.898938 0.610560 0.760453
Si Si8 0.604590 0.007816 0.600750
O O1 0.137784 0.201103 0.706368
O O2 0.139184 0.325981 0.845302
O O3 0.000000 0.226344 0.802178
O O4 0.127611 0.120470 0.863417
O O5 0.903592 0.500000 0.500000
O O6 0.907978 0.643150 0.379370
O O7 0.768342 0.560124 0.413692
O O8 0.883148 0.445293 0.334026
O O9 0.133038 0.195909 0.520155
O O10 0.000000 0.189387 0.615399
O O11 0.500000 0.151507 0.247652
O O12 0.634052 0.116799 0.150005
O O13 0.632561 0.271857 0.261273
O O14 0.632777 0.078762 0.328357
O O15 0.500000 0.888392 0.944274
O O16 0.626373 0.000000 0.000000
O O17 0.250000 0.417975 0.750000
O O18 0.356406 0.533521 0.669633
O O19 0.000000 0.612576 0.775197
O O20 0.500000 0.001721 0.599039
O O21 0.635236 0.000000 0.500000
#
# Coordination Sequence:
#
# PCOD9414553 Si02
#       8
#     8   8   8   8   8   8   8   8
#     4  10  18  33  59  83 107 140 188 242 283 326
#     4  11  22  35  52  80 115 154 189 228 282 348
#     4  10  18  29  52  85 113 145 187 232 280 336
#     4   9  17  30  49  77 112 145 174 225 292 339
#     4   9  16  26  43  76 118 148 174 215 278 345
#     4  10  20  36  54  77 110 152 187 226 279 336
#     4  10  19  34  58  83 112 144 187 237 285 339
#     4   9  18  33  54  81 108 138 184 238 288 334
#
# _framework density 20.932442000000002
#
# number of rings (size 3 to 8) (size 9 to 14) (size 15 to 20)
#    0.000    2.250    2.500    2.250    0.000    5.000 
#    2.250    0.000    0.000    3.750    0.000    0.000 
#    0.000    0.000    0.000    0.000    0.000    0.000 
#
# Total GULP energy -357004.142611 kJ/mol
# GULP energy per Si atom -5578.189728 kJ/mol
# Density = 2.088480 g / cm^3
# Si number density = 20.932442 Si / 1000 Ang^3
#
#
#
# Elastic Constant Matrix: (Units=GPa)
#
#
# Indices 1 2 3 4 5 6 
#
# 1 36.8377 25.2688 21.4649 0.0000 0.0000 0.0000
# 2 25.2688 162.7641 79.9737 0.0000 0.0000 0.0000
# 3 21.4649 79.9737 137.3915 0.0000 0.0000 0.0000
# 4 0.0000 0.0000 0.0000 25.1765 0.0000 0.0000
# 5 0.0000 0.0000 0.0000 0.0000 8.6033 0.0000
# 6 0.0000 0.0000 0.0000 0.0000 0.0000 -9.9088
#
#
#
# Elastic Compliance Matrix: (Units=1/GPa)
#
#
# Indices 1 2 3 4 5 6 
#
# 1 0.031172 -0.003427 -0.002876 0.000000 0.000000 0.000000
# 2 -0.003427 0.008982 -0.004693 0.000000 0.000000 0.000000
# 3 -0.002876 -0.004693 0.010459 0.000000 0.000000 0.000000
# 4 0.000000 0.000000 0.000000 0.039720 0.000000 0.000000
# 5 0.000000 0.000000 0.000000 0.000000 0.116235 0.000000
# 6 0.000000 0.000000 0.000000 0.000000 0.000000 -0.100920
#
#
# Mechanical properties :
#
#
# Convention : Reuss Voigt Hill
#
# Bulk Modulus (GPa) = 34.93646 65.60089 50.26868
# Shear Modulus (GPa) = 36.44900 18.79324 27.62112
#
# Velocity S-wave (km/s) = 4.17738 2.99959 3.63648
# Velocity P-wave (km/s) = 6.32405 6.58818 6.45747
#
# Compressibility (1/GPa) = 0.02862339
#
# Stress axis : x y z
#
# Youngs Moduli (GPa) = 32.08001 111.33901 95.60884
#
# Poissons Ratio (x) = 0.38151 0.27493
# Poissons Ratio (y) = 0.10992 0.44867
# Poissons Ratio (z) = 0.09225 0.52248
#
# Static dielectric constant tensor:
#      x y z
#    x 1.794630 0.000000 0.000000 
#    y 0.000000 1.738610 0.000000 
#    z 0.000000 0.000000 1.762530 
# 
# From -- ./inp_files/23908.got.cif
#   From: 2010.05.17/outbox.cif.g08.bks.cpg/sg53_12_cif.got.tgz:23908.got - 2010.06.03 12:45:16.
