data_PCOD9414226
_publ_section_title
;
Structure prediction by ZEFSAII (Michael W. Deem and Ramdas Pophale) SiO2 
 PCOD9414226
Probable space group: P M N A
;
_chemical_formula_sum "Si O2"
_cell_formula_units_Z 64
_cell_length_a 8.455979
_cell_length_b 25.099684
_cell_length_c 14.865583
_cell_angle_alpha 90.000000
_cell_angle_beta 90.000000
_cell_angle_gamma 90.000000
_cell_volume 3155.107025
_symmetry_space_group_name_H-M "P M N A"
_symmetry_group_IT_number 53
_symmetry_cell_setting 'orthorhombic'
loop_
_space_group_symop_operation_xyz
x,y,z
1/2-x,-y,1/2+z
x,-y,-z
1/2-x,y,1/2-z
-x,-y,-z
1/2+x,y,1/2-z
-x,y,z
1/2+x,-y,1/2+z
loop_
_atom_site_type_symbol
_atom_site_label
_atom_site_fract_x
_atom_site_fract_y
_atom_site_fract_z
Si Si1 0.189759 0.032585 0.353719
Si Si2 0.688118 0.077920 0.646593
Si Si3 0.690619 0.418833 0.649906
Si Si4 0.690783 0.752008 0.973839
Si Si5 0.691353 0.850749 0.852541
Si Si6 0.188753 0.191289 0.648662
Si Si7 0.690969 0.460866 0.350989
Si Si8 0.808963 0.363067 0.025868
O O1 0.250000 0.033597 0.250000
O O2 0.239327 0.090702 0.389878
O O3 0.000000 0.029036 0.354315
O O4 0.255597 0.977934 0.395114
O O5 0.750000 0.076885 0.750000
O O6 0.500000 0.080226 0.646792
O O7 0.757718 0.133387 0.611850
O O8 0.750000 0.408267 0.750000
O O9 0.500000 0.418546 0.651275
O O10 0.740383 0.479084 0.622406
O O11 0.744217 0.376939 0.575455
O O12 0.500000 0.752203 0.972360
O O13 0.742473 0.765299 0.075975
O O14 0.746020 0.800582 0.910821
O O15 0.749317 0.694353 0.944562
O O16 0.750000 0.846167 0.750000
O O17 0.500000 0.850532 0.851703
O O18 0.250000 0.198997 0.750000
O O19 0.000000 0.191130 0.652722
O O20 0.750000 0.452561 0.250000
O O21 0.500000 0.460596 0.352714
O O22 0.745612 0.412530 0.413134
O O23 0.000000 0.362558 0.027595
#
# Coordination Sequence:
#
# PCOD9414226 Si02
#       8
#     8   8   8   8   8   8   8   8
#     4   9  15  26  47  73 100 129 164 206 255 313
#     4  10  17  27  47  75 104 131 164 208 260 317
#     4   9  18  34  56  82 111 141 175 214 258 310
#     4  10  23  40  55  75 105 140 180 222 261 307
#     4   9  19  36  56  77 102 136 175 215 262 312
#     4  10  20  36  56  75 100 136 175 217 264 312
#     4   9  18  34  56  82 111 142 175 213 258 308
#     4  10  21  36  55  78 106 142 179 216 260 308
#
# _framework density 20.284573999999999
#
# number of rings (size 3 to 8) (size 9 to 14) (size 15 to 20)
#    0.000    2.500    0.000    3.750    0.000    5.500 
#    0.000    5.625    0.000    7.500    0.000    0.000 
#    0.000    0.000    0.000    0.000    0.000    0.000 
#
# Total GULP energy -357101.354217 kJ/mol
# GULP energy per Si atom -5579.708660 kJ/mol
# Density = 2.023841 g / cm^3
# Si number density = 20.284574 Si / 1000 Ang^3
#
#
#
# Elastic Constant Matrix: (Units=GPa)
#
#
# Indices 1 2 3 4 5 6 
#
# 1 26.0133 -1.0210 -2.3226 0.0000 0.0000 0.0000
# 2 -1.0210 62.6383 8.6676 0.0000 0.0000 0.0000
# 3 -2.3226 8.6676 30.2681 0.0000 0.0000 0.0000
# 4 0.0000 0.0000 0.0000 24.1343 0.0000 0.0000
# 5 0.0000 0.0000 0.0000 0.0000 14.4508 0.0000
# 6 0.0000 0.0000 0.0000 0.0000 0.0000 21.7448
#
#
#
# Elastic Compliance Matrix: (Units=1/GPa)
#
#
# Indices 1 2 3 4 5 6 
#
# 1 0.038710 0.000229 0.002905 0.000000 0.000000 0.000000
# 2 0.000229 0.016625 -0.004743 0.000000 0.000000 0.000000
# 3 0.002905 -0.004743 0.034619 0.000000 0.000000 0.000000
# 4 0.000000 0.000000 0.000000 0.041435 0.000000 0.000000
# 5 0.000000 0.000000 0.000000 0.000000 0.069200 0.000000
# 6 0.000000 0.000000 0.000000 0.000000 0.000000 0.045988
#
#
# Mechanical properties :
#
#
# Convention : Reuss Voigt Hill
#
# Bulk Modulus (GPa) = 11.52928 14.39641 12.96285
# Shear Modulus (GPa) = 17.93994 19.63902 18.78948
#
# Velocity S-wave (km/s) = 2.97713 3.11493 3.04681
# Velocity P-wave (km/s) = 4.18496 4.47768 4.33379
#
# Compressibility (1/GPa) = 0.08673568
#
# Stress axis : x y z
#
# Youngs Moduli (GPa) = 25.83295 60.15137 28.88569
#
# Poissons Ratio (x) = -0.01377 -0.08391
# Poissons Ratio (y) = -0.00592 0.13701
# Poissons Ratio (z) = -0.07504 0.28530
#
# Static dielectric constant tensor:
#      x y z
#    x 1.700370 0.000000 0.000000 
#    y 0.000000 1.739450 0.000000 
#    z 0.000000 0.000000 1.686330 
# 
# From -- ./inp_files/20936.got.cif
#   From: 2010.05.17/outbox.cif.g08.bks.cpg/sg53_11_cif.got.tgz:20936.got - 2010.06.03 12:45:16.
