data_PCOD9414646
_publ_section_title
;
Structure prediction by ZEFSAII (Michael W. Deem and Ramdas Pophale) SiO2 
 PCOD9414646
Probable space group: P M N A
;
_chemical_formula_sum "Si O2"
_cell_formula_units_Z 56
_cell_length_a 21.273181
_cell_length_b 8.213162
_cell_length_c 13.547085
_cell_angle_alpha 90.000000
_cell_angle_beta 90.000000
_cell_angle_gamma 90.000000
_cell_volume 2366.947799
_symmetry_space_group_name_H-M "P M N A"
_symmetry_group_IT_number 53
_symmetry_cell_setting 'orthorhombic'
loop_
_space_group_symop_operation_xyz
x,y,z
1/2-x,-y,1/2+z
x,-y,-z
1/2-x,y,1/2-z
-x,-y,-z
1/2+x,y,1/2-z
-x,y,z
1/2+x,-y,1/2+z
loop_
_atom_site_type_symbol
_atom_site_label
_atom_site_fract_x
_atom_site_fract_y
_atom_site_fract_z
Si Si1 0.744725 0.600283 0.370055
Si Si2 0.195155 0.905332 0.335427
Si Si3 0.852627 0.163047 0.963016
Si Si4 0.070044 0.326522 0.292699
Si Si5 0.290181 0.269086 0.147093
Si Si6 0.429785 0.048050 0.717540
Si Si7 0.069061 0.370999 0.086843
O O1 0.750000 0.581995 0.250000
O O2 0.682744 0.696161 0.403161
O O3 0.754018 0.416275 0.407233
O O4 0.795305 0.740273 0.396524
O O5 0.250000 0.905145 0.250000
O O6 0.201904 0.081926 0.385478
O O7 0.127301 0.892292 0.285390
O O8 0.908284 0.097457 0.892547
O O9 0.877132 0.245574 0.061871
O O10 0.817562 0.000000 0.000000
O O11 0.137662 0.334338 0.344142
O O12 0.068835 0.144563 0.244639
O O13 0.074595 0.441436 0.196143
O O14 0.000000 0.350117 0.339085
O O15 0.250000 0.252135 0.250000
O O16 0.500000 0.111058 0.736632
O O17 0.000000 0.292872 0.080158
O O18 0.071397 0.500000 0.000000
#
# Coordination Sequence:
#
# PCOD9414646 Si02
#       7
#     8   8   8   8   8   8   8
#     4  10  20  35  52  72  98 139 191 232 269 317
#     4   9  16  33  52  70  99 137 183 226 278 310
#     4  12  22  34  52  75 108 151 192 227 274 328
#     4   9  18  33  50  73 105 142 180 220 269 330
#     4   9  19  30  53  73  95 136 182 224 280 307
#     4  10  18  30  51  77 105 144 187 223 264 325
#     4  10  22  33  44  69 109 149 183 217 260 321
#
# _framework density 23.65916
#
# number of rings (size 3 to 8) (size 9 to 14) (size 15 to 20)
#    0.000    2.143    4.286    0.429    4.000    0.571 
#    0.000    0.714    0.000    0.000    0.000    0.000 
#    0.000    2.286    0.000   14.571    0.000    0.286 
#
# Total GULP energy -312086.080187 kJ/mol
# GULP energy per Si atom -5572.965718 kJ/mol
# Density = 2.360531 g / cm^3
# Si number density = 23.659160 Si / 1000 Ang^3
#
#
#
# Elastic Constant Matrix: (Units=GPa)
#
#
# Indices 1 2 3 4 5 6 
#
# 1 163.6029 32.8031 21.8728 0.0000 0.0000 0.0000
# 2 32.8031 121.2029 16.7835 0.0000 0.0000 0.0000
# 3 21.8728 16.7835 24.8878 0.0000 0.0000 0.0000
# 4 0.0000 0.0000 0.0000 32.6750 0.0000 0.0000
# 5 0.0000 0.0000 0.0000 0.0000 34.4868 0.0000
# 6 0.0000 0.0000 0.0000 0.0000 0.0000 17.6364
#
#
#
# Elastic Compliance Matrix: (Units=1/GPa)
#
#
# Indices 1 2 3 4 5 6 
#
# 1 0.007071 -0.001162 -0.005431 0.000000 0.000000 0.000000
# 2 -0.001162 0.009291 -0.005245 0.000000 0.000000 0.000000
# 3 -0.005431 -0.005245 0.048491 0.000000 0.000000 0.000000
# 4 0.000000 0.000000 0.000000 0.030604 0.000000 0.000000
# 5 0.000000 0.000000 0.000000 0.000000 0.028997 0.000000
# 6 0.000000 0.000000 0.000000 0.000000 0.000000 0.056701
#
#
# Mechanical properties :
#
#
# Convention : Reuss Voigt Hill
#
# Bulk Modulus (GPa) = 24.28497 50.29028 37.28762
# Shear Modulus (GPa) = 22.87731 32.84191 27.85961
#
# Velocity S-wave (km/s) = 3.11296 3.72980 3.43525
# Velocity P-wave (km/s) = 4.81742 6.31275 5.61508
#
# Compressibility (1/GPa) = 0.04117773
#
# Stress axis : x y z
#
# Youngs Moduli (GPa) = 141.41393 107.62730 20.62250
#
# Poissons Ratio (x) = 0.12504 0.11201
# Poissons Ratio (y) = 0.16429 0.10816
# Poissons Ratio (z) = 0.76807 0.56448
#
# Static dielectric constant tensor:
#      x y z
#    x 1.946840 0.000000 0.000000 
#    y 0.000000 1.986470 0.000000 
#    z 0.000000 0.000000 2.009330 
# 
# From -- ./inp_files/29317.got.cif
#   From: 2010.05.17/outbox.cif.g08.bks.cpg/sg53_15_cif.got.tgz:29317.got - 2010.06.03 12:45:16.
