data_PCOD9414888
_publ_section_title
;
Structure prediction by ZEFSAII (Michael W. Deem and Ramdas Pophale) SiO2 
 PCOD9414888
Probable space group: P M N A
;
_chemical_formula_sum "Si O2"
_cell_formula_units_Z 64
_cell_length_a 8.559581
_cell_length_b 20.959397
_cell_length_c 20.003947
_cell_angle_alpha 90.000000
_cell_angle_beta 90.000000
_cell_angle_gamma 90.000000
_cell_volume 3588.781233
_symmetry_space_group_name_H-M "P M N A"
_symmetry_group_IT_number 53
_symmetry_cell_setting 'orthorhombic'
loop_
_space_group_symop_operation_xyz
x,y,z
1/2-x,-y,1/2+z
x,-y,-z
1/2-x,y,1/2-z
-x,-y,-z
1/2+x,y,1/2-z
-x,y,z
1/2+x,-y,1/2+z
loop_
_atom_site_type_symbol
_atom_site_label
_atom_site_fract_x
_atom_site_fract_y
_atom_site_fract_z
Si Si1 0.690372 0.984385 0.075812
Si Si2 0.189200 0.649853 0.549176
Si Si3 0.813645 0.259985 0.822506
Si Si4 0.314216 0.380739 0.598216
Si Si5 0.190219 0.792026 0.576047
Si Si6 0.811179 0.159692 0.570955
Si Si7 0.318531 0.513465 0.919915
Si Si8 0.189324 0.902532 0.674765
O O1 0.500000 0.986068 0.075583
O O2 0.741026 0.037230 0.129292
O O3 0.738201 0.911866 0.090138
O O4 0.739827 0.000000 0.000000
O O5 0.240409 0.641895 0.472177
O O6 0.241947 0.718229 0.577068
O O7 0.242932 0.585673 0.587515
O O8 0.000000 0.648429 0.550042
O O9 0.750000 0.243789 0.750000
O O10 0.762604 0.330740 0.845625
O O11 0.754172 0.210958 0.877951
O O12 0.000000 0.258476 0.821015
O O13 0.500000 0.377007 0.590743
O O14 0.267938 0.453675 0.612127
O O15 0.236375 0.822796 0.504845
O O16 0.240352 0.838088 0.636081
O O17 0.000000 0.791429 0.576799
O O18 0.000000 0.161999 0.572454
O O19 0.500000 0.511390 0.900106
O O20 0.312078 0.500000 0.000000
O O21 0.250000 0.905915 0.750000
O O22 0.000000 0.902980 0.675962
#
# Coordination Sequence:
#
# PCOD9414888 Si02
#       8
#     8   8   8   8   8   8   8   8
#     4   9  16  30  55  83 105 133 178 218 251 302
#     4   9  16  28  48  75 100 128 169 210 250 300
#     4  11  24  38  51  72 103 139 177 218 265 319
#     4  10  19  30  46  70 100 130 164 210 260 305
#     4   9  16  29  54  79 101 135 176 213 253 305
#     4  10  18  32  57  81 100 132 175 221 264 305
#     4   8  15  26  43  69  99 128 161 202 247 299
#     4  10  20  35  54  79 109 139 174 213 255 308
#
# _framework density 17.833352000000001
#
# number of rings (size 3 to 8) (size 9 to 14) (size 15 to 20)
#    0.000    2.500    2.500    1.500    0.000    4.250 
#    0.000    3.125    0.000    1.500    0.000    3.500 
#    0.000    0.000    0.000    0.000    0.000    0.000 
#
# Total GULP energy -356725.858185 kJ/mol
# GULP energy per Si atom -5573.841534 kJ/mol
# Density = 1.779276 g / cm^3
# Si number density = 17.833352 Si / 1000 Ang^3
#
#
#
# Elastic Constant Matrix: (Units=GPa)
#
#
# Indices 1 2 3 4 5 6 
#
# 1 8.6637 22.4571 14.3274 0.0000 0.0000 0.0000
# 2 22.4571 170.5392 67.6909 0.0000 0.0000 0.0000
# 3 14.3274 67.6909 109.2250 0.0000 0.0000 0.0000
# 4 0.0000 0.0000 0.0000 21.3003 0.0000 0.0000
# 5 0.0000 0.0000 0.0000 0.0000 0.0455 0.0000
# 6 0.0000 0.0000 0.0000 0.0000 0.0000 12.0908
#
#
#
# Elastic Compliance Matrix: (Units=1/GPa)
#
#
# Indices 1 2 3 4 5 6 
#
# 1 0.186894 -0.019734 -0.012285 0.000000 0.000000 0.000000
# 2 -0.019734 0.009861 -0.003522 0.000000 0.000000 0.000000
# 3 -0.012285 -0.003522 0.012950 0.000000 0.000000 0.000000
# 4 0.000000 0.000000 0.000000 0.046948 0.000000 0.000000
# 5 0.000000 0.000000 0.000000 0.000000 21.985909 0.000000
# 6 0.000000 0.000000 0.000000 0.000000 0.000000 0.082707
#
#
# Mechanical properties :
#
#
# Convention : Reuss Voigt Hill
#
# Bulk Modulus (GPa) = 7.21395 55.26431 31.23913
# Shear Modulus (GPa) = 0.22279 18.95081 9.58680
#
# Velocity S-wave (km/s) = 0.35384 3.26339 2.32109
# Velocity P-wave (km/s) = 2.05449 6.72727 4.97378
#
# Compressibility (1/GPa) = 0.13862025
#
# Stress axis : x y z
#
# Youngs Moduli (GPa) = 5.35063 101.41429 77.22107
#
# Poissons Ratio (x) = 2.00136 0.94868
# Poissons Ratio (y) = 0.10559 0.27200
# Poissons Ratio (z) = 0.06573 0.35721
#
# Static dielectric constant tensor:
#      x y z
#    x 1.610080 0.000000 0.000000 
#    y 0.000000 1.651250 0.000000 
#    z 0.000000 0.000000 1.573300 
# 
# From -- ./inp_files/26962.got.cif
#   From: 2010.05.17/outbox.cif.g08.bks.cpg/sg53_14_cif.got.tgz:26962.got - 2010.06.03 12:45:16.
