data_PCOD9414754
_publ_section_title
;
Structure prediction by ZEFSAII (Michael W. Deem and Ramdas Pophale) SiO2 
 PCOD9414754
Probable space group: P M N A
;
_chemical_formula_sum "Si O2"
_cell_formula_units_Z 48
_cell_length_a 8.610612
_cell_length_b 32.151908
_cell_length_c 9.203800
_cell_angle_alpha 90.000000
_cell_angle_beta 90.000000
_cell_angle_gamma 90.000000
_cell_volume 2548.049985
_symmetry_space_group_name_H-M "P M N A"
_symmetry_group_IT_number 53
_symmetry_cell_setting 'orthorhombic'
loop_
_space_group_symop_operation_xyz
x,y,z
1/2-x,-y,1/2+z
x,-y,-z
1/2-x,y,1/2-z
-x,-y,-z
1/2+x,y,1/2-z
-x,y,z
1/2+x,-y,1/2+z
loop_
_atom_site_type_symbol
_atom_site_label
_atom_site_fract_x
_atom_site_fract_y
_atom_site_fract_z
Si Si1 0.187740 0.458740 0.913131
Si Si2 0.687322 0.623455 0.587057
Si Si3 0.812989 0.706436 0.087030
Si Si4 0.314396 0.214532 0.085321
Si Si5 0.185359 0.872365 0.915399
Si Si6 0.686015 0.041640 0.086670
O O1 0.250000 0.459016 0.750000
O O2 0.000000 0.458576 0.908137
O O3 0.237301 0.500000 0.000000
O O4 0.238909 0.417387 0.998756
O O5 0.750000 0.623102 0.750000
O O6 0.500000 0.622791 0.592601
O O7 0.734071 0.665339 0.502926
O O8 0.750000 0.703552 0.250000
O O9 0.000000 0.708713 0.088679
O O10 0.745696 0.747025 0.008380
O O11 0.250000 0.218763 0.250000
O O12 0.500000 0.213722 0.090891
O O13 0.252426 0.170576 0.022803
O O14 0.250000 0.873079 0.750000
O O15 0.243656 0.915976 0.980132
O O16 0.000000 0.870980 0.913028
O O17 0.750000 0.037632 0.250000
O O18 0.500000 0.045867 0.091570
O O19 0.726770 0.000000 0.000000
#
# Coordination Sequence:
#
# PCOD9414754 Si02
#       6
#     8   8   8   8   8   8
#     4  10  21  37  57  84 116 150 190 233 279 332
#     4  10  22  38  58  84 113 146 187 233 278 330
#     4  11  23  39  57  81 112 146 184 225 277 334
#     4  11  21  36  58  83 110 141 181 227 274 326
#     4  10  18  31  53  79 107 140 180 224 272 325
#     4  10  20  34  53  78 108 142 181 224 272 325
#
# _framework density 18.837935000000002
#
# number of rings (size 3 to 8) (size 9 to 14) (size 15 to 20)
#    0.000    1.667    0.000    7.500    0.000    5.000 
#    0.000    0.833    0.000    2.000    0.000    0.000 
#    0.000    0.000    0.000    0.000    0.000    0.000 
#
# Total GULP energy -268169.274746 kJ/mol
# GULP energy per Si atom -5586.859891 kJ/mol
# Density = 1.879506 g / cm^3
# Si number density = 18.837935 Si / 1000 Ang^3
#
#
#
# Elastic Constant Matrix: (Units=GPa)
#
#
# Indices 1 2 3 4 5 6 
#
# 1 91.9178 72.0026 39.3122 0.0000 0.0000 0.0000
# 2 72.0026 237.5024 102.0711 0.0000 0.0000 0.0000
# 3 39.3122 102.0711 126.3330 0.0000 0.0000 0.0000
# 4 0.0000 0.0000 0.0000 32.0363 0.0000 0.0000
# 5 0.0000 0.0000 0.0000 0.0000 31.1237 0.0000
# 6 0.0000 0.0000 0.0000 0.0000 0.0000 46.0611
#
#
#
# Elastic Compliance Matrix: (Units=1/GPa)
#
#
# Indices 1 2 3 4 5 6 
#
# 1 0.014443 -0.003749 -0.001465 0.000000 0.000000 0.000000
# 2 -0.003749 0.007423 -0.004831 0.000000 0.000000 0.000000
# 3 -0.001465 -0.004831 0.012275 0.000000 0.000000 0.000000
# 4 0.000000 0.000000 0.000000 0.031215 0.000000 0.000000
# 5 0.000000 0.000000 0.000000 0.000000 0.032130 0.000000
# 6 0.000000 0.000000 0.000000 0.000000 0.000000 0.021710
#
#
# Mechanical properties :
#
#
# Convention : Reuss Voigt Hill
#
# Bulk Modulus (GPa) = 71.17343 98.05830 84.61587
# Shear Modulus (GPa) = 34.72966 38.00205 36.36585
#
# Velocity S-wave (km/s) = 4.29838 4.49633 4.39847
# Velocity P-wave (km/s) = 7.90561 8.89509 8.41491
#
# Compressibility (1/GPa) = 0.01405019
#
# Stress axis : x y z
#
# Youngs Moduli (GPa) = 69.23999 134.71281 81.46706
#
# Poissons Ratio (x) = 0.50499 0.11939
# Poissons Ratio (y) = 0.25956 0.39357
# Poissons Ratio (z) = 0.10147 0.65081
#
# Static dielectric constant tensor:
#      x y z
#    x 1.635100 0.000000 0.000000 
#    y 0.000000 1.680060 0.000000 
#    z 0.000000 0.000000 1.623610 
# 
# From -- ./inp_files/6738.got.cif
#   From: 2010.05.17/outbox.cif.g08.bks.cpg/sg53_4_cif.got.tgz:6738.got - 2010.06.03 12:45:16.
