data_PCOD9414850
_publ_section_title
;
Structure prediction by ZEFSAII (Michael W. Deem and Ramdas Pophale) SiO2 
 PCOD9414850
Probable space group: P M N A
;
_chemical_formula_sum "Si O2"
_cell_formula_units_Z 48
_cell_length_a 8.686150
_cell_length_b 12.197630
_cell_length_c 26.824639
_cell_angle_alpha 90.000000
_cell_angle_beta 90.000000
_cell_angle_gamma 90.000000
_cell_volume 2842.082407
_symmetry_space_group_name_H-M "P M N A"
_symmetry_group_IT_number 53
_symmetry_cell_setting 'orthorhombic'
loop_
_space_group_symop_operation_xyz
x,y,z
1/2-x,-y,1/2+z
x,-y,-z
1/2-x,y,1/2-z
-x,-y,-z
1/2+x,y,1/2-z
-x,y,z
1/2+x,-y,1/2+z
loop_
_atom_site_type_symbol
_atom_site_label
_atom_site_fract_x
_atom_site_fract_y
_atom_site_fract_z
Si Si1 0.316212 0.295058 0.565664
Si Si2 0.812561 0.042874 0.945347
Si Si3 0.817424 0.517337 0.377280
Si Si4 0.315507 0.324837 0.194819
Si Si5 0.318213 0.335159 0.039367
Si Si6 0.817289 0.835824 0.886686
O O1 0.500000 0.298937 0.560077
O O2 0.266972 0.167546 0.566059
O O3 0.266692 0.368651 0.612546
O O4 0.236936 0.346234 0.516792
O O5 0.000000 0.040526 0.946629
O O6 0.764543 0.957087 0.902604
O O7 0.760639 0.000000 0.000000
O O8 0.765193 0.438672 0.332061
O O9 0.794149 0.440966 0.426089
O O10 0.000000 0.536788 0.372173
O O11 0.250000 0.315835 0.250000
O O12 0.500000 0.325367 0.195634
O O13 0.261831 0.224778 0.159600
O O14 0.500000 0.309472 0.041192
O O15 0.221949 0.238588 0.065263
O O16 0.000000 0.836629 0.878301
#
# Coordination Sequence:
#
# PCOD9414850 Si02
#       6
#     8   8   8   8   8   8
#     4  11  20  30  48  72 100 139 180 210 245 301
#     4   9  17  31  48  71 106 142 175 213 251 292
#     4   9  20  35  48  69 103 134 162 208 261 305
#     4  10  21  38  59  81 104 128 163 212 267 314
#     4  10  19  31  46  68 103 140 172 210 255 299
#     4  10  18  32  54  76 103 137 175 215 256 300
#
# _framework density 16.889025
#
# number of rings (size 3 to 8) (size 9 to 14) (size 15 to 20)
#    0.000    2.167    1.667    3.500    0.000    6.000 
#    0.000    4.167    0.000    1.000    0.000    2.333 
#    0.000    0.000    0.000    0.000    0.000    0.000 
#
# Total GULP energy -267672.891951 kJ/mol
# GULP energy per Si atom -5576.518582 kJ/mol
# Density = 1.685058 g / cm^3
# Si number density = 16.889025 Si / 1000 Ang^3
#
#
#
# Elastic Constant Matrix: (Units=GPa)
#
#
# Indices 1 2 3 4 5 6 
#
# 1 27.3220 26.3679 19.3593 0.0000 0.0000 0.0000
# 2 26.3679 78.1205 44.5427 0.0000 0.0000 0.0000
# 3 19.3593 44.5427 100.2050 0.0000 0.0000 0.0000
# 4 0.0000 0.0000 0.0000 11.7785 0.0000 0.0000
# 5 0.0000 0.0000 0.0000 0.0000 661.4702 0.0000
# 6 0.0000 0.0000 0.0000 0.0000 0.0000 98.9040
#
#
#
# Elastic Compliance Matrix: (Units=1/GPa)
#
#
# Indices 1 2 3 4 5 6 
#
# 1 0.055030 -0.016760 -0.003181 0.000000 0.000000 0.000000
# 2 -0.016760 0.022251 -0.006653 0.000000 0.000000 0.000000
# 3 -0.003181 -0.006653 0.013552 0.000000 0.000000 0.000000
# 4 0.000000 0.000000 0.000000 0.084900 0.000000 0.000000
# 5 0.000000 0.000000 0.000000 0.000000 0.001512 0.000000
# 6 0.000000 0.000000 0.000000 0.000000 0.000000 0.010111
#
#
# Mechanical properties :
#
#
# Convention : Reuss Voigt Hill
#
# Bulk Modulus (GPa) = 26.56513 42.90969 34.73741
# Shear Modulus (GPa) = 19.75566 162.12237 90.93901
#
# Velocity S-wave (km/s) = 3.42385 9.80822 7.34588
# Velocity P-wave (km/s) = 5.60301 12.39880 9.62091
#
# Compressibility (1/GPa) = 0.03764333
#
# Stress axis : x y z
#
# Youngs Moduli (GPa) = 18.17201 44.94155 73.79227
#
# Poissons Ratio (x) = 0.75322 0.23477
# Poissons Ratio (y) = 0.30456 0.49094
# Poissons Ratio (z) = 0.05781 0.29900
#
# Static dielectric constant tensor:
#      x y z
#    x 1.570690 0.000000 0.000000 
#    y 0.000000 1.597180 0.000000 
#    z 0.000000 0.000000 1.553210 
# 
# From -- ./inp_files/36138.got.cif
#   From: 2010.05.17/outbox.cif.g08.bks.cpg/sg53_19_cif.got.tgz:36138.got - 2010.06.03 12:45:16.
