data_PCOD9414200
_publ_section_title
;
Structure prediction by ZEFSAII (Michael W. Deem and Ramdas Pophale) SiO2 
 PCOD9414200
Probable space group: P M N A
;
_chemical_formula_sum "Si O2"
_cell_formula_units_Z 64
_cell_length_a 27.135322
_cell_length_b 10.285123
_cell_length_c 16.999043
_cell_angle_alpha 90.000000
_cell_angle_beta 90.000000
_cell_angle_gamma 90.000000
_cell_volume 4744.265026
_symmetry_space_group_name_H-M "P M N A"
_symmetry_group_IT_number 53
_symmetry_cell_setting 'orthorhombic'
loop_
_space_group_symop_operation_xyz
x,y,z
1/2-x,-y,1/2+z
x,-y,-z
1/2-x,y,1/2-z
-x,-y,-z
1/2+x,y,1/2-z
-x,y,z
1/2+x,-y,1/2+z
loop_
_atom_site_type_symbol
_atom_site_label
_atom_site_fract_x
_atom_site_fract_y
_atom_site_fract_z
Si Si1 0.298187 0.280596 0.693286
Si Si2 0.354375 0.288596 0.845676
Si Si3 0.941705 0.366345 0.546237
Si Si4 0.742091 0.879837 0.941936
Si Si5 0.055728 0.117504 0.437464
Si Si6 0.260728 0.370882 0.948325
Si Si7 0.852793 0.027003 0.344815
Si Si8 0.701572 0.017777 0.305704
O O1 0.250000 0.281195 0.750000
O O2 0.341755 0.317480 0.753995
O O3 0.283045 0.362305 0.616714
O O4 0.305607 0.130883 0.666878
O O5 0.405791 0.340477 0.880196
O O6 0.311221 0.350932 0.899029
O O7 0.351125 0.130587 0.854616
O O8 0.931202 0.500000 0.500000
O O9 0.932975 0.248352 0.485326
O O10 0.000000 0.364857 0.567369
O O11 0.690267 0.909028 0.897831
O O12 0.784700 0.888220 0.876431
O O13 0.742035 0.749775 0.991900
O O14 0.749463 0.000000 0.000000
O O15 0.095847 0.084065 0.372853
O O16 0.000000 0.126007 0.406639
O O17 0.057663 0.000000 0.500000
O O18 0.260564 0.500000 0.000000
O O19 0.841462 0.055219 0.253754
O O20 0.750000 0.013678 0.250000
#
# Coordination Sequence:
#
# PCOD9414200 Si02
#       8
#     8   8   8   8   8   8   8   8
#     4   8  15  28  42  57  80 108 139 170 204 245
#     4  10  17  29  45  60  81 115 143 166 206 252
#     4  10  20  31  42  62  89 114 141 171 200 238
#     4  11  16  27  44  59  79 108 141 172 205 243
#     4  10  18  28  43  63  85 108 138 173 206 235
#     4  11  20  28  40  63  86 110 142 172 204 244
#     4  10  17  27  44  63  83 107 144 176 205 241
#     4   8  15  26  41  61  79 104 139 176 206 238
#
# _framework density 13.489972
#
# number of rings (size 3 to 8) (size 9 to 14) (size 15 to 20)
#    0.000    2.250    3.750    3.000    0.000    0.000 
#    0.000    6.875    0.000    0.000    0.000    0.000 
#    0.000    2.000    0.000    0.125    0.000    0.125 
#
# Total GULP energy -356357.615246 kJ/mol
# GULP energy per Si atom -5568.087738 kJ/mol
# Density = 1.345927 g / cm^3
# Si number density = 13.489972 Si / 1000 Ang^3
#
#
#
# Elastic Constant Matrix: (Units=GPa)
#
#
# Indices 1 2 3 4 5 6 
#
# 1 65.4113 17.9871 36.7573 0.0000 0.0000 0.0000
# 2 17.9871 82.4347 36.8000 0.0000 0.0000 0.0000
# 3 36.7573 36.8000 71.9137 0.0000 0.0000 0.0000
# 4 0.0000 0.0000 0.0000 16.6867 0.0000 0.0000
# 5 0.0000 0.0000 0.0000 0.0000 40.4809 0.0000
# 6 0.0000 0.0000 0.0000 0.0000 0.0000 223.7074
#
#
#
# Elastic Compliance Matrix: (Units=1/GPa)
#
#
# Indices 1 2 3 4 5 6 
#
# 1 0.021453 0.000277 -0.011107 0.000000 0.000000 0.000000
# 2 0.000277 0.015726 -0.008189 0.000000 0.000000 0.000000
# 3 -0.011107 -0.008189 0.023773 0.000000 0.000000 0.000000
# 4 0.000000 0.000000 0.000000 0.059928 0.000000 0.000000
# 5 0.000000 0.000000 0.000000 0.000000 0.024703 0.000000
# 6 0.000000 0.000000 0.000000 0.000000 0.000000 0.004470
#
#
# Mechanical properties :
#
#
# Convention : Reuss Voigt Hill
#
# Bulk Modulus (GPa) = 43.64050 44.76094 44.20072
# Shear Modulus (GPa) = 25.54531 64.72267 45.13399
#
# Velocity S-wave (km/s) = 4.35633 6.93416 5.79052
# Velocity P-wave (km/s) = 7.59764 9.86727 8.80588
#
# Compressibility (1/GPa) = 0.02291449
#
# Stress axis : x y z
#
# Youngs Moduli (GPa) = 46.61288 63.58876 42.06365
#
# Poissons Ratio (x) = -0.01764 0.46722
# Poissons Ratio (y) = -0.01293 0.34447
# Poissons Ratio (z) = 0.51775 0.52074
#
# Static dielectric constant tensor:
#      x y z
#    x 1.457010 0.000000 0.000000 
#    y 0.000000 1.439530 0.000000 
#    z 0.000000 0.000000 1.451680 
# 
# From -- ./inp_files/29743.got.cif
#   From: 2010.05.17/outbox.cif.g08.bks.cpg/sg53_15_cif.got.tgz:29743.got - 2010.06.03 12:45:16.
