data_PCOD9414608
_publ_section_title
;
Structure prediction by ZEFSAII (Michael W. Deem and Ramdas Pophale) SiO2 
 PCOD9414608
Probable space group: P M N A
;
_chemical_formula_sum "Si O2"
_cell_formula_units_Z 40
_cell_length_a 7.735812
_cell_length_b 11.705297
_cell_length_c 22.856735
_cell_angle_alpha 90.000000
_cell_angle_beta 90.000000
_cell_angle_gamma 90.000000
_cell_volume 2069.676828
_symmetry_space_group_name_H-M "P M N A"
_symmetry_group_IT_number 53
_symmetry_cell_setting 'orthorhombic'
loop_
_space_group_symop_operation_xyz
x,y,z
1/2-x,-y,1/2+z
x,-y,-z
1/2-x,y,1/2-z
-x,-y,-z
1/2+x,y,1/2-z
-x,y,z
1/2+x,-y,1/2+z
loop_
_atom_site_type_symbol
_atom_site_label
_atom_site_fract_x
_atom_site_fract_y
_atom_site_fract_z
Si Si1 0.802989 0.012581 0.317035
Si Si2 0.206791 0.725072 0.814720
Si Si3 0.210434 0.441006 0.084638
Si Si4 0.702929 0.935855 0.058090
Si Si5 0.209351 0.324379 0.961997
O O1 0.750000 0.983616 0.250000
O O2 0.787364 0.149691 0.321792
O O3 0.000000 0.974543 0.319368
O O4 0.719865 0.966382 0.377677
O O5 0.250000 0.684507 0.750000
O O6 0.270304 0.633498 0.861252
O O7 0.000000 0.739302 0.820788
O O8 0.265247 0.572943 0.081067
O O9 0.000000 0.443597 0.085520
O O10 0.257907 0.373304 0.025730
O O11 0.500000 0.969420 0.060152
O O12 0.717999 0.800337 0.049219
O O13 0.775951 0.000000 0.000000
O O14 0.000000 0.315534 0.960129
#
# Coordination Sequence:
#
# PCOD9414608 Si02
#       5
#     8   8   8   8   8
#     4  10  20  34  51  71  99 132 164 201 243 288
#     4  10  18  30  49  72  97 124 158 197 238 284
#     4   8  16  31  50  72  97 123 154 198 242 280
#     4  10  21  35  50  73 104 131 159 201 250 293
#     4   9  17  32  53  73  94 124 162 198 236 284
#
# _framework density 19.326689999999999
#
# number of rings (size 3 to 8) (size 9 to 14) (size 15 to 20)
#    0.000    2.600    0.000    4.800    0.000    2.000 
#    0.000    6.000    0.000    4.800    0.000    0.000 
#    0.000    0.000    0.000    0.000    0.000    0.000 
#
# Total GULP energy -222849.829948 kJ/mol
# GULP energy per Si atom -5571.245749 kJ/mol
# Density = 1.928270 g / cm^3
# Si number density = 19.326690 Si / 1000 Ang^3
#
#
#
# Elastic Constant Matrix: (Units=GPa)
#
#
# Indices 1 2 3 4 5 6 
#
# 1 24.8140 -14.5658 3.0546 0.0000 0.0000 0.0000
# 2 -14.5658 93.0686 80.8492 0.0000 0.0000 0.0000
# 3 3.0546 80.8492 155.7096 0.0000 0.0000 0.0000
# 4 0.0000 0.0000 0.0000-1197.5439 0.0000 0.0000
# 5 0.0000 0.0000 0.0000 0.0000 17.5353 0.0000
# 6 0.0000 0.0000 0.0000 0.0000 0.0000 17.2347
#
#
#
# Elastic Compliance Matrix: (Units=1/GPa)
#
#
# Indices 1 2 3 4 5 6 
#
# 1 0.050896 0.016091 -0.009353 0.000000 0.000000 0.000000
# 2 0.016091 0.024661 -0.013120 0.000000 0.000000 0.000000
# 3 -0.009353 -0.013120 0.013418 0.000000 0.000000 0.000000
# 4 0.000000 0.000000 0.000000 -0.000835 0.000000 0.000000
# 5 0.000000 0.000000 0.000000 0.000000 0.057028 0.000000
# 6 0.000000 0.000000 0.000000 0.000000 0.000000 0.058023
#
#
# Mechanical properties :
#
#
# Convention : Reuss Voigt Hill
#
# Bulk Modulus (GPa) = 13.12165 45.80757 29.46461
# Shear Modulus (GPa) = 20.71599 -218.93785 -99.11093
#
# Velocity S-wave (km/s) = 3.27752 -10.65498 -7.16891
# Velocity P-wave (km/s) = 4.59641 11.29682 7.29696
#
# Compressibility (1/GPa) = 0.07620991
#
# Stress axis : x y z
#
# Youngs Moduli (GPa) = 19.64772 40.55037 74.52608
#
# Poissons Ratio (x) = -0.65249 0.69707
# Poissons Ratio (y) = -0.31615 0.97780
# Poissons Ratio (z) = 0.18377 0.53203
#
# Static dielectric constant tensor:
#      x y z
#    x 1.729370 0.000000 0.000000 
#    y 0.000000 1.630640 0.000000 
#    z 0.000000 0.000000 1.772160 
# 
# From -- ./inp_files/30372.got.cif
#   From: 2010.05.17/outbox.cif.g08.bks.cpg/sg53_16_cif.got.tgz:30372.got - 2010.06.03 12:45:16.
