data_PCOD9414465
_publ_section_title
;
Structure prediction by ZEFSAII (Michael W. Deem and Ramdas Pophale) SiO2 
 PCOD9414465
Probable space group: P M N A
;
_chemical_formula_sum "Si O2"
_cell_formula_units_Z 56
_cell_length_a 8.681317
_cell_length_b 16.678479
_cell_length_c 25.306284
_cell_angle_alpha 90.000000
_cell_angle_beta 90.000000
_cell_angle_gamma 90.000000
_cell_volume 3664.126299
_symmetry_space_group_name_H-M "P M N A"
_symmetry_group_IT_number 53
_symmetry_cell_setting 'orthorhombic'
loop_
_space_group_symop_operation_xyz
x,y,z
1/2-x,-y,1/2+z
x,-y,-z
1/2-x,y,1/2-z
-x,-y,-z
1/2+x,y,1/2-z
-x,y,z
1/2+x,-y,1/2+z
loop_
_atom_site_type_symbol
_atom_site_label
_atom_site_fract_x
_atom_site_fract_y
_atom_site_fract_z
Si Si1 0.317575 0.379310 0.600719
Si Si2 0.682811 0.275648 0.806179
Si Si3 0.685345 0.309281 0.484765
Si Si4 0.812505 0.022191 0.915833
Si Si5 0.177491 0.535589 0.559690
Si Si6 0.814747 0.097583 0.806962
Si Si7 0.187783 0.872905 0.984470
O O1 0.500000 0.370952 0.608975
O O2 0.228551 0.335797 0.647501
O O3 0.278628 0.336265 0.544908
O O4 0.272471 0.472390 0.594275
O O5 0.750000 0.303662 0.750000
O O6 0.500000 0.266503 0.802228
O O7 0.757452 0.188402 0.816405
O O8 0.500000 0.312446 0.479612
O O9 0.756772 0.375108 0.445781
O O10 0.739066 0.218156 0.476648
O O11 0.763032 0.044416 0.856896
O O12 0.000000 0.022115 0.915644
O O13 0.763724 0.936573 0.939736
O O14 0.765867 0.089492 0.958914
O O15 0.184762 0.500000 0.500000
O O16 0.000000 0.536184 0.576311
O O17 0.750000 0.071886 0.750000
O O18 0.000000 0.097801 0.804789
O O19 0.000000 0.871667 0.984601
#
# Coordination Sequence:
#
# PCOD9414465 Si02
#       7
#     8   8   8   8   8   8   8
#     4  10  18  29  45  65  88 114 143 176 215 257
#     4  11  21  32  45  63  87 115 146 178 212 252
#     4   9  16  26  43  65  88 114 145 180 216 257
#     4   8  14  24  40  62  87 112 142 179 218 260
#     4   9  17  28  41  60  87 116 144 173 208 253
#     4  10  18  29  44  63  86 114 146 179 214 253
#     4   8  13  23  40  63  87 111 141 180 221 259
#
# _framework density 15.283315999999999
#
# number of rings (size 3 to 8) (size 9 to 14) (size 15 to 20)
#    0.000    2.714    0.000    5.143    0.000    4.571 
#    0.000    0.000    0.000    1.714    0.000    7.000 
#    0.000    4.571    0.000    0.000    0.000    0.000 
#
# Total GULP energy -312036.751937 kJ/mol
# GULP energy per Si atom -5572.084856 kJ/mol
# Density = 1.524853 g / cm^3
# Si number density = 15.283316 Si / 1000 Ang^3
#
#
#
# Elastic Constant Matrix: (Units=GPa)
#
#
# Indices 1 2 3 4 5 6 
#
# 1 40.1639 19.7397 26.2437 0.0000 0.0000 0.0000
# 2 19.7397 114.5904 50.0717 0.0000 0.0000 0.0000
# 3 26.2437 50.0717 89.8780 0.0000 0.0000 0.0000
# 4 0.0000 0.0000 0.0000 19.4484 0.0000 0.0000
# 5 0.0000 0.0000 0.0000 0.0000 18.8403 0.0000
# 6 0.0000 0.0000 0.0000 0.0000 0.0000 12.0397
#
#
#
# Elastic Compliance Matrix: (Units=1/GPa)
#
#
# Indices 1 2 3 4 5 6 
#
# 1 0.031057 -0.001834 -0.008047 0.000000 0.000000 0.000000
# 2 -0.001834 0.011643 -0.005951 0.000000 0.000000 0.000000
# 3 -0.008047 -0.005951 0.016791 0.000000 0.000000 0.000000
# 4 0.000000 0.000000 0.000000 0.051418 0.000000 0.000000
# 5 0.000000 0.000000 0.000000 0.000000 0.053078 0.000000
# 6 0.000000 0.000000 0.000000 0.000000 0.000000 0.083058
#
#
# Mechanical properties :
#
#
# Convention : Reuss Voigt Hill
#
# Bulk Modulus (GPa) = 35.93492 48.52695 42.23093
# Shear Modulus (GPa) = 17.36204 19.97083 18.66644
#
# Velocity S-wave (km/s) = 3.37414 3.61876 3.49859
# Velocity P-wave (km/s) = 6.22441 7.02005 6.63417
#
# Compressibility (1/GPa) = 0.02782808
#
# Stress axis : x y z
#
# Youngs Moduli (GPa) = 32.19870 85.88882 59.55536
#
# Poissons Ratio (x) = 0.15751 0.47923
# Poissons Ratio (y) = 0.05905 0.35441
# Poissons Ratio (z) = 0.25910 0.51112
#
# Static dielectric constant tensor:
#      x y z
#    x 1.517350 0.000000 0.000000 
#    y 0.000000 1.505920 0.000000 
#    z 0.000000 0.000000 1.497360 
# 
# From -- ./inp_files/34369.got.cif
#   From: 2010.05.17/outbox.cif.g08.bks.cpg/sg53_18_cif.got.tgz:34369.got - 2010.06.03 12:45:16.
