data_PCOD9414960
_publ_section_title
;
Structure prediction by ZEFSAII (Michael W. Deem and Ramdas Pophale) SiO2 
 PCOD9414960
Probable space group: P M N A
;
_chemical_formula_sum "Si O2"
_cell_formula_units_Z 60
_cell_length_a 21.130301
_cell_length_b 12.241433
_cell_length_c 12.032666
_cell_angle_alpha 90.000000
_cell_angle_beta 90.000000
_cell_angle_gamma 90.000000
_cell_volume 3112.431524
_symmetry_space_group_name_H-M "P M N A"
_symmetry_group_IT_number 53
_symmetry_cell_setting 'orthorhombic'
loop_
_space_group_symop_operation_xyz
x,y,z
1/2-x,-y,1/2+z
x,-y,-z
1/2-x,y,1/2-z
-x,-y,-z
1/2+x,y,1/2-z
-x,y,z
1/2+x,-y,1/2+z
loop_
_atom_site_type_symbol
_atom_site_label
_atom_site_fract_x
_atom_site_fract_y
_atom_site_fract_z
Si Si1 0.929799 0.537395 0.166522
Si Si2 0.250000 0.446556 0.250000
Si Si3 0.423917 0.950854 0.259715
Si Si4 0.425098 0.216201 0.934072
Si Si5 0.854059 0.331725 0.135468
Si Si6 0.363615 0.559061 0.117767
Si Si7 0.074709 0.190373 0.303227
Si Si8 0.575456 0.773495 0.438941
O O1 0.885514 0.448586 0.110516
O O2 0.919657 0.525651 0.298245
O O3 0.918962 0.663491 0.135340
O O4 0.000000 0.507944 0.133570
O O5 0.282562 0.365922 0.339765
O O6 0.301332 0.522596 0.187174
O O7 0.500000 0.956699 0.266109
O O8 0.409970 0.883803 0.147614
O O9 0.405308 0.877971 0.365708
O O10 0.402658 0.075214 0.248397
O O11 0.500000 0.246067 0.913754
O O12 0.377647 0.314269 0.905533
O O13 0.420082 0.187066 0.063747
O O14 0.884020 0.285321 0.249102
O O15 0.878279 0.249000 0.041801
O O16 0.364592 0.500000 0.000000
O O17 0.000000 0.207024 0.276553
O O18 0.500000 0.782866 0.470078
#
# Coordination Sequence:
#
# PCOD9414960 Si02
#       8
#     8   4   8   8   8   8   8   8
#     4  10  19  33  53  84 121 148 181 232 296 364
#     4  10  26  42  52  76 112 158 204 262 300 340
#     4   9  18  33  54  89 126 153 182 224 286 358
#     4  10  18  33  57  87 123 154 185 231 291 361
#     4  11  22  37  55  79 111 161 199 246 296 345
#     4  11  22  36  56  82 112 149 198 238 296 347
#     4  10  20  34  58  91 123 154 188 232 293 360
#     4  10  19  33  56  87 122 155 189 233 289 366
#
# _framework density 19.277533999999999
#
# number of rings (size 3 to 8) (size 9 to 14) (size 15 to 20)
#    0.000    1.867    1.333    4.000    0.000    7.467 
#    0.000    2.000    0.000    0.800    6.933    0.000 
#    0.000    0.000    0.000    0.000    0.000    0.000 
#
# Total GULP energy -334607.703664 kJ/mol
# GULP energy per Si atom -5576.795061 kJ/mol
# Density = 1.923366 g / cm^3
# Si number density = 19.277534 Si / 1000 Ang^3
#
#
#
# Elastic Constant Matrix: (Units=GPa)
#
#
# Indices 1 2 3 4 5 6 
#
# 1 57.3077 26.2427 23.0419 0.0000 0.0000 0.0000
# 2 26.2427 85.5894 15.0463 0.0000 0.0000 0.0000
# 3 23.0419 15.0463 79.6873 0.0000 0.0000 0.0000
# 4 0.0000 0.0000 0.0000 25.9064 0.0000 0.0000
# 5 0.0000 0.0000 0.0000 0.0000 -42.8215 0.0000
# 6 0.0000 0.0000 0.0000 0.0000 0.0000 30.0103
#
#
#
# Elastic Compliance Matrix: (Units=1/GPa)
#
#
# Indices 1 2 3 4 5 6 
#
# 1 0.022295 -0.005898 -0.005333 0.000000 0.000000 0.000000
# 2 -0.005898 0.013645 -0.000871 0.000000 0.000000 0.000000
# 3 -0.005333 -0.000871 0.014256 0.000000 0.000000 0.000000
# 4 0.000000 0.000000 0.000000 0.038601 0.000000 0.000000
# 5 0.000000 0.000000 0.000000 0.000000 -0.023353 0.000000
# 6 0.000000 0.000000 0.000000 0.000000 0.000000 0.033322
#
#
# Mechanical properties :
#
#
# Convention : Reuss Voigt Hill
#
# Bulk Modulus (GPa) = 38.47446 39.02736 38.75091
# Shear Modulus (GPa) = 37.98420 13.16927 25.57674
#
# Velocity S-wave (km/s) = 4.44372 2.61653 3.64643
# Velocity P-wave (km/s) = 6.80664 5.42377 6.15417
#
# Compressibility (1/GPa) = 0.02599127
#
# Stress axis : x y z
#
# Youngs Moduli (GPa) = 44.85330 73.28526 70.14820
#
# Poissons Ratio (x) = 0.43226 0.37410
# Poissons Ratio (y) = 0.26456 0.06109
# Poissons Ratio (z) = 0.23920 0.06383
#
# Static dielectric constant tensor:
#      x y z
#    x 1.667570 0.000000 0.000000 
#    y 0.000000 1.685600 0.000000 
#    z 0.000000 0.000000 1.724830 
# 
# From -- ./inp_files/17917.got.cif
#   From: 2010.05.17/outbox.cif.g08.bks.cpg/sg53_9_cif.got.tgz:17917.got - 2010.06.03 12:45:16.
