data_PCOD9414600
_publ_section_title
;
Structure prediction by ZEFSAII (Michael W. Deem and Ramdas Pophale) SiO2 
 PCOD9414600
Probable space group: P M N A
;
_chemical_formula_sum "Si O2"
_cell_formula_units_Z 56
_cell_length_a 8.014248
_cell_length_b 15.496950
_cell_length_c 21.722734
_cell_angle_alpha 90.000000
_cell_angle_beta 90.000000
_cell_angle_gamma 90.000000
_cell_volume 2697.885373
_symmetry_space_group_name_H-M "P M N A"
_symmetry_group_IT_number 53
_symmetry_cell_setting 'orthorhombic'
loop_
_space_group_symop_operation_xyz
x,y,z
1/2-x,-y,1/2+z
x,-y,-z
1/2-x,y,1/2-z
-x,-y,-z
1/2+x,y,1/2-z
-x,y,z
1/2+x,-y,1/2+z
loop_
_atom_site_type_symbol
_atom_site_label
_atom_site_fract_x
_atom_site_fract_y
_atom_site_fract_z
Si Si1 0.699356 0.537508 0.682476
Si Si2 0.300615 0.876431 0.685264
Si Si3 0.698273 0.442141 0.942017
Si Si4 0.302154 0.731645 0.490355
Si Si5 0.702684 0.708121 0.624017
Si Si6 0.198045 0.921127 0.455735
Si Si7 0.810275 0.069524 0.681556
O O1 0.750000 0.506479 0.750000
O O2 0.500000 0.538372 0.680235
O O3 0.759745 0.484702 0.623357
O O4 0.763674 0.635441 0.670552
O O5 0.250000 0.835003 0.750000
O O6 0.500000 0.893009 0.682343
O O7 0.247823 0.806343 0.636035
O O8 0.203643 0.965661 0.682601
O O9 0.500000 0.437937 0.949019
O O10 0.764207 0.343871 0.942456
O O11 0.765176 0.500000 0.000000
O O12 0.500000 0.746381 0.492937
O O13 0.246347 0.688709 0.554731
O O14 0.222218 0.825587 0.482786
O O15 0.500000 0.708139 0.628001
O O16 0.270800 0.912995 0.385672
O O17 0.000000 0.938813 0.448834
O O18 0.262622 0.000000 0.500000
O O19 0.750000 0.097544 0.750000
O O20 0.000000 0.099780 0.678242
#
# Coordination Sequence:
#
# PCOD9414600 Si02
#       7
#     8   8   8   8   8   8   8
#     4  11  22  39  61  88 125 162 203 252 308 366
#     4  10  18  30  48  74 109 148 191 236 288 354
#     4  11  23  41  64  91 121 159 207 253 303 365
#     4  11  22  38  62  90 118 156 203 251 309 368
#     4   9  19  33  52  81 117 153 190 239 298 363
#     4  10  22  40  60  87 123 159 200 254 310 363
#     4  10  20  35  55  78 109 151 196 244 299 356
#
# _framework density 20.756999
#
# number of rings (size 3 to 8) (size 9 to 14) (size 15 to 20)
#    0.000    1.714    1.429    4.286    0.000    2.000 
#    0.000    5.000    0.000    1.714    0.000    0.000 
#    0.000    0.000    0.000    0.000    0.000    0.000 
#
# Total GULP energy -312089.526585 kJ/mol
# GULP energy per Si atom -5573.027260 kJ/mol
# Density = 2.070976 g / cm^3
# Si number density = 20.756999 Si / 1000 Ang^3
#
#
#
# Elastic Constant Matrix: (Units=GPa)
#
#
# Indices 1 2 3 4 5 6 
#
# 1 20.1920 -12.4808 -4.8020 0.0000 0.0000 0.0000
# 2 -12.4808 71.4752 27.2829 0.0000 0.0000 0.0000
# 3 -4.8020 27.2829 123.0820 0.0000 0.0000 0.0000
# 4 0.0000 0.0000 0.0000 32.8997 0.0000 0.0000
# 5 0.0000 0.0000 0.0000 0.0000 20.9447 0.0000
# 6 0.0000 0.0000 0.0000 0.0000 0.0000 19.6271
#
#
#
# Elastic Compliance Matrix: (Units=1/GPa)
#
#
# Indices 1 2 3 4 5 6 
#
# 1 0.055517 0.009687 0.000019 0.000000 0.000000 0.000000
# 2 0.009687 0.016974 -0.003385 0.000000 0.000000 0.000000
# 3 0.000019 -0.003385 0.008876 0.000000 0.000000 0.000000
# 4 0.000000 0.000000 0.000000 0.030395 0.000000 0.000000
# 5 0.000000 0.000000 0.000000 0.000000 0.047745 0.000000
# 6 0.000000 0.000000 0.000000 0.000000 0.000000 0.050950
#
#
# Mechanical properties :
#
#
# Convention : Reuss Voigt Hill
#
# Bulk Modulus (GPa) = 10.63731 26.08326 18.36028
# Shear Modulus (GPa) = 21.81970 28.34425 25.08197
#
# Velocity S-wave (km/s) = 3.24573 3.69931 3.47992
# Velocity P-wave (km/s) = 4.37975 5.55336 5.00110
#
# Compressibility (1/GPa) = 0.09400873
#
# Stress axis : x y z
#
# Youngs Moduli (GPa) = 18.01262 58.91240 112.66767
#
# Poissons Ratio (x) = -0.57069 -0.00211
# Poissons Ratio (y) = -0.17449 0.38134
# Poissons Ratio (z) = -0.00034 0.19940
#
# Static dielectric constant tensor:
#      x y z
#    x 1.745760 0.000000 0.000000 
#    y 0.000000 1.722900 0.000000 
#    z 0.000000 0.000000 1.843570 
# 
# From -- ./inp_files/30798.got.cif
#   From: 2010.05.17/outbox.cif.g08.bks.cpg/sg53_16_cif.got.tgz:30798.got - 2010.06.03 12:45:16.
