data_PCOD9414066
_publ_section_title
;
Structure prediction by ZEFSAII (Michael W. Deem and Ramdas Pophale) SiO2 
 PCOD9414066
Probable space group: P M N A
;
_chemical_formula_sum "Si O2"
_cell_formula_units_Z 56
_cell_length_a 14.081698
_cell_length_b 20.840229
_cell_length_c 6.649487
_cell_angle_alpha 90.000000
_cell_angle_beta 90.000000
_cell_angle_gamma 90.000000
_cell_volume 1951.397095
_symmetry_space_group_name_H-M "P M N A"
_symmetry_group_IT_number 53
_symmetry_cell_setting 'orthorhombic'
loop_
_space_group_symop_operation_xyz
x,y,z
1/2-x,-y,1/2+z
x,-y,-z
1/2-x,y,1/2-z
-x,-y,-z
1/2+x,y,1/2-z
-x,y,z
1/2+x,-y,1/2+z
loop_
_atom_site_type_symbol
_atom_site_label
_atom_site_fract_x
_atom_site_fract_y
_atom_site_fract_z
Si Si1 0.107747 0.844883 0.304616
Si Si2 0.609872 0.019911 0.783243
Si Si3 0.887135 0.742865 0.851136
Si Si4 0.140715 0.881882 0.769278
Si Si5 0.673390 0.426619 0.007479
Si Si6 0.886633 0.394365 0.037524
Si Si7 0.115135 0.708201 0.405214
O O1 0.150659 0.911188 0.218790
O O2 0.103845 0.861256 0.547146
O O3 0.148129 0.773104 0.293363
O O4 0.000000 0.838642 0.230107
O O5 0.500000 0.035704 0.821376
O O6 0.604450 0.952121 0.668599
O O7 0.654501 0.000000 0.000000
O O8 0.868059 0.817022 0.897926
O O9 0.868883 0.681959 0.991978
O O10 0.845949 0.724948 0.631300
O O11 0.000000 0.740122 0.825152
O O12 0.250000 0.893305 0.750000
O O13 0.788162 0.429160 0.972345
O O14 0.629245 0.405567 0.222712
O O15 0.638797 0.366879 0.871105
O O16 0.639739 0.500000 0.000000
O O17 0.000000 0.409628 0.990616
O O18 0.000000 0.710849 0.401394
#
# Coordination Sequence:
#
# PCOD9414066 Si02
#       7
#     8   8   8   8   8   8   8
#     4   8  14  25  39  52  74 108 135 163 202 245
#     4   8  13  23  35  48  73 104 131 158 190 230
#     4   8  14  24  36  52  80 113 135 155 198 256
#     4  10  16  17  30  57  82 103 125 159 199 247
#     4  10  19  29  46  69  93 120 150 188 232 274
#     4   9  19  32  45  63  93 127 151 180 225 275
#     4   8  14  24  40  62  84 107 139 174 215 263
#
# _framework density 28.697386999999999
#
# number of rings (size 3 to 8) (size 9 to 14) (size 15 to 20)
#    0.000    3.286    0.000    4.286    6.000    1.429 
#    0.000    0.000    0.000    0.000    3.714    0.000 
#    0.000   49.714    0.000    0.000    0.000    0.000 
#
# Total GULP energy -312444.601911 kJ/mol
# GULP energy per Si atom -5579.367891 kJ/mol
# Density = 2.863207 g / cm^3
# Si number density = 28.697387 Si / 1000 Ang^3
#
#
#
# Elastic Constant Matrix: (Units=GPa)
#
#
# Indices 1 2 3 4 5 6 
#
# 1 155.9639 24.6305 6.6816 0.0000 0.0000 0.0000
# 2 24.6305 364.3793 57.2790 0.0000 0.0000 0.0000
# 3 6.6816 57.2790 80.7382 0.0000 0.0000 0.0000
# 4 0.0000 0.0000 0.0000 30.0375 0.0000 0.0000
# 5 0.0000 0.0000 0.0000 0.0000 19.2584 0.0000
# 6 0.0000 0.0000 0.0000 0.0000 0.0000 32.3742
#
#
#
# Elastic Compliance Matrix: (Units=1/GPa)
#
#
# Indices 1 2 3 4 5 6 
#
# 1 0.006486 -0.000398 -0.000254 0.000000 0.000000 0.000000
# 2 -0.000398 0.003113 -0.002176 0.000000 0.000000 0.000000
# 3 -0.000254 -0.002176 0.013950 0.000000 0.000000 0.000000
# 4 0.000000 0.000000 0.000000 0.033292 0.000000 0.000000
# 5 0.000000 0.000000 0.000000 0.000000 0.051925 0.000000
# 6 0.000000 0.000000 0.000000 0.000000 0.000000 0.030889
#
#
# Mechanical properties :
#
#
# Convention : Reuss Voigt Hill
#
# Bulk Modulus (GPa) = 55.88874 86.47373 71.18123
# Shear Modulus (GPa) = 33.05217 50.50003 41.77610
#
# Velocity S-wave (km/s) = 3.39742 4.19948 3.81956
# Velocity P-wave (km/s) = 5.90825 7.32889 6.65658
#
# Compressibility (1/GPa) = 0.01789269
#
# Stress axis : x y z
#
# Youngs Moduli (GPa) = 154.18897 321.19758 71.68297
#
# Poissons Ratio (x) = 0.12799 0.01821
# Poissons Ratio (y) = 0.06144 0.15597
# Poissons Ratio (z) = 0.03917 0.69885
#
# Static dielectric constant tensor:
#      x y z
#    x 2.116820 0.000000 0.000000 
#    y 0.000000 2.274970 0.000000 
#    z 0.000000 0.000000 2.409290 
# 
# From -- ./inp_files/23024.got.cif
#   From: 2010.05.17/outbox.cif.g08.bks.cpg/sg53_12_cif.got.tgz:23024.got - 2010.06.03 12:45:16.
