data_PCOD9414746
_publ_section_title
;
Structure prediction by ZEFSAII (Michael W. Deem and Ramdas Pophale) SiO2 
 PCOD9414746
Probable space group: P M N A
;
_chemical_formula_sum "Si O2"
_cell_formula_units_Z 64
_cell_length_a 8.020540
_cell_length_b 12.912358
_cell_length_c 30.452188
_cell_angle_alpha 90.000000
_cell_angle_beta 90.000000
_cell_angle_gamma 90.000000
_cell_volume 3153.752951
_symmetry_space_group_name_H-M "P M N A"
_symmetry_group_IT_number 53
_symmetry_cell_setting 'orthorhombic'
loop_
_space_group_symop_operation_xyz
x,y,z
1/2-x,-y,1/2+z
x,-y,-z
1/2-x,y,1/2-z
-x,-y,-z
1/2+x,y,1/2-z
-x,y,z
1/2+x,-y,1/2+z
loop_
_atom_site_type_symbol
_atom_site_label
_atom_site_fract_x
_atom_site_fract_y
_atom_site_fract_z
Si Si1 0.698059 0.402979 0.086594
Si Si2 0.702184 0.632415 0.106628
Si Si3 0.299110 0.875614 0.702632
Si Si4 0.798346 0.788521 0.962657
Si Si5 0.807173 0.419878 0.702498
Si Si6 0.204166 0.043865 0.109432
Si Si7 0.694419 0.353313 0.317565
Si Si8 0.301230 0.841234 0.441121
O O1 0.500000 0.400772 0.095183
O O2 0.747563 0.523406 0.083447
O O3 0.738484 0.327920 0.046480
O O4 0.787635 0.357237 0.129727
O O5 0.500000 0.637733 0.106820
O O6 0.767021 0.623991 0.157037
O O7 0.768562 0.732839 0.082573
O O8 0.250000 0.918697 0.750000
O O9 0.500000 0.871258 0.700430
O O10 0.240497 0.936348 0.659360
O O11 0.237880 0.756472 0.698834
O O12 0.745203 0.862079 0.922480
O O13 0.000000 0.787626 0.963167
O O14 0.737352 0.833369 0.009015
O O15 0.750000 0.382590 0.750000
O O16 0.782933 0.544020 0.699861
O O17 0.000000 0.396466 0.699937
O O18 0.000000 0.043085 0.110076
O O19 0.263331 0.937179 0.087543
O O20 0.500000 0.361777 0.305710
O O21 0.500000 0.857107 0.444638
#
# Coordination Sequence:
#
# PCOD9414746 Si02
#       8
#     8   8   8   8   8   8   8   8
#     4  10  20  34  54  81 113 149 180 218 272 333
#     4   9  21  39  54  74 113 151 181 223 279 332
#     4  10  20  33  52  78 110 145 176 214 268 326
#     4  10  19  35  59  86 111 138 179 231 283 333
#     4  10  20  34  53  79 108 146 187 229 277 328
#     4   9  18  37  58  80 111 143 179 226 279 326
#     4  10  18  31  52  79 111 147 178 221 275 327
#     4  10  21  36  60  84 103 140 192 235 271 326
#
# _framework density 20.293282999999999
#
# number of rings (size 3 to 8) (size 9 to 14) (size 15 to 20)
#    0.000    2.250    1.250    2.625    0.000    7.500 
#    0.000    4.375    0.000    4.500    0.000    0.000 
#    0.000    0.000    0.000    0.000    0.000    0.000 
#
# Total GULP energy -357198.849799 kJ/mol
# GULP energy per Si atom -5581.232028 kJ/mol
# Density = 2.024709 g / cm^3
# Si number density = 20.293283 Si / 1000 Ang^3
#
#
#
# Elastic Constant Matrix: (Units=GPa)
#
#
# Indices 1 2 3 4 5 6 
#
# 1 9.9239 -2.2112 1.6965 0.0000 0.0000 0.0000
# 2 -2.2112 81.4099 45.6938 0.0000 0.0000 0.0000
# 3 1.6965 45.6938 125.7384 0.0000 0.0000 0.0000
# 4 0.0000 0.0000 0.0000 -5.7078 0.0000 0.0000
# 5 0.0000 0.0000 0.0000 0.0000 24.3792 0.0000
# 6 0.0000 0.0000 0.0000 0.0000 0.0000 12.3756
#
#
#
# Elastic Compliance Matrix: (Units=1/GPa)
#
#
# Indices 1 2 3 4 5 6 
#
# 1 0.102274 0.004463 -0.003002 0.000000 0.000000 0.000000
# 2 0.004463 0.015626 -0.005739 0.000000 0.000000 0.000000
# 3 -0.003002 -0.005739 0.010079 0.000000 0.000000 0.000000
# 4 0.000000 0.000000 0.000000 -0.175198 0.000000 0.000000
# 5 0.000000 0.000000 0.000000 0.000000 0.041019 0.000000
# 6 0.000000 0.000000 0.000000 0.000000 0.000000 0.080804
#
#
# Mechanical properties :
#
#
# Convention : Reuss Voigt Hill
#
# Bulk Modulus (GPa) = 8.37357 34.15893 21.26625
# Shear Modulus (GPa) = 40.66140 17.66894 29.16517
#
# Velocity S-wave (km/s) = 4.48111 2.95393 3.79513
# Velocity P-wave (km/s) = 5.55959 5.33886 5.45034
#
# Compressibility (1/GPa) = 0.11942334
#
# Stress axis : x y z
#
# Youngs Moduli (GPa) = 9.77766 63.99709 99.21655
#
# Poissons Ratio (x) = -0.28559 0.29781
# Poissons Ratio (y) = -0.04363 0.56937
# Poissons Ratio (z) = 0.02935 0.36726
#
# Static dielectric constant tensor:
#      x y z
#    x 1.737420 0.000000 0.000000 
#    y 0.000000 1.694610 0.000000 
#    z 0.000000 0.000000 1.759630 
# 
# From -- ./inp_files/38152.got.cif
#   From: 2010.05.17/outbox.cif.g08.bks.cpg/sg53_20_cif.got.tgz:38152.got - 2010.06.03 12:45:16.
