data_PCOD9414844
_publ_section_title
;
Structure prediction by ZEFSAII (Michael W. Deem and Ramdas Pophale) SiO2 
 PCOD9414844
Probable space group: P M N A
;
_chemical_formula_sum "Si O2"
_cell_formula_units_Z 64
_cell_length_a 9.040568
_cell_length_b 15.618263
_cell_length_c 21.495886
_cell_angle_alpha 90.000000
_cell_angle_beta 90.000000
_cell_angle_gamma 90.000000
_cell_volume 3035.175438
_symmetry_space_group_name_H-M "P M N A"
_symmetry_group_IT_number 53
_symmetry_cell_setting 'orthorhombic'
loop_
_space_group_symop_operation_xyz
x,y,z
1/2-x,-y,1/2+z
x,-y,-z
1/2-x,y,1/2-z
-x,-y,-z
1/2+x,y,1/2-z
-x,y,z
1/2+x,-y,1/2+z
loop_
_atom_site_type_symbol
_atom_site_label
_atom_site_fract_x
_atom_site_fract_y
_atom_site_fract_z
Si Si1 0.675020 0.867248 0.998114
Si Si2 0.677438 0.260047 0.815331
Si Si3 0.676911 0.589240 0.086249
Si Si4 0.323232 0.097863 0.366279
Si Si5 0.830071 0.712789 0.842850
Si Si6 0.674744 0.456583 0.188489
Si Si7 0.830501 0.307906 0.008378
Si Si8 0.176711 0.926257 0.364490
O O1 0.500000 0.872766 0.985295
O O2 0.723430 0.769850 0.011214
O O3 0.705650 0.918575 0.061250
O O4 0.764184 0.894332 0.937132
O O5 0.750000 0.282662 0.750000
O O6 0.500000 0.258692 0.809050
O O7 0.710247 0.330672 0.867712
O O8 0.724954 0.163999 0.834988
O O9 0.500000 0.586868 0.074403
O O10 0.720410 0.506147 0.125922
O O11 0.765111 0.607739 0.023385
O O12 0.500000 0.093547 0.367030
O O13 0.282978 0.188462 0.334314
O O14 0.255155 0.011070 0.339389
O O15 0.722861 0.641809 0.815875
O O16 0.000000 0.701699 0.820868
O O17 0.830438 0.695088 0.917090
O O18 0.750000 0.494314 0.250000
O O19 0.500000 0.465676 0.194172
O O20 0.000000 0.293110 0.988089
O O21 0.000000 0.934093 0.356821
#
# Coordination Sequence:
#
# PCOD9414844 Si02
#       8
#     8   8   8   8   8   8   8   8
#     4  10  18  32  53  79 116 156 189 228 281 340
#     4  10  21  38  56  79 113 152 192 235 285 341
#     4  10  21  39  60  86 120 152 187 233 288 354
#     4  10  21  35  54  83 115 147 189 239 285 335
#     4   9  21  41  59  82 120 155 190 240 294 345
#     4  11  24  41  65  90 113 148 195 243 292 345
#     4  10  20  34  57  89 121 156 193 233 288 343
#     4  10  20  34  53  78 111 153 192 230 282 338
#
# _framework density 21.086096000000001
#
# number of rings (size 3 to 8) (size 9 to 14) (size 15 to 20)
#    0.000    2.000    1.250    3.000    0.000    8.000 
#    0.000    3.125    0.000    1.500    0.000    0.000 
#    0.000    0.000    0.000    0.000    0.000    0.000 
#
# Total GULP energy -357552.582951 kJ/mol
# GULP energy per Si atom -5586.759109 kJ/mol
# Density = 2.103810 g / cm^3
# Si number density = 21.086096 Si / 1000 Ang^3
#
#
#
# Elastic Constant Matrix: (Units=GPa)
#
#
# Indices 1 2 3 4 5 6 
#
# 1 18.7975 23.5900 5.6509 0.0000 0.0000 0.0000
# 2 23.5900 97.4461 3.1557 0.0000 0.0000 0.0000
# 3 5.6509 3.1557 25.6698 0.0000 0.0000 0.0000
# 4 0.0000 0.0000 0.0000 9.7455 0.0000 0.0000
# 5 0.0000 0.0000 0.0000 0.0000 27.5017 0.0000
# 6 0.0000 0.0000 0.0000 0.0000 0.0000 20.7833
#
#
#
# Elastic Compliance Matrix: (Units=1/GPa)
#
#
# Indices 1 2 3 4 5 6 
#
# 1 0.082286 -0.019411 -0.015728 0.000000 0.000000 0.000000
# 2 -0.019411 0.014882 0.002443 0.000000 0.000000 0.000000
# 3 -0.015728 0.002443 0.042118 0.000000 0.000000 0.000000
# 4 0.000000 0.000000 0.000000 0.102611 0.000000 0.000000
# 5 0.000000 0.000000 0.000000 0.000000 0.036361 0.000000
# 6 0.000000 0.000000 0.000000 0.000000 0.000000 0.048116
#
#
# Mechanical properties :
#
#
# Convention : Reuss Voigt Hill
#
# Bulk Modulus (GPa) = 13.53256 22.96741 18.24999
# Shear Modulus (GPa) = 12.00779 18.90724 15.45752
#
# Velocity S-wave (km/s) = 2.38894 2.99769 2.71046
# Velocity P-wave (km/s) = 3.74714 4.78512 4.29758
#
# Compressibility (1/GPa) = 0.07389584
#
# Stress axis : x y z
#
# Youngs Moduli (GPa) = 12.15273 67.19551 23.74275
#
# Poissons Ratio (x) = 1.30431 0.37342
# Poissons Ratio (y) = 0.23589 -0.05802
# Poissons Ratio (z) = 0.19114 -0.16419
#
# Static dielectric constant tensor:
#      x y z
#    x 1.703710 0.000000 0.000000 
#    y 0.000000 1.800420 0.000000 
#    z 0.000000 0.000000 1.761470 
# 
# From -- ./inp_files/34296.got.cif
#   From: 2010.05.17/outbox.cif.g08.bks.cpg/sg53_18_cif.got.tgz:34296.got - 2010.06.03 12:45:16.
