data_PCOD9414911
_publ_section_title
;
Structure prediction by ZEFSAII (Michael W. Deem and Ramdas Pophale) SiO2 
 PCOD9414911
Probable space group: P M N A
;
_chemical_formula_sum "Si O2"
_cell_formula_units_Z 64
_cell_length_a 8.201073
_cell_length_b 14.953431
_cell_length_c 31.444946
_cell_angle_alpha 90.000000
_cell_angle_beta 90.000000
_cell_angle_gamma 90.000000
_cell_volume 3856.225144
_symmetry_space_group_name_H-M "P M N A"
_symmetry_group_IT_number 53
_symmetry_cell_setting 'orthorhombic'
loop_
_space_group_symop_operation_xyz
x,y,z
1/2-x,-y,1/2+z
x,-y,-z
1/2-x,y,1/2-z
-x,-y,-z
1/2+x,y,1/2-z
-x,y,z
1/2+x,-y,1/2+z
loop_
_atom_site_type_symbol
_atom_site_label
_atom_site_fract_x
_atom_site_fract_y
_atom_site_fract_z
Si Si1 0.695737 0.644917 0.296755
Si Si2 0.699170 0.055409 0.457697
Si Si3 0.197709 0.921124 0.114971
Si Si4 0.187151 0.749539 0.436296
Si Si5 0.187941 0.744902 0.971764
Si Si6 0.307926 0.548726 0.956278
Si Si7 0.803779 0.851420 0.203198
Si Si8 0.693180 0.419983 0.613617
O O1 0.750000 0.615285 0.250000
O O2 0.500000 0.647762 0.296282
O O3 0.753665 0.748136 0.303262
O O4 0.745116 0.584556 0.336971
O O5 0.500000 0.057521 0.459571
O O6 0.754248 0.158328 0.457556
O O7 0.751462 0.000000 0.500000
O O8 0.748044 0.003242 0.414995
O O9 0.265270 0.832674 0.092629
O O10 0.249810 0.913795 0.164122
O O11 0.000000 0.917951 0.113858
O O12 0.301388 0.748566 0.477237
O O13 0.214049 0.659464 0.410258
O O14 0.000000 0.755861 0.450569
O O15 0.278592 0.654504 0.958825
O O16 0.000000 0.736993 0.958089
O O17 0.500000 0.529810 0.953850
O O18 0.226208 0.507152 0.914460
O O19 0.247191 0.500000 0.000000
O O20 0.750000 0.880209 0.250000
O O21 0.000000 0.848903 0.202496
O O22 0.500000 0.400252 0.612335
#
# Coordination Sequence:
#
# PCOD9414911 Si02
#       8
#     8   8   8   8   8   8   8   8
#     4   9  18  31  48  73 100 129 163 199 242 295
#     4   9  17  30  52  76  95 124 168 210 240 282
#     4  10  18  33  51  70  97 133 171 203 240 287
#     4  12  22  30  45  72 103 134 166 205 247 289
#     4  11  21  35  53  71  96 133 172 208 246 290
#     4  11  23  36  50  74 103 130 166 208 254 297
#     4   9  17  29  46  69  98 130 161 198 240 288
#     4  11  21  35  53  73  97 134 176 205 240 294
#
# _framework density 16.596540999999998
#
# number of rings (size 3 to 8) (size 9 to 14) (size 15 to 20)
#    0.000    1.750    3.750    2.250    0.000    2.000 
#    0.000    1.875    0.000    0.000    0.000    0.875 
#    0.000    2.000    0.000    0.000    0.000    0.000 
#
# Total GULP energy -356954.942099 kJ/mol
# GULP energy per Si atom -5577.420970 kJ/mol
# Density = 1.655877 g / cm^3
# Si number density = 16.596541 Si / 1000 Ang^3
#
#
#
# Elastic Constant Matrix: (Units=GPa)
#
#
# Indices 1 2 3 4 5 6 
#
# 1 16.4871 3.0051 11.1419 0.0000 0.0000 0.0000
# 2 3.0051 97.7709 59.2047 0.0000 0.0000 0.0000
# 3 11.1419 59.2047 134.7261 0.0000 0.0000 0.0000
# 4 0.0000 0.0000 0.0000 -126.5508 0.0000 0.0000
# 5 0.0000 0.0000 0.0000 0.0000 19.0614 0.0000
# 6 0.0000 0.0000 0.0000 0.0000 0.0000 2.9795
#
#
#
# Elastic Compliance Matrix: (Units=1/GPa)
#
#
# Indices 1 2 3 4 5 6 
#
# 1 0.064450 0.001699 -0.006077 0.000000 0.000000 0.000000
# 2 0.001699 0.013981 -0.006285 0.000000 0.000000 0.000000
# 3 -0.006077 -0.006285 0.010687 0.000000 0.000000 0.000000
# 4 0.000000 0.000000 0.000000 -0.007902 0.000000 0.000000
# 5 0.000000 0.000000 0.000000 0.000000 0.052462 0.000000
# 6 0.000000 0.000000 0.000000 0.000000 0.000000 0.335631
#
#
# Mechanical properties :
#
#
# Convention : Reuss Voigt Hill
#
# Bulk Modulus (GPa) = 14.75063 43.96527 29.35795
# Shear Modulus (GPa) = 9.74219 -9.19315 0.27452
#
# Velocity S-wave (km/s) = 2.42544 -2.35610 0.40715
# Velocity P-wave (km/s) = 4.09277 4.37567 4.23658
#
# Compressibility (1/GPa) = 0.06779372
#
# Stress axis : x y z
#
# Youngs Moduli (GPa) = 15.51580 71.52392 93.57429
#
# Poissons Ratio (x) = -0.12150 0.56861
# Poissons Ratio (y) = -0.02636 0.58807
# Poissons Ratio (z) = 0.09428 0.44949
#
# Static dielectric constant tensor:
#      x y z
#    x 1.572400 0.000000 0.000000 
#    y 0.000000 1.550850 0.000000 
#    z 0.000000 0.000000 1.563830 
# 
# From -- ./inp_files/38519.got.cif
#   From: 2010.05.17/outbox.cif.g08.bks.cpg/sg53_20_cif.got.tgz:38519.got - 2010.06.03 12:45:16.
