data_PCOD9414415
_publ_section_title
;
Structure prediction by ZEFSAII (Michael W. Deem and Ramdas Pophale) SiO2 
 PCOD9414415
Probable space group: P M N A
;
_chemical_formula_sum "Si O2"
_cell_formula_units_Z 64
_cell_length_a 9.047729
_cell_length_b 17.323322
_cell_length_c 26.979944
_cell_angle_alpha 90.000000
_cell_angle_beta 90.000000
_cell_angle_gamma 90.000000
_cell_volume 4228.748005
_symmetry_space_group_name_H-M "P M N A"
_symmetry_group_IT_number 53
_symmetry_cell_setting 'orthorhombic'
loop_
_space_group_symop_operation_xyz
x,y,z
1/2-x,-y,1/2+z
x,-y,-z
1/2-x,y,1/2-z
-x,-y,-z
1/2+x,y,1/2-z
-x,y,z
1/2+x,-y,1/2+z
loop_
_atom_site_type_symbol
_atom_site_label
_atom_site_fract_x
_atom_site_fract_y
_atom_site_fract_z
Si Si1 0.829843 0.516856 0.940849
Si Si2 0.325132 0.973206 0.889706
Si Si3 0.822868 0.906100 0.303143
Si Si4 0.823396 0.359093 0.576756
Si Si5 0.330293 0.906304 0.456609
Si Si6 0.824322 0.834266 0.935913
Si Si7 0.327752 0.780112 0.369992
Si Si8 0.323437 0.674017 0.960588
O O1 0.744895 0.444271 0.917632
O O2 0.747002 0.598121 0.935746
O O3 0.000000 0.520922 0.924381
O O4 0.830663 0.500000 0.000000
O O5 0.500000 0.960396 0.891431
O O6 0.240343 0.892756 0.895352
O O7 0.288865 0.023190 0.840739
O O8 0.275120 0.028125 0.935166
O O9 0.750000 0.918747 0.250000
O O10 0.755521 0.828947 0.327933
O O11 0.000000 0.899574 0.299576
O O12 0.750561 0.298917 0.614468
O O13 0.790888 0.331691 0.519930
O O14 0.000000 0.360822 0.582123
O O15 0.500000 0.935450 0.455636
O O16 0.296011 0.875381 0.510949
O O17 0.321909 0.834830 0.418664
O O18 0.746069 0.751639 0.938714
O O19 0.000000 0.824975 0.930697
O O20 0.500000 0.768587 0.357367
O O21 0.500000 0.673623 0.955206
#
# Coordination Sequence:
#
# PCOD9414415 Si02
#       8
#     8   8   8   8   8   8   8   8
#     4   9  17  28  42  59  84 120 160 195 228 268
#     4  10  21  33  46  66  89 115 150 190 233 279
#     4  10  21  37  54  71  92 118 150 191 239 287
#     4  10  18  28  43  64  91 121 157 196 231 270
#     4   9  18  30  43  61  88 121 155 189 225 268
#     4  11  20  30  44  63  90 123 159 193 228 272
#     4  10  18  30  48  69  93 122 156 192 232 277
#     4  10  19  29  42  61  89 124 160 197 235 268
#
# _framework density 15.134503
#
# number of rings (size 3 to 8) (size 9 to 14) (size 15 to 20)
#    0.000    2.125    1.250    3.000    0.000    7.000 
#    0.000    0.000    0.000    0.000    0.000    0.000 
#    0.000    1.000    0.000    8.500    0.000    5.750 
#
# Total GULP energy -357054.553045 kJ/mol
# GULP energy per Si atom -5578.977391 kJ/mol
# Density = 1.510006 g / cm^3
# Si number density = 15.134503 Si / 1000 Ang^3
#
#
#
# Elastic Constant Matrix: (Units=GPa)
#
#
# Indices 1 2 3 4 5 6 
#
# 1 89.0776 80.5186 38.8807 0.0000 0.0000 0.0000
# 2 80.5186 138.6848 45.2292 0.0000 0.0000 0.0000
# 3 38.8807 45.2292 50.6482 0.0000 0.0000 0.0000
# 4 0.0000 0.0000 0.0000 10.8832 0.0000 0.0000
# 5 0.0000 0.0000 0.0000 0.0000 11.7501 0.0000
# 6 0.0000 0.0000 0.0000 0.0000 0.0000 50.5237
#
#
#
# Elastic Compliance Matrix: (Units=1/GPa)
#
#
# Indices 1 2 3 4 5 6 
#
# 1 0.026391 -0.012296 -0.009279 0.000000 0.000000 0.000000
# 2 -0.012296 0.015902 -0.004762 0.000000 0.000000 0.000000
# 3 -0.009279 -0.004762 0.031119 0.000000 0.000000 0.000000
# 4 0.000000 0.000000 0.000000 0.091885 0.000000 0.000000
# 5 0.000000 0.000000 0.000000 0.000000 0.085106 0.000000
# 6 0.000000 0.000000 0.000000 0.000000 0.000000 0.019793
#
#
# Mechanical properties :
#
#
# Convention : Reuss Voigt Hill
#
# Bulk Modulus (GPa) = 48.21751 67.51860 57.86806
# Shear Modulus (GPa) = 15.16152 22.21687 18.68920
#
# Velocity S-wave (km/s) = 3.16853 3.83556 3.51789
# Velocity P-wave (km/s) = 6.73161 8.02026 7.40402
#
# Compressibility (1/GPa) = 0.02073935
#
# Stress axis : x y z
#
# Youngs Moduli (GPa) = 37.89206 62.88324 32.13441
#
# Poissons Ratio (x) = 0.77322 0.29817
# Poissons Ratio (y) = 0.46592 0.15302
# Poissons Ratio (z) = 0.35159 0.29944
#
# Static dielectric constant tensor:
#      x y z
#    x 1.504430 0.000000 0.000000 
#    y 0.000000 1.499790 0.000000 
#    z 0.000000 0.000000 1.475410 
# 
# From -- ./inp_files/34475.got.cif
#   From: 2010.05.17/outbox.cif.g08.bks.cpg/sg53_18_cif.got.tgz:34475.got - 2010.06.03 12:45:16.
