data_PCOD9414082
_publ_section_title
;
Structure prediction by ZEFSAII (Michael W. Deem and Ramdas Pophale) SiO2 
 PCOD9414082
Probable space group: P M N A
;
_chemical_formula_sum "Si O2"
_cell_formula_units_Z 48
_cell_length_a 8.540312
_cell_length_b 15.890554
_cell_length_c 22.052611
_cell_angle_alpha 90.000000
_cell_angle_beta 90.000000
_cell_angle_gamma 90.000000
_cell_volume 2992.766212
_symmetry_space_group_name_H-M "P M N A"
_symmetry_group_IT_number 53
_symmetry_cell_setting 'orthorhombic'
loop_
_space_group_symop_operation_xyz
x,y,z
1/2-x,-y,1/2+z
x,-y,-z
1/2-x,y,1/2-z
-x,-y,-z
1/2+x,y,1/2-z
-x,y,z
1/2+x,-y,1/2+z
loop_
_atom_site_type_symbol
_atom_site_label
_atom_site_fract_x
_atom_site_fract_y
_atom_site_fract_z
Si Si1 0.190288 0.881445 0.046826
Si Si2 0.317516 0.473923 0.928802
Si Si3 0.186792 0.696421 0.036473
Si Si4 0.688404 0.345076 0.097577
Si Si5 0.309480 0.941702 0.588206
Si Si6 0.311964 0.801537 0.682006
O O1 0.240838 0.786858 0.061898
O O2 0.000000 0.882445 0.048939
O O3 0.243931 0.961108 0.086568
O O4 0.233719 0.901634 0.976946
O O5 0.500000 0.461295 0.914374
O O6 0.231995 0.385021 0.924284
O O7 0.258587 0.557511 0.894822
O O8 0.308376 0.500000 0.000000
O O9 0.000000 0.698648 0.029556
O O10 0.258023 0.684664 0.969250
O O11 0.500000 0.344968 0.098870
O O12 0.754584 0.281560 0.146990
O O13 0.500000 0.942173 0.589688
O O14 0.256234 0.882006 0.642451
O O15 0.250000 0.804443 0.750000
O O16 0.500000 0.801725 0.682362
#
# Coordination Sequence:
#
# PCOD9414082 Si02
#       6
#     8   8   8   8   8   8
#     4   8  13  23  42  67  91 116 147 184 226 272
#     4   8  16  28  40  58  88 123 149 174 219 269
#     4  10  16  24  43  70  93 116 149 186 225 270
#     4  10  19  31  44  60  89 124 154 185 223 270
#     4   8  14  26  43  63  89 118 149 184 224 270
#     4  11  21  33  49  68  89 119 155 190 228 268
#
# _framework density 16.038672999999999
#
# number of rings (size 3 to 8) (size 9 to 14) (size 15 to 20)
#    0.000    2.833    1.667    3.500    0.000    3.667 
#    0.000    0.000    0.000    5.000    0.000    1.167 
#    0.000    5.333    0.000    0.000    0.000    0.000 
#
# Total GULP energy -267206.902990 kJ/mol
# GULP energy per Si atom -5566.810479 kJ/mol
# Density = 1.600217 g / cm^3
# Si number density = 16.038673 Si / 1000 Ang^3
#
#
#
# Elastic Constant Matrix: (Units=GPa)
#
#
# Indices 1 2 3 4 5 6 
#
# 1 27.8670 31.7058 15.3219 0.0000 0.0000 0.0000
# 2 31.7058 193.6925 62.3780 0.0000 0.0000 0.0000
# 3 15.3219 62.3780 69.0404 0.0000 0.0000 0.0000
# 4 0.0000 0.0000 0.0000 14.1082 0.0000 0.0000
# 5 0.0000 0.0000 0.0000 0.0000 4.7595 0.0000
# 6 0.0000 0.0000 0.0000 0.0000 0.0000 -178.1546
#
#
#
# Elastic Compliance Matrix: (Units=1/GPa)
#
#
# Indices 1 2 3 4 5 6 
#
# 1 0.045160 -0.005874 -0.004715 0.000000 0.000000 0.000000
# 2 -0.005874 0.008045 -0.005966 0.000000 0.000000 0.000000
# 3 -0.004715 -0.005966 0.020921 0.000000 0.000000 0.000000
# 4 0.000000 0.000000 0.000000 0.070881 0.000000 0.000000
# 5 0.000000 0.000000 0.000000 0.000000 0.210106 0.000000
# 6 0.000000 0.000000 0.000000 0.000000 0.000000 -0.005613
#
#
# Mechanical properties :
#
#
# Convention : Reuss Voigt Hill
#
# Bulk Modulus (GPa) = 24.38011 56.60125 40.49068
# Shear Modulus (GPa) = 12.61728 -19.77776 -3.58024
#
# Velocity S-wave (km/s) = 2.80782 -3.51540 -1.49569
# Velocity P-wave (km/s) = 5.07402 4.34623 4.72416
#
# Compressibility (1/GPa) = 0.04101705
#
# Stress axis : x y z
#
# Youngs Moduli (GPa) = 22.14340 124.29311 47.79984
#
# Poissons Ratio (x) = 0.73007 0.22539
# Poissons Ratio (y) = 0.13007 0.28515
# Poissons Ratio (z) = 0.10441 0.74148
#
# Static dielectric constant tensor:
#      x y z
#    x 1.550910 0.000000 0.000000 
#    y 0.000000 1.595440 0.000000 
#    z 0.000000 0.000000 1.493530 
# 
# From -- ./inp_files/30502.got.cif
#   From: 2010.05.17/outbox.cif.g08.bks.cpg/sg53_16_cif.got.tgz:30502.got - 2010.06.03 12:45:16.
