data_PCOD9414560
_publ_section_title
;
Structure prediction by ZEFSAII (Michael W. Deem and Ramdas Pophale) SiO2 
 PCOD9414560
Probable space group: P M N A
;
_chemical_formula_sum "Si O2"
_cell_formula_units_Z 64
_cell_length_a 9.255177
_cell_length_b 17.613939
_cell_length_c 27.286166
_cell_angle_alpha 90.000000
_cell_angle_beta 90.000000
_cell_angle_gamma 90.000000
_cell_volume 4448.194141
_symmetry_space_group_name_H-M "P M N A"
_symmetry_group_IT_number 53
_symmetry_cell_setting 'orthorhombic'
loop_
_space_group_symop_operation_xyz
x,y,z
1/2-x,-y,1/2+z
x,-y,-z
1/2-x,y,1/2-z
-x,-y,-z
1/2+x,y,1/2-z
-x,y,z
1/2+x,-y,1/2+z
loop_
_atom_site_type_symbol
_atom_site_label
_atom_site_fract_x
_atom_site_fract_y
_atom_site_fract_z
Si Si1 0.827939 0.484411 0.891770
Si Si2 0.672074 0.660341 0.446041
Si Si3 0.171359 0.410839 0.198539
Si Si4 0.333875 0.018634 0.941643
Si Si5 0.327321 0.395019 0.043039
Si Si6 0.170946 0.130724 0.075920
Si Si7 0.327796 0.831897 0.462393
Si Si8 0.327978 0.287175 0.380692
O O1 0.805509 0.394842 0.899617
O O2 0.787105 0.522648 0.840061
O O3 0.740533 0.529193 0.933507
O O4 0.000000 0.499584 0.898540
O O5 0.500000 0.658216 0.457910
O O6 0.760330 0.624292 0.490643
O O7 0.711985 0.748806 0.442391
O O8 0.250000 0.415590 0.250000
O O9 0.198907 0.331348 0.169968
O O10 0.000000 0.416509 0.206363
O O11 0.500000 0.024720 0.926937
O O12 0.252473 0.098412 0.936652
O O13 0.257145 0.946822 0.916815
O O14 0.328634 0.000000 0.000000
O O15 0.500000 0.398723 0.041585
O O16 0.269172 0.329445 0.079288
O O17 0.200866 0.197865 0.114394
O O18 0.000000 0.114160 0.076476
O O19 0.203767 0.162943 0.021013
O O20 0.500000 0.841865 0.457223
O O21 0.500000 0.297954 0.392437
#
# Coordination Sequence:
#
# PCOD9414560 Si02
#       8
#     8   8   8   8   8   8   8   8
#     4   9  19  33  47  60  79 111 148 178 210 257
#     4  10  18  30  45  59  80 114 151 182 210 247
#     4   9  18  32  49  66  85 109 138 175 219 263
#     4   9  17  26  36  54  83 114 141 170 208 248
#     4  11  20  27  39  61  89 114 140 177 218 254
#     4   9  15  26  43  59  78 106 146 183 203 236
#     4   9  16  26  41  58  77 109 149 180 207 238
#     4   9  17  31  47  63  83 113 150 180 211 254
#
# _framework density 14.387860999999999
#
# number of rings (size 3 to 8) (size 9 to 14) (size 15 to 20)
#    0.000    2.625    1.250    2.625    0.000    6.500 
#    0.000    0.000    0.000    0.000    0.000    0.000 
#    0.000    1.000    0.000    3.750    0.000    2.875 
#
# Total GULP energy -356438.578641 kJ/mol
# GULP energy per Si atom -5569.352791 kJ/mol
# Density = 1.435511 g / cm^3
# Si number density = 14.387861 Si / 1000 Ang^3
#
#
#
# Elastic Constant Matrix: (Units=GPa)
#
#
# Indices 1 2 3 4 5 6 
#
# 1 41.6564 54.5094 30.7623 0.0000 0.0000 0.0000
# 2 54.5094 145.9276 53.5634 0.0000 0.0000 0.0000
# 3 30.7623 53.5634 57.5648 0.0000 0.0000 0.0000
# 4 0.0000 0.0000 0.0000 8.2594 0.0000 0.0000
# 5 0.0000 0.0000 0.0000 0.0000 17.4817 0.0000
# 6 0.0000 0.0000 0.0000 0.0000 0.0000 4.8053
#
#
#
# Elastic Compliance Matrix: (Units=1/GPa)
#
#
# Indices 1 2 3 4 5 6 
#
# 1 0.054813 -0.014766 -0.015552 0.000000 0.000000 0.000000
# 2 -0.014766 0.014385 -0.005494 0.000000 0.000000 0.000000
# 3 -0.015552 -0.005494 0.030795 0.000000 0.000000 0.000000
# 4 0.000000 0.000000 0.000000 0.121074 0.000000 0.000000
# 5 0.000000 0.000000 0.000000 0.000000 0.057203 0.000000
# 6 0.000000 0.000000 0.000000 0.000000 0.000000 0.208104
#
#
# Mechanical properties :
#
#
# Convention : Reuss Voigt Hill
#
# Bulk Modulus (GPa) = 35.25065 58.09099 46.67082
# Shear Modulus (GPa) = 8.81128 13.19687 11.00407
#
# Velocity S-wave (km/s) = 2.47738 3.03185 2.76853
# Velocity P-wave (km/s) = 5.72160 7.26077 6.53665
#
# Compressibility (1/GPa) = 0.02836827
#
# Stress axis : x y z
#
# Youngs Moduli (GPa) = 18.24380 69.51622 32.47297
#
# Poissons Ratio (x) = 1.02650 0.50502
# Poissons Ratio (y) = 0.26939 0.17841
# Poissons Ratio (z) = 0.28373 0.38193
#
# Static dielectric constant tensor:
#      x y z
#    x 1.477160 0.000000 0.000000 
#    y 0.000000 1.501020 0.000000 
#    z 0.000000 0.000000 1.444750 
# 
# From -- ./inp_files/34473.got.cif
#   From: 2010.05.17/outbox.cif.g08.bks.cpg/sg53_18_cif.got.tgz:34473.got - 2010.06.03 12:45:16.
