data_PCOD9414864
_publ_section_title
;
Structure prediction by ZEFSAII (Michael W. Deem and Ramdas Pophale) SiO2 
 PCOD9414864
Probable space group: P M N A
;
_chemical_formula_sum "Si O2"
_cell_formula_units_Z 64
_cell_length_a 8.555950
_cell_length_b 21.117509
_cell_length_c 20.070451
_cell_angle_alpha 90.000000
_cell_angle_beta 90.000000
_cell_angle_gamma 90.000000
_cell_volume 3626.336134
_symmetry_space_group_name_H-M "P M N A"
_symmetry_group_IT_number 53
_symmetry_cell_setting 'orthorhombic'
loop_
_space_group_symop_operation_xyz
x,y,z
1/2-x,-y,1/2+z
x,-y,-z
1/2-x,y,1/2-z
-x,-y,-z
1/2+x,y,1/2-z
-x,y,z
1/2+x,-y,1/2+z
loop_
_atom_site_type_symbol
_atom_site_label
_atom_site_fract_x
_atom_site_fract_y
_atom_site_fract_z
Si Si1 0.813532 0.131349 0.678121
Si Si2 0.687044 0.061356 0.044370
Si Si3 0.813248 0.633257 0.178027
Si Si4 0.811997 0.489850 0.320788
Si Si5 0.187900 0.685936 0.458426
Si Si6 0.809919 0.562602 0.539661
Si Si7 0.186149 0.011794 0.179476
Si Si8 0.185785 0.821407 0.039718
O O1 0.750000 0.152897 0.750000
O O2 0.742430 0.167830 0.615584
O O3 0.000000 0.135639 0.676859
O O4 0.762859 0.057755 0.670583
O O5 0.500000 0.061027 0.051874
O O6 0.765304 0.053380 0.116348
O O7 0.740150 0.123628 0.005367
O O8 0.731164 0.000000 0.000000
O O9 0.750000 0.654692 0.250000
O O10 0.756842 0.560400 0.169577
O O11 0.743953 0.672056 0.116647
O O12 0.000000 0.635745 0.177620
O O13 0.750000 0.466110 0.250000
O O14 0.766224 0.446829 0.383449
O O15 0.000000 0.495526 0.319005
O O16 0.241295 0.626659 0.503698
O O17 0.257502 0.752238 0.481890
O O18 0.000000 0.688762 0.459447
O O19 0.756876 0.500000 0.500000
O O20 0.000000 0.562543 0.536833
O O21 0.250000 0.036845 0.250000
O O22 0.000000 0.004239 0.182837
O O23 0.000000 0.826263 0.037146
#
# Coordination Sequence:
#
# PCOD9414864 Si02
#       8
#     8   8   8   8   8   8   8   8
#     4  11  21  36  56  82 114 153 194 233 278 334
#     4  11  22  38  62  88 115 150 195 239 286 339
#     4  11  21  34  52  79 112 149 188 228 275 330
#     4  10  18  32  54  82 112 144 183 227 278 329
#     4  11  22  39  59  80 110 149 191 233 281 336
#     4   9  17  33  58  83 108 145 186 228 277 334
#     4  11  21  35  58  88 120 152 188 236 288 336
#     4  12  25  40  57  83 117 152 191 235 288 342
#
# _framework density 17.648668000000001
#
# number of rings (size 3 to 8) (size 9 to 14) (size 15 to 20)
#    0.000    1.250    2.500    7.125    0.000    1.000 
#    0.000    5.625    0.000    0.750    0.000    3.500 
#    0.000    0.000    0.000    0.000    0.000    0.000 
#
# Total GULP energy -357718.513360 kJ/mol
# GULP energy per Si atom -5589.351771 kJ/mol
# Density = 1.760850 g / cm^3
# Si number density = 17.648668 Si / 1000 Ang^3
#
#
#
# Elastic Constant Matrix: (Units=GPa)
#
#
# Indices 1 2 3 4 5 6 
#
# 1 63.1396 1.5451 9.7549 0.0000 0.0000 0.0000
# 2 1.5451 92.2834 47.1349 0.0000 0.0000 0.0000
# 3 9.7549 47.1349 106.3615 0.0000 0.0000 0.0000
# 4 0.0000 0.0000 0.0000 20.9937 0.0000 0.0000
# 5 0.0000 0.0000 0.0000 0.0000 14.1233 0.0000
# 6 0.0000 0.0000 0.0000 0.0000 0.0000 22.9204
#
#
#
# Elastic Compliance Matrix: (Units=1/GPa)
#
#
# Indices 1 2 3 4 5 6 
#
# 1 0.016094 0.000626 -0.001754 0.000000 0.000000 0.000000
# 2 0.000626 0.014031 -0.006275 0.000000 0.000000 0.000000
# 3 -0.001754 -0.006275 0.012344 0.000000 0.000000 0.000000
# 4 0.000000 0.000000 0.000000 0.047633 0.000000 0.000000
# 5 0.000000 0.000000 0.000000 0.000000 0.070805 0.000000
# 6 0.000000 0.000000 0.000000 0.000000 0.000000 0.043629
#
#
# Mechanical properties :
#
#
# Convention : Reuss Voigt Hill
#
# Bulk Modulus (GPa) = 36.14967 42.07271 39.11119
# Shear Modulus (GPa) = 21.87590 25.16412 23.52001
#
# Velocity S-wave (km/s) = 3.52450 3.78012 3.65455
# Velocity P-wave (km/s) = 6.09018 6.55311 6.32588
#
# Compressibility (1/GPa) = 0.02766277
#
# Stress axis : x y z
#
# Youngs Moduli (GPa) = 62.13679 71.27126 81.01314
#
# Poissons Ratio (x) = -0.04463 0.14206
# Poissons Ratio (y) = -0.03891 0.50838
# Poissons Ratio (z) = 0.10896 0.44725
#
# Static dielectric constant tensor:
#      x y z
#    x 1.591190 0.000000 0.000000 
#    y 0.000000 1.590450 0.000000 
#    z 0.000000 0.000000 1.609480 
# 
# From -- ./inp_files/31203.got.cif
#   From: 2010.05.17/outbox.cif.g08.bks.cpg/sg53_16_cif.got.tgz:31203.got - 2010.06.03 12:45:16.
