data_PCOD9414309
_publ_section_title
;
Structure prediction by ZEFSAII (Michael W. Deem and Ramdas Pophale) SiO2 
 PCOD9414309
Probable space group: P M N A
;
_chemical_formula_sum "Si O2"
_cell_formula_units_Z 64
_cell_length_a 8.424196
_cell_length_b 15.398368
_cell_length_c 25.495213
_cell_angle_alpha 90.000000
_cell_angle_beta 90.000000
_cell_angle_gamma 90.000000
_cell_volume 3307.210224
_symmetry_space_group_name_H-M "P M N A"
_symmetry_group_IT_number 53
_symmetry_cell_setting 'orthorhombic'
loop_
_space_group_symop_operation_xyz
x,y,z
1/2-x,-y,1/2+z
x,-y,-z
1/2-x,y,1/2-z
-x,-y,-z
1/2+x,y,1/2-z
-x,y,z
1/2+x,-y,1/2+z
loop_
_atom_site_type_symbol
_atom_site_label
_atom_site_fract_x
_atom_site_fract_y
_atom_site_fract_z
Si Si1 0.691310 0.941715 0.807783
Si Si2 0.180798 0.261666 0.495746
Si Si3 0.808799 0.354179 0.194331
Si Si4 0.309456 0.141215 0.808056
Si Si5 0.810586 0.285658 0.887252
Si Si6 0.184380 0.529181 0.152001
Si Si7 0.825587 0.573627 0.956566
Si Si8 0.807136 0.790973 0.614324
O O1 0.750000 0.916031 0.750000
O O2 0.500000 0.940701 0.807122
O O3 0.744512 0.874351 0.852012
O O4 0.742306 0.041277 0.817402
O O5 0.260756 0.269723 0.552476
O O6 0.192885 0.357293 0.470051
O O7 0.246741 0.206156 0.446512
O O8 0.000000 0.235122 0.505195
O O9 0.750000 0.318218 0.250000
O O10 0.745967 0.453930 0.189169
O O11 0.751785 0.293270 0.146615
O O12 0.000000 0.356263 0.192941
O O13 0.250000 0.165923 0.750000
O O14 0.500000 0.144080 0.808899
O O15 0.242929 0.206261 0.851217
O O16 0.746221 0.376063 0.861410
O O17 0.000000 0.293732 0.887294
O O18 0.185586 0.476857 0.097423
O O19 0.000000 0.542971 0.168195
O O20 0.000000 0.617966 0.958675
O O21 0.823459 0.500000 0.000000
O O22 0.000000 0.787768 0.613414
#
# Coordination Sequence:
#
# PCOD9414309 Si02
#       8
#     8   8   8   8   8   8   8   8
#     4   9  19  37  61  85 111 142 181 228 280 336
#     4  11  22  34  52  83 118 148 187 234 280 331
#     4  11  22  36  53  76 109 147 186 230 279 332
#     4  10  21  40  64  89 112 140 180 230 284 336
#     4  11  22  39  60  83 113 151 192 233 278 333
#     4   9  19  34  53  75 103 144 189 227 272 325
#     4  10  17  32  54  74 101 142 190 232 274 325
#     4  10  21  37  56  82 114 149 186 227 276 334
#
# _framework density 19.351659000000001
#
# number of rings (size 3 to 8) (size 9 to 14) (size 15 to 20)
#    0.000    1.875    2.500    1.875    0.000    3.250 
#    0.000    4.375    0.000    3.750    0.000    0.000 
#    0.000    0.000    0.000    0.000    0.000    0.000 
#
# Total GULP energy -356799.347264 kJ/mol
# GULP energy per Si atom -5574.989801 kJ/mol
# Density = 1.930761 g / cm^3
# Si number density = 19.351659 Si / 1000 Ang^3
#
#
#
# Elastic Constant Matrix: (Units=GPa)
#
#
# Indices 1 2 3 4 5 6 
#
# 1 24.6457 13.0208 14.8104 0.0000 0.0000 0.0000
# 2 13.0208 96.7554 55.2173 0.0000 0.0000 0.0000
# 3 14.8104 55.2173 91.2996 0.0000 0.0000 0.0000
# 4 0.0000 0.0000 0.0000 27.0841 0.0000 0.0000
# 5 0.0000 0.0000 0.0000 0.0000 26.3316 0.0000
# 6 0.0000 0.0000 0.0000 0.0000 0.0000 13.7383
#
#
#
# Elastic Compliance Matrix: (Units=1/GPa)
#
#
# Indices 1 2 3 4 5 6 
#
# 1 0.045491 -0.002917 -0.005615 0.000000 0.000000 0.000000
# 2 -0.002917 0.015970 -0.009185 0.000000 0.000000 0.000000
# 3 -0.005615 -0.009185 0.017419 0.000000 0.000000 0.000000
# 4 0.000000 0.000000 0.000000 0.036922 0.000000 0.000000
# 5 0.000000 0.000000 0.000000 0.000000 0.037977 0.000000
# 6 0.000000 0.000000 0.000000 0.000000 0.000000 0.072789
#
#
# Mechanical properties :
#
#
# Convention : Reuss Voigt Hill
#
# Bulk Modulus (GPa) = 23.01802 42.08861 32.55332
# Shear Modulus (GPa) = 18.08422 22.07429 20.07925
#
# Velocity S-wave (km/s) = 3.06028 3.38108 3.22467
# Velocity P-wave (km/s) = 4.94040 6.08595 5.54285
#
# Compressibility (1/GPa) = 0.04344422
#
# Stress axis : x y z
#
# Youngs Moduli (GPa) = 21.98259 62.61801 57.40891
#
# Poissons Ratio (x) = 0.18269 0.32234
# Poissons Ratio (y) = 0.06413 0.52731
# Poissons Ratio (z) = 0.12343 0.57516
#
# Static dielectric constant tensor:
#      x y z
#    x 1.699930 0.000000 0.000000 
#    y 0.000000 1.698200 0.000000 
#    z 0.000000 0.000000 1.592080 
# 
# From -- ./inp_files/34267.got.cif
#   From: 2010.05.17/outbox.cif.g08.bks.cpg/sg53_18_cif.got.tgz:34267.got - 2010.06.03 12:45:16.
