data_PCOD9414203
_publ_section_title
;
Structure prediction by ZEFSAII (Michael W. Deem and Ramdas Pophale) SiO2 
 PCOD9414203
Probable space group: P M N A
;
_chemical_formula_sum "Si O2"
_cell_formula_units_Z 56
_cell_length_a 8.674362
_cell_length_b 19.075559
_cell_length_c 18.944643
_cell_angle_alpha 90.000000
_cell_angle_beta 90.000000
_cell_angle_gamma 90.000000
_cell_volume 3134.737949
_symmetry_space_group_name_H-M "P M N A"
_symmetry_group_IT_number 53
_symmetry_cell_setting 'orthorhombic'
loop_
_space_group_symop_operation_xyz
x,y,z
1/2-x,-y,1/2+z
x,-y,-z
1/2-x,y,1/2-z
-x,-y,-z
1/2+x,y,1/2-z
-x,y,z
1/2+x,-y,1/2+z
loop_
_atom_site_type_symbol
_atom_site_label
_atom_site_fract_x
_atom_site_fract_y
_atom_site_fract_z
Si Si1 0.314658 0.350344 0.415926
Si Si2 0.683874 0.779072 0.829241
Si Si3 0.179005 0.494816 0.914326
Si Si4 0.815988 0.075958 0.169712
Si Si5 0.683901 0.650079 0.073391
Si Si6 0.314432 0.778626 0.171003
Si Si7 0.815032 0.067043 0.669988
O O1 0.500000 0.346625 0.411249
O O2 0.237945 0.288069 0.372769
O O3 0.267667 0.428422 0.389504
O O4 0.264457 0.344546 0.497404
O O5 0.750000 0.772588 0.750000
O O6 0.500000 0.783905 0.826405
O O7 0.751324 0.851552 0.861136
O O8 0.273244 0.425863 0.894604
O O9 0.000000 0.484944 0.894808
O O10 0.184791 0.500000 0.000000
O O11 0.750000 0.075622 0.250000
O O12 0.000000 0.077088 0.171987
O O13 0.756809 0.003030 0.136664
O O14 0.500000 0.654120 0.063682
O O15 0.735677 0.714080 0.122707
O O16 0.250000 0.772295 0.250000
O O17 0.500000 0.776748 0.175575
O O18 0.274183 0.855956 0.140648
O O19 0.750000 0.069617 0.750000
O O20 0.000000 0.059651 0.671928
#
# Coordination Sequence:
#
# PCOD9414203 Si02
#       7
#     8   8   8   8   8   8   8
#     4  10  20  35  53  74  99 129 165 203 245 294
#     4  11  21  34  52  75 102 131 162 200 246 292
#     4   8  16  31  50  71  95 125 162 203 244 288
#     4  10  17  27  44  68  96 126 161 199 238 283
#     4  10  19  32  51  76 101 128 165 206 247 293
#     4   9  19  32  48  72 102 132 164 203 246 291
#     4   9  15  26  43  65  93 125 161 200 239 280
#
# _framework density 17.864332999999998
#
# number of rings (size 3 to 8) (size 9 to 14) (size 15 to 20)
#    0.000    2.429    0.000    6.429    0.000    4.857 
#    0.000    0.714    0.000    2.571    0.000    6.000 
#    0.000    0.000    0.000    0.000    0.000    0.000 
#
# Total GULP energy -312049.307044 kJ/mol
# GULP energy per Si atom -5572.309054 kJ/mol
# Density = 1.782367 g / cm^3
# Si number density = 17.864333 Si / 1000 Ang^3
#
#
#
# Elastic Constant Matrix: (Units=GPa)
#
#
# Indices 1 2 3 4 5 6 
#
# 1 97.1590 66.3613 16.9080 0.0000 0.0000 0.0000
# 2 66.3613 208.8414 47.2502 0.0000 0.0000 0.0000
# 3 16.9080 47.2502 25.7726 0.0000 0.0000 0.0000
# 4 0.0000 0.0000 0.0000 47.5416 0.0000 0.0000
# 5 0.0000 0.0000 0.0000 0.0000 11.2715 0.0000
# 6 0.0000 0.0000 0.0000 0.0000 0.0000 33.7560
#
#
#
# Elastic Compliance Matrix: (Units=1/GPa)
#
#
# Indices 1 2 3 4 5 6 
#
# 1 0.013187 -0.003816 -0.001656 0.000000 0.000000 0.000000
# 2 -0.003816 0.009286 -0.014522 0.000000 0.000000 0.000000
# 3 -0.001656 -0.014522 0.066511 0.000000 0.000000 0.000000
# 4 0.000000 0.000000 0.000000 0.021034 0.000000 0.000000
# 5 0.000000 0.000000 0.000000 0.000000 0.088719 0.000000
# 6 0.000000 0.000000 0.000000 0.000000 0.000000 0.029624
#
#
# Mechanical properties :
#
#
# Convention : Reuss Voigt Hill
#
# Bulk Modulus (GPa) = 20.40926 65.86799 43.13862
# Shear Modulus (GPa) = 17.56355 31.93072 24.74714
#
# Velocity S-wave (km/s) = 3.13894 4.23235 3.72598
# Velocity P-wave (km/s) = 4.95850 7.79968 6.53535
#
# Compressibility (1/GPa) = 0.04899737
#
# Stress axis : x y z
#
# Youngs Moduli (GPa) = 75.83426 107.68544 15.03512
#
# Poissons Ratio (x) = 0.41088 0.02490
# Poissons Ratio (y) = 0.28935 0.21834
# Poissons Ratio (z) = 0.12557 1.56379
#
# Static dielectric constant tensor:
#      x y z
#    x 1.596700 0.000000 0.000000 
#    y 0.000000 1.686330 0.000000 
#    z 0.000000 0.000000 1.584760 
# 
# From -- ./inp_files/30982.got.cif
#   From: 2010.05.17/outbox.cif.g08.bks.cpg/sg53_16_cif.got.tgz:30982.got - 2010.06.03 12:45:16.
