data_PCOD9414392
_publ_section_title
;
Structure prediction by ZEFSAII (Michael W. Deem and Ramdas Pophale) SiO2 
 PCOD9414392
Probable space group: P M N A
;
_chemical_formula_sum "Si O2"
_cell_formula_units_Z 56
_cell_length_a 8.246639
_cell_length_b 13.908776
_cell_length_c 29.548584
_cell_angle_alpha 90.000000
_cell_angle_beta 90.000000
_cell_angle_gamma 90.000000
_cell_volume 3389.241927
_symmetry_space_group_name_H-M "P M N A"
_symmetry_group_IT_number 53
_symmetry_cell_setting 'orthorhombic'
loop_
_space_group_symop_operation_xyz
x,y,z
1/2-x,-y,1/2+z
x,-y,-z
1/2-x,y,1/2-z
-x,-y,-z
1/2+x,y,1/2-z
-x,y,z
1/2+x,-y,1/2+z
loop_
_atom_site_type_symbol
_atom_site_label
_atom_site_fract_x
_atom_site_fract_y
_atom_site_fract_z
Si Si1 0.305510 0.101999 0.017775
Si Si2 0.807797 0.401828 0.056947
Si Si3 0.806071 0.801110 0.894098
Si Si4 0.805346 0.487603 0.299861
Si Si5 0.305831 0.266753 0.299828
Si Si6 0.190925 0.416262 0.610537
Si Si7 0.802900 0.296842 0.530235
O O1 0.500000 0.101048 0.013330
O O2 0.265806 0.124406 0.070031
O O3 0.246326 0.193157 0.988079
O O4 0.242266 0.000000 0.000000
O O5 0.773151 0.304939 0.085438
O O6 0.714432 0.489544 0.079442
O O7 0.000000 0.421222 0.058896
O O8 0.756787 0.375192 0.006187
O O9 0.747394 0.796886 0.842272
O O10 0.000000 0.814178 0.894140
O O11 0.750000 0.518030 0.250000
O O12 0.748920 0.377386 0.306582
O O13 0.740978 0.554580 0.340467
O O14 0.000000 0.486752 0.301162
O O15 0.250000 0.235974 0.250000
O O16 0.500000 0.266910 0.300658
O O17 0.254883 0.328641 0.579966
O O18 0.000000 0.398503 0.617007
O O19 0.000000 0.297622 0.529680
#
# Coordination Sequence:
#
# PCOD9414392 Si02
#       7
#     8   8   8   8   8   8   8
#     4   9  18  32  50  69  87 110 146 189 229 270
#     4  10  18  28  41  61  90 119 148 179 210 247
#     4   9  18  30  44  64  91 121 148 177 220 266
#     4  10  19  29  42  60  84 117 154 184 215 252
#     4  10  18  29  43  63  90 120 152 183 216 255
#     4  10  19  29  42  60  85 119 150 175 212 257
#     4   9  18  31  44  61  87 114 144 180 217 264
#
# _framework density 16.522869
#
# number of rings (size 3 to 8) (size 9 to 14) (size 15 to 20)
#    0.000    2.429    1.429    2.571    0.000    4.857 
#    0.000    0.000    0.000    0.000    0.000    1.000 
#    0.000    4.571    0.000    0.000    0.000    0.000 
#
# Total GULP energy -312093.139041 kJ/mol
# GULP energy per Si atom -5573.091769 kJ/mol
# Density = 1.648526 g / cm^3
# Si number density = 16.522869 Si / 1000 Ang^3
#
#
#
# Elastic Constant Matrix: (Units=GPa)
#
#
# Indices 1 2 3 4 5 6 
#
# 1 10.8674 1.6559 8.1775 0.0000 0.0000 0.0000
# 2 1.6559 56.1763 57.2511 0.0000 0.0000 0.0000
# 3 8.1775 57.2511 156.8133 0.0000 0.0000 0.0000
# 4 0.0000 0.0000 0.0000 19.8267 0.0000 0.0000
# 5 0.0000 0.0000 0.0000 0.0000 18.5368 0.0000
# 6 0.0000 0.0000 0.0000 0.0000 0.0000 8.8716
#
#
#
# Elastic Compliance Matrix: (Units=1/GPa)
#
#
# Indices 1 2 3 4 5 6 
#
# 1 0.096239 0.003628 -0.006343 0.000000 0.000000 0.000000
# 2 0.003628 0.028486 -0.010589 0.000000 0.000000 0.000000
# 3 -0.006343 -0.010589 0.010574 0.000000 0.000000 0.000000
# 4 0.000000 0.000000 0.000000 0.050437 0.000000 0.000000
# 5 0.000000 0.000000 0.000000 0.000000 0.053947 0.000000
# 6 0.000000 0.000000 0.000000 0.000000 0.000000 0.112720
#
#
# Mechanical properties :
#
#
# Convention : Reuss Voigt Hill
#
# Bulk Modulus (GPa) = 9.20053 39.78065 24.49059
# Shear Modulus (GPa) = 12.04122 19.89852 15.96987
#
# Velocity S-wave (km/s) = 2.70249 3.47407 3.11228
# Velocity P-wave (km/s) = 3.91387 6.34197 5.26968
#
# Compressibility (1/GPa) = 0.10868934
#
# Stress axis : x y z
#
# Youngs Moduli (GPa) = 10.39084 35.10507 94.57350
#
# Poissons Ratio (x) = -0.12735 0.59989
# Poissons Ratio (y) = -0.03769 1.00145
# Poissons Ratio (z) = 0.06591 0.37173
#
# Static dielectric constant tensor:
#      x y z
#    x 1.572650 0.000000 0.000000 
#    y 0.000000 1.543250 0.000000 
#    z 0.000000 0.000000 1.603110 
# 
# From -- ./inp_files/38347.got.cif
#   From: 2010.05.17/outbox.cif.g08.bks.cpg/sg53_20_cif.got.tgz:38347.got - 2010.06.03 12:45:16.
