data_PCOD9414336
_publ_section_title
;
Structure prediction by ZEFSAII (Michael W. Deem and Ramdas Pophale) SiO2 
 PCOD9414336
Probable space group: P M N A
;
_chemical_formula_sum "Si O2"
_cell_formula_units_Z 36
_cell_length_a 9.541583
_cell_length_b 10.795271
_cell_length_c 18.398866
_cell_angle_alpha 90.000000
_cell_angle_beta 90.000000
_cell_angle_gamma 90.000000
_cell_volume 1895.156320
_symmetry_space_group_name_H-M "P M N A"
_symmetry_group_IT_number 53
_symmetry_cell_setting 'orthorhombic'
loop_
_space_group_symop_operation_xyz
x,y,z
1/2-x,-y,1/2+z
x,-y,-z
1/2-x,y,1/2-z
-x,-y,-z
1/2+x,y,1/2-z
-x,y,z
1/2+x,-y,1/2+z
loop_
_atom_site_type_symbol
_atom_site_label
_atom_site_fract_x
_atom_site_fract_y
_atom_site_fract_z
Si Si1 0.000000 0.903354 0.324956
Si Si2 0.750000 0.247587 0.750000
Si Si3 0.500000 0.188733 0.209808
Si Si4 0.500000 0.675277 0.637021
Si Si5 0.000000 0.783739 0.469440
Si Si6 0.303907 0.699761 0.909324
Si Si7 0.500000 0.586562 0.286432
Si Si8 0.000000 0.524110 0.385239
O O1 0.859572 0.833881 0.296481
O O2 0.000000 0.894281 0.412219
O O3 0.000000 0.041589 0.295172
O O4 0.857297 0.334159 0.795606
O O5 0.500000 0.240720 0.290578
O O6 0.367469 0.241143 0.164469
O O7 0.360616 0.699619 0.592547
O O8 0.500000 0.534029 0.664638
O O9 0.868639 0.774322 0.523455
O O10 0.000000 0.657269 0.422139
O O11 0.368849 0.561065 0.909080
O O12 0.500000 0.543400 0.201564
#
# Coordination Sequence:
#
# PCOD9414336 Si02
#       8
#     4   4   4   4   4   8   4   4
#     4  11  24  41  65  83 123 159 208 255 289 367
#     4  10  22  36  58  96 112 162 198 242 318 350
#     4  10  23  39  63  88 116 161 204 254 304 355
#     4  12  22  35  61 100 129 143 200 271 305 352
#     4  10  21  43  61  80 127 169 210 229 295 388
#     4  10  22  36  60  92 119 165 201 243 309 356
#     4  11  19  35  62  86 128 146 195 251 318 350
#     4  10  17  38  60  83 118 165 197 243 294 371
#
# _framework density 18.995794
#
# number of rings (size 3 to 8) (size 9 to 14) (size 15 to 20)
#    0.000    1.778    4.444    3.333    3.111    1.778 
#    0.000    4.444    0.000    1.333    0.000    0.000 
#    0.000    0.000    0.000    0.000    0.000    0.000 
#
# Total GULP energy -201049.555437 kJ/mol
# GULP energy per Si atom -5584.709873 kJ/mol
# Density = 1.895256 g / cm^3
# Si number density = 18.995794 Si / 1000 Ang^3
#
#
#
# Elastic Constant Matrix: (Units=GPa)
#
#
# Indices 1 2 3 4 5 6 
#
# 1 178.9073 28.2960 26.7887 0.0000 0.0000 0.0000
# 2 28.2960 81.8350 -3.0288 0.0000 0.0000 0.0000
# 3 26.7887 -3.0288 50.2160 0.0000 0.0000 0.0000
# 4 0.0000 0.0000 0.0000 10.2393 0.0000 0.0000
# 5 0.0000 0.0000 0.0000 0.0000 -1.1633 0.0000
# 6 0.0000 0.0000 0.0000 0.0000 0.0000 7.4427
#
#
#
# Elastic Compliance Matrix: (Units=1/GPa)
#
#
# Indices 1 2 3 4 5 6 
#
# 1 0.006508 -0.002384 -0.003616 0.000000 0.000000 0.000000
# 2 -0.002384 0.013120 0.002063 0.000000 0.000000 0.000000
# 3 -0.003616 0.002063 0.021967 0.000000 0.000000 0.000000
# 4 0.000000 0.000000 0.000000 0.097663 0.000000 0.000000
# 5 0.000000 0.000000 0.000000 0.000000 -0.859645 0.000000
# 6 0.000000 0.000000 0.000000 0.000000 0.000000 0.134360
#
#
# Mechanical properties :
#
#
# Convention : Reuss Voigt Hill
#
# Bulk Modulus (GPa) = 29.65363 46.11888 37.88626
# Shear Modulus (GPa) = -8.81969 20.56390 5.87211
#
# Velocity S-wave (km/s) = -2.15709 3.29378 1.76011
# Velocity P-wave (km/s) = 3.07253 6.22868 4.91106
#
# Compressibility (1/GPa) = 0.03372268
#
# Stress axis : x y z
#
# Youngs Moduli (GPa) = 153.65871 76.21713 45.52233
#
# Poissons Ratio (x) = 0.18171 0.16459
# Poissons Ratio (y) = 0.36633 -0.09392
# Poissons Ratio (z) = 0.55557 -0.15725
#
# Static dielectric constant tensor:
#      x y z
#    x 1.652080 0.000000 0.000000 
#    y 0.000000 1.673650 0.000000 
#    z 0.000000 0.000000 1.658150 
# 
# From -- ./inp_files/30337.got.cif
#   From: 2010.05.17/outbox.cif.g08.bks.cpg/sg53_16_cif.got.tgz:30337.got - 2010.06.03 12:45:16.
