data_PCOD9414242
_publ_section_title
;
Structure prediction by ZEFSAII (Michael W. Deem and Ramdas Pophale) SiO2 
 PCOD9414242
Probable space group: P M N A
;
_chemical_formula_sum "Si O2"
_cell_formula_units_Z 52
_cell_length_a 8.685380
_cell_length_b 17.996259
_cell_length_c 14.956210
_cell_angle_alpha 90.000000
_cell_angle_beta 90.000000
_cell_angle_gamma 90.000000
_cell_volume 2337.720653
_symmetry_space_group_name_H-M "P M N A"
_symmetry_group_IT_number 53
_symmetry_cell_setting 'orthorhombic'
loop_
_space_group_symop_operation_xyz
x,y,z
1/2-x,-y,1/2+z
x,-y,-z
1/2-x,y,1/2-z
-x,-y,-z
1/2+x,y,1/2-z
-x,y,z
1/2+x,-y,1/2+z
loop_
_atom_site_type_symbol
_atom_site_label
_atom_site_fract_x
_atom_site_fract_y
_atom_site_fract_z
Si Si1 0.684218 0.438774 0.880822
Si Si2 0.818466 0.061006 0.896076
Si Si3 0.250000 0.327839 0.750000
Si Si4 0.817580 0.758725 0.925340
Si Si5 0.683391 0.911091 0.903620
Si Si6 0.180359 0.395598 0.410170
Si Si7 0.670905 0.205556 0.883409
O O1 0.500000 0.428033 0.857924
O O2 0.799128 0.387059 0.824970
O O3 0.720930 0.525373 0.866524
O O4 0.696255 0.414748 0.984129
O O5 0.500000 0.050258 0.597716
O O6 0.777542 0.138537 0.849878
O O7 0.742120 0.986636 0.857607
O O8 0.748771 0.076781 0.995312
O O9 0.159317 0.270682 0.688194
O O10 0.740285 0.762589 0.024248
O O11 0.000000 0.766861 0.933842
O O12 0.750998 0.831451 0.874932
O O13 0.773857 0.678258 0.886705
O O14 0.500000 0.909072 0.902737
O O15 0.000000 0.380413 0.393840
O O16 0.500000 0.175898 0.901544
#
# Coordination Sequence:
#
# PCOD9414242 Si02
#       7
#     8   8   4   8   8   8   8
#     4   9  19  35  56  77 103 143 187 231 280 341
#     4  10  18  30  46  70 104 137 172 218 266 308
#     4  12  22  34  54  84 108 138 186 236 276 328
#     4  11  20  31  50  79 110 139 178 231 283 327
#     4  10  17  28  48  72 101 138 177 212 257 319
#     4   9  17  36  58  76 102 143 189 230 280 341
#     4  11  22  35  51  72 105 147 187 223 270 335
#
# _framework density 22.243887999999998
#
# number of rings (size 3 to 8) (size 9 to 14) (size 15 to 20)
#    0.000    1.846    1.538    8.769    0.000    2.462 
#    0.000    3.077    0.000    0.000    0.000    1.077 
#    0.000    4.923    0.000    0.000    0.000    0.000 
#
# Total GULP energy -289944.632512 kJ/mol
# GULP energy per Si atom -5575.858318 kJ/mol
# Density = 2.219326 g / cm^3
# Si number density = 22.243888 Si / 1000 Ang^3
#
#
#
# Elastic Constant Matrix: (Units=GPa)
#
#
# Indices 1 2 3 4 5 6 
#
# 1 118.6095 40.1684 -4.0785 0.0000 0.0000 0.0000
# 2 40.1684 194.6692 7.1897 0.0000 0.0000 0.0000
# 3 -4.0785 7.1897 29.0137 0.0000 0.0000 0.0000
# 4 0.0000 0.0000 0.0000 14.3535 0.0000 0.0000
# 5 0.0000 0.0000 0.0000 0.0000 -4.8793 0.0000
# 6 0.0000 0.0000 0.0000 0.0000 0.0000 3.8607
#
#
#
# Elastic Compliance Matrix: (Units=1/GPa)
#
#
# Indices 1 2 3 4 5 6 
#
# 1 0.009154 -0.001954 0.001771 0.000000 0.000000 0.000000
# 2 -0.001954 0.005602 -0.001663 0.000000 0.000000 0.000000
# 3 0.001771 -0.001663 0.035127 0.000000 0.000000 0.000000
# 4 0.000000 0.000000 0.000000 0.069670 0.000000 0.000000
# 5 0.000000 0.000000 0.000000 0.000000 -0.204946 0.000000
# 6 0.000000 0.000000 0.000000 0.000000 0.000000 0.259022
#
#
# Mechanical properties :
#
#
# Convention : Reuss Voigt Hill
#
# Bulk Modulus (GPa) = 21.64936 47.65019 34.64977
# Shear Modulus (GPa) = 25.94479 22.60116 24.27297
#
# Velocity S-wave (km/s) = 3.41893 3.19103 3.30695
# Velocity P-wave (km/s) = 5.03382 5.91989 5.49474
#
# Compressibility (1/GPa) = 0.04619075
#
# Stress axis : x y z
#
# Youngs Moduli (GPa) = 109.24500 178.52156 28.46777
#
# Poissons Ratio (x) = 0.34887 -0.05042
# Poissons Ratio (y) = 0.21349 0.04734
# Poissons Ratio (z) = -0.19347 0.29684
#
# Static dielectric constant tensor:
#      x y z
#    x 1.776070 0.000000 0.000000 
#    y 0.000000 1.899100 0.000000 
#    z 0.000000 0.000000 1.910350 
# 
# From -- ./inp_files/26513.got.cif
#   From: 2010.05.17/outbox.cif.g08.bks.cpg/sg53_14_cif.got.tgz:26513.got - 2010.06.03 12:45:16.
