data_PCOD9414673
_publ_section_title
;
Structure prediction by ZEFSAII (Michael W. Deem and Ramdas Pophale) SiO2 
 PCOD9414673
Probable space group: P M N A
;
_chemical_formula_sum "Si O2"
_cell_formula_units_Z 64
_cell_length_a 7.656385
_cell_length_b 22.969633
_cell_length_c 19.961875
_cell_angle_alpha 90.000000
_cell_angle_beta 90.000000
_cell_angle_gamma 90.000000
_cell_volume 3510.582243
_symmetry_space_group_name_H-M "P M N A"
_symmetry_group_IT_number 53
_symmetry_cell_setting 'orthorhombic'
loop_
_space_group_symop_operation_xyz
x,y,z
1/2-x,-y,1/2+z
x,-y,-z
1/2-x,y,1/2-z
-x,-y,-z
1/2+x,y,1/2-z
-x,y,z
1/2+x,-y,1/2+z
loop_
_atom_site_type_symbol
_atom_site_label
_atom_site_fract_x
_atom_site_fract_y
_atom_site_fract_z
Si Si1 0.792084 0.911592 0.465888
Si Si2 0.698112 0.373658 0.325686
Si Si3 0.790363 0.131950 0.325045
Si Si4 0.213589 0.558609 0.461638
Si Si5 0.207862 0.019553 0.392957
Si Si6 0.800365 0.327833 0.463912
Si Si7 0.784704 0.801715 0.541136
Si Si8 0.707860 0.508446 0.176011
O O1 0.775233 0.945748 0.536636
O O2 0.726492 0.847387 0.483981
O O3 0.000000 0.906299 0.453399
O O4 0.719922 0.955065 0.408853
O O5 0.750000 0.358137 0.250000
O O6 0.500000 0.356137 0.336651
O O7 0.803538 0.345021 0.385652
O O8 0.713672 0.443757 0.330863
O O9 0.750000 0.151408 0.250000
O O10 0.722553 0.065921 0.339131
O O11 0.730266 0.173458 0.385837
O O12 0.000000 0.129424 0.331260
O O13 0.269426 0.500000 0.500000
O O14 0.278950 0.617290 0.496673
O O15 0.263893 0.549641 0.384501
O O16 0.000000 0.559423 0.465737
O O17 0.000000 0.012556 0.380402
O O18 0.722352 0.263744 0.470501
O O19 0.000000 0.323019 0.488031
O O20 0.000000 0.801678 0.541637
O O21 0.750000 0.530645 0.250000
O O22 0.500000 0.500102 0.170697
#
# Coordination Sequence:
#
# PCOD9414673 Si02
#       8
#     8   8   8   8   8   8   8   8
#     4   7   9  17  33  56  78  96 121 163 210 238
#     4  11  21  32  45  63  86 115 147 181 217 261
#     4   9  16  26  38  58  84 113 142 169 201 238
#     4   9  16  28  47  67  88 115 141 174 225 275
#     4   7  10  17  33  54  78 100 124 161 203 237
#     4  10  18  31  47  64  87 116 148 183 221 266
#     4   8  15  25  40  60  82 106 139 177 210 245
#     4  10  18  31  49  68  88 111 140 175 220 271
#
# _framework density 18.230594
#
# number of rings (size 3 to 8) (size 9 to 14) (size 15 to 20)
#    0.000    3.125    1.250    4.500    0.000    0.500 
#    0.000    3.750    0.000    0.000    0.000    8.750 
#    0.000    0.000    0.000    0.000    0.000    0.000 
#
# Total GULP energy -356292.137894 kJ/mol
# GULP energy per Si atom -5567.064655 kJ/mol
# Density = 1.818910 g / cm^3
# Si number density = 18.230594 Si / 1000 Ang^3
#
#
#
# Elastic Constant Matrix: (Units=GPa)
#
#
# Indices 1 2 3 4 5 6 
#
# 1 37.7429 2.6775 -1.0850 0.0000 0.0000 0.0000
# 2 2.6775 148.6748 54.6331 0.0000 0.0000 0.0000
# 3 -1.0850 54.6331 54.2199 0.0000 0.0000 0.0000
# 4 0.0000 0.0000 0.0000 16.0429 0.0000 0.0000
# 5 0.0000 0.0000 0.0000 0.0000 11.7012 0.0000
# 6 0.0000 0.0000 0.0000 0.0000 0.0000 -3.0234
#
#
#
# Elastic Compliance Matrix: (Units=1/GPa)
#
#
# Indices 1 2 3 4 5 6 
#
# 1 0.026617 -0.001072 0.001613 0.000000 0.000000 0.000000
# 2 -0.001072 0.010724 -0.010827 0.000000 0.000000 0.000000
# 3 0.001613 -0.010827 0.029385 0.000000 0.000000 0.000000
# 4 0.000000 0.000000 0.000000 0.062333 0.000000 0.000000
# 5 0.000000 0.000000 0.000000 0.000000 0.085461 0.000000
# 6 0.000000 0.000000 0.000000 0.000000 0.000000 -0.330755
#
#
# Mechanical properties :
#
#
# Convention : Reuss Voigt Hill
#
# Bulk Modulus (GPa) = 21.66658 39.23210 30.44934
# Shear Modulus (GPa) = -62.28452 17.23829 -22.52312
#
# Velocity S-wave (km/s) = -5.85141 3.07835 -3.51872
# Velocity P-wave (km/s) = 5.80874 5.84821 0.47965
#
# Compressibility (1/GPa) = 0.04615402
#
# Stress axis : x y z
#
# Youngs Moduli (GPa) = 37.56936 93.24847 34.03054
#
# Poissons Ratio (x) = 0.09996 -0.05488
# Poissons Ratio (y) = 0.04027 0.36846
# Poissons Ratio (z) = -0.06059 1.00962
#
# Static dielectric constant tensor:
#      x y z
#    x 1.686180 0.000000 0.000000 
#    y 0.000000 1.663710 0.000000 
#    z 0.000000 0.000000 1.638460 
# 
# From -- ./inp_files/31426.got.cif
#   From: 2010.05.17/outbox.cif.g08.bks.cpg/sg53_16_cif.got.tgz:31426.got - 2010.06.03 12:45:16.
