data_PCOD9414891
_publ_section_title
;
Structure prediction by ZEFSAII (Michael W. Deem and Ramdas Pophale) SiO2 
 PCOD9414891
Probable space group: P M N A
;
_chemical_formula_sum "Si O2"
_cell_formula_units_Z 64
_cell_length_a 14.693321
_cell_length_b 12.036639
_cell_length_c 18.355445
_cell_angle_alpha 90.000000
_cell_angle_beta 90.000000
_cell_angle_gamma 90.000000
_cell_volume 3246.310974
_symmetry_space_group_name_H-M "P M N A"
_symmetry_group_IT_number 53
_symmetry_cell_setting 'orthorhombic'
loop_
_space_group_symop_operation_xyz
x,y,z
1/2-x,-y,1/2+z
x,-y,-z
1/2-x,y,1/2-z
-x,-y,-z
1/2+x,y,1/2-z
-x,y,z
1/2+x,-y,1/2+z
loop_
_atom_site_type_symbol
_atom_site_label
_atom_site_fract_x
_atom_site_fract_y
_atom_site_fract_z
Si Si1 0.391620 0.836854 0.709384
Si Si2 0.676496 0.273779 0.812321
Si Si3 0.891483 0.502006 0.887565
Si Si4 0.169363 0.252835 0.916784
Si Si5 0.603906 0.500049 0.778234
Si Si6 0.704741 0.720132 0.574110
Si Si7 0.108096 0.289499 0.362716
Si Si8 0.392407 0.910344 0.288377
O O1 0.500000 0.832834 0.692902
O O2 0.339365 0.768317 0.647770
O O3 0.381442 0.785881 0.790136
O O4 0.358162 0.964064 0.707726
O O5 0.750000 0.305642 0.750000
O O6 0.727219 0.268911 0.888600
O O7 0.607696 0.375068 0.806852
O O8 0.641405 0.156760 0.782458
O O9 0.878529 0.372592 0.907059
O O10 0.858986 0.509500 0.803220
O O11 0.830875 0.592245 0.929723
O O12 0.000000 0.528206 0.894732
O O13 0.131017 0.163129 0.859551
O O14 0.167325 0.221868 0.001108
O O15 0.500000 0.535379 0.768618
O O16 0.639032 0.587786 0.835926
O O17 0.813523 0.738005 0.579403
O O18 0.000000 0.286859 0.384044
O O19 0.500000 0.916623 0.283021
#
# Coordination Sequence:
#
# PCOD9414891 Si02
#       8
#     8   8   8   8   8   8   8   8
#     4  10  22  39  61  88 112 145 194 242 290 341
#     4  10  19  33  56  79 109 147 190 232 273 329
#     4  11  21  35  57  88 122 152 189 235 287 346
#     4  11  24  36  53  86 120 154 191 228 281 348
#     4  10  18  32  57  85 107 140 189 238 281 325
#     4  12  24  37  58  85 120 158 187 227 290 347
#     4  10  22  39  60  85 113 147 196 244 281 331
#     4  10  21  39  61  84 112 145 189 244 292 337
#
# _framework density 19.714686
#
# number of rings (size 3 to 8) (size 9 to 14) (size 15 to 20)
#    0.000    1.500    3.750    2.625    0.000    6.000 
#    0.000    2.500    0.000    3.000    0.000    4.375 
#    0.000    0.000    0.000    0.000    0.000    0.000 
#
# Total GULP energy -356919.469347 kJ/mol
# GULP energy per Si atom -5576.866709 kJ/mol
# Density = 1.966981 g / cm^3
# Si number density = 19.714686 Si / 1000 Ang^3
#
#
#
# Elastic Constant Matrix: (Units=GPa)
#
#
# Indices 1 2 3 4 5 6 
#
# 1 75.9543 17.6836 15.4452 0.0000 0.0000 0.0000
# 2 17.6836 101.0559 3.3509 0.0000 0.0000 0.0000
# 3 15.4452 3.3509 28.3906 0.0000 0.0000 0.0000
# 4 0.0000 0.0000 0.0000 1.7927 0.0000 0.0000
# 5 0.0000 0.0000 0.0000 0.0000 -15.6843 0.0000
# 6 0.0000 0.0000 0.0000 0.0000 0.0000 11.1599
#
#
#
# Elastic Compliance Matrix: (Units=1/GPa)
#
#
# Indices 1 2 3 4 5 6 
#
# 1 0.015372 -0.002422 -0.008077 0.000000 0.000000 0.000000
# 2 -0.002422 0.010316 0.000100 0.000000 0.000000 0.000000
# 3 -0.008077 0.000100 0.039605 0.000000 0.000000 0.000000
# 4 0.000000 0.000000 0.000000 0.557830 0.000000 0.000000
# 5 0.000000 0.000000 0.000000 0.000000 -0.063758 0.000000
# 6 0.000000 0.000000 0.000000 0.000000 0.000000 0.089607
#
#
# Mechanical properties :
#
#
# Convention : Reuss Voigt Hill
#
# Bulk Modulus (GPa) = 22.47423 30.92892 26.70158
# Shear Modulus (GPa) = 7.30352 10.71506 9.00929
#
# Velocity S-wave (km/s) = 1.92682 2.33385 2.14004
# Velocity P-wave (km/s) = 4.04657 4.79425 4.43619
#
# Compressibility (1/GPa) = 0.04449541
#
# Stress axis : x y z
#
# Youngs Moduli (GPa) = 65.05266 96.93647 25.24924
#
# Poissons Ratio (x) = 0.23479 0.20394
# Poissons Ratio (y) = 0.15757 -0.00253
# Poissons Ratio (z) = 0.52543 -0.00971
#
# Static dielectric constant tensor:
#      x y z
#    x 1.733300 0.000000 0.000000 
#    y 0.000000 1.740320 0.000000 
#    z 0.000000 0.000000 1.684980 
# 
# From -- ./inp_files/28561.got.cif
#   From: 2010.05.17/outbox.cif.g08.bks.cpg/sg53_15_cif.got.tgz:28561.got - 2010.06.03 12:45:16.
