data_PCOD9414034
_publ_section_title
;
Structure prediction by ZEFSAII (Michael W. Deem and Ramdas Pophale) SiO2 
 PCOD9414034
Probable space group: P N N A
;
_chemical_formula_sum "Si O2"
_cell_formula_units_Z 40
_cell_length_a 9.000000
_cell_length_b 9.000000
_cell_length_c 24.000000
_cell_angle_alpha 90.000000
_cell_angle_beta 90.000000
_cell_angle_gamma 90.000000
_cell_volume 1944.000000
_symmetry_space_group_name_H-M "P N N A"
_symmetry_group_IT_number 52
_symmetry_cell_setting 'orthorhombic'
loop_
_space_group_symop_operation_xyz
x,y,z
1/2-x,-y,z
x,1/2-y,1/2-z
1/2-x,1/2+y,1/2-z
-x,-y,-z
1/2+x,y,-z
-x,1/2+y,1/2+z
1/2+x,1/2-y,1/2+z
loop_
_atom_site_type_symbol
_atom_site_label
_atom_site_fract_x
_atom_site_fract_y
_atom_site_fract_z
Si Si1 0.926658 0.528017 0.872946
Si Si2 0.051461 0.769628 0.940938
Si Si3 0.100630 0.298357 0.941541
Si Si4 0.081495 0.465887 0.637363
Si Si5 0.087225 0.929495 0.250799
O O1 0.750000 0.500000 0.877626
O O2 0.977699 0.483249 0.810693
O O3 0.963076 0.695420 0.889371
O O4 0.019338 0.447728 0.922102
O O5 0.220473 0.708131 0.946034
O O6 0.057407 0.936552 0.918307
O O7 0.967880 0.750791 0.999426
O O8 0.062167 0.196482 0.888216
O O9 0.250000 0.500000 0.653973
O O10 0.989093 0.483041 0.693728
O O11 0.090635 0.750000 0.250000
O O12 0.250000 0.000000 0.250398
#
# Coordination Sequence:
#
# PCOD9414034 Si02
#       5
#     8   8   8   8   8
#     4  11  24  41  63  93 127 167 210 257 318 371
#     4  11  24  39  66  94 126 168 209 260 314 378
#     4  11  22  43  63  94 130 164 212 259 315 374
#     4  10  24  43  65  94 127 167 210 258 316 375
#     4  11  25  44  68  95 128 164 212 263 315 374
#
# _framework density 20.576132000000001
#
# number of rings (size 3 to 8) (size 9 to 14) (size 15 to 20)
#    0.000    1.200    2.000    3.000    5.600    3.200 
#    0.000    0.000    0.000    0.000    0.000    0.000 
#    0.000    0.000    0.000    0.000    0.000    0.000 
#
# Total GULP energy -223035.524383 kJ/mol
# GULP energy per Si atom -5575.888110 kJ/mol
# Density = 2.052930 g / cm^3
# Si number density = 20.576132 Si / 1000 Ang^3
#
#
#
# Elastic Constant Matrix: (Units=GPa)
#
#
# Indices 1 2 3 4 5 6 
#
# 1 57.8108 9.6253 56.2210 0.0000 0.0000 0.0000
# 2 9.6253 19.2352 7.0628 0.0000 0.0000 0.0000
# 3 56.2210 7.0628 168.1236 0.0000 0.0000 0.0000
# 4 0.0000 0.0000 0.0000 156.9574 0.0000 0.0000
# 5 0.0000 0.0000 0.0000 0.0000 49.3678 0.0000
# 6 0.0000 0.0000 0.0000 0.0000 0.0000 16.4077
#
#
#
# Elastic Compliance Matrix: (Units=1/GPa)
#
#
# Indices 1 2 3 4 5 6 
#
# 1 0.027606 -0.010588 -0.008787 0.000000 0.000000 0.000000
# 2 -0.010588 0.056863 0.001152 0.000000 0.000000 0.000000
# 3 -0.008787 0.001152 0.008838 0.000000 0.000000 0.000000
# 4 0.000000 0.000000 0.000000 0.006371 0.000000 0.000000
# 5 0.000000 0.000000 0.000000 0.000000 0.020256 0.000000
# 6 0.000000 0.000000 0.000000 0.000000 0.000000 0.060947
#
#
# Mechanical properties :
#
#
# Convention : Reuss Voigt Hill
#
# Bulk Modulus (GPa) = 17.58652 43.44312 30.51482
# Shear Modulus (GPa) = 21.16134 56.03063 38.59598
#
# Velocity S-wave (km/s) = 3.21041 5.22398 4.33571
# Velocity P-wave (km/s) = 4.72313 7.58590 6.31877
#
# Compressibility (1/GPa) = 0.05686172
#
# Stress axis : x y z
#
# Youngs Moduli (GPa) = 36.22451 17.58604 113.14918
#
# Poissons Ratio (x) = 0.18619 0.99420
# Poissons Ratio (y) = 0.38353 -0.13032
# Poissons Ratio (z) = 0.31829 -0.02025
#
# Static dielectric constant tensor:
#      x y z
#    x 1.703130 0.000000 0.000000 
#    y 0.000000 1.748160 0.000000 
#    z 0.000000 0.000000 1.662830 
# 
# From -- ./inp_files/39169.got.cif
#   From: 2010.05.17/outbox.ucp.g08.bks.cvg/sg52_20_cif.got.tgz:39169.got - 2010.06.11 16:30:12.
