data_PCOD9414783
_publ_section_title
;
Structure prediction by ZEFSAII (Michael W. Deem and Ramdas Pophale) SiO2 
 PCOD9414783
Probable space group: P M N A
;
_chemical_formula_sum "Si O2"
_cell_formula_units_Z 64
_cell_length_a 14.520542
_cell_length_b 9.466907
_cell_length_c 22.395350
_cell_angle_alpha 90.000000
_cell_angle_beta 90.000000
_cell_angle_gamma 90.000000
_cell_volume 3078.568293
_symmetry_space_group_name_H-M "P M N A"
_symmetry_group_IT_number 53
_symmetry_cell_setting 'orthorhombic'
loop_
_space_group_symop_operation_xyz
x,y,z
1/2-x,-y,1/2+z
x,-y,-z
1/2-x,y,1/2-z
-x,-y,-z
1/2+x,y,1/2-z
-x,y,z
1/2+x,-y,1/2+z
loop_
_atom_site_type_symbol
_atom_site_label
_atom_site_fract_x
_atom_site_fract_y
_atom_site_fract_z
Si Si1 0.605202 0.184042 0.861509
Si Si2 0.374263 0.155690 0.515941
Si Si3 0.760031 0.030274 0.179221
Si Si4 0.224630 0.431917 0.683604
Si Si5 0.403298 0.411713 0.439320
Si Si6 0.282824 0.313696 0.109525
Si Si7 0.895268 0.225143 0.849049
Si Si8 0.154638 0.836900 0.493760
O O1 0.500000 0.154297 0.846670
O O2 0.648937 0.309076 0.822850
O O3 0.612425 0.221423 0.932353
O O4 0.671724 0.052094 0.847907
O O5 0.406324 0.252422 0.462498
O O6 0.403724 0.214149 0.579414
O O7 0.263736 0.156802 0.518188
O O8 0.402712 0.000000 0.500000
O O9 0.750000 0.053169 0.250000
O O10 0.759640 0.177739 0.143383
O O11 0.846226 0.923375 0.169686
O O12 0.250000 0.475473 0.750000
O O13 0.176932 0.569733 0.653692
O O14 0.319924 0.348135 0.663593
O O15 0.400020 0.500000 0.500000
O O16 0.500000 0.447252 0.407234
O O17 0.303478 0.411718 0.410963
O O18 0.345853 0.255899 0.054821
O O19 0.000000 0.241753 0.824942
O O20 0.121672 0.000000 0.500000
#
# Coordination Sequence:
#
# PCOD9414783 Si02
#       8
#     8   8   8   8   8   8   8   8
#     4  11  23  43  69  95 124 168 219 273 329 383
#     4  10  18  31  54  84 123 153 182 235 295 353
#     4  11  23  42  64  92 125 163 220 272 316 373
#     4  11  25  44  62  88 127 170 214 263 316 377
#     4  10  21  33  51  85 123 159 193 230 290 373
#     4  11  23  39  64  91 128 170 206 258 328 383
#     4  11  21  37  63  92 122 162 211 249 301 373
#     4  10  18  38  64  93 127 158 201 263 324 380
#
# _framework density 20.788885000000001
#
# number of rings (size 3 to 8) (size 9 to 14) (size 15 to 20)
#    0.000    1.375    3.750    4.500    1.750    6.250 
#    0.000    1.875    0.000    3.000    0.000    0.000 
#    0.000    0.000    0.000    0.000    0.000    0.000 
#
# Total GULP energy -356556.519870 kJ/mol
# GULP energy per Si atom -5571.195623 kJ/mol
# Density = 2.074157 g / cm^3
# Si number density = 20.788885 Si / 1000 Ang^3
#
#
#
# Elastic Constant Matrix: (Units=GPa)
#
#
# Indices 1 2 3 4 5 6 
#
# 1 94.7791 5.4389 -7.5993 0.0000 0.0000 0.0000
# 2 5.4389 70.3806 -18.4517 0.0000 0.0000 0.0000
# 3 -7.5993 -18.4517 56.6063 0.0000 0.0000 0.0000
# 4 0.0000 0.0000 0.0000 14.0161 0.0000 0.0000
# 5 0.0000 0.0000 0.0000 0.0000 -1.7691 0.0000
# 6 0.0000 0.0000 0.0000 0.0000 0.0000 32.3980
#
#
#
# Elastic Compliance Matrix: (Units=1/GPa)
#
#
# Indices 1 2 3 4 5 6 
#
# 1 0.010681 -0.000491 0.001274 0.000000 0.000000 0.000000
# 2 -0.000491 0.015559 0.005006 0.000000 0.000000 0.000000
# 3 0.001274 0.005006 0.019469 0.000000 0.000000 0.000000
# 4 0.000000 0.000000 0.000000 0.071347 0.000000 0.000000
# 5 0.000000 0.000000 0.000000 0.000000 -0.565260 0.000000
# 6 0.000000 0.000000 0.000000 0.000000 0.000000 0.030866
#
#
# Mechanical properties :
#
#
# Convention : Reuss Voigt Hill
#
# Bulk Modulus (GPa) = 17.45679 20.06018 18.75849
# Shear Modulus (GPa) = -12.20048 25.08754 6.44353
#
# Velocity S-wave (km/s) = -2.42518 3.47764 1.76245
# Velocity P-wave (km/s) = 0.75724 5.07895 3.63106
#
# Compressibility (1/GPa) = 0.05728428
#
# Stress axis : x y z
#
# Youngs Moduli (GPa) = 93.62261 64.27238 51.36493
#
# Poissons Ratio (x) = 0.03159 -0.06542
# Poissons Ratio (y) = 0.04601 -0.25711
# Poissons Ratio (z) = -0.11925 -0.32173
#
# Static dielectric constant tensor:
#      x y z
#    x 1.230960 0.000000 0.000000 
#    y 0.000000 1.798610 0.000000 
#    z 0.000000 0.000000 1.810260 
# 
# From -- ./inp_files/35346.got.cif
#   From: 2010.05.17/outbox.cif.g08.bks.cpg/sg53_18_cif.got.tgz:35346.got - 2010.06.03 12:45:16.
