data_PCOD9414015
_publ_section_title
;
Structure prediction by ZEFSAII (Michael W. Deem and Ramdas Pophale) SiO2 
 PCOD9414015
Probable space group: P N N A
;
_chemical_formula_sum "Si O2"
_cell_formula_units_Z 40
_cell_length_a 15.000000
_cell_length_b 9.000000
_cell_length_c 15.000000
_cell_angle_alpha 90.000000
_cell_angle_beta 90.000000
_cell_angle_gamma 90.000000
_cell_volume 2025.000000
_symmetry_space_group_name_H-M "P N N A"
_symmetry_group_IT_number 52
_symmetry_cell_setting 'orthorhombic'
loop_
_space_group_symop_operation_xyz
x,y,z
1/2-x,-y,z
x,1/2-y,1/2-z
1/2-x,1/2+y,1/2-z
-x,-y,-z
1/2+x,y,-z
-x,1/2+y,1/2+z
1/2+x,1/2-y,1/2+z
loop_
_atom_site_type_symbol
_atom_site_label
_atom_site_fract_x
_atom_site_fract_y
_atom_site_fract_z
Si Si1 0.821410 0.367759 0.669374
Si Si2 0.490727 0.564367 0.600476
Si Si3 0.530819 0.330606 0.987611
Si Si4 0.743397 0.319455 0.996566
Si Si5 0.880296 0.202858 0.145759
O O1 0.750000 0.500000 0.683127
O O2 0.824176 0.250000 0.750000
O O3 0.917102 0.447558 0.654092
O O4 0.794174 0.270520 0.581967
O O5 0.500000 0.500000 0.500000
O O6 0.484644 0.739444 0.579425
O O7 0.407349 0.473220 0.640840
O O8 0.466705 0.273569 0.906694
O O9 0.500000 0.500000 0.000000
O O10 0.637051 0.300668 0.977026
O O11 0.750000 0.500000 0.997121
O O12 0.793475 0.254003 0.086422
O O13 0.873597 0.250000 0.250000
#
# Coordination Sequence:
#
# PCOD9414015 Si02
#       5
#     8   8   8   8   8
#     4  12  25  42  72 108 142 181 239 299 366 448
#     4  10  21  44  67  94 136 189 233 284 362 431
#     4  11  22  43  72  96 140 193 235 295 366 437
#     4  12  24  45  71 102 148 188 240 304 373 434
#     4  11  25  46  71 105 145 189 249 301 365 441
#
# _framework density 19.753086
#
# number of rings (size 3 to 8) (size 9 to 14) (size 15 to 20)
#    0.000    0.800    6.000    3.000    0.000    6.400 
#    3.600    0.000    0.000    0.000    0.000    0.000 
#    0.000    0.000    0.000    0.000    0.000    0.000 
#
# Total GULP energy -222996.623098 kJ/mol
# GULP energy per Si atom -5574.915577 kJ/mol
# Density = 1.970813 g / cm^3
# Si number density = 19.753086 Si / 1000 Ang^3
#
#
#
# Elastic Constant Matrix: (Units=GPa)
#
#
# Indices 1 2 3 4 5 6 
#
# 1 115.7206 16.5457 25.8531 0.0000 0.0000 0.0000
# 2 16.5457 124.6481 30.7689 0.0000 0.0000 0.0000
# 3 25.8531 30.7689 130.1307 0.0000 0.0000 0.0000
# 4 0.0000 0.0000 0.0000 35.0532 0.0000 0.0000
# 5 0.0000 0.0000 0.0000 0.0000 24.1447 0.0000
# 6 0.0000 0.0000 0.0000 0.0000 0.0000 38.3160
#
#
#
# Elastic Compliance Matrix: (Units=1/GPa)
#
#
# Indices 1 2 3 4 5 6 
#
# 1 0.009119 -0.000811 -0.001620 0.000000 0.000000 0.000000
# 2 -0.000811 0.008592 -0.001870 0.000000 0.000000 0.000000
# 3 -0.001620 -0.001870 0.008449 0.000000 0.000000 0.000000
# 4 0.000000 0.000000 0.000000 0.028528 0.000000 0.000000
# 5 0.000000 0.000000 0.000000 0.000000 0.041417 0.000000
# 6 0.000000 0.000000 0.000000 0.000000 0.000000 0.026099
#
#
# Mechanical properties :
#
#
# Convention : Reuss Voigt Hill
#
# Bulk Modulus (GPa) = 56.95521 57.42610 57.19065
# Shear Modulus (GPa) = 36.58754 39.32490 37.95622
#
# Velocity S-wave (km/s) = 4.30844 4.46670 4.38829
# Velocity P-wave (km/s) = 7.32437 7.46572 7.39538
#
# Compressibility (1/GPa) = 0.01755766
#
# Stress axis : x y z
#
# Youngs Moduli (GPa) = 109.65700 116.38861 118.36121
#
# Poissons Ratio (x) = 0.09434 0.19176
# Poissons Ratio (y) = 0.08889 0.22139
# Poissons Ratio (z) = 0.17765 0.21770
#
# Static dielectric constant tensor:
#      x y z
#    x 1.753570 0.000000 0.000000 
#    y 0.000000 1.799020 0.000000 
#    z 0.000000 0.000000 1.675260 
# 
# From -- ./inp_files/26866.got.cif
#   From: 2010.05.17/outbox.ucp.g08.bks.cvg/sg52_14_cif.got.tgz:26866.got - 2010.06.11 16:30:12.
