data_PCOD9414634
_publ_section_title
;
Structure prediction by ZEFSAII (Michael W. Deem and Ramdas Pophale) SiO2 
 PCOD9414634
Probable space group: P M N A
;
_chemical_formula_sum "Si O2"
_cell_formula_units_Z 52
_cell_length_a 9.611884
_cell_length_b 14.976109
_cell_length_c 20.007759
_cell_angle_alpha 90.000000
_cell_angle_beta 90.000000
_cell_angle_gamma 90.000000
_cell_volume 2880.089347
_symmetry_space_group_name_H-M "P M N A"
_symmetry_group_IT_number 53
_symmetry_cell_setting 'orthorhombic'
loop_
_space_group_symop_operation_xyz
x,y,z
1/2-x,-y,1/2+z
x,-y,-z
1/2-x,y,1/2-z
-x,-y,-z
1/2+x,y,1/2-z
-x,y,z
1/2+x,-y,1/2+z
loop_
_atom_site_type_symbol
_atom_site_label
_atom_site_fract_x
_atom_site_fract_y
_atom_site_fract_z
Si Si1 0.164474 0.170596 0.880120
Si Si2 0.661063 0.718536 0.874078
Si Si3 0.835620 0.530084 0.681803
Si Si4 0.250000 0.838741 0.750000
Si Si5 0.664626 0.847230 0.537747
Si Si6 0.833737 0.670019 0.319928
Si Si7 0.160267 0.018192 0.144618
O O1 0.261129 0.254050 0.863435
O O2 0.000000 0.190444 0.865575
O O3 0.216209 0.080850 0.841817
O O4 0.177555 0.148187 0.958636
O O5 0.500000 0.722820 0.893741
O O6 0.701667 0.615827 0.862073
O O7 0.677500 0.773873 0.804165
O O8 0.755907 0.764710 0.929336
O O9 0.750000 0.535475 0.750000
O O10 0.814683 0.430979 0.652477
O O11 0.000000 0.538363 0.697140
O O12 0.333353 0.908778 0.703357
O O13 0.500000 0.839224 0.552855
O O14 0.719561 0.933183 0.578879
O O15 0.750000 0.672376 0.250000
O O16 0.000000 0.684472 0.311119
O O17 0.000000 0.998992 0.129033
#
# Coordination Sequence:
#
# PCOD9414634 Si02
#       7
#     8   8   8   4   8   8   8
#     4  10  20  36  56  76 104 142 182 220 258 305
#     4  10  19  32  53  80 109 136 169 215 266 315
#     4   9  18  33  53  78 106 136 169 211 264 318
#     4  10  18  30  50  80 110 136 164 216 266 318
#     4   9  19  35  54  76 104 143 182 215 257 312
#     4  10  21  37  56  79 106 137 175 217 263 313
#     4   9  18  32  52  76 105 140 177 214 260 312
#
# _framework density 18.054995000000002
#
# number of rings (size 3 to 8) (size 9 to 14) (size 15 to 20)
#    0.000    2.462    0.769    1.385    1.077    4.308 
#    0.000    3.846    0.000    9.231    0.000    0.000 
#    0.000    0.000    0.000    0.000    0.000    0.000 
#
# Total GULP energy -289517.186720 kJ/mol
# GULP energy per Si atom -5567.638206 kJ/mol
# Density = 1.801390 g / cm^3
# Si number density = 18.054995 Si / 1000 Ang^3
#
#
#
# Elastic Constant Matrix: (Units=GPa)
#
#
# Indices 1 2 3 4 5 6 
#
# 1 48.5210 47.5040 12.2279 0.0000 0.0000 0.0000
# 2 47.5040 145.7912 23.3406 0.0000 0.0000 0.0000
# 3 12.2279 23.3406 38.4435 0.0000 0.0000 0.0000
# 4 0.0000 0.0000 0.0000 16.7854 0.0000 0.0000
# 5 0.0000 0.0000 0.0000 0.0000 24.2768 0.0000
# 6 0.0000 0.0000 0.0000 0.0000 0.0000 23.6421
#
#
#
# Elastic Compliance Matrix: (Units=1/GPa)
#
#
# Indices 1 2 3 4 5 6 
#
# 1 0.030839 -0.009391 -0.004108 0.000000 0.000000 0.000000
# 2 -0.009391 0.010457 -0.003362 0.000000 0.000000 0.000000
# 3 -0.004108 -0.003362 0.029360 0.000000 0.000000 0.000000
# 4 0.000000 0.000000 0.000000 0.059575 0.000000 0.000000
# 5 0.000000 0.000000 0.000000 0.000000 0.041192 0.000000
# 6 0.000000 0.000000 0.000000 0.000000 0.000000 0.042297
#
#
# Mechanical properties :
#
#
# Convention : Reuss Voigt Hill
#
# Bulk Modulus (GPa) = 27.07443 44.32230 35.69837
# Shear Modulus (GPa) = 19.24909 22.91975 21.08442
#
# Velocity S-wave (km/s) = 3.26872 3.56679 3.42100
# Velocity P-wave (km/s) = 5.41055 6.44705 5.95141
#
# Compressibility (1/GPa) = 0.03693521
#
# Stress axis : x y z
#
# Youngs Moduli (GPa) = 32.42683 95.62778 34.06006
#
# Poissons Ratio (x) = 0.89802 0.13990
# Poissons Ratio (y) = 0.30451 0.11451
# Poissons Ratio (z) = 0.13319 0.32150
#
# Static dielectric constant tensor:
#      x y z
#    x 1.605390 0.000000 0.000000 
#    y 0.000000 1.666320 0.000000 
#    z 0.000000 0.000000 1.609310 
# 
# From -- ./inp_files/30643.got.cif
#   From: 2010.05.17/outbox.cif.g08.bks.cpg/sg53_16_cif.got.tgz:30643.got - 2010.06.03 12:45:16.
