data_PCOD9414809
_publ_section_title
;
Structure prediction by ZEFSAII (Michael W. Deem and Ramdas Pophale) SiO2 
 PCOD9414809
Probable space group: P M N A
;
_chemical_formula_sum "Si O2"
_cell_formula_units_Z 64
_cell_length_a 14.997510
_cell_length_b 9.410390
_cell_length_c 28.151811
_cell_angle_alpha 90.000000
_cell_angle_beta 90.000000
_cell_angle_gamma 90.000000
_cell_volume 3973.133161
_symmetry_space_group_name_H-M "P M N A"
_symmetry_group_IT_number 53
_symmetry_cell_setting 'orthorhombic'
loop_
_space_group_symop_operation_xyz
x,y,z
1/2-x,-y,1/2+z
x,-y,-z
1/2-x,y,1/2-z
-x,-y,-z
1/2+x,y,1/2-z
-x,y,z
1/2+x,-y,1/2+z
loop_
_atom_site_type_symbol
_atom_site_label
_atom_site_fract_x
_atom_site_fract_y
_atom_site_fract_z
Si Si1 0.896531 0.407439 0.325807
Si Si2 0.304076 0.131408 0.205731
Si Si3 0.898723 0.123151 0.760488
Si Si4 0.896448 0.918375 0.046269
Si Si5 0.396568 0.579801 0.450569
Si Si6 0.230994 0.416101 0.860679
Si Si7 0.104768 0.431391 0.772044
Si Si8 0.693394 0.913346 0.355110
O O1 0.864036 0.245221 0.321334
O O2 0.824566 0.501177 0.355093
O O3 0.892675 0.461127 0.271256
O O4 0.000000 0.420612 0.341528
O O5 0.250000 0.202260 0.250000
O O6 0.353023 0.004643 0.233694
O O7 0.247346 0.043331 0.167401
O O8 0.863181 0.280341 0.750291
O O9 0.886150 0.108420 0.817055
O O10 0.000000 0.121190 0.746194
O O11 0.893280 0.748680 0.039881
O O12 0.841983 0.951180 0.093388
O O13 0.000000 0.959039 0.053339
O O14 0.863041 0.000000 0.000000
O O15 0.377835 0.500000 0.500000
O O16 0.500000 0.546347 0.436340
O O17 0.325775 0.550850 0.408500
O O18 0.168025 0.462405 0.816378
O O19 0.239893 0.243035 0.857668
O O20 0.000000 0.415979 0.787013
#
# Coordination Sequence:
#
# PCOD9414809 Si02
#       8
#     8   8   8   8   8   8   8   8
#     4  11  22  33  45  65  95 128 164 202 240 278
#     4  10  19  30  44  64  92 124 157 197 241 279
#     4   9  16  28  46  67  93 123 156 189 225 275
#     4   9  17  30  48  71 100 127 150 181 223 276
#     4   9  18  32  51  77 104 127 152 185 230 284
#     4  10  18  32  51  70  96 127 161 197 232 275
#     4   9  17  29  48  72  96 127 161 193 231 278
#     4   9  18  30  47  69  91 122 159 192 228 274
#
# _framework density 16.108194999999998
#
# number of rings (size 3 to 8) (size 9 to 14) (size 15 to 20)
#    0.000    2.500    0.000    3.000    0.000    6.000 
#    0.000    0.625    0.000    6.375    0.000    0.000 
#    0.000    6.000    0.000    0.000    0.000    0.000 
#
# Total GULP energy -356377.953884 kJ/mol
# GULP energy per Si atom -5568.405529 kJ/mol
# Density = 1.607153 g / cm^3
# Si number density = 16.108195 Si / 1000 Ang^3
#
#
#
# Elastic Constant Matrix: (Units=GPa)
#
#
# Indices 1 2 3 4 5 6 
#
# 1 94.6486 40.0706 44.5114 0.0000 0.0000 0.0000
# 2 40.0706 54.0367 37.6849 0.0000 0.0000 0.0000
# 3 44.5114 37.6849 94.5860 0.0000 0.0000 0.0000
# 4 0.0000 0.0000 0.0000 22.1564 0.0000 0.0000
# 5 0.0000 0.0000 0.0000 0.0000 22.1821 0.0000
# 6 0.0000 0.0000 0.0000 0.0000 0.0000 19.7554
#
#
#
# Elastic Compliance Matrix: (Units=1/GPa)
#
#
# Indices 1 2 3 4 5 6 
#
# 1 0.016416 -0.009396 -0.003981 0.000000 0.000000 0.000000
# 2 -0.009396 0.031005 -0.007931 0.000000 0.000000 0.000000
# 3 -0.003981 -0.007931 0.015606 0.000000 0.000000 0.000000
# 4 0.000000 0.000000 0.000000 0.045134 0.000000 0.000000
# 5 0.000000 0.000000 0.000000 0.000000 0.045081 0.000000
# 6 0.000000 0.000000 0.000000 0.000000 0.000000 0.050619
#
#
# Mechanical properties :
#
#
# Convention : Reuss Voigt Hill
#
# Bulk Modulus (GPa) = 48.99853 54.20055 51.59954
# Shear Modulus (GPa) = 19.74085 20.88572 20.31329
#
# Velocity S-wave (km/s) = 3.50453 3.60473 3.55498
# Velocity P-wave (km/s) = 6.84544 7.14467 6.99666
#
# Compressibility (1/GPa) = 0.02040877
#
# Stress axis : x y z
#
# Youngs Moduli (GPa) = 60.91654 32.25299 64.07830
#
# Poissons Ratio (x) = 0.30306 0.25513
# Poissons Ratio (y) = 0.57240 0.50821
# Poissons Ratio (z) = 0.24254 0.25580
#
# Static dielectric constant tensor:
#      x y z
#    x 1.566380 0.000000 0.000000 
#    y 0.000000 1.566590 0.000000 
#    z 0.000000 0.000000 1.526800 
# 
# From -- ./inp_files/38983.got.cif
#   From: 2010.05.17/outbox.cif.g08.bks.cpg/sg53_20_cif.got.tgz:38983.got - 2010.06.03 12:45:16.
