data_PCOD9414799
_publ_section_title
;
Structure prediction by ZEFSAII (Michael W. Deem and Ramdas Pophale) SiO2 
 PCOD9414799
Probable space group: P M N A
;
_chemical_formula_sum "Si O2"
_cell_formula_units_Z 64
_cell_length_a 15.471851
_cell_length_b 9.210632
_cell_length_c 22.253997
_cell_angle_alpha 90.000000
_cell_angle_beta 90.000000
_cell_angle_gamma 90.000000
_cell_volume 3171.317546
_symmetry_space_group_name_H-M "P M N A"
_symmetry_group_IT_number 53
_symmetry_cell_setting 'orthorhombic'
loop_
_space_group_symop_operation_xyz
x,y,z
1/2-x,-y,1/2+z
x,-y,-z
1/2-x,y,1/2-z
-x,-y,-z
1/2+x,y,1/2-z
-x,y,z
1/2+x,-y,1/2+z
loop_
_atom_site_type_symbol
_atom_site_label
_atom_site_fract_x
_atom_site_fract_y
_atom_site_fract_z
Si Si1 0.655502 0.739490 0.245147
Si Si2 0.592570 0.986813 0.786091
Si Si3 0.670168 0.230827 0.288022
Si Si4 0.899513 0.771506 0.601484
Si Si5 0.101846 0.667997 0.009552
Si Si6 0.289471 0.145576 0.416924
Si Si7 0.597863 0.451235 0.197349
Si Si8 0.601836 0.139796 0.623909
O O1 0.750000 0.674045 0.250000
O O2 0.602661 0.621141 0.208431
O O3 0.620978 0.794251 0.309759
O O4 0.662322 0.888539 0.208145
O O5 0.500000 0.062843 0.786677
O O6 0.599405 0.891011 0.726016
O O7 0.596678 0.876272 0.840568
O O8 0.750000 0.168651 0.250000
O O9 0.694056 0.239892 0.356517
O O10 0.646993 0.375897 0.252743
O O11 0.813706 0.835179 0.568447
O O12 0.877713 0.614685 0.632183
O O13 0.000000 0.769218 0.576545
O O14 0.110983 0.726337 0.077294
O O15 0.000000 0.676789 0.993196
O O16 0.128590 0.500000 0.000000
O O17 0.155618 0.779630 0.968987
O O18 0.331826 0.988567 0.398303
O O19 0.500000 0.400953 0.204464
O O20 0.500000 0.092885 0.620523
#
# Coordination Sequence:
#
# PCOD9414799 Si02
#       8
#     8   8   8   8   8   8   8   8
#     4  12  23  33  53  83 121 158 195 236 290 350
#     4  10  18  32  49  76 117 152 182 228 286 342
#     4  11  19  32  52  83 115 144 192 236 284 350
#     4   9  20  37  58  87 121 154 197 241 285 352
#     4  10  25  45  62  86 119 155 199 248 299 360
#     4  12  21  36  67  83 115 157 201 247 299 352
#     4  10  21  34  48  75 118 158 191 231 285 346
#     4  11  24  41  60  90 122 153 199 251 299 352
#
# _framework density 20.180886000000001
#
# number of rings (size 3 to 8) (size 9 to 14) (size 15 to 20)
#    0.000    1.375    3.750    4.500    1.750    2.500 
#    0.000    0.000    0.000    1.875    0.000    0.000 
#    0.000    0.000    0.000    0.000    0.000    0.000 
#
# Total GULP energy -356294.994060 kJ/mol
# GULP energy per Si atom -5567.109282 kJ/mol
# Density = 2.013495 g / cm^3
# Si number density = 20.180886 Si / 1000 Ang^3
#
#
#
# Elastic Constant Matrix: (Units=GPa)
#
#
# Indices 1 2 3 4 5 6 
#
# 1 96.4336 27.5053 9.3244 0.0000 0.0000 0.0000
# 2 27.5053 109.7834 10.5087 0.0000 0.0000 0.0000
# 3 9.3244 10.5087 33.8567 0.0000 0.0000 0.0000
# 4 0.0000 0.0000 0.0000 17.7879 0.0000 0.0000
# 5 0.0000 0.0000 0.0000 0.0000 22.7672 0.0000
# 6 0.0000 0.0000 0.0000 0.0000 0.0000 26.9023
#
#
#
# Elastic Compliance Matrix: (Units=1/GPa)
#
#
# Indices 1 2 3 4 5 6 
#
# 1 0.011341 -0.002620 -0.002310 0.000000 0.000000 0.000000
# 2 -0.002620 0.009993 -0.002380 0.000000 0.000000 0.000000
# 3 -0.002310 -0.002380 0.030911 0.000000 0.000000 0.000000
# 4 0.000000 0.000000 0.000000 0.056218 0.000000 0.000000
# 5 0.000000 0.000000 0.000000 0.000000 0.043923 0.000000
# 6 0.000000 0.000000 0.000000 0.000000 0.000000 0.037172
#
#
# Mechanical properties :
#
#
# Convention : Reuss Voigt Hill
#
# Bulk Modulus (GPa) = 26.57858 37.19450 31.88654
# Shear Modulus (GPa) = 23.07131 26.34048 24.70590
#
# Velocity S-wave (km/s) = 3.38483 3.61670 3.50269
# Velocity P-wave (km/s) = 5.33619 5.99260 5.67389
#
# Compressibility (1/GPa) = 0.03762428
#
# Stress axis : x y z
#
# Youngs Moduli (GPa) = 88.17930 100.06866 32.35070
#
# Poissons Ratio (x) = 0.26220 0.07473
# Poissons Ratio (y) = 0.23104 0.07700
# Poissons Ratio (z) = 0.20369 0.23818
#
# Static dielectric constant tensor:
#      x y z
#    x 1.874140 0.000000 0.000000 
#    y 0.000000 1.719020 0.000000 
#    z 0.000000 0.000000 1.701340 
# 
# From -- ./inp_files/35353.got.cif
#   From: 2010.05.17/outbox.cif.g08.bks.cpg/sg53_18_cif.got.tgz:35353.got - 2010.06.03 12:45:16.
