data_PCOD9414043
_publ_section_title
;
Structure prediction by ZEFSAII (Michael W. Deem and Ramdas Pophale) SiO2 
 PCOD9414043
Probable space group: P N N A
;
_chemical_formula_sum "Si O2"
_cell_formula_units_Z 56
_cell_length_a 21.000000
_cell_length_b 15.000000
_cell_length_c 9.000000
_cell_angle_alpha 90.000000
_cell_angle_beta 90.000000
_cell_angle_gamma 90.000000
_cell_volume 2835.000000
_symmetry_space_group_name_H-M "P N N A"
_symmetry_group_IT_number 52
_symmetry_cell_setting 'orthorhombic'
loop_
_space_group_symop_operation_xyz
x,y,z
1/2-x,-y,z
x,1/2-y,1/2-z
1/2-x,1/2+y,1/2-z
-x,-y,-z
1/2+x,y,-z
-x,1/2+y,1/2+z
1/2+x,1/2-y,1/2+z
loop_
_atom_site_type_symbol
_atom_site_label
_atom_site_fract_x
_atom_site_fract_y
_atom_site_fract_z
Si Si1 0.664285 0.250000 0.750000
Si Si2 0.236729 0.757432 0.511024
Si Si3 0.464003 0.250000 0.750000
Si Si4 0.767510 0.896397 0.238610
Si Si5 0.046628 0.903851 0.272456
Si Si6 0.930528 0.890001 0.652826
Si Si7 0.402884 0.234488 0.054032
Si Si8 0.089070 0.352955 0.802179
O O1 0.706647 0.244492 0.604752
O O2 0.622310 0.160381 0.751180
O O3 0.242933 0.844483 0.614644
O O4 0.241656 0.667206 0.607925
O O5 0.170055 0.759420 0.428177
O O6 0.506820 0.165526 0.700546
O O7 0.419979 0.277578 0.615407
O O8 0.843782 0.887630 0.244599
O O9 0.750000 0.000000 0.230571
O O10 0.082193 0.858462 0.134690
O O11 0.057544 0.821103 0.388182
O O12 0.971627 0.904804 0.238783
O O13 0.066088 0.003105 0.323350
O O14 0.915501 0.866931 0.480408
O O15 0.083817 0.250000 0.750000
#
# Coordination Sequence:
#
# PCOD9414043 Si02
#       8
#     4   8   4   8   8   8   8   8
#     4  11  22  44  66  92 128 177 216 270 328 387
#     4  11  24  44  65  93 132 176 219 266 326 388
#     4  11  22  40  64  94 132 169 210 274 338 381
#     4  11  25  43  68  97 126 177 221 265 319 389
#     4  11  24  42  67  98 126 174 217 268 337 391
#     4  11  24  39  67  97 128 167 221 273 328 400
#     4  11  24  42  63  94 135 169 214 276 329 390
#     4  12  20  44  70  94 131 169 223 270 324 399
#
# _framework density 19.753086
#
# number of rings (size 3 to 8) (size 9 to 14) (size 15 to 20)
#    0.000    0.857    5.714    2.143    2.000    4.000 
#    0.000    2.143    0.000    0.000    0.000    0.000 
#    0.000    0.000    0.000    0.000    0.000    0.000 
#
# Total GULP energy -312499.284092 kJ/mol
# GULP energy per Si atom -5580.344359 kJ/mol
# Density = 1.970813 g / cm^3
# Si number density = 19.753086 Si / 1000 Ang^3
#
#
#
# Elastic Constant Matrix: (Units=GPa)
#
#
# Indices 1 2 3 4 5 6 
#
# 1 99.0189 26.5521 6.7914 0.0000 0.0000 0.0000
# 2 26.5521 174.0840 35.7685 0.0000 0.0000 0.0000
# 3 6.7914 35.7685 73.6092 0.0000 0.0000 0.0000
# 4 0.0000 0.0000 0.0000 14.8073 0.0000 0.0000
# 5 0.0000 0.0000 0.0000 0.0000 81.2660 0.0000
# 6 0.0000 0.0000 0.0000 0.0000 0.0000 16.3518
#
#
#
# Elastic Compliance Matrix: (Units=1/GPa)
#
#
# Indices 1 2 3 4 5 6 
#
# 1 0.010533 -0.001563 -0.000212 0.000000 0.000000 0.000000
# 2 -0.001563 0.006613 -0.003069 0.000000 0.000000 0.000000
# 3 -0.000212 -0.003069 0.015096 0.000000 0.000000 0.000000
# 4 0.000000 0.000000 0.000000 0.067534 0.000000 0.000000
# 5 0.000000 0.000000 0.000000 0.000000 0.012305 0.000000
# 6 0.000000 0.000000 0.000000 0.000000 0.000000 0.061155
#
#
# Mechanical properties :
#
#
# Convention : Reuss Voigt Hill
#
# Bulk Modulus (GPa) = 44.33957 53.88178 49.11067
# Shear Modulus (GPa) = 26.25440 40.99169 33.62305
#
# Velocity S-wave (km/s) = 3.64968 4.56038 4.13021
# Velocity P-wave (km/s) = 6.34475 7.42067 6.90370
#
# Compressibility (1/GPa) = 0.02255322
#
# Stress axis : x y z
#
# Youngs Moduli (GPa) = 94.94212 151.20833 66.24119
#
# Poissons Ratio (x) = 0.23632 0.01407
# Poissons Ratio (y) = 0.14838 0.20332
# Poissons Ratio (z) = 0.02016 0.46412
#
# Static dielectric constant tensor:
#      x y z
#    x 1.721390 0.000000 0.000000 
#    y 0.000000 1.635150 0.000000 
#    z 0.000000 0.000000 1.734160 
# 
# From -- ./inp_files/13486.got.cif
#   From: 2010.05.17/outbox.ucp.g08.bks.cvg/sg52_7_cif.got.tgz:13486.got - 2010.06.11 16:30:12.
