data_PCOD9414049
_publ_section_title
;
Structure prediction by ZEFSAII (Michael W. Deem and Ramdas Pophale) SiO2 
 PCOD9414049
Probable space group: P N N A
;
_chemical_formula_sum "Si O2"
_cell_formula_units_Z 56
_cell_length_a 15.000000
_cell_length_b 21.000000
_cell_length_c 9.000000
_cell_angle_alpha 90.000000
_cell_angle_beta 90.000000
_cell_angle_gamma 90.000000
_cell_volume 2835.000000
_symmetry_space_group_name_H-M "P N N A"
_symmetry_group_IT_number 52
_symmetry_cell_setting 'orthorhombic'
loop_
_space_group_symop_operation_xyz
x,y,z
1/2-x,-y,z
x,1/2-y,1/2-z
1/2-x,1/2+y,1/2-z
-x,-y,-z
1/2+x,y,-z
-x,1/2+y,1/2+z
1/2+x,1/2-y,1/2+z
loop_
_atom_site_type_symbol
_atom_site_label
_atom_site_fract_x
_atom_site_fract_y
_atom_site_fract_z
Si Si1 0.600868 0.178014 0.255130
Si Si2 0.446072 0.172414 0.009588
Si Si3 0.797068 0.177297 0.739295
Si Si4 0.179065 0.444864 0.179456
Si Si5 0.976399 0.071881 0.247227
Si Si6 0.338260 0.960658 0.677339
Si Si7 0.549078 0.682239 0.007038
O O1 0.643205 0.250000 0.250000
O O2 0.532443 0.172949 0.117243
O O3 0.656541 0.112058 0.260693
O O4 0.537872 0.177756 0.401306
O O5 0.359407 0.167158 0.115873
O O6 0.445373 0.243950 0.938021
O O7 0.452122 0.112911 0.898969
O O8 0.761708 0.250000 0.750000
O O9 0.723443 0.123223 0.717845
O O10 0.864938 0.173488 0.599426
O O11 0.250000 0.500000 0.224361
O O12 0.080925 0.446944 0.251214
O O13 0.164130 0.453060 0.001956
O O14 0.957356 0.124398 0.377112
O O15 0.919525 0.007368 0.274672
O O16 0.250000 0.000000 0.721611
#
# Coordination Sequence:
#
# PCOD9414049 Si02
#       7
#     8   8   8   8   8   8   8
#     4   9  19  40  64  87 123 172 211 255 320 393
#     4   9  21  38  63  96 128 167 209 264 336 379
#     4   9  20  42  66  91 128 173 217 264 320 391
#     4  11  24  40  64  93 123 169 220 259 313 395
#     4  12  23  39  66  97 131 166 213 282 316 385
#     4  11  24  42  64  95 125 169 221 270 321 379
#     4   9  17  37  68  91 124 169 218 261 311 384
#
# _framework density 19.753086
#
# number of rings (size 3 to 8) (size 9 to 14) (size 15 to 20)
#    0.000    2.000    1.429    4.286    4.000    1.714 
#    2.571    2.857    0.000    0.000    0.000    0.000 
#    0.000    0.000    0.000    0.000    0.000    0.000 
#
# Total GULP energy -312718.699313 kJ/mol
# GULP energy per Si atom -5584.262488 kJ/mol
# Density = 1.970813 g / cm^3
# Si number density = 19.753086 Si / 1000 Ang^3
#
#
#
# Elastic Constant Matrix: (Units=GPa)
#
#
# Indices 1 2 3 4 5 6 
#
# 1 118.2129 77.9271 11.9610 0.0000 0.0000 0.0000
# 2 77.9271 194.3414 41.4450 0.0000 0.0000 0.0000
# 3 11.9610 41.4450 65.2866 0.0000 0.0000 0.0000
# 4 0.0000 0.0000 0.0000 38.5074 0.0000 0.0000
# 5 0.0000 0.0000 0.0000 0.0000 9.5625 0.0000
# 6 0.0000 0.0000 0.0000 0.0000 0.0000 49.8747
#
#
#
# Elastic Compliance Matrix: (Units=1/GPa)
#
#
# Indices 1 2 3 4 5 6 
#
# 1 0.011550 -0.004834 0.000953 0.000000 0.000000 0.000000
# 2 -0.004834 0.007975 -0.004177 0.000000 0.000000 0.000000
# 3 0.000953 -0.004177 0.017794 0.000000 0.000000 0.000000
# 4 0.000000 0.000000 0.000000 0.025969 0.000000 0.000000
# 5 0.000000 0.000000 0.000000 0.000000 0.104575 0.000000
# 6 0.000000 0.000000 0.000000 0.000000 0.000000 0.020050
#
#
# Mechanical properties :
#
#
# Convention : Reuss Voigt Hill
#
# Bulk Modulus (GPa) = 47.16533 71.16747 59.16640
# Shear Modulus (GPa) = 23.68577 36.02278 29.85427
#
# Velocity S-wave (km/s) = 3.46655 4.27506 3.89186
# Velocity P-wave (km/s) = 6.32075 7.77656 7.08614
#
# Compressibility (1/GPa) = 0.02120201
#
# Stress axis : x y z
#
# Youngs Moduli (GPa) = 86.58134 125.39372 56.19865
#
# Poissons Ratio (x) = 0.60622 -0.05356
# Poissons Ratio (y) = 0.41858 0.23473
# Poissons Ratio (z) = -0.08251 0.52375
#
# Static dielectric constant tensor:
#      x y z
#    x 1.687330 0.000000 0.000000 
#    y 0.000000 1.691190 0.000000 
#    z 0.000000 0.000000 1.706390 
# 
# From -- ./inp_files/10780.got.cif
#   From: 2010.05.17/outbox.ucp.g08.bks.cvg/sg52_6_cif.got.tgz:10780.got - 2010.06.11 16:30:12.
