data_PCOD9414386
_publ_section_title
;
Structure prediction by ZEFSAII (Michael W. Deem and Ramdas Pophale) SiO2 
 PCOD9414386
Probable space group: P M N A
;
_chemical_formula_sum "Si O2"
_cell_formula_units_Z 48
_cell_length_a 14.139387
_cell_length_b 12.559745
_cell_length_c 11.308445
_cell_angle_alpha 90.000000
_cell_angle_beta 90.000000
_cell_angle_gamma 90.000000
_cell_volume 2008.233899
_symmetry_space_group_name_H-M "P M N A"
_symmetry_group_IT_number 53
_symmetry_cell_setting 'orthorhombic'
loop_
_space_group_symop_operation_xyz
x,y,z
1/2-x,-y,1/2+z
x,-y,-z
1/2-x,y,1/2-z
-x,-y,-z
1/2+x,y,1/2-z
-x,y,z
1/2+x,-y,1/2+z
loop_
_atom_site_type_symbol
_atom_site_label
_atom_site_fract_x
_atom_site_fract_y
_atom_site_fract_z
Si Si1 0.395625 0.660718 0.554518
Si Si2 0.609918 0.491375 0.765753
Si Si3 0.391335 0.179850 0.236555
Si Si4 0.892055 0.729893 0.320834
Si Si5 0.114860 0.037889 0.630645
Si Si6 0.188035 0.343634 0.444585
O O1 0.500000 0.653945 0.495937
O O2 0.390208 0.563807 0.649112
O O3 0.393734 0.768010 0.634497
O O4 0.292067 0.657731 0.499190
O O5 0.500000 0.489396 0.804200
O O6 0.642296 0.370886 0.746058
O O7 0.667887 0.550942 0.868261
O O8 0.500000 0.191646 0.191080
O O9 0.325827 0.250032 0.151753
O O10 0.366001 0.056765 0.222728
O O11 0.847505 0.846880 0.330144
O O12 0.885552 0.681898 0.452991
O O13 0.000000 0.747251 0.283101
O O14 0.000000 0.048041 0.621180
O O15 0.147403 0.000000 0.500000
#
# Coordination Sequence:
#
# PCOD9414386 Si02
#       6
#     8   8   8   8   8   8
#     4   9  19  32  46  64  87 122 163 198 225 263
#     4   9  17  28  43  67  96 118 143 181 231 286
#     4   9  15  25  42  65  92 117 142 175 223 275
#     4  10  18  27  44  74 102 121 142 180 238 292
#     4   9  15  24  39  64  98 121 132 160 217 283
#     4  11  17  26  45  66  92 121 151 191 234 273
#
# _framework density 23.901596999999999
#
# number of rings (size 3 to 8) (size 9 to 14) (size 15 to 20)
#    0.000    2.500    1.667    5.000    0.000    1.333 
#    0.000    0.000    0.000    6.000    0.000    2.333 
#    0.000    0.000    0.000    0.000    0.000    0.000 
#
# Total GULP energy -268022.327911 kJ/mol
# GULP energy per Si atom -5583.798498 kJ/mol
# Density = 2.384720 g / cm^3
# Si number density = 23.901597 Si / 1000 Ang^3
#
#
#
# Elastic Constant Matrix: (Units=GPa)
#
#
# Indices 1 2 3 4 5 6 
#
# 1 131.0613 8.1621 14.8086 0.0000 0.0000 0.0000
# 2 8.1621 219.6843 24.6173 0.0000 0.0000 0.0000
# 3 14.8086 24.6173 48.3764 0.0000 0.0000 0.0000
# 4 0.0000 0.0000 0.0000 4.3978 0.0000 0.0000
# 5 0.0000 0.0000 0.0000 0.0000 17.7447 0.0000
# 6 0.0000 0.0000 0.0000 0.0000 0.0000 -19.0798
#
#
#
# Elastic Compliance Matrix: (Units=1/GPa)
#
#
# Indices 1 2 3 4 5 6 
#
# 1 0.007903 -0.000024 -0.002407 0.000000 0.000000 0.000000
# 2 -0.000024 0.004827 -0.002449 0.000000 0.000000 0.000000
# 3 -0.002407 -0.002449 0.022654 0.000000 0.000000 0.000000
# 4 0.000000 0.000000 0.000000 0.227387 0.000000 0.000000
# 5 0.000000 0.000000 0.000000 0.000000 0.056355 0.000000
# 6 0.000000 0.000000 0.000000 0.000000 0.000000 -0.052412
#
#
# Mechanical properties :
#
#
# Convention : Reuss Voigt Hill
#
# Bulk Modulus (GPa) = 39.02481 54.92198 46.97340
# Shear Modulus (GPa) = 17.54275 24.04815 20.79545
#
# Velocity S-wave (km/s) = 2.71210 3.17540 2.95285
# Velocity P-wave (km/s) = 5.11567 6.03924 5.59654
#
# Compressibility (1/GPa) = 0.02562472
#
# Stress axis : x y z
#
# Youngs Moduli (GPa) = 126.52632 207.15415 44.14153
#
# Poissons Ratio (x) = 0.00495 0.10626
# Poissons Ratio (y) = 0.00302 0.10811
# Poissons Ratio (z) = 0.30457 0.50735
#
# Static dielectric constant tensor:
#      x y z
#    x 1.954630 0.000000 0.000000 
#    y 0.000000 1.931250 0.000000 
#    z 0.000000 0.000000 1.889520 
# 
# From -- ./inp_files/22670.got.cif
#   From: 2010.05.17/outbox.cif.g08.bks.cpg/sg53_12_cif.got.tgz:22670.got - 2010.06.03 12:45:16.
