data_PCOD9414558
_publ_section_title
;
Structure prediction by ZEFSAII (Michael W. Deem and Ramdas Pophale) SiO2 
 PCOD9414558
Probable space group: P M N A
;
_chemical_formula_sum "Si O2"
_cell_formula_units_Z 56
_cell_length_a 7.537809
_cell_length_b 13.895824
_cell_length_c 29.712155
_cell_angle_alpha 90.000000
_cell_angle_beta 90.000000
_cell_angle_gamma 90.000000
_cell_volume 3112.171960
_symmetry_space_group_name_H-M "P M N A"
_symmetry_group_IT_number 53
_symmetry_cell_setting 'orthorhombic'
loop_
_space_group_symop_operation_xyz
x,y,z
1/2-x,-y,1/2+z
x,-y,-z
1/2-x,y,1/2-z
-x,-y,-z
1/2+x,y,1/2-z
-x,y,z
1/2+x,-y,1/2+z
loop_
_atom_site_type_symbol
_atom_site_label
_atom_site_fract_x
_atom_site_fract_y
_atom_site_fract_z
Si Si1 0.785125 0.701908 0.028415
Si Si2 0.712991 0.493204 0.300891
Si Si3 0.713072 0.727384 0.699205
Si Si4 0.795556 0.808302 0.890552
Si Si5 0.717450 0.102341 0.480651
Si Si6 0.795716 0.411569 0.889266
Si Si7 0.708215 0.607939 0.936424
O O1 0.717384 0.667341 0.076872
O O2 0.000000 0.701705 0.029626
O O3 0.727843 0.807152 0.011511
O O4 0.731985 0.626894 0.989397
O O5 0.750000 0.525074 0.250000
O O6 0.500000 0.488478 0.306262
O O7 0.780012 0.382929 0.305569
O O8 0.783059 0.560708 0.340797
O O9 0.750000 0.759317 0.750000
O O10 0.500000 0.723111 0.693938
O O11 0.783268 0.794308 0.659063
O O12 0.719056 0.875440 0.929821
O O13 0.790199 0.701082 0.911979
O O14 0.000000 0.838507 0.885033
O O15 0.500000 0.103632 0.479728
O O16 0.773240 0.000000 0.500000
O O17 0.791797 0.510973 0.917560
O O18 0.000000 0.383133 0.881310
O O19 0.500000 0.605252 0.926137
#
# Coordination Sequence:
#
# PCOD9414558 Si02
#       7
#     8   8   8   8   8   8   8
#     4   9  18  30  45  61  82 113 143 171 209 256
#     4   9  17  28  41  57  80 109 144 178 204 240
#     4   9  16  26  40  58  82 111 142 174 205 243
#     4   9  16  29  45  61  85 117 145 170 211 259
#     4   8  14  26  46  69  86 101 133 180 218 249
#     4  10  18  30  44  58  81 116 149 171 201 248
#     4  11  20  27  39  61  89 115 142 175 207 239
#
# _framework density 17.993863000000001
#
# number of rings (size 3 to 8) (size 9 to 14) (size 15 to 20)
#    0.000    2.714    1.429    2.571    0.000    3.429 
#    0.000    0.000    0.000    6.857    0.000    1.000 
#    0.000    0.000    0.000    0.000    0.000    0.000 
#
# Total GULP energy -312130.190846 kJ/mol
# GULP energy per Si atom -5573.753408 kJ/mol
# Density = 1.795291 g / cm^3
# Si number density = 17.993863 Si / 1000 Ang^3
#
#
#
# Elastic Constant Matrix: (Units=GPa)
#
#
# Indices 1 2 3 4 5 6 
#
# 1 52.7124 -3.4149 -0.1428 0.0000 0.0000 0.0000
# 2 -3.4149 61.2822 66.6257 0.0000 0.0000 0.0000
# 3 -0.1428 66.6257 189.1532 0.0000 0.0000 0.0000
# 4 0.0000 0.0000 0.0000 21.9559 0.0000 0.0000
# 5 0.0000 0.0000 0.0000 0.0000 14.8225 0.0000
# 6 0.0000 0.0000 0.0000 0.0000 0.0000 -9.7429
#
#
#
# Elastic Compliance Matrix: (Units=1/GPa)
#
#
# Indices 1 2 3 4 5 6 
#
# 1 0.019079 0.001698 -0.000584 0.000000 0.000000 0.000000
# 2 0.001698 0.026596 -0.009367 0.000000 0.000000 0.000000
# 3 -0.000584 -0.009367 0.008586 0.000000 0.000000 0.000000
# 4 0.000000 0.000000 0.000000 0.045546 0.000000 0.000000
# 5 0.000000 0.000000 0.000000 0.000000 0.067465 0.000000
# 6 0.000000 0.000000 0.000000 0.000000 0.000000 -0.102638
#
#
# Mechanical properties :
#
#
# Convention : Reuss Voigt Hill
#
# Bulk Modulus (GPa) = 26.48617 47.69819 37.09218
# Shear Modulus (GPa) = 53.34846 21.41241 37.38044
#
# Velocity S-wave (km/s) = 5.45092 3.45336 4.56279
# Velocity P-wave (km/s) = 7.37348 6.51663 6.95826
#
# Compressibility (1/GPa) = 0.03775556
#
# Stress axis : x y z
#
# Youngs Moduli (GPa) = 52.41289 37.59978 116.47538
#
# Poissons Ratio (x) = -0.06383 0.06797
# Poissons Ratio (y) = -0.08898 1.09098
# Poissons Ratio (z) = 0.03059 0.35218
#
# Static dielectric constant tensor:
#      x y z
#    x 1.709700 0.000000 0.000000 
#    y 0.000000 1.582140 0.000000 
#    z 0.000000 0.000000 1.667310 
# 
# From -- ./inp_files/38349.got.cif
#   From: 2010.05.17/outbox.cif.g08.bks.cpg/sg53_20_cif.got.tgz:38349.got - 2010.06.03 12:45:16.
