data_PCOD9414820
_publ_section_title
;
Structure prediction by ZEFSAII (Michael W. Deem and Ramdas Pophale) SiO2 
 PCOD9414820
Probable space group: P M N A
;
_chemical_formula_sum "Si O2"
_cell_formula_units_Z 64
_cell_length_a 8.826488
_cell_length_b 20.643003
_cell_length_c 19.788142
_cell_angle_alpha 90.000000
_cell_angle_beta 90.000000
_cell_angle_gamma 90.000000
_cell_volume 3605.502732
_symmetry_space_group_name_H-M "P M N A"
_symmetry_group_IT_number 53
_symmetry_cell_setting 'orthorhombic'
loop_
_space_group_symop_operation_xyz
x,y,z
1/2-x,-y,1/2+z
x,-y,-z
1/2-x,y,1/2-z
-x,-y,-z
1/2+x,y,1/2-z
-x,y,z
1/2+x,-y,1/2+z
loop_
_atom_site_type_symbol
_atom_site_label
_atom_site_fract_x
_atom_site_fract_y
_atom_site_fract_z
Si Si1 0.817217 0.101591 0.324769
Si Si2 0.319712 0.616530 0.392861
Si Si3 0.180759 0.264177 0.678824
Si Si4 0.682101 0.794767 0.576243
Si Si5 0.818320 0.647379 0.951110
Si Si6 0.683021 0.160069 0.934415
Si Si7 0.674698 0.515759 0.919517
Si Si8 0.316281 0.985634 0.076507
O O1 0.750000 0.097384 0.250000
O O2 0.757185 0.165122 0.363413
O O3 0.000000 0.102591 0.322312
O O4 0.766860 0.039780 0.370246
O O5 0.500000 0.620870 0.386309
O O6 0.240605 0.665224 0.341648
O O7 0.278235 0.639868 0.469257
O O8 0.266147 0.542594 0.385513
O O9 0.250000 0.244101 0.750000
O O10 0.225927 0.214470 0.619673
O O11 0.000000 0.264707 0.682992
O O12 0.500000 0.799162 0.579873
O O13 0.724513 0.718638 0.574398
O O14 0.740032 0.825382 0.505930
O O15 0.742978 0.587306 0.912524
O O16 0.000000 0.640785 0.946805
O O17 0.500000 0.161630 0.943909
O O18 0.724601 0.088504 0.908294
O O19 0.500000 0.514004 0.898818
O O20 0.681928 0.500000 0.000000
O O21 0.500000 0.989107 0.075541
O O22 0.264144 0.000000 0.000000
#
# Coordination Sequence:
#
# PCOD9414820 Si02
#       8
#     8   8   8   8   8   8   8   8
#     4  11  23  40  61  85 116 151 190 233 282 341
#     4  10  18  32  52  74 107 146 184 228 282 334
#     4  11  23  36  53  77 110 149 194 238 287 344
#     4  11  21  35  57  86 117 149 188 234 284 338
#     4   9  18  31  50  78 110 144 180 227 282 332
#     4  10  20  36  58  83 110 148 192 237 286 340
#     4   9  17  28  46  76 109 139 178 226 273 327
#     4   9  17  34  60  85 111 147 188 229 279 336
#
# _framework density 17.750646
#
# number of rings (size 3 to 8) (size 9 to 14) (size 15 to 20)
#    0.000    2.000    2.500    1.875    0.000    4.000 
#    0.000    1.875    0.000    0.750    0.000    1.750 
#    0.000    0.000    0.000    0.000    0.000    0.000 
#
# Total GULP energy -357170.738672 kJ/mol
# GULP energy per Si atom -5580.792792 kJ/mol
# Density = 1.771024 g / cm^3
# Si number density = 17.750646 Si / 1000 Ang^3
#
#
#
# Elastic Constant Matrix: (Units=GPa)
#
#
# Indices 1 2 3 4 5 6 
#
# 1 38.1483 35.5927 33.1299 0.0000 0.0000 0.0000
# 2 35.5927 142.0283 53.6022 0.0000 0.0000 0.0000
# 3 33.1299 53.6022 101.7936 0.0000 0.0000 0.0000
# 4 0.0000 0.0000 0.0000 17.0149 0.0000 0.0000
# 5 0.0000 0.0000 0.0000 0.0000 27.0299 0.0000
# 6 0.0000 0.0000 0.0000 0.0000 0.0000 66.6988
#
#
#
# Elastic Compliance Matrix: (Units=1/GPa)
#
#
# Indices 1 2 3 4 5 6 
#
# 1 0.040863 -0.006516 -0.009868 0.000000 0.000000 0.000000
# 2 -0.006516 0.009826 -0.003054 0.000000 0.000000 0.000000
# 3 -0.009868 -0.003054 0.014643 0.000000 0.000000 0.000000
# 4 0.000000 0.000000 0.000000 0.058772 0.000000 0.000000
# 5 0.000000 0.000000 0.000000 0.000000 0.036996 0.000000
# 6 0.000000 0.000000 0.000000 0.000000 0.000000 0.014993
#
#
# Mechanical properties :
#
#
# Convention : Reuss Voigt Hill
#
# Bulk Modulus (GPa) = 37.79692 58.51330 48.15511
# Shear Modulus (GPa) = 22.34255 32.79174 27.56715
#
# Velocity S-wave (km/s) = 3.55165 4.30275 3.94512
# Velocity P-wave (km/s) = 6.17725 7.59740 6.92383
#
# Compressibility (1/GPa) = 0.02645718
#
# Stress axis : x y z
#
# Youngs Moduli (GPa) = 24.47199 101.76847 68.29018
#
# Poissons Ratio (x) = 0.66314 0.67389
# Poissons Ratio (y) = 0.15946 0.20853
# Poissons Ratio (z) = 0.24149 0.31075
#
# Static dielectric constant tensor:
#      x y z
#    x 1.595590 0.000000 0.000000 
#    y 0.000000 1.612730 0.000000 
#    z 0.000000 0.000000 1.585680 
# 
# From -- ./inp_files/26918.got.cif
#   From: 2010.05.17/outbox.cif.g08.bks.cpg/sg53_14_cif.got.tgz:26918.got - 2010.06.03 12:45:16.
