data_PCOD9414870
_publ_section_title
;
Structure prediction by ZEFSAII (Michael W. Deem and Ramdas Pophale) SiO2 
 PCOD9414870
Probable space group: P M N A
;
_chemical_formula_sum "Si O2"
_cell_formula_units_Z 64
_cell_length_a 15.733629
_cell_length_b 24.442028
_cell_length_c 8.382332
_cell_angle_alpha 90.000000
_cell_angle_beta 90.000000
_cell_angle_gamma 90.000000
_cell_volume 3223.524687
_symmetry_space_group_name_H-M "P M N A"
_symmetry_group_IT_number 53
_symmetry_cell_setting 'orthorhombic'
loop_
_space_group_symop_operation_xyz
x,y,z
1/2-x,-y,1/2+z
x,-y,-z
1/2-x,y,1/2-z
-x,-y,-z
1/2+x,y,1/2-z
-x,y,z
1/2+x,-y,1/2+z
loop_
_atom_site_type_symbol
_atom_site_label
_atom_site_fract_x
_atom_site_fract_y
_atom_site_fract_z
Si Si1 0.404523 0.628972 0.525815
Si Si2 0.754580 0.439438 0.561306
Si Si3 0.656830 0.264619 0.667495
Si Si4 0.096816 0.875459 0.470123
Si Si5 0.904798 0.752093 0.510834
Si Si6 0.335395 0.646990 0.850247
Si Si7 0.261782 0.060843 0.557835
Si Si8 0.098506 0.852087 0.087505
O O1 0.500000 0.620084 0.466322
O O2 0.338697 0.580176 0.494730
O O3 0.365079 0.682759 0.438771
O O4 0.405666 0.636844 0.716657
O O5 0.773214 0.500000 0.500000
O O6 0.750000 0.437736 0.750000
O O7 0.823735 0.396691 0.491307
O O8 0.750000 0.266508 0.750000
O O9 0.640458 0.208079 0.572917
O O10 0.596165 0.259791 0.821534
O O11 0.117491 0.815225 0.537724
O O12 0.171797 0.917129 0.509767
O O13 0.096522 0.865850 0.277889
O O14 0.000000 0.890895 0.515501
O O15 0.843429 0.707934 0.585784
O O16 0.000000 0.743372 0.572015
O O17 0.250000 0.641547 0.750000
O O18 0.250000 0.060789 0.750000
O O19 0.338160 0.102574 0.516284
O O20 0.280046 0.000000 0.500000
O O21 0.000000 0.852499 0.032103
#
# Coordination Sequence:
#
# PCOD9414870 Si02
#       8
#     8   8   8   8   8   8   8   8
#     4  11  22  36  56  86 123 154 182 224 283 345
#     4  11  23  42  64  83 108 148 198 244 284 333
#     4  11  19  32  56  85 113 144 186 230 276 335
#     4   8  16  31  52  76 101 134 176 223 274 331
#     4  10  18  32  55  81 107 137 180 227 271 326
#     4  10  21  36  55  82 115 150 183 221 278 340
#     4  10  20  34  51  72  99 135 180 228 277 332
#     4   9  17  31  52  77 106 140 180 226 278 337
#
# _framework density 19.854044999999999
#
# number of rings (size 3 to 8) (size 9 to 14) (size 15 to 20)
#    0.000    2.000    0.000    7.875    0.000    0.750 
#    0.000    2.500    0.000    4.125    0.000    0.000 
#    0.000    0.000    0.000    0.000    0.000    0.000 
#
# Total GULP energy -357034.451223 kJ/mol
# GULP energy per Si atom -5578.663300 kJ/mol
# Density = 1.980886 g / cm^3
# Si number density = 19.854045 Si / 1000 Ang^3
#
#
#
# Elastic Constant Matrix: (Units=GPa)
#
#
# Indices 1 2 3 4 5 6 
#
# 1 103.6933 27.2222 3.9178 0.0000 0.0000 0.0000
# 2 27.2222 66.9733 10.1699 0.0000 0.0000 0.0000
# 3 3.9178 10.1699 47.0359 0.0000 0.0000 0.0000
# 4 0.0000 0.0000 0.0000 30.9241 0.0000 0.0000
# 5 0.0000 0.0000 0.0000 0.0000 8.3692 0.0000
# 6 0.0000 0.0000 0.0000 0.0000 0.0000 0.3516
#
#
#
# Elastic Compliance Matrix: (Units=1/GPa)
#
#
# Indices 1 2 3 4 5 6 
#
# 1 0.010796 -0.004396 0.000051 0.000000 0.000000 0.000000
# 2 -0.004396 0.017228 -0.003359 0.000000 0.000000 0.000000
# 3 0.000051 -0.003359 0.021982 0.000000 0.000000 0.000000
# 4 0.000000 0.000000 0.000000 0.032337 0.000000 0.000000
# 5 0.000000 0.000000 0.000000 0.000000 0.119485 0.000000
# 6 0.000000 0.000000 0.000000 0.000000 0.000000 2.843971
#
#
# Mechanical properties :
#
#
# Convention : Reuss Voigt Hill
#
# Bulk Modulus (GPa) = 28.90228 33.36914 31.13571
# Shear Modulus (GPa) = 1.62721 19.68849 10.65785
#
# Velocity S-wave (km/s) = 0.90629 3.15248 2.31943
# Velocity P-wave (km/s) = 3.96032 5.48585 4.78428
#
# Compressibility (1/GPa) = 0.03459935
#
# Stress axis : x y z
#
# Youngs Moduli (GPa) = 92.62746 58.04450 45.49106
#
# Poissons Ratio (x) = 0.25516 -0.00233
# Poissons Ratio (y) = 0.40718 0.15280
# Poissons Ratio (z) = -0.00475 0.19496
#
# Static dielectric constant tensor:
#      x y z
#    x 1.730050 0.000000 0.000000 
#    y 0.000000 1.681610 0.000000 
#    z 0.000000 0.000000 1.716350 
# 
# From -- ./inp_files/8959.got.cif
#   From: 2010.05.17/outbox.cif.g08.bks.cpg/sg53_5_cif.got.tgz:8959.got - 2010.06.03 12:45:16.
