data_PCOD9414146
_publ_section_title
;
Structure prediction by ZEFSAII (Michael W. Deem and Ramdas Pophale) SiO2 
 PCOD9414146
Probable space group: P M N A
;
_chemical_formula_sum "Si O2"
_cell_formula_units_Z 64
_cell_length_a 9.104884
_cell_length_b 20.779240
_cell_length_c 23.099123
_cell_angle_alpha 90.000000
_cell_angle_beta 90.000000
_cell_angle_gamma 90.000000
_cell_volume 4370.182441
_symmetry_space_group_name_H-M "P M N A"
_symmetry_group_IT_number 53
_symmetry_cell_setting 'orthorhombic'
loop_
_space_group_symop_operation_xyz
x,y,z
1/2-x,-y,1/2+z
x,-y,-z
1/2-x,y,1/2-z
-x,-y,-z
1/2+x,y,1/2-z
-x,y,z
1/2+x,-y,1/2+z
loop_
_atom_site_type_symbol
_atom_site_label
_atom_site_fract_x
_atom_site_fract_y
_atom_site_fract_z
Si Si1 0.826494 0.350415 0.969177
Si Si2 0.824334 0.784430 0.477506
Si Si3 0.169470 0.523572 0.432921
Si Si4 0.826904 0.088554 0.947975
Si Si5 0.671959 0.951269 0.583668
Si Si6 0.826360 0.397231 0.102262
Si Si7 0.322962 0.703903 0.812613
Si Si8 0.175261 0.175442 0.390620
O O1 0.748322 0.407510 0.933858
O O2 0.000000 0.348640 0.957245
O O3 0.751851 0.281680 0.959181
O O4 0.808403 0.368258 0.037383
O O5 0.764307 0.846211 0.442756
O O6 0.785677 0.797443 0.545361
O O7 0.000000 0.779654 0.473362
O O8 0.169148 0.500000 0.500000
O O9 0.258812 0.468758 0.399215
O O10 0.000000 0.527533 0.414136
O O11 0.000000 0.099472 0.936289
O O12 0.776043 0.025310 0.912734
O O13 0.816295 0.068046 0.015693
O O14 0.500000 0.950390 0.598360
O O15 0.754221 0.894647 0.616893
O O16 0.739775 0.352333 0.146666
O O17 0.000000 0.398497 0.115022
O O18 0.250000 0.699951 0.750000
O O19 0.500000 0.699971 0.809450
O O20 0.282553 0.771508 0.843479
O O21 0.000000 0.168531 0.389921
#
# Coordination Sequence:
#
# PCOD9414146 Si02
#       8
#     8   8   8   8   8   8   8   8
#     4  10  18  27  41  61  84 110 141 174 207 251
#     4  10  17  25  38  57  81 110 140 171 207 247
#     4   9  17  28  43  61  82 107 135 170 209 250
#     4   8  14  24  35  53  77 103 133 167 200 236
#     4   8  14  24  39  54  73 100 134 168 201 242
#     4  10  19  31  46  62  80 106 139 175 215 257
#     4  11  22  35  47  62  83 108 142 183 223 260
#     4   9  18  29  41  56  77 103 135 175 215 251
#
# _framework density 14.644698
#
# number of rings (size 3 to 8) (size 9 to 14) (size 15 to 20)
#    0.000    2.625    1.250    2.625    0.000    4.500 
#    0.000    2.500    0.000    0.000    0.000    0.000 
#    0.000    0.000    0.000    1.125    0.000   17.750 
#
# Total GULP energy -356482.533173 kJ/mol
# GULP energy per Si atom -5570.039581 kJ/mol
# Density = 1.461137 g / cm^3
# Si number density = 14.644698 Si / 1000 Ang^3
#
#
#
# Elastic Constant Matrix: (Units=GPa)
#
#
# Indices 1 2 3 4 5 6 
#
# 1 71.5862 71.9286 23.8364 0.0000 0.0000 0.0000
# 2 71.9286 160.1726 31.4711 0.0000 0.0000 0.0000
# 3 23.8364 31.4711 31.7926 0.0000 0.0000 0.0000
# 4 0.0000 0.0000 0.0000 8.0371 0.0000 0.0000
# 5 0.0000 0.0000 0.0000 0.0000 12.2665 0.0000
# 6 0.0000 0.0000 0.0000 0.0000 0.0000 31.7596
#
#
#
# Elastic Compliance Matrix: (Units=1/GPa)
#
#
# Indices 1 2 3 4 5 6 
#
# 1 0.028083 -0.010521 -0.010641 0.000000 0.000000 0.000000
# 2 -0.010521 0.011692 -0.003686 0.000000 0.000000 0.000000
# 3 -0.010641 -0.003686 0.043081 0.000000 0.000000 0.000000
# 4 0.000000 0.000000 0.000000 0.124423 0.000000 0.000000
# 5 0.000000 0.000000 0.000000 0.000000 0.081523 0.000000
# 6 0.000000 0.000000 0.000000 0.000000 0.000000 0.031487
#
#
# Mechanical properties :
#
#
# Convention : Reuss Voigt Hill
#
# Bulk Modulus (GPa) = 30.15631 57.55818 43.85725
# Shear Modulus (GPa) = 13.12208 19.50034 16.31121
#
# Velocity S-wave (km/s) = 2.99662 3.65302 3.34098
# Velocity P-wave (km/s) = 5.71049 7.56182 6.70040
#
# Compressibility (1/GPa) = 0.03316055
#
# Stress axis : x y z
#
# Youngs Moduli (GPa) = 35.60844 85.52907 23.21226
#
# Poissons Ratio (x) = 0.89981 0.24701
# Poissons Ratio (y) = 0.37462 0.08556
# Poissons Ratio (z) = 0.37892 0.31526
#
# Static dielectric constant tensor:
#      x y z
#    x 1.485560 0.000000 0.000000 
#    y 0.000000 1.496700 0.000000 
#    z 0.000000 0.000000 1.452460 
# 
# From -- ./inp_files/31414.got.cif
#   From: 2010.05.17/outbox.cif.g08.bks.cpg/sg53_16_cif.got.tgz:31414.got - 2010.06.03 12:45:16.
