data_PCOD9414261
_publ_section_title
;
Structure prediction by ZEFSAII (Michael W. Deem and Ramdas Pophale) SiO2 
 PCOD9414261
Probable space group: P M N A
;
_chemical_formula_sum "Si O2"
_cell_formula_units_Z 64
_cell_length_a 14.372596
_cell_length_b 13.890283
_cell_length_c 18.837006
_cell_angle_alpha 90.000000
_cell_angle_beta 90.000000
_cell_angle_gamma 90.000000
_cell_volume 3760.609063
_symmetry_space_group_name_H-M "P M N A"
_symmetry_group_IT_number 53
_symmetry_cell_setting 'orthorhombic'
loop_
_space_group_symop_operation_xyz
x,y,z
1/2-x,-y,1/2+z
x,-y,-z
1/2-x,y,1/2-z
-x,-y,-z
1/2+x,y,1/2-z
-x,y,z
1/2+x,-y,1/2+z
loop_
_atom_site_type_symbol
_atom_site_label
_atom_site_fract_x
_atom_site_fract_y
_atom_site_fract_z
Si Si1 0.212681 0.932479 0.067949
Si Si2 0.895821 0.526994 0.083461
Si Si3 0.648483 0.787277 0.728918
Si Si4 0.602862 0.007234 0.296220
Si Si5 0.793329 0.343567 0.102982
Si Si6 0.609759 0.991026 0.872655
Si Si7 0.604527 0.235557 0.113688
Si Si8 0.109905 0.735183 0.036560
O O1 0.168842 0.969662 0.142040
O O2 0.323038 0.941864 0.081701
O O3 0.171933 0.826806 0.055593
O O4 0.188849 0.000000 0.000000
O O5 0.814290 0.456921 0.109577
O O6 0.877444 0.641045 0.086626
O O7 0.000000 0.506568 0.113208
O O8 0.901932 0.500000 0.000000
O O9 0.750000 0.827321 0.750000
O O10 0.669805 0.703690 0.674783
O O11 0.601827 0.752927 0.800915
O O12 0.598437 0.877543 0.694843
O O13 0.500000 0.964839 0.306580
O O14 0.626919 0.994883 0.212367
O O15 0.688336 0.304965 0.089329
O O16 0.856883 0.301112 0.040346
O O17 0.500000 0.006878 0.884176
O O18 0.629003 0.878653 0.893468
O O19 0.500000 0.252227 0.085222
O O20 0.000000 0.758702 0.036152
#
# Coordination Sequence:
#
# PCOD9414261 Si02
#       8
#     8   8   8   8   8   8   8   8
#     4  12  22  31  48  77 107 127 154 206 260 292
#     4   8  16  31  49  66  86 119 157 186 225 293
#     4   9  16  26  43  69  96 122 156 195 235 283
#     4  10  19  31  48  69  98 136 168 194 236 297
#     4  10  17  29  50  70  92 125 160 192 236 295
#     4   9  19  36  53  67  93 140 183 199 220 285
#     4   9  17  29  46  71 100 126 157 200 242 278
#     4  10  21  34  47  69  99 125 153 195 246 294
#
# _framework density 17.018519999999999
#
# number of rings (size 3 to 8) (size 9 to 14) (size 15 to 20)
#    0.000    2.375    0.000    6.750    0.000    4.250 
#    0.000    0.625    0.000    8.625    0.000    1.750 
#    0.000    0.000    0.000    0.000    0.000    0.000 
#
# Total GULP energy -356282.537212 kJ/mol
# GULP energy per Si atom -5566.914644 kJ/mol
# Density = 1.697978 g / cm^3
# Si number density = 17.018520 Si / 1000 Ang^3
#
#
#
# Elastic Constant Matrix: (Units=GPa)
#
#
# Indices 1 2 3 4 5 6 
#
# 1 109.6776 64.8736 27.4987 0.0000 0.0000 0.0000
# 2 64.8736 103.8389 24.7634 0.0000 0.0000 0.0000
# 3 27.4987 24.7634 21.2439 0.0000 0.0000 0.0000
# 4 0.0000 0.0000 0.0000 19.5092 0.0000 0.0000
# 5 0.0000 0.0000 0.0000 0.0000 -764.1664 0.0000
# 6 0.0000 0.0000 0.0000 0.0000 0.0000 26.3821
#
#
#
# Elastic Compliance Matrix: (Units=1/GPa)
#
#
# Indices 1 2 3 4 5 6 
#
# 1 0.016746 -0.007330 -0.013132 0.000000 0.000000 0.000000
# 2 -0.007330 0.016547 -0.009800 0.000000 0.000000 0.000000
# 3 -0.013132 -0.009800 0.075493 0.000000 0.000000 0.000000
# 4 0.000000 0.000000 0.000000 0.051258 0.000000 0.000000
# 5 0.000000 0.000000 0.000000 0.000000 -0.001309 0.000000
# 6 0.000000 0.000000 0.000000 0.000000 0.000000 0.037904
#
#
# Mechanical properties :
#
#
# Convention : Reuss Voigt Hill
#
# Bulk Modulus (GPa) = 20.71976 52.11466 36.41721
# Shear Modulus (GPa) = 18.29818 -135.81339 -58.75760
#
# Velocity S-wave (km/s) = 3.28257 -8.94296 -5.88223
# Velocity P-wave (km/s) = 5.15444 8.71473 4.96882
#
# Compressibility (1/GPa) = 0.04826311
#
# Stress axis : x y z
#
# Youngs Moduli (GPa) = 59.71590 60.43381 13.24619
#
# Poissons Ratio (x) = 0.44301 0.17394
# Poissons Ratio (y) = 0.43775 0.12981
# Poissons Ratio (z) = 0.78416 0.59223
#
# Static dielectric constant tensor:
#      x y z
#    x 1.611780 0.000000 0.000000 
#    y 0.000000 1.590450 0.000000 
#    z 0.000000 0.000000 1.589580 
# 
# From -- ./inp_files/28620.got.cif
#   From: 2010.05.17/outbox.cif.g08.bks.cpg/sg53_15_cif.got.tgz:28620.got - 2010.06.03 12:45:16.
