data_PCOD9414379
_publ_section_title
;
Structure prediction by ZEFSAII (Michael W. Deem and Ramdas Pophale) SiO2 
 PCOD9414379
Probable space group: P M N A
;
_chemical_formula_sum "Si O2"
_cell_formula_units_Z 56
_cell_length_a 9.399609
_cell_length_b 15.151237
_cell_length_c 22.603677
_cell_angle_alpha 90.000000
_cell_angle_beta 90.000000
_cell_angle_gamma 90.000000
_cell_volume 3219.118565
_symmetry_space_group_name_H-M "P M N A"
_symmetry_group_IT_number 53
_symmetry_cell_setting 'orthorhombic'
loop_
_space_group_symop_operation_xyz
x,y,z
1/2-x,-y,1/2+z
x,-y,-z
1/2-x,y,1/2-z
-x,-y,-z
1/2+x,y,1/2-z
-x,y,z
1/2+x,-y,1/2+z
loop_
_atom_site_type_symbol
_atom_site_label
_atom_site_fract_x
_atom_site_fract_y
_atom_site_fract_z
Si Si1 0.329402 0.896721 0.497222
Si Si2 0.661892 0.510832 0.108200
Si Si3 0.669820 0.656586 0.812158
Si Si4 0.339965 0.217142 0.611630
Si Si5 0.658079 0.322363 0.805037
Si Si6 0.336585 0.381181 0.519012
Si Si7 0.670374 0.254953 0.067739
O O1 0.500000 0.883992 0.507101
O O2 0.298692 0.862658 0.430967
O O3 0.243299 0.832796 0.541367
O O4 0.296854 0.000000 0.500000
O O5 0.500000 0.490278 0.087156
O O6 0.708809 0.433369 0.152523
O O7 0.652623 0.598519 0.148098
O O8 0.766931 0.537815 0.055279
O O9 0.750000 0.665898 0.750000
O O10 0.500000 0.652825 0.801123
O O11 0.696470 0.730912 0.862310
O O12 0.500000 0.204518 0.634156
O O13 0.232513 0.240251 0.663238
O O14 0.342502 0.301414 0.567334
O O15 0.750000 0.352380 0.750000
O O16 0.500000 0.300882 0.785478
O O17 0.500000 0.396600 0.500184
O O18 0.239544 0.338295 0.467547
O O19 0.500000 0.254511 0.057762
#
# Coordination Sequence:
#
# PCOD9414379 Si02
#       7
#     8   8   8   8   8   8   8
#     4   9  18  34  57  82 103 123 151 193 248 308
#     4   9  18  32  48  69  98 133 173 216 258 295
#     4  10  22  37  52  71  99 138 181 221 257 295
#     4   8  15  28  45  67  96 124 152 188 232 285
#     4  10  18  27  43  65  92 128 166 201 238 280
#     4   9  17  30  49  73 100 132 168 208 254 300
#     4  10  20  34  52  76 105 135 168 208 257 309
#
# _framework density 17.396065
#
# number of rings (size 3 to 8) (size 9 to 14) (size 15 to 20)
#    0.000    2.714    0.000    2.571    0.000    6.571 
#    0.000    2.857    0.000    0.857    0.000    2.000 
#    0.000    0.000    0.000    0.000    0.000    0.000 
#
# Total GULP energy -312179.024356 kJ/mol
# GULP energy per Si atom -5574.625435 kJ/mol
# Density = 1.735647 g / cm^3
# Si number density = 17.396065 Si / 1000 Ang^3
#
#
#
# Elastic Constant Matrix: (Units=GPa)
#
#
# Indices 1 2 3 4 5 6 
#
# 1 98.1505 32.3532 64.7095 0.0000 0.0000 0.0000
# 2 32.3532 84.1947 26.7917 0.0000 0.0000 0.0000
# 3 64.7095 26.7917 92.3686 0.0000 0.0000 0.0000
# 4 0.0000 0.0000 0.0000 17.7637 0.0000 0.0000
# 5 0.0000 0.0000 0.0000 0.0000 28.6552 0.0000
# 6 0.0000 0.0000 0.0000 0.0000 0.0000 14.0553
#
#
#
# Elastic Compliance Matrix: (Units=1/GPa)
#
#
# Indices 1 2 3 4 5 6 
#
# 1 0.019840 -0.003527 -0.012876 0.000000 0.000000 0.000000
# 2 -0.003527 0.013712 -0.001507 0.000000 0.000000 0.000000
# 3 -0.012876 -0.001507 0.020284 0.000000 0.000000 0.000000
# 4 0.000000 0.000000 0.000000 0.056295 0.000000 0.000000
# 5 0.000000 0.000000 0.000000 0.000000 0.034898 0.000000
# 6 0.000000 0.000000 0.000000 0.000000 0.000000 0.071147
#
#
# Mechanical properties :
#
#
# Convention : Reuss Voigt Hill
#
# Bulk Modulus (GPa) = 55.50358 58.04698 56.77528
# Shear Modulus (GPa) = 19.37988 22.15213 20.76601
#
# Velocity S-wave (km/s) = 3.34134 3.57234 3.45877
# Velocity P-wave (km/s) = 6.84552 7.10323 6.97556
#
# Compressibility (1/GPa) = 0.01801686
#
# Stress axis : x y z
#
# Youngs Moduli (GPa) = 50.40319 72.93000 49.30066
#
# Poissons Ratio (x) = 0.25719 0.63481
# Poissons Ratio (y) = 0.17775 0.07428
# Poissons Ratio (z) = 0.64900 0.10988
#
# Static dielectric constant tensor:
#      x y z
#    x 1.609820 0.000000 0.000000 
#    y 0.000000 1.607100 0.000000 
#    z 0.000000 0.000000 1.589610 
# 
# From -- ./inp_files/30877.got.cif
#   From: 2010.05.17/outbox.cif.g08.bks.cpg/sg53_16_cif.got.tgz:30877.got - 2010.06.03 12:45:16.
