data_PCOD9414117
_publ_section_title
;
Structure prediction by ZEFSAII (Michael W. Deem and Ramdas Pophale) SiO2 
 PCOD9414117
Probable space group: P M N A
;
_chemical_formula_sum "Si O2"
_cell_formula_units_Z 48
_cell_length_a 18.453908
_cell_length_b 10.177079
_cell_length_c 14.250458
_cell_angle_alpha 90.000000
_cell_angle_beta 90.000000
_cell_angle_gamma 90.000000
_cell_volume 2676.334049
_symmetry_space_group_name_H-M "P M N A"
_symmetry_group_IT_number 53
_symmetry_cell_setting 'orthorhombic'
loop_
_space_group_symop_operation_xyz
x,y,z
1/2-x,-y,1/2+z
x,-y,-z
1/2-x,y,1/2-z
-x,-y,-z
1/2+x,y,1/2-z
-x,y,z
1/2+x,-y,1/2+z
loop_
_atom_site_type_symbol
_atom_site_label
_atom_site_fract_x
_atom_site_fract_y
_atom_site_fract_z
Si Si1 0.271809 0.465792 0.650138
Si Si2 0.918661 0.844374 0.732507
Si Si3 0.082200 0.602744 0.876643
Si Si4 0.582573 0.938618 0.394200
Si Si5 0.779080 0.766363 0.645958
Si Si6 0.816381 0.254729 0.979160
O O1 0.250000 0.409649 0.750000
O O2 0.357752 0.496832 0.650223
O O3 0.231079 0.606704 0.639960
O O4 0.263954 0.362531 0.567180
O O5 0.917219 0.711021 0.794410
O O6 0.859654 0.823016 0.651559
O O7 0.000000 0.863757 0.696245
O O8 0.905128 0.957480 0.810593
O O9 0.000000 0.558832 0.891406
O O10 0.116904 0.673344 0.967453
O O11 0.500000 0.886620 0.382011
O O12 0.646799 0.834121 0.400600
O O13 0.583235 0.000000 0.500000
O O14 0.750000 0.800003 0.750000
O O15 0.729022 0.816860 0.561269
#
# Coordination Sequence:
#
# PCOD9414117 Si02
#       6
#     8   8   8   8   8   8
#     4  10  20  34  48  71 107 143 172 216 266 313
#     4  10  18  30  53  78 104 139 177 215 257 308
#     4  10  17  29  51  77 102 134 173 215 264 316
#     4  10  18  31  49  75 110 135 163 211 266 319
#     4  10  16  32  51  74 104 139 177 214 256 316
#     4  11  20  30  51  77 109 140 168 215 272 315
#
# _framework density 17.934979999999999
#
# number of rings (size 3 to 8) (size 9 to 14) (size 15 to 20)
#    0.000    1.833    6.667    2.500    0.000    2.000 
#    0.000    2.500    0.000    3.000    0.000    0.000 
#    0.000   15.333    0.000    0.000    0.000    0.333 
#
# Total GULP energy -267343.677862 kJ/mol
# GULP energy per Si atom -5569.659955 kJ/mol
# Density = 1.789416 g / cm^3
# Si number density = 17.934980 Si / 1000 Ang^3
#
#
#
# Elastic Constant Matrix: (Units=GPa)
#
#
# Indices 1 2 3 4 5 6 
#
# 1 129.3658 33.4640 52.4870 0.0000 0.0000 0.0000
# 2 33.4640 27.6100 18.0257 0.0000 0.0000 0.0000
# 3 52.4870 18.0257 57.8518 0.0000 0.0000 0.0000
# 4 0.0000 0.0000 0.0000 23.0459 0.0000 0.0000
# 5 0.0000 0.0000 0.0000 0.0000 20.2291 0.0000
# 6 0.0000 0.0000 0.0000 0.0000 0.0000 20.4469
#
#
#
# Elastic Compliance Matrix: (Units=1/GPa)
#
#
# Indices 1 2 3 4 5 6 
#
# 1 0.014612 -0.011368 -0.009715 0.000000 0.000000 0.000000
# 2 -0.011368 0.054312 -0.006609 0.000000 0.000000 0.000000
# 3 -0.009715 -0.006609 0.028159 0.000000 0.000000 0.000000
# 4 0.000000 0.000000 0.000000 0.043392 0.000000 0.000000
# 5 0.000000 0.000000 0.000000 0.000000 0.049434 0.000000
# 6 0.000000 0.000000 0.000000 0.000000 0.000000 0.048907
#
#
# Mechanical properties :
#
#
# Convention : Reuss Voigt Hill
#
# Bulk Modulus (GPa) = 23.98141 46.97566 35.47854
# Shear Modulus (GPa) = 16.22851 20.13443 18.18147
#
# Velocity S-wave (km/s) = 3.01134 3.35421 3.18739
# Velocity P-wave (km/s) = 5.04888 6.42262 5.77673
#
# Compressibility (1/GPa) = 0.04169896
#
# Stress axis : x y z
#
# Youngs Moduli (GPa) = 68.43540 18.41225 35.51235
#
# Poissons Ratio (x) = 0.20930 0.34501
# Poissons Ratio (y) = 0.77795 0.23471
# Poissons Ratio (z) = 0.66487 0.12169
#
# Static dielectric constant tensor:
#      x y z
#    x 1.664380 0.000000 0.000000 
#    y 0.000000 1.684700 0.000000 
#    z 0.000000 0.000000 1.638270 
# 
# From -- ./inp_files/23757.got.cif
#   From: 2010.05.17/outbox.cif.g08.bks.cpg/sg53_12_cif.got.tgz:23757.got - 2010.06.03 12:45:16.
