data_PCOD9414835
_publ_section_title
;
Structure prediction by ZEFSAII (Michael W. Deem and Ramdas Pophale) SiO2 
 PCOD9414835
Probable space group: P M N A
;
_chemical_formula_sum "Si O2"
_cell_formula_units_Z 64
_cell_length_a 18.370653
_cell_length_b 11.629761
_cell_length_c 14.347883
_cell_angle_alpha 90.000000
_cell_angle_beta 90.000000
_cell_angle_gamma 90.000000
_cell_volume 3065.372170
_symmetry_space_group_name_H-M "P M N A"
_symmetry_group_IT_number 53
_symmetry_cell_setting 'orthorhombic'
loop_
_space_group_symop_operation_xyz
x,y,z
1/2-x,-y,1/2+z
x,-y,-z
1/2-x,y,1/2-z
-x,-y,-z
1/2+x,y,1/2-z
-x,y,z
1/2+x,-y,1/2+z
loop_
_atom_site_type_symbol
_atom_site_label
_atom_site_fract_x
_atom_site_fract_y
_atom_site_fract_z
Si Si1 0.873803 0.275495 0.377586
Si Si2 0.721311 0.645116 0.356117
Si Si3 0.269129 0.886033 0.140328
Si Si4 0.266545 0.861048 0.638933
Si Si5 0.582013 0.233790 0.326050
Si Si6 0.867723 0.532783 0.398844
Si Si7 0.080646 0.501187 0.887792
Si Si8 0.419825 0.225361 0.912853
O O1 0.791402 0.232762 0.395751
O O2 0.907596 0.217528 0.285795
O O3 0.873412 0.410493 0.349984
O O4 0.912669 0.246827 0.475314
O O5 0.750000 0.649612 0.250000
O O6 0.723342 0.775300 0.394439
O O7 0.783721 0.571551 0.407274
O O8 0.644971 0.581964 0.356539
O O9 0.250000 0.892531 0.250000
O O10 0.353099 0.852798 0.121368
O O11 0.251865 0.012097 0.103139
O O12 0.250000 0.859873 0.750000
O O13 0.350592 0.830466 0.626368
O O14 0.500000 0.198869 0.352121
O O15 0.590407 0.368114 0.353176
O O16 0.897645 0.500000 0.500000
O O17 0.908154 0.647946 0.367153
O O18 0.000000 0.463221 0.856958
O O19 0.082240 0.500000 0.000000
O O20 0.500000 0.180424 0.891619
#
# Coordination Sequence:
#
# PCOD9414835 Si02
#       8
#     8   8   8   8   8   8   8   8
#     4  10  19  33  55  85 117 148 183 230 290 355
#     4  10  18  32  53  77 104 139 187 232 275 331
#     4   9  20  39  55  74 107 150 196 233 275 344
#     4   9  19  37  56  75 107 151 195 235 284 344
#     4  10  20  34  56  84 113 147 191 243 294 343
#     4   9  18  30  49  77 110 145 173 208 269 344
#     4  10  21  36  55  82 116 150 186 235 289 339
#     4  10  21  36  56  84 116 147 181 230 292 347
#
# _framework density 20.878378000000001
#
# number of rings (size 3 to 8) (size 9 to 14) (size 15 to 20)
#    0.000    2.375    0.000    2.250    0.000    6.250 
#    0.000   15.625    0.000    0.000    0.000    5.250 
#    0.000    0.000    0.000    0.000    0.000    0.000 
#
# Total GULP energy -356981.312080 kJ/mol
# GULP energy per Si atom -5577.833001 kJ/mol
# Density = 2.083086 g / cm^3
# Si number density = 20.878378 Si / 1000 Ang^3
#
#
#
# Elastic Constant Matrix: (Units=GPa)
#
#
# Indices 1 2 3 4 5 6 
#
# 1 181.6954 65.0869 13.3881 0.0000 0.0000 0.0000
# 2 65.0869 66.5237 9.6604 0.0000 0.0000 0.0000
# 3 13.3881 9.6604 65.9392 0.0000 0.0000 0.0000
# 4 0.0000 0.0000 0.0000 -11.2686 0.0000 0.0000
# 5 0.0000 0.0000 0.0000 0.0000 22.6187 0.0000
# 6 0.0000 0.0000 0.0000 0.0000 0.0000 14.4913
#
#
#
# Elastic Compliance Matrix: (Units=1/GPa)
#
#
# Indices 1 2 3 4 5 6 
#
# 1 0.008491 -0.008232 -0.000518 0.000000 0.000000 0.000000
# 2 -0.008232 0.023341 -0.001748 0.000000 0.000000 0.000000
# 3 -0.000518 -0.001748 0.015527 0.000000 0.000000 0.000000
# 4 0.000000 0.000000 0.000000 -0.088742 0.000000 0.000000
# 5 0.000000 0.000000 0.000000 0.000000 0.044211 0.000000
# 6 0.000000 0.000000 0.000000 0.000000 0.000000 0.069007
#
#
# Mechanical properties :
#
#
# Convention : Reuss Voigt Hill
#
# Bulk Modulus (GPa) = 37.93375 54.49209 46.21292
# Shear Modulus (GPa) = 49.20403 20.23647 34.72025
#
# Velocity S-wave (km/s) = 4.85985 3.11666 4.08238
# Velocity P-wave (km/s) = 7.04977 6.25363 6.66360
#
# Compressibility (1/GPa) = 0.02636175
#
# Stress axis : x y z
#
# Youngs Moduli (GPa) = 117.77422 42.84396 64.40501
#
# Poissons Ratio (x) = 0.35270 0.03335
# Poissons Ratio (y) = 0.96954 0.11258
# Poissons Ratio (z) = 0.06099 0.07489
#
# Static dielectric constant tensor:
#      x y z
#    x 1.786160 0.000000 0.000000 
#    y 0.000000 1.769250 0.000000 
#    z 0.000000 0.000000 1.842580 
# 
# From -- ./inp_files/29121.got.cif
#   From: 2010.05.17/outbox.cif.g08.bks.cpg/sg53_15_cif.got.tgz:29121.got - 2010.06.03 12:45:16.
