data_PCOD9414703
_publ_section_title
;
Structure prediction by ZEFSAII (Michael W. Deem and Ramdas Pophale) SiO2 
 PCOD9414703
Probable space group: P M N A
;
_chemical_formula_sum "Si O2"
_cell_formula_units_Z 64
_cell_length_a 8.564643
_cell_length_b 17.172241
_cell_length_c 24.617097
_cell_angle_alpha 90.000000
_cell_angle_beta 90.000000
_cell_angle_gamma 90.000000
_cell_volume 3620.537723
_symmetry_space_group_name_H-M "P M N A"
_symmetry_group_IT_number 53
_symmetry_cell_setting 'orthorhombic'
loop_
_space_group_symop_operation_xyz
x,y,z
1/2-x,-y,1/2+z
x,-y,-z
1/2-x,y,1/2-z
-x,-y,-z
1/2+x,y,1/2-z
-x,y,z
1/2+x,-y,1/2+z
loop_
_atom_site_type_symbol
_atom_site_label
_atom_site_fract_x
_atom_site_fract_y
_atom_site_fract_z
Si Si1 0.685530 0.931051 0.688473
Si Si2 0.313779 0.216742 0.126150
Si Si3 0.188989 0.308672 0.027219
Si Si4 0.313498 0.375062 0.189712
Si Si5 0.312591 0.740958 0.311337
Si Si6 0.812542 0.535991 0.909829
Si Si7 0.813718 0.094262 0.688319
Si Si8 0.809556 0.639876 0.087804
O O1 0.750000 0.918697 0.750000
O O2 0.500000 0.937822 0.692350
O O3 0.733900 0.859328 0.650696
O O4 0.754635 0.012122 0.665500
O O5 0.500000 0.206559 0.127026
O O6 0.259037 0.243152 0.066380
O O7 0.273368 0.290426 0.164699
O O8 0.239193 0.393308 0.051247
O O9 0.000000 0.304581 0.030867
O O10 0.235563 0.308462 0.964220
O O11 0.250000 0.381508 0.250000
O O12 0.500000 0.382934 0.188681
O O13 0.237438 0.438298 0.150162
O O14 0.250000 0.729336 0.250000
O O15 0.500000 0.742241 0.308462
O O16 0.254261 0.824763 0.333378
O O17 0.261192 0.675874 0.354625
O O18 0.755477 0.448882 0.921056
O O19 0.000000 0.534173 0.914033
O O20 0.750000 0.092683 0.750000
O O21 0.000000 0.096824 0.688308
O O22 0.000000 0.638215 0.088159
#
# Coordination Sequence:
#
# PCOD9414703 Si02
#       8
#     8   8   8   8   8   8   8   8
#     4  11  20  31  50  77 105 134 167 202 243 290
#     4  10  20  33  48  71 102 134 168 206 247 291
#     4   9  17  32  53  74  97 129 169 209 250 295
#     4  10  20  32  46  66  97 134 168 202 245 295
#     4  10  19  33  51  73 102 131 162 201 247 297
#     4   9  17  31  51  73  97 127 166 210 252 294
#     4  10  18  31  50  73 101 131 163 199 243 292
#     4   9  18  32  53  77  98 126 166 209 250 297
#
# _framework density 17.676932999999998
#
# number of rings (size 3 to 8) (size 9 to 14) (size 15 to 20)
#    0.000    2.250    0.000    5.625    0.000    4.500 
#    0.000    4.375    0.000    3.750    0.000    5.250 
#    0.000    0.000    0.000    0.000    0.000    0.000 
#
# Total GULP energy -356926.373827 kJ/mol
# GULP energy per Si atom -5576.974591 kJ/mol
# Density = 1.763670 g / cm^3
# Si number density = 17.676933 Si / 1000 Ang^3
#
#
#
# Elastic Constant Matrix: (Units=GPa)
#
#
# Indices 1 2 3 4 5 6 
#
# 1 51.2914 17.2515 12.2335 0.0000 0.0000 0.0000
# 2 17.2515 64.3850 21.0590 0.0000 0.0000 0.0000
# 3 12.2335 21.0590 83.9019 0.0000 0.0000 0.0000
# 4 0.0000 0.0000 0.0000 16.1865 0.0000 0.0000
# 5 0.0000 0.0000 0.0000 0.0000 18.9990 0.0000
# 6 0.0000 0.0000 0.0000 0.0000 0.0000 20.7765
#
#
#
# Elastic Compliance Matrix: (Units=1/GPa)
#
#
# Indices 1 2 3 4 5 6 
#
# 1 0.021690 -0.005204 -0.001856 0.000000 0.000000 0.000000
# 2 -0.005204 0.018169 -0.003802 0.000000 0.000000 0.000000
# 3 -0.001856 -0.003802 0.013144 0.000000 0.000000 0.000000
# 4 0.000000 0.000000 0.000000 0.061780 0.000000 0.000000
# 5 0.000000 0.000000 0.000000 0.000000 0.052634 0.000000
# 6 0.000000 0.000000 0.000000 0.000000 0.000000 0.048131
#
#
# Mechanical properties :
#
#
# Convention : Reuss Voigt Hill
#
# Bulk Modulus (GPa) = 31.97126 33.40736 32.68931
# Shear Modulus (GPa) = 20.18584 21.12805 20.65695
#
# Velocity S-wave (km/s) = 3.38291 3.46096 3.42216
# Velocity P-wave (km/s) = 5.77793 5.90855 5.84360
#
# Compressibility (1/GPa) = 0.03127809
#
# Stress axis : x y z
#
# Youngs Moduli (GPa) = 46.10495 55.03732 76.08320
#
# Poissons Ratio (x) = 0.28644 0.14123
# Poissons Ratio (y) = 0.23995 0.28924
# Poissons Ratio (z) = 0.08558 0.20923
#
# Static dielectric constant tensor:
#      x y z
#    x 1.602760 0.000000 0.000000 
#    y 0.000000 1.625720 0.000000 
#    z 0.000000 0.000000 1.579380 
# 
# From -- ./inp_files/34227.got.cif
#   From: 2010.05.17/outbox.cif.g08.bks.cpg/sg53_18_cif.got.tgz:34227.got - 2010.06.03 12:45:16.
