data_PCOD9414755
_publ_section_title
;
Structure prediction by ZEFSAII (Michael W. Deem and Ramdas Pophale) SiO2 
 PCOD9414755
Probable space group: P M N A
;
_chemical_formula_sum "Si O2"
_cell_formula_units_Z 40
_cell_length_a 8.622213
_cell_length_b 26.824929
_cell_length_c 9.211853
_cell_angle_alpha 90.000000
_cell_angle_beta 90.000000
_cell_angle_gamma 90.000000
_cell_volume 2130.611798
_symmetry_space_group_name_H-M "P M N A"
_symmetry_group_IT_number 53
_symmetry_cell_setting 'orthorhombic'
loop_
_space_group_symop_operation_xyz
x,y,z
1/2-x,-y,1/2+z
x,-y,-z
1/2-x,y,1/2-z
-x,-y,-z
1/2+x,y,1/2-z
-x,y,z
1/2+x,-y,1/2+z
loop_
_atom_site_type_symbol
_atom_site_label
_atom_site_fract_x
_atom_site_fract_y
_atom_site_fract_z
Si Si1 0.685725 0.950098 0.086957
Si Si2 0.185408 0.743039 0.414443
Si Si3 0.313242 0.351480 0.412725
Si Si4 0.312898 0.549054 0.412662
Si Si5 0.314841 0.152880 0.584837
O O1 0.750000 0.955045 0.250000
O O2 0.500000 0.944800 0.092231
O O3 0.756584 0.899390 0.020168
O O4 0.725595 0.000000 0.000000
O O5 0.250000 0.737943 0.250000
O O6 0.245384 0.696977 0.508157
O O7 0.247595 0.795689 0.476937
O O8 0.000000 0.744067 0.408756
O O9 0.250000 0.354851 0.250000
O O10 0.500000 0.348529 0.410928
O O11 0.266987 0.400883 0.502239
O O12 0.260449 0.500000 0.500000
O O13 0.250000 0.549103 0.250000
O O14 0.500000 0.548043 0.406890
O O15 0.250000 0.151999 0.750000
O O16 0.500000 0.154583 0.587285
#
# Coordination Sequence:
#
# PCOD9414755 Si02
#       5
#     8   8   8   8   8
#     4  10  20  34  53  78 108 142 181 224 273 328
#     4  11  21  36  58  83 111 143 184 231 279 331
#     4  11  23  39  58  83 115 150 189 230 279 334
#     4  10  22  39  60  87 117 150 189 232 278 330
#     4  10  18  31  53  79 107 140 181 226 275 329
#
# _framework density 18.773952000000001
#
# number of rings (size 3 to 8) (size 9 to 14) (size 15 to 20)
#    0.000    1.600    0.000    8.400    0.000    5.200 
#    0.000    1.000    0.000    2.400    0.000    0.000 
#    0.000    0.000    0.000    0.000    0.000    0.000 
#
# Total GULP energy -223463.398046 kJ/mol
# GULP energy per Si atom -5586.584951 kJ/mol
# Density = 1.873122 g / cm^3
# Si number density = 18.773952 Si / 1000 Ang^3
#
#
#
# Elastic Constant Matrix: (Units=GPa)
#
#
# Indices 1 2 3 4 5 6 
#
# 1 113.5762 82.6507 41.3784 0.0000 0.0000 0.0000
# 2 82.6507 236.6493 93.1048 0.0000 0.0000 0.0000
# 3 41.3784 93.1048 106.0874 0.0000 0.0000 0.0000
# 4 0.0000 0.0000 0.0000 30.9326 0.0000 0.0000
# 5 0.0000 0.0000 0.0000 0.0000 28.4550 0.0000
# 6 0.0000 0.0000 0.0000 0.0000 0.0000 48.3993
#
#
#
# Elastic Compliance Matrix: (Units=1/GPa)
#
#
# Indices 1 2 3 4 5 6 
#
# 1 0.011965 -0.003578 -0.001526 0.000000 0.000000 0.000000
# 2 -0.003578 0.007524 -0.005208 0.000000 0.000000 0.000000
# 3 -0.001526 -0.005208 0.014592 0.000000 0.000000 0.000000
# 4 0.000000 0.000000 0.000000 0.032328 0.000000 0.000000
# 5 0.000000 0.000000 0.000000 0.000000 0.035143 0.000000
# 6 0.000000 0.000000 0.000000 0.000000 0.000000 0.020661
#
#
# Mechanical properties :
#
#
# Convention : Reuss Voigt Hill
#
# Bulk Modulus (GPa) = 74.31554 98.95344 86.63449
# Shear Modulus (GPa) = 33.93874 37.50264 35.72069
#
# Velocity S-wave (km/s) = 4.25639 4.47429 4.36670
# Velocity P-wave (km/s) = 7.98912 8.91710 8.46583
#
# Compressibility (1/GPa) = 0.01345614
#
# Stress axis : x y z
#
# Youngs Moduli (GPa) = 83.57964 132.90323 68.53028
#
# Poissons Ratio (x) = 0.47555 0.10461
# Poissons Ratio (y) = 0.29906 0.35690
# Poissons Ratio (z) = 0.12758 0.69214
#
# Static dielectric constant tensor:
#      x y z
#    x 1.630200 0.000000 0.000000 
#    y 0.000000 1.682360 0.000000 
#    z 0.000000 0.000000 1.626710 
# 
# From -- ./inp_files/6295.got.cif
#   From: 2010.05.17/outbox.cif.g08.bks.cpg/sg53_4_cif.got.tgz:6295.got - 2010.06.03 12:45:16.
