data_PCOD9414260
_publ_section_title
;
Structure prediction by ZEFSAII (Michael W. Deem and Ramdas Pophale) SiO2 
 PCOD9414260
Probable space group: P M N A
;
_chemical_formula_sum "Si O2"
_cell_formula_units_Z 48
_cell_length_a 8.407817
_cell_length_b 11.861553
_cell_length_c 26.663271
_cell_angle_alpha 90.000000
_cell_angle_beta 90.000000
_cell_angle_gamma 90.000000
_cell_volume 2659.121803
_symmetry_space_group_name_H-M "P M N A"
_symmetry_group_IT_number 53
_symmetry_cell_setting 'orthorhombic'
loop_
_space_group_symop_operation_xyz
x,y,z
1/2-x,-y,1/2+z
x,-y,-z
1/2-x,y,1/2-z
-x,-y,-z
1/2+x,y,1/2-z
-x,y,z
1/2+x,-y,1/2+z
loop_
_atom_site_type_symbol
_atom_site_label
_atom_site_fract_x
_atom_site_fract_y
_atom_site_fract_z
Si Si1 0.308262 0.373775 0.805935
Si Si2 0.308193 0.869929 0.499933
Si Si3 0.691982 0.370004 0.305922
Si Si4 0.318514 0.266344 0.904969
Si Si5 0.814553 0.738183 0.902455
Si Si6 0.823925 0.483956 0.940901
O O1 0.250000 0.346264 0.750000
O O2 0.500000 0.376723 0.806799
O O3 0.248059 0.501361 0.817266
O O4 0.253318 0.284510 0.848404
O O5 0.500000 0.864805 0.502206
O O6 0.261387 0.808237 0.448227
O O7 0.246300 0.809192 0.550935
O O8 0.258142 0.000000 0.500000
O O9 0.750000 0.344885 0.250000
O O10 0.500000 0.371386 0.307590
O O11 0.751850 0.277050 0.346212
O O12 0.500000 0.228582 0.901146
O O13 0.305944 0.394749 0.924762
O O14 0.810938 0.608136 0.919377
O O15 0.000000 0.773612 0.897604
O O16 0.000000 0.437737 0.927099
O O17 0.819772 0.500000 0.000000
#
# Coordination Sequence:
#
# PCOD9414260 Si02
#       6
#     8   8   8   8   8   8
#     4  10  20  32  47  72 105 138 170 201 242 299
#     4  10  21  38  58  76  95 130 181 222 254 302
#     4  10  18  29  47  71 104 137 165 200 244 298
#     4  11  22  33  49  76 110 136 163 208 260 312
#     4   9  17  30  50  75 101 131 165 208 252 294
#     4  10  17  29  49  72 102 136 169 200 244 306
#
# _framework density 18.051072999999999
#
# number of rings (size 3 to 8) (size 9 to 14) (size 15 to 20)
#    0.000    2.000    3.333    2.500    0.000    2.667 
#    0.000    1.667    0.000    1.000    0.000    4.667 
#    0.000    0.000    0.000    0.000    0.000    0.000 
#
# Total GULP energy -267252.106109 kJ/mol
# GULP energy per Si atom -5567.752211 kJ/mol
# Density = 1.800999 g / cm^3
# Si number density = 18.051073 Si / 1000 Ang^3
#
#
#
# Elastic Constant Matrix: (Units=GPa)
#
#
# Indices 1 2 3 4 5 6 
#
# 1 26.6294 12.1503 21.6563 0.0000 0.0000 0.0000
# 2 12.1503 63.6922 64.8138 0.0000 0.0000 0.0000
# 3 21.6563 64.8138 174.5426 0.0000 0.0000 0.0000
# 4 0.0000 0.0000 0.0000 9.4594 0.0000 0.0000
# 5 0.0000 0.0000 0.0000 0.0000 7.2050 0.0000
# 6 0.0000 0.0000 0.0000 0.0000 0.0000 -2.1513
#
#
#
# Elastic Compliance Matrix: (Units=1/GPa)
#
#
# Indices 1 2 3 4 5 6 
#
# 1 0.042524 -0.004409 -0.003639 0.000000 0.000000 0.000000
# 2 -0.004409 0.025694 -0.008994 0.000000 0.000000 0.000000
# 3 -0.003639 -0.008994 0.009521 0.000000 0.000000 0.000000
# 4 0.000000 0.000000 0.000000 0.105714 0.000000 0.000000
# 5 0.000000 0.000000 0.000000 0.000000 0.138793 0.000000
# 6 0.000000 0.000000 0.000000 0.000000 0.000000 -0.464837
#
#
# Mechanical properties :
#
#
# Convention : Reuss Voigt Hill
#
# Bulk Modulus (GPa) = 22.90731 51.34498 37.12614
# Shear Modulus (GPa) = -53.21661 13.98554 -19.61554
#
# Velocity S-wave (km/s) = -5.43554 2.78650 -3.30004
# Velocity P-wave (km/s) = 5.16485 6.23368 2.46811
#
# Compressibility (1/GPa) = 0.04365419
#
# Stress axis : x y z
#
# Youngs Moduli (GPa) = 23.51638 38.91950 105.03584
#
# Poissons Ratio (x) = 0.17160 0.38221
# Poissons Ratio (y) = 0.10369 0.94470
# Poissons Ratio (z) = 0.08557 0.35004
#
# Static dielectric constant tensor:
#      x y z
#    x 1.657550 0.000000 0.000000 
#    y 0.000000 1.591720 0.000000 
#    z 0.000000 0.000000 1.773780 
# 
# From -- ./inp_files/36175.got.cif
#   From: 2010.05.17/outbox.cif.g08.bks.cpg/sg53_19_cif.got.tgz:36175.got - 2010.06.03 12:45:16.
