data_PCOD9414156
_publ_section_title
;
Structure prediction by ZEFSAII (Michael W. Deem and Ramdas Pophale) SiO2 
 PCOD9414156
Probable space group: P M N A
;
_chemical_formula_sum "Si O2"
_cell_formula_units_Z 56
_cell_length_a 9.143004
_cell_length_b 18.178296
_cell_length_c 22.385423
_cell_angle_alpha 90.000000
_cell_angle_beta 90.000000
_cell_angle_gamma 90.000000
_cell_volume 3720.552061
_symmetry_space_group_name_H-M "P M N A"
_symmetry_group_IT_number 53
_symmetry_cell_setting 'orthorhombic'
loop_
_space_group_symop_operation_xyz
x,y,z
1/2-x,-y,1/2+z
x,-y,-z
1/2-x,y,1/2-z
-x,-y,-z
1/2+x,y,1/2-z
-x,y,z
1/2+x,-y,1/2+z
loop_
_atom_site_type_symbol
_atom_site_label
_atom_site_fract_x
_atom_site_fract_y
_atom_site_fract_z
Si Si1 0.174960 0.241459 0.314228
Si Si2 0.324487 0.371546 0.095526
Si Si3 0.331256 0.529260 0.068735
Si Si4 0.168060 0.978036 0.429588
Si Si5 0.674906 0.668836 0.470513
Si Si6 0.673042 0.834715 0.461842
Si Si7 0.826808 0.123092 0.101082
O O1 0.250000 0.242161 0.250000
O O2 0.205585 0.317082 0.350103
O O3 0.241362 0.175943 0.354072
O O4 0.000000 0.233344 0.309135
O O5 0.500000 0.370868 0.083930
O O6 0.283538 0.457081 0.105387
O O7 0.244056 0.342703 0.036236
O O8 0.500000 0.546967 0.082435
O O9 0.235127 0.602321 0.069775
O O10 0.326605 0.500000 0.000000
O O11 0.237196 0.897073 0.427508
O O12 0.000000 0.979302 0.409624
O O13 0.170047 0.000000 0.500000
O O14 0.263054 0.040625 0.397557
O O15 0.500000 0.664905 0.475313
O O16 0.714334 0.750594 0.448522
O O17 0.500000 0.844874 0.450659
O O18 0.694877 0.847635 0.533103
O O19 0.000000 0.123947 0.113137
#
# Coordination Sequence:
#
# PCOD9414156 Si02
#       7
#     8   8   8   8   8   8   8
#     4  11  22  34  48  65  85 113 152 192 226 261
#     4   9  18  31  44  57  81 115 147 180 219 261
#     4   8  15  27  40  57  81 112 145 174 211 260
#     4   9  17  27  41  62  84 111 147 180 212 258
#     4  10  17  25  40  64  89 114 145 178 213 256
#     4   9  17  27  40  61  89 118 145 175 214 260
#     4  10  18  31  46  60  84 116 146 181 223 261
#
# _framework density 15.051529
#
# number of rings (size 3 to 8) (size 9 to 14) (size 15 to 20)
#    0.000    2.571    1.429    2.571    0.000    6.571 
#    0.000    0.000    0.000    0.000    0.000    0.000 
#    0.000    1.143    0.000    6.000    0.000    5.571 
#
# Total GULP energy -311987.938371 kJ/mol
# GULP energy per Si atom -5571.213185 kJ/mol
# Density = 1.501727 g / cm^3
# Si number density = 15.051529 Si / 1000 Ang^3
#
#
#
# Elastic Constant Matrix: (Units=GPa)
#
#
# Indices 1 2 3 4 5 6 
#
# 1 68.1437 67.2541 30.0580 0.0000 0.0000 0.0000
# 2 67.2541 157.0346 36.3498 0.0000 0.0000 0.0000
# 3 30.0580 36.3498 39.4648 0.0000 0.0000 0.0000
# 4 0.0000 0.0000 0.0000 8.7127 0.0000 0.0000
# 5 0.0000 0.0000 0.0000 0.0000 13.3547 0.0000
# 6 0.0000 0.0000 0.0000 0.0000 0.0000 28.8184
#
#
#
# Elastic Compliance Matrix: (Units=1/GPa)
#
#
# Indices 1 2 3 4 5 6 
#
# 1 0.030695 -0.009830 -0.014324 0.000000 0.000000 0.000000
# 2 -0.009830 0.011242 -0.002867 0.000000 0.000000 0.000000
# 3 -0.014324 -0.002867 0.038890 0.000000 0.000000 0.000000
# 4 0.000000 0.000000 0.000000 0.114775 0.000000 0.000000
# 5 0.000000 0.000000 0.000000 0.000000 0.074880 0.000000
# 6 0.000000 0.000000 0.000000 0.000000 0.000000 0.034700
#
#
# Mechanical properties :
#
#
# Convention : Reuss Voigt Hill
#
# Bulk Modulus (GPa) = 37.33690 59.10743 48.22216
# Shear Modulus (GPa) = 13.58126 18.90924 16.24525
#
# Velocity S-wave (km/s) = 3.00712 3.54828 3.28885
# Velocity P-wave (km/s) = 6.07593 7.49282 6.82126
#
# Compressibility (1/GPa) = 0.02678316
#
# Stress axis : x y z
#
# Youngs Moduli (GPa) = 32.57837 88.95370 25.71344
#
# Poissons Ratio (x) = 0.87444 0.36833
# Poissons Ratio (y) = 0.32025 0.07373
# Poissons Ratio (z) = 0.46667 0.25506
#
# Static dielectric constant tensor:
#      x y z
#    x 1.500820 0.000000 0.000000 
#    y 0.000000 1.524570 0.000000 
#    z 0.000000 0.000000 1.462380 
# 
# From -- ./inp_files/34367.got.cif
#   From: 2010.05.17/outbox.cif.g08.bks.cpg/sg53_18_cif.got.tgz:34367.got - 2010.06.03 12:45:16.
