data_PCOD9414269
_publ_section_title
;
Structure prediction by ZEFSAII (Michael W. Deem and Ramdas Pophale) SiO2 
 PCOD9414269
Probable space group: P M N A
;
_chemical_formula_sum "Si O2"
_cell_formula_units_Z 56
_cell_length_a 8.401130
_cell_length_b 19.829887
_cell_length_c 18.692631
_cell_angle_alpha 90.000000
_cell_angle_beta 90.000000
_cell_angle_gamma 90.000000
_cell_volume 3114.070048
_symmetry_space_group_name_H-M "P M N A"
_symmetry_group_IT_number 53
_symmetry_cell_setting 'orthorhombic'
loop_
_space_group_symop_operation_xyz
x,y,z
1/2-x,-y,1/2+z
x,-y,-z
1/2-x,y,1/2-z
-x,-y,-z
1/2+x,y,1/2-z
-x,y,z
1/2+x,-y,1/2+z
loop_
_atom_site_type_symbol
_atom_site_label
_atom_site_fract_x
_atom_site_fract_y
_atom_site_fract_z
Si Si1 0.692961 0.287308 0.961782
Si Si2 0.806187 0.081065 0.076914
Si Si3 0.692246 0.068862 0.589541
Si Si4 0.310907 0.638793 0.826902
Si Si5 0.689572 0.801421 0.170582
Si Si6 0.306093 0.572677 0.974054
Si Si7 0.310473 0.225755 0.390551
O O1 0.500000 0.281909 0.967912
O O2 0.744888 0.253608 0.887846
O O3 0.735118 0.365677 0.973072
O O4 0.768267 0.247503 0.028346
O O5 0.752555 0.148640 0.117001
O O6 0.000000 0.918435 0.922462
O O7 0.755919 0.007960 0.105755
O O8 0.759925 0.083916 0.992898
O O9 0.500000 0.070810 0.591728
O O10 0.757134 0.125641 0.641629
O O11 0.250000 0.616302 0.750000
O O12 0.500000 0.634685 0.827433
O O13 0.250959 0.595560 0.894964
O O14 0.263810 0.716524 0.841355
O O15 0.750000 0.788869 0.250000
O O16 0.500000 0.799520 0.171433
O O17 0.500000 0.569928 0.971686
O O18 0.248516 0.500000 0.000000
O O19 0.500000 0.227431 0.380815
#
# Coordination Sequence:
#
# PCOD9414269 Si02
#       7
#     8   8   8   8   8   8   8
#     4   9  18  32  50  74 101 129 168 210 247 297
#     4   8  15  27  49  75  97 124 161 207 255 305
#     4   9  16  31  50  70  96 127 166 208 255 306
#     4  10  20  34  52  77 107 138 170 207 251 301
#     4  11  22  34  48  69  99 135 174 216 260 302
#     4   8  15  31  56  80 101 130 166 203 246 297
#     4  10  17  29  52  78 101 130 166 205 252 301
#
# _framework density 17.982897000000001
#
# number of rings (size 3 to 8) (size 9 to 14) (size 15 to 20)
#    0.000    2.714    1.429    3.000    0.000    0.571 
#    0.000    4.286    0.000   10.714    0.000    0.000 
#    0.000    0.000    0.000    0.000    0.000    0.000 
#
# Total GULP energy -312125.911537 kJ/mol
# GULP energy per Si atom -5573.676992 kJ/mol
# Density = 1.794197 g / cm^3
# Si number density = 17.982897 Si / 1000 Ang^3
#
#
#
# Elastic Constant Matrix: (Units=GPa)
#
#
# Indices 1 2 3 4 5 6 
#
# 1 16.3521 11.5701 13.6506 0.0000 0.0000 0.0000
# 2 11.5701 140.9370 54.7648 0.0000 0.0000 0.0000
# 3 13.6506 54.7648 102.3721 0.0000 0.0000 0.0000
# 4 0.0000 0.0000 0.0000 15.3554 0.0000 0.0000
# 5 0.0000 0.0000 0.0000 0.0000 19.2840 0.0000
# 6 0.0000 0.0000 0.0000 0.0000 0.0000 28.6198
#
#
#
# Elastic Compliance Matrix: (Units=1/GPa)
#
#
# Indices 1 2 3 4 5 6 
#
# 1 0.069596 -0.002660 -0.007857 0.000000 0.000000 0.000000
# 2 -0.002660 0.009059 -0.004491 0.000000 0.000000 0.000000
# 3 -0.007857 -0.004491 0.013219 0.000000 0.000000 0.000000
# 4 0.000000 0.000000 0.000000 0.065124 0.000000 0.000000
# 5 0.000000 0.000000 0.000000 0.000000 0.051856 0.000000
# 6 0.000000 0.000000 0.000000 0.000000 0.000000 0.034941
#
#
# Mechanical properties :
#
#
# Convention : Reuss Voigt Hill
#
# Bulk Modulus (GPa) = 16.16661 46.62580 31.39620
# Shear Modulus (GPa) = 16.98195 24.63024 20.80609
#
# Velocity S-wave (km/s) = 3.07634 3.70489 3.40515
# Velocity P-wave (km/s) = 4.65059 6.65475 5.74081
#
# Compressibility (1/GPa) = 0.06185589
#
# Stress axis : x y z
#
# Youngs Moduli (GPa) = 14.36872 110.38692 75.65047
#
# Poissons Ratio (x) = 0.29367 0.59438
# Poissons Ratio (y) = 0.03823 0.33978
# Poissons Ratio (z) = 0.11289 0.49580
#
# Static dielectric constant tensor:
#      x y z
#    x 1.618950 0.000000 0.000000 
#    y 0.000000 1.636000 0.000000 
#    z 0.000000 0.000000 1.605210 
# 
# From -- ./inp_files/26710.got.cif
#   From: 2010.05.17/outbox.cif.g08.bks.cpg/sg53_14_cif.got.tgz:26710.got - 2010.06.03 12:45:16.
