data_PCOD9414819
_publ_section_title
;
Structure prediction by ZEFSAII (Michael W. Deem and Ramdas Pophale) SiO2 
 PCOD9414819
Probable space group: P M N A
;
_chemical_formula_sum "Si O2"
_cell_formula_units_Z 48
_cell_length_a 30.141642
_cell_length_b 14.203278
_cell_length_c 6.187361
_cell_angle_alpha 90.000000
_cell_angle_beta 90.000000
_cell_angle_gamma 90.000000
_cell_volume 2648.871865
_symmetry_space_group_name_H-M "P M N A"
_symmetry_group_IT_number 53
_symmetry_cell_setting 'orthorhombic'
loop_
_space_group_symop_operation_xyz
x,y,z
1/2-x,-y,1/2+z
x,-y,-z
1/2-x,y,1/2-z
-x,-y,-z
1/2+x,y,1/2-z
-x,y,z
1/2+x,-y,1/2+z
loop_
_atom_site_type_symbol
_atom_site_label
_atom_site_fract_x
_atom_site_fract_y
_atom_site_fract_z
Si Si1 0.166094 0.771578 0.723473
Si Si2 0.049479 0.596973 0.632893
Si Si3 0.095741 0.265329 0.656251
Si Si4 0.373234 0.098684 0.600648
Si Si5 0.632485 0.606643 0.539403
Si Si6 0.287655 0.898828 0.091009
O O1 0.129748 0.756836 0.536323
O O2 0.169070 0.670825 0.840199
O O3 0.205086 0.824348 0.599519
O O4 0.147576 0.841964 0.904458
O O5 0.054737 0.500000 0.500000
O O6 0.055666 0.681932 0.461618
O O7 0.088161 0.603194 0.810743
O O8 0.000000 0.599042 0.728210
O O9 0.090809 0.167488 0.786694
O O10 0.118319 0.339358 0.821234
O O11 0.333339 0.084293 0.774213
O O12 0.388564 0.000000 0.500000
O O13 0.646652 0.500000 0.500000
O O14 0.250000 0.862794 0.250000
O O15 0.273536 0.000000 0.000000
#
# Coordination Sequence:
#
# PCOD9414819 Si02
#       6
#     8   8   8   8   8   8
#     4   9  20  33  48  74 109 134 171 212 259 312
#     4  10  19  30  47  75 109 139 167 217 280 328
#     4   9  19  32  48  73 104 134 174 215 256 315
#     4  10  18  33  52  73 104 137 171 209 257 311
#     4  10  18  32  52  74 105 136 181 221 261 313
#     4  11  21  31  49  78 114 139 161 199 263 323
#
# _framework density 18.120920999999999
#
# number of rings (size 3 to 8) (size 9 to 14) (size 15 to 20)
#    0.000    2.167    3.333    0.500    0.000    1.000 
#    0.000    0.000    0.000    0.500    0.000   10.500 
#  180.000    0.000    0.000    0.000    0.000    0.000 
#
# Total GULP energy -267461.546127 kJ/mol
# GULP energy per Si atom -5572.115544 kJ/mol
# Density = 1.807968 g / cm^3
# Si number density = 18.120921 Si / 1000 Ang^3
#
#
#
# Elastic Constant Matrix: (Units=GPa)
#
#
# Indices 1 2 3 4 5 6 
#
# 1 27.0417 11.7315 4.1781 0.0000 0.0000 0.0000
# 2 11.7315 138.0513 31.9664 0.0000 0.0000 0.0000
# 3 4.1781 31.9664 75.5213 0.0000 0.0000 0.0000
# 4 0.0000 0.0000 0.0000 36.6862 0.0000 0.0000
# 5 0.0000 0.0000 0.0000 0.0000 18.2769 0.0000
# 6 0.0000 0.0000 0.0000 0.0000 0.0000 17.2602
#
#
#
# Elastic Compliance Matrix: (Units=1/GPa)
#
#
# Indices 1 2 3 4 5 6 
#
# 1 0.038442 -0.003076 -0.000825 0.000000 0.000000 0.000000
# 2 -0.003076 0.008277 -0.003333 0.000000 0.000000 0.000000
# 3 -0.000825 -0.003333 0.014698 0.000000 0.000000 0.000000
# 4 0.000000 0.000000 0.000000 0.027258 0.000000 0.000000
# 5 0.000000 0.000000 0.000000 0.000000 0.054714 0.000000
# 6 0.000000 0.000000 0.000000 0.000000 0.000000 0.057937
#
#
# Mechanical properties :
#
#
# Convention : Reuss Voigt Hill
#
# Bulk Modulus (GPa) = 21.29982 37.37403 29.33692
# Shear Modulus (GPa) = 21.60365 27.29389 24.44877
#
# Velocity S-wave (km/s) = 3.45656 3.88520 3.67713
# Velocity P-wave (km/s) = 5.26405 6.38717 5.85261
#
# Compressibility (1/GPa) = 0.04694876
#
# Stress axis : x y z
#
# Youngs Moduli (GPa) = 26.01342 120.81835 68.03732
#
# Poissons Ratio (x) = 0.37161 0.05612
# Poissons Ratio (y) = 0.08001 0.22679
# Poissons Ratio (z) = 0.02146 0.40272
#
# Static dielectric constant tensor:
#      x y z
#    x 1.595590 0.000000 0.000000 
#    y 0.000000 1.646370 0.000000 
#    z 0.000000 0.000000 1.663830 
# 
# From -- ./inp_files/5280.got.cif
#   From: 2010.05.17/outbox.cif.g08.bks.cpg/sg53_3_cif.got.tgz:5280.got - 2010.06.03 12:45:16.
