data_PCOD9414023
_publ_section_title
;
Structure prediction by ZEFSAII (Michael W. Deem and Ramdas Pophale) SiO2 
 PCOD9414023
Probable space group: P N N A
;
_chemical_formula_sum "Si O2"
_cell_formula_units_Z 48
_cell_length_a 15.000000
_cell_length_b 18.000000
_cell_length_c 9.000000
_cell_angle_alpha 90.000000
_cell_angle_beta 90.000000
_cell_angle_gamma 90.000000
_cell_volume 2430.000000
_symmetry_space_group_name_H-M "P N N A"
_symmetry_group_IT_number 52
_symmetry_cell_setting 'orthorhombic'
loop_
_space_group_symop_operation_xyz
x,y,z
1/2-x,-y,z
x,1/2-y,1/2-z
1/2-x,1/2+y,1/2-z
-x,-y,-z
1/2+x,y,-z
-x,1/2+y,1/2+z
1/2+x,1/2-y,1/2+z
loop_
_atom_site_type_symbol
_atom_site_label
_atom_site_fract_x
_atom_site_fract_y
_atom_site_fract_z
Si Si1 0.971722 0.426403 0.915049
Si Si2 0.886154 0.840128 0.585241
Si Si3 0.113273 0.750000 0.750000
Si Si4 0.059750 0.051522 0.897803
Si Si5 0.297156 0.123900 0.563083
Si Si6 0.556120 0.176905 0.888048
Si Si7 0.250000 0.000000 0.801032
O O1 0.006652 0.441875 0.753463
O O2 0.870358 0.406667 0.948627
O O3 0.000000 0.500000 0.000000
O O4 0.030244 0.360908 0.984994
O O5 0.796398 0.868539 0.516947
O O6 0.904600 0.869745 0.750595
O O7 0.888066 0.751776 0.597272
O O8 0.170036 0.799598 0.637722
O O9 0.044392 0.802370 0.840354
O O10 0.161227 0.024040 0.886625
O O11 0.061467 0.133126 0.963406
O O12 0.000000 0.000000 0.000000
O O13 0.283339 0.066234 0.695795
#
# Coordination Sequence:
#
# PCOD9414023 Si02
#       7
#     8   8   4   8   8   8   4
#     4  12  22  42  68  93 128 174 222 270 330 401
#     4  10  22  42  65  96 128 177 215 275 325 408
#     4  10  22  42  72  90 136 182 216 276 346 384
#     4  12  26  43  68  99 138 171 224 280 335 398
#     4  12  22  42  69 100 129 178 230 270 336 407
#     4  10  22  46  63  94 140 170 214 283 340 382
#     4  12  26  42  70 100 130 182 222 270 342 400
#
# _framework density 19.753086
#
# number of rings (size 3 to 8) (size 9 to 14) (size 15 to 20)
#    0.000    1.000    6.667    2.000    2.333    2.000 
#    6.000    0.000    0.000    0.000    0.000    0.000 
#    0.000    0.000    0.000    0.000    0.000    0.000 
#
# Total GULP energy -267731.914097 kJ/mol
# GULP energy per Si atom -5577.748210 kJ/mol
# Density = 1.970813 g / cm^3
# Si number density = 19.753086 Si / 1000 Ang^3
#
#
#
# Elastic Constant Matrix: (Units=GPa)
#
#
# Indices 1 2 3 4 5 6 
#
# 1 62.7611 -10.0191 -5.5684 0.0000 0.0000 0.0000
# 2 -10.0191 35.9785 20.7193 0.0000 0.0000 0.0000
# 3 -5.5684 20.7193 83.8030 0.0000 0.0000 0.0000
# 4 0.0000 0.0000 0.0000 59.0689 0.0000 0.0000
# 5 0.0000 0.0000 0.0000 0.0000 55.5283 0.0000
# 6 0.0000 0.0000 0.0000 0.0000 0.0000 -12.9658
#
#
#
# Elastic Compliance Matrix: (Units=1/GPa)
#
#
# Indices 1 2 3 4 5 6 
#
# 1 0.016675 0.004670 -0.000047 0.000000 0.000000 0.000000
# 2 0.004670 0.033717 -0.008026 0.000000 0.000000 0.000000
# 3 -0.000047 -0.008026 0.013914 0.000000 0.000000 0.000000
# 4 0.000000 0.000000 0.000000 0.016929 0.000000 0.000000
# 5 0.000000 0.000000 0.000000 0.000000 0.018009 0.000000
# 6 0.000000 0.000000 0.000000 0.000000 0.000000 -0.077126
#
#
# Mechanical properties :
#
#
# Convention : Reuss Voigt Hill
#
# Bulk Modulus (GPa) = 17.39085 21.42292 19.40689
# Shear Modulus (GPa) = 103.97325 32.15365 68.06345
#
# Velocity S-wave (km/s) = 7.26297 4.03895 5.87639
# Velocity P-wave (km/s) = 8.89705 5.71137 7.47587
#
# Compressibility (1/GPa) = 0.05750149
#
# Stress axis : x y z
#
# Youngs Moduli (GPa) = 59.97046 29.65878 71.87051
#
# Poissons Ratio (x) = -0.13852 0.00336
# Poissons Ratio (y) = -0.28009 0.57682
# Poissons Ratio (z) = 0.00280 0.23803
#
# Static dielectric constant tensor:
#      x y z
#    x 1.645550 0.000000 0.000000 
#    y 0.000000 1.702830 0.000000 
#    z 0.000000 0.000000 1.722030 
# 
# From -- ./inp_files/10537.got.cif
#   From: 2010.05.17/outbox.ucp.g08.bks.cvg/sg52_6_cif.got.tgz:10537.got - 2010.06.11 16:30:12.
