data_PCOD9414694
_publ_section_title
;
Structure prediction by ZEFSAII (Michael W. Deem and Ramdas Pophale) SiO2 
 PCOD9414694
Probable space group: P M N A
;
_chemical_formula_sum "Si O2"
_cell_formula_units_Z 60
_cell_length_a 14.048593
_cell_length_b 11.784979
_cell_length_c 21.436651
_cell_angle_alpha 90.000000
_cell_angle_beta 90.000000
_cell_angle_gamma 90.000000
_cell_volume 3549.102819
_symmetry_space_group_name_H-M "P M N A"
_symmetry_group_IT_number 53
_symmetry_cell_setting 'orthorhombic'
loop_
_space_group_symop_operation_xyz
x,y,z
1/2-x,-y,1/2+z
x,-y,-z
1/2-x,y,1/2-z
-x,-y,-z
1/2+x,y,1/2-z
-x,y,z
1/2+x,-y,1/2+z
loop_
_atom_site_type_symbol
_atom_site_label
_atom_site_fract_x
_atom_site_fract_y
_atom_site_fract_z
Si Si1 0.250000 0.717996 0.750000
Si Si2 0.214491 0.996306 0.574388
Si Si3 0.396071 0.644165 0.654138
Si Si4 0.610585 0.850903 0.556952
Si Si5 0.113606 0.212235 0.359433
Si Si6 0.761331 0.233191 0.942808
Si Si7 0.113016 0.629637 0.523836
Si Si8 0.891669 0.434343 0.936509
O O1 0.316131 0.645836 0.705209
O O2 0.322001 0.782621 0.797079
O O3 0.321919 0.949397 0.582506
O O4 0.145818 0.903571 0.605418
O O5 0.192411 0.000000 0.500000
O O6 0.219639 0.127243 0.595385
O O7 0.500000 0.660466 0.683450
O O8 0.382726 0.745996 0.604678
O O9 0.395517 0.529970 0.615275
O O10 0.500000 0.879925 0.548718
O O11 0.662329 0.815219 0.493124
O O12 0.134294 0.321114 0.405883
O O13 0.000000 0.211637 0.347604
O O14 0.821060 0.336366 0.914512
O O15 0.674922 0.289372 0.980265
O O16 0.132725 0.500000 0.500000
O O17 0.000000 0.646048 0.515949
O O18 0.000000 0.391811 0.948980
O O19 0.860761 0.500000 0.000000
#
# Coordination Sequence:
#
# PCOD9414694 Si02
#       8
#     4   8   8   8   8   8   8   8
#     4  12  22  38  58  84 110 146 194 234 274 330
#     4  10  20  34  51  84 111 149 185 230 282 345
#     4  10  20  34  55  82 110 145 186 229 274 329
#     4  10  18  31  49  77 114 143 175 221 271 322
#     4  11  23  40  60  84 115 150 187 236 285 334
#     4  11  19  29  52  79 113 144 181 217 275 338
#     4  10  21  35  54  83 116 147 178 224 289 348
#     4  10  19  31  52  82 117 150 181 222 283 343
#
# _framework density 16.905681000000001
#
# number of rings (size 3 to 8) (size 9 to 14) (size 15 to 20)
#    0.000    1.600    5.333    1.200    1.867    3.733 
#    0.000    0.000    0.000    0.800    0.000    1.867 
#    0.000    0.000    0.000    0.000    0.000    0.000 
#
# Total GULP energy -334159.903652 kJ/mol
# GULP energy per Si atom -5569.331728 kJ/mol
# Density = 1.686720 g / cm^3
# Si number density = 16.905681 Si / 1000 Ang^3
#
#
#
# Elastic Constant Matrix: (Units=GPa)
#
#
# Indices 1 2 3 4 5 6 
#
# 1 94.4205 37.6476 39.0820 0.0000 0.0000 0.0000
# 2 37.6476 99.1221 28.5903 0.0000 0.0000 0.0000
# 3 39.0820 28.5903 54.5780 0.0000 0.0000 0.0000
# 4 0.0000 0.0000 0.0000 13.0459 0.0000 0.0000
# 5 0.0000 0.0000 0.0000 0.0000 26.9266 0.0000
# 6 0.0000 0.0000 0.0000 0.0000 0.0000 20.0974
#
#
#
# Elastic Compliance Matrix: (Units=1/GPa)
#
#
# Indices 1 2 3 4 5 6 
#
# 1 0.015891 -0.003243 -0.009680 0.000000 0.000000 0.000000
# 2 -0.003243 0.012546 -0.004250 0.000000 0.000000 0.000000
# 3 -0.009680 -0.004250 0.027480 0.000000 0.000000 0.000000
# 4 0.000000 0.000000 0.000000 0.076652 0.000000 0.000000
# 5 0.000000 0.000000 0.000000 0.000000 0.037138 0.000000
# 6 0.000000 0.000000 0.000000 0.000000 0.000000 0.049758
#
#
# Mechanical properties :
#
#
# Convention : Reuss Voigt Hill
#
# Bulk Modulus (GPa) = 46.35856 50.97336 48.66596
# Shear Modulus (GPa) = 19.15694 21.53402 20.34548
#
# Velocity S-wave (km/s) = 3.36990 3.57287 3.47287
# Velocity P-wave (km/s) = 6.52864 6.87296 6.70301
#
# Compressibility (1/GPa) = 0.02157099
#
# Stress axis : x y z
#
# Youngs Moduli (GPa) = 62.92926 79.70521 36.38985
#
# Poissons Ratio (x) = 0.25852 0.35225
# Poissons Ratio (y) = 0.20411 0.15465
# Poissons Ratio (z) = 0.60915 0.33872
#
# Static dielectric constant tensor:
#      x y z
#    x 1.604110 0.000000 0.000000 
#    y 0.000000 1.625470 0.000000 
#    z 0.000000 0.000000 1.567090 
# 
# From -- ./inp_files/32594.got.cif
#   From: 2010.05.17/outbox.cif.g08.bks.cpg/sg53_17_cif.got.tgz:32594.got - 2010.06.03 12:45:16.
