data_PCOD9414345
_publ_section_title
;
Structure prediction by ZEFSAII (Michael W. Deem and Ramdas Pophale) SiO2 
 PCOD9414345
Probable space group: P M N A
;
_chemical_formula_sum "Si O2"
_cell_formula_units_Z 40
_cell_length_a 26.322311
_cell_length_b 5.177754
_cell_length_c 20.446189
_cell_angle_alpha 90.000000
_cell_angle_beta 90.000000
_cell_angle_gamma 90.000000
_cell_volume 2786.620321
_symmetry_space_group_name_H-M "P M N A"
_symmetry_group_IT_number 53
_symmetry_cell_setting 'orthorhombic'
loop_
_space_group_symop_operation_xyz
x,y,z
1/2-x,-y,1/2+z
x,-y,-z
1/2-x,y,1/2-z
-x,-y,-z
1/2+x,y,1/2-z
-x,y,z
1/2+x,-y,1/2+z
loop_
_atom_site_type_symbol
_atom_site_label
_atom_site_fract_x
_atom_site_fract_y
_atom_site_fract_z
Si Si1 0.361613 0.081861 0.849317
Si Si2 0.831765 0.576214 0.722234
Si Si3 0.276404 0.597361 0.646391
Si Si4 0.745972 0.909347 0.074802
Si Si5 0.058289 0.743335 0.456088
O O1 0.354226 0.299847 0.794982
O O2 0.311102 0.084878 0.895148
O O3 0.407398 0.177550 0.894846
O O4 0.363289 0.806298 0.812552
O O5 0.820296 0.587498 0.799236
O O6 0.776721 0.588184 0.686613
O O7 0.270670 0.365741 0.593959
O O8 0.277652 0.871521 0.611688
O O9 0.743286 0.000000 0.000000
O O10 0.077433 0.500000 0.500000
O O11 0.000000 0.680413 0.437232
O O12 0.057742 0.000000 0.500000
#
# Coordination Sequence:
#
# PCOD9414345 Si02
#       5
#     8   8   8   8   8
#     4  10  18  28  43  59  76 102 141 175 199 233
#     4   9  17  28  42  57  74 101 134 171 203 232
#     4   9  17  28  39  55  79 102 131 167 202 237
#     4  10  18  26  39  58  80 106 135 167 199 233
#     4  10  20  32  44  59  82 109 136 171 213 247
#
# _framework density 14.354305
#
# number of rings (size 3 to 8) (size 9 to 14) (size 15 to 20)
#    0.000    2.400    0.000    3.600    0.000    8.000 
#    0.000    0.000    0.000    0.000    0.000    0.000 
#    0.000    0.000    0.000    0.000    0.000   70.000 
#
# Total GULP energy -222682.788141 kJ/mol
# GULP energy per Si atom -5567.069704 kJ/mol
# Density = 1.432163 g / cm^3
# Si number density = 14.354305 Si / 1000 Ang^3
#
#
#
# Elastic Constant Matrix: (Units=GPa)
#
#
# Indices 1 2 3 4 5 6 
#
# 1 29.3364 9.5869 30.2389 0.0000 0.0000 0.0000
# 2 9.5869 76.9610 16.2940 0.0000 0.0000 0.0000
# 3 30.2389 16.2940 60.4755 0.0000 0.0000 0.0000
# 4 0.0000 0.0000 0.0000 22.8438 0.0000 0.0000
# 5 0.0000 0.0000 0.0000 0.0000 -2.1676 0.0000
# 6 0.0000 0.0000 0.0000 0.0000 0.0000 -4.1399
#
#
#
# Elastic Compliance Matrix: (Units=1/GPa)
#
#
# Indices 1 2 3 4 5 6 
#
# 1 0.070483 -0.001398 -0.034866 0.000000 0.000000 0.000000
# 2 -0.001398 0.013807 -0.003021 0.000000 0.000000 0.000000
# 3 -0.034866 -0.003021 0.034783 0.000000 0.000000 0.000000
# 4 0.000000 0.000000 0.000000 0.043776 0.000000 0.000000
# 5 0.000000 0.000000 0.000000 0.000000 -0.461340 0.000000
# 6 0.000000 0.000000 0.000000 0.000000 0.000000 -0.241549
#
#
# Mechanical properties :
#
#
# Convention : Reuss Voigt Hill
#
# Bulk Modulus (GPa) = 24.68949 31.00140 27.84545
# Shear Modulus (GPa) = -11.16153 10.68412 -0.23870
#
# Velocity S-wave (km/s) = -2.79153 2.73117 -0.40823
# Velocity P-wave (km/s) = 2.61672 5.62049 4.38390
#
# Compressibility (1/GPa) = 0.04050306
#
# Stress axis : x y z
#
# Youngs Moduli (GPa) = 14.18776 72.42511 28.74934
#
# Poissons Ratio (x) = 0.10126 1.00238
# Poissons Ratio (y) = 0.01984 0.08685
# Poissons Ratio (z) = 0.49467 0.21880
#
# Static dielectric constant tensor:
#      x y z
#    x 1.468240 0.000000 0.000000 
#    y 0.000000 1.489800 0.000000 
#    z 0.000000 0.000000 1.485520 
# 
# From -- ./inp_files/24552.got.cif
#   From: 2010.05.17/outbox.cif.g08.bks.cpg/sg53_13_cif.got.tgz:24552.got - 2010.06.03 12:45:16.
