data_PCOD9414712
_publ_section_title
;
Structure prediction by ZEFSAII (Michael W. Deem and Ramdas Pophale) SiO2 
 PCOD9414712
Probable space group: P M N A
;
_chemical_formula_sum "Si O2"
_cell_formula_units_Z 64
_cell_length_a 8.875628
_cell_length_b 16.508646
_cell_length_c 24.871777
_cell_angle_alpha 90.000000
_cell_angle_beta 90.000000
_cell_angle_gamma 90.000000
_cell_volume 3644.327193
_symmetry_space_group_name_H-M "P M N A"
_symmetry_group_IT_number 53
_symmetry_cell_setting 'orthorhombic'
loop_
_space_group_symop_operation_xyz
x,y,z
1/2-x,-y,1/2+z
x,-y,-z
1/2-x,y,1/2-z
-x,-y,-z
1/2+x,y,1/2-z
-x,y,z
1/2+x,-y,1/2+z
loop_
_atom_site_type_symbol
_atom_site_label
_atom_site_fract_x
_atom_site_fract_y
_atom_site_fract_z
Si Si1 0.680540 0.639545 0.393688
Si Si2 0.320575 0.982356 0.693273
Si Si3 0.317079 0.711233 0.582169
Si Si4 0.182873 0.472340 0.059173
Si Si5 0.826141 0.896791 0.386934
Si Si6 0.673700 0.255666 0.806189
Si Si7 0.181810 0.772021 0.474226
Si Si8 0.180902 0.206874 0.193814
O O1 0.500000 0.646119 0.398469
O O2 0.724926 0.546211 0.402030
O O3 0.737057 0.674759 0.337567
O O4 0.753287 0.696470 0.439734
O O5 0.250000 0.011807 0.750000
O O6 0.500000 0.988328 0.697799
O O7 0.277110 0.887910 0.687374
O O8 0.265827 0.032620 0.641783
O O9 0.500000 0.714957 0.577802
O O10 0.267952 0.617771 0.574269
O O11 0.246026 0.763184 0.533899
O O12 0.273503 0.744368 0.640691
O O13 0.000000 0.469348 0.057916
O O14 0.233597 0.500000 0.000000
O O15 0.822305 0.822550 0.344575
O O16 0.773689 0.854431 0.442381
O O17 0.000000 0.922490 0.393462
O O18 0.750000 0.236921 0.750000
O O19 0.500000 0.278748 0.798852
O O20 0.000000 0.768247 0.473431
O O21 0.250000 0.236221 0.250000
O O22 0.000000 0.210773 0.197826
#
# Coordination Sequence:
#
# PCOD9414712 Si02
#       8
#     8   8   8   8   8   8   8   8
#     4  10  18  31  51  73 101 136 172 209 254 301
#     4  10  19  32  52  77 101 130 172 215 257 303
#     4  10  19  35  57  78 103 135 172 212 256 308
#     4   9  16  29  52  80 102 128 170 210 249 303
#     4   9  19  33  49  72 103 135 169 210 252 299
#     4  10  20  33  48  70 102 137 175 211 252 306
#     4  10  20  33  49  75 108 137 169 209 254 305
#     4   9  20  37  57  79 103 133 169 213 259 304
#
# _framework density 17.561540000000001
#
# number of rings (size 3 to 8) (size 9 to 14) (size 15 to 20)
#    0.000    2.375    1.250    2.625    0.000    5.000 
#    0.000    3.125    0.000    5.250    0.000    0.000 
#    0.000    0.000    0.000    0.000    0.000    0.000 
#
# Total GULP energy -356868.401376 kJ/mol
# GULP energy per Si atom -5576.068771 kJ/mol
# Density = 1.752157 g / cm^3
# Si number density = 17.561540 Si / 1000 Ang^3
#
#
#
# Elastic Constant Matrix: (Units=GPa)
#
#
# Indices 1 2 3 4 5 6 
#
# 1 38.1999 24.2691 30.6340 0.0000 0.0000 0.0000
# 2 24.2691 73.5328 48.3999 0.0000 0.0000 0.0000
# 3 30.6340 48.3999 115.2707 0.0000 0.0000 0.0000
# 4 0.0000 0.0000 0.0000 24.8144 0.0000 0.0000
# 5 0.0000 0.0000 0.0000 0.0000 29.5074 0.0000
# 6 0.0000 0.0000 0.0000 0.0000 0.0000 11.2680
#
#
#
# Elastic Compliance Matrix: (Units=1/GPa)
#
#
# Indices 1 2 3 4 5 6 
#
# 1 0.036214 -0.007763 -0.006365 0.000000 0.000000 0.000000
# 2 -0.007763 0.020457 -0.006527 0.000000 0.000000 0.000000
# 3 -0.006365 -0.006527 0.013107 0.000000 0.000000 0.000000
# 4 0.000000 0.000000 0.000000 0.040299 0.000000 0.000000
# 5 0.000000 0.000000 0.000000 0.000000 0.033890 0.000000
# 6 0.000000 0.000000 0.000000 0.000000 0.000000 0.088747
#
#
# Mechanical properties :
#
#
# Convention : Reuss Voigt Hill
#
# Bulk Modulus (GPa) = 35.12459 48.17882 41.65171
# Shear Modulus (GPa) = 17.63587 21.36464 19.50025
#
# Velocity S-wave (km/s) = 3.17240 3.49170 3.33587
# Velocity P-wave (km/s) = 5.78473 6.61437 6.21341
#
# Compressibility (1/GPa) = 0.02847008
#
# Stress axis : x y z
#
# Youngs Moduli (GPa) = 27.61360 48.88209 76.29482
#
# Poissons Ratio (x) = 0.37947 0.48558
# Poissons Ratio (y) = 0.21437 0.49794
# Poissons Ratio (z) = 0.17575 0.31903
#
# Static dielectric constant tensor:
#      x y z
#    x 1.592790 0.000000 0.000000 
#    y 0.000000 1.600860 0.000000 
#    z 0.000000 0.000000 1.592280 
# 
# From -- ./inp_files/34201.got.cif
#   From: 2010.05.17/outbox.cif.g08.bks.cpg/sg53_18_cif.got.tgz:34201.got - 2010.06.03 12:45:16.
