data_PCOD9414947
_publ_section_title
;
Structure prediction by ZEFSAII (Michael W. Deem and Ramdas Pophale) SiO2 
 PCOD9414947
Probable space group: P M N A
;
_chemical_formula_sum "Si O2"
_cell_formula_units_Z 48
_cell_length_a 8.244770
_cell_length_b 15.008712
_cell_length_c 21.065892
_cell_angle_alpha 90.000000
_cell_angle_beta 90.000000
_cell_angle_gamma 90.000000
_cell_volume 2606.764646
_symmetry_space_group_name_H-M "P M N A"
_symmetry_group_IT_number 53
_symmetry_cell_setting 'orthorhombic'
loop_
_space_group_symop_operation_xyz
x,y,z
1/2-x,-y,1/2+z
x,-y,-z
1/2-x,y,1/2-z
-x,-y,-z
1/2+x,y,1/2-z
-x,y,z
1/2+x,-y,1/2+z
loop_
_atom_site_type_symbol
_atom_site_label
_atom_site_fract_x
_atom_site_fract_y
_atom_site_fract_z
Si Si1 0.304163 0.751346 0.372748
Si Si2 0.304122 0.560824 0.320579
Si Si3 0.301819 0.248781 0.479658
Si Si4 0.301868 0.442478 0.438452
Si Si5 0.304217 0.944055 0.561599
Si Si6 0.691875 0.940097 0.179705
O O1 0.500000 0.750208 0.372898
O O2 0.247511 0.660408 0.339472
O O3 0.251874 0.752731 0.446424
O O4 0.250516 0.840676 0.337854
O O5 0.250000 0.537888 0.250000
O O6 0.500000 0.561889 0.322396
O O7 0.248234 0.491716 0.374501
O O8 0.500000 0.249209 0.479564
O O9 0.248381 0.340677 0.447350
O O10 0.248431 0.157880 0.445957
O O11 0.253291 0.500000 0.500000
O O12 0.500000 0.442301 0.438118
O O13 0.500000 0.943818 0.559573
O O14 0.247921 0.000000 0.500000
O O15 0.253647 0.993022 0.625595
O O16 0.750000 0.964195 0.250000
O O17 0.500000 0.940347 0.178770
#
# Coordination Sequence:
#
# PCOD9414947 Si02
#       6
#     8   8   8   8   8   8
#     4  10  18  33  56  83 111 141 176 222 276 328
#     4  10  20  32  52  79 111 144 179 221 267 322
#     4   9  16  29  54  84 110 138 179 225 268 318
#     4   9  15  28  52  81 107 138 182 224 258 307
#     4  10  19  35  59  83 111 146 183 223 271 330
#     4  12  25  39  56  80 112 147 184 228 277 330
#
# _framework density 18.413630999999999
#
# number of rings (size 3 to 8) (size 9 to 14) (size 15 to 20)
#    0.000    2.000    3.333    2.000    0.000    2.333 
#    0.000    0.833    0.000    4.500    0.000    0.000 
#    0.000    0.000    0.000    0.000    0.000    0.000 
#
# Total GULP energy -267980.831452 kJ/mol
# GULP energy per Si atom -5582.933989 kJ/mol
# Density = 1.837172 g / cm^3
# Si number density = 18.413631 Si / 1000 Ang^3
#
#
#
# Elastic Constant Matrix: (Units=GPa)
#
#
# Indices 1 2 3 4 5 6 
#
# 1 10.0840 18.7393 13.4017 0.0000 0.0000 0.0000
# 2 18.7393 172.4128 106.2995 0.0000 0.0000 0.0000
# 3 13.4017 106.2995 183.9187 0.0000 0.0000 0.0000
# 4 0.0000 0.0000 0.0000 30.1152 0.0000 0.0000
# 5 0.0000 0.0000 0.0000 0.0000 24.8883 0.0000
# 6 0.0000 0.0000 0.0000 0.0000 0.0000 8.9741
#
#
#
# Elastic Compliance Matrix: (Units=1/GPa)
#
#
# Indices 1 2 3 4 5 6 
#
# 1 0.124713 -0.012354 -0.001947 0.000000 0.000000 0.000000
# 2 -0.012354 0.010235 -0.005015 0.000000 0.000000 0.000000
# 3 -0.001947 -0.005015 0.008478 0.000000 0.000000 0.000000
# 4 0.000000 0.000000 0.000000 0.033206 0.000000 0.000000
# 5 0.000000 0.000000 0.000000 0.000000 0.040180 0.000000
# 6 0.000000 0.000000 0.000000 0.000000 0.000000 0.111432
#
#
# Mechanical properties :
#
#
# Convention : Reuss Voigt Hill
#
# Bulk Modulus (GPa) = 9.54268 71.47739 40.51003
# Shear Modulus (GPa) = 12.44376 27.99384 20.21880
#
# Velocity S-wave (km/s) = 2.60242 3.90330 3.31726
# Velocity P-wave (km/s) = 3.77144 7.69521 6.05971
#
# Compressibility (1/GPa) = 0.10479239
#
# Stress axis : x y z
#
# Youngs Moduli (GPa) = 8.01839 97.70480 117.95627
#
# Poissons Ratio (x) = 1.20709 0.22967
# Poissons Ratio (y) = 0.09906 0.59158
# Poissons Ratio (z) = 0.01561 0.49001
#
# Static dielectric constant tensor:
#      x y z
#    x 1.646260 0.000000 0.000000 
#    y 0.000000 1.634900 0.000000 
#    z 0.000000 0.000000 1.587700 
# 
# From -- ./inp_files/26189.got.cif
#   From: 2010.05.17/outbox.cif.g08.bks.cpg/sg53_14_cif.got.tgz:26189.got - 2010.06.03 12:45:16.
