data_PCOD9414938
_publ_section_title
;
Structure prediction by ZEFSAII (Michael W. Deem and Ramdas Pophale) SiO2 
 PCOD9414938
Probable space group: P M N A
;
_chemical_formula_sum "Si O2"
_cell_formula_units_Z 40
_cell_length_a 10.171850
_cell_length_b 12.505203
_cell_length_c 17.700580
_cell_angle_alpha 90.000000
_cell_angle_beta 90.000000
_cell_angle_gamma 90.000000
_cell_volume 2251.532346
_symmetry_space_group_name_H-M "P M N A"
_symmetry_group_IT_number 53
_symmetry_cell_setting 'orthorhombic'
loop_
_space_group_symop_operation_xyz
x,y,z
1/2-x,-y,1/2+z
x,-y,-z
1/2-x,y,1/2-z
-x,-y,-z
1/2+x,y,1/2-z
-x,y,z
1/2+x,-y,1/2+z
loop_
_atom_site_type_symbol
_atom_site_label
_atom_site_fract_x
_atom_site_fract_y
_atom_site_fract_z
Si Si1 0.000000 0.761443 0.843188
Si Si2 0.235655 0.874588 0.615476
Si Si3 0.500000 0.726696 0.825734
Si Si4 0.000000 0.618328 0.528069
Si Si5 0.000000 0.370157 0.002250
Si Si6 0.342218 0.893593 0.176254
Si Si7 0.739658 0.245770 0.963543
O O1 0.873615 0.837646 0.849671
O O2 0.000000 0.704703 0.762445
O O3 0.000000 0.676281 0.911669
O O4 0.248449 0.849275 0.526149
O O5 0.125605 0.797217 0.650913
O O6 0.193613 0.993530 0.636590
O O7 0.500000 0.626235 0.881346
O O8 0.000000 0.500000 0.500000
O O9 0.125794 0.679245 0.495931
O O10 0.000000 0.500000 0.000000
O O11 0.127828 0.315719 0.964350
O O12 0.250000 0.884976 0.250000
O O13 0.500000 0.890392 0.191733
O O14 0.301855 0.802610 0.116307
#
# Coordination Sequence:
#
# PCOD9414938 Si02
#       7
#     4   8   4   4   4   8   8
#     4  10  20  35  55  91 119 147 198 249 301 346
#     4  10  21  35  60  85 119 157 194 238 293 356
#     4  10  18  33  55  85 115 149 192 255 301 340
#     4  10  20  37  61  85 111 149 208 253 299 352
#     4  10  22  41  63  85 119 161 200 251 305 356
#     4  12  25  39  59  89 126 163 196 236 292 357
#     4  10  22  40  61  86 116 158 201 246 296 358
#
# _framework density 17.76568
#
# number of rings (size 3 to 8) (size 9 to 14) (size 15 to 20)
#    0.000    1.600    2.000    3.000    2.800    0.800 
#    0.000    5.000    0.000    0.000    0.000    0.000 
#    0.000    0.000    0.000    0.000    0.000    0.000 
#
# Total GULP energy -223258.040327 kJ/mol
# GULP energy per Si atom -5581.451008 kJ/mol
# Density = 1.772524 g / cm^3
# Si number density = 17.765680 Si / 1000 Ang^3
#
#
#
# Elastic Constant Matrix: (Units=GPa)
#
#
# Indices 1 2 3 4 5 6 
#
# 1 178.6228 47.2710 50.1545 0.0000 0.0000 0.0000
# 2 47.2710 91.4900 57.4830 0.0000 0.0000 0.0000
# 3 50.1545 57.4830 100.7871 0.0000 0.0000 0.0000
# 4 0.0000 0.0000 0.0000 17.6662 0.0000 0.0000
# 5 0.0000 0.0000 0.0000 0.0000 30.0974 0.0000
# 6 0.0000 0.0000 0.0000 0.0000 0.0000 35.0653
#
#
#
# Elastic Compliance Matrix: (Units=1/GPa)
#
#
# Indices 1 2 3 4 5 6 
#
# 1 0.006769 -0.002152 -0.002141 0.000000 0.000000 0.000000
# 2 -0.002152 0.017719 -0.009035 0.000000 0.000000 0.000000
# 3 -0.002141 -0.009035 0.016140 0.000000 0.000000 0.000000
# 4 0.000000 0.000000 0.000000 0.056605 0.000000 0.000000
# 5 0.000000 0.000000 0.000000 0.000000 0.033225 0.000000
# 6 0.000000 0.000000 0.000000 0.000000 0.000000 0.028518
#
#
# Mechanical properties :
#
#
# Convention : Reuss Voigt Hill
#
# Bulk Modulus (GPa) = 71.57112 75.63522 73.60317
# Shear Modulus (GPa) = 26.27567 30.96519 28.62043
#
# Velocity S-wave (km/s) = 3.84997 4.17943 4.01808
# Velocity P-wave (km/s) = 7.75478 8.12135 7.94018
#
# Compressibility (1/GPa) = 0.01397212
#
# Stress axis : x y z
#
# Youngs Moduli (GPa) = 147.72946 56.43766 61.95734
#
# Poissons Ratio (x) = 0.12147 0.13265
# Poissons Ratio (y) = 0.31796 0.55976
# Poissons Ratio (z) = 0.31628 0.50989
#
# Static dielectric constant tensor:
#      x y z
#    x 1.410800 0.000000 0.000000 
#    y 0.000000 1.569440 0.000000 
#    z 0.000000 0.000000 1.619390 
# 
# From -- ./inp_files/25930.got.cif
#   From: 2010.05.17/outbox.cif.g08.bks.cpg/sg53_13_cif.got.tgz:25930.got - 2010.06.03 12:45:16.
