data_PCOD9414123
_publ_section_title
;
Structure prediction by ZEFSAII (Michael W. Deem and Ramdas Pophale) SiO2 
 PCOD9414123
Probable space group: P M N A
;
_chemical_formula_sum "Si O2"
_cell_formula_units_Z 32
_cell_length_a 10.862534
_cell_length_b 10.481654
_cell_length_c 13.058386
_cell_angle_alpha 90.000000
_cell_angle_beta 90.000000
_cell_angle_gamma 90.000000
_cell_volume 1486.792872
_symmetry_space_group_name_H-M "P M N A"
_symmetry_group_IT_number 53
_symmetry_cell_setting 'orthorhombic'
loop_
_space_group_symop_operation_xyz
x,y,z
1/2-x,-y,1/2+z
x,-y,-z
1/2-x,y,1/2-z
-x,-y,-z
1/2+x,y,1/2-z
-x,y,z
1/2+x,-y,1/2+z
loop_
_atom_site_type_symbol
_atom_site_label
_atom_site_fract_x
_atom_site_fract_y
_atom_site_fract_z
Si Si1 0.250000 0.706150 0.750000
Si Si2 0.139002 0.514144 0.379408
Si Si3 0.500000 0.874749 0.371565
Si Si4 0.500000 0.090677 0.863884
Si Si5 0.500000 0.862521 0.723055
Si Si6 0.241512 0.794177 0.366826
O O1 0.291509 0.609273 0.838593
O O2 0.371862 0.786174 0.720917
O O3 0.128458 0.500000 0.500000
O O4 0.210391 0.645452 0.359601
O O5 0.000000 0.520832 0.335047
O O6 0.500000 0.837449 0.248637
O O7 0.373359 0.821683 0.415885
O O8 0.500000 0.027827 0.364115
O O9 0.375338 0.136019 0.916992
O O10 0.500000 0.944625 0.829247
O O11 0.250000 0.848581 0.250000
#
# Coordination Sequence:
#
# PCOD9414123 Si02
#       6
#     4   8   4   4   4   8
#     4  12  22  38  64  88 126 170 190 244 318 374
#     4  11  24  40  61  91 126 161 205 254 300 367
#     4   8  18  29  54  90 111 146 198 254 281 348
#     4   8  16  29  54  86 109 154 198 244 273 358
#     4  10  20  34  58  94 122 156 208 234 312 374
#     4  10  16  32  59  86 111 151 202 243 296 336
#
# _framework density 21.522836999999999
#
# number of rings (size 3 to 8) (size 9 to 14) (size 15 to 20)
#    0.750    1.250    3.750    1.500    0.000    1.000 
#    0.000    2.500    0.000    9.000    0.000    0.000 
#    0.000    0.000    0.000    0.000    0.000    0.000 
#
# Total GULP energy -178449.545556 kJ/mol
# GULP energy per Si atom -5576.548299 kJ/mol
# Density = 2.147385 g / cm^3
# Si number density = 21.522837 Si / 1000 Ang^3
#
#
#
# Elastic Constant Matrix: (Units=GPa)
#
#
# Indices 1 2 3 4 5 6 
#
# 1 270.1683 113.5785 9.8103 0.0000 0.0000 0.0000
# 2 113.5785 150.4256 4.1252 0.0000 0.0000 0.0000
# 3 9.8103 4.1252 20.6499 0.0000 0.0000 0.0000
# 4 0.0000 0.0000 0.0000 -3.3943 0.0000 0.0000
# 5 0.0000 0.0000 0.0000 0.0000 8.5198 0.0000
# 6 0.0000 0.0000 0.0000 0.0000 0.0000 50.9966
#
#
#
# Elastic Compliance Matrix: (Units=1/GPa)
#
#
# Indices 1 2 3 4 5 6 
#
# 1 0.005488 -0.004094 -0.001789 0.000000 0.000000 0.000000
# 2 -0.004094 0.009739 0.000000 0.000000 0.000000 0.000000
# 3 -0.001789 0.000000 0.049277 0.000000 0.000000 0.000000
# 4 0.000000 0.000000 0.000000 -0.294611 0.000000 0.000000
# 5 0.000000 0.000000 0.000000 0.000000 0.117373 0.000000
# 6 0.000000 0.000000 0.000000 0.000000 0.000000 0.019609
#
#
# Mechanical properties :
#
#
# Convention : Reuss Voigt Hill
#
# Bulk Modulus (GPa) = 18.96253 77.36352 48.16302
# Shear Modulus (GPa) = -78.39617 32.13976 -23.12821
#
# Velocity S-wave (km/s) = -6.04183 3.86850 -3.28165
# Velocity P-wave (km/s) = 6.31206 7.48175 2.84029
#
# Compressibility (1/GPa) = 0.05273557
#
# Stress axis : x y z
#
# Youngs Moduli (GPa) = 182.22824 102.67738 20.29362
#
# Poissons Ratio (x) = 0.42040 0.03631
# Poissons Ratio (y) = 0.74611 0.00001
# Poissons Ratio (z) = 0.32603 0.00005
#
# Static dielectric constant tensor:
#      x y z
#    x 1.915500 0.000000 0.000000 
#    y 0.000000 1.748930 0.000000 
#    z 0.000000 0.000000 1.808380 
# 
# From -- ./inp_files/19675.got.cif
#   From: 2010.05.17/outbox.cif.g08.bks.cpg/sg53_10_cif.got.tgz:19675.got - 2010.06.03 12:45:16.
