data_PCOD9414068
_publ_section_title
;
Structure prediction by ZEFSAII (Michael W. Deem and Ramdas Pophale) SiO2 
 PCOD9414068
Probable space group: P M N A
;
_chemical_formula_sum "Si O2"
_cell_formula_units_Z 64
_cell_length_a 8.871539
_cell_length_b 21.233797
_cell_length_c 20.552349
_cell_angle_alpha 90.000000
_cell_angle_beta 90.000000
_cell_angle_gamma 90.000000
_cell_volume 3871.578712
_symmetry_space_group_name_H-M "P M N A"
_symmetry_group_IT_number 53
_symmetry_cell_setting 'orthorhombic'
loop_
_space_group_symop_operation_xyz
x,y,z
1/2-x,-y,1/2+z
x,-y,-z
1/2-x,y,1/2-z
-x,-y,-z
1/2+x,y,1/2-z
-x,y,z
1/2+x,-y,1/2+z
loop_
_atom_site_type_symbol
_atom_site_label
_atom_site_fract_x
_atom_site_fract_y
_atom_site_fract_z
Si Si1 0.821679 0.664813 0.462166
Si Si2 0.182063 0.069157 0.936202
Si Si3 0.324159 0.185196 0.398080
Si Si4 0.319424 0.683465 0.885053
Si Si5 0.174249 0.207027 0.945062
Si Si6 0.318629 0.466278 0.566626
Si Si7 0.680541 0.056750 0.081631
Si Si8 0.681034 0.562127 0.680663
O O1 0.781018 0.668084 0.539224
O O2 0.770753 0.731216 0.431773
O O3 0.744502 0.603989 0.431491
O O4 0.000000 0.658501 0.457859
O O5 0.216736 0.140155 0.912894
O O6 0.000000 0.064058 0.943136
O O7 0.247276 0.009861 0.896786
O O8 0.259050 0.064298 0.007381
O O9 0.500000 0.182091 0.380516
O O10 0.245029 0.247261 0.369965
O O11 0.316735 0.194668 0.476823
O O12 0.241708 0.119365 0.383169
O O13 0.500000 0.683257 0.878758
O O14 0.245498 0.629404 0.841905
O O15 0.000000 0.220394 0.930004
O O16 0.266701 0.500000 0.500000
O O17 0.500000 0.463067 0.564630
O O18 0.275150 0.510281 0.626835
O O19 0.500000 0.054244 0.082394
O O20 0.750000 0.545584 0.750000
O O21 0.500000 0.565249 0.683609
#
# Coordination Sequence:
#
# PCOD9414068 Si02
#       8
#     8   8   8   8   8   8   8   8
#     4  10  19  28  45  70  94 118 151 199 244 282
#     4   9  15  23  33  46  69 107 148 185 226 277
#     4   9  16  26  39  55  78 111 150 190 229 275
#     4  10  19  31  47  69  94 120 153 196 241 286
#     4   8  15  25  37  53  78 112 149 187 229 280
#     4  10  20  35  54  73  95 126 162 198 240 296
#     4  10  16  21  31  49  73 104 143 189 232 273
#     4  11  23  38  55  74  98 129 161 199 245 295
#
# _framework density 16.530723999999999
#
# number of rings (size 3 to 8) (size 9 to 14) (size 15 to 20)
#    0.000    2.375    1.250    4.500    0.000    5.750 
#    0.000    0.000    0.000    0.000    0.000    0.000 
#    0.000    0.000    0.000    1.125    0.000   18.750 
#
# Total GULP energy -356602.476306 kJ/mol
# GULP energy per Si atom -5571.913692 kJ/mol
# Density = 1.649310 g / cm^3
# Si number density = 16.530724 Si / 1000 Ang^3
#
#
#
# Elastic Constant Matrix: (Units=GPa)
#
#
# Indices 1 2 3 4 5 6 
#
# 1 68.9591 55.2459 28.0805 0.0000 0.0000 0.0000
# 2 55.2459 156.9390 44.2684 0.0000 0.0000 0.0000
# 3 28.0805 44.2684 45.4412 0.0000 0.0000 0.0000
# 4 0.0000 0.0000 0.0000 7.6768 0.0000 0.0000
# 5 0.0000 0.0000 0.0000 0.0000 10.1449 0.0000
# 6 0.0000 0.0000 0.0000 0.0000 0.0000 -51.3076
#
#
#
# Elastic Compliance Matrix: (Units=1/GPa)
#
#
# Indices 1 2 3 4 5 6 
#
# 1 0.022335 -0.005473 -0.008470 0.000000 0.000000 0.000000
# 2 -0.005473 0.010128 -0.006484 0.000000 0.000000 0.000000
# 3 -0.008470 -0.006484 0.033557 0.000000 0.000000 0.000000
# 4 0.000000 0.000000 0.000000 0.130263 0.000000 0.000000
# 5 0.000000 0.000000 0.000000 0.000000 0.098572 0.000000
# 6 0.000000 0.000000 0.000000 0.000000 0.000000 -0.019490
#
#
# Mechanical properties :
#
#
# Convention : Reuss Voigt Hill
#
# Bulk Modulus (GPa) = 39.73720 58.50323 49.12021
# Shear Modulus (GPa) = 15.40321 2.88576 9.14449
#
# Velocity S-wave (km/s) = 3.05584 1.32268 2.35453
# Velocity P-wave (km/s) = 6.04495 6.14818 6.09678
#
# Compressibility (1/GPa) = 0.02516534
#
# Stress axis : x y z
#
# Youngs Moduli (GPa) = 44.77212 98.74028 29.79980
#
# Poissons Ratio (x) = 0.54044 0.25241
# Poissons Ratio (y) = 0.24505 0.19322
# Poissons Ratio (z) = 0.37923 0.64023
#
# Static dielectric constant tensor:
#      x y z
#    x 1.546820 0.000000 0.000000 
#    y 0.000000 1.595950 0.000000 
#    z 0.000000 0.000000 1.543050 
# 
# From -- ./inp_files/31411.got.cif
#   From: 2010.05.17/outbox.cif.g08.bks.cpg/sg53_16_cif.got.tgz:31411.got - 2010.06.03 12:45:16.
