data_PCOD9414207
_publ_section_title
;
Structure prediction by ZEFSAII (Michael W. Deem and Ramdas Pophale) SiO2 
 PCOD9414207
Probable space group: P M N A
;
_chemical_formula_sum "Si O2"
_cell_formula_units_Z 64
_cell_length_a 7.701297
_cell_length_b 15.250521
_cell_length_c 31.019744
_cell_angle_alpha 90.000000
_cell_angle_beta 90.000000
_cell_angle_gamma 90.000000
_cell_volume 3643.231449
_symmetry_space_group_name_H-M "P M N A"
_symmetry_group_IT_number 53
_symmetry_cell_setting 'orthorhombic'
loop_
_space_group_symop_operation_xyz
x,y,z
1/2-x,-y,1/2+z
x,-y,-z
1/2-x,y,1/2-z
-x,-y,-z
1/2+x,y,1/2-z
-x,y,z
1/2+x,-y,1/2+z
loop_
_atom_site_type_symbol
_atom_site_label
_atom_site_fract_x
_atom_site_fract_y
_atom_site_fract_z
Si Si1 0.209124 0.149039 0.700710
Si Si2 0.205334 0.420275 0.885872
Si Si3 0.198381 0.059244 0.616921
Si Si4 0.793411 0.251591 0.027206
Si Si5 0.205973 0.348960 0.701052
Si Si6 0.713023 0.445950 0.456903
Si Si7 0.793306 0.239298 0.924629
Si Si8 0.796825 0.059711 0.039285
O O1 0.250000 0.125419 0.750000
O O2 0.274038 0.082331 0.664094
O O3 0.275363 0.249166 0.693499
O O4 0.000000 0.151769 0.696164
O O5 0.230083 0.416597 0.834808
O O6 0.270994 0.500234 0.914740
O O7 0.276412 0.327509 0.902900
O O8 0.000000 0.417092 0.894746
O O9 0.203391 0.153115 0.593092
O O10 0.000000 0.029683 0.622062
O O11 0.285882 0.992024 0.584098
O O12 0.723896 0.345625 0.042488
O O13 0.721756 0.157831 0.042839
O O14 0.000000 0.253368 0.037528
O O15 0.775162 0.248812 0.975623
O O16 0.250000 0.372691 0.750000
O O17 0.000000 0.344275 0.697140
O O18 0.763238 0.500000 0.500000
O O19 0.500000 0.443128 0.457805
O O20 0.000000 0.229520 0.915523
O O21 0.000000 0.072157 0.027878
O O22 0.722879 0.000000 0.000000
#
# Coordination Sequence:
#
# PCOD9414207 Si02
#       8
#     8   8   8   8   8   8   8   8
#     4   9  19  32  46  66  91 120 151 187 229 279
#     4  10  18  27  46  73  96 124 161 194 233 278
#     4  11  21  32  45  67  96 125 157 193 238 279
#     4   9  16  28  44  65  95 126 159 200 231 260
#     4  10  19  32  47  66  95 125 156 192 235 284
#     4   9  15  25  44  71  97 122 157 197 232 269
#     4  10  17  27  45  67  93 126 161 194 226 268
#     4  10  19  31  47  67  92 125 165 198 228 271
#
# _framework density 17.566821999999998
#
# number of rings (size 3 to 8) (size 9 to 14) (size 15 to 20)
#    0.000    2.250    3.750    0.750    0.000    1.750 
#    0.000    0.000    0.000    1.875    0.000    0.875 
#    0.000    2.000    0.000    0.000    0.000    0.000 
#
# Total GULP energy -356798.533600 kJ/mol
# GULP energy per Si atom -5574.977088 kJ/mol
# Density = 1.752684 g / cm^3
# Si number density = 17.566822 Si / 1000 Ang^3
#
#
#
# Elastic Constant Matrix: (Units=GPa)
#
#
# Indices 1 2 3 4 5 6 
#
# 1 26.1264 3.2667 -1.1682 0.0000 0.0000 0.0000
# 2 3.2667 137.2446 67.9478 0.0000 0.0000 0.0000
# 3 -1.1682 67.9478 96.7541 0.0000 0.0000 0.0000
# 4 0.0000 0.0000 0.0000 -25.5942 0.0000 0.0000
# 5 0.0000 0.0000 0.0000 0.0000 10.7648 0.0000
# 6 0.0000 0.0000 0.0000 0.0000 0.0000 0.9615
#
#
#
# Elastic Compliance Matrix: (Units=1/GPa)
#
#
# Indices 1 2 3 4 5 6 
#
# 1 0.038572 -0.001761 0.001702 0.000000 0.000000 0.000000
# 2 -0.001761 0.011250 -0.007922 0.000000 0.000000 0.000000
# 3 0.001702 -0.007922 0.015919 0.000000 0.000000 0.000000
# 4 0.000000 0.000000 0.000000 -0.039071 0.000000 0.000000
# 5 0.000000 0.000000 0.000000 0.000000 0.092895 0.000000
# 6 0.000000 0.000000 0.000000 0.000000 0.000000 1.039998
#
#
# Mechanical properties :
#
#
# Convention : Reuss Voigt Hill
#
# Bulk Modulus (GPa) = 20.08823 44.46863 32.27843
# Shear Modulus (GPa) = 4.19422 9.89835 7.04628
#
# Velocity S-wave (km/s) = 1.54686 2.37632 2.00495
# Velocity P-wave (km/s) = 3.82760 5.73569 4.87589
#
# Compressibility (1/GPa) = 0.04978038
#
# Stress axis : x y z
#
# Youngs Moduli (GPa) = 25.92567 88.88707 62.81635
#
# Poissons Ratio (x) = 0.15652 -0.10693
# Poissons Ratio (y) = 0.04565 0.49763
# Poissons Ratio (z) = -0.04413 0.70416
#
# Static dielectric constant tensor:
#      x y z
#    x 1.642060 0.000000 0.000000 
#    y 0.000000 1.608670 0.000000 
#    z 0.000000 0.000000 1.756120 
# 
# From -- ./inp_files/38444.got.cif
#   From: 2010.05.17/outbox.cif.g08.bks.cpg/sg53_20_cif.got.tgz:38444.got - 2010.06.03 12:45:16.
