data_PCOD9414713
_publ_section_title
;
Structure prediction by ZEFSAII (Michael W. Deem and Ramdas Pophale) SiO2 
 PCOD9414713
Probable space group: P M N A
;
_chemical_formula_sum "Si O2"
_cell_formula_units_Z 64
_cell_length_a 28.675292
_cell_length_b 13.353266
_cell_length_c 7.679123
_cell_angle_alpha 90.000000
_cell_angle_beta 90.000000
_cell_angle_gamma 90.000000
_cell_volume 2940.403786
_symmetry_space_group_name_H-M "P M N A"
_symmetry_group_IT_number 53
_symmetry_cell_setting 'orthorhombic'
loop_
_space_group_symop_operation_xyz
x,y,z
1/2-x,-y,1/2+z
x,-y,-z
1/2-x,y,1/2-z
-x,-y,-z
1/2+x,y,1/2-z
-x,y,z
1/2+x,-y,1/2+z
loop_
_atom_site_type_symbol
_atom_site_label
_atom_site_fract_x
_atom_site_fract_y
_atom_site_fract_z
Si Si1 0.804331 0.976512 0.294620
Si Si2 0.317489 0.635939 0.629425
Si Si3 0.720049 0.615538 0.007279
Si Si4 0.859506 0.169262 0.238126
Si Si5 0.411688 0.527278 0.690015
Si Si6 0.550632 0.744758 0.788371
Si Si7 0.651180 0.229964 0.846821
Si Si8 0.053724 0.680438 0.314740
O O1 0.750000 0.975426 0.250000
O O2 0.827519 0.869217 0.262166
O O3 0.807919 0.000000 0.500000
O O4 0.831509 0.068368 0.206474
O O5 0.276468 0.618167 0.490487
O O6 0.293373 0.651856 0.815829
O O7 0.342173 0.742884 0.610004
O O8 0.356351 0.550363 0.664365
O O9 0.706131 0.500000 0.000000
O O10 0.689679 0.681329 0.139271
O O11 0.914995 0.169467 0.223149
O O12 0.855306 0.201672 0.445167
O O13 0.430095 0.500000 0.500000
O O14 0.431312 0.634841 0.738466
O O15 0.428950 0.436248 0.811759
O O16 0.500000 0.761385 0.715287
O O17 0.548567 0.731481 0.996457
O O18 0.602583 0.265414 0.757926
O O19 0.000000 0.684132 0.239813
#
# Coordination Sequence:
#
# PCOD9414713 Si02
#       8
#     8   8   8   8   8   8   8   8
#     4  10  21  37  58  82 108 142 178 228 279 333
#     4   9  19  31  48  73 104 149 181 215 268 336
#     4  10  18  31  51  73 105 147 183 221 268 320
#     4   8  17  32  55  74 105 136 177 222 272 325
#     4  11  21  33  48  80 115 146 181 230 272 328
#     4   9  18  34  55  80 104 141 191 228 273 331
#     4   9  19  35  52  81 107 135 181 230 271 324
#     4  10  20  36  57  75 106 150 187 229 276 328
#
# _framework density 21.765719000000001
#
# number of rings (size 3 to 8) (size 9 to 14) (size 15 to 20)
#    0.000    2.500    0.000    2.625    5.250    2.000 
#    6.750    0.625    0.000    3.750    0.000    0.000 
#    0.000    4.250    0.000    0.000    0.000    0.000 
#
# Total GULP energy -356347.388214 kJ/mol
# GULP energy per Si atom -5567.927941 kJ/mol
# Density = 2.171618 g / cm^3
# Si number density = 21.765719 Si / 1000 Ang^3
#
#
#
# Elastic Constant Matrix: (Units=GPa)
#
#
# Indices 1 2 3 4 5 6 
#
# 1 208.4632 91.9473 8.1204 0.0000 0.0000 0.0000
# 2 91.9473 123.8150 2.7368 0.0000 0.0000 0.0000
# 3 8.1204 2.7368 25.8571 0.0000 0.0000 0.0000
# 4 0.0000 0.0000 0.0000 7.4038 0.0000 0.0000
# 5 0.0000 0.0000 0.0000 0.0000 11.0337 0.0000
# 6 0.0000 0.0000 0.0000 0.0000 0.0000 15.3598
#
#
#
# Elastic Compliance Matrix: (Units=1/GPa)
#
#
# Indices 1 2 3 4 5 6 
#
# 1 0.007207 -0.005315 -0.001701 0.000000 0.000000 0.000000
# 2 -0.005315 0.012015 0.000397 0.000000 0.000000 0.000000
# 3 -0.001701 0.000397 0.039166 0.000000 0.000000 0.000000
# 4 0.000000 0.000000 0.000000 0.135065 0.000000 0.000000
# 5 0.000000 0.000000 0.000000 0.000000 0.090631 0.000000
# 6 0.000000 0.000000 0.000000 0.000000 0.000000 0.065105
#
#
# Mechanical properties :
#
#
# Convention : Reuss Voigt Hill
#
# Bulk Modulus (GPa) = 22.14760 62.63826 42.39293
# Shear Modulus (GPa) = 13.24584 23.78152 18.51368
#
# Velocity S-wave (km/s) = 2.46959 3.30906 2.91965
# Velocity P-wave (km/s) = 4.28128 6.59095 5.55743
#
# Compressibility (1/GPa) = 0.04515162
#
# Stress axis : x y z
#
# Youngs Moduli (GPa) = 138.74460 83.23161 25.53225
#
# Poissons Ratio (x) = 0.44236 0.04343
# Poissons Ratio (y) = 0.73740 -0.01015
# Poissons Ratio (z) = 0.23600 -0.03308
#
# Static dielectric constant tensor:
#      x y z
#    x 1.870370 0.000000 0.000000 
#    y 0.000000 1.826570 0.000000 
#    z 0.000000 0.000000 1.855060 
# 
# From -- ./inp_files/13256.got.cif
#   From: 2010.05.17/outbox.cif.g08.bks.cpg/sg53_7_cif.got.tgz:13256.got - 2010.06.03 12:45:16.
