data_PCOD9414470
_publ_section_title
;
Structure prediction by ZEFSAII (Michael W. Deem and Ramdas Pophale) SiO2 
 PCOD9414470
Probable space group: P M N A
;
_chemical_formula_sum "Si O2"
_cell_formula_units_Z 64
_cell_length_a 8.936637
_cell_length_b 17.534863
_cell_length_c 26.748113
_cell_angle_alpha 90.000000
_cell_angle_beta 90.000000
_cell_angle_gamma 90.000000
_cell_volume 4191.501673
_symmetry_space_group_name_H-M "P M N A"
_symmetry_group_IT_number 53
_symmetry_cell_setting 'orthorhombic'
loop_
_space_group_symop_operation_xyz
x,y,z
1/2-x,-y,1/2+z
x,-y,-z
1/2-x,y,1/2-z
-x,-y,-z
1/2+x,y,1/2-z
-x,y,z
1/2+x,-y,1/2+z
loop_
_atom_site_type_symbol
_atom_site_label
_atom_site_fract_x
_atom_site_fract_y
_atom_site_fract_z
Si Si1 0.321387 0.518700 0.104530
Si Si2 0.171627 0.978891 0.440908
Si Si3 0.680005 0.146992 0.074368
Si Si4 0.827408 0.603152 0.963730
Si Si5 0.676904 0.326802 0.939777
Si Si6 0.173646 0.282024 0.130586
Si Si7 0.678829 0.590596 0.803693
Si Si8 0.177141 0.827588 0.035044
O O1 0.500000 0.509170 0.095579
O O2 0.233231 0.474097 0.061102
O O3 0.288800 0.608453 0.101381
O O4 0.285550 0.476519 0.156431
O O5 0.273018 0.904543 0.436614
O O6 0.000000 0.960851 0.427086
O O7 0.171005 0.000000 0.500000
O O8 0.219293 0.058259 0.415653
O O9 0.500000 0.152093 0.071285
O O10 0.744444 0.204360 0.115318
O O11 0.746837 0.169355 0.020046
O O12 0.821815 0.665252 0.919187
O O13 0.000000 0.595955 0.980058
O O14 0.724996 0.633550 0.008183
O O15 0.500000 0.311448 0.939855
O O16 0.765059 0.247852 0.937353
O O17 0.254888 0.331685 0.172857
O O18 0.000000 0.269181 0.143245
O O19 0.750000 0.575858 0.750000
O O20 0.500000 0.596325 0.799992
O O21 0.000000 0.824944 0.028331
#
# Coordination Sequence:
#
# PCOD9414470 Si02
#       8
#     8   8   8   8   8   8   8   8
#     4   9  20  34  47  64  85 116 152 185 225 277
#     4   8  16  29  42  58  82 117 157 189 221 261
#     4  10  18  29  45  63  87 120 156 191 224 265
#     4  10  19  29  42  63  90 118 149 188 227 264
#     4  11  20  30  44  60  86 122 157 189 225 268
#     4  10  19  30  46  69  94 120 153 188 228 272
#     4  10  20  36  54  70  91 116 148 188 234 281
#     4  11  20  28  40  61  88 121 157 193 231 263
#
# _framework density 15.268991
#
# number of rings (size 3 to 8) (size 9 to 14) (size 15 to 20)
#    0.000    2.125    1.250    4.125    0.000    6.750 
#    0.000    0.000    0.000    0.000    0.000    0.000 
#    0.000    1.000    0.000    6.750    0.000    4.875 
#
# Total GULP energy -356960.446665 kJ/mol
# GULP energy per Si atom -5577.506979 kJ/mol
# Density = 1.523424 g / cm^3
# Si number density = 15.268991 Si / 1000 Ang^3
#
#
#
# Elastic Constant Matrix: (Units=GPa)
#
#
# Indices 1 2 3 4 5 6 
#
# 1 78.2066 59.1017 27.5419 0.0000 0.0000 0.0000
# 2 59.1017 128.8144 31.7485 0.0000 0.0000 0.0000
# 3 27.5419 31.7485 44.8400 0.0000 0.0000 0.0000
# 4 0.0000 0.0000 0.0000 11.5493 0.0000 0.0000
# 5 0.0000 0.0000 0.0000 0.0000 18.2328 0.0000
# 6 0.0000 0.0000 0.0000 0.0000 0.0000 15.6388
#
#
#
# Elastic Compliance Matrix: (Units=1/GPa)
#
#
# Indices 1 2 3 4 5 6 
#
# 1 0.021486 -0.008002 -0.007532 0.000000 0.000000 0.000000
# 2 -0.008002 0.012384 -0.003854 0.000000 0.000000 0.000000
# 3 -0.007532 -0.003854 0.029656 0.000000 0.000000 0.000000
# 4 0.000000 0.000000 0.000000 0.086585 0.000000 0.000000
# 5 0.000000 0.000000 0.000000 0.000000 0.054846 0.000000
# 6 0.000000 0.000000 0.000000 0.000000 0.000000 0.063944
#
#
# Mechanical properties :
#
#
# Convention : Reuss Voigt Hill
#
# Bulk Modulus (GPa) = 40.40037 54.29393 47.34715
# Shear Modulus (GPa) = 15.82646 17.98210 16.90428
#
# Velocity S-wave (km/s) = 3.22298 3.43547 3.33092
# Velocity P-wave (km/s) = 6.35348 7.16743 6.77269
#
# Compressibility (1/GPa) = 0.02475225
#
# Stress axis : x y z
#
# Youngs Moduli (GPa) = 46.54161 80.74788 33.71976
#
# Poissons Ratio (x) = 0.64613 0.25397
# Poissons Ratio (y) = 0.37242 0.12994
# Poissons Ratio (z) = 0.35054 0.31117
#
# Static dielectric constant tensor:
#      x y z
#    x 1.509640 0.000000 0.000000 
#    y 0.000000 1.540670 0.000000 
#    z 0.000000 0.000000 1.477440 
# 
# From -- ./inp_files/34517.got.cif
#   From: 2010.05.17/outbox.cif.g08.bks.cpg/sg53_18_cif.got.tgz:34517.got - 2010.06.03 12:45:16.
