data_PCOD9414545
_publ_section_title
;
Structure prediction by ZEFSAII (Michael W. Deem and Ramdas Pophale) SiO2 
 PCOD9414545
Probable space group: P M N A
;
_chemical_formula_sum "Si O2"
_cell_formula_units_Z 48
_cell_length_a 15.313417
_cell_length_b 8.532467
_cell_length_c 18.093752
_cell_angle_alpha 90.000000
_cell_angle_beta 90.000000
_cell_angle_gamma 90.000000
_cell_volume 2364.151805
_symmetry_space_group_name_H-M "P M N A"
_symmetry_group_IT_number 53
_symmetry_cell_setting 'orthorhombic'
loop_
_space_group_symop_operation_xyz
x,y,z
1/2-x,-y,1/2+z
x,-y,-z
1/2-x,y,1/2-z
-x,-y,-z
1/2+x,y,1/2-z
-x,y,z
1/2+x,-y,1/2+z
loop_
_atom_site_type_symbol
_atom_site_label
_atom_site_fract_x
_atom_site_fract_y
_atom_site_fract_z
Si Si1 0.000000 0.803361 0.178700
Si Si2 0.835999 0.776225 0.795957
Si Si3 0.500000 0.817201 0.493868
Si Si4 0.500000 0.893339 0.072757
Si Si5 0.189535 0.141325 0.821305
Si Si6 0.000000 0.107743 0.278752
Si Si7 0.692018 0.173428 0.963956
Si Si8 0.670960 0.650604 0.550871
O O1 0.100987 0.761365 0.196199
O O2 0.000000 0.778968 0.091805
O O3 0.000000 0.976818 0.214334
O O4 0.750000 0.749113 0.750000
O O5 0.915594 0.788400 0.738377
O O6 0.839240 0.648758 0.860889
O O7 0.828793 0.953246 0.830653
O O8 0.588984 0.757976 0.529031
O O9 0.500000 0.000000 0.500000
O O10 0.592727 0.801958 0.065848
O O11 0.500000 0.007542 0.145144
O O12 0.500000 0.000000 0.000000
O O13 0.250000 0.153731 0.750000
O O14 0.241560 0.188608 0.894892
O O15 0.734381 0.281756 0.027292
O O16 0.694432 0.000000 0.000000
O O17 0.658778 0.500000 0.500000
#
# Coordination Sequence:
#
# PCOD9414545 Si02
#       8
#     4   8   4   4   8   4   8   8
#     4  10  18  29  50  88 120 157 183 249 333 374
#     4  10  20  36  61  86 124 167 212 258 324 386
#     4  12  21  38  66  95 127 162 205 270 332 382
#     4  10  22  34  62  97 124 155 216 283 320 372
#     4  10  18  31  56  89 121 154 205 266 319 391
#     4  10  20  35  58 100 128 150 208 272 326 381
#     4  11  20  37  59  90 123 159 211 266 333 378
#     4  12  25  40  61  96 132 172 218 266 324 403
#
# _framework density 20.303265
#
# number of rings (size 3 to 8) (size 9 to 14) (size 15 to 20)
#    0.000    1.333    3.333    6.250    2.333    0.000 
#    0.000    1.250    0.000    0.000    0.000    0.000 
#    0.000    0.000    0.000    0.000    0.000    0.000 
#
# Total GULP energy -267280.101244 kJ/mol
# GULP energy per Si atom -5568.335443 kJ/mol
# Density = 2.025705 g / cm^3
# Si number density = 20.303265 Si / 1000 Ang^3
#
#
#
# Elastic Constant Matrix: (Units=GPa)
#
#
# Indices 1 2 3 4 5 6 
#
# 1 183.0472 23.4693 47.5207 0.0000 0.0000 0.0000
# 2 23.4693 30.1283 0.3336 0.0000 0.0000 0.0000
# 3 47.5207 0.3336 83.7007 0.0000 0.0000 0.0000
# 4 0.0000 0.0000 0.0000 21.1669 0.0000 0.0000
# 5 0.0000 0.0000 0.0000 0.0000 -98.2312 0.0000
# 6 0.0000 0.0000 0.0000 0.0000 0.0000 3.4262
#
#
#
# Elastic Compliance Matrix: (Units=1/GPa)
#
#
# Indices 1 2 3 4 5 6 
#
# 1 0.007242 -0.005596 -0.004089 0.000000 0.000000 0.000000
# 2 -0.005596 0.037517 0.003028 0.000000 0.000000 0.000000
# 3 -0.004089 0.003028 0.014257 0.000000 0.000000 0.000000
# 4 0.000000 0.000000 0.000000 0.047243 0.000000 0.000000
# 5 0.000000 0.000000 0.000000 0.000000 -0.010180 0.000000
# 6 0.000000 0.000000 0.000000 0.000000 0.000000 0.291870
#
#
# Mechanical properties :
#
#
# Convention : Reuss Voigt Hill
#
# Bulk Modulus (GPa) = 21.88155 48.83593 35.35874
# Shear Modulus (GPa) = 12.00481 0.30923 6.15702
#
# Velocity S-wave (km/s) = 2.43425 0.39069 1.74330
# Velocity P-wave (km/s) = 4.32453 4.93041 4.63738
#
# Compressibility (1/GPa) = 0.04570061
#
# Stress axis : x y z
#
# Youngs Moduli (GPa) = 138.07844 26.65435 70.14081
#
# Poissons Ratio (x) = 0.14917 0.28684
# Poissons Ratio (y) = 0.77273 -0.21237
# Poissons Ratio (z) = 0.56467 -0.08070
#
# Static dielectric constant tensor:
#      x y z
#    x 1.800240 0.000000 0.000000 
#    y 0.000000 1.719760 0.000000 
#    z 0.000000 0.000000 1.171070 
# 
# From -- ./inp_files/28332.got.cif
#   From: 2010.05.17/outbox.cif.g08.bks.cpg/sg53_15_cif.got.tgz:28332.got - 2010.06.03 12:45:16.
