data_PCOD9414963
_publ_section_title
;
Structure prediction by ZEFSAII (Michael W. Deem and Ramdas Pophale) SiO2 
 PCOD9414963
Probable space group: P M N A
;
_chemical_formula_sum "Si O2"
_cell_formula_units_Z 48
_cell_length_a 8.084294
_cell_length_b 14.981917
_cell_length_c 21.087892
_cell_angle_alpha 90.000000
_cell_angle_beta 90.000000
_cell_angle_gamma 90.000000
_cell_volume 2554.127979
_symmetry_space_group_name_H-M "P M N A"
_symmetry_group_IT_number 53
_symmetry_cell_setting 'orthorhombic'
loop_
_space_group_symop_operation_xyz
x,y,z
1/2-x,-y,1/2+z
x,-y,-z
1/2-x,y,1/2-z
-x,-y,-z
1/2+x,y,1/2-z
-x,y,z
1/2+x,-y,1/2+z
loop_
_atom_site_type_symbol
_atom_site_label
_atom_site_fract_x
_atom_site_fract_y
_atom_site_fract_z
Si Si1 0.698962 0.749848 0.519062
Si Si2 0.197063 0.442966 0.439909
Si Si3 0.797786 0.942379 0.938360
Si Si4 0.699417 0.060884 0.679056
Si Si5 0.302949 0.558164 0.320531
Si Si6 0.202352 0.747812 0.127777
O O1 0.500000 0.754641 0.516927
O O2 0.746041 0.658698 0.553393
O O3 0.758356 0.840690 0.552234
O O4 0.755626 0.746939 0.445736
O O5 0.264120 0.500000 0.500000
O O6 0.247357 0.490419 0.374967
O O7 0.000000 0.443865 0.443866
O O8 0.000000 0.942007 0.937389
O O9 0.741837 0.991847 0.874647
O O10 0.749811 0.000000 0.000000
O O11 0.750000 0.037349 0.750000
O O12 0.500000 0.062217 0.675938
O O13 0.757369 0.160901 0.661113
O O14 0.250000 0.532802 0.250000
O O15 0.500000 0.561968 0.322342
O O16 0.239553 0.657696 0.338007
O O17 0.000000 0.747779 0.128234
#
# Coordination Sequence:
#
# PCOD9414963 Si02
#       6
#     8   8   8   8   8   8
#     4  10  18  33  58  85 107 138 187 233 274 324
#     4  11  23  38  56  81 113 147 185 232 280 329
#     4   9  16  30  56  82 105 137 184 232 265 311
#     4  10  19  33  52  80 113 145 178 219 271 325
#     4  11  22  37  57  83 114 148 184 227 278 336
#     4   9  17  30  54  83 111 140 177 224 273 327
#
# _framework density 18.793106000000002
#
# number of rings (size 3 to 8) (size 9 to 14) (size 15 to 20)
#    0.000    2.000    3.333    1.500    0.000    0.667 
#    0.000    3.333    0.000    3.000    0.000    0.000 
#    0.000    0.000    0.000    0.000    0.000    0.000 
#
# Total GULP energy -268019.684656 kJ/mol
# GULP energy per Si atom -5583.743430 kJ/mol
# Density = 1.875033 g / cm^3
# Si number density = 18.793106 Si / 1000 Ang^3
#
#
#
# Elastic Constant Matrix: (Units=GPa)
#
#
# Indices 1 2 3 4 5 6 
#
# 1 5.4038 9.4117 -1.8172 0.0000 0.0000 0.0000
# 2 9.4117 169.6524 99.2312 0.0000 0.0000 0.0000
# 3 -1.8172 99.2312 168.3900 0.0000 0.0000 0.0000
# 4 0.0000 0.0000 0.0000 27.8377 0.0000 0.0000
# 5 0.0000 0.0000 0.0000 0.0000 13.0316 0.0000
# 6 0.0000 0.0000 0.0000 0.0000 0.0000 22.7566
#
#
#
# Elastic Compliance Matrix: (Units=1/GPa)
#
#
# Indices 1 2 3 4 5 6 
#
# 1 0.227488 -0.021449 0.015095 0.000000 0.000000 0.000000
# 2 -0.021449 0.011017 -0.006724 0.000000 0.000000 0.000000
# 3 0.015095 -0.006724 0.010064 0.000000 0.000000 0.000000
# 4 0.000000 0.000000 0.000000 0.035923 0.000000 0.000000
# 5 0.000000 0.000000 0.000000 0.000000 0.076736 0.000000
# 6 0.000000 0.000000 0.000000 0.000000 0.000000 0.043943
#
#
# Mechanical properties :
#
#
# Convention : Reuss Voigt Hill
#
# Bulk Modulus (GPa) = 4.49615 61.89972 33.19794
# Shear Modulus (GPa) = 9.89188 28.49989 19.19589
#
# Velocity S-wave (km/s) = 2.29674 3.89846 3.19945
# Velocity P-wave (km/s) = 3.07099 7.29883 5.59928
#
# Compressibility (1/GPa) = 0.22241253
#
# Stress axis : x y z
#
# Youngs Moduli (GPa) = 4.39584 90.76753 99.36610
#
# Poissons Ratio (x) = 1.94690 -1.49992
# Poissons Ratio (y) = 0.09429 0.66812
# Poissons Ratio (z) = -0.06635 0.61030
#
# Static dielectric constant tensor:
#      x y z
#    x 1.667490 0.000000 0.000000 
#    y 0.000000 1.645290 0.000000 
#    z 0.000000 0.000000 1.616660 
# 
# From -- ./inp_files/30536.got.cif
#   From: 2010.05.17/outbox.cif.g08.bks.cpg/sg53_16_cif.got.tgz:30536.got - 2010.06.03 12:45:16.
