data_PCOD9414113
_publ_section_title
;
Structure prediction by ZEFSAII (Michael W. Deem and Ramdas Pophale) SiO2 
 PCOD9414113
Probable space group: P M N A
;
_chemical_formula_sum "Si O2"
_cell_formula_units_Z 52
_cell_length_a 30.073848
_cell_length_b 11.345095
_cell_length_c 9.430346
_cell_angle_alpha 90.000000
_cell_angle_beta 90.000000
_cell_angle_gamma 90.000000
_cell_volume 3217.546000
_symmetry_space_group_name_H-M "P M N A"
_symmetry_group_IT_number 53
_symmetry_cell_setting 'orthorhombic'
loop_
_space_group_symop_operation_xyz
x,y,z
1/2-x,-y,1/2+z
x,-y,-z
1/2-x,y,1/2-z
-x,-y,-z
1/2+x,y,1/2-z
-x,y,z
1/2+x,-y,1/2+z
loop_
_atom_site_type_symbol
_atom_site_label
_atom_site_fract_x
_atom_site_fract_y
_atom_site_fract_z
Si Si1 0.746046 0.375315 0.076978
Si Si2 0.728240 0.000000 0.000000
Si Si3 0.880005 0.866863 0.269224
Si Si4 0.303544 0.832517 0.448527
Si Si5 0.664540 0.789158 0.948263
Si Si6 0.624537 0.136404 0.315705
Si Si7 0.550769 0.141528 0.532042
O O1 0.750000 0.379476 0.250000
O O2 0.698669 0.317578 0.033153
O O3 0.750823 0.500000 0.000000
O O4 0.782595 0.286427 0.011247
O O5 0.762500 0.081333 0.913329
O O6 0.696454 0.904758 0.926281
O O7 0.836519 0.823707 0.182925
O O8 0.869517 0.820148 0.425653
O O9 0.882816 0.009299 0.258059
O O10 0.923555 0.830484 0.178881
O O11 0.335080 0.881305 0.574206
O O12 0.638169 0.772971 0.803957
O O13 0.582776 0.182177 0.405297
O O14 0.500000 0.182141 0.531008
O O15 0.550454 0.000000 0.500000
#
# Coordination Sequence:
#
# PCOD9414113 Si02
#       7
#     8   4   8   8   8   8   8
#     4  11  25  38  48  64  97 139 177 211 238 286
#     4  10  18  26  46  68  96 126 164 198 250 266
#     4  10  18  29  48  76 101 127 164 203 247 296
#     4  10  19  31  48  67  96 132 169 207 238 281
#     4  11  21  30  47  71 103 128 165 213 247 281
#     4  10  16  31  46  73 103 127 165 202 245 287
#     4   8  16  30  49  68 100 140 163 186 236 311
#
# _framework density 16.161384000000002
#
# number of rings (size 3 to 8) (size 9 to 14) (size 15 to 20)
#    0.000    2.000    4.615    0.923    2.154    3.077 
#    0.000    0.769    0.000    3.692    0.000    0.000 
#    0.000   23.385    0.000    0.000    0.000    0.000 
#
# Total GULP energy -289488.726222 kJ/mol
# GULP energy per Si atom -5567.090889 kJ/mol
# Density = 1.612460 g / cm^3
# Si number density = 16.161384 Si / 1000 Ang^3
#
#
#
# Elastic Constant Matrix: (Units=GPa)
#
#
# Indices 1 2 3 4 5 6 
#
# 1 114.6544 15.3451 38.0648 0.0000 0.0000 0.0000
# 2 15.3451 54.9351 4.5927 0.0000 0.0000 0.0000
# 3 38.0648 4.5927 71.7140 0.0000 0.0000 0.0000
# 4 0.0000 0.0000 0.0000 16.7838 0.0000 0.0000
# 5 0.0000 0.0000 0.0000 0.0000 9.2207 0.0000
# 6 0.0000 0.0000 0.0000 0.0000 0.0000 8.2407
#
#
#
# Elastic Compliance Matrix: (Units=1/GPa)
#
#
# Indices 1 2 3 4 5 6 
#
# 1 0.010941 -0.002584 -0.005642 0.000000 0.000000 0.000000
# 2 -0.002584 0.018912 0.000161 0.000000 0.000000 0.000000
# 3 -0.005642 0.000161 0.016929 0.000000 0.000000 0.000000
# 4 0.000000 0.000000 0.000000 0.059581 0.000000 0.000000
# 5 0.000000 0.000000 0.000000 0.000000 0.108452 0.000000
# 6 0.000000 0.000000 0.000000 0.000000 0.000000 0.121350
#
#
# Mechanical properties :
#
#
# Convention : Reuss Voigt Hill
#
# Bulk Modulus (GPa) = 32.62633 39.70096 36.16365
# Shear Modulus (GPa) = 13.79265 19.06909 16.43087
#
# Velocity S-wave (km/s) = 2.92453 3.43872 3.19199
# Velocity P-wave (km/s) = 5.62454 6.35492 6.00085
#
# Compressibility (1/GPa) = 0.03065009
#
# Stress axis : x y z
#
# Youngs Moduli (GPa) = 91.40122 52.87708 59.07195
#
# Poissons Ratio (x) = 0.13666 0.33327
# Poissons Ratio (y) = 0.23622 -0.00949
# Poissons Ratio (z) = 0.51566 -0.00849
#
# Static dielectric constant tensor:
#      x y z
#    x 1.557130 0.000000 0.000000 
#    y 0.000000 1.538640 0.000000 
#    z 0.000000 0.000000 1.587960 
# 
# From -- ./inp_files/13171.got.cif
#   From: 2010.05.17/outbox.cif.g08.bks.cpg/sg53_7_cif.got.tgz:13171.got - 2010.06.03 12:45:16.
