data_PCOD9414824
_publ_section_title
;
Structure prediction by ZEFSAII (Michael W. Deem and Ramdas Pophale) SiO2 
 PCOD9414824
Probable space group: P M N A
;
_chemical_formula_sum "Si O2"
_cell_formula_units_Z 52
_cell_length_a 9.433660
_cell_length_b 12.077213
_cell_length_c 25.880754
_cell_angle_alpha 90.000000
_cell_angle_beta 90.000000
_cell_angle_gamma 90.000000
_cell_volume 2948.654377
_symmetry_space_group_name_H-M "P M N A"
_symmetry_group_IT_number 53
_symmetry_cell_setting 'orthorhombic'
loop_
_space_group_symop_operation_xyz
x,y,z
1/2-x,-y,1/2+z
x,-y,-z
1/2-x,y,1/2-z
-x,-y,-z
1/2+x,y,1/2-z
-x,y,z
1/2+x,-y,1/2+z
loop_
_atom_site_type_symbol
_atom_site_label
_atom_site_fract_x
_atom_site_fract_y
_atom_site_fract_z
Si Si1 0.671316 0.182830 0.635840
Si Si2 0.171469 0.878252 0.017780
Si Si3 0.330287 0.370455 0.803957
Si Si4 0.750000 0.213725 0.250000
Si Si5 0.838279 0.052137 0.163143
Si Si6 0.828386 0.765980 0.915659
Si Si7 0.338769 0.621268 0.839687
O O1 0.500000 0.202330 0.640914
O O2 0.705535 0.153929 0.576239
O O3 0.759050 0.286705 0.655792
O O4 0.717205 0.072179 0.667721
O O5 0.000000 0.883437 0.015846
O O6 0.213628 0.788220 0.974616
O O7 0.222475 0.000000 0.000000
O O8 0.250000 0.352522 0.750000
O O9 0.500000 0.353433 0.799110
O O10 0.306529 0.497540 0.821106
O O11 0.835536 0.129077 0.213512
O O12 0.674627 0.295219 0.209264
O O13 0.776116 0.126696 0.117180
O O14 0.000000 0.033752 0.146801
O O15 0.763446 0.663399 0.884965
O O16 0.000000 0.760304 0.912389
O O17 0.500000 0.625178 0.858312
#
# Coordination Sequence:
#
# PCOD9414824 Si02
#       7
#     8   8   8   4   8   8   8
#     4  10  20  35  56  84 115 148 184 222 272 328
#     4   9  15  30  57  85 114 147 184 225 271 325
#     4  11  24  42  59  79 108 148 191 229 274 326
#     4  10  18  32  52  78 108 140 180 220 280 332
#     4   9  17  29  49  79 110 138 174 219 270 323
#     4   9  17  31  56  86 111 140 179 226 273 324
#     4  10  21  37  56  79 108 143 184 232 280 327
#
# _framework density 17.635162000000001
#
# number of rings (size 3 to 8) (size 9 to 14) (size 15 to 20)
#    0.000    2.308    2.308    0.923    1.077    1.846 
#    0.000    4.615    0.000    5.538    0.000    0.000 
#    0.000    0.000    0.000    0.000    0.000    0.000 
#
# Total GULP energy -289525.929997 kJ/mol
# GULP energy per Si atom -5567.806346 kJ/mol
# Density = 1.759502 g / cm^3
# Si number density = 17.635162 Si / 1000 Ang^3
#
#
#
# Elastic Constant Matrix: (Units=GPa)
#
#
# Indices 1 2 3 4 5 6 
#
# 1 44.7998 40.8511 40.8235 0.0000 0.0000 0.0000
# 2 40.8511 98.7829 71.7212 0.0000 0.0000 0.0000
# 3 40.8235 71.7212 104.0724 0.0000 0.0000 0.0000
# 4 0.0000 0.0000 0.0000 24.8009 0.0000 0.0000
# 5 0.0000 0.0000 0.0000 0.0000 19.8263 0.0000
# 6 0.0000 0.0000 0.0000 0.0000 0.0000 21.4141
#
#
#
# Elastic Compliance Matrix: (Units=1/GPa)
#
#
# Indices 1 2 3 4 5 6 
#
# 1 0.039201 -0.010101 -0.008416 0.000000 0.000000 0.000000
# 2 -0.010101 0.022864 -0.011794 0.000000 0.000000 0.000000
# 3 -0.008416 -0.011794 0.021038 0.000000 0.000000 0.000000
# 4 0.000000 0.000000 0.000000 0.040321 0.000000 0.000000
# 5 0.000000 0.000000 0.000000 0.000000 0.050438 0.000000
# 6 0.000000 0.000000 0.000000 0.000000 0.000000 0.046698
#
#
# Mechanical properties :
#
#
# Convention : Reuss Voigt Hill
#
# Bulk Modulus (GPa) = 44.48326 61.60519 53.04423
# Shear Modulus (GPa) = 17.32046 19.49221 18.40633
#
# Velocity S-wave (km/s) = 3.13734 3.32822 3.23418
# Velocity P-wave (km/s) = 6.19700 7.05538 6.64007
#
# Compressibility (1/GPa) = 0.02248037
#
# Stress axis : x y z
#
# Youngs Moduli (GPa) = 25.50936 43.73775 47.53342
#
# Poissons Ratio (x) = 0.44180 0.40004
# Poissons Ratio (y) = 0.25767 0.56061
# Poissons Ratio (z) = 0.21469 0.51585
#
# Static dielectric constant tensor:
#      x y z
#    x 1.601180 0.000000 0.000000 
#    y 0.000000 1.619020 0.000000 
#    z 0.000000 0.000000 1.611920 
# 
# From -- ./inp_files/36234.got.cif
#   From: 2010.05.17/outbox.cif.g08.bks.cpg/sg53_19_cif.got.tgz:36234.got - 2010.06.03 12:45:16.
