data_PCOD9414426
_publ_section_title
;
Structure prediction by ZEFSAII (Michael W. Deem and Ramdas Pophale) SiO2 
 PCOD9414426
Probable space group: P M N A
;
_chemical_formula_sum "Si O2"
_cell_formula_units_Z 56
_cell_length_a 8.777304
_cell_length_b 14.249617
_cell_length_c 28.890530
_cell_angle_alpha 90.000000
_cell_angle_beta 90.000000
_cell_angle_gamma 90.000000
_cell_volume 3613.431623
_symmetry_space_group_name_H-M "P M N A"
_symmetry_group_IT_number 53
_symmetry_cell_setting 'orthorhombic'
loop_
_space_group_symop_operation_xyz
x,y,z
1/2-x,-y,1/2+z
x,-y,-z
1/2-x,y,1/2-z
-x,-y,-z
1/2+x,y,1/2-z
-x,y,z
1/2+x,-y,1/2+z
loop_
_atom_site_type_symbol
_atom_site_label
_atom_site_fract_x
_atom_site_fract_y
_atom_site_fract_z
Si Si1 0.818185 0.760539 0.299620
Si Si2 0.179772 0.880494 0.441279
Si Si3 0.180077 0.221843 0.463271
Si Si4 0.319235 0.296932 0.607763
Si Si5 0.185330 0.073164 0.393908
Si Si6 0.816318 0.980032 0.299584
Si Si7 0.183844 0.397165 0.984573
O O1 0.750000 0.733255 0.250000
O O2 0.758348 0.699411 0.342304
O O3 0.773664 0.870466 0.307728
O O4 0.000000 0.756921 0.297825
O O5 0.194863 0.853738 0.494937
O O6 0.275890 0.804455 0.413245
O O7 0.000000 0.868410 0.428888
O O8 0.223831 0.984866 0.426766
O O9 0.238700 0.169649 0.417299
O O10 0.260210 0.315866 0.480821
O O11 0.000000 0.241616 0.458357
O O12 0.500000 0.305378 0.613119
O O13 0.266656 0.368769 0.567555
O O14 0.000000 0.078175 0.393327
O O15 0.235259 0.044218 0.342459
O O16 0.750000 0.008059 0.250000
O O17 0.000000 0.983092 0.297812
O O18 0.000000 0.396159 0.984614
O O19 0.236176 0.500000 0.000000
#
# Coordination Sequence:
#
# PCOD9414426 Si02
#       7
#     8   8   8   8   8   8   8
#     4  10  18  29  44  64  91 123 155 186 220 262
#     4   9  15  26  41  60  88 121 150 175 213 262
#     4   9  17  27  45  68  87 110 147 188 220 261
#     4  10  18  28  44  66  89 118 154 188 224 266
#     4   9  15  26  42  62  88 119 149 180 219 259
#     4   9  17  28  41  58  85 120 155 183 211 252
#     4   9  19  35  50  64  89 121 149 183 232 283
#
# _framework density 15.497733999999999
#
# number of rings (size 3 to 8) (size 9 to 14) (size 15 to 20)
#    0.000    2.714    1.429    1.286    0.000    3.143 
#    0.000    1.429    0.000    3.429    0.000    1.000 
#    0.000    4.571    0.000    0.000    0.000    0.000 
#
# Total GULP energy -311927.144457 kJ/mol
# GULP energy per Si atom -5570.127580 kJ/mol
# Density = 1.546246 g / cm^3
# Si number density = 15.497734 Si / 1000 Ang^3
#
#
#
# Elastic Constant Matrix: (Units=GPa)
#
#
# Indices 1 2 3 4 5 6 
#
# 1 15.1031 17.6223 29.7306 0.0000 0.0000 0.0000
# 2 17.6223 86.0154 70.0083 0.0000 0.0000 0.0000
# 3 29.7306 70.0083 115.3017 0.0000 0.0000 0.0000
# 4 0.0000 0.0000 0.0000 16.7443 0.0000 0.0000
# 5 0.0000 0.0000 0.0000 0.0000 20.9474 0.0000
# 6 0.0000 0.0000 0.0000 0.0000 0.0000 1.8415
#
#
#
# Elastic Compliance Matrix: (Units=1/GPa)
#
#
# Indices 1 2 3 4 5 6 
#
# 1 0.134539 0.001328 -0.035497 0.000000 0.000000 0.000000
# 2 0.001328 0.022997 -0.014306 0.000000 0.000000 0.000000
# 3 -0.035497 -0.014306 0.026512 0.000000 0.000000 0.000000
# 4 0.000000 0.000000 0.000000 0.059722 0.000000 0.000000
# 5 0.000000 0.000000 0.000000 0.000000 0.047739 0.000000
# 6 0.000000 0.000000 0.000000 0.000000 0.000000 0.543050
#
#
# Mechanical properties :
#
#
# Convention : Reuss Voigt Hill
#
# Bulk Modulus (GPa) = 11.48134 50.12698 30.80416
# Shear Modulus (GPa) = 5.20540 14.51057 9.85799
#
# Velocity S-wave (km/s) = 1.83469 3.06323 2.52482
# Velocity P-wave (km/s) = 3.45147 6.70269 5.33098
#
# Compressibility (1/GPa) = 0.08709784
#
# Stress axis : x y z
#
# Youngs Moduli (GPa) = 7.43280 43.48331 37.71881
#
# Poissons Ratio (x) = -0.05774 1.33891
# Poissons Ratio (y) = -0.00987 0.53960
# Poissons Ratio (z) = 0.26384 0.62206
#
# Static dielectric constant tensor:
#      x y z
#    x 1.523790 0.000000 0.000000 
#    y 0.000000 1.497580 0.000000 
#    z 0.000000 0.000000 1.542400 
# 
# From -- ./inp_files/38371.got.cif
#   From: 2010.05.17/outbox.cif.g08.bks.cpg/sg53_20_cif.got.tgz:38371.got - 2010.06.03 12:45:16.
