data_PCOD9414030
_publ_section_title
;
Structure prediction by ZEFSAII (Michael W. Deem and Ramdas Pophale) SiO2 
 PCOD9414030
Probable space group: P N N A
;
_chemical_formula_sum "Si O2"
_cell_formula_units_Z 56
_cell_length_a 15.000000
_cell_length_b 21.000000
_cell_length_c 9.000000
_cell_angle_alpha 90.000000
_cell_angle_beta 90.000000
_cell_angle_gamma 90.000000
_cell_volume 2835.000000
_symmetry_space_group_name_H-M "P N N A"
_symmetry_group_IT_number 52
_symmetry_cell_setting 'orthorhombic'
loop_
_space_group_symop_operation_xyz
x,y,z
1/2-x,-y,z
x,1/2-y,1/2-z
1/2-x,1/2+y,1/2-z
-x,-y,-z
1/2+x,y,-z
-x,1/2+y,1/2+z
1/2+x,1/2-y,1/2+z
loop_
_atom_site_type_symbol
_atom_site_label
_atom_site_fract_x
_atom_site_fract_y
_atom_site_fract_z
Si Si1 0.683699 0.752213 0.429808
Si Si2 0.173782 0.049503 0.837569
Si Si3 0.112186 0.383028 0.145178
Si Si4 0.166563 0.162291 0.045196
Si Si5 0.765670 0.394763 0.054821
Si Si6 0.479145 0.760631 0.430115
Si Si7 0.051888 0.965584 0.633314
O O1 0.686512 0.750000 0.250000
O O2 0.741739 0.695029 0.495415
O O3 0.723373 0.820285 0.476605
O O4 0.580637 0.752055 0.478018
O O5 0.221426 0.093479 0.714288
O O6 0.250000 0.000000 0.884943
O O7 0.094435 0.012546 0.754820
O O8 0.149140 0.094684 0.971073
O O9 0.160928 0.347535 0.279196
O O10 0.064141 0.329728 0.042945
O O11 0.026503 0.422163 0.202033
O O12 0.189992 0.420450 0.058240
O O13 0.086950 0.209473 0.001173
O O14 0.863149 0.426882 0.066407
O O15 0.480202 0.750000 0.250000
O O16 0.000000 0.000000 0.500000
#
# Coordination Sequence:
#
# PCOD9414030 Si02
#       7
#     8   8   8   8   8   8   8
#     4  11  20  36  66  92 122 164 206 250 314 381
#     4  10  23  41  62  92 124 170 219 250 309 392
#     4  11  22  40  64  94 129 161 208 270 324 368
#     4  11  23  40  63  97 131 160 202 272 322 374
#     4  11  21  39  67  90 120 168 214 258 308 383
#     4   9  20  36  61  91 123 163 201 246 322 382
#     4  11  23  42  66  89 123 171 221 257 309 384
#
# _framework density 19.753086
#
# number of rings (size 3 to 8) (size 9 to 14) (size 15 to 20)
#    0.000    1.429    5.714    0.000    0.000    0.571 
#    5.143    0.000    3.143    0.000    0.000    0.000 
#    0.000    0.000    0.000    0.000    0.000    0.000 
#
# Total GULP energy -312359.056814 kJ/mol
# GULP energy per Si atom -5577.840300 kJ/mol
# Density = 1.970813 g / cm^3
# Si number density = 19.753086 Si / 1000 Ang^3
#
#
#
# Elastic Constant Matrix: (Units=GPa)
#
#
# Indices 1 2 3 4 5 6 
#
# 1 126.9579 15.6738 42.3060 0.0000 0.0000 0.0000
# 2 15.6738 59.8139 22.3517 0.0000 0.0000 0.0000
# 3 42.3060 22.3517 29.4556 0.0000 0.0000 0.0000
# 4 0.0000 0.0000 0.0000 29.8595 0.0000 0.0000
# 5 0.0000 0.0000 0.0000 0.0000 18.5774 0.0000
# 6 0.0000 0.0000 0.0000 0.0000 0.0000 26.4110
#
#
#
# Elastic Compliance Matrix: (Units=1/GPa)
#
#
# Indices 1 2 3 4 5 6 
#
# 1 0.016695 0.006401 -0.028836 0.000000 0.000000 0.000000
# 2 0.006401 0.025790 -0.028763 0.000000 0.000000 0.000000
# 3 -0.028836 -0.028763 0.097191 0.000000 0.000000 0.000000
# 4 0.000000 0.000000 0.000000 0.033490 0.000000 0.000000
# 5 0.000000 0.000000 0.000000 0.000000 0.053829 0.000000
# 6 0.000000 0.000000 0.000000 0.000000 0.000000 0.037863
#
#
# Mechanical properties :
#
#
# Convention : Reuss Voigt Hill
#
# Bulk Modulus (GPa) = 26.82398 41.87670 34.35034
# Shear Modulus (GPa) = 13.16893 24.02929 18.59911
#
# Velocity S-wave (km/s) = 2.58481 3.49160 3.07185
# Velocity P-wave (km/s) = 4.74526 6.12381 5.47807
#
# Compressibility (1/GPa) = 0.03728007
#
# Stress axis : x y z
#
# Youngs Moduli (GPa) = 59.89684 38.77533 10.28898
#
# Poissons Ratio (x) = -0.24819 0.29669
# Poissons Ratio (y) = -0.38338 0.29594
# Poissons Ratio (z) = 1.72718 1.11529
#
# Static dielectric constant tensor:
#      x y z
#    x 1.686240 0.000000 0.000000 
#    y 0.000000 1.760670 0.000000 
#    z 0.000000 0.000000 1.688470 
# 
# From -- ./inp_files/10834.got.cif
#   From: 2010.05.17/outbox.ucp.g08.bks.cvg/sg52_6_cif.got.tgz:10834.got - 2010.06.11 16:30:12.
