data_PCOD9414047
_publ_section_title
;
Structure prediction by ZEFSAII (Michael W. Deem and Ramdas Pophale) SiO2 
 PCOD9414047
Probable space group: P N N A
;
_chemical_formula_sum "Si O2"
_cell_formula_units_Z 56
_cell_length_a 12.000000
_cell_length_b 15.000000
_cell_length_c 15.000000
_cell_angle_alpha 90.000000
_cell_angle_beta 90.000000
_cell_angle_gamma 90.000000
_cell_volume 2700.000000
_symmetry_space_group_name_H-M "P N N A"
_symmetry_group_IT_number 52
_symmetry_cell_setting 'orthorhombic'
loop_
_space_group_symop_operation_xyz
x,y,z
1/2-x,-y,z
x,1/2-y,1/2-z
1/2-x,1/2+y,1/2-z
-x,-y,-z
1/2+x,y,-z
-x,1/2+y,1/2+z
1/2+x,1/2-y,1/2+z
loop_
_atom_site_type_symbol
_atom_site_label
_atom_site_fract_x
_atom_site_fract_y
_atom_site_fract_z
Si Si1 0.075869 0.087909 0.202986
Si Si2 0.597382 0.174638 0.320660
Si Si3 0.250000 0.000000 0.337280
Si Si4 0.314171 0.259550 0.925806
Si Si5 0.447035 0.250000 0.750000
Si Si6 0.198912 0.399737 0.479072
Si Si7 0.068577 0.587041 0.039058
Si Si8 0.127873 0.042805 0.839219
O O1 0.022710 0.164840 0.262703
O O2 0.163663 0.043773 0.268880
O O3 0.135399 0.122204 0.112559
O O4 0.976781 0.022160 0.172398
O O5 0.557997 0.250000 0.250000
O O6 0.698665 0.205676 0.383365
O O7 0.507796 0.136894 0.388770
O O8 0.634516 0.099444 0.250824
O O9 0.176526 0.941906 0.404716
O O10 0.377008 0.226656 0.837359
O O11 0.287046 0.177625 0.993003
O O12 0.386065 0.340265 0.967886
O O13 0.250000 0.500000 0.465834
O O14 0.118295 0.405756 0.566113
O O15 0.000000 0.500000 0.000000
O O16 0.250000 0.000000 0.847211
#
# Coordination Sequence:
#
# PCOD9414047 Si02
#       8
#     8   8   4   8   4   8   8   8
#     4  12  26  44  75 104 152 195 246 308 380 456
#     4  12  25  46  74 111 143 191 250 312 381 446
#     4  12  26  52  68 110 146 196 246 302 388 446
#     4  12  26  47  73 110 148 189 257 313 378 458
#     4  12  26  46  74 104 144 194 252 306 376 444
#     4  11  24  45  72 108 146 198 242 312 377 455
#     4  12  29  48  77 106 151 202 253 316 384 468
#     4  11  23  45  74 103 144 193 249 302 370 449
#
# _framework density 20.740741
#
# number of rings (size 3 to 8) (size 9 to 14) (size 15 to 20)
#    0.000    0.286    4.286    4.714    6.000    2.286 
#    0.000    0.000    0.000    0.000    0.000    0.000 
#    0.000    0.000    0.000    0.000    0.000    0.000 
#
# Total GULP energy -312752.441303 kJ/mol
# GULP energy per Si atom -5584.865023 kJ/mol
# Density = 2.069353 g / cm^3
# Si number density = 20.740741 Si / 1000 Ang^3
#
#
#
# Elastic Constant Matrix: (Units=GPa)
#
#
# Indices 1 2 3 4 5 6 
#
# 1 78.8220 32.8894 17.5019 0.0000 0.0000 0.0000
# 2 32.8894 82.4456 23.2813 0.0000 0.0000 0.0000
# 3 17.5019 23.2813 96.6837 0.0000 0.0000 0.0000
# 4 0.0000 0.0000 0.0000 48.4154 0.0000 0.0000
# 5 0.0000 0.0000 0.0000 0.0000 33.1439 0.0000
# 6 0.0000 0.0000 0.0000 0.0000 0.0000 -291.6992
#
#
#
# Elastic Compliance Matrix: (Units=1/GPa)
#
#
# Indices 1 2 3 4 5 6 
#
# 1 0.015396 -0.005745 -0.001403 0.000000 0.000000 0.000000
# 2 -0.005745 0.015158 -0.002610 0.000000 0.000000 0.000000
# 3 -0.001403 -0.002610 0.011226 0.000000 0.000000 0.000000
# 4 0.000000 0.000000 0.000000 0.020655 0.000000 0.000000
# 5 0.000000 0.000000 0.000000 0.000000 0.030172 0.000000
# 6 0.000000 0.000000 0.000000 0.000000 0.000000 -0.003428
#
#
# Mechanical properties :
#
#
# Convention : Reuss Voigt Hill
#
# Bulk Modulus (GPa) = 44.92022 45.03297 44.97660
# Shear Modulus (GPa) = 43.06043 -29.74276 6.65884
#
# Velocity S-wave (km/s) = 4.56140 -3.79096 1.79373
# Velocity P-wave (km/s) = 7.03184 1.61171 5.10120
#
# Compressibility (1/GPa) = 0.02226169
#
# Stress axis : x y z
#
# Youngs Moduli (GPa) = 64.95285 65.97086 89.08243
#
# Poissons Ratio (x) = 0.37903 0.12503
# Poissons Ratio (y) = 0.37318 0.23251
# Poissons Ratio (z) = 0.09116 0.17219
#
# Static dielectric constant tensor:
#      x y z
#    x 3.842410 0.000000 0.000000 
#    y 0.000000 2.070370 0.000000 
#    z 0.000000 0.000000 1.723760 
# 
# From -- ./inp_files/26225.got.cif
#   From: 2010.05.17/outbox.ucp.g08.bks.cvg/sg52_14_cif.got.tgz:26225.got - 2010.06.11 16:30:12.
