data_PCOD9414073
_publ_section_title
;
Structure prediction by ZEFSAII (Michael W. Deem and Ramdas Pophale) SiO2 
 PCOD9414073
Probable space group: P M N A
;
_chemical_formula_sum "Si O2"
_cell_formula_units_Z 64
_cell_length_a 8.696174
_cell_length_b 21.637743
_cell_length_c 18.349006
_cell_angle_alpha 90.000000
_cell_angle_beta 90.000000
_cell_angle_gamma 90.000000
_cell_volume 3452.651321
_symmetry_space_group_name_H-M "P M N A"
_symmetry_group_IT_number 53
_symmetry_cell_setting 'orthorhombic'
loop_
_space_group_symop_operation_xyz
x,y,z
1/2-x,-y,1/2+z
x,-y,-z
1/2-x,y,1/2-z
-x,-y,-z
1/2+x,y,1/2-z
-x,y,z
1/2+x,-y,1/2+z
loop_
_atom_site_type_symbol
_atom_site_label
_atom_site_fract_x
_atom_site_fract_y
_atom_site_fract_z
Si Si1 0.816795 0.988609 0.167016
Si Si2 0.814278 0.613398 0.075464
Si Si3 0.684094 0.863010 0.167679
Si Si4 0.184213 0.114288 0.332392
Si Si5 0.816029 0.250877 0.331932
Si Si6 0.185755 0.495937 0.170126
Si Si7 0.185827 0.370846 0.091790
Si Si8 0.684035 0.273939 0.831885
O O1 0.750000 0.988572 0.250000
O O2 0.756187 0.052661 0.132988
O O3 0.000000 0.988625 0.170378
O O4 0.756318 0.924534 0.132942
O O5 0.765883 0.550073 0.114897
O O6 0.750155 0.671825 0.118984
O O7 0.000000 0.615376 0.077755
O O8 0.767304 0.616259 0.991303
O O9 0.750000 0.860672 0.250000
O O10 0.500000 0.870027 0.170300
O O11 0.721484 0.794869 0.137574
O O12 0.250000 0.116597 0.250000
O O13 0.222292 0.182317 0.362783
O O14 0.000000 0.107435 0.329793
O O15 0.750000 0.255760 0.250000
O O16 0.751578 0.306751 0.379077
O O17 0.000000 0.254821 0.327590
O O18 0.250000 0.508311 0.250000
O O19 0.235405 0.428726 0.141419
O O20 0.000000 0.496122 0.172689
O O21 0.000000 0.368043 0.094264
O O22 0.750000 0.279170 0.750000
O O23 0.500000 0.278471 0.827705
#
# Coordination Sequence:
#
# PCOD9414073 Si02
#       8
#     8   8   8   8   8   8   8   8
#     4  10  16  22  36  60  91 126 163 204 251 301
#     4  10  21  37  56  77 104 138 173 211 255 304
#     4   9  16  26  40  61  92 128 164 204 252 302
#     4   9  16  26  40  61  92 128 164 204 252 302
#     4  10  20  33  51  75 103 136 174 216 259 307
#     4  10  21  37  57  81 107 136 171 208 252 304
#     4  10  21  37  56  77 104 138 173 211 255 304
#     4  10  20  33  51  75 103 136 174 216 259 307
#
# _framework density 18.536479
#
# number of rings (size 3 to 8) (size 9 to 14) (size 15 to 20)
#    0.000    2.250    0.000    5.250    0.000    8.000 
#    0.000    0.000    0.000    2.250    0.000    0.875 
#    0.000    7.000    0.000    0.000    0.000    0.000 
#
# Total GULP energy -356908.203545 kJ/mol
# GULP energy per Si atom -5576.690680 kJ/mol
# Density = 1.849429 g / cm^3
# Si number density = 18.536479 Si / 1000 Ang^3
#
#
#
# Elastic Constant Matrix: (Units=GPa)
#
#
# Indices 1 2 3 4 5 6 
#
# 1 46.0626 19.9422 -1.1094 0.0000 0.0000 0.0000
# 2 19.9422 89.4987 -13.5909 0.0000 0.0000 0.0000
# 3 -1.1094 -13.5909 19.9760 0.0000 0.0000 0.0000
# 4 0.0000 0.0000 0.0000 -6.2487 0.0000 0.0000
# 5 0.0000 0.0000 0.0000 0.0000 17.8318 0.0000
# 6 0.0000 0.0000 0.0000 0.0000 0.0000 31.7985
#
#
#
# Elastic Compliance Matrix: (Units=1/GPa)
#
#
# Indices 1 2 3 4 5 6 
#
# 1 0.024147 -0.005773 -0.002587 0.000000 0.000000 0.000000
# 2 -0.005773 0.013841 0.009096 0.000000 0.000000 0.000000
# 3 -0.002587 0.009096 0.056105 0.000000 0.000000 0.000000
# 4 0.000000 0.000000 0.000000 -0.160034 0.000000 0.000000
# 5 0.000000 0.000000 0.000000 0.000000 0.056080 0.000000
# 6 0.000000 0.000000 0.000000 0.000000 0.000000 0.031448
#
#
# Mechanical properties :
#
#
# Convention : Reuss Voigt Hill
#
# Bulk Modulus (GPa) = 10.46402 18.44679 14.45541
# Shear Modulus (GPa) = 96.21060 18.69602 57.45331
#
# Velocity S-wave (km/s) = 7.21222 3.17930 5.57333
# Velocity P-wave (km/s) = 8.66095 4.84257 7.01650
#
# Compressibility (1/GPa) = 0.09556553
#
# Stress axis : x y z
#
# Youngs Moduli (GPa) = 41.41353 72.24882 17.82364
#
# Poissons Ratio (x) = 0.41711 0.04611
# Poissons Ratio (y) = 0.23909 -0.16213
# Poissons Ratio (z) = 0.10713 -0.65720
#
# Static dielectric constant tensor:
#      x y z
#    x 1.624760 0.000000 0.000000 
#    y 0.000000 1.696110 0.000000 
#    z 0.000000 0.000000 1.601380 
# 
# From -- ./inp_files/31356.got.cif
#   From: 2010.05.17/outbox.cif.g08.bks.cpg/sg53_16_cif.got.tgz:31356.got - 2010.06.03 12:45:16.
