data_PCOD9414515
_publ_section_title
;
Structure prediction by ZEFSAII (Michael W. Deem and Ramdas Pophale) SiO2 
 PCOD9414515
Probable space group: P M N A
;
_chemical_formula_sum "Si O2"
_cell_formula_units_Z 64
_cell_length_a 8.369628
_cell_length_b 21.741273
_cell_length_c 19.356366
_cell_angle_alpha 90.000000
_cell_angle_beta 90.000000
_cell_angle_gamma 90.000000
_cell_volume 3522.207604
_symmetry_space_group_name_H-M "P M N A"
_symmetry_group_IT_number 53
_symmetry_cell_setting 'orthorhombic'
loop_
_space_group_symop_operation_xyz
x,y,z
1/2-x,-y,1/2+z
x,-y,-z
1/2-x,y,1/2-z
-x,-y,-z
1/2+x,y,1/2-z
-x,y,z
1/2+x,-y,1/2+z
loop_
_atom_site_type_symbol
_atom_site_label
_atom_site_fract_x
_atom_site_fract_y
_atom_site_fract_z
Si Si1 0.813463 0.554484 0.182826
Si Si2 0.191609 0.238838 0.327766
Si Si3 0.819225 0.342079 0.068192
Si Si4 0.308821 0.020509 0.827879
Si Si5 0.815260 0.420709 0.321435
Si Si6 0.190898 0.066086 0.968047
Si Si7 0.307401 0.109952 0.108021
Si Si8 0.187547 0.565908 0.463129
O O1 0.750000 0.590919 0.250000
O O2 0.703118 0.493540 0.182100
O O3 0.784893 0.578846 0.106444
O O4 0.000000 0.539845 0.191604
O O5 0.250000 0.251948 0.250000
O O6 0.253728 0.285493 0.386638
O O7 0.243613 0.170272 0.350285
O O8 0.000000 0.241760 0.327555
O O9 0.808361 0.397717 0.122577
O O10 0.000000 0.330547 0.045491
O O11 0.713321 0.373002 0.008876
O O12 0.250000 0.033200 0.750000
O O13 0.500000 0.019707 0.826712
O O14 0.250814 0.952553 0.853536
O O15 0.254863 0.066465 0.889626
O O16 0.750000 0.394650 0.250000
O O17 0.500000 0.403902 0.164892
O O18 0.000000 0.068183 0.965392
O O19 0.250380 0.111590 0.028225
O O20 0.242627 0.000000 0.000000
O O21 0.500000 0.108080 0.107198
O O22 0.235827 0.500000 0.500000
O O23 0.000000 0.558385 0.448151
#
# Coordination Sequence:
#
# PCOD9414515 Si02
#       8
#     8   8   8   8   8   8   8   8
#     4  11  21  34  53  77 104 132 164 201 247 304
#     4  11  23  39  56  77 107 143 185 226 265 310
#     4  12  24  37  53  74 101 135 174 216 262 311
#     4  10  18  29  47  74 108 143 181 224 273 323
#     4  11  20  32  48  69  97 131 166 203 248 299
#     4   9  17  29  47  72 102 137 178 223 270 320
#     4   9  19  34  52  73 102 143 185 226 269 315
#     4  11  22  37  57  79 105 135 170 212 262 317
#
# _framework density 18.170424000000001
#
# number of rings (size 3 to 8) (size 9 to 14) (size 15 to 20)
#    0.000    1.500    1.250    6.375    0.000    3.500 
#    0.000    0.000    0.000    0.000    0.000    0.875 
#    0.000    6.000    0.000    0.000    0.000    0.000 
#
# Total GULP energy -356614.790477 kJ/mol
# GULP energy per Si atom -5572.106101 kJ/mol
# Density = 1.812907 g / cm^3
# Si number density = 18.170424 Si / 1000 Ang^3
#
#
#
# Elastic Constant Matrix: (Units=GPa)
#
#
# Indices 1 2 3 4 5 6 
#
# 1 67.1915 7.5543 21.0097 0.0000 0.0000 0.0000
# 2 7.5543 41.6598 21.9756 0.0000 0.0000 0.0000
# 3 21.0097 21.9756 126.0837 0.0000 0.0000 0.0000
# 4 0.0000 0.0000 0.0000 18.2731 0.0000 0.0000
# 5 0.0000 0.0000 0.0000 0.0000 33.7509 0.0000
# 6 0.0000 0.0000 0.0000 0.0000 0.0000 2.8462
#
#
#
# Elastic Compliance Matrix: (Units=1/GPa)
#
#
# Indices 1 2 3 4 5 6 
#
# 1 0.015800 -0.001626 -0.002349 0.000000 0.000000 0.000000
# 2 -0.001626 0.026602 -0.004366 0.000000 0.000000 0.000000
# 3 -0.002349 -0.004366 0.009084 0.000000 0.000000 0.000000
# 4 0.000000 0.000000 0.000000 0.054725 0.000000 0.000000
# 5 0.000000 0.000000 0.000000 0.000000 0.029629 0.000000
# 6 0.000000 0.000000 0.000000 0.000000 0.000000 0.351345
#
#
# Mechanical properties :
#
#
# Convention : Reuss Voigt Hill
#
# Bulk Modulus (GPa) = 28.73245 37.33491 33.03368
# Shear Modulus (GPa) = 9.69994 23.26707 16.48351
#
# Velocity S-wave (km/s) = 2.31299 3.58228 3.01518
# Velocity P-wave (km/s) = 4.79378 6.14019 5.50828
#
# Compressibility (1/GPa) = 0.03480386
#
# Stress axis : x y z
#
# Youngs Moduli (GPa) = 63.29006 37.59165 110.08813
#
# Poissons Ratio (x) = 0.06112 0.25865
# Poissons Ratio (y) = 0.10290 0.48060
# Poissons Ratio (z) = 0.14870 0.16411
#
# Static dielectric constant tensor:
#      x y z
#    x 1.626840 0.000000 0.000000 
#    y 0.000000 1.641560 0.000000 
#    z 0.000000 0.000000 1.740210 
# 
# From -- ./inp_files/26883.got.cif
#   From: 2010.05.17/outbox.cif.g08.bks.cpg/sg53_14_cif.got.tgz:26883.got - 2010.06.03 12:45:16.
