data_PCOD9414886
_publ_section_title
;
Structure prediction by ZEFSAII (Michael W. Deem and Ramdas Pophale) SiO2 
 PCOD9414886
Probable space group: P M N A
;
_chemical_formula_sum "Si O2"
_cell_formula_units_Z 64
_cell_length_a 28.514827
_cell_length_b 8.896402
_cell_length_c 11.664946
_cell_angle_alpha 90.000000
_cell_angle_beta 90.000000
_cell_angle_gamma 90.000000
_cell_volume 2959.156082
_symmetry_space_group_name_H-M "P M N A"
_symmetry_group_IT_number 53
_symmetry_cell_setting 'orthorhombic'
loop_
_space_group_symop_operation_xyz
x,y,z
1/2-x,-y,1/2+z
x,-y,-z
1/2-x,y,1/2-z
-x,-y,-z
1/2+x,y,1/2-z
-x,y,z
1/2+x,-y,1/2+z
loop_
_atom_site_type_symbol
_atom_site_label
_atom_site_fract_x
_atom_site_fract_y
_atom_site_fract_z
Si Si1 0.947665 0.920786 0.613651
Si Si2 0.178486 0.831800 0.441932
Si Si3 0.368566 0.313402 0.154596
Si Si4 0.552553 0.477854 0.862961
Si Si5 0.550197 0.187616 0.712913
Si Si6 0.273881 0.329391 0.543796
Si Si7 0.151898 0.174690 0.815218
Si Si8 0.201757 0.139974 0.180170
O O1 0.914416 0.789409 0.649021
O O2 0.000000 0.870840 0.581530
O O3 0.927793 0.000000 0.500000
O O4 0.950063 0.031270 0.720210
O O5 0.155634 0.716371 0.532228
O O6 0.227798 0.754840 0.409913
O O7 0.150746 0.839408 0.323154
O O8 0.183309 0.000000 0.500000
O O9 0.395694 0.467211 0.178922
O O10 0.331757 0.246975 0.244119
O O11 0.500000 0.539806 0.827229
O O12 0.550862 0.310066 0.814635
O O13 0.554153 0.500000 0.000000
O O14 0.500000 0.206138 0.650688
O O15 0.598495 0.195325 0.643642
O O16 0.266520 0.500000 0.500000
O O17 0.315207 0.306364 0.635963
O O18 0.286593 0.230783 0.433107
O O19 0.175709 0.015681 0.848196
O O20 0.250000 0.108965 0.250000
#
# Coordination Sequence:
#
# PCOD9414886 Si02
#       8
#     8   8   8   8   8   8   8   8
#     4  10  18  32  56  91 129 165 207 257 316 391
#     4  12  22  43  67 100 134 175 215 268 333 391
#     4  12  22  36  65  94 136 168 222 261 326 394
#     4  10  21  36  55  90 139 182 213 257 328 403
#     4  10  21  37  59  91 129 167 215 272 328 389
#     4  12  29  45  64  94 130 173 227 275 323 391
#     4  12  23  43  73  95 128 176 219 266 336 398
#     4  12  24  46  67  94 130 174 214 280 327 388
#
# _framework density 21.627787999999999
#
# number of rings (size 3 to 8) (size 9 to 14) (size 15 to 20)
#    0.000    0.750    3.750    5.250    1.750    4.500 
#    0.000    0.000    0.000    3.375    0.000    0.000 
#    0.000    0.000    0.000    0.000    0.000    0.000 
#
# Total GULP energy -357436.910786 kJ/mol
# GULP energy per Si atom -5584.951731 kJ/mol
# Density = 2.157856 g / cm^3
# Si number density = 21.627788 Si / 1000 Ang^3
#
#
#
# Elastic Constant Matrix: (Units=GPa)
#
#
# Indices 1 2 3 4 5 6 
#
# 1 161.0566 20.3718 6.2601 0.0000 0.0000 0.0000
# 2 20.3718 42.4154 1.7454 0.0000 0.0000 0.0000
# 3 6.2601 1.7454 32.1737 0.0000 0.0000 0.0000
# 4 0.0000 0.0000 0.0000 19.0811 0.0000 0.0000
# 5 0.0000 0.0000 0.0000 0.0000 28.4141 0.0000
# 6 0.0000 0.0000 0.0000 0.0000 0.0000 33.1900
#
#
#
# Elastic Compliance Matrix: (Units=1/GPa)
#
#
# Indices 1 2 3 4 5 6 
#
# 1 0.006651 -0.003148 -0.001123 0.000000 0.000000 0.000000
# 2 -0.003148 0.025119 -0.000750 0.000000 0.000000 0.000000
# 3 -0.001123 -0.000750 0.031341 0.000000 0.000000 0.000000
# 4 0.000000 0.000000 0.000000 0.052408 0.000000 0.000000
# 5 0.000000 0.000000 0.000000 0.000000 0.035194 0.000000
# 6 0.000000 0.000000 0.000000 0.000000 0.000000 0.030130
#
#
# Mechanical properties :
#
#
# Convention : Reuss Voigt Hill
#
# Bulk Modulus (GPa) = 18.84396 32.48893 25.66644
# Shear Modulus (GPa) = 23.97230 29.95494 26.96362
#
# Velocity S-wave (km/s) = 3.33288 3.72562 3.53471
# Velocity P-wave (km/s) = 4.85207 5.79323 5.34341
#
# Compressibility (1/GPa) = 0.05306741
#
# Stress axis : x y z
#
# Youngs Moduli (GPa) = 150.35646 39.81013 31.90755
#
# Poissons Ratio (x) = 0.12533 0.03584
# Poissons Ratio (y) = 0.47334 0.02394
# Poissons Ratio (z) = 0.16889 0.02987
#
# Static dielectric constant tensor:
#      x y z
#    x 1.887000 0.000000 0.000000 
#    y 0.000000 2.027030 0.000000 
#    z 0.000000 0.000000 1.781280 
# 
# From -- ./inp_files/19045.got.cif
#   From: 2010.05.17/outbox.cif.g08.bks.cpg/sg53_10_cif.got.tgz:19045.got - 2010.06.03 12:45:16.
