data_PCOD9414352
_publ_section_title
;
Structure prediction by ZEFSAII (Michael W. Deem and Ramdas Pophale) SiO2 
 PCOD9414352
Probable space group: P M N A
;
_chemical_formula_sum "Si O2"
_cell_formula_units_Z 48
_cell_length_a 7.292221
_cell_length_b 16.103663
_cell_length_c 22.121311
_cell_angle_alpha 90.000000
_cell_angle_beta 90.000000
_cell_angle_gamma 90.000000
_cell_volume 2597.738058
_symmetry_space_group_name_H-M "P M N A"
_symmetry_group_IT_number 53
_symmetry_cell_setting 'orthorhombic'
loop_
_space_group_symop_operation_xyz
x,y,z
1/2-x,-y,1/2+z
x,-y,-z
1/2-x,y,1/2-z
-x,-y,-z
1/2+x,y,1/2-z
-x,y,z
1/2+x,-y,1/2+z
loop_
_atom_site_type_symbol
_atom_site_label
_atom_site_fract_x
_atom_site_fract_y
_atom_site_fract_z
Si Si1 0.777182 0.618642 0.545466
Si Si2 0.276925 0.555812 0.088044
Si Si3 0.776335 0.197839 0.459773
Si Si4 0.218420 0.694351 0.321044
Si Si5 0.282670 0.977794 0.928779
Si Si6 0.276180 0.154910 0.902234
O O1 0.726251 0.597410 0.476132
O O2 0.717217 0.540133 0.585401
O O3 0.716372 0.711338 0.561457
O O4 0.000000 0.619413 0.546663
O O5 0.500000 0.554400 0.089079
O O6 0.213148 0.613720 0.142561
O O7 0.712287 0.116204 0.423535
O O8 0.725735 0.185872 0.530395
O O9 0.000000 0.196548 0.458594
O O10 0.250000 0.691521 0.250000
O O11 0.286265 0.778600 0.353010
O O12 0.000000 0.695009 0.330158
O O13 0.500000 0.973831 0.916352
O O14 0.212456 0.059619 0.894778
O O15 0.262517 0.000000 0.000000
O O16 0.500000 0.152766 0.901617
#
# Coordination Sequence:
#
# PCOD9414352 Si02
#       6
#     8   8   8   8   8   8
#     4   8  11  16  29  48  70  93 113 139 182 228
#     4   8  13  20  30  47  70  93 116 144 180 218
#     4   8  10  14  26  46  71  93 109 132 175 224
#     4  10  18  27  38  52  72  99 127 151 176 208
#     4   7  10  14  23  41  66  93 111 126 163 215
#     4   8  12  19  29  44  69  95 114 137 172 213
#
# _framework density 18.477613000000002
#
# number of rings (size 3 to 8) (size 9 to 14) (size 15 to 20)
#    0.000    3.833    1.667    3.000    0.000    0.000 
#    0.000    0.000    0.000    0.000    0.000    3.500 
#    0.000    6.000    0.000    0.000    0.000    0.000 
#
# Total GULP energy -267222.211661 kJ/mol
# GULP energy per Si atom -5567.129410 kJ/mol
# Density = 1.843556 g / cm^3
# Si number density = 18.477613 Si / 1000 Ang^3
#
#
#
# Elastic Constant Matrix: (Units=GPa)
#
#
# Indices 1 2 3 4 5 6 
#
# 1 72.8254 12.2328 0.7804 0.0000 0.0000 0.0000
# 2 12.2328 251.5058 77.8878 0.0000 0.0000 0.0000
# 3 0.7804 77.8878 76.3781 0.0000 0.0000 0.0000
# 4 0.0000 0.0000 0.0000 18.6177 0.0000 0.0000
# 5 0.0000 0.0000 0.0000 0.0000 2.9804 0.0000
# 6 0.0000 0.0000 0.0000 0.0000 0.0000 -19.8351
#
#
#
# Elastic Compliance Matrix: (Units=1/GPa)
#
#
# Indices 1 2 3 4 5 6 
#
# 1 0.013878 -0.000922 0.000799 0.000000 0.000000 0.000000
# 2 -0.000922 0.005873 -0.005979 0.000000 0.000000 0.000000
# 3 0.000799 -0.005979 0.019182 0.000000 0.000000 0.000000
# 4 0.000000 0.000000 0.000000 0.053712 0.000000 0.000000
# 5 0.000000 0.000000 0.000000 0.000000 0.335531 0.000000
# 6 0.000000 0.000000 0.000000 0.000000 0.000000 -0.050416
#
#
# Mechanical properties :
#
#
# Convention : Reuss Voigt Hill
#
# Bulk Modulus (GPa) = 37.41556 64.72348 51.06952
# Shear Modulus (GPa) = 12.53527 21.00648 16.77087
#
# Velocity S-wave (km/s) = 2.60744 3.37539 3.01596
# Velocity P-wave (km/s) = 5.41831 7.09191 6.31083
#
# Compressibility (1/GPa) = 0.02672685
#
# Stress axis : x y z
#
# Youngs Moduli (GPa) = 72.05724 170.28209 52.13204
#
# Poissons Ratio (x) = 0.15706 -0.04164
# Poissons Ratio (y) = 0.06646 0.31171
# Poissons Ratio (z) = -0.05756 1.01816
#
# Static dielectric constant tensor:
#      x y z
#    x 1.731750 0.000000 0.000000 
#    y 0.000000 1.705100 0.000000 
#    z 0.000000 0.000000 1.572910 
# 
# From -- ./inp_files/32032.got.cif
#   From: 2010.05.17/outbox.cif.g08.bks.cpg/sg53_17_cif.got.tgz:32032.got - 2010.06.03 12:45:16.
