data_PCOD9414638
_publ_section_title
;
Structure prediction by ZEFSAII (Michael W. Deem and Ramdas Pophale) SiO2 
 PCOD9414638
Probable space group: P M N A
;
_chemical_formula_sum "Si O2"
_cell_formula_units_Z 40
_cell_length_a 8.705371
_cell_length_b 26.839271
_cell_length_c 9.603934
_cell_angle_alpha 90.000000
_cell_angle_beta 90.000000
_cell_angle_gamma 90.000000
_cell_volume 2243.918952
_symmetry_space_group_name_H-M "P M N A"
_symmetry_group_IT_number 53
_symmetry_cell_setting 'orthorhombic'
loop_
_space_group_symop_operation_xyz
x,y,z
1/2-x,-y,1/2+z
x,-y,-z
1/2-x,y,1/2-z
-x,-y,-z
1/2+x,y,1/2-z
-x,y,z
1/2+x,-y,1/2+z
loop_
_atom_site_type_symbol
_atom_site_label
_atom_site_fract_x
_atom_site_fract_y
_atom_site_fract_z
Si Si1 0.815772 0.753495 0.594100
Si Si2 0.316157 0.547725 0.905732
Si Si3 0.315727 0.953207 0.405055
Si Si4 0.815984 0.151954 0.595011
Si Si5 0.316534 0.349372 0.407580
O O1 0.750000 0.759520 0.750000
O O2 0.775889 0.801451 0.502162
O O3 0.746807 0.702322 0.531717
O O4 0.000000 0.748768 0.601928
O O5 0.250000 0.540925 0.750000
O O6 0.500000 0.553411 0.896447
O O7 0.245166 0.598659 0.967735
O O8 0.280286 0.500000 0.000000
O O9 0.250000 0.959825 0.250000
O O10 0.500000 0.950336 0.398632
O O11 0.250976 0.900480 0.458568
O O12 0.271678 0.000000 0.500000
O O13 0.750000 0.159293 0.750000
O O14 0.000000 0.148124 0.602888
O O15 0.250000 0.349488 0.250000
O O16 0.500000 0.349033 0.404430
#
# Coordination Sequence:
#
# PCOD9414638 Si02
#       5
#     8   8   8   8   8
#     4  10  20  34  53  78 104 132 170 212 253 299
#     4  10  20  34  53  76 103 135 170 210 255 303
#     4  10  21  36  55  78 104 136 172 210 253 302
#     4  10  21  36  55  77 104 138 171 208 255 305
#     4  10  18  30  51  75 101 134 169 208 254 301
#
# _framework density 17.825956999999999
#
# number of rings (size 3 to 8) (size 9 to 14) (size 15 to 20)
#    0.000    2.000    0.000    7.800    0.000    7.200 
#    0.000    5.000    0.000    0.000    0.000    0.000 
#    0.000    0.000    0.000    0.000    0.000    0.000 
#
# Total GULP energy -223216.960810 kJ/mol
# GULP energy per Si atom -5580.424020 kJ/mol
# Density = 1.778538 g / cm^3
# Si number density = 17.825957 Si / 1000 Ang^3
#
#
#
# Elastic Constant Matrix: (Units=GPa)
#
#
# Indices 1 2 3 4 5 6 
#
# 1 91.8201 85.1400 32.8104 0.0000 0.0000 0.0000
# 2 85.1400 226.1285 74.6548 0.0000 0.0000 0.0000
# 3 32.8104 74.6548 44.9222 0.0000 0.0000 0.0000
# 4 0.0000 0.0000 0.0000 31.8492 0.0000 0.0000
# 5 0.0000 0.0000 0.0000 0.0000 16.2491 0.0000
# 6 0.0000 0.0000 0.0000 0.0000 0.0000 35.1469
#
#
#
# Elastic Compliance Matrix: (Units=1/GPa)
#
#
# Indices 1 2 3 4 5 6 
#
# 1 0.017043 -0.005112 -0.003952 0.000000 0.000000 0.000000
# 2 -0.005112 0.011331 -0.015097 0.000000 0.000000 0.000000
# 3 -0.003952 -0.015097 0.050238 0.000000 0.000000 0.000000
# 4 0.000000 0.000000 0.000000 0.031398 0.000000 0.000000
# 5 0.000000 0.000000 0.000000 0.000000 0.061542 0.000000
# 6 0.000000 0.000000 0.000000 0.000000 0.000000 0.028452
#
#
# Mechanical properties :
#
#
# Convention : Reuss Voigt Hill
#
# Bulk Modulus (GPa) = 33.01620 83.12013 58.06817
# Shear Modulus (GPa) = 19.34802 28.00008 23.67405
#
# Velocity S-wave (km/s) = 3.29809 3.96757 3.64822
# Velocity P-wave (km/s) = 5.75020 8.22914 7.09872
#
# Compressibility (1/GPa) = 0.03028816
#
# Stress axis : x y z
#
# Youngs Moduli (GPa) = 58.67352 88.25056 19.90545
#
# Poissons Ratio (x) = 0.45115 0.07868
# Poissons Ratio (y) = 0.29995 0.30052
# Poissons Ratio (z) = 0.23191 1.33236
#
# Static dielectric constant tensor:
#      x y z
#    x 1.598100 0.000000 0.000000 
#    y 0.000000 1.648460 0.000000 
#    z 0.000000 0.000000 1.587090 
# 
# From -- ./inp_files/13995.got.cif
#   From: 2010.05.17/outbox.cif.g08.bks.cpg/sg53_7_cif.got.tgz:13995.got - 2010.06.03 12:45:16.
