data_PCOD9414629
_publ_section_title
;
Structure prediction by ZEFSAII (Michael W. Deem and Ramdas Pophale) SiO2 
 PCOD9414629
Probable space group: P M N A
;
_chemical_formula_sum "Si O2"
_cell_formula_units_Z 56
_cell_length_a 8.759590
_cell_length_b 24.193558
_cell_length_c 14.054411
_cell_angle_alpha 90.000000
_cell_angle_beta 90.000000
_cell_angle_gamma 90.000000
_cell_volume 2978.490169
_symmetry_space_group_name_H-M "P M N A"
_symmetry_group_IT_number 53
_symmetry_cell_setting 'orthorhombic'
loop_
_space_group_symop_operation_xyz
x,y,z
1/2-x,-y,1/2+z
x,-y,-z
1/2-x,y,1/2-z
-x,-y,-z
1/2+x,y,1/2-z
-x,y,z
1/2+x,-y,1/2+z
loop_
_atom_site_type_symbol
_atom_site_label
_atom_site_fract_x
_atom_site_fract_y
_atom_site_fract_z
Si Si1 0.680865 0.693738 0.855641
Si Si2 0.818439 0.202063 0.038836
Si Si3 0.316332 0.530161 0.353101
Si Si4 0.182266 0.913671 0.855913
Si Si5 0.815580 0.584991 0.951391
Si Si6 0.682790 0.973593 0.142176
Si Si7 0.182793 0.142031 0.854655
O O1 0.750000 0.695768 0.750000
O O2 0.500000 0.690382 0.848154
O O3 0.729312 0.748541 0.912471
O O4 0.743900 0.640197 0.910359
O O5 0.789001 0.143625 0.090635
O O6 0.000000 0.213190 0.046781
O O7 0.781147 0.190610 0.928564
O O8 0.250000 0.543075 0.250000
O O9 0.500000 0.531416 0.348102
O O10 0.270601 0.570416 0.439980
O O11 0.272636 0.468231 0.387186
O O12 0.250000 0.907488 0.750000
O O13 0.000000 0.922800 0.851582
O O14 0.259195 0.968507 0.900158
O O15 0.000000 0.589283 0.948920
O O16 0.750000 0.975060 0.250000
O O17 0.500000 0.972212 0.142927
O O18 0.749147 0.915669 0.106027
O O19 0.250000 0.151421 0.750000
O O20 0.000000 0.135894 0.849209
#
# Coordination Sequence:
#
# PCOD9414629 Si02
#       7
#     8   8   8   8   8   8   8
#     4  12  25  40  61  86 114 148 187 229 274 326
#     4  10  23  40  58  79 106 142 183 228 277 327
#     4   9  18  33  57  88 122 159 194 237 284 328
#     4  10  19  33  52  76 105 137 173 216 270 328
#     4   9  19  37  58  84 120 158 197 235 279 329
#     4  10  18  30  50  76 105 137 172 214 268 329
#     4  10  20  37  58  79 104 136 176 224 277 332
#
# _framework density 18.801470999999999
#
# number of rings (size 3 to 8) (size 9 to 14) (size 15 to 20)
#    0.000    2.000    0.000    6.857    0.000    6.286 
#    0.000    5.000    0.000    0.000    0.000    0.000 
#    0.000    0.000    0.000    0.000    0.000    0.000 
#
# Total GULP energy -312775.568113 kJ/mol
# GULP energy per Si atom -5585.278002 kJ/mol
# Density = 1.875868 g / cm^3
# Si number density = 18.801471 Si / 1000 Ang^3
#
#
#
# Elastic Constant Matrix: (Units=GPa)
#
#
# Indices 1 2 3 4 5 6 
#
# 1 94.8006 74.5229 59.6650 0.0000 0.0000 0.0000
# 2 74.5229 127.1516 76.2607 0.0000 0.0000 0.0000
# 3 59.6650 76.2607 139.0828 0.0000 0.0000 0.0000
# 4 0.0000 0.0000 0.0000 22.3654 0.0000 0.0000
# 5 0.0000 0.0000 0.0000 0.0000 24.2171 0.0000
# 6 0.0000 0.0000 0.0000 0.0000 0.0000 30.5526
#
#
#
# Elastic Compliance Matrix: (Units=1/GPa)
#
#
# Indices 1 2 3 4 5 6 
#
# 1 0.020524 -0.010055 -0.003291 0.000000 0.000000 0.000000
# 2 -0.010055 0.016644 -0.004813 0.000000 0.000000 0.000000
# 3 -0.003291 -0.004813 0.011241 0.000000 0.000000 0.000000
# 4 0.000000 0.000000 0.000000 0.044712 0.000000 0.000000
# 5 0.000000 0.000000 0.000000 0.000000 0.041293 0.000000
# 6 0.000000 0.000000 0.000000 0.000000 0.000000 0.032730
#
#
# Mechanical properties :
#
#
# Convention : Reuss Voigt Hill
#
# Bulk Modulus (GPa) = 82.70625 86.88136 84.79381
# Shear Modulus (GPa) = 24.09706 25.46611 24.78158
#
# Velocity S-wave (km/s) = 3.58391 3.68431 3.63446
# Velocity P-wave (km/s) = 7.82372 8.02553 7.92527
#
# Compressibility (1/GPa) = 0.01209098
#
# Stress axis : x y z
#
# Youngs Moduli (GPa) = 48.72254 60.08003 88.96157
#
# Poissons Ratio (x) = 0.60412 0.29280
# Poissons Ratio (y) = 0.48992 0.42815
# Poissons Ratio (z) = 0.16036 0.28915
#
# Static dielectric constant tensor:
#      x y z
#    x 1.629320 0.000000 0.000000 
#    y 0.000000 1.640490 0.000000 
#    z 0.000000 0.000000 1.786840 
# 
# From -- ./inp_files/20607.got.cif
#   From: 2010.05.17/outbox.cif.g08.bks.cpg/sg53_11_cif.got.tgz:20607.got - 2010.06.03 12:45:16.
