data_PCOD9414593
_publ_section_title
;
Structure prediction by ZEFSAII (Michael W. Deem and Ramdas Pophale) SiO2 
 PCOD9414593
Probable space group: P M N A
;
_chemical_formula_sum "Si O2"
_cell_formula_units_Z 64
_cell_length_a 14.865969
_cell_length_b 13.803215
_cell_length_c 18.102109
_cell_angle_alpha 90.000000
_cell_angle_beta 90.000000
_cell_angle_gamma 90.000000
_cell_volume 3714.519573
_symmetry_space_group_name_H-M "P M N A"
_symmetry_group_IT_number 53
_symmetry_cell_setting 'orthorhombic'
loop_
_space_group_symop_operation_xyz
x,y,z
1/2-x,-y,1/2+z
x,-y,-z
1/2-x,y,1/2-z
-x,-y,-z
1/2+x,y,1/2-z
-x,y,z
1/2+x,-y,1/2+z
loop_
_atom_site_type_symbol
_atom_site_label
_atom_site_fract_x
_atom_site_fract_y
_atom_site_fract_z
Si Si1 0.602445 0.828342 0.370144
Si Si2 0.892148 0.913759 0.667855
Si Si3 0.397206 0.125833 0.873989
Si Si4 0.730458 0.301883 0.833903
Si Si5 0.605249 0.596700 0.047203
Si Si6 0.391941 0.039266 0.325414
Si Si7 0.826272 0.106961 0.019082
Si Si8 0.853191 0.207103 0.472436
O O1 0.500000 0.803068 0.349423
O O2 0.673936 0.742080 0.361376
O O3 0.604038 0.867116 0.454803
O O4 0.633978 0.925170 0.325920
O O5 0.860484 0.906627 0.751847
O O6 0.869813 0.832427 0.608860
O O7 0.000000 0.918579 0.669128
O O8 0.860145 0.018921 0.640207
O O9 0.500000 0.132776 0.846742
O O10 0.336717 0.208828 0.837307
O O11 0.397650 0.143933 0.962102
O O12 0.750000 0.334931 0.750000
O O13 0.677426 0.377750 0.887622
O O14 0.500000 0.595593 0.073580
O O15 0.622423 0.500000 0.000000
O O16 0.615366 0.685603 0.989927
O O17 0.500000 0.036981 0.326324
O O18 0.361673 0.093609 0.398785
O O19 0.751876 0.189441 0.014589
O O20 0.787739 0.000000 0.000000
#
# Coordination Sequence:
#
# PCOD9414593 Si02
#       8
#     8   8   8   8   8   8   8   8
#     4  10  19  33  51  75 108 151 188 218 259 312
#     4  10  19  29  44  71 110 148 180 221 268 320
#     4  10  19  32  49  76 114 148 177 214 266 325
#     4  11  21  34  57  88 114 140 173 229 273 328
#     4  10  22  42  66  85 106 139 182 236 292 346
#     4   9  19  31  43  67 108 154 195 223 249 301
#     4  10  18  30  48  72 103 146 192 223 254 311
#     4  11  19  31  52  79 102 136 182 224 272 337
#
# _framework density 17.229685
#
# number of rings (size 3 to 8) (size 9 to 14) (size 15 to 20)
#    0.000    1.875    2.500    4.500    1.750    5.000 
#    0.000    0.000    2.750    0.375    0.000    0.000 
#    0.000    0.000    0.000    0.000    0.000    0.000 
#
# Total GULP energy -356726.980906 kJ/mol
# GULP energy per Si atom -5573.859077 kJ/mol
# Density = 1.719047 g / cm^3
# Si number density = 17.229685 Si / 1000 Ang^3
#
#
#
# Elastic Constant Matrix: (Units=GPa)
#
#
# Indices 1 2 3 4 5 6 
#
# 1 89.4581 20.9290 22.3671 0.0000 0.0000 0.0000
# 2 20.9290 56.5999 44.5630 0.0000 0.0000 0.0000
# 3 22.3671 44.5630 128.1222 0.0000 0.0000 0.0000
# 4 0.0000 0.0000 0.0000 20.0764 0.0000 0.0000
# 5 0.0000 0.0000 0.0000 0.0000 10.7474 0.0000
# 6 0.0000 0.0000 0.0000 0.0000 0.0000 17.9293
#
#
#
# Elastic Compliance Matrix: (Units=1/GPa)
#
#
# Indices 1 2 3 4 5 6 
#
# 1 0.012293 -0.003933 -0.000778 0.000000 0.000000 0.000000
# 2 -0.003933 0.025589 -0.008214 0.000000 0.000000 0.000000
# 3 -0.000778 -0.008214 0.010798 0.000000 0.000000 0.000000
# 4 0.000000 0.000000 0.000000 0.049810 0.000000 0.000000
# 5 0.000000 0.000000 0.000000 0.000000 0.093046 0.000000
# 6 0.000000 0.000000 0.000000 0.000000 0.000000 0.055775
#
#
# Mechanical properties :
#
#
# Convention : Reuss Voigt Hill
#
# Bulk Modulus (GPa) = 43.80140 49.98871 46.89505
# Shear Modulus (GPa) = 17.80816 22.17202 19.99009
#
# Velocity S-wave (km/s) = 3.21841 3.59116 3.40988
# Velocity P-wave (km/s) = 6.26803 6.80231 6.54062
#
# Compressibility (1/GPa) = 0.02283032
#
# Stress axis : x y z
#
# Youngs Moduli (GPa) = 81.34639 39.07912 92.61189
#
# Poissons Ratio (x) = 0.15370 0.07206
# Poissons Ratio (y) = 0.31994 0.76069
# Poissons Ratio (z) = 0.06330 0.32098
#
# Static dielectric constant tensor:
#      x y z
#    x 1.640250 0.000000 0.000000 
#    y 0.000000 1.552370 0.000000 
#    z 0.000000 0.000000 1.643860 
# 
# From -- ./inp_files/28626.got.cif
#   From: 2010.05.17/outbox.cif.g08.bks.cpg/sg53_15_cif.got.tgz:28626.got - 2010.06.03 12:45:16.
