data_PCOD9414375
_publ_section_title
;
Structure prediction by ZEFSAII (Michael W. Deem and Ramdas Pophale) SiO2 
 PCOD9414375
Probable space group: P M N A
;
_chemical_formula_sum "Si O2"
_cell_formula_units_Z 64
_cell_length_a 8.954086
_cell_length_b 18.827991
_cell_length_c 26.851816
_cell_angle_alpha 90.000000
_cell_angle_beta 90.000000
_cell_angle_gamma 90.000000
_cell_volume 4526.879204
_symmetry_space_group_name_H-M "P M N A"
_symmetry_group_IT_number 53
_symmetry_cell_setting 'orthorhombic'
loop_
_space_group_symop_operation_xyz
x,y,z
1/2-x,-y,1/2+z
x,-y,-z
1/2-x,y,1/2-z
-x,-y,-z
1/2+x,y,1/2-z
-x,y,z
1/2+x,-y,1/2+z
loop_
_atom_site_type_symbol
_atom_site_label
_atom_site_fract_x
_atom_site_fract_y
_atom_site_fract_z
Si Si1 0.319964 0.668723 0.006859
Si Si2 0.328378 0.461294 0.054055
Si Si3 0.320055 0.091507 0.602948
Si Si4 0.822045 0.336196 0.696385
Si Si5 0.677980 0.831632 0.196457
Si Si6 0.828013 0.952713 0.949368
Si Si7 0.322353 0.590514 0.398405
Si Si8 0.177674 0.833844 0.493026
O O1 0.500000 0.661021 0.013624
O O2 0.279192 0.618219 0.960206
O O3 0.241401 0.638575 0.056264
O O4 0.286087 0.751215 0.999227
O O5 0.500000 0.461083 0.071902
O O6 0.228615 0.510096 0.089175
O O7 0.328005 0.500000 0.000000
O O8 0.500000 0.095320 0.602860
O O9 0.252449 0.122298 0.653278
O O10 0.257822 0.137665 0.556806
O O11 0.278190 0.009169 0.592214
O O12 0.750000 0.352194 0.750000
O O13 0.795171 0.252250 0.686159
O O14 0.749174 0.381455 0.652484
O O15 0.000000 0.347129 0.697978
O O16 0.750000 0.847448 0.250000
O O17 0.500000 0.842541 0.197798
O O18 0.000000 0.932016 0.940421
O O19 0.730773 0.884192 0.961909
O O20 0.826205 0.000000 0.000000
O O21 0.500000 0.595852 0.396865
O O22 0.000000 0.840607 0.486331
#
# Coordination Sequence:
#
# PCOD9414375 Si02
#       8
#     8   8   8   8   8   8   8   8
#     4   9  18  30  42  59  84 113 142 172 209 249
#     4   8  15  29  44  56  78 111 140 169 207 247
#     4  10  19  30  43  59  83 114 144 172 206 248
#     4  10  20  33  46  61  83 110 140 174 210 245
#     4  10  20  32  46  63  83 108 140 176 210 244
#     4   8  16  29  41  56  81 111 139 169 207 247
#     4  11  20  28  42  63  84 109 142 175 207 245
#     4  10  18  27  42  63  84 108 142 178 208 245
#
# _framework density 14.137776000000001
#
# number of rings (size 3 to 8) (size 9 to 14) (size 15 to 20)
#    0.000    2.500    0.000    4.875    0.000   10.500 
#    0.000    0.000    0.000    0.000    0.000    0.000 
#    0.000    1.000    0.000    5.250    0.000    4.500 
#
# Total GULP energy -356697.806625 kJ/mol
# GULP energy per Si atom -5573.403229 kJ/mol
# Density = 1.410560 g / cm^3
# Si number density = 14.137776 Si / 1000 Ang^3
#
#
#
# Elastic Constant Matrix: (Units=GPa)
#
#
# Indices 1 2 3 4 5 6 
#
# 1 69.1456 56.3291 51.9614 0.0000 0.0000 0.0000
# 2 56.3291 112.7991 63.3200 0.0000 0.0000 0.0000
# 3 51.9614 63.3200 90.9005 0.0000 0.0000 0.0000
# 4 0.0000 0.0000 0.0000 26.8303 0.0000 0.0000
# 5 0.0000 0.0000 0.0000 0.0000 21.5697 0.0000
# 6 0.0000 0.0000 0.0000 0.0000 0.0000 11.2256
#
#
#
# Elastic Compliance Matrix: (Units=1/GPa)
#
#
# Indices 1 2 3 4 5 6 
#
# 1 0.029814 -0.008738 -0.010955 0.000000 0.000000 0.000000
# 2 -0.008738 0.017119 -0.006930 0.000000 0.000000 0.000000
# 3 -0.010955 -0.006930 0.022091 0.000000 0.000000 0.000000
# 4 0.000000 0.000000 0.000000 0.037271 0.000000 0.000000
# 5 0.000000 0.000000 0.000000 0.000000 0.046361 0.000000
# 6 0.000000 0.000000 0.000000 0.000000 0.000000 0.089082
#
#
# Mechanical properties :
#
#
# Convention : Reuss Voigt Hill
#
# Bulk Modulus (GPa) = 63.38608 68.45179 65.91893
# Shear Modulus (GPa) = 16.65315 18.67412 17.66363
#
# Velocity S-wave (km/s) = 3.43581 3.63832 3.53851
# Velocity P-wave (km/s) = 7.78920 8.13465 7.96380
#
# Compressibility (1/GPa) = 0.01577633
#
# Stress axis : x y z
#
# Youngs Moduli (GPa) = 33.54180 58.41417 45.26812
#
# Poissons Ratio (x) = 0.51045 0.49592
# Poissons Ratio (y) = 0.29310 0.31370
# Poissons Ratio (z) = 0.36746 0.40480
#
# Static dielectric constant tensor:
#      x y z
#    x 1.470600 0.000000 0.000000 
#    y 0.000000 1.480290 0.000000 
#    z 0.000000 0.000000 1.441130 
# 
# From -- ./inp_files/34513.got.cif
#   From: 2010.05.17/outbox.cif.g08.bks.cpg/sg53_18_cif.got.tgz:34513.got - 2010.06.03 12:45:16.
