data_PCOD9414232
_publ_section_title
;
Structure prediction by ZEFSAII (Michael W. Deem and Ramdas Pophale) SiO2 
 PCOD9414232
Probable space group: P M N A
;
_chemical_formula_sum "Si O2"
_cell_formula_units_Z 40
_cell_length_a 19.627606
_cell_length_b 7.191473
_cell_length_c 11.045830
_cell_angle_alpha 90.000000
_cell_angle_beta 90.000000
_cell_angle_gamma 90.000000
_cell_volume 1559.134353
_symmetry_space_group_name_H-M "P M N A"
_symmetry_group_IT_number 53
_symmetry_cell_setting 'orthorhombic'
loop_
_space_group_symop_operation_xyz
x,y,z
1/2-x,-y,1/2+z
x,-y,-z
1/2-x,y,1/2-z
-x,-y,-z
1/2+x,y,1/2-z
-x,y,z
1/2+x,-y,1/2+z
loop_
_atom_site_type_symbol
_atom_site_label
_atom_site_fract_x
_atom_site_fract_y
_atom_site_fract_z
Si Si1 0.923301 0.955616 0.335560
Si Si2 0.918692 0.640185 0.600845
Si Si3 0.217452 0.783273 0.367687
Si Si4 0.423041 0.259041 0.358962
Si Si5 0.272045 0.208142 0.385697
O O1 0.902661 0.859884 0.587074
O O2 0.861697 0.815877 0.339289
O O3 0.000000 0.889758 0.364371
O O4 0.927146 0.054789 0.203993
O O5 0.894400 0.500000 0.500000
O O6 0.907748 0.605388 0.743682
O O7 0.000000 0.638688 0.593265
O O8 0.250000 0.688350 0.250000
O O9 0.229718 0.710534 0.502667
O O10 0.254886 0.987177 0.375966
O O11 0.500000 0.297794 0.407682
O O12 0.350421 0.250374 0.423134
O O13 0.250000 0.272555 0.250000
#
# Coordination Sequence:
#
# PCOD9414232 Si02
#       5
#     8   8   8   8   8
#     4   8  14  25  39  60  90 118 154 206 252 285
#     4   7  10  18  37  62  88 115 144 186 243 299
#     4  10  17  28  41  58  83 123 174 205 235 293
#     4   8  14  25  39  60  91 119 153 202 247 289
#     4  10  17  28  41  58  83 123 167 198 242 292
#
# _framework density 25.655259999999998
#
# number of rings (size 3 to 8) (size 9 to 14) (size 15 to 20)
#    1.200    2.200    4.000    0.000    0.000    0.000 
#    0.000    6.000    0.000    0.000    0.000    5.600 
#    0.000    0.000    0.000    7.200    0.000  698.400 
#
# Total GULP energy -222811.702129 kJ/mol
# GULP energy per Si atom -5570.292553 kJ/mol
# Density = 2.559687 g / cm^3
# Si number density = 25.655260 Si / 1000 Ang^3
#
#
#
# Elastic Constant Matrix: (Units=GPa)
#
#
# Indices 1 2 3 4 5 6 
#
# 1 229.2763 26.7325 30.2628 0.0000 0.0000 0.0000
# 2 26.7325 78.0960 3.6766 0.0000 0.0000 0.0000
# 3 30.2628 3.6766 96.1058 0.0000 0.0000 0.0000
# 4 0.0000 0.0000 0.0000 -10.0484 0.0000 0.0000
# 5 0.0000 0.0000 0.0000 0.0000 36.9159 0.0000
# 6 0.0000 0.0000 0.0000 0.0000 0.0000 -1.4147
#
#
#
# Elastic Compliance Matrix: (Units=1/GPa)
#
#
# Indices 1 2 3 4 5 6 
#
# 1 0.004731 -0.001552 -0.001430 0.000000 0.000000 0.000000
# 2 -0.001552 0.013337 -0.000021 0.000000 0.000000 0.000000
# 3 -0.001430 -0.000021 0.010856 0.000000 0.000000 0.000000
# 4 0.000000 0.000000 0.000000 -0.099518 0.000000 0.000000
# 5 0.000000 0.000000 0.000000 0.000000 0.027089 0.000000
# 6 0.000000 0.000000 0.000000 0.000000 0.000000 -0.706887
#
#
# Mechanical properties :
#
#
# Convention : Reuss Voigt Hill
#
# Bulk Modulus (GPa) = 43.63641 58.31355 50.97498
# Shear Modulus (GPa) = -6.78661 27.94431 10.57885
#
# Velocity S-wave (km/s) = -1.62821 3.30392 2.03283
# Velocity P-wave (km/s) = 3.67572 6.11012 5.04205
#
# Compressibility (1/GPa) = 0.02291664
#
# Stress axis : x y z
#
# Youngs Moduli (GPa) = 211.35652 74.97885 92.11109
#
# Poissons Ratio (x) = 0.11638 0.13176
# Poissons Ratio (y) = 0.32807 0.00197
# Poissons Ratio (z) = 0.30234 0.00161
#
# Static dielectric constant tensor:
#      x y z
#    x 2.013120 0.000000 0.000000 
#    y 0.000000 2.023150 0.000000 
#    z 0.000000 0.000000 2.152490 
# 
# From -- ./inp_files/17638.got.cif
#   From: 2010.05.17/outbox.cif.g08.bks.cpg/sg53_9_cif.got.tgz:17638.got - 2010.06.03 12:45:16.
