data_PCOD9414124
_publ_section_title
;
Structure prediction by ZEFSAII (Michael W. Deem and Ramdas Pophale) SiO2 
 PCOD9414124
Probable space group: P M N A
;
_chemical_formula_sum "Si O2"
_cell_formula_units_Z 44
_cell_length_a 25.933414
_cell_length_b 16.260662
_cell_length_c 5.347498
_cell_angle_alpha 90.000000
_cell_angle_beta 90.000000
_cell_angle_gamma 90.000000
_cell_volume 2255.010386
_symmetry_space_group_name_H-M "P M N A"
_symmetry_group_IT_number 53
_symmetry_cell_setting 'orthorhombic'
loop_
_space_group_symop_operation_xyz
x,y,z
1/2-x,-y,1/2+z
x,-y,-z
1/2-x,y,1/2-z
-x,-y,-z
1/2+x,y,1/2-z
-x,y,z
1/2+x,-y,1/2+z
loop_
_atom_site_type_symbol
_atom_site_label
_atom_site_fract_x
_atom_site_fract_y
_atom_site_fract_z
Si Si1 0.842856 0.709756 0.047872
Si Si2 0.250000 0.738448 0.750000
Si Si3 0.188087 0.549933 0.252041
Si Si4 0.086893 0.906968 0.465461
Si Si5 0.440844 0.805282 0.537661
Si Si6 0.800765 0.139166 0.647772
O O1 0.839908 0.638186 0.250003
O O2 0.822827 0.798545 0.143264
O O3 0.796844 0.685212 0.858964
O O4 0.900064 0.730330 0.961210
O O5 0.221432 0.798555 0.557400
O O6 0.175062 0.500000 0.500000
O O7 0.250000 0.563330 0.250000
O O8 0.174308 0.500000 0.000000
O O9 0.070607 0.856704 0.710913
O O10 0.149504 0.907934 0.449001
O O11 0.068085 0.000000 0.500000
O O12 0.068085 0.861872 0.211184
O O13 0.500000 0.778487 0.537053
O O14 0.750000 0.092332 0.750000
#
# Coordination Sequence:
#
# PCOD9414124 Si02
#       6
#     8   4   8   8   8   8
#     4  10  21  35  59  83 119 154 202 243 294 356
#     4  10  16  32  60  80 110 154 198 242 290 354
#     4  10  22  34  53  86 123 156 184 230 296 362
#     4  11  23  41  59  88 122 155 200 256 315 362
#     4  11  24  42  64  87 114 158 211 257 301 354
#     4   9  19  34  53  83 115 156 197 239 291 362
#
# _framework density 19.512104000000001
#
# number of rings (size 3 to 8) (size 9 to 14) (size 15 to 20)
#    0.000    1.818    1.818    2.727    6.364    2.182 
#    1.636    0.000    0.000    1.091    0.000    0.000 
#    0.000    0.000    0.000    0.000    0.000    0.182 
#
# Total GULP energy -245415.152550 kJ/mol
# GULP energy per Si atom -5577.617103 kJ/mol
# Density = 1.946769 g / cm^3
# Si number density = 19.512104 Si / 1000 Ang^3
#
#
#
# Elastic Constant Matrix: (Units=GPa)
#
#
# Indices 1 2 3 4 5 6 
#
# 1 147.1411 34.4600 40.3402 0.0000 0.0000 0.0000
# 2 34.4600 70.3191 23.7956 0.0000 0.0000 0.0000
# 3 40.3402 23.7956 106.6210 0.0000 0.0000 0.0000
# 4 0.0000 0.0000 0.0000 8.5702 0.0000 0.0000
# 5 0.0000 0.0000 0.0000 0.0000 20.1234 0.0000
# 6 0.0000 0.0000 0.0000 0.0000 0.0000 -3.6429
#
#
#
# Elastic Compliance Matrix: (Units=1/GPa)
#
#
# Indices 1 2 3 4 5 6 
#
# 1 0.008203 -0.003212 -0.002387 0.000000 0.000000 0.000000
# 2 -0.003212 0.016640 -0.002498 0.000000 0.000000 0.000000
# 3 -0.002387 -0.002498 0.010840 0.000000 0.000000 0.000000
# 4 0.000000 0.000000 0.000000 0.116684 0.000000 0.000000
# 5 0.000000 0.000000 0.000000 0.000000 0.049693 0.000000
# 6 0.000000 0.000000 0.000000 0.000000 0.000000 -0.274510
#
#
# Mechanical properties :
#
#
# Convention : Reuss Voigt Hill
#
# Bulk Modulus (GPa) = 51.31283 57.91919 54.61601
# Shear Modulus (GPa) = -100.48369 20.04251 -40.22059
#
# Velocity S-wave (km/s) = -7.18400 3.20845 -4.54510
# Velocity P-wave (km/s) = 6.51600 6.59346 0.71256
#
# Compressibility (1/GPa) = 0.01948830
#
# Stress axis : x y z
#
# Youngs Moduli (GPa) = 121.90965 60.09437 92.25416
#
# Poissons Ratio (x) = 0.19303 0.22018
# Poissons Ratio (y) = 0.39159 0.23050
# Poissons Ratio (z) = 0.29096 0.15015
#
# Static dielectric constant tensor:
#      x y z
#    x 1.723200 0.000000 0.000000 
#    y 0.000000 1.672740 0.000000 
#    z 0.000000 0.000000 1.613050 
# 
# From -- ./inp_files/4421.got.cif
#   From: 2010.05.17/outbox.cif.g08.bks.cpg/sg53_3_cif.got.tgz:4421.got - 2010.06.03 12:45:16.
