data_PCOD9414775
_publ_section_title
;
Structure prediction by ZEFSAII (Michael W. Deem and Ramdas Pophale) SiO2 
 PCOD9414775
Probable space group: P M N A
;
_chemical_formula_sum "Si O2"
_cell_formula_units_Z 48
_cell_length_a 14.138071
_cell_length_b 16.681205
_cell_length_c 9.571394
_cell_angle_alpha 90.000000
_cell_angle_beta 90.000000
_cell_angle_gamma 90.000000
_cell_volume 2257.318142
_symmetry_space_group_name_H-M "P M N A"
_symmetry_group_IT_number 53
_symmetry_cell_setting 'orthorhombic'
loop_
_space_group_symop_operation_xyz
x,y,z
1/2-x,-y,1/2+z
x,-y,-z
1/2-x,y,1/2-z
-x,-y,-z
1/2+x,y,1/2-z
-x,y,z
1/2+x,-y,1/2+z
loop_
_atom_site_type_symbol
_atom_site_label
_atom_site_fract_x
_atom_site_fract_y
_atom_site_fract_z
Si Si1 0.612726 0.785098 0.038292
Si Si2 0.251072 0.080877 0.583077
Si Si3 0.327288 0.618723 0.945698
Si Si4 0.395084 0.610235 0.504922
Si Si5 0.859767 0.471565 0.722277
Si Si6 0.607911 0.217965 0.639440
O O1 0.500000 0.785440 0.021701
O O2 0.657911 0.873282 0.024887
O O3 0.655124 0.713589 0.943832
O O4 0.638378 0.765151 0.200525
O O5 0.250000 0.064229 0.750000
O O6 0.330511 0.149221 0.570019
O O7 0.268737 0.000000 0.500000
O O8 0.213930 0.599012 0.940523
O O9 0.375774 0.585937 0.089108
O O10 0.373951 0.562455 0.828416
O O11 0.500000 0.607065 0.574723
O O12 0.403064 0.552996 0.368683
O O13 0.387856 0.700375 0.444908
O O14 0.750000 0.458489 0.750000
O O15 0.500000 0.190309 0.648545
#
# Coordination Sequence:
#
# PCOD9414775 Si02
#       6
#     8   8   8   8   8   8
#     4  10  19  32  54  79 107 145 188 231 283 346
#     4  10  21  37  59  88 116 146 188 237 293 354
#     4  10  18  32  51  76 108 145 187 232 285 336
#     4  10  18  31  54  80 107 144 193 242 287 336
#     4   9  19  31  47  74 109 145 182 232 279 328
#     4   9  17  31  55  84 108 138 182 236 288 343
#
# _framework density 21.264171000000001
#
# number of rings (size 3 to 8) (size 9 to 14) (size 15 to 20)
#    0.000    2.333    3.333    0.000    0.000    1.333 
#    0.000    9.167    0.000    1.000    0.000    0.000 
#    0.000    0.000    0.000    0.000    0.000    0.000 
#
# Total GULP energy -267716.087368 kJ/mol
# GULP energy per Si atom -5577.418487 kJ/mol
# Density = 2.121577 g / cm^3
# Si number density = 21.264171 Si / 1000 Ang^3
#
#
#
# Elastic Constant Matrix: (Units=GPa)
#
#
# Indices 1 2 3 4 5 6 
#
# 1 108.3803 38.5076 16.0309 0.0000 0.0000 0.0000
# 2 38.5076 148.0481 41.6825 0.0000 0.0000 0.0000
# 3 16.0309 41.6825 46.0113 0.0000 0.0000 0.0000
# 4 0.0000 0.0000 0.0000 33.0316 0.0000 0.0000
# 5 0.0000 0.0000 0.0000 0.0000 21.2630 0.0000
# 6 0.0000 0.0000 0.0000 0.0000 0.0000 63.0494
#
#
#
# Elastic Compliance Matrix: (Units=1/GPa)
#
#
# Indices 1 2 3 4 5 6 
#
# 1 0.010248 -0.002229 -0.001552 0.000000 0.000000 0.000000
# 2 -0.002229 0.009552 -0.007877 0.000000 0.000000 0.000000
# 3 -0.001552 -0.007877 0.029410 0.000000 0.000000 0.000000
# 4 0.000000 0.000000 0.000000 0.030274 0.000000 0.000000
# 5 0.000000 0.000000 0.000000 0.000000 0.047030 0.000000
# 6 0.000000 0.000000 0.000000 0.000000 0.000000 0.015861
#
#
# Mechanical properties :
#
#
# Convention : Reuss Voigt Hill
#
# Bulk Modulus (GPa) = 38.61588 54.98686 46.80137
# Shear Modulus (GPa) = 28.68275 37.21672 32.94974
#
# Velocity S-wave (km/s) = 3.67669 4.18809 3.94069
# Velocity P-wave (km/s) = 6.01860 7.02153 6.53932
#
# Compressibility (1/GPa) = 0.02589608
#
# Stress axis : x y z
#
# Youngs Moduli (GPa) = 97.57878 104.69074 34.00196
#
# Poissons Ratio (x) = 0.23333 0.05276
# Poissons Ratio (y) = 0.21748 0.26783
# Poissons Ratio (z) = 0.15140 0.82462
#
# Static dielectric constant tensor:
#      x y z
#    x 1.807090 0.000000 0.000000 
#    y 0.000000 1.745100 0.000000 
#    z 0.000000 0.000000 1.847650 
# 
# From -- ./inp_files/15917.got.cif
#   From: 2010.05.17/outbox.cif.g08.bks.cpg/sg53_8_cif.got.tgz:15917.got - 2010.06.03 12:45:16.
