data_PCOD9414033
_publ_section_title
;
Structure prediction by ZEFSAII (Michael W. Deem and Ramdas Pophale) SiO2 
 PCOD9414033
Probable space group: P N N A
;
_chemical_formula_sum "Si O2"
_cell_formula_units_Z 56
_cell_length_a 15.000000
_cell_length_b 12.000000
_cell_length_c 15.000000
_cell_angle_alpha 90.000000
_cell_angle_beta 90.000000
_cell_angle_gamma 90.000000
_cell_volume 2700.000000
_symmetry_space_group_name_H-M "P N N A"
_symmetry_group_IT_number 52
_symmetry_cell_setting 'orthorhombic'
loop_
_space_group_symop_operation_xyz
x,y,z
1/2-x,-y,z
x,1/2-y,1/2-z
1/2-x,1/2+y,1/2-z
-x,-y,-z
1/2+x,y,-z
-x,1/2+y,1/2+z
1/2+x,1/2-y,1/2+z
loop_
_atom_site_type_symbol
_atom_site_label
_atom_site_fract_x
_atom_site_fract_y
_atom_site_fract_z
Si Si1 0.488549 0.651902 0.524434
Si Si2 0.042626 0.281534 0.146851
Si Si3 0.504194 0.660959 0.831275
Si Si4 0.852858 0.461678 0.435130
Si Si5 0.853802 0.985277 0.603295
Si Si6 0.287051 0.376191 0.741758
Si Si7 0.394076 0.036099 0.603797
O O1 0.455122 0.681230 0.424205
O O2 0.496215 0.763407 0.581123
O O3 0.587963 0.600973 0.510978
O O4 0.417114 0.570945 0.574105
O O5 0.025838 0.250000 0.250000
O O6 0.128144 0.360422 0.138101
O O7 0.970990 0.371516 0.110934
O O8 0.505480 0.750000 0.750000
O O9 0.589149 0.578208 0.842300
O O10 0.422697 0.572054 0.837249
O O11 0.750000 0.500000 0.458065
O O12 0.851242 0.379588 0.347247
O O13 0.750000 0.000000 0.611918
O O14 0.878251 0.001073 0.497939
O O15 0.250000 0.500000 0.720423
O O16 0.248078 0.250000 0.750000
O O17 0.317660 0.400469 0.842684
#
# Coordination Sequence:
#
# PCOD9414033 Si02
#       7
#     8   8   8   8   8   8   8
#     4  11  21  43  65  94 133 178 228 292 357 426
#     4  11  22  41  69  94 126 179 233 285 353 437
#     4  11  23  40  67  96 130 176 239 293 355 428
#     4  10  24  40  61  96 136 176 228 284 359 432
#     4  11  24  42  63  98 138 179 235 293 357 435
#     4  11  24  41  65 103 141 180 226 290 364 435
#     4  11  20  42  66  98 128 174 234 295 351 430
#
# _framework density 20.740741
#
# number of rings (size 3 to 8) (size 9 to 14) (size 15 to 20)
#    0.000    1.143    2.857    4.286    0.000    8.000 
#    2.571    1.429    0.000    0.000    0.000    0.000 
#    0.000    0.000    0.000    0.000    0.000    0.000 
#
# Total GULP energy -311770.087627 kJ/mol
# GULP energy per Si atom -5567.322993 kJ/mol
# Density = 2.069353 g / cm^3
# Si number density = 20.740741 Si / 1000 Ang^3
#
#
#
# Elastic Constant Matrix: (Units=GPa)
#
#
# Indices 1 2 3 4 5 6 
#
# 1 67.8700 24.3400 -3.6557 0.0000 0.0000 0.0000
# 2 24.3400 127.3718 21.8215 0.0000 0.0000 0.0000
# 3 -3.6557 21.8215 79.5507 0.0000 0.0000 0.0000
# 4 0.0000 0.0000 0.0000 45.2253 0.0000 0.0000
# 5 0.0000 0.0000 0.0000 0.0000 8.2030 0.0000
# 6 0.0000 0.0000 0.0000 0.0000 0.0000 19.5682
#
#
#
# Elastic Compliance Matrix: (Units=1/GPa)
#
#
# Indices 1 2 3 4 5 6 
#
# 1 0.016023 -0.003345 0.001654 0.000000 0.000000 0.000000
# 2 -0.003345 0.008937 -0.002605 0.000000 0.000000 0.000000
# 3 0.001654 -0.002605 0.013361 0.000000 0.000000 0.000000
# 4 0.000000 0.000000 0.000000 0.022112 0.000000 0.000000
# 5 0.000000 0.000000 0.000000 0.000000 0.121906 0.000000
# 6 0.000000 0.000000 0.000000 0.000000 0.000000 0.051103
#
#
# Mechanical properties :
#
#
# Convention : Reuss Voigt Hill
#
# Bulk Modulus (GPa) = 33.63852 39.97825 36.80838
# Shear Modulus (GPa) = 19.84568 30.08509 24.96538
#
# Velocity S-wave (km/s) = 3.09665 3.81272 3.47318
# Velocity P-wave (km/s) = 5.38882 6.22089 5.81975
#
# Compressibility (1/GPa) = 0.02972782
#
# Stress axis : x y z
#
# Youngs Moduli (GPa) = 62.41099 111.89947 74.84349
#
# Poissons Ratio (x) = 0.37433 -0.12379
# Poissons Ratio (y) = 0.20878 0.19498
# Poissons Ratio (z) = -0.10322 0.29151
#
# Static dielectric constant tensor:
#      x y z
#    x 1.894570 0.000000 0.000000 
#    y 0.000000 1.819160 0.000000 
#    z 0.000000 0.000000 1.760710 
# 
# From -- ./inp_files/27272.got.cif
#   From: 2010.05.17/outbox.ucp.g08.bks.cvg/sg52_14_cif.got.tgz:27272.got - 2010.06.11 16:30:12.
