data_PCOD9414070
_publ_section_title
;
Structure prediction by ZEFSAII (Michael W. Deem and Ramdas Pophale) SiO2 
 PCOD9414070
Probable space group: P M N A
;
_chemical_formula_sum "Si O2"
_cell_formula_units_Z 48
_cell_length_a 18.396160
_cell_length_b 16.334600
_cell_length_c 7.147837
_cell_angle_alpha 90.000000
_cell_angle_beta 90.000000
_cell_angle_gamma 90.000000
_cell_volume 2147.881525
_symmetry_space_group_name_H-M "P M N A"
_symmetry_group_IT_number 53
_symmetry_cell_setting 'orthorhombic'
loop_
_space_group_symop_operation_xyz
x,y,z
1/2-x,-y,1/2+z
x,-y,-z
1/2-x,y,1/2-z
-x,-y,-z
1/2+x,y,1/2-z
-x,y,z
1/2+x,-y,1/2+z
loop_
_atom_site_type_symbol
_atom_site_label
_atom_site_fract_x
_atom_site_fract_y
_atom_site_fract_z
Si Si1 0.834620 0.830046 0.293823
Si Si2 0.082411 0.989746 0.272499
Si Si3 0.583532 0.666467 0.222797
Si Si4 0.335211 0.504281 0.221492
Si Si5 0.586957 0.167647 0.191072
Si Si6 0.917430 0.345861 0.267112
O O1 0.750000 0.823625 0.250000
O O2 0.874408 0.748442 0.222379
O O3 0.859127 0.831973 0.513136
O O4 0.864788 0.916590 0.220206
O O5 0.098324 0.081771 0.204271
O O6 0.000000 0.967105 0.221304
O O7 0.083764 0.000000 0.500000
O O8 0.500000 0.670917 0.280334
O O9 0.620933 0.583148 0.290366
O O10 0.584855 0.662028 0.994563
O O11 0.250000 0.515136 0.250000
O O12 0.363263 0.416931 0.293865
O O13 0.348788 0.500000 0.000000
O O14 0.500000 0.167619 0.132491
O O15 0.597979 0.253172 0.296938
O O16 0.000000 0.369251 0.218877
#
# Coordination Sequence:
#
# PCOD9414070 Si02
#       6
#     8   8   8   8   8   8
#     4  10  16  21  33  59  89 105 122 163 220 266
#     4   8  13  23  38  53  74 106 138 168 205 249
#     4   9  16  27  43  61  82 110 146 182 210 247
#     4  10  19  30  45  67  93 117 142 178 226 271
#     4   8  14  26  43  59  77 104 139 177 212 250
#     4   8  14  26  45  65  81 105 145 185 214 247
#
# _framework density 22.347601000000001
#
# number of rings (size 3 to 8) (size 9 to 14) (size 15 to 20)
#    0.000    3.167    0.000    4.500    0.000    2.000 
#    0.000    0.833    0.000    2.000    0.000    0.000 
#    0.000   54.000    0.000    0.000    0.000    0.500 
#
# Total GULP energy -267910.552996 kJ/mol
# GULP energy per Si atom -5581.469854 kJ/mol
# Density = 2.229674 g / cm^3
# Si number density = 22.347601 Si / 1000 Ang^3
#
#
#
# Elastic Constant Matrix: (Units=GPa)
#
#
# Indices 1 2 3 4 5 6 
#
# 1 191.1097 135.7987 18.9404 0.0000 0.0000 0.0000
# 2 135.7987 241.4990 -4.8987 0.0000 0.0000 0.0000
# 3 18.9404 -4.8987 88.4035 0.0000 0.0000 0.0000
# 4 0.0000 0.0000 0.0000 -28.5114 0.0000 0.0000
# 5 0.0000 0.0000 0.0000 0.0000 -12.5743 0.0000
# 6 0.0000 0.0000 0.0000 0.0000 0.0000 14.6673
#
#
#
# Elastic Compliance Matrix: (Units=1/GPa)
#
#
# Indices 1 2 3 4 5 6 
#
# 1 0.009139 -0.005185 -0.002245 0.000000 0.000000 0.000000
# 2 -0.005185 0.007087 0.001504 0.000000 0.000000 0.000000
# 3 -0.002245 0.001504 0.011876 0.000000 0.000000 0.000000
# 4 0.000000 0.000000 0.000000 -0.035074 0.000000 0.000000
# 5 0.000000 0.000000 0.000000 0.000000 -0.079527 0.000000
# 6 0.000000 0.000000 0.000000 0.000000 0.000000 0.068179
#
#
# Mechanical properties :
#
#
# Convention : Reuss Voigt Hill
#
# Bulk Modulus (GPa) = 61.54212 91.18808 76.36510
# Shear Modulus (GPa) = -4759.94482 19.46111 -2370.24185
#
# Velocity S-wave (km/s) = -46.20154 2.95420 -32.60257
# Velocity P-wave (km/s) = 53.08965 7.24771 37.18858
#
# Compressibility (1/GPa) = 0.01624903
#
# Stress axis : x y z
#
# Youngs Moduli (GPa) = 109.41780 141.10850 84.20233
#
# Poissons Ratio (x) = 0.73161 0.18907
# Poissons Ratio (y) = 0.56730 -0.12660
# Poissons Ratio (z) = 0.24569 -0.21216
#
# Static dielectric constant tensor:
#      x y z
#    x 1.697490 0.000000 0.000000 
#    y 0.000000 1.848970 0.000000 
#    z 0.000000 0.000000 1.893220 
# 
# From -- ./inp_files/16134.got.cif
#   From: 2010.05.17/outbox.cif.g08.bks.cpg/sg53_9_cif.got.tgz:16134.got - 2010.06.03 12:45:16.
