data_PCOD9414907
_publ_section_title
;
Structure prediction by ZEFSAII (Michael W. Deem and Ramdas Pophale) SiO2 
 PCOD9414907
Probable space group: P M N A
;
_chemical_formula_sum "Si O2"
_cell_formula_units_Z 56
_cell_length_a 19.976175
_cell_length_b 13.983962
_cell_length_c 9.450933
_cell_angle_alpha 90.000000
_cell_angle_beta 90.000000
_cell_angle_gamma 90.000000
_cell_volume 2640.081011
_symmetry_space_group_name_H-M "P M N A"
_symmetry_group_IT_number 53
_symmetry_cell_setting 'orthorhombic'
loop_
_space_group_symop_operation_xyz
x,y,z
1/2-x,-y,1/2+z
x,-y,-z
1/2-x,y,1/2-z
-x,-y,-z
1/2+x,y,1/2-z
-x,y,z
1/2+x,-y,1/2+z
loop_
_atom_site_type_symbol
_atom_site_label
_atom_site_fract_x
_atom_site_fract_y
_atom_site_fract_z
Si Si1 0.201785 0.927709 0.629059
Si Si2 0.424142 0.570887 0.172796
Si Si3 0.422920 0.099085 0.557114
Si Si4 0.261389 0.267105 0.990030
Si Si5 0.366741 0.618896 0.865177
Si Si6 0.644523 0.255393 0.715051
Si Si7 0.076935 0.184638 0.246887
O O1 0.250000 0.970158 0.750000
O O2 0.239712 0.831654 0.575432
O O3 0.130174 0.889451 0.685608
O O4 0.193630 0.000000 0.500000
O O5 0.500000 0.537389 0.184368
O O6 0.374930 0.483060 0.209667
O O7 0.411616 0.664710 0.265079
O O8 0.407634 0.602636 0.011837
O O9 0.500000 0.080372 0.599975
O O10 0.383877 0.151305 0.680618
O O11 0.422815 0.167981 0.421140
O O12 0.393309 0.000000 0.500000
O O13 0.192008 0.286167 0.913952
O O14 0.313177 0.253237 0.859587
O O15 0.292481 0.349728 0.087524
O O16 0.398263 0.709257 0.785812
O O17 0.000000 0.170216 0.295628
#
# Coordination Sequence:
#
# PCOD9414907 Si02
#       7
#     8   8   8   8   8   8   8
#     4  11  25  40  63  91 121 168 213 257 315 377
#     4  10  18  32  63  92 114 152 198 250 312 372
#     4  10  22  38  60  87 123 168 204 251 320 378
#     4   9  21  37  58  82 118 163 203 254 308 363
#     4   9  18  36  60  85 118 152 200 253 311 373
#     4  10  20  36  60  84 124 158 207 258 300 371
#     4  10  21  39  62  90 124 159 204 261 315 371
#
# _framework density 21.211471
#
# number of rings (size 3 to 8) (size 9 to 14) (size 15 to 20)
#    0.000    2.143    0.000    3.000    4.000    1.429 
#    0.000    1.429   69.143    2.571    0.000    0.000 
#    0.000    0.000    0.000    0.000    0.000    0.000 
#
# Total GULP energy -312864.228781 kJ/mol
# GULP energy per Si atom -5586.861228 kJ/mol
# Density = 2.116319 g / cm^3
# Si number density = 21.211471 Si / 1000 Ang^3
#
#
#
# Elastic Constant Matrix: (Units=GPa)
#
#
# Indices 1 2 3 4 5 6 
#
# 1 38.5973 8.7487 10.8540 0.0000 0.0000 0.0000
# 2 8.7487 87.4295 8.9223 0.0000 0.0000 0.0000
# 3 10.8540 8.9223 32.1156 0.0000 0.0000 0.0000
# 4 0.0000 0.0000 0.0000 30.0044 0.0000 0.0000
# 5 0.0000 0.0000 0.0000 0.0000 14.9222 0.0000
# 6 0.0000 0.0000 0.0000 0.0000 0.0000 16.1634
#
#
#
# Elastic Compliance Matrix: (Units=1/GPa)
#
#
# Indices 1 2 3 4 5 6 
#
# 1 0.028950 -0.001954 -0.009241 0.000000 0.000000 0.000000
# 2 -0.001954 0.011903 -0.002647 0.000000 0.000000 0.000000
# 3 -0.009241 -0.002647 0.034996 0.000000 0.000000 0.000000
# 4 0.000000 0.000000 0.000000 0.033328 0.000000 0.000000
# 5 0.000000 0.000000 0.000000 0.000000 0.067014 0.000000
# 6 0.000000 0.000000 0.000000 0.000000 0.000000 0.061868
#
#
# Mechanical properties :
#
#
# Convention : Reuss Voigt Hill
#
# Bulk Modulus (GPa) = 20.76158 23.91027 22.33592
# Shear Modulus (GPa) = 17.74312 20.85917 19.30114
#
# Velocity S-wave (km/s) = 2.89535 3.13931 3.01979
# Velocity P-wave (km/s) = 4.58110 4.94339 4.76569
#
# Compressibility (1/GPa) = 0.04816590
#
# Stress axis : x y z
#
# Youngs Moduli (GPa) = 34.54209 84.00965 28.57464
#
# Poissons Ratio (x) = 0.16414 0.26407
# Poissons Ratio (y) = 0.06749 0.07563
# Poissons Ratio (z) = 0.31922 0.22234
#
# Static dielectric constant tensor:
#      x y z
#    x 1.773050 0.000000 0.000000 
#    y 0.000000 1.769120 0.000000 
#    z 0.000000 0.000000 1.768450 
# 
# From -- ./inp_files/11076.got.cif
#   From: 2010.05.17/outbox.cif.g08.bks.cpg/sg53_6_cif.got.tgz:11076.got - 2010.06.03 12:45:16.
