data_PCOD9414695
_publ_section_title
;
Structure prediction by ZEFSAII (Michael W. Deem and Ramdas Pophale) SiO2 
 PCOD9414695
Probable space group: P M N A
;
_chemical_formula_sum "Si O2"
_cell_formula_units_Z 48
_cell_length_a 21.021040
_cell_length_b 12.367463
_cell_length_c 7.899782
_cell_angle_alpha 90.000000
_cell_angle_beta 90.000000
_cell_angle_gamma 90.000000
_cell_volume 2053.761107
_symmetry_space_group_name_H-M "P M N A"
_symmetry_group_IT_number 53
_symmetry_cell_setting 'orthorhombic'
loop_
_space_group_symop_operation_xyz
x,y,z
1/2-x,-y,1/2+z
x,-y,-z
1/2-x,y,1/2-z
-x,-y,-z
1/2+x,y,1/2-z
-x,y,z
1/2+x,-y,1/2+z
loop_
_atom_site_type_symbol
_atom_site_label
_atom_site_fract_x
_atom_site_fract_y
_atom_site_fract_z
Si Si1 0.928426 0.962656 0.302777
Si Si2 0.324457 0.486167 0.796780
Si Si3 0.354065 0.853253 0.656180
Si Si4 0.926215 0.665405 0.714279
Si Si5 0.270565 0.130185 0.008657
Si Si6 0.623323 0.739151 0.157506
O O1 0.921740 0.834758 0.277026
O O2 0.000000 0.997393 0.268605
O O3 0.915524 0.000000 0.500000
O O4 0.881312 0.027970 0.183897
O O5 0.250000 0.496478 0.750000
O O6 0.373377 0.577255 0.733100
O O7 0.355202 0.370265 0.751386
O O8 0.325547 0.500000 0.000000
O O9 0.411045 0.769521 0.671052
O O10 0.302900 0.836986 0.510921
O O11 0.308951 0.837811 0.821460
O O12 0.909734 0.700385 0.520036
O O13 0.000000 0.631705 0.724158
O O14 0.312084 0.193295 0.874636
O O15 0.271646 0.000000 0.000000
#
# Coordination Sequence:
#
# PCOD9414695 Si02
#       6
#     8   8   8   8   8   8
#     4  11  18  30  51  79 113 141 173 223 283 337
#     4  10  24  39  60  87 115 147 190 241 289 341
#     4  10  19  29  52  79 106 145 185 220 275 335
#     4  10  20  35  56  80 109 145 189 237 285 338
#     4  10  18  31  49  78 112 143 181 224 275 335
#     4  10  19  33  51  84 111 142 179 231 295 333
#
# _framework density 23.371755
#
# number of rings (size 3 to 8) (size 9 to 14) (size 15 to 20)
#    0.000    1.833    5.000    1.000    7.000    5.000 
#    0.000    0.000    0.000    2.500    0.000    0.000 
#    0.000    0.000    0.000    0.000    0.000    0.000 
#
# Total GULP energy -268066.157036 kJ/mol
# GULP energy per Si atom -5584.711605 kJ/mol
# Density = 2.331856 g / cm^3
# Si number density = 23.371755 Si / 1000 Ang^3
#
#
#
# Elastic Constant Matrix: (Units=GPa)
#
#
# Indices 1 2 3 4 5 6 
#
# 1 157.8150 33.0598 14.3436 0.0000 0.0000 0.0000
# 2 33.0598 133.6323 0.5861 0.0000 0.0000 0.0000
# 3 14.3436 0.5861 46.8797 0.0000 0.0000 0.0000
# 4 0.0000 0.0000 0.0000 5.3343 0.0000 0.0000
# 5 0.0000 0.0000 0.0000 0.0000 13.2749 0.0000
# 6 0.0000 0.0000 0.0000 0.0000 0.0000 -33.2027
#
#
#
# Elastic Compliance Matrix: (Units=1/GPa)
#
#
# Indices 1 2 3 4 5 6 
#
# 1 0.006881 -0.001693 -0.002084 0.000000 0.000000 0.000000
# 2 -0.001693 0.007900 0.000419 0.000000 0.000000 0.000000
# 3 -0.002084 0.000419 0.021964 0.000000 0.000000 0.000000
# 4 0.000000 0.000000 0.000000 0.187465 0.000000 0.000000
# 5 0.000000 0.000000 0.000000 0.000000 0.075330 0.000000
# 6 0.000000 0.000000 0.000000 0.000000 0.000000 -0.030118
#
#
# Mechanical properties :
#
#
# Convention : Reuss Voigt Hill
#
# Bulk Modulus (GPa) = 33.30148 48.25622 40.77885
# Shear Modulus (GPa) = 17.47354 16.43713 16.95534
#
# Velocity S-wave (km/s) = 2.73726 2.65484 2.69636
# Velocity P-wave (km/s) = 4.92642 5.48540 5.21341
#
# Compressibility (1/GPa) = 0.03002870
#
# Stress axis : x y z
#
# Youngs Moduli (GPa) = 145.33562 126.57843 45.52982
#
# Poissons Ratio (x) = 0.21431 0.09489
# Poissons Ratio (y) = 0.24607 -0.01909
# Poissons Ratio (z) = 0.30289 -0.05307
#
# Static dielectric constant tensor:
#      x y z
#    x 1.846530 0.000000 0.000000 
#    y 0.000000 1.893360 0.000000 
#    z 0.000000 0.000000 1.344570 
# 
# From -- ./inp_files/16901.got.cif
#   From: 2010.05.17/outbox.cif.g08.bks.cpg/sg53_9_cif.got.tgz:16901.got - 2010.06.03 12:45:16.
