data_PCOD9414625
_publ_section_title
;
Structure prediction by ZEFSAII (Michael W. Deem and Ramdas Pophale) SiO2 
 PCOD9414625
Probable space group: P M N A
;
_chemical_formula_sum "Si O2"
_cell_formula_units_Z 48
_cell_length_a 8.685230
_cell_length_b 12.304725
_cell_length_c 26.527741
_cell_angle_alpha 90.000000
_cell_angle_beta 90.000000
_cell_angle_gamma 90.000000
_cell_volume 2835.002881
_symmetry_space_group_name_H-M "P M N A"
_symmetry_group_IT_number 53
_symmetry_cell_setting 'orthorhombic'
loop_
_space_group_symop_operation_xyz
x,y,z
1/2-x,-y,1/2+z
x,-y,-z
1/2-x,y,1/2-z
-x,-y,-z
1/2+x,y,1/2-z
-x,y,z
1/2+x,-y,1/2+z
loop_
_atom_site_type_symbol
_atom_site_label
_atom_site_fract_x
_atom_site_fract_y
_atom_site_fract_z
Si Si1 0.820907 0.357078 0.533728
Si Si2 0.813332 0.266374 0.428305
Si Si3 0.816547 0.339646 0.806055
Si Si4 0.186713 0.483764 0.381579
Si Si5 0.684390 0.971147 0.557630
Si Si6 0.821187 0.169932 0.617681
O O1 0.754634 0.318728 0.480915
O O2 0.759478 0.457284 0.566436
O O3 0.815170 0.255389 0.571468
O O4 0.000000 0.382856 0.523461
O O5 0.776216 0.356346 0.385851
O O6 0.745064 0.146627 0.425738
O O7 0.000000 0.257102 0.430449
O O8 0.750000 0.339476 0.750000
O O9 0.755698 0.445239 0.836611
O O10 0.759409 0.233190 0.836560
O O11 0.000000 0.341400 0.805110
O O12 0.000000 0.494878 0.379618
O O13 0.500000 0.971211 0.557073
O O14 0.737130 0.000000 0.500000
O O15 0.743893 0.061589 0.596564
O O16 0.000000 0.150611 0.629996
#
# Coordination Sequence:
#
# PCOD9414625 Si02
#       6
#     8   8   8   8   8   8
#     4   8  14  26  47  73 102 136 175 217 254 302
#     4  10  18  30  50  74 105 147 188 219 255 311
#     4  11  22  38  60  83 108 135 171 220 277 327
#     4   9  18  32  51  78 107 137 178 222 266 316
#     4  11  22  33  47  73 113 152 186 224 267 315
#     4  10  19  34  56  79 105 139 185 227 266 314
#
# _framework density 16.931198999999999
#
# number of rings (size 3 to 8) (size 9 to 14) (size 15 to 20)
#    0.000    2.167    1.667    4.000    0.000    3.333 
#    0.000    0.000    0.000    4.000    0.000    2.333 
#    0.000    0.000    0.000    0.000    0.000    0.000 
#
# Total GULP energy -267609.726135 kJ/mol
# GULP energy per Si atom -5575.202628 kJ/mol
# Density = 1.689266 g / cm^3
# Si number density = 16.931199 Si / 1000 Ang^3
#
#
#
# Elastic Constant Matrix: (Units=GPa)
#
#
# Indices 1 2 3 4 5 6 
#
# 1 74.2628 56.9935 46.1197 0.0000 0.0000 0.0000
# 2 56.9935 170.9135 72.0929 0.0000 0.0000 0.0000
# 3 46.1197 72.0929 89.5763 0.0000 0.0000 0.0000
# 4 0.0000 0.0000 0.0000 5.8306 0.0000 0.0000
# 5 0.0000 0.0000 0.0000 0.0000 19.6220 0.0000
# 6 0.0000 0.0000 0.0000 0.0000 0.0000 22.8885
#
#
#
# Elastic Compliance Matrix: (Units=1/GPa)
#
#
# Indices 1 2 3 4 5 6 
#
# 1 0.021268 -0.003744 -0.007937 0.000000 0.000000 0.000000
# 2 -0.003744 0.009517 -0.005732 0.000000 0.000000 0.000000
# 3 -0.007937 -0.005732 0.019863 0.000000 0.000000 0.000000
# 4 0.000000 0.000000 0.000000 0.171507 0.000000 0.000000
# 5 0.000000 0.000000 0.000000 0.000000 0.050963 0.000000
# 6 0.000000 0.000000 0.000000 0.000000 0.000000 0.043690
#
#
# Mechanical properties :
#
#
# Convention : Reuss Voigt Hill
#
# Bulk Modulus (GPa) = 63.20013 76.12943 69.66478
# Shear Modulus (GPa) = 14.00915 20.30467 17.15691
#
# Velocity S-wave (km/s) = 2.87960 3.46677 3.18674
# Velocity P-wave (km/s) = 6.96167 7.81577 7.40105
#
# Compressibility (1/GPa) = 0.01582275
#
# Stress axis : x y z
#
# Youngs Moduli (GPa) = 47.01823 105.07188 50.34462
#
# Poissons Ratio (x) = 0.39344 0.39957
# Poissons Ratio (y) = 0.17606 0.28857
# Poissons Ratio (z) = 0.37317 0.60225
#
# Static dielectric constant tensor:
#      x y z
#    x 1.578430 0.000000 0.000000 
#    y 0.000000 1.586020 0.000000 
#    z 0.000000 0.000000 1.562540 
# 
# From -- ./inp_files/33891.got.cif
#   From: 2010.05.17/outbox.cif.g08.bks.cpg/sg53_17_cif.got.tgz:33891.got - 2010.06.03 12:45:16.
