data_PCOD9414777
_publ_section_title
;
Structure prediction by ZEFSAII (Michael W. Deem and Ramdas Pophale) SiO2 
 PCOD9414777
Probable space group: P M N A
;
_chemical_formula_sum "Si O2"
_cell_formula_units_Z 48
_cell_length_a 8.470438
_cell_length_b 10.600516
_cell_length_c 29.222621
_cell_angle_alpha 90.000000
_cell_angle_beta 90.000000
_cell_angle_gamma 90.000000
_cell_volume 2623.928758
_symmetry_space_group_name_H-M "P M N A"
_symmetry_group_IT_number 53
_symmetry_cell_setting 'orthorhombic'
loop_
_space_group_symop_operation_xyz
x,y,z
1/2-x,-y,1/2+z
x,-y,-z
1/2-x,y,1/2-z
-x,-y,-z
1/2+x,y,1/2-z
-x,y,z
1/2+x,-y,1/2+z
loop_
_atom_site_type_symbol
_atom_site_label
_atom_site_fract_x
_atom_site_fract_y
_atom_site_fract_z
Si Si1 0.690745 0.245833 0.556865
Si Si2 0.310948 0.503629 0.105010
Si Si3 0.189268 0.393733 0.299025
Si Si4 0.689154 0.106938 0.299031
Si Si5 0.692547 0.012714 0.396213
Si Si6 0.308661 0.263381 0.451226
O O1 0.500000 0.242972 0.556420
O O2 0.744551 0.366952 0.585137
O O3 0.746580 0.115694 0.579914
O O4 0.742218 0.256815 0.504056
O O5 0.500000 0.508401 0.104329
O O6 0.259436 0.474306 0.157100
O O7 0.255245 0.386858 0.073870
O O8 0.250000 0.440971 0.250000
O O9 0.252047 0.250883 0.304705
O O10 0.000000 0.388702 0.297928
O O11 0.750000 0.060232 0.250000
O O12 0.500000 0.109296 0.297988
O O13 0.741804 0.028980 0.343470
O O14 0.500000 0.011531 0.396799
O O15 0.741052 0.137032 0.424359
O O16 0.500000 0.268505 0.450116
#
# Coordination Sequence:
#
# PCOD9414777 Si02
#       6
#     8   8   8   8   8   8
#     4  10  21  36  56  80 108 144 185 224 264 314
#     4  11  23  37  53  79 114 145 176 218 272 326
#     4  10  20  34  54  79 105 136 176 221 266 313
#     4  10  18  31  54  81 108 136 171 218 269 317
#     4   9  18  34  56  82 108 137 178 226 268 308
#     4  10  19  35  59  82 104 139 187 230 264 308
#
# _framework density 18.293178999999999
#
# number of rings (size 3 to 8) (size 9 to 14) (size 15 to 20)
#    0.000    2.000    1.667    3.500    0.000    6.667 
#    0.000    3.333    0.000    6.000    0.000    0.000 
#    0.000    0.000    0.000    0.000    0.000    0.000 
#
# Total GULP energy -267985.913505 kJ/mol
# GULP energy per Si atom -5583.039865 kJ/mol
# Density = 1.825154 g / cm^3
# Si number density = 18.293179 Si / 1000 Ang^3
#
#
#
# Elastic Constant Matrix: (Units=GPa)
#
#
# Indices 1 2 3 4 5 6 
#
# 1 19.5634 4.5394 19.6827 0.0000 0.0000 0.0000
# 2 4.5394 98.7744 51.2649 0.0000 0.0000 0.0000
# 3 19.6827 51.2649 160.2895 0.0000 0.0000 0.0000
# 4 0.0000 0.0000 0.0000 3.9044 0.0000 0.0000
# 5 0.0000 0.0000 0.0000 0.0000 21.7803 0.0000
# 6 0.0000 0.0000 0.0000 0.0000 0.0000 -8.5185
#
#
#
# Elastic Compliance Matrix: (Units=1/GPa)
#
#
# Indices 1 2 3 4 5 6 
#
# 1 0.058448 0.001246 -0.007576 0.000000 0.000000 0.000000
# 2 0.001246 0.012166 -0.004044 0.000000 0.000000 0.000000
# 3 -0.007576 -0.004044 0.008462 0.000000 0.000000 0.000000
# 4 0.000000 0.000000 0.000000 0.256121 0.000000 0.000000
# 5 0.000000 0.000000 0.000000 0.000000 0.045913 0.000000
# 6 0.000000 0.000000 0.000000 0.000000 0.000000 -0.117391
#
#
# Mechanical properties :
#
#
# Convention : Reuss Voigt Hill
#
# Bulk Modulus (GPa) = 17.14416 47.73349 32.43882
# Shear Modulus (GPa) = 16.45225 16.97592 16.71408
#
# Velocity S-wave (km/s) = 3.00220 3.04960 3.02599
# Velocity P-wave (km/s) = 4.62707 6.20889 5.47541
#
# Compressibility (1/GPa) = 0.05832891
#
# Stress axis : x y z
#
# Youngs Moduli (GPa) = 17.10909 82.19875 118.17134
#
# Poissons Ratio (x) = -0.10239 0.89521
# Poissons Ratio (y) = -0.02131 0.47787
# Poissons Ratio (z) = 0.12961 0.33240
#
# Static dielectric constant tensor:
#      x y z
#    x 1.630840 0.000000 0.000000 
#    y 0.000000 1.585760 0.000000 
#    z 0.000000 0.000000 1.644190 
# 
# From -- ./inp_files/37702.got.cif
#   From: 2010.05.17/outbox.cif.g08.bks.cpg/sg53_19_cif.got.tgz:37702.got - 2010.06.03 12:45:16.
