data_PCOD9414267
_publ_section_title
;
Structure prediction by ZEFSAII (Michael W. Deem and Ramdas Pophale) SiO2 
 PCOD9414267
Probable space group: P M N A
;
_chemical_formula_sum "Si O2"
_cell_formula_units_Z 20
_cell_length_a 5.605712
_cell_length_b 11.134009
_cell_length_c 11.923932
_cell_angle_alpha 90.000000
_cell_angle_beta 90.000000
_cell_angle_gamma 90.000000
_cell_volume 744.220863
_symmetry_space_group_name_H-M "P M N A"
_symmetry_group_IT_number 53
_symmetry_cell_setting 'orthorhombic'
loop_
_space_group_symop_operation_xyz
x,y,z
1/2-x,-y,1/2+z
x,-y,-z
1/2-x,y,1/2-z
-x,-y,-z
1/2+x,y,1/2-z
-x,y,z
1/2+x,-y,1/2+z
loop_
_atom_site_type_symbol
_atom_site_label
_atom_site_fract_x
_atom_site_fract_y
_atom_site_fract_z
Si Si1 0.000000 0.034738 0.130457
Si Si2 0.000000 0.881810 0.574096
Si Si3 0.000000 0.369131 0.053623
Si Si4 0.000000 0.625393 0.567476
Si Si5 0.500000 0.239823 0.689423
O O1 0.249792 0.105932 0.139346
O O2 0.000000 0.906320 0.192419
O O3 0.000000 0.000000 0.000000
O O4 0.000000 0.756914 0.505721
O O5 0.000000 0.000000 0.500000
O O6 0.000000 0.284326 0.941388
O O7 0.000000 0.500000 0.000000
O O8 0.242976 0.365955 0.122765
O O9 0.000000 0.500000 0.500000
O O10 0.750000 0.279584 0.750000
#
# Coordination Sequence:
#
# PCOD9414267 Si02
#       5
#     4   4   4   4   4
#     4  10  20  34  56  84 117 155 199 244 304 374
#     4  10  17  29  51  80 114 149 195 252 298 343
#     4  10  20  36  57  85 122 165 211 257 307 375
#     4  10  19  32  55  90 119 151 205 262 298 350
#     4  12  24  39  60  95 132 160 200 271 334 372
#
# _framework density 26.873742
#
# number of rings (size 3 to 8) (size 9 to 14) (size 15 to 20)
#    0.000    1.600    0.000    8.400    0.000    0.000 
#    0.000    0.000    0.000    0.000    0.000  148.400 
#    0.000    0.000    0.000    0.000    0.000    0.000 
#
# Total GULP energy -111384.466222 kJ/mol
# GULP energy per Si atom -5569.223311 kJ/mol
# Density = 2.681258 g / cm^3
# Si number density = 26.873742 Si / 1000 Ang^3
#
#
#
# Elastic Constant Matrix: (Units=GPa)
#
#
# Indices 1 2 3 4 5 6 
#
# 1 398.5277 4.7567 50.5533 0.0000 0.0000 0.0000
# 2 4.7567 216.4877 20.3827 0.0000 0.0000 0.0000
# 3 50.5533 20.3827 128.2463 0.0000 0.0000 0.0000
# 4 0.0000 0.0000 0.0000 9.0656 0.0000 0.0000
# 5 0.0000 0.0000 0.0000 0.0000 -29.2099 0.0000
# 6 0.0000 0.0000 0.0000 0.0000 0.0000 15.2121
#
#
#
# Elastic Compliance Matrix: (Units=1/GPa)
#
#
# Indices 1 2 3 4 5 6 
#
# 1 0.002642 0.000041 -0.001048 0.000000 0.000000 0.000000
# 2 0.000041 0.004690 -0.000761 0.000000 0.000000 0.000000
# 3 -0.001048 -0.000761 0.008332 0.000000 0.000000 0.000000
# 4 0.000000 0.000000 0.000000 0.110308 0.000000 0.000000
# 5 0.000000 0.000000 0.000000 0.000000 -0.034235 0.000000
# 6 0.000000 0.000000 0.000000 0.000000 0.000000 0.065737
#
#
# Mechanical properties :
#
#
# Convention : Reuss Voigt Hill
#
# Bulk Modulus (GPa) = 82.46708 99.40522 90.93615
# Shear Modulus (GPa) = 30.29347 43.51815 36.90581
#
# Velocity S-wave (km/s) = 3.36110 4.02849 3.70983
# Velocity P-wave (km/s) = 6.76876 7.66213 7.22926
#
# Compressibility (1/GPa) = 0.01212605
#
# Stress axis : x y z
#
# Youngs Moduli (GPa) = 378.54974 213.21981 120.02597
#
# Poissons Ratio (x) = -0.00866 0.12576
# Poissons Ratio (y) = -0.01537 0.09139
# Poissons Ratio (z) = 0.39663 0.16235
#
# Static dielectric constant tensor:
#      x y z
#    x 1.934420 0.000000 0.000000 
#    y 0.000000 2.042660 0.000000 
#    z 0.000000 0.000000 2.270850 
# 
# From -- ./inp_files/19107.got.cif
#   From: 2010.05.17/outbox.cif.g08.bks.cpg/sg53_10_cif.got.tgz:19107.got - 2010.06.03 12:45:16.
