data_PCOD9414771
_publ_section_title
;
Structure prediction by ZEFSAII (Michael W. Deem and Ramdas Pophale) SiO2 
 PCOD9414771
Probable space group: P M N A
;
_chemical_formula_sum "Si O2"
_cell_formula_units_Z 48
_cell_length_a 9.560109
_cell_length_b 13.325687
_cell_length_c 19.231750
_cell_angle_alpha 90.000000
_cell_angle_beta 90.000000
_cell_angle_gamma 90.000000
_cell_volume 2450.029180
_symmetry_space_group_name_H-M "P M N A"
_symmetry_group_IT_number 53
_symmetry_cell_setting 'orthorhombic'
loop_
_space_group_symop_operation_xyz
x,y,z
1/2-x,-y,1/2+z
x,-y,-z
1/2-x,y,1/2-z
-x,-y,-z
1/2+x,y,1/2-z
-x,y,z
1/2+x,-y,1/2+z
loop_
_atom_site_type_symbol
_atom_site_label
_atom_site_fract_x
_atom_site_fract_y
_atom_site_fract_z
Si Si1 0.832295 0.287280 0.455142
Si Si2 0.331544 0.394266 0.177193
Si Si3 0.158327 0.071563 0.813600
Si Si4 0.846170 0.691786 0.190350
Si Si5 0.661584 0.098180 0.952340
Si Si6 0.164638 0.406674 0.584772
O O1 0.783463 0.306282 0.376472
O O2 0.785852 0.189859 0.498624
O O3 0.809413 0.386603 0.503140
O O4 0.000000 0.277006 0.449358
O O5 0.250000 0.395297 0.250000
O O6 0.500000 0.387838 0.189026
O O7 0.307713 0.493387 0.129334
O O8 0.250000 0.027723 0.750000
O O9 0.141192 0.190124 0.796972
O O10 0.243805 0.072953 0.885633
O O11 0.000000 0.030058 0.819052
O O12 0.750000 0.646366 0.250000
O O13 0.762655 0.675224 0.120423
O O14 0.000000 0.646243 0.189316
O O15 0.500000 0.121668 0.930162
O O16 0.657395 0.000000 0.000000
O O17 0.000000 0.385233 0.594754
#
# Coordination Sequence:
#
# PCOD9414771 Si02
#       6
#     8   8   8   8   8   8
#     4   9  18  35  57  79 107 142 181 224 269 326
#     4  10  21  36  54  78 107 144 187 223 264 319
#     4  10  20  34  54  80 112 146 180 223 277 335
#     4  10  19  29  45  73 108 142 173 210 261 319
#     4  10  20  36  60  86 110 142 185 233 283 334
#     4  10  18  31  54  78 103 138 179 222 267 318
#
# _framework density 19.591602000000002
#
# number of rings (size 3 to 8) (size 9 to 14) (size 15 to 20)
#    0.000    2.167    1.667    2.000    0.000    5.667 
#    0.000    2.500    0.000    4.000    0.000    0.000 
#    0.000    0.000    0.000    0.000    0.000    0.000 
#
# Total GULP energy -267211.327246 kJ/mol
# GULP energy per Si atom -5566.902651 kJ/mol
# Density = 1.954701 g / cm^3
# Si number density = 19.591602 Si / 1000 Ang^3
#
#
#
# Elastic Constant Matrix: (Units=GPa)
#
#
# Indices 1 2 3 4 5 6 
#
# 1 51.8572 11.8986 77.7583 0.0000 0.0000 0.0000
# 2 11.8986 48.3696 37.4417 0.0000 0.0000 0.0000
# 3 77.7583 37.4417 158.0366 0.0000 0.0000 0.0000
# 4 0.0000 0.0000 0.0000 22.4400 0.0000 0.0000
# 5 0.0000 0.0000 0.0000 0.0000 26.3046 0.0000
# 6 0.0000 0.0000 0.0000 0.0000 0.0000 9.9463
#
#
#
# Elastic Compliance Matrix: (Units=1/GPa)
#
#
# Indices 1 2 3 4 5 6 
#
# 1 0.079869 0.013191 -0.042423 0.000000 0.000000 0.000000
# 2 0.013191 0.027496 -0.013005 0.000000 0.000000 0.000000
# 3 -0.042423 -0.013005 0.030282 0.000000 0.000000 0.000000
# 4 0.000000 0.000000 0.000000 0.044563 0.000000 0.000000
# 5 0.000000 0.000000 0.000000 0.000000 0.038016 0.000000
# 6 0.000000 0.000000 0.000000 0.000000 0.000000 0.100540
#
#
# Mechanical properties :
#
#
# Convention : Reuss Voigt Hill
#
# Bulk Modulus (GPa) = 18.80620 56.94006 37.87313
# Shear Modulus (GPa) = 11.82136 20.48250 16.15193
#
# Velocity S-wave (km/s) = 2.45906 3.23689 2.87441
# Velocity P-wave (km/s) = 4.20507 6.56479 5.51267
#
# Compressibility (1/GPa) = 0.05317394
#
# Stress axis : x y z
#
# Youngs Moduli (GPa) = 12.52053 36.36921 33.02303
#
# Poissons Ratio (x) = -0.47976 1.40093
# Poissons Ratio (y) = -0.16516 0.42946
# Poissons Ratio (z) = 0.53116 0.47297
#
# Static dielectric constant tensor:
#      x y z
#    x 1.703220 0.000000 0.000000 
#    y 0.000000 1.793330 0.000000 
#    z 0.000000 0.000000 1.705110 
# 
# From -- ./inp_files/26198.got.cif
#   From: 2010.05.17/outbox.cif.g08.bks.cpg/sg53_14_cif.got.tgz:26198.got - 2010.06.03 12:45:16.
