data_PCOD9414965
_publ_section_title
;
Structure prediction by ZEFSAII (Michael W. Deem and Ramdas Pophale) SiO2 
 PCOD9414965
Probable space group: P M N A
;
_chemical_formula_sum "Si O2"
_cell_formula_units_Z 64
_cell_length_a 8.652046
_cell_length_b 20.741241
_cell_length_c 20.286978
_cell_angle_alpha 90.000000
_cell_angle_beta 90.000000
_cell_angle_gamma 90.000000
_cell_volume 3640.582824
_symmetry_space_group_name_H-M "P M N A"
_symmetry_group_IT_number 53
_symmetry_cell_setting 'orthorhombic'
loop_
_space_group_symop_operation_xyz
x,y,z
1/2-x,-y,1/2+z
x,-y,-z
1/2-x,y,1/2-z
-x,-y,-z
1/2+x,y,1/2-z
-x,y,z
1/2+x,-y,1/2+z
loop_
_atom_site_type_symbol
_atom_site_label
_atom_site_fract_x
_atom_site_fract_y
_atom_site_fract_z
Si Si1 0.686298 0.302694 0.592782
Si Si2 0.813296 0.519669 0.924867
Si Si3 0.811995 0.337074 0.057382
Si Si4 0.684655 0.021955 0.926309
Si Si5 0.314678 0.920259 0.677404
Si Si6 0.683340 0.415802 0.822765
Si Si7 0.813786 0.839664 0.057377
Si Si8 0.812243 0.801825 0.908068
O O1 0.500000 0.307581 0.597393
O O2 0.729959 0.328675 0.519735
O O3 0.760875 0.347633 0.647347
O O4 0.727328 0.227016 0.593983
O O5 0.761848 0.593814 0.915796
O O6 0.743043 0.470702 0.872675
O O7 0.000000 0.516339 0.919444
O O8 0.774485 0.500000 0.000000
O O9 0.759175 0.272397 0.094668
O O10 0.000000 0.337198 0.058627
O O11 0.500000 0.016567 0.922328
O O12 0.735957 0.095736 0.917009
O O13 0.759954 0.975351 0.872719
O O14 0.733641 0.000000 0.000000
O O15 0.250000 0.930481 0.750000
O O16 0.500000 0.919854 0.679314
O O17 0.259662 0.851628 0.647238
O O18 0.750000 0.425462 0.750000
O O19 0.500000 0.417291 0.820172
O O20 0.000000 0.846460 0.059976
O O21 0.770592 0.828966 0.980457
O O22 0.000000 0.800589 0.906444
#
# Coordination Sequence:
#
# PCOD9414965 Si02
#       8
#     8   8   8   8   8   8   8   8
#     4   9  17  34  58  84 111 141 182 227 277 335
#     4  10  18  33  59  86 114 149 187 230 281 336
#     4   8  14  28  54  84 111 140 178 222 272 329
#     4  11  22  35  54  83 118 150 186 233 282 332
#     4  11  22  37  57  79 111 149 191 233 282 341
#     4  12  25  39  56  79 114 153 193 235 283 341
#     4   9  17  32  58  86 110 140 184 230 275 331
#     4   8  15  29  52  81 108 141 181 223 269 329
#
# _framework density 17.579602000000001
#
# number of rings (size 3 to 8) (size 9 to 14) (size 15 to 20)
#    0.000    2.250    2.500    3.375    0.000    1.250 
#    0.000    1.250    0.000    6.000    0.000    0.000 
#    0.000    0.000    0.000    0.000    0.000    0.000 
#
# Total GULP energy -357038.431652 kJ/mol
# GULP energy per Si atom -5578.725495 kJ/mol
# Density = 1.753959 g / cm^3
# Si number density = 17.579602 Si / 1000 Ang^3
#
#
#
# Elastic Constant Matrix: (Units=GPa)
#
#
# Indices 1 2 3 4 5 6 
#
# 1 41.6689 45.9734 44.1297 0.0000 0.0000 0.0000
# 2 45.9734 160.3007 85.3764 0.0000 0.0000 0.0000
# 3 44.1297 85.3764 127.6050 0.0000 0.0000 0.0000
# 4 0.0000 0.0000 0.0000 23.6098 0.0000 0.0000
# 5 0.0000 0.0000 0.0000 0.0000 17.5129 0.0000
# 6 0.0000 0.0000 0.0000 0.0000 0.0000 15.3805
#
#
#
# Elastic Compliance Matrix: (Units=1/GPa)
#
#
# Indices 1 2 3 4 5 6 
#
# 1 0.042042 -0.006702 -0.010055 0.000000 0.000000 0.000000
# 2 -0.006702 0.010760 -0.004882 0.000000 0.000000 0.000000
# 3 -0.010055 -0.004882 0.014580 0.000000 0.000000 0.000000
# 4 0.000000 0.000000 0.000000 0.042355 0.000000 0.000000
# 5 0.000000 0.000000 0.000000 0.000000 0.057101 0.000000
# 6 0.000000 0.000000 0.000000 0.000000 0.000000 0.065017
#
#
# Mechanical properties :
#
#
# Convention : Reuss Voigt Hill
#
# Bulk Modulus (GPa) = 41.48547 75.61486 58.55016
# Shear Modulus (GPa) = 17.65726 21.57363 19.61545
#
# Velocity S-wave (km/s) = 3.17269 3.50694 3.34399
# Velocity P-wave (km/s) = 6.08861 7.71391 6.94894
#
# Compressibility (1/GPa) = 0.02410483
#
# Stress axis : x y z
#
# Youngs Moduli (GPa) = 23.78558 92.93391 68.58562
#
# Poissons Ratio (x) = 0.62284 0.68966
# Poissons Ratio (y) = 0.15941 0.33481
# Poissons Ratio (z) = 0.23917 0.45367
#
# Static dielectric constant tensor:
#      x y z
#    x 1.589540 0.000000 0.000000 
#    y 0.000000 1.615200 0.000000 
#    z 0.000000 0.000000 1.567630 
# 
# From -- ./inp_files/26753.got.cif
#   From: 2010.05.17/outbox.cif.g08.bks.cpg/sg53_14_cif.got.tgz:26753.got - 2010.06.03 12:45:16.
