data_PCOD9414680
_publ_section_title
;
Structure prediction by ZEFSAII (Michael W. Deem and Ramdas Pophale) SiO2 
 PCOD9414680
Probable space group: P M N A
;
_chemical_formula_sum "Si O2"
_cell_formula_units_Z 48
_cell_length_a 14.444707
_cell_length_b 9.882076
_cell_length_c 20.039175
_cell_angle_alpha 90.000000
_cell_angle_beta 90.000000
_cell_angle_gamma 90.000000
_cell_volume 2860.465832
_symmetry_space_group_name_H-M "P M N A"
_symmetry_group_IT_number 53
_symmetry_cell_setting 'orthorhombic'
loop_
_space_group_symop_operation_xyz
x,y,z
1/2-x,-y,1/2+z
x,-y,-z
1/2-x,y,1/2-z
-x,-y,-z
1/2+x,y,1/2-z
-x,y,z
1/2+x,-y,1/2+z
loop_
_atom_site_type_symbol
_atom_site_label
_atom_site_fract_x
_atom_site_fract_y
_atom_site_fract_z
Si Si1 0.800967 0.272810 0.111401
Si Si2 0.852829 0.064092 0.223328
Si Si3 0.111871 0.489048 0.206475
Si Si4 0.892705 0.779145 0.165755
Si Si5 0.104464 0.291054 0.326642
Si Si6 0.611723 0.157931 0.516906
O O1 0.841868 0.406425 0.146215
O O2 0.689919 0.271976 0.122720
O O3 0.835263 0.249262 0.036839
O O4 0.845896 0.151135 0.155511
O O5 0.750000 0.046288 0.250000
O O6 0.889543 0.915944 0.208326
O O7 0.899390 0.158973 0.278708
O O8 0.143411 0.644554 0.201729
O O9 0.133008 0.412288 0.275860
O O10 0.000000 0.478214 0.200634
O O11 0.000000 0.748886 0.153637
O O12 0.854616 0.809281 0.091862
O O13 0.000000 0.314728 0.352890
O O14 0.500000 0.178440 0.511410
O O15 0.628478 0.000000 0.500000
#
# Coordination Sequence:
#
# PCOD9414680 Si02
#       6
#     8   8   8   8   8   8
#     4  10  18  31  48  69  97 131 167 199 238 289
#     4   9  17  28  46  70  94 127 162 201 244 287
#     4   9  18  30  46  70 100 125 153 197 245 294
#     4  10  19  30  46  73 103 130 156 189 244 298
#     4   9  18  32  50  70  93 126 168 209 243 280
#     4  10  19  30  49  75 103 132 160 195 238 292
#
# _framework density 16.780483
#
# number of rings (size 3 to 8) (size 9 to 14) (size 15 to 20)
#    0.000    2.500    1.667    2.500    0.000    3.333 
#    0.000    2.500    0.000    0.500    0.000    2.333 
#    0.000    0.000    0.000    0.000    0.000    0.000 
#
# Total GULP energy -267293.136467 kJ/mol
# GULP energy per Si atom -5568.607010 kJ/mol
# Density = 1.674229 g / cm^3
# Si number density = 16.780483 Si / 1000 Ang^3
#
#
#
# Elastic Constant Matrix: (Units=GPa)
#
#
# Indices 1 2 3 4 5 6 
#
# 1 53.6451 8.2789 10.7676 0.0000 0.0000 0.0000
# 2 8.2789 112.9940 21.1600 0.0000 0.0000 0.0000
# 3 10.7676 21.1600 38.9036 0.0000 0.0000 0.0000
# 4 0.0000 0.0000 0.0000 7.5697 0.0000 0.0000
# 5 0.0000 0.0000 0.0000 0.0000 27.0107 0.0000
# 6 0.0000 0.0000 0.0000 0.0000 0.0000 15.3245
#
#
#
# Elastic Compliance Matrix: (Units=1/GPa)
#
#
# Indices 1 2 3 4 5 6 
#
# 1 0.019760 -0.000472 -0.005213 0.000000 0.000000 0.000000
# 2 -0.000472 0.009865 -0.005235 0.000000 0.000000 0.000000
# 3 -0.005213 -0.005235 0.029995 0.000000 0.000000 0.000000
# 4 0.000000 0.000000 0.000000 0.132106 0.000000 0.000000
# 5 0.000000 0.000000 0.000000 0.000000 0.037022 0.000000
# 6 0.000000 0.000000 0.000000 0.000000 0.000000 0.065255
#
#
# Mechanical properties :
#
#
# Convention : Reuss Voigt Hill
#
# Bulk Modulus (GPa) = 26.46831 31.77287 29.12059
# Shear Modulus (GPa) = 15.22371 21.00340 18.11355
#
# Velocity S-wave (km/s) = 3.01529 3.54171 3.28905
# Velocity P-wave (km/s) = 5.28490 5.97499 5.64051
#
# Compressibility (1/GPa) = 0.03778103
#
# Stress axis : x y z
#
# Youngs Moduli (GPa) = 50.60706 101.36905 33.33926
#
# Poissons Ratio (x) = 0.04781 0.17378
# Poissons Ratio (y) = 0.02387 0.17453
# Poissons Ratio (z) = 0.26379 0.53068
#
# Static dielectric constant tensor:
#      x y z
#    x 1.594570 0.000000 0.000000 
#    y 0.000000 1.603240 0.000000 
#    z 0.000000 0.000000 1.556310 
# 
# From -- ./inp_files/28260.got.cif
#   From: 2010.05.17/outbox.cif.g08.bks.cpg/sg53_15_cif.got.tgz:28260.got - 2010.06.03 12:45:16.
