data_PCOD9414874
_publ_section_title
;
Structure prediction by ZEFSAII (Michael W. Deem and Ramdas Pophale) SiO2 
 PCOD9414874
Probable space group: P M N A
;
_chemical_formula_sum "Si O2"
_cell_formula_units_Z 32
_cell_length_a 19.693141
_cell_length_b 8.701584
_cell_length_c 8.005630
_cell_angle_alpha 90.000000
_cell_angle_beta 90.000000
_cell_angle_gamma 90.000000
_cell_volume 1371.856930
_symmetry_space_group_name_H-M "P M N A"
_symmetry_group_IT_number 53
_symmetry_cell_setting 'orthorhombic'
loop_
_space_group_symop_operation_xyz
x,y,z
1/2-x,-y,1/2+z
x,-y,-z
1/2-x,y,1/2-z
-x,-y,-z
1/2+x,y,1/2-z
-x,y,z
1/2+x,-y,1/2+z
loop_
_atom_site_type_symbol
_atom_site_label
_atom_site_fract_x
_atom_site_fract_y
_atom_site_fract_z
Si Si1 0.000000 0.149502 0.741312
Si Si2 0.368427 0.400354 0.171922
Si Si3 0.500000 0.204329 0.161227
Si Si4 0.229031 0.817333 0.494136
Si Si5 0.856465 0.712803 0.168364
O O1 0.000000 0.190133 0.542266
O O2 0.932029 0.219257 0.823101
O O3 0.000000 0.964542 0.741374
O O4 0.434310 0.300758 0.209352
O O5 0.356475 0.529946 0.309193
O O6 0.379882 0.500000 0.000000
O O7 0.308587 0.281331 0.134349
O O8 0.307218 0.768155 0.477630
O O9 0.184455 0.773947 0.331053
O O10 0.225105 0.000000 0.500000
#
# Coordination Sequence:
#
# PCOD9414874 Si02
#       5
#     4   8   4   8   8
#     4  11  19  32  54  83 117 146 190 236 283 340
#     4  10  18  32  55  83 114 145 181 235 292 337
#     4  11  18  29  56  84 115 143 181 244 302 324
#     4  10  20  37  56  82 116 150 186 231 282 340
#     4  10  21  35  56  86 113 148 190 231 287 339
#
# _framework density 23.326049999999999
#
# number of rings (size 3 to 8) (size 9 to 14) (size 15 to 20)
#    0.000    1.750    5.000    2.625    0.000    0.000 
#    0.000   28.125    0.000    0.000    0.000   25.375 
#    0.000    0.000    0.000    0.000    0.000    0.000 
#
# Total GULP energy -179168.687532 kJ/mol
# GULP energy per Si atom -5599.021485 kJ/mol
# Density = 2.327296 g / cm^3
# Si number density = 23.326050 Si / 1000 Ang^3
#
#
#
# Elastic Constant Matrix: (Units=GPa)
#
#
# Indices 1 2 3 4 5 6 
#
# 1 250.4012 124.9607 44.7615 0.0000 0.0000 0.0000
# 2 124.9607 262.8471 41.3766 0.0000 0.0000 0.0000
# 3 44.7615 41.3766 66.0318 0.0000 0.0000 0.0000
# 4 0.0000 0.0000 0.0000 0.5176 0.0000 0.0000
# 5 0.0000 0.0000 0.0000 0.0000 -43.3742 0.0000
# 6 0.0000 0.0000 0.0000 0.0000 0.0000 184.5521
#
#
#
# Elastic Compliance Matrix: (Units=1/GPa)
#
#
# Indices 1 2 3 4 5 6 
#
# 1 0.005543 -0.002267 -0.002337 0.000000 0.000000 0.000000
# 2 -0.002267 0.005148 -0.001689 0.000000 0.000000 0.000000
# 3 -0.002337 -0.001689 0.017787 0.000000 0.000000 0.000000
# 4 0.000000 0.000000 0.000000 1.932042 0.000000 0.000000
# 5 0.000000 0.000000 0.000000 0.000000 -0.023055 0.000000
# 6 0.000000 0.000000 0.000000 0.000000 0.000000 0.005419
#
#
# Mechanical properties :
#
#
# Convention : Reuss Voigt Hill
#
# Bulk Modulus (GPa) = 62.92594 111.27531 87.10062
# Shear Modulus (GPa) = 2.55002 52.88451 27.71727
#
# Velocity S-wave (km/s) = 1.04670 4.76666 3.45085
# Velocity P-wave (km/s) = 5.33817 8.83757 7.30064
#
# Compressibility (1/GPa) = 0.01589170
#
# Stress axis : x y z
#
# Youngs Moduli (GPa) = 180.41612 194.24010 56.22234
#
# Poissons Ratio (x) = 0.44039 0.13137
# Poissons Ratio (y) = 0.40905 0.09496
# Poissons Ratio (z) = 0.42156 0.32808
#
# Static dielectric constant tensor:
#      x y z
#    x 1.822670 0.000000 0.000000 
#    y 0.000000 1.849670 0.000000 
#    z 0.000000 0.000000 2.038280 
# 
# From -- ./inp_files/16582.got.cif
#   From: 2010.05.17/outbox.cif.g08.bks.cpg/sg53_9_cif.got.tgz:16582.got - 2010.06.03 12:45:16.
