data_PCOD9414337
_publ_section_title
;
Structure prediction by ZEFSAII (Michael W. Deem and Ramdas Pophale) SiO2 
 PCOD9414337
Probable space group: P M N A
;
_chemical_formula_sum "Si O2"
_cell_formula_units_Z 56
_cell_length_a 9.033110
_cell_length_b 18.365779
_cell_length_c 22.100954
_cell_angle_alpha 90.000000
_cell_angle_beta 90.000000
_cell_angle_gamma 90.000000
_cell_volume 3666.550522
_symmetry_space_group_name_H-M "P M N A"
_symmetry_group_IT_number 53
_symmetry_cell_setting 'orthorhombic'
loop_
_space_group_symop_operation_xyz
x,y,z
1/2-x,-y,1/2+z
x,-y,-z
1/2-x,y,1/2-z
-x,-y,-z
1/2+x,y,1/2-z
-x,y,z
1/2+x,-y,1/2+z
loop_
_atom_site_type_symbol
_atom_site_label
_atom_site_fract_x
_atom_site_fract_y
_atom_site_fract_z
Si Si1 0.672935 0.905353 0.060697
Si Si2 0.824818 0.240747 0.962022
Si Si3 0.321260 0.392204 0.956681
Si Si4 0.679258 0.454273 0.088142
Si Si5 0.824253 0.210694 0.104604
Si Si6 0.326488 0.936004 0.916134
Si Si7 0.678430 0.335574 0.184187
O O1 0.500000 0.894174 0.075014
O O2 0.762424 0.831523 0.070101
O O3 0.722972 0.980317 0.092632
O O4 0.680988 0.921645 0.988555
O O5 0.748814 0.315130 0.941071
O O6 0.000000 0.244895 0.954510
O O7 0.794070 0.231595 0.034261
O O8 0.500000 0.386522 0.955149
O O9 0.274393 0.461475 0.916140
O O10 0.277655 0.414510 0.025462
O O11 0.500000 0.455047 0.087709
O O12 0.725691 0.406373 0.145022
O O13 0.768468 0.127963 0.113267
O O14 0.736379 0.265763 0.147258
O O15 0.000000 0.216256 0.114671
O O16 0.500000 0.929963 0.899335
O O17 0.750000 0.336973 0.250000
O O18 0.500000 0.333965 0.187774
#
# Coordination Sequence:
#
# PCOD9414337 Si02
#       7
#     8   8   8   8   8   8   8
#     4   8  14  24  38  56  80 113 148 176 206 248
#     4  10  18  25  37  62  92 117 143 178 220 262
#     4   9  15  28  47  64  82 111 149 183 217 267
#     4   8  16  29  47  65  81 108 148 185 220 264
#     4  10  19  29  41  60  86 116 148 179 218 264
#     4   8  14  25  40  57  78 109 148 182 209 244
#     4  11  21  34  49  65  86 114 148 188 226 264
#
# _framework density 15.273211999999999
#
# number of rings (size 3 to 8) (size 9 to 14) (size 15 to 20)
#    0.000    2.857    1.429    3.000    0.000    1.714 
#    0.000    5.714    0.000    0.000    0.000    0.000 
#    0.000    1.143    0.000    7.714    0.000    6.000 
#
# Total GULP energy -311776.256385 kJ/mol
# GULP energy per Si atom -5567.433150 kJ/mol
# Density = 1.523845 g / cm^3
# Si number density = 15.273212 Si / 1000 Ang^3
#
#
#
# Elastic Constant Matrix: (Units=GPa)
#
#
# Indices 1 2 3 4 5 6 
#
# 1 41.6730 56.5777 27.2929 0.0000 0.0000 0.0000
# 2 56.5777 167.5540 38.1232 0.0000 0.0000 0.0000
# 3 27.2929 38.1232 41.3765 0.0000 0.0000 0.0000
# 4 0.0000 0.0000 0.0000 8.2682 0.0000 0.0000
# 5 0.0000 0.0000 0.0000 0.0000 12.8528 0.0000
# 6 0.0000 0.0000 0.0000 0.0000 0.0000 6.7404
#
#
#
# Elastic Compliance Matrix: (Units=1/GPa)
#
#
# Indices 1 2 3 4 5 6 
#
# 1 0.061690 -0.014642 -0.027202 0.000000 0.000000 0.000000
# 2 -0.014642 0.011026 -0.000501 0.000000 0.000000 0.000000
# 3 -0.027202 -0.000501 0.042573 0.000000 0.000000 0.000000
# 4 0.000000 0.000000 0.000000 0.120946 0.000000 0.000000
# 5 0.000000 0.000000 0.000000 0.000000 0.077804 0.000000
# 6 0.000000 0.000000 0.000000 0.000000 0.000000 0.148359
#
#
# Mechanical properties :
#
#
# Convention : Reuss Voigt Hill
#
# Bulk Modulus (GPa) = 32.67977 54.95458 43.81718
# Shear Modulus (GPa) = 8.97204 14.14625 11.55914
#
# Velocity S-wave (km/s) = 2.42634 3.04668 2.75403
# Velocity P-wave (km/s) = 5.41228 6.95956 6.23411
#
# Compressibility (1/GPa) = 0.03059997
#
# Stress axis : x y z
#
# Youngs Moduli (GPa) = 16.21013 90.69208 23.48895
#
# Poissons Ratio (x) = 1.32788 0.63894
# Poissons Ratio (y) = 0.23734 0.01178
# Poissons Ratio (z) = 0.44094 0.04548
#
# Static dielectric constant tensor:
#      x y z
#    x 1.503070 0.000000 0.000000 
#    y 0.000000 1.532620 0.000000 
#    z 0.000000 0.000000 1.480050 
# 
# From -- ./inp_files/30979.got.cif
#   From: 2010.05.17/outbox.cif.g08.bks.cpg/sg53_16_cif.got.tgz:30979.got - 2010.06.03 12:45:16.
