data_PCOD9414052
_publ_section_title
;
Structure prediction by ZEFSAII (Michael W. Deem and Ramdas Pophale) SiO2 
 PCOD9414052
Probable space group: P N N A
;
_chemical_formula_sum "Si O2"
_cell_formula_units_Z 36
_cell_length_a 12.000000
_cell_length_b 12.000000
_cell_length_c 12.000000
_cell_angle_alpha 90.000000
_cell_angle_beta 90.000000
_cell_angle_gamma 90.000000
_cell_volume 1728.000000
_symmetry_space_group_name_H-M "P N N A"
_symmetry_group_IT_number 52
_symmetry_cell_setting 'orthorhombic'
loop_
_space_group_symop_operation_xyz
x,y,z
1/2-x,-y,z
x,1/2-y,1/2-z
1/2-x,1/2+y,1/2-z
-x,-y,-z
1/2+x,y,-z
-x,1/2+y,1/2+z
1/2+x,1/2-y,1/2+z
loop_
_atom_site_type_symbol
_atom_site_label
_atom_site_fract_x
_atom_site_fract_y
_atom_site_fract_z
Si Si1 0.757938 0.820199 0.029544
Si Si2 0.393832 0.982878 0.073536
Si Si3 0.380591 0.750000 0.750000
Si Si4 0.479139 0.033086 0.317598
Si Si5 0.649731 0.917811 0.457407
O O1 0.807594 0.812353 0.154814
O O2 0.694532 0.704952 0.020469
O O3 0.680408 0.920354 0.985791
O O4 0.859635 0.853762 0.948180
O O5 0.414717 0.007805 0.203101
O O6 0.500000 0.000000 0.000000
O O7 0.455332 0.849038 0.697192
O O8 0.402010 0.043436 0.425665
O O9 0.564402 0.935570 0.355218
O O10 0.750000 0.000000 0.429457
#
# Coordination Sequence:
#
# PCOD9414052 Si02
#       5
#     8   8   4   8   8
#     4  11  26  42  71 104 139 186 235 288 360 413
#     4  11  25  46  70 104 141 184 235 292 350 424
#     4  12  22  44  74 100 146 188 230 296 342 438
#     4  11  25  45  70 101 146 185 237 292 356 418
#     4  11  25  46  70 104 139 189 234 289 355 427
#
# _framework density 20.833333
#
# number of rings (size 3 to 8) (size 9 to 14) (size 15 to 20)
#    0.000    0.889    4.444    1.333    6.222    0.000 
#    0.000    2.222    0.000    0.000    0.000    0.000 
#    0.000    0.000    0.000    0.000    0.000    0.000 
#
# Total GULP energy -200419.243003 kJ/mol
# GULP energy per Si atom -5567.201195 kJ/mol
# Density = 2.078592 g / cm^3
# Si number density = 20.833333 Si / 1000 Ang^3
#
#
#
# Elastic Constant Matrix: (Units=GPa)
#
#
# Indices 1 2 3 4 5 6 
#
# 1 44.9247 22.1477 4.8834 0.0000 0.0000 0.0000
# 2 22.1477 113.1102 -11.3541 0.0000 0.0000 0.0000
# 3 4.8834 -11.3541 72.7973 0.0000 0.0000 0.0000
# 4 0.0000 0.0000 0.0000 81.9290 0.0000 0.0000
# 5 0.0000 0.0000 0.0000 0.0000 28.6322 0.0000
# 6 0.0000 0.0000 0.0000 0.0000 0.0000 39.5361
#
#
#
# Elastic Compliance Matrix: (Units=1/GPa)
#
#
# Indices 1 2 3 4 5 6 
#
# 1 0.025073 -0.005159 -0.002487 0.000000 0.000000 0.000000
# 2 -0.005159 0.010043 0.001912 0.000000 0.000000 0.000000
# 3 -0.002487 0.001912 0.014202 0.000000 0.000000 0.000000
# 4 0.000000 0.000000 0.000000 0.012206 0.000000 0.000000
# 5 0.000000 0.000000 0.000000 0.000000 0.034926 0.000000
# 6 0.000000 0.000000 0.000000 0.000000 0.000000 0.025293
#
#
# Mechanical properties :
#
#
# Convention : Reuss Voigt Hill
#
# Bulk Modulus (GPa) = 26.41887 29.13177 27.77532
# Shear Modulus (GPa) = 34.28730 44.36314 39.32522
#
# Velocity S-wave (km/s) = 4.06124 4.61958 4.34938
# Velocity P-wave (km/s) = 5.89068 6.51672 6.21159
#
# Compressibility (1/GPa) = 0.03785174
#
# Stress axis : x y z
#
# Youngs Moduli (GPa) = 39.88324 99.57084 70.41324
#
# Poissons Ratio (x) = 0.51370 0.17509
# Poissons Ratio (y) = 0.20576 -0.13467
# Poissons Ratio (z) = 0.09917 -0.19043
#
# Static dielectric constant tensor:
#      x y z
#    x 2.795600 0.000000 0.000000 
#    y 0.000000 1.924550 0.000000 
#    z 0.000000 0.000000 1.705210 
# 
# From -- ./inp_files/17776.got.cif
#   From: 2010.05.17/outbox.ucp.g08.bks.cvg/sg52_9_cif.got.tgz:17776.got - 2010.06.11 16:30:12.
