data_PCOD9414815
_publ_section_title
;
Structure prediction by ZEFSAII (Michael W. Deem and Ramdas Pophale) SiO2 
 PCOD9414815
Probable space group: P M N A
;
_chemical_formula_sum "Si O2"
_cell_formula_units_Z 28
_cell_length_a 27.779560
_cell_length_b 8.122003
_cell_length_c 5.497774
_cell_angle_alpha 90.000000
_cell_angle_beta 90.000000
_cell_angle_gamma 90.000000
_cell_volume 1240.438940
_symmetry_space_group_name_H-M "P M N A"
_symmetry_group_IT_number 53
_symmetry_cell_setting 'orthorhombic'
loop_
_space_group_symop_operation_xyz
x,y,z
1/2-x,-y,1/2+z
x,-y,-z
1/2-x,y,1/2-z
-x,-y,-z
1/2+x,y,1/2-z
-x,y,z
1/2+x,-y,1/2+z
loop_
_atom_site_type_symbol
_atom_site_label
_atom_site_fract_x
_atom_site_fract_y
_atom_site_fract_z
Si Si1 0.195308 0.339549 0.654838
Si Si2 0.280026 0.000000 0.000000
Si Si3 0.405518 0.685501 0.295228
Si Si4 0.556952 0.309570 0.210235
O O1 0.184128 0.500000 0.500000
O O2 0.250000 0.357617 0.750000
O O3 0.193104 0.172987 0.499171
O O4 0.151763 0.321845 0.843554
O O5 0.250000 0.003509 0.750000
O O6 0.430261 0.767119 0.527880
O O7 0.425513 0.499121 0.253585
O O8 0.417459 0.760705 0.030368
O O9 0.500000 0.309221 0.170152
#
# Coordination Sequence:
#
# PCOD9414815 Si02
#       4
#     8   4   8   8
#     4  11  23  38  63  91 126 163 201 251 300 358
#     4  10  24  44  60  86 121 166 207 242 302 360
#     4  10  19  31  51  83 114 147 202 235 292 358
#     4  10  18  32  51  82 120 149 194 252 293 355
#
# _framework density 22.572652999999999
#
# number of rings (size 3 to 8) (size 9 to 14) (size 15 to 20)
#    0.000    1.714    2.857    5.143    4.000    4.571 
#    0.000    0.000    0.000    0.000    0.000   11.000 
#    0.000    0.000    0.000    0.000    0.000    0.000 
#
# Total GULP energy -156150.886972 kJ/mol
# GULP energy per Si atom -5576.817392 kJ/mol
# Density = 2.252128 g / cm^3
# Si number density = 22.572653 Si / 1000 Ang^3
#
#
#
# Elastic Constant Matrix: (Units=GPa)
#
#
# Indices 1 2 3 4 5 6 
#
# 1 167.5420 -12.5892 33.3609 0.0000 0.0000 0.0000
# 2 -12.5892 90.7218 3.4640 0.0000 0.0000 0.0000
# 3 33.3609 3.4640 166.9420 0.0000 0.0000 0.0000
# 4 0.0000 0.0000 0.0000 7.7360 0.0000 0.0000
# 5 0.0000 0.0000 0.0000 0.0000 33.0647 0.0000
# 6 0.0000 0.0000 0.0000 0.0000 0.0000 -45.1934
#
#
#
# Elastic Compliance Matrix: (Units=1/GPa)
#
#
# Indices 1 2 3 4 5 6 
#
# 1 0.006292 0.000922 -0.001277 0.000000 0.000000 0.000000
# 2 0.000922 0.011167 -0.000416 0.000000 0.000000 0.000000
# 3 -0.001277 -0.000416 0.006254 0.000000 0.000000 0.000000
# 4 0.000000 0.000000 0.000000 0.129266 0.000000 0.000000
# 5 0.000000 0.000000 0.000000 0.000000 0.030244 0.000000
# 6 0.000000 0.000000 0.000000 0.000000 0.000000 -0.022127
#
#
# Mechanical properties :
#
#
# Convention : Reuss Voigt Hill
#
# Bulk Modulus (GPa) = 45.10331 52.63080 48.86706
# Shear Modulus (GPa) = 29.40724 25.85281 27.63002
#
# Velocity S-wave (km/s) = 3.61332 3.38792 3.50244
# Velocity P-wave (km/s) = 6.11824 6.21859 6.16862
#
# Compressibility (1/GPa) = 0.02217132
#
# Stress axis : x y z
#
# Youngs Moduli (GPa) = 158.92936 89.55344 159.90209
#
# Poissons Ratio (x) = -0.08256 0.20412
# Poissons Ratio (y) = -0.14651 0.06651
# Poissons Ratio (z) = 0.20288 0.03725
#
# Static dielectric constant tensor:
#      x y z
#    x 1.838870 0.000000 0.000000 
#    y 0.000000 1.870330 0.000000 
#    z 0.000000 0.000000 1.775360 
# 
# From -- ./inp_files/4126.got.cif
#   From: 2010.05.17/outbox.cif.g08.bks.cpg/sg53_3_cif.got.tgz:4126.got - 2010.06.03 12:45:16.
