data_PCOD9414701
_publ_section_title
;
Structure prediction by ZEFSAII (Michael W. Deem and Ramdas Pophale) SiO2 
 PCOD9414701
Probable space group: P M N A
;
_chemical_formula_sum "Si O2"
_cell_formula_units_Z 48
_cell_length_a 9.299740
_cell_length_b 9.921188
_cell_length_c 30.378325
_cell_angle_alpha 90.000000
_cell_angle_beta 90.000000
_cell_angle_gamma 90.000000
_cell_volume 2802.840022
_symmetry_space_group_name_H-M "P M N A"
_symmetry_group_IT_number 53
_symmetry_cell_setting 'orthorhombic'
loop_
_space_group_symop_operation_xyz
x,y,z
1/2-x,-y,1/2+z
x,-y,-z
1/2-x,y,1/2-z
-x,-y,-z
1/2+x,y,1/2-z
-x,y,z
1/2+x,-y,1/2+z
loop_
_atom_site_type_symbol
_atom_site_label
_atom_site_fract_x
_atom_site_fract_y
_atom_site_fract_z
Si Si1 0.164558 0.528286 0.706846
Si Si2 0.333794 0.642216 0.525209
Si Si3 0.333272 0.800045 0.205966
Si Si4 0.170211 0.525954 0.880975
Si Si5 0.331490 0.865417 0.028693
Si Si6 0.671479 0.204096 0.615976
O O1 0.250000 0.573539 0.750000
O O2 0.166050 0.364114 0.707204
O O3 0.241482 0.568355 0.661723
O O4 0.000000 0.572370 0.708251
O O5 0.330462 0.500000 0.500000
O O6 0.500000 0.690808 0.523352
O O7 0.294502 0.610443 0.575573
O O8 0.230597 0.744788 0.500829
O O9 0.250000 0.845042 0.250000
O O10 0.500000 0.843355 0.205346
O O11 0.248344 0.836995 0.161511
O O12 0.195295 0.366151 0.889595
O O13 0.000000 0.539269 0.872294
O O14 0.500000 0.845070 0.038632
O O15 0.242220 0.866885 0.073981
O O16 0.315357 0.000000 0.000000
O O17 0.500000 0.182457 0.618060
#
# Coordination Sequence:
#
# PCOD9414701 Si02
#       6
#     8   8   8   8   8   8
#     4   9  16  25  39  62  95 131 165 199 245 299
#     4  10  19  35  55  77 101 131 171 213 256 305
#     4   9  16  26  41  66  98 131 166 205 251 303
#     4   9  17  29  47  71  99 127 162 209 254 300
#     4  11  24  38  51  73 105 139 175 216 260 309
#     4  10  18  31  50  71  98 133 170 211 258 305
#
# _framework density 17.125487
#
# number of rings (size 3 to 8) (size 9 to 14) (size 15 to 20)
#    0.000    2.333    1.667    2.000    0.000    7.000 
#    0.000    0.000    0.000    0.000    0.000    1.167 
#    0.000    2.667    0.000    0.000    0.000    0.000 
#
# Total GULP energy -267719.572177 kJ/mol
# GULP energy per Si atom -5577.491087 kJ/mol
# Density = 1.708651 g / cm^3
# Si number density = 17.125487 Si / 1000 Ang^3
#
#
#
# Elastic Constant Matrix: (Units=GPa)
#
#
# Indices 1 2 3 4 5 6 
#
# 1 122.0892 27.7559 102.0812 0.0000 0.0000 0.0000
# 2 27.7559 19.4365 20.2465 0.0000 0.0000 0.0000
# 3 102.0812 20.2465 171.0075 0.0000 0.0000 0.0000
# 4 0.0000 0.0000 0.0000 9.8264 0.0000 0.0000
# 5 0.0000 0.0000 0.0000 0.0000 37.9993 0.0000
# 6 0.0000 0.0000 0.0000 0.0000 0.0000 12.0765
#
#
#
# Elastic Compliance Matrix: (Units=1/GPa)
#
#
# Indices 1 2 3 4 5 6 
#
# 1 0.021394 -0.019675 -0.010442 0.000000 0.000000 0.000000
# 2 -0.019675 0.076781 0.002654 0.000000 0.000000 0.000000
# 3 -0.010442 0.002654 0.011766 0.000000 0.000000 0.000000
# 4 0.000000 0.000000 0.000000 0.101766 0.000000 0.000000
# 5 0.000000 0.000000 0.000000 0.000000 0.026316 0.000000
# 6 0.000000 0.000000 0.000000 0.000000 0.000000 0.082805
#
#
# Mechanical properties :
#
#
# Convention : Reuss Voigt Hill
#
# Bulk Modulus (GPa) = 18.17614 68.07783 43.12699
# Shear Modulus (GPa) = 12.68738 22.81042 17.74890
#
# Velocity S-wave (km/s) = 2.72480 3.65356 3.22281
# Velocity P-wave (km/s) = 4.53166 7.59188 6.25190
#
# Compressibility (1/GPa) = 0.05501717
#
# Stress axis : x y z
#
# Youngs Moduli (GPa) = 46.74219 13.02407 84.98749
#
# Poissons Ratio (x) = 0.25624 0.88740
# Poissons Ratio (y) = 0.91963 -0.22556
# Poissons Ratio (z) = 0.48806 -0.03457
#
# Static dielectric constant tensor:
#      x y z
#    x 1.575810 0.000000 0.000000 
#    y 0.000000 1.549700 0.000000 
#    z 0.000000 0.000000 1.575190 
# 
# From -- ./inp_files/37696.got.cif
#   From: 2010.05.17/outbox.cif.g08.bks.cpg/sg53_19_cif.got.tgz:37696.got - 2010.06.03 12:45:16.
