data_PCOD9414767
_publ_section_title
;
Structure prediction by ZEFSAII (Michael W. Deem and Ramdas Pophale) SiO2 
 PCOD9414767
Probable space group: P M N A
;
_chemical_formula_sum "Si O2"
_cell_formula_units_Z 48
_cell_length_a 17.113187
_cell_length_b 9.876017
_cell_length_c 15.210497
_cell_angle_alpha 90.000000
_cell_angle_beta 90.000000
_cell_angle_gamma 90.000000
_cell_volume 2570.728010
_symmetry_space_group_name_H-M "P M N A"
_symmetry_group_IT_number 53
_symmetry_cell_setting 'orthorhombic'
loop_
_space_group_symop_operation_xyz
x,y,z
1/2-x,-y,1/2+z
x,-y,-z
1/2-x,y,1/2-z
-x,-y,-z
1/2+x,y,1/2-z
-x,y,z
1/2+x,-y,1/2+z
loop_
_atom_site_type_symbol
_atom_site_label
_atom_site_fract_x
_atom_site_fract_y
_atom_site_fract_z
Si Si1 0.255590 0.829814 0.912129
Si Si2 0.349549 0.683467 0.370393
Si Si3 0.410124 0.333125 0.820895
Si Si4 0.273995 0.468696 0.147438
Si Si5 0.086372 0.844307 0.966716
Si Si6 0.290245 0.122933 0.880591
O O1 0.284224 0.683850 0.883104
O O2 0.161238 0.826881 0.905120
O O3 0.286072 0.963361 0.863376
O O4 0.277482 0.852337 0.014653
O O5 0.400603 0.654306 0.284656
O O6 0.296957 0.553486 0.396585
O O7 0.398024 0.746034 0.450342
O O8 0.284428 0.795897 0.342707
O O9 0.500000 0.342794 0.846210
O O10 0.353459 0.446631 0.862270
O O11 0.369482 0.192725 0.849501
O O12 0.250000 0.469755 0.250000
O O13 0.000000 0.819763 0.929663
O O14 0.089524 0.000000 0.000000
#
# Coordination Sequence:
#
# PCOD9414767 Si02
#       6
#     8   8   8   8   8   8
#     4  10  18  36  52  77 108 142 172 218 259 324
#     4   9  17  34  53  77 103 142 174 210 256 326
#     4  10  20  35  53  77 102 136 185 231 262 302
#     4   9  20  35  55  74 104 145 183 215 265 322
#     4  10  18  31  53  83 112 136 164 212 268 315
#     4   9  18  33  55  77 102 137 179 211 265 320
#
# _framework density 18.671752999999999
#
# number of rings (size 3 to 8) (size 9 to 14) (size 15 to 20)
#    0.000    2.500    3.333    2.000    0.000    7.333 
#    0.000    9.167    0.000    0.000    0.000    0.000 
#    0.000    0.000    0.000    0.000    0.000    0.000 
#
# Total GULP energy -267664.807208 kJ/mol
# GULP energy per Si atom -5576.350150 kJ/mol
# Density = 1.862926 g / cm^3
# Si number density = 18.671753 Si / 1000 Ang^3
#
#
#
# Elastic Constant Matrix: (Units=GPa)
#
#
# Indices 1 2 3 4 5 6 
#
# 1 132.9123 51.6898 15.0668 0.0000 0.0000 0.0000
# 2 51.6898 152.2507 18.5821 0.0000 0.0000 0.0000
# 3 15.0668 18.5821 17.9983 0.0000 0.0000 0.0000
# 4 0.0000 0.0000 0.0000 1.0908 0.0000 0.0000
# 5 0.0000 0.0000 0.0000 0.0000 16.8128 0.0000
# 6 0.0000 0.0000 0.0000 0.0000 0.0000 13.6459
#
#
#
# Elastic Compliance Matrix: (Units=1/GPa)
#
#
# Indices 1 2 3 4 5 6 
#
# 1 0.009051 -0.002458 -0.005039 0.000000 0.000000 0.000000
# 2 -0.002458 0.008182 -0.006390 0.000000 0.000000 0.000000
# 3 -0.005039 -0.006390 0.066377 0.000000 0.000000 0.000000
# 4 0.000000 0.000000 0.000000 0.916728 0.000000 0.000000
# 5 0.000000 0.000000 0.000000 0.000000 0.059479 0.000000
# 6 0.000000 0.000000 0.000000 0.000000 0.000000 0.073282
#
#
# Mechanical properties :
#
#
# Convention : Reuss Voigt Hill
#
# Bulk Modulus (GPa) = 17.90977 52.64876 35.27926
# Shear Modulus (GPa) = 4.23913 20.83139 12.53526
#
# Velocity S-wave (km/s) = 1.50840 3.34378 2.59385
# Velocity P-wave (km/s) = 3.55618 6.57009 5.28263
#
# Compressibility (1/GPa) = 0.05583546
#
# Stress axis : x y z
#
# Youngs Moduli (GPa) = 110.48718 122.21212 15.06548
#
# Poissons Ratio (x) = 0.30037 0.07592
# Poissons Ratio (y) = 0.27155 0.09628
# Poissons Ratio (z) = 0.55676 0.78099
#
# Static dielectric constant tensor:
#      x y z
#    x 1.634490 0.000000 0.000000 
#    y 0.000000 1.666430 0.000000 
#    z 0.000000 0.000000 1.689470 
# 
# From -- ./inp_files/28251.got.cif
#   From: 2010.05.17/outbox.cif.g08.bks.cpg/sg53_15_cif.got.tgz:28251.got - 2010.06.03 12:45:16.
