data_PCOD9414640
_publ_section_title
;
Structure prediction by ZEFSAII (Michael W. Deem and Ramdas Pophale) SiO2 
 PCOD9414640
Probable space group: P M N A
;
_chemical_formula_sum "Si O2"
_cell_formula_units_Z 40
_cell_length_a 8.634146
_cell_length_b 26.929590
_cell_length_c 9.245589
_cell_angle_alpha 90.000000
_cell_angle_beta 90.000000
_cell_angle_gamma 90.000000
_cell_volume 2149.728990
_symmetry_space_group_name_H-M "P M N A"
_symmetry_group_IT_number 53
_symmetry_cell_setting 'orthorhombic'
loop_
_space_group_symop_operation_xyz
x,y,z
1/2-x,-y,1/2+z
x,-y,-z
1/2-x,y,1/2-z
-x,-y,-z
1/2+x,y,1/2-z
-x,y,z
1/2+x,-y,1/2+z
loop_
_atom_site_type_symbol
_atom_site_label
_atom_site_fract_x
_atom_site_fract_y
_atom_site_fract_z
Si Si1 0.685503 0.049437 0.412411
Si Si2 0.187186 0.451017 0.087946
Si Si3 0.684763 0.848015 0.914463
Si Si4 0.686134 0.744671 0.586687
Si Si5 0.313125 0.353505 0.588316
O O1 0.750000 0.044601 0.250000
O O2 0.500000 0.054240 0.406795
O O3 0.754846 0.100176 0.478744
O O4 0.726355 0.000000 0.500000
O O5 0.250000 0.451772 0.250000
O O6 0.000000 0.450851 0.093459
O O7 0.236300 0.500000 0.000000
O O8 0.237952 0.401446 0.003588
O O9 0.750000 0.848361 0.750000
O O10 0.500000 0.847371 0.911430
O O11 0.748935 0.796430 0.976513
O O12 0.750000 0.738941 0.750000
O O13 0.500000 0.747494 0.593532
O O14 0.733144 0.697192 0.492461
O O15 0.250000 0.355586 0.750000
O O16 0.500000 0.354293 0.593503
#
# Coordination Sequence:
#
# PCOD9414640 Si02
#       5
#     8   8   8   8   8
#     4  10  20  34  53  77 105 137 173 214 260 310
#     4  10  21  37  57  83 112 142 180 222 265 315
#     4  10  18  30  51  76 102 134 172 213 260 311
#     4  10  19  33  53  77 103 132 172 217 261 311
#     4  10  22  37  54  78 108 142 178 218 263 314
#
# _framework density 18.606995999999999
#
# number of rings (size 3 to 8) (size 9 to 14) (size 15 to 20)
#    0.000    2.000    0.000    6.600    0.000    4.400 
#    0.000    1.000    0.000    0.000    0.000    0.000 
#    0.000    0.000    0.000    0.000    0.000    0.000 
#
# Total GULP energy -223305.151739 kJ/mol
# GULP energy per Si atom -5582.628793 kJ/mol
# Density = 1.856465 g / cm^3
# Si number density = 18.606996 Si / 1000 Ang^3
#
#
#
# Elastic Constant Matrix: (Units=GPa)
#
#
# Indices 1 2 3 4 5 6 
#
# 1 60.4724 61.6674 28.4304 0.0000 0.0000 0.0000
# 2 61.6674 237.8482 93.9156 0.0000 0.0000 0.0000
# 3 28.4304 93.9156 105.3343 0.0000 0.0000 0.0000
# 4 0.0000 0.0000 0.0000 30.8230 0.0000 0.0000
# 5 0.0000 0.0000 0.0000 0.0000 28.9603 0.0000
# 6 0.0000 0.0000 0.0000 0.0000 0.0000 89.6655
#
#
#
# Elastic Compliance Matrix: (Units=1/GPa)
#
#
# Indices 1 2 3 4 5 6 
#
# 1 0.022604 -0.005327 -0.001351 0.000000 0.000000 0.000000
# 2 -0.005327 0.007744 -0.005467 0.000000 0.000000 0.000000
# 3 -0.001351 -0.005467 0.014733 0.000000 0.000000 0.000000
# 4 0.000000 0.000000 0.000000 0.032443 0.000000 0.000000
# 5 0.000000 0.000000 0.000000 0.000000 0.034530 0.000000
# 6 0.000000 0.000000 0.000000 0.000000 0.000000 0.011153
#
#
# Mechanical properties :
#
#
# Convention : Reuss Voigt Hill
#
# Bulk Modulus (GPa) = 48.09963 85.74239 66.92101
# Shear Modulus (GPa) = 32.37771 44.53254 38.45512
#
# Velocity S-wave (km/s) = 4.17596 4.89747 4.55103
# Velocity P-wave (km/s) = 7.01127 8.84087 7.97869
#
# Compressibility (1/GPa) = 0.02079018
#
# Stress axis : x y z
#
# Youngs Moduli (GPa) = 44.23981 129.13065 67.87694
#
# Poissons Ratio (x) = 0.68787 0.09173
# Poissons Ratio (y) = 0.23566 0.37107
# Poissons Ratio (z) = 0.05979 0.70593
#
# Static dielectric constant tensor:
#      x y z
#    x 1.628590 0.000000 0.000000 
#    y 0.000000 1.685010 0.000000 
#    z 0.000000 0.000000 1.606840 
# 
# From -- ./inp_files/6433.got.cif
#   From: 2010.05.17/outbox.cif.g08.bks.cpg/sg53_4_cif.got.tgz:6433.got - 2010.06.03 12:45:16.
