data_PCOD9414355
_publ_section_title
;
Structure prediction by ZEFSAII (Michael W. Deem and Ramdas Pophale) SiO2 
 PCOD9414355
Probable space group: P M N A
;
_chemical_formula_sum "Si O2"
_cell_formula_units_Z 64
_cell_length_a 9.021142
_cell_length_b 17.518485
_cell_length_c 27.500488
_cell_angle_alpha 90.000000
_cell_angle_beta 90.000000
_cell_angle_gamma 90.000000
_cell_volume 4346.087494
_symmetry_space_group_name_H-M "P M N A"
_symmetry_group_IT_number 53
_symmetry_cell_setting 'orthorhombic'
loop_
_space_group_symop_operation_xyz
x,y,z
1/2-x,-y,1/2+z
x,-y,-z
1/2-x,y,1/2-z
-x,-y,-z
1/2+x,y,1/2-z
-x,y,z
1/2+x,-y,1/2+z
loop_
_atom_site_type_symbol
_atom_site_label
_atom_site_fract_x
_atom_site_fract_y
_atom_site_fract_z
Si Si1 0.322987 0.324826 0.965483
Si Si2 0.178327 0.366926 0.422466
Si Si3 0.678367 0.915000 0.802742
Si Si4 0.677828 0.783506 0.874462
Si Si5 0.176625 0.975790 0.118866
Si Si6 0.170585 0.521254 0.057468
Si Si7 0.821700 0.834424 0.060046
Si Si8 0.174821 0.888822 0.953421
O O1 0.500000 0.323046 0.961837
O O2 0.258502 0.399623 0.939007
O O3 0.253884 0.247613 0.944302
O O4 0.285657 0.334707 0.023196
O O5 0.226400 0.303578 0.383089
O O6 0.254112 0.448874 0.416928
O O7 0.000000 0.375921 0.420857
O O8 0.750000 0.921445 0.750000
O O9 0.500000 0.917267 0.800041
O O10 0.724903 0.834704 0.828499
O O11 0.736552 0.982254 0.838078
O O12 0.500000 0.782631 0.874320
O O13 0.732691 0.830171 0.921209
O O14 0.222551 0.890374 0.104069
O O15 0.000000 0.976271 0.129666
O O16 0.197154 0.028867 0.070987
O O17 0.000000 0.530541 0.072097
O O18 0.173311 0.500000 0.000000
O O19 0.000000 0.825088 0.062336
O O20 0.787640 0.878423 0.009567
O O21 0.000000 0.871009 0.948079
#
# Coordination Sequence:
#
# PCOD9414355 Si02
#       8
#     8   8   8   8   8   8   8   8
#     4  10  18  27  40  57  83 119 153 183 217 253
#     4   9  16  27  41  58  83 113 147 181 215 255
#     4  10  20  34  51  67  87 113 144 183 227 270
#     4   9  17  29  44  64  87 114 146 181 220 263
#     4   9  18  31  45  63  86 114 147 181 220 265
#     4   9  17  27  39  56  80 111 149 185 215 248
#     4  10  18  27  41  61  88 118 149 184 219 255
#     4   9  16  26  41  60  85 116 148 180 215 255
#
# _framework density 14.725887999999999
#
# number of rings (size 3 to 8) (size 9 to 14) (size 15 to 20)
#    0.000    2.625    1.250    1.500    0.000    5.000 
#    0.000    0.000    0.000    3.750    0.000    0.000 
#    0.000    1.000    0.000    9.250    0.000    3.875 
#
# Total GULP energy -356436.669163 kJ/mol
# GULP energy per Si atom -5569.322956 kJ/mol
# Density = 1.469237 g / cm^3
# Si number density = 14.725888 Si / 1000 Ang^3
#
#
#
# Elastic Constant Matrix: (Units=GPa)
#
#
# Indices 1 2 3 4 5 6 
#
# 1 32.6295 47.4119 30.3599 0.0000 0.0000 0.0000
# 2 47.4119 125.1127 56.0088 0.0000 0.0000 0.0000
# 3 30.3599 56.0088 65.3965 0.0000 0.0000 0.0000
# 4 0.0000 0.0000 0.0000 11.1953 0.0000 0.0000
# 5 0.0000 0.0000 0.0000 0.0000 9.6276 0.0000
# 6 0.0000 0.0000 0.0000 0.0000 0.0000 25.4342
#
#
#
# Elastic Compliance Matrix: (Units=1/GPa)
#
#
# Indices 1 2 3 4 5 6 
#
# 1 0.079409 -0.022039 -0.017990 0.000000 0.000000 0.000000
# 2 -0.022039 0.019079 -0.006109 0.000000 0.000000 0.000000
# 3 -0.017990 -0.006109 0.028875 0.000000 0.000000 0.000000
# 4 0.000000 0.000000 0.000000 0.089323 0.000000 0.000000
# 5 0.000000 0.000000 0.000000 0.000000 0.103868 0.000000
# 6 0.000000 0.000000 0.000000 0.000000 0.000000 0.039317
#
#
# Mechanical properties :
#
#
# Convention : Reuss Voigt Hill
#
# Bulk Modulus (GPa) = 28.49993 54.52220 41.51106
# Shear Modulus (GPa) = 10.77950 15.20864 12.99407
#
# Velocity S-wave (km/s) = 2.70850 3.21718 2.97374
# Velocity P-wave (km/s) = 5.40157 7.13480 6.32781
#
# Compressibility (1/GPa) = 0.03508781
#
# Stress axis : x y z
#
# Youngs Moduli (GPa) = 12.59299 52.41267 34.63173
#
# Poissons Ratio (x) = 1.15512 0.62303
# Poissons Ratio (y) = 0.27754 0.21157
# Poissons Ratio (z) = 0.22655 0.32019
#
# Static dielectric constant tensor:
#      x y z
#    x 1.490350 0.000000 0.000000 
#    y 0.000000 1.501960 0.000000 
#    z 0.000000 0.000000 1.461150 
# 
# From -- ./inp_files/36478.got.cif
#   From: 2010.05.17/outbox.cif.g08.bks.cpg/sg53_19_cif.got.tgz:36478.got - 2010.06.03 12:45:16.
