data_PCOD9414647
_publ_section_title
;
Structure prediction by ZEFSAII (Michael W. Deem and Ramdas Pophale) SiO2 
 PCOD9414647
Probable space group: P M N A
;
_chemical_formula_sum "Si O2"
_cell_formula_units_Z 40
_cell_length_a 14.869675
_cell_length_b 10.462985
_cell_length_c 14.347445
_cell_angle_alpha 90.000000
_cell_angle_beta 90.000000
_cell_angle_gamma 90.000000
_cell_volume 2232.192516
_symmetry_space_group_name_H-M "P M N A"
_symmetry_group_IT_number 53
_symmetry_cell_setting 'orthorhombic'
loop_
_space_group_symop_operation_xyz
x,y,z
1/2-x,-y,1/2+z
x,-y,-z
1/2-x,y,1/2-z
-x,-y,-z
1/2+x,y,1/2-z
-x,y,z
1/2+x,-y,1/2+z
loop_
_atom_site_type_symbol
_atom_site_label
_atom_site_fract_x
_atom_site_fract_y
_atom_site_fract_z
Si Si1 0.108066 0.321429 0.919149
Si Si2 0.794833 0.057730 0.894928
Si Si3 0.097604 0.980353 0.389695
Si Si4 0.891354 0.405571 0.130814
Si Si5 0.105125 0.844437 0.773536
O O1 0.149781 0.187808 0.890169
O O2 0.140370 0.448120 0.864106
O O3 0.000000 0.312766 0.912199
O O4 0.129583 0.350308 0.027927
O O5 0.691284 0.088539 0.869282
O O6 0.837465 0.948731 0.829685
O O7 0.797150 0.000000 0.000000
O O8 0.000000 0.924649 0.360432
O O9 0.094536 0.000000 0.500000
O O10 0.106665 0.113692 0.333917
O O11 0.862717 0.298301 0.204302
O O12 0.000000 0.413985 0.135735
O O13 0.000000 0.853887 0.804415
#
# Coordination Sequence:
#
# PCOD9414647 Si02
#       5
#     8   8   8   8   8
#     4   9  16  27  44  76 118 140 154 189 253 329
#     4  11  19  28  49  80 107 135 167 210 264 323
#     4   9  20  36  50  68  96 135 183 232 263 286
#     4   8  15  27  45  73 110 143 160 187 247 326
#     4  10  18  30  51  78 105 132 167 208 259 321
#
# _framework density 17.919601
#
# number of rings (size 3 to 8) (size 9 to 14) (size 15 to 20)
#    0.000    2.600    2.000    2.400    0.000    0.800 
#    0.000    0.000    0.000    4.800    0.000    7.000 
#    0.000    1.000    0.000    0.000    0.000    0.000 
#
# Total GULP energy -222676.176909 kJ/mol
# GULP energy per Si atom -5566.904423 kJ/mol
# Density = 1.787882 g / cm^3
# Si number density = 17.919601 Si / 1000 Ang^3
#
#
#
# Elastic Constant Matrix: (Units=GPa)
#
#
# Indices 1 2 3 4 5 6 
#
# 1 83.9428 38.8587 12.9534 0.0000 0.0000 0.0000
# 2 38.8587 134.8167 38.8915 0.0000 0.0000 0.0000
# 3 12.9534 38.8915 68.9700 0.0000 0.0000 0.0000
# 4 0.0000 0.0000 0.0000 20.0494 0.0000 0.0000
# 5 0.0000 0.0000 0.0000 0.0000 13.0937 0.0000
# 6 0.0000 0.0000 0.0000 0.0000 0.0000 -2.2303
#
#
#
# Elastic Compliance Matrix: (Units=1/GPa)
#
#
# Indices 1 2 3 4 5 6 
#
# 1 0.013757 -0.003845 -0.000415 0.000000 0.000000 0.000000
# 2 -0.003845 0.009933 -0.004879 0.000000 0.000000 0.000000
# 3 -0.000415 -0.004879 0.017328 0.000000 0.000000 0.000000
# 4 0.000000 0.000000 0.000000 0.049877 0.000000 0.000000
# 5 0.000000 0.000000 0.000000 0.000000 0.076373 0.000000
# 6 0.000000 0.000000 0.000000 0.000000 0.000000 -0.448372
#
#
# Mechanical properties :
#
#
# Convention : Reuss Voigt Hill
#
# Bulk Modulus (GPa) = 43.97728 52.12630 48.05179
# Shear Modulus (GPa) = -19.58907 19.31762 -0.13572
#
# Velocity S-wave (km/s) = -3.30989 3.28688 -0.27551
# Velocity P-wave (km/s) = 3.16031 6.59976 5.17419
#
# Compressibility (1/GPa) = 0.02273902
#
# Stress axis : x y z
#
# Youngs Moduli (GPa) = 72.68973 100.67076 57.70898
#
# Poissons Ratio (x) = 0.38712 0.02397
# Poissons Ratio (y) = 0.27952 0.28157
# Poissons Ratio (z) = 0.03019 0.49118
#
# Static dielectric constant tensor:
#      x y z
#    x 1.656460 0.000000 0.000000 
#    y 0.000000 1.595890 0.000000 
#    z 0.000000 0.000000 1.639050 
# 
# From -- ./inp_files/22452.got.cif
#   From: 2010.05.17/outbox.cif.g08.bks.cpg/sg53_12_cif.got.tgz:22452.got - 2010.06.03 12:45:16.
