data_PCOD9414133
_publ_section_title
;
Structure prediction by ZEFSAII (Michael W. Deem and Ramdas Pophale) SiO2 
 PCOD9414133
Probable space group: P M N A
;
_chemical_formula_sum "Si O2"
_cell_formula_units_Z 40
_cell_length_a 16.604815
_cell_length_b 14.195098
_cell_length_c 7.207058
_cell_angle_alpha 90.000000
_cell_angle_beta 90.000000
_cell_angle_gamma 90.000000
_cell_volume 1698.753848
_symmetry_space_group_name_H-M "P M N A"
_symmetry_group_IT_number 53
_symmetry_cell_setting 'orthorhombic'
loop_
_space_group_symop_operation_xyz
x,y,z
1/2-x,-y,1/2+z
x,-y,-z
1/2-x,y,1/2-z
-x,-y,-z
1/2+x,y,1/2-z
-x,y,z
1/2+x,-y,1/2+z
loop_
_atom_site_type_symbol
_atom_site_label
_atom_site_fract_x
_atom_site_fract_y
_atom_site_fract_z
Si Si1 0.342731 0.905766 0.785423
Si Si2 0.595896 0.899596 0.206666
Si Si3 0.094740 0.705765 0.712261
Si Si4 0.403761 0.502752 0.776143
Si Si5 0.094998 0.699363 0.261931
O O1 0.250000 0.921901 0.750000
O O2 0.366732 0.801932 0.717979
O O3 0.387798 0.998048 0.708673
O O4 0.363441 0.902525 0.004259
O O5 0.500000 0.890200 0.179363
O O6 0.625556 0.802182 0.300065
O O7 0.128224 0.605259 0.781691
O O8 0.099953 0.703097 0.487182
O O9 0.000000 0.710175 0.756418
O O10 0.500000 0.504028 0.734892
O O11 0.370066 0.402626 0.706138
O O12 0.397758 0.500000 0.000000
O O13 0.000000 0.695378 0.213387
#
# Coordination Sequence:
#
# PCOD9414133 Si02
#       5
#     8   8   8   8   8
#     4  10  17  23  34  54  77  99 126 161 196 225
#     4   9  16  28  43  57  73  98 134 162 186 230
#     4   8  12  19  31  48  70  93 116 141 175 221
#     4   7   9  14  27  48  69  86 108 141 177 209
#     4   7  10  17  32  52  69  85 112 150 178 202
#
# _framework density 23.546671
#
# number of rings (size 3 to 8) (size 9 to 14) (size 15 to 20)
#    0.000    3.800    0.000    6.000    0.000    0.000 
#    0.000    0.000    0.000    1.200    0.000   25.200 
#    0.000    0.000    0.000    0.000    0.000  293.000 
#
# Total GULP energy -222812.556701 kJ/mol
# GULP energy per Si atom -5570.313918 kJ/mol
# Density = 2.349308 g / cm^3
# Si number density = 23.546671 Si / 1000 Ang^3
#
#
#
# Elastic Constant Matrix: (Units=GPa)
#
#
# Indices 1 2 3 4 5 6 
#
# 1 42.3417 21.6911 4.5395 0.0000 0.0000 0.0000
# 2 21.6911 303.5759 6.4711 0.0000 0.0000 0.0000
# 3 4.5395 6.4711 107.9423 0.0000 0.0000 0.0000
# 4 0.0000 0.0000 0.0000 -45.1472 0.0000 0.0000
# 5 0.0000 0.0000 0.0000 0.0000 -9.9943 0.0000
# 6 0.0000 0.0000 0.0000 0.0000 0.0000 15.0534
#
#
#
# Elastic Compliance Matrix: (Units=1/GPa)
#
#
# Indices 1 2 3 4 5 6 
#
# 1 0.024608 -0.001738 -0.000931 0.000000 0.000000 0.000000
# 2 -0.001738 0.003421 -0.000132 0.000000 0.000000 0.000000
# 3 -0.000931 -0.000132 0.009311 0.000000 0.000000 0.000000
# 4 0.000000 0.000000 0.000000 -0.022150 0.000000 0.000000
# 5 0.000000 0.000000 0.000000 0.000000 -0.100057 0.000000
# 6 0.000000 0.000000 0.000000 0.000000 0.000000 0.066430
#
#
# Mechanical properties :
#
#
# Convention : Reuss Voigt Hill
#
# Bulk Modulus (GPa) = 31.50801 57.69591 44.60196
# Shear Modulus (GPa) = -2217.24991 20.05958 -1098.59516
#
# Velocity S-wave (km/s) = -30.71945 2.92191 -21.62345
# Velocity P-wave (km/s) = 35.28224 5.99495 24.58553
#
# Compressibility (1/GPa) = 0.03173796
#
# Stress axis : x y z
#
# Youngs Moduli (GPa) = 40.63761 292.30382 107.39688
#
# Poissons Ratio (x) = 0.50815 0.09995
# Poissons Ratio (y) = 0.07065 0.01417
# Poissons Ratio (z) = 0.03782 0.03858
#
# Static dielectric constant tensor:
#      x y z
#    x 1.788900 0.000000 0.000000 
#    y 0.000000 2.051070 0.000000 
#    z 0.000000 0.000000 1.892180 
# 
# From -- ./inp_files/15833.got.cif
#   From: 2010.05.17/outbox.cif.g08.bks.cpg/sg53_8_cif.got.tgz:15833.got - 2010.06.03 12:45:16.
