data_PCOD9414205
_publ_section_title
;
Structure prediction by ZEFSAII (Michael W. Deem and Ramdas Pophale) SiO2 
 PCOD9414205
Probable space group: P M N A
;
_chemical_formula_sum "Si O2"
_cell_formula_units_Z 64
_cell_length_a 8.690752
_cell_length_b 18.630302
_cell_length_c 23.714877
_cell_angle_alpha 90.000000
_cell_angle_beta 90.000000
_cell_angle_gamma 90.000000
_cell_volume 3839.707379
_symmetry_space_group_name_H-M "P M N A"
_symmetry_group_IT_number 53
_symmetry_cell_setting 'orthorhombic'
loop_
_space_group_symop_operation_xyz
x,y,z
1/2-x,-y,1/2+z
x,-y,-z
1/2-x,y,1/2-z
-x,-y,-z
1/2+x,y,1/2-z
-x,y,z
1/2+x,-y,1/2+z
loop_
_atom_site_type_symbol
_atom_site_label
_atom_site_fract_x
_atom_site_fract_y
_atom_site_fract_z
Si Si1 0.184453 0.425455 0.313681
Si Si2 0.685575 0.083587 0.504638
Si Si3 0.185292 0.266233 0.313307
Si Si4 0.816351 0.571498 0.186048
Si Si5 0.814771 0.140334 0.871482
Si Si6 0.184211 0.992635 0.811636
Si Si7 0.184555 0.132413 0.389221
Si Si8 0.683211 0.279570 0.813376
O O1 0.250000 0.423112 0.250000
O O2 0.224440 0.346108 0.336044
O O3 0.256467 0.497023 0.340551
O O4 0.000000 0.433170 0.312131
O O5 0.500000 0.084159 0.500331
O O6 0.727115 0.116457 0.565179
O O7 0.754632 0.127249 0.452654
O O8 0.734619 0.000000 0.500000
O O9 0.250000 0.256887 0.250000
O O10 0.236108 0.203065 0.354866
O O11 0.000000 0.263468 0.308768
O O12 0.750000 0.571301 0.250000
O O13 0.752564 0.646206 0.162216
O O14 0.000000 0.572031 0.187829
O O15 0.776154 0.073218 0.831099
O O16 0.732956 0.211713 0.850207
O O17 0.000000 0.150527 0.869331
O O18 0.250000 0.977616 0.750000
O O19 0.000000 0.986146 0.811579
O O20 0.252163 0.936460 0.855893
O O21 0.000000 0.130951 0.389239
O O22 0.750000 0.269808 0.750000
O O23 0.500000 0.285726 0.809487
#
# Coordination Sequence:
#
# PCOD9414205 Si02
#       8
#     8   8   8   8   8   8   8   8
#     4   9  15  26  43  65  96 132 167 201 241 289
#     4  10  20  39  59  75  95 128 169 214 262 304
#     4   9  19  32  47  71 104 137 168 206 250 298
#     4  10  17  27  44  68  99 133 168 201 241 291
#     4  10  21  37  55  73  98 129 167 210 256 302
#     4  11  22  36  52  73 101 134 167 205 252 306
#     4  11  22  35  52  76 102 132 171 212 254 300
#     4  11  21  33  50  74 105 136 169 204 249 300
#
# _framework density 16.667937999999999
#
# number of rings (size 3 to 8) (size 9 to 14) (size 15 to 20)
#    0.000    1.875    1.250    5.625    0.000    5.250 
#    0.000    0.000    0.000    0.000    0.000    0.875 
#    0.000    7.000    0.000    0.000    0.000    0.000 
#
# Total GULP energy -357049.471924 kJ/mol
# GULP energy per Si atom -5578.897999 kJ/mol
# Density = 1.663000 g / cm^3
# Si number density = 16.667938 Si / 1000 Ang^3
#
#
#
# Elastic Constant Matrix: (Units=GPa)
#
#
# Indices 1 2 3 4 5 6 
#
# 1 64.2796 40.7788 15.8021 0.0000 0.0000 0.0000
# 2 40.7788 127.1969 19.0657 0.0000 0.0000 0.0000
# 3 15.8021 19.0657 51.6102 0.0000 0.0000 0.0000
# 4 0.0000 0.0000 0.0000 -2.4489 0.0000 0.0000
# 5 0.0000 0.0000 0.0000 0.0000 22.6458 0.0000
# 6 0.0000 0.0000 0.0000 0.0000 0.0000 21.3719
#
#
#
# Elastic Compliance Matrix: (Units=1/GPa)
#
#
# Indices 1 2 3 4 5 6 
#
# 1 0.020292 -0.005901 -0.004033 0.000000 0.000000 0.000000
# 2 -0.005901 0.010039 -0.001902 0.000000 0.000000 0.000000
# 3 -0.004033 -0.001902 0.021313 0.000000 0.000000 0.000000
# 4 0.000000 0.000000 0.000000 -0.408343 0.000000 0.000000
# 5 0.000000 0.000000 0.000000 0.000000 0.044158 0.000000
# 6 0.000000 0.000000 0.000000 0.000000 0.000000 0.046790
#
#
# Mechanical properties :
#
#
# Convention : Reuss Voigt Hill
#
# Bulk Modulus (GPa) = 35.74936 43.81999 39.78468
# Shear Modulus (GPa) = -21.48194 19.47643 -1.00275
#
# Velocity S-wave (km/s) = -3.59391 3.42204 -0.77647
# Velocity P-wave (km/s) = 2.06712 6.47772 4.80801
#
# Compressibility (1/GPa) = 0.02797253
#
# Stress axis : x y z
#
# Youngs Moduli (GPa) = 49.28024 99.61434 46.91879
#
# Poissons Ratio (x) = 0.58783 0.18923
# Poissons Ratio (y) = 0.29080 0.08922
# Poissons Ratio (z) = 0.19875 0.18943
#
# Static dielectric constant tensor:
#      x y z
#    x 1.572610 0.000000 0.000000 
#    y 0.000000 1.607250 0.000000 
#    z 0.000000 0.000000 1.525870 
# 
# From -- ./inp_files/31134.got.cif
#   From: 2010.05.17/outbox.cif.g08.bks.cpg/sg53_16_cif.got.tgz:31134.got - 2010.06.03 12:45:16.
