data_PCOD9414752
_publ_section_title
;
Structure prediction by ZEFSAII (Michael W. Deem and Ramdas Pophale) SiO2 
 PCOD9414752
Probable space group: P M N A
;
_chemical_formula_sum "Si O2"
_cell_formula_units_Z 64
_cell_length_a 14.746494
_cell_length_b 19.186238
_cell_length_c 10.125748
_cell_angle_alpha 90.000000
_cell_angle_beta 90.000000
_cell_angle_gamma 90.000000
_cell_volume 2864.875285
_symmetry_space_group_name_H-M "P M N A"
_symmetry_group_IT_number 53
_symmetry_cell_setting 'orthorhombic'
loop_
_space_group_symop_operation_xyz
x,y,z
1/2-x,-y,1/2+z
x,-y,-z
1/2-x,y,1/2-z
-x,-y,-z
1/2+x,y,1/2-z
-x,y,z
1/2+x,-y,1/2+z
loop_
_atom_site_type_symbol
_atom_site_label
_atom_site_fract_x
_atom_site_fract_y
_atom_site_fract_z
Si Si1 0.389746 0.050724 0.119662
Si Si2 0.389553 0.959584 0.370094
Si Si3 0.644288 0.576356 0.476895
Si Si4 0.354280 0.577514 0.008855
Si Si5 0.858988 0.671367 0.251811
Si Si6 0.608170 0.808512 0.422369
Si Si7 0.891264 0.346082 0.247707
Si Si8 0.110822 0.810225 0.768054
O O1 0.500000 0.056693 0.104051
O O2 0.358737 0.128543 0.166993
O O3 0.366117 0.005180 0.246206
O O4 0.359276 0.000000 0.000000
O O5 0.500000 0.957252 0.374462
O O6 0.356353 0.880866 0.363262
O O7 0.359482 0.000000 0.500000
O O8 0.605484 0.500000 0.500000
O O9 0.750750 0.566585 0.445986
O O10 0.604411 0.615106 0.351962
O O11 0.635060 0.625849 0.603806
O O12 0.353086 0.605070 0.860537
O O13 0.396820 0.500000 0.000000
O O14 0.389192 0.639695 0.105927
O O15 0.750000 0.671669 0.250000
O O16 0.879002 0.745609 0.181628
O O17 0.500000 0.812419 0.436784
O O18 0.640467 0.809472 0.576457
O O19 0.863099 0.266995 0.277551
O O20 0.000000 0.348390 0.253690
O O21 0.000000 0.815340 0.770687
#
# Coordination Sequence:
#
# PCOD9414752 Si02
#       8
#     8   8   8   8   8   8   8   8
#     4   9  16  26  42  69 107 143 177 217 259 310
#     4   9  15  25  45  72 101 139 180 213 255 314
#     4  10  20  38  62  81 102 142 195 235 272 334
#     4  10  22  40  58  78 109 147 186 237 287 333
#     4  10  21  36  56  82 107 141 190 236 281 334
#     4  10  18  31  53  78 109 144 182 230 278 327
#     4  11  22  35  55  84 116 148 180 225 290 351
#     4   9  17  30  48  74 111 146 175 220 275 325
#
# _framework density 22.339542999999999
#
# number of rings (size 3 to 8) (size 9 to 14) (size 15 to 20)
#    0.000    2.250    2.500    1.125    0.000    4.000 
#    0.000    3.750    0.000    0.000    0.000    6.125 
#    0.000    0.000    0.000    0.000    0.000    0.000 
#
# Total GULP energy -356590.924120 kJ/mol
# GULP energy per Si atom -5571.733189 kJ/mol
# Density = 2.228870 g / cm^3
# Si number density = 22.339543 Si / 1000 Ang^3
#
#
#
# Elastic Constant Matrix: (Units=GPa)
#
#
# Indices 1 2 3 4 5 6 
#
# 1 53.1130 7.1992 -4.5712 0.0000 0.0000 0.0000
# 2 7.1992 80.1397 -31.9085 0.0000 0.0000 0.0000
# 3 -4.5712 -31.9085 54.6648 0.0000 0.0000 0.0000
# 4 0.0000 0.0000 0.0000 -42.3143 0.0000 0.0000
# 5 0.0000 0.0000 0.0000 0.0000 -1.8313 0.0000
# 6 0.0000 0.0000 0.0000 0.0000 0.0000 -7.5559
#
#
#
# Elastic Compliance Matrix: (Units=1/GPa)
#
#
# Indices 1 2 3 4 5 6 
#
# 1 0.019085 -0.001406 0.000775 0.000000 0.000000 0.000000
# 2 -0.001406 0.016360 0.009432 0.000000 0.000000 0.000000
# 3 0.000775 0.009432 0.023864 0.000000 0.000000 0.000000
# 4 0.000000 0.000000 0.000000 -0.023633 0.000000 0.000000
# 5 0.000000 0.000000 0.000000 0.000000 -0.546066 0.000000
# 6 0.000000 0.000000 0.000000 0.000000 0.000000 -0.132348
#
#
# Mechanical properties :
#
#
# Convention : Reuss Voigt Hill
#
# Bulk Modulus (GPa) = 13.00193 14.37297 13.68745
# Shear Modulus (GPa) = -7.87769 4.13956 -1.86907
#
# Velocity S-wave (km/s) = -1.87989 1.36273 -0.91568
# Velocity P-wave (km/s) = 1.05867 2.98729 2.24106
#
# Compressibility (1/GPa) = 0.07691167
#
# Stress axis : x y z
#
# Youngs Moduli (GPa) = 52.39697 61.12507 41.90472
#
# Poissons Ratio (x) = 0.08593 -0.03249
# Poissons Ratio (y) = 0.07366 -0.39524
# Poissons Ratio (z) = -0.04063 -0.57653
#
# Static dielectric constant tensor:
#      x y z
#    x 1.871620 0.000000 0.000000 
#    y 0.000000 1.878790 0.000000 
#    z 0.000000 0.000000 1.837420 
# 
# From -- ./inp_files/11186.got.cif
#   From: 2010.05.17/outbox.cif.g08.bks.cpg/sg53_6_cif.got.tgz:11186.got - 2010.06.03 12:45:16.
