data_PCOD9414552
_publ_section_title
;
Structure prediction by ZEFSAII (Michael W. Deem and Ramdas Pophale) SiO2 
 PCOD9414552
Probable space group: P M N A
;
_chemical_formula_sum "Si O2"
_cell_formula_units_Z 48
_cell_length_a 19.149455
_cell_length_b 9.582186
_cell_length_c 15.358456
_cell_angle_alpha 90.000000
_cell_angle_beta 90.000000
_cell_angle_gamma 90.000000
_cell_volume 2818.178990
_symmetry_space_group_name_H-M "P M N A"
_symmetry_group_IT_number 53
_symmetry_cell_setting 'orthorhombic'
loop_
_space_group_symop_operation_xyz
x,y,z
1/2-x,-y,1/2+z
x,-y,-z
1/2-x,y,1/2-z
-x,-y,-z
1/2+x,y,1/2-z
-x,y,z
1/2+x,-y,1/2+z
loop_
_atom_site_type_symbol
_atom_site_label
_atom_site_fract_x
_atom_site_fract_y
_atom_site_fract_z
Si Si1 0.207117 0.670186 0.838519
Si Si2 0.770513 0.832629 0.503219
Si Si3 0.421845 0.261017 0.227956
Si Si4 0.921666 0.858909 0.556033
Si Si5 0.231185 0.635722 0.348714
Si Si6 0.579115 0.531887 0.103097
O O1 0.250000 0.697972 0.750000
O O2 0.229180 0.771590 0.915278
O O3 0.129432 0.701715 0.805823
O O4 0.228892 0.512194 0.865093
O O5 0.851771 0.790781 0.518813
O O6 0.746864 0.754617 0.416177
O O7 0.766069 0.000000 0.500000
O O8 0.500000 0.245375 0.261053
O O9 0.407982 0.132639 0.160483
O O10 0.418619 0.389941 0.159814
O O11 0.000000 0.796241 0.547106
O O12 0.925280 0.000000 0.500000
O O13 0.250000 0.673457 0.250000
O O14 0.147870 0.611241 0.361978
O O15 0.500000 0.591649 0.116448
O O16 0.585997 0.500000 0.000000
#
# Coordination Sequence:
#
# PCOD9414552 Si02
#       6
#     8   8   8   8   8   8
#     4  11  19  35  57  81 108 142 182 229 273 318
#     4  11  23  36  54  80 112 150 184 221 268 328
#     4  10  18  31  53  80 108 143 184 225 273 325
#     4   9  17  30  48  78 115 144 174 211 264 334
#     4  11  21  36  55  81 111 145 179 225 277 320
#     4  10  18  29  52  83 113 139 172 222 279 329
#
# _framework density 17.032274000000001
#
# number of rings (size 3 to 8) (size 9 to 14) (size 15 to 20)
#    0.000    1.667    5.000    2.500    0.000    2.667 
#    0.000    0.000    0.000    3.500    0.000    0.000 
#    0.000    0.000    0.000    0.000    0.000    0.000 
#
# Total GULP energy -267214.801905 kJ/mol
# GULP energy per Si atom -5566.975040 kJ/mol
# Density = 1.699351 g / cm^3
# Si number density = 17.032274 Si / 1000 Ang^3
#
#
#
# Elastic Constant Matrix: (Units=GPa)
#
#
# Indices 1 2 3 4 5 6 
#
# 1 111.6193 38.8093 65.3523 0.0000 0.0000 0.0000
# 2 38.8093 87.6953 67.3520 0.0000 0.0000 0.0000
# 3 65.3523 67.3520 109.7727 0.0000 0.0000 0.0000
# 4 0.0000 0.0000 0.0000 22.4497 0.0000 0.0000
# 5 0.0000 0.0000 0.0000 0.0000 13.5866 0.0000
# 6 0.0000 0.0000 0.0000 0.0000 0.0000 -33.6293
#
#
#
# Elastic Compliance Matrix: (Units=1/GPa)
#
#
# Indices 1 2 3 4 5 6 
#
# 1 0.013760 0.000382 -0.008426 0.000000 0.000000 0.000000
# 2 0.000382 0.021576 -0.013466 0.000000 0.000000 0.000000
# 3 -0.008426 -0.013466 0.022388 0.000000 0.000000 0.000000
# 4 0.000000 0.000000 0.000000 0.044544 0.000000 0.000000
# 5 0.000000 0.000000 0.000000 0.000000 0.073602 0.000000
# 6 0.000000 0.000000 0.000000 0.000000 0.000000 -0.029736
#
#
# Mechanical properties :
#
#
# Convention : Reuss Voigt Hill
#
# Bulk Modulus (GPa) = 68.00658 72.45717 70.23187
# Shear Modulus (GPa) = 25.76598 9.65297 17.70947
#
# Velocity S-wave (km/s) = 3.89366 2.38323 3.22803
# Velocity P-wave (km/s) = 7.76072 7.08565 7.43086
#
# Compressibility (1/GPa) = 0.01470446
#
# Stress axis : x y z
#
# Youngs Moduli (GPa) = 72.67665 46.34808 44.66653
#
# Poissons Ratio (x) = -0.01772 0.37637
# Poissons Ratio (y) = -0.02778 0.60146
# Poissons Ratio (z) = 0.61239 0.62411
#
# Static dielectric constant tensor:
#      x y z
#    x 1.626430 0.000000 0.000000 
#    y 0.000000 1.643260 0.000000 
#    z 0.000000 0.000000 1.569370 
# 
# From -- ./inp_files/23675.got.cif
#   From: 2010.05.17/outbox.cif.g08.bks.cpg/sg53_12_cif.got.tgz:23675.got - 2010.06.03 12:45:16.
