data_PCOD9414505
_publ_section_title
;
Structure prediction by ZEFSAII (Michael W. Deem and Ramdas Pophale) SiO2 
 PCOD9414505
Probable space group: P M N A
;
_chemical_formula_sum "Si O2"
_cell_formula_units_Z 64
_cell_length_a 8.344638
_cell_length_b 18.847748
_cell_length_c 21.701292
_cell_angle_alpha 90.000000
_cell_angle_beta 90.000000
_cell_angle_gamma 90.000000
_cell_volume 3413.127864
_symmetry_space_group_name_H-M "P M N A"
_symmetry_group_IT_number 53
_symmetry_cell_setting 'orthorhombic'
loop_
_space_group_symop_operation_xyz
x,y,z
1/2-x,-y,1/2+z
x,-y,-z
1/2-x,y,1/2-z
-x,-y,-z
1/2+x,y,1/2-z
-x,y,z
1/2+x,-y,1/2+z
loop_
_atom_site_type_symbol
_atom_site_label
_atom_site_fract_x
_atom_site_fract_y
_atom_site_fract_z
Si Si1 0.683196 0.412190 0.336064
Si Si2 0.194923 0.059898 0.451925
Si Si3 0.807526 0.739950 0.852755
Si Si4 0.308302 0.104195 0.183008
Si Si5 0.682338 0.327234 0.920768
Si Si6 0.823550 0.418088 0.017166
Si Si7 0.190673 0.569801 0.315455
Si Si8 0.194511 0.781081 0.513326
O O1 0.500000 0.415066 0.312664
O O2 0.753813 0.333911 0.322622
O O3 0.681280 0.412364 0.410097
O O4 0.761798 0.486971 0.319779
O O5 0.247650 0.063225 0.379631
O O6 0.236941 0.136680 0.479784
O O7 0.000000 0.054920 0.449942
O O8 0.251737 0.000000 0.500000
O O9 0.744046 0.813370 0.824672
O O10 0.761034 0.743667 0.925127
O O11 0.000000 0.738552 0.848147
O O12 0.250000 0.078338 0.250000
O O13 0.500000 0.102435 0.182692
O O14 0.500000 0.311543 0.901695
O O15 0.756950 0.377727 0.868525
O O16 0.687891 0.376521 0.981386
O O17 0.752420 0.255222 0.949888
O O18 0.000000 0.391755 0.996305
O O19 0.812197 0.500000 0.000000
O O20 0.250000 0.596693 0.250000
O O21 0.000000 0.571435 0.319726
O O22 0.000000 0.775758 0.515137
#
# Coordination Sequence:
#
# PCOD9414505 Si02
#       8
#     8   8   8   8   8   8   8   8
#     4  10  20  33  49  70  97 128 164 206 252 302
#     4   8  15  30  54  82 108 135 169 206 246 296
#     4  10  19  31  49  74 104 135 167 203 245 298
#     4  10  20  34  53  77 107 143 178 211 250 300
#     4  10  20  32  49  72  95 121 158 205 252 295
#     4  10  18  29  47  71  96 123 156 197 248 299
#     4  11  24  38  50  64  87 125 170 214 259 304
#     4   9  17  30  50  77 105 129 159 202 249 300
#
# _framework density 18.75113
#
# number of rings (size 3 to 8) (size 9 to 14) (size 15 to 20)
#    0.000    2.250    2.500    1.875    0.000    2.750 
#    0.000    0.000    0.000   10.125    0.000    0.000 
#    0.000    0.000    0.000    0.000    0.000    0.500 
#
# Total GULP energy -356420.657759 kJ/mol
# GULP energy per Si atom -5569.072777 kJ/mol
# Density = 1.870845 g / cm^3
# Si number density = 18.751130 Si / 1000 Ang^3
#
#
#
# Elastic Constant Matrix: (Units=GPa)
#
#
# Indices 1 2 3 4 5 6 
#
# 1 25.7305 14.2156 13.7574 0.0000 0.0000 0.0000
# 2 14.2156 93.6328 66.5710 0.0000 0.0000 0.0000
# 3 13.7574 66.5710 125.7918 0.0000 0.0000 0.0000
# 4 0.0000 0.0000 0.0000 16.3816 0.0000 0.0000
# 5 0.0000 0.0000 0.0000 0.0000 19.9949 0.0000
# 6 0.0000 0.0000 0.0000 0.0000 0.0000 14.5408
#
#
#
# Elastic Compliance Matrix: (Units=1/GPa)
#
#
# Indices 1 2 3 4 5 6 
#
# 1 0.042731 -0.005074 -0.001988 0.000000 0.000000 0.000000
# 2 -0.005074 0.017725 -0.008825 0.000000 0.000000 0.000000
# 3 -0.001988 -0.008825 0.012838 0.000000 0.000000 0.000000
# 4 0.000000 0.000000 0.000000 0.061044 0.000000 0.000000
# 5 0.000000 0.000000 0.000000 0.000000 0.050013 0.000000
# 6 0.000000 0.000000 0.000000 0.000000 0.000000 0.068772
#
#
# Mechanical properties :
#
#
# Convention : Reuss Voigt Hill
#
# Bulk Modulus (GPa) = 24.08576 48.24923 36.16749
# Shear Modulus (GPa) = 16.73716 20.22421 18.48068
#
# Velocity S-wave (km/s) = 2.99087 3.28771 3.14280
# Velocity P-wave (km/s) = 4.97995 6.34029 5.70084
#
# Compressibility (1/GPa) = 0.04151832
#
# Stress axis : x y z
#
# Youngs Moduli (GPa) = 23.40241 56.41710 77.89586
#
# Poissons Ratio (x) = 0.28626 0.15486
# Poissons Ratio (y) = 0.11874 0.68747
# Poissons Ratio (z) = 0.04652 0.49791
#
# Static dielectric constant tensor:
#      x y z
#    x 1.700220 0.000000 0.000000 
#    y 0.000000 1.675020 0.000000 
#    z 0.000000 0.000000 1.690390 
# 
# From -- ./inp_files/34430.got.cif
#   From: 2010.05.17/outbox.cif.g08.bks.cpg/sg53_18_cif.got.tgz:34430.got - 2010.06.03 12:45:16.
