data_PCOD9414725
_publ_section_title
;
Structure prediction by ZEFSAII (Michael W. Deem and Ramdas Pophale) SiO2 
 PCOD9414725
Probable space group: P M N A
;
_chemical_formula_sum "Si O2"
_cell_formula_units_Z 40
_cell_length_a 13.837151
_cell_length_b 6.890976
_cell_length_c 15.367695
_cell_angle_alpha 90.000000
_cell_angle_beta 90.000000
_cell_angle_gamma 90.000000
_cell_volume 1465.332393
_symmetry_space_group_name_H-M "P M N A"
_symmetry_group_IT_number 53
_symmetry_cell_setting 'orthorhombic'
loop_
_space_group_symop_operation_xyz
x,y,z
1/2-x,-y,1/2+z
x,-y,-z
1/2-x,y,1/2-z
-x,-y,-z
1/2+x,y,1/2-z
-x,y,z
1/2+x,-y,1/2+z
loop_
_atom_site_type_symbol
_atom_site_label
_atom_site_fract_x
_atom_site_fract_y
_atom_site_fract_z
Si Si1 0.389287 0.345195 0.699332
Si Si2 0.603809 0.831461 0.570522
Si Si3 0.108273 0.202190 0.259843
Si Si4 0.810761 0.728620 0.568019
Si Si5 0.321228 0.704224 0.118335
O O1 0.500000 0.319153 0.666300
O O2 0.376442 0.576341 0.723888
O O3 0.293135 0.294847 0.643944
O O4 0.378198 0.245007 0.794247
O O5 0.500000 0.730996 0.564717
O O6 0.611365 0.912902 0.669079
O O7 0.696535 0.704014 0.554558
O O8 0.605903 0.000000 0.500000
O O9 0.175424 0.155671 0.341760
O O10 0.000000 0.193041 0.294986
O O11 0.843835 0.803380 0.473948
O O12 0.849896 0.518119 0.593796
#
# Coordination Sequence:
#
# PCOD9414725 Si02
#       5
#     8   8   8   8   8
#     4   9  16  29  47  71 110 146 169 203 254 308
#     4  10  20  33  51  76 102 131 175 222 264 311
#     4   9  17  31  53  77 101 137 177 213 257 309
#     4  10  18  31  51  76 107 135 171 218 262 308
#     4   9  18  28  47  79 105 137 177 210 250 317
#
# _framework density 27.297559
#
# number of rings (size 3 to 8) (size 9 to 14) (size 15 to 20)
#    0.000    2.600    2.000    0.600    0.000    1.600 
#    0.000    6.000    8.800    0.600    0.000    0.000 
#    0.000    0.000    0.000    0.000    0.000    0.000 
#
# Total GULP energy -223579.880319 kJ/mol
# GULP energy per Si atom -5589.497008 kJ/mol
# Density = 2.723543 g / cm^3
# Si number density = 27.297559 Si / 1000 Ang^3
#
#
#
# Elastic Constant Matrix: (Units=GPa)
#
#
# Indices 1 2 3 4 5 6 
#
# 1 98.6644 -1.0131 20.2075 0.0000 0.0000 0.0000
# 2 -1.0131 76.0761 32.5184 0.0000 0.0000 0.0000
# 3 20.2075 32.5184 233.0505 0.0000 0.0000 0.0000
# 4 0.0000 0.0000 0.0000 44.6255 0.0000 0.0000
# 5 0.0000 0.0000 0.0000 0.0000 22.2702 0.0000
# 6 0.0000 0.0000 0.0000 0.0000 0.0000 17.1797
#
#
#
# Elastic Compliance Matrix: (Units=1/GPa)
#
#
# Indices 1 2 3 4 5 6 
#
# 1 0.010341 0.000554 -0.000974 0.000000 0.000000 0.000000
# 2 0.000554 0.014008 -0.002003 0.000000 0.000000 0.000000
# 3 -0.000974 -0.002003 0.004655 0.000000 0.000000 0.000000
# 4 0.000000 0.000000 0.000000 0.022409 0.000000 0.000000
# 5 0.000000 0.000000 0.000000 0.000000 0.044903 0.000000
# 6 0.000000 0.000000 0.000000 0.000000 0.000000 0.058208
#
#
# Mechanical properties :
#
#
# Convention : Reuss Voigt Hill
#
# Bulk Modulus (GPa) = 41.39356 56.80184 49.09770
# Shear Modulus (GPa) = 29.86475 40.55363 35.20919
#
# Velocity S-wave (km/s) = 3.31122 3.85855 3.59532
# Velocity P-wave (km/s) = 5.46037 6.38003 5.93803
#
# Compressibility (1/GPa) = 0.02415835
#
# Stress axis : x y z
#
# Youngs Moduli (GPa) = 96.70691 71.38706 214.83200
#
# Poissons Ratio (x) = -0.03955 0.20923
# Poissons Ratio (y) = -0.05358 0.43023
# Poissons Ratio (z) = 0.09418 0.14296
#
# Static dielectric constant tensor:
#      x y z
#    x 2.046530 0.000000 0.000000 
#    y 0.000000 2.314680 0.000000 
#    z 0.000000 0.000000 2.222070 
# 
# From -- ./inp_files/22424.got.cif
#   From: 2010.05.17/outbox.cif.g08.bks.cpg/sg53_12_cif.got.tgz:22424.got - 2010.06.03 12:45:16.
