data_PCOD9414756
_publ_section_title
;
Structure prediction by ZEFSAII (Michael W. Deem and Ramdas Pophale) SiO2 
 PCOD9414756
Probable space group: P M N A
;
_chemical_formula_sum "Si O2"
_cell_formula_units_Z 40
_cell_length_a 10.691820
_cell_length_b 8.909690
_cell_length_c 21.726804
_cell_angle_alpha 90.000000
_cell_angle_beta 90.000000
_cell_angle_gamma 90.000000
_cell_volume 2069.712768
_symmetry_space_group_name_H-M "P M N A"
_symmetry_group_IT_number 53
_symmetry_cell_setting 'orthorhombic'
loop_
_space_group_symop_operation_xyz
x,y,z
1/2-x,-y,1/2+z
x,-y,-z
1/2-x,y,1/2-z
-x,-y,-z
1/2+x,y,1/2-z
-x,y,z
1/2+x,-y,1/2+z
loop_
_atom_site_type_symbol
_atom_site_label
_atom_site_fract_x
_atom_site_fract_y
_atom_site_fract_z
Si Si1 0.000000 0.339859 0.689684
Si Si2 0.000000 0.310985 0.823921
Si Si3 0.742763 0.877395 0.181486
Si Si4 0.500000 0.354406 0.542591
Si Si5 0.740121 0.319356 0.996563
Si Si6 0.649918 0.069518 0.068244
Si Si7 0.500000 0.390458 0.940397
O O1 0.124498 0.237062 0.684614
O O2 0.000000 0.399636 0.759373
O O3 0.000000 0.446439 0.629498
O O4 0.873979 0.210607 0.826344
O O5 0.000000 0.403926 0.886678
O O6 0.750000 0.949517 0.250000
O O7 0.715847 0.988889 0.125210
O O8 0.500000 0.500000 0.500000
O O9 0.626464 0.265911 0.527449
O O10 0.624511 0.293723 0.950351
O O11 0.749339 0.500000 0.000000
O O12 0.699919 0.239543 0.059179
O O13 0.500000 0.067667 0.076612
O O14 0.677131 0.000000 0.000000
O O15 0.500000 0.500000 0.000000
#
# Coordination Sequence:
#
# PCOD9414756 Si02
#       7
#     4   4   8   4   8   8   4
#     4  10  18  33  53  77 112 146 185 234 286 346
#     4  10  20  33  53  79 110 150 187 230 288 344
#     4  10  21  35  53  81 116 148 182 229 289 352
#     4  10  20  35  53  75 111 150 187 232 283 334
#     4  10  21  35  54  81 111 146 182 226 282 338
#     4  11  20  32  58  88 113 141 187 243 287 330
#     4  10  18  31  53  79 107 140 189 240 279 326
#
# _framework density 19.326353999999998
#
# number of rings (size 3 to 8) (size 9 to 14) (size 15 to 20)
#    0.000    1.800    2.000    3.600    0.000    0.800 
#    0.000    2.000    0.000    9.600    0.000    0.000 
#    0.000    0.000    0.000    0.000    0.000    0.000 
#
# Total GULP energy -222739.944036 kJ/mol
# GULP energy per Si atom -5568.498601 kJ/mol
# Density = 1.928237 g / cm^3
# Si number density = 19.326354 Si / 1000 Ang^3
#
#
#
# Elastic Constant Matrix: (Units=GPa)
#
#
# Indices 1 2 3 4 5 6 
#
# 1 166.7936 4.6633 31.2764 0.0000 0.0000 0.0000
# 2 4.6633 48.5387 45.1232 0.0000 0.0000 0.0000
# 3 31.2764 45.1232 201.0410 0.0000 0.0000 0.0000
# 4 0.0000 0.0000 0.0000 36.3840 0.0000 0.0000
# 5 0.0000 0.0000 0.0000 0.0000 27.9007 0.0000
# 6 0.0000 0.0000 0.0000 0.0000 0.0000 -19.6337
#
#
#
# Elastic Compliance Matrix: (Units=1/GPa)
#
#
# Indices 1 2 3 4 5 6 
#
# 1 0.006181 0.000379 -0.001047 0.000000 0.000000 0.000000
# 2 0.000379 0.026058 -0.005908 0.000000 0.000000 0.000000
# 3 -0.001047 -0.005908 0.006463 0.000000 0.000000 0.000000
# 4 0.000000 0.000000 0.000000 0.027485 0.000000 0.000000
# 5 0.000000 0.000000 0.000000 0.000000 0.035841 0.000000
# 6 0.000000 0.000000 0.000000 0.000000 0.000000 -0.050933
#
#
# Mechanical properties :
#
#
# Convention : Reuss Voigt Hill
#
# Bulk Modulus (GPa) = 39.13674 64.27767 51.70720
# Shear Modulus (GPa) = 68.71724 31.28423 50.00073
#
# Velocity S-wave (km/s) = 5.96937 4.02771 5.09195
# Velocity P-wave (km/s) = 8.23442 7.41359 7.83476
#
# Compressibility (1/GPa) = 0.02555144
#
# Stress axis : x y z
#
# Youngs Moduli (GPa) = 161.78332 38.37660 154.72960
#
# Poissons Ratio (x) = -0.01455 0.16196
# Poissons Ratio (y) = -0.06135 0.91407
# Poissons Ratio (z) = 0.16934 0.22671
#
# Static dielectric constant tensor:
#      x y z
#    x 1.712020 0.000000 0.000000 
#    y 0.000000 1.233290 0.000000 
#    z 0.000000 0.000000 1.633680 
# 
# From -- ./inp_files/31817.got.cif
#   From: 2010.05.17/outbox.cif.g08.bks.cpg/sg53_16_cif.got.tgz:31817.got - 2010.06.03 12:45:16.
