data_PCOD9414166
_publ_section_title
;
Structure prediction by ZEFSAII (Michael W. Deem and Ramdas Pophale) SiO2 
 PCOD9414166
Probable space group: P M N A
;
_chemical_formula_sum "Si O2"
_cell_formula_units_Z 56
_cell_length_a 29.347713
_cell_length_b 5.319790
_cell_length_c 13.451902
_cell_angle_alpha 90.000000
_cell_angle_beta 90.000000
_cell_angle_gamma 90.000000
_cell_volume 2100.160311
_symmetry_space_group_name_H-M "P M N A"
_symmetry_group_IT_number 53
_symmetry_cell_setting 'orthorhombic'
loop_
_space_group_symop_operation_xyz
x,y,z
1/2-x,-y,1/2+z
x,-y,-z
1/2-x,y,1/2-z
-x,-y,-z
1/2+x,y,1/2-z
-x,y,z
1/2+x,-y,1/2+z
loop_
_atom_site_type_symbol
_atom_site_label
_atom_site_fract_x
_atom_site_fract_y
_atom_site_fract_z
Si Si1 0.202782 0.150918 0.876987
Si Si2 0.806551 0.849444 0.364054
Si Si3 0.649395 0.654937 0.608747
Si Si4 0.359335 0.647132 0.851302
Si Si5 0.447500 0.104872 0.109803
Si Si6 0.050030 0.255684 0.770061
Si Si7 0.948896 0.756935 0.899917
O O1 0.199037 0.152272 0.756409
O O2 0.255457 0.182354 0.904323
O O3 0.170755 0.381456 0.909794
O O4 0.184810 0.878559 0.907654
O O5 0.836466 0.607239 0.387740
O O6 0.830591 0.112809 0.389182
O O7 0.642091 0.655641 0.730076
O O8 0.601453 0.726561 0.555801
O O9 0.412021 0.669476 0.882105
O O10 0.500000 0.174299 0.138114
O O11 0.424831 0.890926 0.181748
O O12 0.448878 0.000000 0.000000
O O13 0.054410 0.521625 0.823331
O O14 0.000000 0.272058 0.724595
O O15 0.051213 0.035132 0.853001
O O16 0.000000 0.733284 0.946242
#
# Coordination Sequence:
#
# PCOD9414166 Si02
#       7
#     8   8   8   8   8   8   8
#     4   9  17  28  42  64  84 100 125 164 212 258
#     4   9  18  31  45  62  82 101 126 163 210 277
#     4  10  17  25  44  63  83 107 133 166 209 258
#     4  10  19  30  47  61  78 107 135 164 222 278
#     4  10  21  36  50  65  86 112 150 200 243 279
#     4   9  18  30  43  55  74 105 140 176 216 257
#     4  10  18  28  42  60  83 110 141 171 203 253
#
# _framework density 26.664629000000001
#
# number of rings (size 3 to 8) (size 9 to 14) (size 15 to 20)
#    0.000    2.429    1.429    1.714    4.000    3.429 
#    0.000    3.571    0.000    9.429    0.000    0.000 
#    0.000    0.000    0.000    0.000    0.000    0.000 
#
# Total GULP energy -313307.607716 kJ/mol
# GULP energy per Si atom -5594.778709 kJ/mol
# Density = 2.660394 g / cm^3
# Si number density = 26.664629 Si / 1000 Ang^3
#
#
#
# Elastic Constant Matrix: (Units=GPa)
#
#
# Indices 1 2 3 4 5 6 
#
# 1 242.7045 108.8554 21.2618 0.0000 0.0000 0.0000
# 2 108.8554 195.8451 30.5182 0.0000 0.0000 0.0000
# 3 21.2618 30.5182 71.3941 0.0000 0.0000 0.0000
# 4 0.0000 0.0000 0.0000 37.6176 0.0000 0.0000
# 5 0.0000 0.0000 0.0000 0.0000 13.4069 0.0000
# 6 0.0000 0.0000 0.0000 0.0000 0.0000 22.4229
#
#
#
# Elastic Compliance Matrix: (Units=1/GPa)
#
#
# Indices 1 2 3 4 5 6 
#
# 1 0.005497 -0.003000 -0.000355 0.000000 0.000000 0.000000
# 2 -0.003000 0.007108 -0.002145 0.000000 0.000000 0.000000
# 3 -0.000355 -0.002145 0.015029 0.000000 0.000000 0.000000
# 4 0.000000 0.000000 0.000000 0.026583 0.000000 0.000000
# 5 0.000000 0.000000 0.000000 0.000000 0.074588 0.000000
# 6 0.000000 0.000000 0.000000 0.000000 0.000000 0.044597
#
#
# Mechanical properties :
#
#
# Convention : Reuss Voigt Hill
#
# Bulk Modulus (GPa) = 60.11480 92.35716 76.23598
# Shear Modulus (GPa) = 26.32317 37.97671 32.14994
#
# Velocity S-wave (km/s) = 3.14537 3.77800 3.47611
# Velocity P-wave (km/s) = 5.98205 7.33095 6.69058
#
# Compressibility (1/GPa) = 0.01663484
#
# Stress axis : x y z
#
# Youngs Moduli (GPa) = 181.92279 140.69072 66.53703
#
# Poissons Ratio (x) = 0.42207 0.02360
# Poissons Ratio (y) = 0.54577 0.14271
# Poissons Ratio (z) = 0.06451 0.30176
#
# Static dielectric constant tensor:
#      x y z
#    x 2.066380 0.000000 0.000000 
#    y 0.000000 2.078300 0.000000 
#    z 0.000000 0.000000 2.225070 
# 
# From -- ./inp_files/35749.got.cif
#   From: 2010.05.17/outbox.cif.g08.bks.cpg/sg53_18_cif.got.tgz:35749.got - 2010.06.03 12:45:16.
