data_PCOD9414182
_publ_section_title
;
Structure prediction by ZEFSAII (Michael W. Deem and Ramdas Pophale) SiO2 
 PCOD9414182
Probable space group: P M N A
;
_chemical_formula_sum "Si O2"
_cell_formula_units_Z 64
_cell_length_a 8.828801
_cell_length_b 17.576232
_cell_length_c 26.361804
_cell_angle_alpha 90.000000
_cell_angle_beta 90.000000
_cell_angle_gamma 90.000000
_cell_volume 4090.747100
_symmetry_space_group_name_H-M "P M N A"
_symmetry_group_IT_number 53
_symmetry_cell_setting 'orthorhombic'
loop_
_space_group_symop_operation_xyz
x,y,z
1/2-x,-y,1/2+z
x,-y,-z
1/2-x,y,1/2-z
-x,-y,-z
1/2+x,y,1/2-z
-x,y,z
1/2+x,-y,1/2+z
loop_
_atom_site_type_symbol
_atom_site_label
_atom_site_fract_x
_atom_site_fract_y
_atom_site_fract_z
Si Si1 0.817488 0.585777 0.695442
Si Si2 0.681365 0.591593 0.195232
Si Si3 0.317385 0.589350 0.003671
Si Si4 0.824679 0.003693 0.061663
Si Si5 0.684224 0.320565 0.098073
Si Si6 0.183121 0.162464 0.944242
Si Si7 0.680971 0.160845 0.056866
Si Si8 0.181382 0.676388 0.099820
O O1 0.750000 0.606586 0.750000
O O2 0.778765 0.497254 0.685017
O O3 0.763474 0.638678 0.649366
O O4 0.000000 0.590249 0.698213
O O5 0.750000 0.611330 0.250000
O O6 0.500000 0.597192 0.196814
O O7 0.746404 0.643145 0.150619
O O8 0.500000 0.596741 0.009007
O O9 0.240352 0.628036 0.051914
O O10 0.282178 0.500000 0.000000
O O11 0.271112 0.632069 0.951971
O O12 0.734516 0.078813 0.076747
O O13 0.000000 0.012978 0.076363
O O14 0.769106 0.919922 0.077607
O O15 0.819476 0.000000 0.000000
O O16 0.500000 0.322251 0.099203
O O17 0.730503 0.233098 0.090264
O O18 0.222876 0.235654 0.911067
O O19 0.000000 0.159384 0.949592
O O20 0.251993 0.171548 0.000358
O O21 0.500000 0.161625 0.053090
O O22 0.000000 0.671254 0.102631
#
# Coordination Sequence:
#
# PCOD9414182 Si02
#       8
#     8   8   8   8   8   8   8   8
#     4   9  18  34  52  69  90 120 158 198 237 277
#     4  10  20  35  54  72  93 123 161 202 242 282
#     4  10  19  32  48  65  91 130 165 189 230 290
#     4   8  15  28  43  59  87 125 157 184 227 279
#     4   9  17  29  45  67  95 124 153 190 235 279
#     4   9  18  31  44  62  93 129 156 187 231 281
#     4  10  17  26  43  67  93 121 156 194 230 274
#     4  11  21  32  48  71  98 125 158 198 240 281
#
# _framework density 15.645065000000001
#
# number of rings (size 3 to 8) (size 9 to 14) (size 15 to 20)
#    0.000    2.500    1.250    2.625    0.000    5.500 
#    0.000    1.875    0.000    0.000    0.000    0.875 
#    0.000    4.000    0.000    0.000    0.000    0.000 
#
# Total GULP energy -356751.599248 kJ/mol
# GULP energy per Si atom -5574.243738 kJ/mol
# Density = 1.560946 g / cm^3
# Si number density = 15.645065 Si / 1000 Ang^3
#
#
#
# Elastic Constant Matrix: (Units=GPa)
#
#
# Indices 1 2 3 4 5 6 
#
# 1 24.1728 42.3318 31.6661 0.0000 0.0000 0.0000
# 2 42.3318 156.4530 86.6292 0.0000 0.0000 0.0000
# 3 31.6661 86.6292 110.0989 0.0000 0.0000 0.0000
# 4 0.0000 0.0000 0.0000 17.3539 0.0000 0.0000
# 5 0.0000 0.0000 0.0000 0.0000 20.9387 0.0000
# 6 0.0000 0.0000 0.0000 0.0000 0.0000 2.3787
#
#
#
# Elastic Compliance Matrix: (Units=1/GPa)
#
#
# Indices 1 2 3 4 5 6 
#
# 1 0.085987 -0.016961 -0.011385 0.000000 0.000000 0.000000
# 2 -0.016961 0.014672 -0.006666 0.000000 0.000000 0.000000
# 3 -0.011385 -0.006666 0.017602 0.000000 0.000000 0.000000
# 4 0.000000 0.000000 0.000000 0.057624 0.000000 0.000000
# 5 0.000000 0.000000 0.000000 0.000000 0.047758 0.000000
# 6 0.000000 0.000000 0.000000 0.000000 0.000000 0.420402
#
#
# Mechanical properties :
#
#
# Convention : Reuss Voigt Hill
#
# Bulk Modulus (GPa) = 20.73163 67.99767 44.36465
# Shear Modulus (GPa) = 6.84791 16.80741 11.82766
#
# Velocity S-wave (km/s) = 2.09441 3.28120 2.75253
# Velocity P-wave (km/s) = 4.37364 7.61000 6.20648
#
# Compressibility (1/GPa) = 0.04823547
#
# Stress axis : x y z
#
# Youngs Moduli (GPa) = 11.62972 68.15692 56.81054
#
# Poissons Ratio (x) = 1.15604 0.64680
# Poissons Ratio (y) = 0.19726 0.37870
# Poissons Ratio (z) = 0.13241 0.45434
#
# Static dielectric constant tensor:
#      x y z
#    x 1.529670 0.000000 0.000000 
#    y 0.000000 1.549200 0.000000 
#    z 0.000000 0.000000 1.485700 
# 
# From -- ./inp_files/34536.got.cif
#   From: 2010.05.17/outbox.cif.g08.bks.cpg/sg53_18_cif.got.tgz:34536.got - 2010.06.03 12:45:16.
