data_PCOD9414489
_publ_section_title
;
Structure prediction by ZEFSAII (Michael W. Deem and Ramdas Pophale) SiO2 
 PCOD9414489
Probable space group: P M N A
;
_chemical_formula_sum "Si O2"
_cell_formula_units_Z 64
_cell_length_a 7.941544
_cell_length_b 17.837345
_cell_length_c 26.438777
_cell_angle_alpha 90.000000
_cell_angle_beta 90.000000
_cell_angle_gamma 90.000000
_cell_volume 3745.212985
_symmetry_space_group_name_H-M "P M N A"
_symmetry_group_IT_number 53
_symmetry_cell_setting 'orthorhombic'
loop_
_space_group_symop_operation_xyz
x,y,z
1/2-x,-y,1/2+z
x,-y,-z
1/2-x,y,1/2-z
-x,-y,-z
1/2+x,y,1/2-z
-x,y,z
1/2+x,-y,1/2+z
loop_
_atom_site_type_symbol
_atom_site_label
_atom_site_fract_x
_atom_site_fract_y
_atom_site_fract_z
Si Si1 0.796972 0.585517 0.693131
Si Si2 0.299451 0.585418 0.193339
Si Si3 0.201638 0.584751 0.003043
Si Si4 0.803652 0.001392 0.061519
Si Si5 0.700777 0.323481 0.096419
Si Si6 0.206518 0.161610 0.940189
Si Si7 0.796479 0.164278 0.057785
Si Si8 0.201717 0.681257 0.097747
O O1 0.750000 0.608657 0.750000
O O2 0.734498 0.499902 0.685200
O O3 0.735240 0.639285 0.648388
O O4 0.000000 0.583805 0.690776
O O5 0.250000 0.608187 0.250000
O O6 0.500000 0.582441 0.190425
O O7 0.238212 0.641298 0.150347
O O8 0.268452 0.630553 0.051367
O O9 0.000000 0.579297 0.009560
O O10 0.269255 0.500000 0.000000
O O11 0.233310 0.630482 0.951871
O O12 0.731718 0.082676 0.075894
O O13 0.000000 0.001752 0.077122
O O14 0.731527 0.920603 0.076916
O O15 0.801703 0.000000 0.000000
O O16 0.500000 0.330346 0.095936
O O17 0.745057 0.236475 0.089355
O O18 0.263097 0.233421 0.908489
O O19 0.000000 0.158287 0.939604
O O20 0.254976 0.174389 0.998959
O O21 0.000000 0.160751 0.057406
O O22 0.000000 0.685032 0.091785
#
# Coordination Sequence:
#
# PCOD9414489 Si02
#       8
#     8   8   8   8   8   8   8   8
#     4   9  20  36  51  67  87 116 155 198 236 274
#     4  10  20  35  52  68  88 116 155 197 237 276
#     4  10  20  32  46  66  93 126 161 190 221 270
#     4   7  11  20  40  65  87 117 155 192 224 257
#     4  11  21  31  45  68  98 125 151 187 236 281
#     4   8  13  24  42  66  94 121 154 193 225 261
#     4   9  15  27  45  66  92 123 159 190 221 268
#     4  10  18  29  46  69  96 123 153 190 229 269
#
# _framework density 17.088481999999999
#
# number of rings (size 3 to 8) (size 9 to 14) (size 15 to 20)
#    0.000    2.750    1.250    3.000    0.000    2.250 
#    0.000    0.000    0.000    4.125    0.000    0.875 
#    0.000    2.000    0.000    0.000    0.000    0.000 
#
# Total GULP energy -356607.643231 kJ/mol
# GULP energy per Si atom -5571.994425 kJ/mol
# Density = 1.704959 g / cm^3
# Si number density = 17.088482 Si / 1000 Ang^3
#
#
#
# Elastic Constant Matrix: (Units=GPa)
#
#
# Indices 1 2 3 4 5 6 
#
# 1 6.6865 1.6108 -7.2415 0.0000 0.0000 0.0000
# 2 1.6108 173.2226 82.8907 0.0000 0.0000 0.0000
# 3 -7.2415 82.8907 97.4563 0.0000 0.0000 0.0000
# 4 0.0000 0.0000 0.0000 13.6241 0.0000 0.0000
# 5 0.0000 0.0000 0.0000 0.0000 15.2223 0.0000
# 6 0.0000 0.0000 0.0000 0.0000 0.0000 12.3541
#
#
#
# Elastic Compliance Matrix: (Units=1/GPa)
#
#
# Indices 1 2 3 4 5 6 
#
# 1 0.179832 -0.013603 0.024932 0.000000 0.000000 0.000000
# 2 -0.013603 0.010764 -0.010166 0.000000 0.000000 0.000000
# 3 0.024932 -0.010166 0.020760 0.000000 0.000000 0.000000
# 4 0.000000 0.000000 0.000000 0.073399 0.000000 0.000000
# 5 0.000000 0.000000 0.000000 0.000000 0.065693 0.000000
# 6 0.000000 0.000000 0.000000 0.000000 0.000000 0.080945
#
#
# Mechanical properties :
#
#
# Convention : Reuss Voigt Hill
#
# Bulk Modulus (GPa) = 4.67982 47.98729 26.33356
# Shear Modulus (GPa) = 9.99411 21.58048 15.78730
#
# Velocity S-wave (km/s) = 2.42098 3.55754 3.04280
# Velocity P-wave (km/s) = 3.24952 6.70950 5.27147
#
# Compressibility (1/GPa) = 0.21368323
#
# Stress axis : x y z
#
# Youngs Moduli (GPa) = 5.56074 92.90148 48.16896
#
# Poissons Ratio (x) = 1.26373 -1.20096
# Poissons Ratio (y) = 0.07564 0.48969
# Poissons Ratio (z) = -0.13864 0.94444
#
# Static dielectric constant tensor:
#      x y z
#    x 1.616230 0.000000 0.000000 
#    y 0.000000 1.627510 0.000000 
#    z 0.000000 0.000000 1.529730 
# 
# From -- ./inp_files/34421.got.cif
#   From: 2010.05.17/outbox.cif.g08.bks.cpg/sg53_18_cif.got.tgz:34421.got - 2010.06.03 12:45:16.
