data_PCOD9414789
_publ_section_title
;
Structure prediction by ZEFSAII (Michael W. Deem and Ramdas Pophale) SiO2 
 PCOD9414789
Probable space group: P M N A
;
_chemical_formula_sum "Si O2"
_cell_formula_units_Z 64
_cell_length_a 17.633709
_cell_length_b 12.858830
_cell_length_c 14.357326
_cell_angle_alpha 90.000000
_cell_angle_beta 90.000000
_cell_angle_gamma 90.000000
_cell_volume 3255.507394
_symmetry_space_group_name_H-M "P M N A"
_symmetry_group_IT_number 53
_symmetry_cell_setting 'orthorhombic'
loop_
_space_group_symop_operation_xyz
x,y,z
1/2-x,-y,1/2+z
x,-y,-z
1/2-x,y,1/2-z
-x,-y,-z
1/2+x,y,1/2-z
-x,y,z
1/2+x,-y,1/2+z
loop_
_atom_site_type_symbol
_atom_site_label
_atom_site_fract_x
_atom_site_fract_y
_atom_site_fract_z
Si Si1 0.361827 0.613384 0.498711
Si Si2 0.083299 0.781401 0.121521
Si Si3 0.086168 0.011591 0.687949
Si Si4 0.587272 0.740283 0.171502
Si Si5 0.133553 0.992156 0.100655
Si Si6 0.779566 0.586496 0.357553
Si Si7 0.223604 0.874595 0.641214
Si Si8 0.739905 0.644253 0.859529
O O1 0.398035 0.500000 0.500000
O O2 0.413592 0.705249 0.464528
O O3 0.290648 0.610340 0.426202
O O4 0.323278 0.634627 0.596678
O O5 0.090686 0.718590 0.217111
O O6 0.147460 0.868532 0.112820
O O7 0.000000 0.833274 0.127201
O O8 0.101102 0.134680 0.669498
O O9 0.094920 0.985658 0.799102
O O10 0.000000 0.990127 0.660248
O O11 0.148264 0.942927 0.636274
O O12 0.500000 0.721648 0.140520
O O13 0.651918 0.667548 0.128402
O O14 0.206782 0.065625 0.092964
O O15 0.093094 0.000000 0.000000
O O16 0.750000 0.592075 0.250000
O O17 0.801163 0.465692 0.379066
O O18 0.250000 0.871945 0.750000
O O19 0.209583 0.756455 0.608628
O O20 0.750000 0.649054 0.750000
#
# Coordination Sequence:
#
# PCOD9414789 Si02
#       8
#     8   8   8   8   8   8   8   8
#     4  10  20  33  53  79 105 141 179 219 266 312
#     4  10  20  32  49  79 116 142 172 220 270 330
#     4   9  19  33  51  76 107 139 171 217 272 320
#     4   9  18  32  51  79 111 137 169 221 277 320
#     4  10  19  31  51  78 104 140 176 217 262 314
#     4  10  18  31  56  79 102 136 176 219 262 320
#     4   9  18  33  52  71 100 141 179 215 255 308
#     4   9  19  35  52  74 104 137 182 224 255 301
#
# _framework density 19.658994
#
# number of rings (size 3 to 8) (size 9 to 14) (size 15 to 20)
#    0.000    2.500    1.250    1.875    1.750    1.750 
#    0.000    0.625    0.000    4.500    0.000    0.000 
#    0.000    0.000    0.000    0.000    0.000    0.000 
#
# Total GULP energy -356312.688004 kJ/mol
# GULP energy per Si atom -5567.385750 kJ/mol
# Density = 1.961425 g / cm^3
# Si number density = 19.658994 Si / 1000 Ang^3
#
#
#
# Elastic Constant Matrix: (Units=GPa)
#
#
# Indices 1 2 3 4 5 6 
#
# 1 83.3066 59.7610 -1.5971 0.0000 0.0000 0.0000
# 2 59.7610 98.3200 -0.1951 0.0000 0.0000 0.0000
# 3 -1.5971 -0.1951 30.5233 0.0000 0.0000 0.0000
# 4 0.0000 0.0000 0.0000 24.7571 0.0000 0.0000
# 5 0.0000 0.0000 0.0000 0.0000 11.9332 0.0000
# 6 0.0000 0.0000 0.0000 0.0000 0.0000 15.9152
#
#
#
# Elastic Compliance Matrix: (Units=1/GPa)
#
#
# Indices 1 2 3 4 5 6 
#
# 1 0.021317 -0.012955 0.001033 0.000000 0.000000 0.000000
# 2 -0.012955 0.018044 -0.000563 0.000000 0.000000 0.000000
# 3 0.001033 -0.000563 0.032812 0.000000 0.000000 0.000000
# 4 0.000000 0.000000 0.000000 0.040392 0.000000 0.000000
# 5 0.000000 0.000000 0.000000 0.000000 0.083800 0.000000
# 6 0.000000 0.000000 0.000000 0.000000 0.000000 0.062833
#
#
# Mechanical properties :
#
#
# Convention : Reuss Voigt Hill
#
# Bulk Modulus (GPa) = 21.18482 36.45418 28.81950
# Shear Modulus (GPa) = 16.67207 20.79983 18.73595
#
# Velocity S-wave (km/s) = 2.91531 3.25627 3.09050
# Velocity P-wave (km/s) = 4.70442 5.72025 5.23702
#
# Compressibility (1/GPa) = 0.04720360
#
# Stress axis : x y z
#
# Youngs Moduli (GPa) = 46.91104 55.42012 30.47642
#
# Poissons Ratio (x) = 0.71796 -0.03147
# Poissons Ratio (y) = 0.60773 0.01714
# Poissons Ratio (z) = -0.04844 0.03118
#
# Static dielectric constant tensor:
#      x y z
#    x 1.701120 0.000000 0.000000 
#    y 0.000000 1.742040 0.000000 
#    z 0.000000 0.000000 1.736800 
# 
# From -- ./inp_files/29112.got.cif
#   From: 2010.05.17/outbox.cif.g08.bks.cpg/sg53_15_cif.got.tgz:29112.got - 2010.06.03 12:45:16.
