data_PCOD9414238
_publ_section_title
;
Structure prediction by ZEFSAII (Michael W. Deem and Ramdas Pophale) SiO2 
 PCOD9414238
Probable space group: P M N A
;
_chemical_formula_sum "Si O2"
_cell_formula_units_Z 48
_cell_length_a 13.993749
_cell_length_b 12.370444
_cell_length_c 11.503749
_cell_angle_alpha 90.000000
_cell_angle_beta 90.000000
_cell_angle_gamma 90.000000
_cell_volume 1991.401201
_symmetry_space_group_name_H-M "P M N A"
_symmetry_group_IT_number 53
_symmetry_cell_setting 'orthorhombic'
loop_
_space_group_symop_operation_xyz
x,y,z
1/2-x,-y,1/2+z
x,-y,-z
1/2-x,y,1/2-z
-x,-y,-z
1/2+x,y,1/2-z
-x,y,z
1/2+x,-y,1/2+z
loop_
_atom_site_type_symbol
_atom_site_label
_atom_site_fract_x
_atom_site_fract_y
_atom_site_fract_z
Si Si1 0.395339 0.684150 0.939386
Si Si2 0.637448 0.154132 0.265028
Si Si3 0.323992 0.332242 0.446251
Si Si4 0.390931 0.286093 0.687338
Si Si5 0.611403 0.494458 0.254447
Si Si6 0.108805 0.941408 0.112641
O O1 0.500000 0.683268 0.001402
O O2 0.400153 0.782808 0.846424
O O3 0.285791 0.691937 0.983702
O O4 0.389810 0.575417 0.862345
O O5 0.750000 0.145873 0.250000
O O6 0.627641 0.232481 0.376432
O O7 0.602754 0.034739 0.291497
O O8 0.383492 0.345313 0.562554
O O9 0.330066 0.429385 0.352988
O O10 0.500000 0.264017 0.722431
O O11 0.355585 0.382886 0.768913
O O12 0.346288 0.168252 0.663355
O O13 0.500000 0.497179 0.292216
O O14 0.000000 0.912251 0.075852
O O15 0.155391 0.000000 0.000000
#
# Coordination Sequence:
#
# PCOD9414238 Si02
#       6
#     8   8   8   8   8   8
#     4   9  18  31  49  69  92 123 160 200 232 269
#     4   9  17  29  45  68  96 125 158 195 237 277
#     4  10  17  28  46  70  95 121 155 195 237 279
#     4  10  19  29  46  74 101 125 149 186 243 292
#     4   9  17  29  45  67  95 121 149 187 235 286
#     4  10  18  28  45  70 101 128 150 187 241 289
#
# _framework density 24.103632000000001
#
# number of rings (size 3 to 8) (size 9 to 14) (size 15 to 20)
#    0.000    2.500    1.667    3.000    0.000    2.667 
#    0.000    1.667    0.000    2.000    0.000   10.500 
#    0.000    0.000    0.000    0.000    0.000    0.000 
#
# Total GULP energy -267660.960319 kJ/mol
# GULP energy per Si atom -5576.270007 kJ/mol
# Density = 2.404877 g / cm^3
# Si number density = 24.103632 Si / 1000 Ang^3
#
#
#
# Elastic Constant Matrix: (Units=GPa)
#
#
# Indices 1 2 3 4 5 6 
#
# 1 133.4981 -11.1394 3.4543 0.0000 0.0000 0.0000
# 2 -11.1394 178.9827 13.6695 0.0000 0.0000 0.0000
# 3 3.4543 13.6695 47.2142 0.0000 0.0000 0.0000
# 4 0.0000 0.0000 0.0000 10.3007 0.0000 0.0000
# 5 0.0000 0.0000 0.0000 0.0000 22.4714 0.0000
# 6 0.0000 0.0000 0.0000 0.0000 0.0000 16.0136
#
#
#
# Elastic Compliance Matrix: (Units=1/GPa)
#
#
# Indices 1 2 3 4 5 6 
#
# 1 0.007553 0.000524 -0.000704 0.000000 0.000000 0.000000
# 2 0.000524 0.005750 -0.001703 0.000000 0.000000 0.000000
# 3 -0.000704 -0.001703 0.021725 0.000000 0.000000 0.000000
# 4 0.000000 0.000000 0.000000 0.097081 0.000000 0.000000
# 5 0.000000 0.000000 0.000000 0.000000 0.044501 0.000000
# 6 0.000000 0.000000 0.000000 0.000000 0.000000 0.062447
#
#
# Mechanical properties :
#
#
# Convention : Reuss Voigt Hill
#
# Bulk Modulus (GPa) = 31.98946 41.29598 36.64272
# Shear Modulus (GPa) = 19.74390 33.33784 26.54087
#
# Velocity S-wave (km/s) = 2.86514 3.72305 3.32191
# Velocity P-wave (km/s) = 4.92401 5.97087 5.47253
#
# Compressibility (1/GPa) = 0.03126029
#
# Stress axis : x y z
#
# Youngs Moduli (GPa) = 132.40336 173.91906 46.03069
#
# Poissons Ratio (x) = -0.09111 0.03242
# Poissons Ratio (y) = -0.06936 0.07839
# Poissons Ratio (z) = 0.09324 0.29619
#
# Static dielectric constant tensor:
#      x y z
#    x 1.998060 0.000000 0.000000 
#    y 0.000000 1.975430 0.000000 
#    z 0.000000 0.000000 1.936790 
# 
# From -- ./inp_files/22641.got.cif
#   From: 2010.05.17/outbox.cif.g08.bks.cpg/sg53_12_cif.got.tgz:22641.got - 2010.06.03 12:45:16.
