data_PCOD9414714
_publ_section_title
;
Structure prediction by ZEFSAII (Michael W. Deem and Ramdas Pophale) SiO2 
 PCOD9414714
Probable space group: P M N A
;
_chemical_formula_sum "Si O2"
_cell_formula_units_Z 64
_cell_length_a 8.666930
_cell_length_b 21.237745
_cell_length_c 21.071530
_cell_angle_alpha 90.000000
_cell_angle_beta 90.000000
_cell_angle_gamma 90.000000
_cell_volume 3878.553279
_symmetry_space_group_name_H-M "P M N A"
_symmetry_group_IT_number 53
_symmetry_cell_setting 'orthorhombic'
loop_
_space_group_symop_operation_xyz
x,y,z
1/2-x,-y,1/2+z
x,-y,-z
1/2-x,y,1/2-z
-x,-y,-z
1/2+x,y,1/2-z
-x,y,z
1/2+x,-y,1/2+z
loop_
_atom_site_type_symbol
_atom_site_label
_atom_site_fract_x
_atom_site_fract_y
_atom_site_fract_z
Si Si1 0.314985 0.350099 0.147554
Si Si2 0.686694 0.940788 0.542999
Si Si3 0.685118 0.486490 0.184140
Si Si4 0.320757 0.073712 0.183874
Si Si5 0.683868 0.328277 0.999272
Si Si6 0.684490 0.453148 0.557473
Si Si7 0.319980 0.196712 0.485479
Si Si8 0.681344 0.784942 0.850652
O O1 0.500000 0.356122 0.150698
O O2 0.252166 0.414589 0.175755
O O3 0.274456 0.343215 0.073032
O O4 0.276660 0.282653 0.178300
O O5 0.500000 0.938659 0.546009
O O6 0.746058 0.944102 0.615787
O O7 0.737526 0.875402 0.508702
O O8 0.733147 0.000000 0.500000
O O9 0.750000 0.512245 0.250000
O O10 0.500000 0.486308 0.186258
O O11 0.740105 0.523656 0.122435
O O12 0.250000 0.049163 0.250000
O O13 0.500000 0.056659 0.181292
O O14 0.309939 0.150127 0.186405
O O15 0.500000 0.333348 0.993599
O O16 0.734955 0.256724 0.984241
O O17 0.764263 0.382441 0.958816
O O18 0.733672 0.500000 0.500000
O O19 0.500000 0.456777 0.562330
O O20 0.500000 0.199527 0.501842
O O21 0.292709 0.206923 0.410461
O O22 0.500000 0.779810 0.872376
#
# Coordination Sequence:
#
# PCOD9414714 Si02
#       8
#     8   8   8   8   8   8   8   8
#     4   8  15  28  46  65  90 126 165 200 239 288
#     4   9  18  33  52  74 103 138 172 208 252 301
#     4  11  22  36  50  68  97 132 169 208 258 310
#     4  10  19  30  46  68  98 133 173 213 248 292
#     4  10  18  31  51  73  98 130 166 205 252 301
#     4  11  22  35  53  77 100 124 166 217 259 301
#     4   9  16  27  45  72 101 127 161 204 248 291
#     4   8  15  28  43  62  90 128 168 201 238 285
#
# _framework density 16.500999
#
# number of rings (size 3 to 8) (size 9 to 14) (size 15 to 20)
#    0.000    2.500    1.250    2.625    0.000    2.250 
#    0.000    0.625    0.000    0.000    0.000    0.875 
#    0.000    2.000    0.000    0.000    0.000    0.000 
#
# Total GULP energy -356318.525424 kJ/mol
# GULP energy per Si atom -5567.476960 kJ/mol
# Density = 1.646344 g / cm^3
# Si number density = 16.500999 Si / 1000 Ang^3
#
#
#
# Elastic Constant Matrix: (Units=GPa)
#
#
# Indices 1 2 3 4 5 6 
#
# 1 40.1788 26.5953 33.4929 0.0000 0.0000 0.0000
# 2 26.5953 100.6430 51.6122 0.0000 0.0000 0.0000
# 3 33.4929 51.6122 94.4825 0.0000 0.0000 0.0000
# 4 0.0000 0.0000 0.0000 6.7938 0.0000 0.0000
# 5 0.0000 0.0000 0.0000 0.0000 18.2636 0.0000
# 6 0.0000 0.0000 0.0000 0.0000 0.0000 18.9899
#
#
#
# Elastic Compliance Matrix: (Units=1/GPa)
#
#
# Indices 1 2 3 4 5 6 
#
# 1 0.036556 -0.004188 -0.010671 0.000000 0.000000 0.000000
# 2 -0.004188 0.014282 -0.006318 0.000000 0.000000 0.000000
# 3 -0.010671 -0.006318 0.017818 0.000000 0.000000 0.000000
# 4 0.000000 0.000000 0.000000 0.147192 0.000000 0.000000
# 5 0.000000 0.000000 0.000000 0.000000 0.054754 0.000000
# 6 0.000000 0.000000 0.000000 0.000000 0.000000 0.052660
#
#
# Mechanical properties :
#
#
# Convention : Reuss Voigt Hill
#
# Bulk Modulus (GPa) = 38.01738 50.96724 44.49231
# Shear Modulus (GPa) = 13.35532 17.04972 15.20252
#
# Velocity S-wave (km/s) = 2.84802 3.21791 3.03860
# Velocity P-wave (km/s) = 5.82275 6.69037 6.27158
#
# Compressibility (1/GPa) = 0.02630376
#
# Stress axis : x y z
#
# Youngs Moduli (GPa) = 27.35518 70.01580 56.12367
#
# Poissons Ratio (x) = 0.29320 0.59890
# Poissons Ratio (y) = 0.11455 0.35456
# Poissons Ratio (z) = 0.29191 0.44233
#
# Static dielectric constant tensor:
#      x y z
#    x 1.560220 0.000000 0.000000 
#    y 0.000000 1.592150 0.000000 
#    z 0.000000 0.000000 1.577910 
# 
# From -- ./inp_files/31355.got.cif
#   From: 2010.05.17/outbox.cif.g08.bks.cpg/sg53_16_cif.got.tgz:31355.got - 2010.06.03 12:45:16.
