data_PCOD9414144
_publ_section_title
;
Structure prediction by ZEFSAII (Michael W. Deem and Ramdas Pophale) SiO2 
 PCOD9414144
Probable space group: P M N A
;
_chemical_formula_sum "Si O2"
_cell_formula_units_Z 48
_cell_length_a 29.541470
_cell_length_b 9.203522
_cell_length_c 7.571561
_cell_angle_alpha 90.000000
_cell_angle_beta 90.000000
_cell_angle_gamma 90.000000
_cell_volume 2058.598171
_symmetry_space_group_name_H-M "P M N A"
_symmetry_group_IT_number 53
_symmetry_cell_setting 'orthorhombic'
loop_
_space_group_symop_operation_xyz
x,y,z
1/2-x,-y,1/2+z
x,-y,-z
1/2-x,y,1/2-z
-x,-y,-z
1/2+x,y,1/2-z
-x,y,z
1/2+x,-y,1/2+z
loop_
_atom_site_type_symbol
_atom_site_label
_atom_site_fract_x
_atom_site_fract_y
_atom_site_fract_z
Si Si1 0.883955 0.089309 0.816720
Si Si2 0.825194 0.326903 0.980105
Si Si3 0.054454 0.364920 0.257498
Si Si4 0.947224 0.681560 0.165834
Si Si5 0.359775 0.197015 0.148886
Si Si6 0.227798 0.663521 0.551306
O O1 0.930983 0.162933 0.767951
O O2 0.865737 0.973061 0.681399
O O3 0.854682 0.235093 0.844130
O O4 0.887324 0.000000 0.000000
O O5 0.841408 0.262954 0.166048
O O6 0.772588 0.295623 0.942502
O O7 0.830974 0.500000 0.000000
O O8 0.069854 0.534018 0.258716
O O9 0.090535 0.270666 0.368867
O O10 0.000000 0.350299 0.299338
O O11 0.060058 0.324170 0.048057
O O12 0.000000 0.668634 0.189874
O O13 0.316746 0.239789 0.030480
O O14 0.214706 0.500000 0.500000
O O15 0.250000 0.662447 0.750000
#
# Coordination Sequence:
#
# PCOD9414144 Si02
#       6
#     8   8   8   8   8   8
#     4  10  17  24  41  69  99 136 165 210 276 321
#     4   9  16  29  49  70  96 134 181 216 260 324
#     4   9  16  26  42  66  98 136 179 224 265 317
#     4   9  16  25  39  65 101 140 177 217 268 323
#     4  10  18  28  46  73 103 135 170 220 278 328
#     4   9  19  35  57  80 104 139 184 232 273 329
#
# _framework density 23.316835999999999
#
# number of rings (size 3 to 8) (size 9 to 14) (size 15 to 20)
#    0.000    2.667    3.333    2.000    0.000    1.000 
#    0.000    0.000    0.000   88.500    0.000    0.000 
#    0.000    2.667    0.000    0.000    0.000    0.000 
#
# Total GULP energy -267763.450262 kJ/mol
# GULP energy per Si atom -5578.405214 kJ/mol
# Density = 2.326377 g / cm^3
# Si number density = 23.316836 Si / 1000 Ang^3
#
#
#
# Elastic Constant Matrix: (Units=GPa)
#
#
# Indices 1 2 3 4 5 6 
#
# 1 99.0409 52.2906 -9.2810 0.0000 0.0000 0.0000
# 2 52.2906 133.6998 10.6492 0.0000 0.0000 0.0000
# 3 -9.2810 10.6492 54.7599 0.0000 0.0000 0.0000
# 4 0.0000 0.0000 0.0000 12.6338 0.0000 0.0000
# 5 0.0000 0.0000 0.0000 0.0000 -0.2679 0.0000
# 6 0.0000 0.0000 0.0000 0.0000 0.0000 116.7159
#
#
#
# Elastic Compliance Matrix: (Units=1/GPa)
#
#
# Indices 1 2 3 4 5 6 
#
# 1 0.013291 -0.005462 0.003315 0.000000 0.000000 0.000000
# 2 -0.005462 0.009842 -0.002840 0.000000 0.000000 0.000000
# 3 0.003315 -0.002840 0.019376 0.000000 0.000000 0.000000
# 4 0.000000 0.000000 0.000000 0.079153 0.000000 0.000000
# 5 0.000000 0.000000 0.000000 0.000000 -3.732762 0.000000
# 6 0.000000 0.000000 0.000000 0.000000 0.000000 0.008568
#
#
# Mechanical properties :
#
#
# Convention : Reuss Voigt Hill
#
# Bulk Modulus (GPa) = 30.73640 43.86869 37.30255
# Shear Modulus (GPa) = -1.39598 41.40582 20.00492
#
# Velocity S-wave (km/s) = -0.77460 4.21858 2.93227
# Velocity P-wave (km/s) = 3.52288 6.52561 5.24377
#
# Compressibility (1/GPa) = 0.03253471
#
# Stress axis : x y z
#
# Youngs Moduli (GPa) = 75.23634 101.60539 51.61122
#
# Poissons Ratio (x) = 0.55501 -0.17109
# Poissons Ratio (y) = 0.41097 0.14656
# Poissons Ratio (z) = -0.24941 0.28854
#
# Static dielectric constant tensor:
#      x y z
#    x 1.975800 0.000000 0.000000 
#    y 0.000000 1.865590 0.000000 
#    z 0.000000 0.000000 2.027740 
# 
# From -- ./inp_files/18961.got.cif
#   From: 2010.05.17/outbox.cif.g08.bks.cpg/sg53_10_cif.got.tgz:18961.got - 2010.06.03 12:45:16.
