data_PCOD9414841
_publ_section_title
;
Structure prediction by ZEFSAII (Michael W. Deem and Ramdas Pophale) SiO2 
 PCOD9414841
Probable space group: P M N A
;
_chemical_formula_sum "Si O2"
_cell_formula_units_Z 64
_cell_length_a 17.346634
_cell_length_b 22.383096
_cell_length_c 9.557676
_cell_angle_alpha 90.000000
_cell_angle_beta 90.000000
_cell_angle_gamma 90.000000
_cell_volume 3710.971994
_symmetry_space_group_name_H-M "P M N A"
_symmetry_group_IT_number 53
_symmetry_cell_setting 'orthorhombic'
loop_
_space_group_symop_operation_xyz
x,y,z
1/2-x,-y,1/2+z
x,-y,-z
1/2-x,y,1/2-z
-x,-y,-z
1/2+x,y,1/2-z
-x,y,z
1/2+x,-y,1/2+z
loop_
_atom_site_type_symbol
_atom_site_label
_atom_site_fract_x
_atom_site_fract_y
_atom_site_fract_z
Si Si1 0.175653 0.251576 0.945816
Si Si2 0.091488 0.214782 0.447561
Si Si3 0.170736 0.325001 0.578026
Si Si4 0.407442 0.840663 0.242392
Si Si5 0.909785 0.641446 0.128279
Si Si6 0.092481 0.067433 0.971110
Si Si7 0.266812 0.560681 0.414930
Si Si8 0.827159 0.841796 0.817100
O O1 0.251403 0.286759 0.898022
O O2 0.141168 0.206679 0.831765
O O3 0.110082 0.301540 0.968485
O O4 0.195007 0.213407 0.082190
O O5 0.123457 0.281521 0.476195
O O6 0.112397 0.172684 0.581483
O O7 0.122457 0.184756 0.307845
O O8 0.000000 0.218153 0.442986
O O9 0.120340 0.337831 0.717152
O O10 0.205540 0.389096 0.532497
O O11 0.500000 0.829731 0.258122
O O12 0.391169 0.904261 0.317171
O O13 0.852648 0.588909 0.079778
O O14 0.000000 0.627608 0.130508
O O15 0.000000 0.068592 0.986774
O O16 0.128642 0.111328 0.085949
O O17 0.118886 0.000000 0.000000
O O18 0.260678 0.500000 0.500000
O O19 0.250000 0.551677 0.250000
O O20 0.750000 0.868230 0.750000
#
# Coordination Sequence:
#
# PCOD9414841 Si02
#       8
#     8   8   8   8   8   8   8   8
#     4  10  18  32  53  78 110 142 182 222 277 338
#     4  11  21  34  54  84 116 141 178 231 292 343
#     4  10  19  33  56  82 108 144 183 224 283 329
#     4   9  18  31  55  83 107 141 182 227 273 329
#     4  10  19  32  56  85 112 142 187 235 277 331
#     4   9  19  39  61  79 107 152 197 230 271 331
#     4   9  20  38  57  79 107 149 194 232 272 333
#     4  11  22  36  53  79 117 149 179 230 287 334
#
# _framework density 17.246155999999999
#
# number of rings (size 3 to 8) (size 9 to 14) (size 15 to 20)
#    0.000    2.125    2.500    2.250    0.000    1.750 
#    4.500    1.875    0.000   12.375    0.000    0.000 
#    0.000    0.000    0.000    0.000    0.000    0.000 
#
# Total GULP energy -356626.075375 kJ/mol
# GULP energy per Si atom -5572.282428 kJ/mol
# Density = 1.720690 g / cm^3
# Si number density = 17.246156 Si / 1000 Ang^3
#
#
#
# Elastic Constant Matrix: (Units=GPa)
#
#
# Indices 1 2 3 4 5 6 
#
# 1 59.1541 28.3764 15.6747 0.0000 0.0000 0.0000
# 2 28.3764 119.4345 37.9822 0.0000 0.0000 0.0000
# 3 15.6747 37.9822 69.6072 0.0000 0.0000 0.0000
# 4 0.0000 0.0000 0.0000 21.9227 0.0000 0.0000
# 5 0.0000 0.0000 0.0000 0.0000 22.4135 0.0000
# 6 0.0000 0.0000 0.0000 0.0000 0.0000 16.3336
#
#
#
# Elastic Compliance Matrix: (Units=1/GPa)
#
#
# Indices 1 2 3 4 5 6 
#
# 1 0.019364 -0.003889 -0.002239 0.000000 0.000000 0.000000
# 2 -0.003889 0.010912 -0.005078 0.000000 0.000000 0.000000
# 3 -0.002239 -0.005078 0.017642 0.000000 0.000000 0.000000
# 4 0.000000 0.000000 0.000000 0.045615 0.000000 0.000000
# 5 0.000000 0.000000 0.000000 0.000000 0.044616 0.000000
# 6 0.000000 0.000000 0.000000 0.000000 0.000000 0.061223
#
#
# Mechanical properties :
#
#
# Convention : Reuss Voigt Hill
#
# Bulk Modulus (GPa) = 39.20720 45.80693 42.50706
# Shear Modulus (GPa) = 21.71230 23.21147 22.46189
#
# Velocity S-wave (km/s) = 3.55204 3.67262 3.61283
# Velocity P-wave (km/s) = 6.29332 6.67851 6.48877
#
# Compressibility (1/GPa) = 0.02550552
#
# Stress axis : x y z
#
# Youngs Moduli (GPa) = 51.64338 91.64444 56.68441
#
# Poissons Ratio (x) = 0.35638 0.12689
# Poissons Ratio (y) = 0.20083 0.28787
# Poissons Ratio (z) = 0.11560 0.46541
#
# Static dielectric constant tensor:
#      x y z
#    x 1.603050 0.000000 0.000000 
#    y 0.000000 1.589940 0.000000 
#    z 0.000000 0.000000 1.603110 
# 
# From -- ./inp_files/10207.got.cif
#   From: 2010.05.17/outbox.cif.g08.bks.cpg/sg53_6_cif.got.tgz:10207.got - 2010.06.03 12:45:16.
