data_PCOD9414225
_publ_section_title
;
Structure prediction by ZEFSAII (Michael W. Deem and Ramdas Pophale) SiO2 
 PCOD9414225
Probable space group: P M N A
;
_chemical_formula_sum "Si O2"
_cell_formula_units_Z 56
_cell_length_a 15.126857
_cell_length_b 16.272472
_cell_length_c 12.073495
_cell_angle_alpha 90.000000
_cell_angle_beta 90.000000
_cell_angle_gamma 90.000000
_cell_volume 2971.907178
_symmetry_space_group_name_H-M "P M N A"
_symmetry_group_IT_number 53
_symmetry_cell_setting 'orthorhombic'
loop_
_space_group_symop_operation_xyz
x,y,z
1/2-x,-y,1/2+z
x,-y,-z
1/2-x,y,1/2-z
-x,-y,-z
1/2+x,y,1/2-z
-x,y,z
1/2+x,-y,1/2+z
loop_
_atom_site_type_symbol
_atom_site_label
_atom_site_fract_x
_atom_site_fract_y
_atom_site_fract_z
Si Si1 0.677460 0.618349 0.986718
Si Si2 0.098428 0.057238 0.390545
Si Si3 0.100216 0.506402 0.331699
Si Si4 0.323521 0.376641 0.658656
Si Si5 0.597661 0.788780 0.420273
Si Si6 0.795087 0.809036 0.506975
Si Si7 0.351164 0.102521 0.782626
O O1 0.609222 0.578993 0.075833
O O2 0.770132 0.601184 0.048247
O O3 0.673434 0.715918 0.973390
O O4 0.661384 0.566963 0.876034
O O5 0.171747 0.127567 0.399916
O O6 0.000000 0.093674 0.388692
O O7 0.106454 0.000000 0.500000
O O8 0.108858 0.987684 0.298316
O O9 0.131450 0.546839 0.217951
O O10 0.000000 0.478095 0.325987
O O11 0.250000 0.346112 0.750000
O O12 0.387889 0.302773 0.628195
O O13 0.500000 0.795595 0.473285
O O14 0.688472 0.807465 0.488600
O O15 0.601949 0.848279 0.314406
O O16 0.843140 0.842987 0.394911
O O17 0.250000 0.090028 0.750000
#
# Coordination Sequence:
#
# PCOD9414225 Si02
#       7
#     8   8   8   8   8   8   8
#     4   9  17  29  44  67  98 127 158 200 253 301
#     4   9  17  28  44  66  92 124 159 195 237 283
#     4  10  18  28  46  73  98 124 164 210 253 299
#     4   9  17  29  44  69 102 131 160 202 258 306
#     4  10  17  27  47  73  99 125 155 195 245 297
#     4   9  18  30  44  68  97 125 157 197 245 292
#     4   9  16  28  46  67  96 126 156 197 244 291
#
# _framework density 18.843119999999999
#
# number of rings (size 3 to 8) (size 9 to 14) (size 15 to 20)
#    0.000    2.714    0.000    4.714    0.000    1.714 
#    0.000    0.000    0.000   15.857    0.000  176.000 
#    0.000    0.000    0.000    0.000    0.000    0.000 
#
# Total GULP energy -311874.510910 kJ/mol
# GULP energy per Si atom -5569.187695 kJ/mol
# Density = 1.880023 g / cm^3
# Si number density = 18.843120 Si / 1000 Ang^3
#
#
#
# Elastic Constant Matrix: (Units=GPa)
#
#
# Indices 1 2 3 4 5 6 
#
# 1 104.0627 61.7879 21.4815 0.0000 0.0000 0.0000
# 2 61.7879 135.4556 44.2647 0.0000 0.0000 0.0000
# 3 21.4815 44.2647 30.8197 0.0000 0.0000 0.0000
# 4 0.0000 0.0000 0.0000 23.5426 0.0000 0.0000
# 5 0.0000 0.0000 0.0000 0.0000 0.5079 0.0000
# 6 0.0000 0.0000 0.0000 0.0000 0.0000 16.1874
#
#
#
# Elastic Compliance Matrix: (Units=1/GPa)
#
#
# Indices 1 2 3 4 5 6 
#
# 1 0.013197 -0.005679 -0.001041 0.000000 0.000000 0.000000
# 2 -0.005679 0.016356 -0.019533 0.000000 0.000000 0.000000
# 3 -0.001041 -0.019533 0.061227 0.000000 0.000000 0.000000
# 4 0.000000 0.000000 0.000000 0.042476 0.000000 0.000000
# 5 0.000000 0.000000 0.000000 0.000000 1.968736 0.000000
# 6 0.000000 0.000000 0.000000 0.000000 0.000000 0.061776
#
#
# Mechanical properties :
#
#
# Convention : Reuss Voigt Hill
#
# Bulk Modulus (GPa) = 26.12837 58.37847 42.25342
# Shear Modulus (GPa) = 2.24312 17.56785 9.90549
#
# Velocity S-wave (km/s) = 1.09225 3.05671 2.29526
# Velocity P-wave (km/s) = 3.93536 6.59595 5.43109
#
# Compressibility (1/GPa) = 0.03827257
#
# Stress axis : x y z
#
# Youngs Moduli (GPa) = 75.77652 61.13869 16.33273
#
# Poissons Ratio (x) = 0.34723 0.01700
# Poissons Ratio (y) = 0.43037 0.31903
# Poissons Ratio (z) = 0.07889 1.19423
#
# Static dielectric constant tensor:
#      x y z
#    x 1.690020 0.000000 0.000000 
#    y 0.000000 1.654980 0.000000 
#    z 0.000000 0.000000 1.677230 
# 
# From -- ./inp_files/22948.got.cif
#   From: 2010.05.17/outbox.cif.g08.bks.cpg/sg53_12_cif.got.tgz:22948.got - 2010.06.03 12:45:16.
