data_PCOD9414020
_publ_section_title
;
Structure prediction by ZEFSAII (Michael W. Deem and Ramdas Pophale) SiO2 
 PCOD9414020
Probable space group: P N N A
;
_chemical_formula_sum "Si O2"
_cell_formula_units_Z 40
_cell_length_a 18.000000
_cell_length_b 9.000000
_cell_length_c 12.000000
_cell_angle_alpha 90.000000
_cell_angle_beta 90.000000
_cell_angle_gamma 90.000000
_cell_volume 1944.000000
_symmetry_space_group_name_H-M "P N N A"
_symmetry_group_IT_number 52
_symmetry_cell_setting 'orthorhombic'
loop_
_space_group_symop_operation_xyz
x,y,z
1/2-x,-y,z
x,1/2-y,1/2-z
1/2-x,1/2+y,1/2-z
-x,-y,-z
1/2+x,y,-z
-x,1/2+y,1/2+z
1/2+x,1/2-y,1/2+z
loop_
_atom_site_type_symbol
_atom_site_label
_atom_site_fract_x
_atom_site_fract_y
_atom_site_fract_z
Si Si1 0.578131 0.683217 0.649551
Si Si2 0.186976 0.274760 0.620981
Si Si3 0.991035 0.861820 0.841510
Si Si4 0.042715 0.351977 0.959378
Si Si5 0.847907 0.120957 0.083091
O O1 0.625593 0.750000 0.750000
O O2 0.546393 0.519712 0.666069
O O3 0.508700 0.796502 0.640861
O O4 0.624348 0.675942 0.536635
O O5 0.169798 0.250000 0.750000
O O6 0.131141 0.155851 0.562673
O O7 0.168856 0.443939 0.582545
O O8 0.276567 0.278048 0.611265
O O9 0.962109 0.750000 0.750000
O O10 0.080323 0.869835 0.837134
O O11 0.970611 0.783159 0.955952
O O12 0.000000 0.500000 0.000000
#
# Coordination Sequence:
#
# PCOD9414020 Si02
#       5
#     8   8   8   8   8
#     4  11  21  41  64  89 126 179 222 277 342 404
#     4  11  22  40  66  93 130 174 217 285 353 408
#     4  11  21  37  62  94 125 169 224 278 341 401
#     4  11  22  38  62  96 129 165 222 280 331 416
#     4  10  22  41  62  92 132 172 219 283 341 416
#
# _framework density 20.576132000000001
#
# number of rings (size 3 to 8) (size 9 to 14) (size 15 to 20)
#    0.000    1.200    4.000    3.600    2.800    0.000 
#    3.600    1.000    4.400    0.000    0.000    0.000 
#    0.000    0.000    0.000    0.000    0.000    0.000 
#
# Total GULP energy -222699.457630 kJ/mol
# GULP energy per Si atom -5567.486441 kJ/mol
# Density = 2.052930 g / cm^3
# Si number density = 20.576132 Si / 1000 Ang^3
#
#
#
# Elastic Constant Matrix: (Units=GPa)
#
#
# Indices 1 2 3 4 5 6 
#
# 1 100.0951 29.4082 12.7135 0.0000 0.0000 0.0000
# 2 29.4082 105.0190 34.7736 0.0000 0.0000 0.0000
# 3 12.7135 34.7736 72.5648 0.0000 0.0000 0.0000
# 4 0.0000 0.0000 0.0000 38.6360 0.0000 0.0000
# 5 0.0000 0.0000 0.0000 0.0000 23.3890 0.0000
# 6 0.0000 0.0000 0.0000 0.0000 0.0000 29.8560
#
#
#
# Elastic Compliance Matrix: (Units=1/GPa)
#
#
# Indices 1 2 3 4 5 6 
#
# 1 0.010903 -0.002877 -0.000531 0.000000 0.000000 0.000000
# 2 -0.002877 0.012077 -0.005283 0.000000 0.000000 0.000000
# 3 -0.000531 -0.005283 0.016406 0.000000 0.000000 0.000000
# 4 0.000000 0.000000 0.000000 0.025883 0.000000 0.000000
# 5 0.000000 0.000000 0.000000 0.000000 0.042755 0.000000
# 6 0.000000 0.000000 0.000000 0.000000 0.000000 0.033494
#
#
# Mechanical properties :
#
#
# Convention : Reuss Voigt Hill
#
# Bulk Modulus (GPa) = 45.45029 47.94104 46.69567
# Shear Modulus (GPa) = 30.07765 31.76178 30.91971
#
# Velocity S-wave (km/s) = 3.82746 3.93316 3.88067
# Velocity P-wave (km/s) = 6.45519 6.63146 6.54392
#
# Compressibility (1/GPa) = 0.02200206
#
# Stress axis : x y z
#
# Youngs Moduli (GPa) = 91.71491 82.80058 60.95424
#
# Poissons Ratio (x) = 0.23824 0.03240
# Poissons Ratio (y) = 0.26389 0.32204
# Poissons Ratio (z) = 0.04875 0.43747
#
# Static dielectric constant tensor:
#      x y z
#    x 1.765710 0.000000 0.000000 
#    y 0.000000 1.701810 0.000000 
#    z 0.000000 0.000000 1.678710 
# 
# From -- ./inp_files/20296.got.cif
#   From: 2010.05.17/outbox.ucp.g08.bks.cvg/sg52_11_cif.got.tgz:20296.got - 2010.06.11 16:30:12.
