data_PCOD9414677
_publ_section_title
;
Structure prediction by ZEFSAII (Michael W. Deem and Ramdas Pophale) SiO2 
 PCOD9414677
Probable space group: P M N A
;
_chemical_formula_sum "Si O2"
_cell_formula_units_Z 64
_cell_length_a 9.368659
_cell_length_b 19.282745
_cell_length_c 21.781587
_cell_angle_alpha 90.000000
_cell_angle_beta 90.000000
_cell_angle_gamma 90.000000
_cell_volume 3934.919110
_symmetry_space_group_name_H-M "P M N A"
_symmetry_group_IT_number 53
_symmetry_cell_setting 'orthorhombic'
loop_
_space_group_symop_operation_xyz
x,y,z
1/2-x,-y,1/2+z
x,-y,-z
1/2-x,y,1/2-z
-x,-y,-z
1/2+x,y,1/2-z
-x,y,z
1/2+x,-y,1/2+z
loop_
_atom_site_type_symbol
_atom_site_label
_atom_site_fract_x
_atom_site_fract_y
_atom_site_fract_z
Si Si1 0.329664 0.823673 0.008508
Si Si2 0.830472 0.972281 0.812754
Si Si3 0.663998 0.699440 0.691554
Si Si4 0.671487 0.048572 0.559267
Si Si5 0.163548 0.536473 0.067305
Si Si6 0.667272 0.410483 0.116371
Si Si7 0.167150 0.338565 0.517622
Si Si8 0.163113 0.837226 0.885039
O O1 0.500000 0.831129 0.011596
O O2 0.251114 0.878439 0.052005
O O3 0.294934 0.742596 0.020301
O O4 0.271408 0.841827 0.940867
O O5 0.750000 0.990522 0.750000
O O6 0.803956 0.892232 0.831807
O O7 0.000000 0.980994 0.803139
O O8 0.791813 0.013614 0.875291
O O9 0.750000 0.725623 0.750000
O O10 0.500000 0.684083 0.706744
O O11 0.745165 0.632861 0.665805
O O12 0.665632 0.760028 0.641249
O O13 0.500000 0.057569 0.557506
O O14 0.708356 0.000000 0.500000
O O15 0.261684 0.485314 0.106820
O O16 0.234244 0.611487 0.058174
O O17 0.000000 0.540036 0.088800
O O18 0.161380 0.500000 0.000000
O O19 0.500000 0.415449 0.130881
O O20 0.679723 0.367722 0.052075
O O21 0.000000 0.346400 0.534563
O O22 0.000000 0.853300 0.906431
#
# Coordination Sequence:
#
# PCOD9414677 Si02
#       8
#     8   8   8   8   8   8   8   8
#     4  11  21  32  51  79 107 136 175 219 262 311
#     4  10  21  37  56  77 102 137 177 221 267 316
#     4  11  22  33  48  69  98 136 179 220 257 306
#     4  10  20  37  56  74 105 142 177 215 266 326
#     4   9  17  28  45  70  95 123 162 200 238 292
#     4  10  18  31  48  66  96 132 166 207 254 301
#     4   9  18  31  46  69 100 131 161 201 255 305
#     4  10  20  35  52  71 101 141 178 213 261 315
#
# _framework density 16.26463
#
# number of rings (size 3 to 8) (size 9 to 14) (size 15 to 20)
#    0.000    2.000    2.500    1.875    0.000    4.750 
#    0.000    0.000    0.000    0.000    0.000    0.875 
#    0.000    4.000    0.000    0.000    0.000    0.000 
#
# Total GULP energy -356901.988824 kJ/mol
# GULP energy per Si atom -5576.593575 kJ/mol
# Density = 1.622761 g / cm^3
# Si number density = 16.264630 Si / 1000 Ang^3
#
#
#
# Elastic Constant Matrix: (Units=GPa)
#
#
# Indices 1 2 3 4 5 6 
#
# 1 87.4806 53.4744 36.6096 0.0000 0.0000 0.0000
# 2 53.4744 94.0735 33.2575 0.0000 0.0000 0.0000
# 3 36.6096 33.2575 64.7634 0.0000 0.0000 0.0000
# 4 0.0000 0.0000 0.0000 19.4643 0.0000 0.0000
# 5 0.0000 0.0000 0.0000 0.0000 27.3266 0.0000
# 6 0.0000 0.0000 0.0000 0.0000 0.0000 28.9998
#
#
#
# Elastic Compliance Matrix: (Units=1/GPa)
#
#
# Indices 1 2 3 4 5 6 
#
# 1 0.019543 -0.008801 -0.006528 0.000000 0.000000 0.000000
# 2 -0.008801 0.016951 -0.003730 0.000000 0.000000 0.000000
# 3 -0.006528 -0.003730 0.021046 0.000000 0.000000 0.000000
# 4 0.000000 0.000000 0.000000 0.051376 0.000000 0.000000
# 5 0.000000 0.000000 0.000000 0.000000 0.036594 0.000000
# 6 0.000000 0.000000 0.000000 0.000000 0.000000 0.034483
#
#
# Mechanical properties :
#
#
# Convention : Reuss Voigt Hill
#
# Bulk Modulus (GPa) = 51.48480 54.77786 53.13133
# Shear Modulus (GPa) = 22.26329 23.35654 22.80991
#
# Velocity S-wave (km/s) = 3.70377 3.79361 3.74896
# Velocity P-wave (km/s) = 7.07204 7.27605 7.17477
#
# Compressibility (1/GPa) = 0.01942321
#
# Stress axis : x y z
#
# Youngs Moduli (GPa) = 51.17023 58.99234 47.51467
#
# Poissons Ratio (x) = 0.51919 0.31016
# Poissons Ratio (y) = 0.45035 0.17722
# Poissons Ratio (z) = 0.33402 0.22003
#
# Static dielectric constant tensor:
#      x y z
#    x 1.543750 0.000000 0.000000 
#    y 0.000000 1.548380 0.000000 
#    z 0.000000 0.000000 1.543930 
# 
# From -- ./inp_files/31142.got.cif
#   From: 2010.05.17/outbox.cif.g08.bks.cpg/sg53_16_cif.got.tgz:31142.got - 2010.06.03 12:45:16.
