data_PCOD9414217
_publ_section_title
;
Structure prediction by ZEFSAII (Michael W. Deem and Ramdas Pophale) SiO2 
 PCOD9414217
Probable space group: P M N A
;
_chemical_formula_sum "Si O2"
_cell_formula_units_Z 48
_cell_length_a 8.612620
_cell_length_b 32.498822
_cell_length_c 9.240942
_cell_angle_alpha 90.000000
_cell_angle_beta 90.000000
_cell_angle_gamma 90.000000
_cell_volume 2586.539706
_symmetry_space_group_name_H-M "P M N A"
_symmetry_group_IT_number 53
_symmetry_cell_setting 'orthorhombic'
loop_
_space_group_symop_operation_xyz
x,y,z
1/2-x,-y,1/2+z
x,-y,-z
1/2-x,y,1/2-z
-x,-y,-z
1/2+x,y,1/2-z
-x,y,z
1/2+x,-y,1/2+z
loop_
_atom_site_type_symbol
_atom_site_label
_atom_site_fract_x
_atom_site_fract_y
_atom_site_fract_z
Si Si1 0.686229 0.710911 0.085320
Si Si2 0.185312 0.118905 0.586288
Si Si3 0.312288 0.459573 0.088493
Si Si4 0.813691 0.041354 0.087998
Si Si5 0.314882 0.204796 0.585074
Si Si6 0.687254 0.379548 0.913098
O O1 0.750000 0.709537 0.250000
O O2 0.500000 0.714862 0.088473
O O3 0.757001 0.752255 0.017262
O O4 0.729195 0.665781 0.025590
O O5 0.250000 0.114353 0.750000
O O6 0.242204 0.080668 0.492317
O O7 0.249227 0.162157 0.523676
O O8 0.000000 0.120537 0.592809
O O9 0.250000 0.461361 0.250000
O O10 0.500000 0.459226 0.091590
O O11 0.262786 0.500000 0.000000
O O12 0.259394 0.417886 0.008668
O O13 0.750000 0.038404 0.250000
O O14 0.000000 0.045228 0.090326
O O15 0.773413 0.000000 0.000000
O O16 0.250000 0.205168 0.750000
O O17 0.500000 0.203830 0.588752
O O18 0.750000 0.383402 0.750000
O O19 0.500000 0.380642 0.905300
#
# Coordination Sequence:
#
# PCOD9414217 Si02
#       6
#     8   8   8   8   8   8
#     4   9  15  25  42  67  99 132 168 210 258 305
#     4  11  21  35  56  82 113 147 184 226 272 319
#     4  10  21  36  53  75 102 132 169 211 256 308
#     4  11  24  41  61  85 113 145 182 223 269 321
#     4  10  17  27  45  72 105 138 176 218 262 311
#     4   9  18  31  49  74 103 134 170 213 257 307
#
# _framework density 18.557611000000001
#
# number of rings (size 3 to 8) (size 9 to 14) (size 15 to 20)
#    0.000    2.000    0.000    7.000    0.000    4.333 
#    0.000    0.000    0.000    1.000    0.000    4.667 
#    0.000    0.000    0.000    0.000    0.000    0.000 
#
# Total GULP energy -267830.065000 kJ/mol
# GULP energy per Si atom -5579.793021 kJ/mol
# Density = 1.851537 g / cm^3
# Si number density = 18.557611 Si / 1000 Ang^3
#
#
#
# Elastic Constant Matrix: (Units=GPa)
#
#
# Indices 1 2 3 4 5 6 
#
# 1 93.8674 75.3328 30.9518 0.0000 0.0000 0.0000
# 2 75.3328 236.1377 81.1656 0.0000 0.0000 0.0000
# 3 30.9518 81.1656 81.9093 0.0000 0.0000 0.0000
# 4 0.0000 0.0000 0.0000 20.5297 0.0000 0.0000
# 5 0.0000 0.0000 0.0000 0.0000 22.9831 0.0000
# 6 0.0000 0.0000 0.0000 0.0000 0.0000 24.5553
#
#
#
# Elastic Compliance Matrix: (Units=1/GPa)
#
#
# Indices 1 2 3 4 5 6 
#
# 1 0.014417 -0.004135 -0.001350 0.000000 0.000000 0.000000
# 2 -0.004135 0.007608 -0.005977 0.000000 0.000000 0.000000
# 3 -0.001350 -0.005977 0.018641 0.000000 0.000000 0.000000
# 4 0.000000 0.000000 0.000000 0.048710 0.000000 0.000000
# 5 0.000000 0.000000 0.000000 0.000000 0.043510 0.000000
# 6 0.000000 0.000000 0.000000 0.000000 0.000000 0.040724
#
#
# Mechanical properties :
#
#
# Convention : Reuss Voigt Hill
#
# Bulk Modulus (GPa) = 56.36172 87.42387 71.89279
# Shear Modulus (GPa) = 24.69746 28.57790 26.63768
#
# Velocity S-wave (km/s) = 3.65204 3.92848 3.79278
# Velocity P-wave (km/s) = 6.94409 8.23341 7.61608
#
# Compressibility (1/GPa) = 0.01774254
#
# Stress axis : x y z
#
# Youngs Moduli (GPa) = 69.36095 131.43421 53.64457
#
# Poissons Ratio (x) = 0.54352 0.07243
# Poissons Ratio (y) = 0.28683 0.32061
# Poissons Ratio (z) = 0.09365 0.78553
#
# Static dielectric constant tensor:
#      x y z
#    x 1.619170 0.000000 0.000000 
#    y 0.000000 1.701350 0.000000 
#    z 0.000000 0.000000 1.608450 
# 
# From -- ./inp_files/6718.got.cif
#   From: 2010.05.17/outbox.cif.g08.bks.cpg/sg53_4_cif.got.tgz:6718.got - 2010.06.03 12:45:16.
