data_PCOD9414700
_publ_section_title
;
Structure prediction by ZEFSAII (Michael W. Deem and Ramdas Pophale) SiO2 
 PCOD9414700
Probable space group: P M N A
;
_chemical_formula_sum "Si O2"
_cell_formula_units_Z 64
_cell_length_a 7.889946
_cell_length_b 15.521812
_cell_length_c 25.806962
_cell_angle_alpha 90.000000
_cell_angle_beta 90.000000
_cell_angle_gamma 90.000000
_cell_volume 3160.482079
_symmetry_space_group_name_H-M "P M N A"
_symmetry_group_IT_number 53
_symmetry_cell_setting 'orthorhombic'
loop_
_space_group_symop_operation_xyz
x,y,z
1/2-x,-y,1/2+z
x,-y,-z
1/2-x,y,1/2-z
-x,-y,-z
1/2+x,y,1/2-z
-x,y,z
1/2+x,-y,1/2+z
loop_
_atom_site_type_symbol
_atom_site_label
_atom_site_fract_x
_atom_site_fract_y
_atom_site_fract_z
Si Si1 0.296230 0.274844 0.612852
Si Si2 0.204320 0.066603 0.191320
Si Si3 0.807154 0.256765 0.004283
Si Si4 0.798234 0.364007 0.306567
Si Si5 0.795720 0.870747 0.191316
Si Si6 0.295619 0.214105 0.385542
Si Si7 0.192405 0.568736 0.545089
Si Si8 0.204241 0.534430 0.353859
O O1 0.500000 0.269293 0.609359
O O2 0.230168 0.262968 0.553605
O O3 0.232741 0.198459 0.649845
O O4 0.261289 0.367442 0.639274
O O5 0.250000 0.091488 0.250000
O O6 0.267865 0.135585 0.149841
O O7 0.000000 0.065493 0.187929
O O8 0.266009 0.968667 0.182602
O O9 0.000000 0.224586 0.998108
O O10 0.729536 0.210468 0.055131
O O11 0.806100 0.354121 0.025591
O O12 0.750000 0.329391 0.250000
O O13 0.740191 0.301805 0.353326
O O14 0.735576 0.463580 0.311924
O O15 0.000000 0.366207 0.309768
O O16 0.750000 0.845883 0.250000
O O17 0.000000 0.872380 0.187814
O O18 0.500000 0.208681 0.389299
O O19 0.180233 0.500000 0.500000
O O20 0.254248 0.515995 0.594044
O O21 0.000000 0.601448 0.555749
O O22 0.000000 0.538807 0.351208
#
# Coordination Sequence:
#
# PCOD9414700 Si02
#       8
#     8   8   8   8   8   8   8   8
#     4  10  21  35  53  78 107 138 173 215 261 307
#     4   9  18  34  56  79 102 131 170 215 260 308
#     4  10  20  32  49  76 108 138 171 210 255 307
#     4  11  23  37  52  73 104 140 176 216 263 312
#     4   9  19  37  58  79 103 132 170 216 263 311
#     4  10  20  34  53  78 107 138 172 211 257 311
#     4  10  18  31  50  71  97 131 175 217 251 293
#     4  10  21  35  51  72 100 136 176 214 254 303
#
# _framework density 20.250074999999999
#
# number of rings (size 3 to 8) (size 9 to 14) (size 15 to 20)
#    0.000    2.125    2.500    0.750    0.000    4.250 
#    0.000    3.125    0.000    3.750    0.000    0.000 
#    0.000    7.000    0.000    0.000    0.000    0.000 
#
# Total GULP energy -356673.151276 kJ/mol
# GULP energy per Si atom -5573.017989 kJ/mol
# Density = 2.020399 g / cm^3
# Si number density = 20.250075 Si / 1000 Ang^3
#
#
#
# Elastic Constant Matrix: (Units=GPa)
#
#
# Indices 1 2 3 4 5 6 
#
# 1 24.1750 5.4668 5.6290 0.0000 0.0000 0.0000
# 2 5.4668 114.3617 72.3735 0.0000 0.0000 0.0000
# 3 5.6290 72.3735 108.3679 0.0000 0.0000 0.0000
# 4 0.0000 0.0000 0.0000 35.6027 0.0000 0.0000
# 5 0.0000 0.0000 0.0000 0.0000 13.4196 0.0000
# 6 0.0000 0.0000 0.0000 0.0000 0.0000 7.8077
#
#
#
# Elastic Compliance Matrix: (Units=1/GPa)
#
#
# Indices 1 2 3 4 5 6 
#
# 1 0.041949 -0.001085 -0.001455 0.000000 0.000000 0.000000
# 2 -0.001085 0.015173 -0.010077 0.000000 0.000000 0.000000
# 3 -0.001455 -0.010077 0.016033 0.000000 0.000000 0.000000
# 4 0.000000 0.000000 0.000000 0.028088 0.000000 0.000000
# 5 0.000000 0.000000 0.000000 0.000000 0.074518 0.000000
# 6 0.000000 0.000000 0.000000 0.000000 0.000000 0.128079
#
#
# Mechanical properties :
#
#
# Convention : Reuss Voigt Hill
#
# Bulk Modulus (GPa) = 20.86684 45.98255 33.42470
# Shear Modulus (GPa) = 14.49076 22.26169 18.37622
#
# Velocity S-wave (km/s) = 2.67795 3.31922 3.01568
# Velocity P-wave (km/s) = 4.45969 6.11934 5.35421
#
# Compressibility (1/GPa) = 0.04792293
#
# Stress axis : x y z
#
# Youngs Moduli (GPa) = 23.83842 65.90508 62.36978
#
# Poissons Ratio (x) = 0.07149 0.09072
# Poissons Ratio (y) = 0.02586 0.62851
# Poissons Ratio (z) = 0.03467 0.66414
#
# Static dielectric constant tensor:
#      x y z
#    x 1.755750 0.000000 0.000000 
#    y 0.000000 1.722180 0.000000 
#    z 0.000000 0.000000 1.769380 
# 
# From -- ./inp_files/34290.got.cif
#   From: 2010.05.17/outbox.cif.g08.bks.cpg/sg53_18_cif.got.tgz:34290.got - 2010.06.03 12:45:16.
