data_PCOD9414862
_publ_section_title
;
Structure prediction by ZEFSAII (Michael W. Deem and Ramdas Pophale) SiO2 
 PCOD9414862
Probable space group: P M N A
;
_chemical_formula_sum "Si O2"
_cell_formula_units_Z 64
_cell_length_a 18.105985
_cell_length_b 12.165945
_cell_length_c 14.236993
_cell_angle_alpha 90.000000
_cell_angle_beta 90.000000
_cell_angle_gamma 90.000000
_cell_volume 3136.073817
_symmetry_space_group_name_H-M "P M N A"
_symmetry_group_IT_number 53
_symmetry_cell_setting 'orthorhombic'
loop_
_space_group_symop_operation_xyz
x,y,z
1/2-x,-y,1/2+z
x,-y,-z
1/2-x,y,1/2-z
-x,-y,-z
1/2+x,y,1/2-z
-x,y,z
1/2+x,-y,1/2+z
loop_
_atom_site_type_symbol
_atom_site_label
_atom_site_fract_x
_atom_site_fract_y
_atom_site_fract_z
Si Si1 0.226577 0.367195 0.353490
Si Si2 0.636900 0.749910 0.371494
Si Si3 0.743068 0.120575 0.390780
Si Si4 0.917087 0.119421 0.049753
Si Si5 0.918621 0.741564 0.327575
Si Si6 0.915989 0.518031 0.689144
Si Si7 0.863664 0.497600 0.100492
Si Si8 0.720059 0.881987 0.112848
O O1 0.250000 0.406935 0.250000
O O2 0.227322 0.236072 0.354816
O O3 0.145193 0.413946 0.367296
O O4 0.292833 0.418211 0.414317
O O5 0.600788 0.793198 0.467526
O O6 0.582565 0.762745 0.284260
O O7 0.659271 0.623135 0.380210
O O8 0.709216 0.819509 0.346109
O O9 0.653633 0.120554 0.381710
O O10 0.760857 0.119130 0.501922
O O11 0.778871 0.008312 0.353836
O O12 0.000000 0.137220 0.087869
O O13 0.915656 0.000000 0.000000
O O14 0.904013 0.610824 0.334206
O O15 0.854499 0.815517 0.370691
O O16 0.000000 0.765271 0.366118
O O17 0.905006 0.535342 0.802670
O O18 0.000000 0.546608 0.665615
O O19 0.905155 0.500000 0.000000
#
# Coordination Sequence:
#
# PCOD9414862 Si02
#       8
#     8   8   8   8   8   8   8   8
#     4  10  21  37  56  79 112 152 189 232 277 340
#     4  10  18  32  54  82 110 141 181 220 272 340
#     4  10  20  38  55  79 108 147 192 224 265 336
#     4  10  18  33  55  82 118 148 172 220 281 335
#     4  10  20  34  54  81 110 137 180 240 287 322
#     4   9  20  38  56  80 113 147 184 232 287 335
#     4  10  19  33  57  85 110 143 184 230 279 335
#     4  10  19  35  56  78 105 143 184 230 275 325
#
# _framework density 20.407682000000001
#
# number of rings (size 3 to 8) (size 9 to 14) (size 15 to 20)
#    0.000    2.125    2.500    3.000    0.000    3.750 
#    0.000    7.500    0.000    1.875    0.000    0.000 
#    0.000    0.000    0.000    0.000    0.000    0.000 
#
# Total GULP energy -357002.151713 kJ/mol
# GULP energy per Si atom -5578.158621 kJ/mol
# Density = 2.036123 g / cm^3
# Si number density = 20.407682 Si / 1000 Ang^3
#
#
#
# Elastic Constant Matrix: (Units=GPa)
#
#
# Indices 1 2 3 4 5 6 
#
# 1 166.2105 66.7642 3.5441 0.0000 0.0000 0.0000
# 2 66.7642 89.9948 -10.5983 0.0000 0.0000 0.0000
# 3 3.5441 -10.5983 24.8151 0.0000 0.0000 0.0000
# 4 0.0000 0.0000 0.0000 23.6626 0.0000 0.0000
# 5 0.0000 0.0000 0.0000 0.0000 13.7445 0.0000
# 6 0.0000 0.0000 0.0000 0.0000 0.0000 23.0561
#
#
#
# Elastic Compliance Matrix: (Units=1/GPa)
#
#
# Indices 1 2 3 4 5 6 
#
# 1 0.008996 -0.007187 -0.004354 0.000000 0.000000 0.000000
# 2 -0.007187 0.017441 0.008475 0.000000 0.000000 0.000000
# 3 -0.004354 0.008475 0.044540 0.000000 0.000000 0.000000
# 4 0.000000 0.000000 0.000000 0.042261 0.000000 0.000000
# 5 0.000000 0.000000 0.000000 0.000000 0.072757 0.000000
# 6 0.000000 0.000000 0.000000 0.000000 0.000000 0.043373
#
#
# Mechanical properties :
#
#
# Convention : Reuss Voigt Hill
#
# Bulk Modulus (GPa) = 15.42104 44.49339 29.95721
# Shear Modulus (GPa) = 19.44668 26.84666 23.14667
#
# Velocity S-wave (km/s) = 3.09027 3.63094 3.37146
# Velocity P-wave (km/s) = 4.50621 6.27916 5.46506
#
# Compressibility (1/GPa) = 0.06484646
#
# Stress axis : x y z
#
# Youngs Moduli (GPa) = 111.15940 57.33478 22.45186
#
# Poissons Ratio (x) = 0.41205 0.09776
# Poissons Ratio (y) = 0.79887 -0.19029
# Poissons Ratio (z) = 0.48401 -0.48594
#
# Static dielectric constant tensor:
#      x y z
#    x 1.727900 0.000000 0.000000 
#    y 0.000000 1.721900 0.000000 
#    z 0.000000 0.000000 1.787850 
# 
# From -- ./inp_files/29132.got.cif
#   From: 2010.05.17/outbox.cif.g08.bks.cpg/sg53_15_cif.got.tgz:29132.got - 2010.06.03 12:45:16.
