data_PCOD9414757
_publ_section_title
;
Structure prediction by ZEFSAII (Michael W. Deem and Ramdas Pophale) SiO2 
 PCOD9414757
Probable space group: P M N A
;
_chemical_formula_sum "Si O2"
_cell_formula_units_Z 32
_cell_length_a 8.657574
_cell_length_b 21.470253
_cell_length_c 9.222502
_cell_angle_alpha 90.000000
_cell_angle_beta 90.000000
_cell_angle_gamma 90.000000
_cell_volume 1714.281477
_symmetry_space_group_name_H-M "P M N A"
_symmetry_group_IT_number 53
_symmetry_cell_setting 'orthorhombic'
loop_
_space_group_symop_operation_xyz
x,y,z
1/2-x,-y,1/2+z
x,-y,-z
1/2-x,y,1/2-z
-x,-y,-z
1/2+x,y,1/2-z
-x,y,z
1/2+x,-y,1/2+z
loop_
_atom_site_type_symbol
_atom_site_label
_atom_site_fract_x
_atom_site_fract_y
_atom_site_fract_z
Si Si1 0.184520 0.820196 0.586302
Si Si2 0.685167 0.937117 0.411743
Si Si3 0.184473 0.309380 0.085306
Si Si4 0.684860 0.562341 0.912431
O O1 0.250000 0.826996 0.750000
O O2 0.241091 0.878168 0.492413
O O3 0.249098 0.754925 0.523288
O O4 0.000000 0.817563 0.593243
O O5 0.750000 0.942042 0.250000
O O6 0.500000 0.930015 0.408414
O O7 0.721949 0.000000 0.500000
O O8 0.250000 0.310314 0.250000
O O9 0.243410 0.374546 0.020663
O O10 0.000000 0.307601 0.088194
O O11 0.750000 0.555850 0.750000
O O12 0.500000 0.569522 0.906139
O O13 0.722773 0.500000 0.000000
#
# Coordination Sequence:
#
# PCOD9414757 Si02
#       4
#     8   8   8   8
#     4  11  21  36  59  85 114 146 185 230 277 329
#     4  11  24  41  61  86 116 149 186 227 274 327
#     4  10  18  31  53  79 108 142 183 226 273 328
#     4  10  20  34  53  78 108 142 182 226 274 327
#
# _framework density 18.666713000000001
#
# number of rings (size 3 to 8) (size 9 to 14) (size 15 to 20)
#    0.000    1.500    0.000    9.750    0.000    6.000 
#    0.000    1.250    0.000    3.000    0.000    0.000 
#    0.000    0.000    0.000    0.000    0.000    0.000 
#
# Total GULP energy -178761.159166 kJ/mol
# GULP energy per Si atom -5586.286224 kJ/mol
# Density = 1.862423 g / cm^3
# Si number density = 18.666713 Si / 1000 Ang^3
#
#
#
# Elastic Constant Matrix: (Units=GPa)
#
#
# Indices 1 2 3 4 5 6 
#
# 1 151.2499 109.6033 46.5868 0.0000 0.0000 0.0000
# 2 109.6033 224.7567 74.8399 0.0000 0.0000 0.0000
# 3 46.5868 74.8399 75.2567 0.0000 0.0000 0.0000
# 4 0.0000 0.0000 0.0000 26.1396 0.0000 0.0000
# 5 0.0000 0.0000 0.0000 0.0000 23.5831 0.0000
# 6 0.0000 0.0000 0.0000 0.0000 0.0000 40.4675
#
#
#
# Elastic Compliance Matrix: (Units=1/GPa)
#
#
# Indices 1 2 3 4 5 6 
#
# 1 0.010441 -0.004395 -0.002093 0.000000 0.000000 0.000000
# 2 -0.004395 0.008502 -0.005734 0.000000 0.000000 0.000000
# 3 -0.002093 -0.005734 0.020286 0.000000 0.000000 0.000000
# 4 0.000000 0.000000 0.000000 0.038256 0.000000 0.000000
# 5 0.000000 0.000000 0.000000 0.000000 0.042403 0.000000
# 6 0.000000 0.000000 0.000000 0.000000 0.000000 0.024711
#
#
# Mechanical properties :
#
#
# Convention : Reuss Voigt Hill
#
# Bulk Modulus (GPa) = 67.63681 101.48036 84.55858
# Shear Modulus (GPa) = 28.74050 32.72028 30.73039
#
# Velocity S-wave (km/s) = 3.92811 4.19127 4.06182
# Velocity P-wave (km/s) = 7.54228 8.82636 8.20947
#
# Compressibility (1/GPa) = 0.01478485
#
# Stress axis : x y z
#
# Youngs Moduli (GPa) = 95.77867 117.62450 49.29525
#
# Poissons Ratio (x) = 0.51690 0.10318
# Poissons Ratio (y) = 0.42090 0.28267
# Poissons Ratio (z) = 0.20047 0.67448
#
# Static dielectric constant tensor:
#      x y z
#    x 1.622640 0.000000 0.000000 
#    y 0.000000 1.684750 0.000000 
#    z 0.000000 0.000000 1.628180 
# 
# From -- ./inp_files/6025.got.cif
#   From: 2010.05.17/outbox.cif.g08.bks.cpg/sg53_4_cif.got.tgz:6025.got - 2010.06.03 12:45:16.
