data_PCOD9414263
_publ_section_title
;
Structure prediction by ZEFSAII (Michael W. Deem and Ramdas Pophale) SiO2 
 PCOD9414263
Probable space group: P M N A
;
_chemical_formula_sum "Si O2"
_cell_formula_units_Z 48
_cell_length_a 25.403397
_cell_length_b 5.468777
_cell_length_c 14.199143
_cell_angle_alpha 90.000000
_cell_angle_beta 90.000000
_cell_angle_gamma 90.000000
_cell_volume 1972.623229
_symmetry_space_group_name_H-M "P M N A"
_symmetry_group_IT_number 53
_symmetry_cell_setting 'orthorhombic'
loop_
_space_group_symop_operation_xyz
x,y,z
1/2-x,-y,1/2+z
x,-y,-z
1/2-x,y,1/2-z
-x,-y,-z
1/2+x,y,1/2-z
-x,y,z
1/2+x,-y,1/2+z
loop_
_atom_site_type_symbol
_atom_site_label
_atom_site_fract_x
_atom_site_fract_y
_atom_site_fract_z
Si Si1 0.704511 0.578936 0.100118
Si Si2 0.407852 0.620027 0.156520
Si Si3 0.560889 0.382775 0.625577
Si Si4 0.385990 0.883862 0.634007
Si Si5 0.737934 0.930876 0.641674
Si Si6 0.439030 0.119194 0.161558
O O1 0.655124 0.616851 0.168546
O O2 0.738287 0.340747 0.127121
O O3 0.736536 0.832446 0.090247
O O4 0.680803 0.500000 0.000000
O O5 0.434884 0.621084 0.259718
O O6 0.426667 0.370496 0.110046
O O7 0.425002 0.870861 0.108871
O O8 0.500000 0.396211 0.600011
O O9 0.591579 0.627576 0.596569
O O10 0.586302 0.127198 0.595706
O O11 0.323896 0.911673 0.622525
O O12 0.401467 0.879374 0.745746
O O13 0.750000 0.992222 0.750000
O O14 0.500000 0.114869 0.191070
#
# Coordination Sequence:
#
# PCOD9414263 Si02
#       6
#     8   8   8   8   8   8
#     4  12  26  43  61  86 126 170 208 252 311 369
#     4  10  18  32  52  74 104 155 200 229 282 351
#     4  10  17  29  50  81 121 151 183 243 301 347
#     4  10  18  29  48  79 112 146 185 235 299 348
#     4  12  23  40  64  91 120 155 211 267 307 356
#     4  10  18  31  53  83 119 149 185 248 304 345
#
# _framework density 24.333082000000001
#
# number of rings (size 3 to 8) (size 9 to 14) (size 15 to 20)
#    0.000    1.333    0.000   12.000    0.000    0.000 
#    0.000    0.000    0.000    5.500    0.000    0.000 
#    0.000   77.333    0.000    0.000    0.000    0.000 
#
# Total GULP energy -268600.108140 kJ/mol
# GULP energy per Si atom -5595.835586 kJ/mol
# Density = 2.427770 g / cm^3
# Si number density = 24.333082 Si / 1000 Ang^3
#
#
#
# Elastic Constant Matrix: (Units=GPa)
#
#
# Indices 1 2 3 4 5 6 
#
# 1 205.7189 87.6404 6.6674 0.0000 0.0000 0.0000
# 2 87.6404 279.9289 23.1960 0.0000 0.0000 0.0000
# 3 6.6674 23.1960 55.7433 0.0000 0.0000 0.0000
# 4 0.0000 0.0000 0.0000 29.8460 0.0000 0.0000
# 5 0.0000 0.0000 0.0000 0.0000 -19.9994 0.0000
# 6 0.0000 0.0000 0.0000 0.0000 0.0000 49.0683
#
#
#
# Elastic Compliance Matrix: (Units=1/GPa)
#
#
# Indices 1 2 3 4 5 6 
#
# 1 0.005609 -0.001761 0.000062 0.000000 0.000000 0.000000
# 2 -0.001761 0.004253 -0.001559 0.000000 0.000000 0.000000
# 3 0.000062 -0.001559 0.018581 0.000000 0.000000 0.000000
# 4 0.000000 0.000000 0.000000 0.033505 0.000000 0.000000
# 5 0.000000 0.000000 0.000000 0.000000 -0.050001 0.000000
# 6 0.000000 0.000000 0.000000 0.000000 0.000000 0.020380
#
#
# Mechanical properties :
#
#
# Convention : Reuss Voigt Hill
#
# Bulk Modulus (GPa) = 45.60748 86.26651 65.93700
# Shear Modulus (GPa) = 108.33739 40.04215 74.18977
#
# Velocity S-wave (km/s) = 6.67977 4.06098 5.52770
# Velocity P-wave (km/s) = 8.84738 7.58407 8.23997
#
# Compressibility (1/GPa) = 0.02192623
#
# Stress axis : x y z
#
# Youngs Moduli (GPa) = 178.27380 235.13032 53.81922
#
# Poissons Ratio (x) = 0.41414 -0.00334
# Poissons Ratio (y) = 0.31400 0.08391
# Poissons Ratio (z) = -0.01105 0.36659
#
# Static dielectric constant tensor:
#      x y z
#    x 1.852630 0.000000 0.000000 
#    y 0.000000 2.006530 0.000000 
#    z 0.000000 0.000000 2.007470 
# 
# From -- ./inp_files/29513.got.cif
#   From: 2010.05.17/outbox.cif.g08.bks.cpg/sg53_15_cif.got.tgz:29513.got - 2010.06.03 12:45:16.
