data_PCOD9414331
_publ_section_title
;
Structure prediction by ZEFSAII (Michael W. Deem and Ramdas Pophale) SiO2 
 PCOD9414331
Probable space group: P M N A
;
_chemical_formula_sum "Si O2"
_cell_formula_units_Z 48
_cell_length_a 27.241429
_cell_length_b 17.038721
_cell_length_c 5.292086
_cell_angle_alpha 90.000000
_cell_angle_beta 90.000000
_cell_angle_gamma 90.000000
_cell_volume 2456.369919
_symmetry_space_group_name_H-M "P M N A"
_symmetry_group_IT_number 53
_symmetry_cell_setting 'orthorhombic'
loop_
_space_group_symop_operation_xyz
x,y,z
1/2-x,-y,1/2+z
x,-y,-z
1/2-x,y,1/2-z
-x,-y,-z
1/2+x,y,1/2-z
-x,y,z
1/2+x,-y,1/2+z
loop_
_atom_site_type_symbol
_atom_site_label
_atom_site_fract_x
_atom_site_fract_y
_atom_site_fract_z
Si Si1 0.313786 0.698124 0.685432
Si Si2 0.555595 0.466201 0.250651
Si Si3 0.920144 0.813805 0.285152
Si Si4 0.428401 0.285269 0.283801
Si Si5 0.802198 0.793534 0.313404
Si Si6 0.500000 0.052729 0.750641
Si Si7 0.750000 0.551025 0.750000
O O1 0.371107 0.698728 0.715615
O O2 0.301834 0.726736 0.403253
O O3 0.294634 0.611871 0.735085
O O4 0.296747 0.757773 0.906445
O O5 0.580670 0.500000 0.500000
O O6 0.500000 0.500887 0.250355
O O7 0.550969 0.372695 0.258340
O O8 0.580155 0.500000 0.000000
O O9 0.937075 0.770218 0.542439
O O10 0.859649 0.824971 0.291824
O O11 0.951248 0.893012 0.257283
O O12 0.936488 0.759593 0.047646
O O13 0.750000 0.838609 0.250000
O O14 0.500000 0.000000 0.500000
O O15 0.500000 0.000000 0.000000
O O16 0.752402 0.500000 0.500000
#
# Coordination Sequence:
#
# PCOD9414331 Si02
#       7
#     8   8   8   8   8   4   4
#     4  10  20  33  49  75 105 147 188 246 306 325
#     4  10  21  34  50  74 107 152 192 242 315 345
#     4  10  23  37  63  96 110 157 203 232 297 346
#     4  10  21  37  58  83 115 146 208 263 275 356
#     4  10  17  35  60  80 114 140 189 247 281 329
#     4  12  26  46  68  94 136 160 176 230 298 376
#     4  12  22  30  44  70 106 156 200 240 298 374
#
# _framework density 19.541032000000001
#
# number of rings (size 3 to 8) (size 9 to 14) (size 15 to 20)
#    0.000    1.667    1.667    3.000    2.333    1.333 
#    0.000    0.000    0.000    1.000    0.000    0.000 
#    0.000    0.000    0.000    0.000    0.000    0.000 
#
# Total GULP energy -267368.526746 kJ/mol
# GULP energy per Si atom -5570.177641 kJ/mol
# Density = 1.949656 g / cm^3
# Si number density = 19.541032 Si / 1000 Ang^3
#
#
#
# Elastic Constant Matrix: (Units=GPa)
#
#
# Indices 1 2 3 4 5 6 
#
# 1 91.0704 34.7352 27.1597 0.0000 0.0000 0.0000
# 2 34.7352 102.4181 59.4748 0.0000 0.0000 0.0000
# 3 27.1597 59.4748 177.2968 0.0000 0.0000 0.0000
# 4 0.0000 0.0000 0.0000 30.9925 0.0000 0.0000
# 5 0.0000 0.0000 0.0000 0.0000 -5.5966 0.0000
# 6 0.0000 0.0000 0.0000 0.0000 0.0000 519.8117
#
#
#
# Elastic Compliance Matrix: (Units=1/GPa)
#
#
# Indices 1 2 3 4 5 6 
#
# 1 0.012667 -0.003936 -0.000620 0.000000 0.000000 0.000000
# 2 -0.003936 0.013349 -0.003875 0.000000 0.000000 0.000000
# 3 -0.000620 -0.003875 0.007035 0.000000 0.000000 0.000000
# 4 0.000000 0.000000 0.000000 0.032266 0.000000 0.000000
# 5 0.000000 0.000000 0.000000 0.000000 -0.178678 0.000000
# 6 0.000000 0.000000 0.000000 0.000000 0.000000 0.001924
#
#
# Mechanical properties :
#
#
# Convention : Reuss Voigt Hill
#
# Bulk Modulus (GPa) = 61.77086 68.16943 64.97014
# Shear Modulus (GPa) = -56.06647 125.66920 34.80137
#
# Velocity S-wave (km/s) = -5.36227 8.02808 4.22469
# Velocity P-wave (km/s) = 2.58053 10.99520 7.55762
#
# Compressibility (1/GPa) = 0.01618886
#
# Stress axis : x y z
#
# Youngs Moduli (GPa) = 78.94774 74.91198 142.14339
#
# Poissons Ratio (x) = 0.29484 0.08814
# Poissons Ratio (y) = 0.31072 0.55081
# Poissons Ratio (z) = 0.04895 0.29029
#
# Static dielectric constant tensor:
#      x y z
#    x 1.749230 0.000000 0.000000 
#    y 0.000000 1.629830 0.000000 
#    z 0.000000 0.000000 3.039990 
# 
# From -- ./inp_files/5292.got.cif
#   From: 2010.05.17/outbox.cif.g08.bks.cpg/sg53_3_cif.got.tgz:5292.got - 2010.06.03 12:45:16.
