data_PCOD9414282
_publ_section_title
;
Structure prediction by ZEFSAII (Michael W. Deem and Ramdas Pophale) SiO2 
 PCOD9414282
Probable space group: P M N A
;
_chemical_formula_sum "Si O2"
_cell_formula_units_Z 64
_cell_length_a 8.725121
_cell_length_b 15.241526
_cell_length_c 30.424000
_cell_angle_alpha 90.000000
_cell_angle_beta 90.000000
_cell_angle_gamma 90.000000
_cell_volume 4045.910040
_symmetry_space_group_name_H-M "P M N A"
_symmetry_group_IT_number 53
_symmetry_cell_setting 'orthorhombic'
loop_
_space_group_symop_operation_xyz
x,y,z
1/2-x,-y,1/2+z
x,-y,-z
1/2-x,y,1/2-z
-x,-y,-z
1/2+x,y,1/2-z
-x,y,z
1/2+x,-y,1/2+z
loop_
_atom_site_type_symbol
_atom_site_label
_atom_site_fract_x
_atom_site_fract_y
_atom_site_fract_z
Si Si1 0.315567 0.129241 0.054862
Si Si2 0.682329 0.826778 0.461317
Si Si3 0.685512 0.548248 0.935644
Si Si4 0.815063 0.290936 0.382101
Si Si5 0.183725 0.999225 0.202960
Si Si6 0.316182 0.044194 0.889748
Si Si7 0.317298 0.204650 0.296218
Si Si8 0.185331 0.366879 0.530417
O O1 0.500000 0.127217 0.048884
O O2 0.275874 0.218575 0.080761
O O3 0.271975 0.046677 0.085297
O O4 0.239471 0.130358 0.007131
O O5 0.500000 0.831928 0.458926
O O6 0.756409 0.878321 0.420680
O O7 0.737245 0.725893 0.461523
O O8 0.500000 0.545299 0.933962
O O9 0.738482 0.613142 0.897509
O O10 0.735024 0.447161 0.937939
O O11 0.721440 0.596669 0.981645
O O12 0.745841 0.259337 0.336678
O O13 0.000000 0.291076 0.378906
O O14 0.250000 0.968608 0.250000
O O15 0.228869 0.102269 0.198476
O O16 0.000000 0.993480 0.203991
O O17 0.247783 0.953760 0.159229
O O18 0.500000 0.045936 0.887022
O O19 0.250000 0.235632 0.250000
O O20 0.500000 0.207871 0.295099
O O21 0.000000 0.356221 0.532730
#
# Coordination Sequence:
#
# PCOD9414282 Si02
#       8
#     8   8   8   8   8   8   8   8
#     4  10  20  34  51  70  97 135 175 207 241 292
#     4  12  24  34  47  70 102 137 171 212 255 294
#     4   8  15  28  52  75  94 124 164 204 243 290
#     4  10  17  30  51  75 100 129 166 206 246 294
#     4  10  20  34  52  74 101 130 165 207 251 296
#     4  11  22  36  53  72  96 133 175 211 250 296
#     4  10  20  32  48  71 100 133 165 202 246 294
#     4   9  16  32  52  71  94 127 168 205 242 291
#
# _framework density 15.818444
#
# number of rings (size 3 to 8) (size 9 to 14) (size 15 to 20)
#    0.000    2.000    2.500    3.375    0.000    4.000 
#    0.000    1.875    0.000    0.000    0.000    0.875 
#    0.000    2.000    0.000    0.000    0.000    0.000 
#
# Total GULP energy -357071.667570 kJ/mol
# GULP energy per Si atom -5579.244806 kJ/mol
# Density = 1.578244 g / cm^3
# Si number density = 15.818444 Si / 1000 Ang^3
#
#
#
# Elastic Constant Matrix: (Units=GPa)
#
#
# Indices 1 2 3 4 5 6 
#
# 1 32.5984 21.2374 37.7471 0.0000 0.0000 0.0000
# 2 21.2374 67.0290 44.5713 0.0000 0.0000 0.0000
# 3 37.7471 44.5713 135.1395 0.0000 0.0000 0.0000
# 4 0.0000 0.0000 0.0000 22.4261 0.0000 0.0000
# 5 0.0000 0.0000 0.0000 0.0000 27.8936 0.0000
# 6 0.0000 0.0000 0.0000 0.0000 0.0000 19.9355
#
#
#
# Elastic Compliance Matrix: (Units=1/GPa)
#
#
# Indices 1 2 3 4 5 6 
#
# 1 0.048593 -0.008160 -0.010882 0.000000 0.000000 0.000000
# 2 -0.008160 0.020480 -0.004475 0.000000 0.000000 0.000000
# 3 -0.010882 -0.004475 0.011915 0.000000 0.000000 0.000000
# 4 0.000000 0.000000 0.000000 0.044591 0.000000 0.000000
# 5 0.000000 0.000000 0.000000 0.000000 0.035851 0.000000
# 6 0.000000 0.000000 0.000000 0.000000 0.000000 0.050162
#
#
# Mechanical properties :
#
#
# Convention : Reuss Voigt Hill
#
# Bulk Modulus (GPa) = 29.45170 49.09761 39.27466
# Shear Modulus (GPa) = 18.52234 22.79845 20.66039
#
# Velocity S-wave (km/s) = 3.42560 3.80051 3.61791
# Velocity P-wave (km/s) = 5.85708 7.09676 6.50651
#
# Compressibility (1/GPa) = 0.03395389
#
# Stress axis : x y z
#
# Youngs Moduli (GPa) = 20.57913 48.82713 83.92604
#
# Poissons Ratio (x) = 0.39845 0.91324
# Poissons Ratio (y) = 0.16793 0.37561
# Poissons Ratio (z) = 0.22393 0.21852
#
# Static dielectric constant tensor:
#      x y z
#    x 1.529930 0.000000 0.000000 
#    y 0.000000 1.531350 0.000000 
#    z 0.000000 0.000000 1.513390 
# 
# From -- ./inp_files/38413.got.cif
#   From: 2010.05.17/outbox.cif.g08.bks.cpg/sg53_20_cif.got.tgz:38413.got - 2010.06.03 12:45:16.
