data_PCOD9414654
_publ_section_title
;
Structure prediction by ZEFSAII (Michael W. Deem and Ramdas Pophale) SiO2 
 PCOD9414654
Probable space group: P M N A
;
_chemical_formula_sum "Si O2"
_cell_formula_units_Z 64
_cell_length_a 14.870773
_cell_length_b 17.436094
_cell_length_c 13.327024
_cell_angle_alpha 90.000000
_cell_angle_beta 90.000000
_cell_angle_gamma 90.000000
_cell_volume 3455.540009
_symmetry_space_group_name_H-M "P M N A"
_symmetry_group_IT_number 53
_symmetry_cell_setting 'orthorhombic'
loop_
_space_group_symop_operation_xyz
x,y,z
1/2-x,-y,1/2+z
x,-y,-z
1/2-x,y,1/2-z
-x,-y,-z
1/2+x,y,1/2-z
-x,y,z
1/2+x,-y,1/2+z
loop_
_atom_site_type_symbol
_atom_site_label
_atom_site_fract_x
_atom_site_fract_y
_atom_site_fract_z
Si Si1 0.233303 0.659056 0.134522
Si Si2 0.787145 0.234881 0.037618
Si Si3 0.403920 0.245067 0.135555
Si Si4 0.398402 0.477510 0.680832
Si Si5 0.394863 0.074661 0.208926
Si Si6 0.346698 0.644590 0.700359
Si Si7 0.603825 0.561431 0.085555
Si Si8 0.787968 0.941162 0.910299
O O1 0.250000 0.679887 0.250000
O O2 0.169640 0.584015 0.135438
O O3 0.326344 0.630416 0.085760
O O4 0.195310 0.728924 0.070614
O O5 0.681873 0.244175 0.065152
O O6 0.836764 0.289128 0.117933
O O7 0.805541 0.145503 0.051673
O O8 0.500000 0.241150 0.082668
O O9 0.394941 0.167829 0.202728
O O10 0.401242 0.318630 0.207799
O O11 0.500000 0.455632 0.655571
O O12 0.381385 0.565739 0.654059
O O13 0.388557 0.473889 0.802430
O O14 0.500000 0.051194 0.192364
O O15 0.316090 0.052259 0.129365
O O16 0.354613 0.048042 0.315523
O O17 0.250000 0.628057 0.750000
O O18 0.500000 0.584452 0.070560
O O19 0.626582 0.500000 0.000000
O O20 0.802823 0.000000 0.000000
#
# Coordination Sequence:
#
# PCOD9414654 Si02
#       8
#     8   8   8   8   8   8   8   8
#     4  10  22  38  53  72 110 153 189 230 275 321
#     4  10  21  35  55  81 109 145 188 225 280 340
#     4   9  17  31  55  86 115 135 169 232 294 338
#     4  10  21  36  51  74 108 146 187 226 274 328
#     4   9  18  36  60  88 122 153 180 228 293 339
#     4  10  18  30  52  80 112 138 177 231 283 337
#     4   9  19  33  53  78 101 135 186 234 279 324
#     4  10  20  38  60  90 119 151 190 235 283 346
#
# _framework density 18.520983999999999
#
# number of rings (size 3 to 8) (size 9 to 14) (size 15 to 20)
#    0.000    2.375    1.250    1.500    5.250    1.000 
#    2.250    2.500    0.000    0.000    0.000    0.000 
#    0.000    0.000    0.000    0.000    0.000    0.000 
#
# Total GULP energy -356882.007340 kJ/mol
# GULP energy per Si atom -5576.281365 kJ/mol
# Density = 1.847883 g / cm^3
# Si number density = 18.520984 Si / 1000 Ang^3
#
#
#
# Elastic Constant Matrix: (Units=GPa)
#
#
# Indices 1 2 3 4 5 6 
#
# 1 49.4499 7.8812 9.9257 0.0000 0.0000 0.0000
# 2 7.8812 71.9896 41.0493 0.0000 0.0000 0.0000
# 3 9.9257 41.0493 53.7241 0.0000 0.0000 0.0000
# 4 0.0000 0.0000 0.0000 33.4018 0.0000 0.0000
# 5 0.0000 0.0000 0.0000 0.0000 3.7114 0.0000
# 6 0.0000 0.0000 0.0000 0.0000 0.0000 10.9605
#
#
#
# Elastic Compliance Matrix: (Units=1/GPa)
#
#
# Indices 1 2 3 4 5 6 
#
# 1 0.021002 -0.000154 -0.003763 0.000000 0.000000 0.000000
# 2 -0.000154 0.024617 -0.018781 0.000000 0.000000 0.000000
# 3 -0.003763 -0.018781 0.033659 0.000000 0.000000 0.000000
# 4 0.000000 0.000000 0.000000 0.029939 0.000000 0.000000
# 5 0.000000 0.000000 0.000000 0.000000 0.269438 0.000000
# 6 0.000000 0.000000 0.000000 0.000000 0.000000 0.091237
#
#
# Mechanical properties :
#
#
# Convention : Reuss Voigt Hill
#
# Bulk Modulus (GPa) = 29.51301 32.54177 31.02739
# Shear Modulus (GPa) = 9.49525 17.36857 13.43191
#
# Velocity S-wave (km/s) = 2.26669 3.06564 2.69592
# Velocity P-wave (km/s) = 4.77703 5.48992 5.14583
#
# Compressibility (1/GPa) = 0.03388336
#
# Stress axis : x y z
#
# Youngs Moduli (GPa) = 47.61395 40.62294 29.71005
#
# Poissons Ratio (x) = 0.00624 0.11179
# Poissons Ratio (y) = 0.00732 0.55797
# Poissons Ratio (z) = 0.17916 0.76292
#
# Static dielectric constant tensor:
#      x y z
#    x 1.664590 0.000000 0.000000 
#    y 0.000000 1.620590 0.000000 
#    z 0.000000 0.000000 1.648730 
# 
# From -- ./inp_files/16226.got.cif
#   From: 2010.05.17/outbox.cif.g08.bks.cpg/sg53_9_cif.got.tgz:16226.got - 2010.06.03 12:45:16.
