data_PCOD9414476
_publ_section_title
;
Structure prediction by ZEFSAII (Michael W. Deem and Ramdas Pophale) SiO2 
 PCOD9414476
Probable space group: P M N A
;
_chemical_formula_sum "Si O2"
_cell_formula_units_Z 56
_cell_length_a 9.003666
_cell_length_b 18.561634
_cell_length_c 20.360951
_cell_angle_alpha 90.000000
_cell_angle_beta 90.000000
_cell_angle_gamma 90.000000
_cell_volume 3402.778184
_symmetry_space_group_name_H-M "P M N A"
_symmetry_group_IT_number 53
_symmetry_cell_setting 'orthorhombic'
loop_
_space_group_symop_operation_xyz
x,y,z
1/2-x,-y,1/2+z
x,-y,-z
1/2-x,y,1/2-z
-x,-y,-z
1/2+x,y,1/2-z
-x,y,z
1/2+x,-y,1/2+z
loop_
_atom_site_type_symbol
_atom_site_label
_atom_site_fract_x
_atom_site_fract_y
_atom_site_fract_z
Si Si1 0.677343 0.711831 0.885455
Si Si2 0.176401 0.536639 0.071070
Si Si3 0.818797 0.988381 0.075773
Si Si4 0.677214 0.686078 0.038755
Si Si5 0.821237 0.435948 0.319586
Si Si6 0.827001 0.858118 0.899518
Si Si7 0.673908 0.167511 0.557875
O O1 0.500000 0.717596 0.882818
O O2 0.724245 0.645442 0.840132
O O3 0.744832 0.789636 0.869641
O O4 0.716225 0.691520 0.960958
O O5 0.240644 0.617153 0.068015
O O6 0.260227 0.489542 0.125170
O O7 0.000000 0.537270 0.083556
O O8 0.201536 0.500000 0.000000
O O9 0.775230 0.906675 0.092842
O O10 0.000000 0.989174 0.076256
O O11 0.770236 0.060517 0.113782
O O12 0.772781 0.000000 0.000000
O O13 0.500000 0.678249 0.044114
O O14 0.731620 0.761185 0.069991
O O15 0.750000 0.454065 0.250000
O O16 0.000000 0.439053 0.317357
O O17 0.000000 0.854650 0.881585
O O18 0.818507 0.847970 0.979066
O O19 0.500000 0.180226 0.572812
#
# Coordination Sequence:
#
# PCOD9414476 Si02
#       7
#     8   8   8   8   8   8   8
#     4   9  18  30  44  64  93 125 156 195 244 290
#     4  11  22  35  54  77  98 125 167 210 250 302
#     4   7  10  18  32  52  80 115 152 190 231 273
#     4  10  18  29  45  67  95 126 160 199 247 295
#     4  11  23  39  55  73 100 132 165 205 255 303
#     4   8  13  21  37  58  81 115 158 195 227 273
#     4   8  13  22  36  56  85 119 155 194 235 279
#
# _framework density 16.457141
#
# number of rings (size 3 to 8) (size 9 to 14) (size 15 to 20)
#    0.000    2.857    1.429    3.000    0.000    2.286 
#    0.000    0.714    0.000    4.286    0.000    0.000 
#    0.000    1.143    0.000    7.429    0.000    8.571 
#
# Total GULP energy -311753.840838 kJ/mol
# GULP energy per Si atom -5567.032872 kJ/mol
# Density = 1.641968 g / cm^3
# Si number density = 16.457141 Si / 1000 Ang^3
#
#
#
# Elastic Constant Matrix: (Units=GPa)
#
#
# Indices 1 2 3 4 5 6 
#
# 1 42.5932 48.3806 28.8023 0.0000 0.0000 0.0000
# 2 48.3806 146.1409 33.0359 0.0000 0.0000 0.0000
# 3 28.8023 33.0359 41.6673 0.0000 0.0000 0.0000
# 4 0.0000 0.0000 0.0000 8.9515 0.0000 0.0000
# 5 0.0000 0.0000 0.0000 0.0000 9.7928 0.0000
# 6 0.0000 0.0000 0.0000 0.0000 0.0000 21.6305
#
#
#
# Elastic Compliance Matrix: (Units=1/GPa)
#
#
# Indices 1 2 3 4 5 6 
#
# 1 0.057992 -0.012350 -0.030295 0.000000 0.000000 0.000000
# 2 -0.012350 0.010967 -0.000158 0.000000 0.000000 0.000000
# 3 -0.030295 -0.000158 0.045066 0.000000 0.000000 0.000000
# 4 0.000000 0.000000 0.000000 0.111713 0.000000 0.000000
# 5 0.000000 0.000000 0.000000 0.000000 0.102116 0.000000
# 6 0.000000 0.000000 0.000000 0.000000 0.000000 0.046231
#
#
# Mechanical properties :
#
#
# Convention : Reuss Voigt Hill
#
# Bulk Modulus (GPa) = 35.18791 50.09321 42.64056
# Shear Modulus (GPa) = 10.65724 16.08715 13.37219
#
# Velocity S-wave (km/s) = 2.54751 3.12992 2.85361
# Velocity P-wave (km/s) = 5.48462 6.60049 6.06826
#
# Compressibility (1/GPa) = 0.02841885
#
# Stress axis : x y z
#
# Youngs Moduli (GPa) = 17.24364 91.18184 22.18957
#
# Poissons Ratio (x) = 1.12612 0.67223
# Poissons Ratio (y) = 0.21296 0.00351
# Poissons Ratio (z) = 0.52240 0.01442
#
# Static dielectric constant tensor:
#      x y z
#    x 1.545550 0.000000 0.000000 
#    y 0.000000 1.594510 0.000000 
#    z 0.000000 0.000000 1.536430 
# 
# From -- ./inp_files/31041.got.cif
#   From: 2010.05.17/outbox.cif.g08.bks.cpg/sg53_16_cif.got.tgz:31041.got - 2010.06.03 12:45:16.
