data_PCOD9414797
_publ_section_title
;
Structure prediction by ZEFSAII (Michael W. Deem and Ramdas Pophale) SiO2 
 PCOD9414797
Probable space group: P M N A
;
_chemical_formula_sum "Si O2"
_cell_formula_units_Z 48
_cell_length_a 28.672281
_cell_length_b 14.973810
_cell_length_c 6.224430
_cell_angle_alpha 90.000000
_cell_angle_beta 90.000000
_cell_angle_gamma 90.000000
_cell_volume 2672.354998
_symmetry_space_group_name_H-M "P M N A"
_symmetry_group_IT_number 53
_symmetry_cell_setting 'orthorhombic'
loop_
_space_group_symop_operation_xyz
x,y,z
1/2-x,-y,1/2+z
x,-y,-z
1/2-x,y,1/2-z
-x,-y,-z
1/2+x,y,1/2-z
-x,y,z
1/2+x,-y,1/2+z
loop_
_atom_site_type_symbol
_atom_site_label
_atom_site_fract_x
_atom_site_fract_y
_atom_site_fract_z
Si Si1 0.702611 0.905700 0.616704
Si Si2 0.053468 0.579633 0.658315
Si Si3 0.197392 0.738636 0.212626
Si Si4 0.553089 0.755472 0.145526
Si Si5 0.363928 0.815709 0.905533
Si Si6 0.886743 0.676770 0.972840
O O1 0.750000 0.895396 0.750000
O O2 0.699966 0.825135 0.444447
O O3 0.660026 0.897593 0.784639
O O4 0.702382 0.000000 0.500000
O O5 0.067369 0.500000 0.500000
O O6 0.052909 0.669727 0.514069
O O7 0.088463 0.594481 0.855152
O O8 0.000000 0.563589 0.731234
O O9 0.250000 0.706406 0.250000
O O10 0.173536 0.772317 0.432031
O O11 0.161242 0.668527 0.106267
O O12 0.500000 0.785658 0.172294
O O13 0.575887 0.721491 0.366477
O O14 0.588633 0.826382 0.040273
O O15 0.374840 0.745496 0.717372
#
# Coordination Sequence:
#
# PCOD9414797 Si02
#       6
#     8   8   8   8   8   8
#     4  11  21  30  48  76 107 137 160 202 265 317
#     4   9  17  29  46  72 107 133 158 202 259 315
#     4  10  18  32  49  69 102 128 166 211 253 302
#     4   9  17  31  51  73 101 136 171 209 253 296
#     4   9  19  33  47  72 104 131 169 207 245 302
#     4   9  18  29  46  70 100 127 170 206 251 304
#
# _framework density 17.961684000000002
#
# number of rings (size 3 to 8) (size 9 to 14) (size 15 to 20)
#    0.000    2.500    1.667    1.000    0.000    1.333 
#    0.000    2.500    0.000    0.500    0.000   10.500 
#  180.000    0.000    0.000    0.000    0.000    0.000 
#
# Total GULP energy -267483.545712 kJ/mol
# GULP energy per Si atom -5572.573869 kJ/mol
# Density = 1.792080 g / cm^3
# Si number density = 17.961684 Si / 1000 Ang^3
#
#
#
# Elastic Constant Matrix: (Units=GPa)
#
#
# Indices 1 2 3 4 5 6 
#
# 1 148.0648 12.7395 56.2082 0.0000 0.0000 0.0000
# 2 12.7395 23.1703 12.0031 0.0000 0.0000 0.0000
# 3 56.2082 12.0031 91.0524 0.0000 0.0000 0.0000
# 4 0.0000 0.0000 0.0000 24.2988 0.0000 0.0000
# 5 0.0000 0.0000 0.0000 0.0000 27.8093 0.0000
# 6 0.0000 0.0000 0.0000 0.0000 0.0000 13.1827
#
#
#
# Elastic Compliance Matrix: (Units=1/GPa)
#
#
# Indices 1 2 3 4 5 6 
#
# 1 0.008925 -0.002203 -0.005219 0.000000 0.000000 0.000000
# 2 -0.002203 0.046866 -0.004818 0.000000 0.000000 0.000000
# 3 -0.005219 -0.004818 0.014839 0.000000 0.000000 0.000000
# 4 0.000000 0.000000 0.000000 0.041154 0.000000 0.000000
# 5 0.000000 0.000000 0.000000 0.000000 0.035959 0.000000
# 6 0.000000 0.000000 0.000000 0.000000 0.000000 0.075857
#
#
# Mechanical properties :
#
#
# Convention : Reuss Voigt Hill
#
# Bulk Modulus (GPa) = 21.66860 47.13211 34.40035
# Shear Modulus (GPa) = 18.97792 25.14728 22.06260
#
# Velocity S-wave (km/s) = 3.25403 3.74579 3.50853
# Velocity P-wave (km/s) = 5.11940 6.70859 5.96714
#
# Compressibility (1/GPa) = 0.04614974
#
# Stress axis : x y z
#
# Youngs Moduli (GPa) = 112.05070 21.33742 67.38779
#
# Poissons Ratio (x) = 0.04701 0.35168
# Poissons Ratio (y) = 0.24689 0.32467
# Poissons Ratio (z) = 0.58477 0.10280
#
# Static dielectric constant tensor:
#      x y z
#    x 1.646720 0.000000 0.000000 
#    y 0.000000 1.588830 0.000000 
#    z 0.000000 0.000000 1.633830 
# 
# From -- ./inp_files/4501.got.cif
#   From: 2010.05.17/outbox.cif.g08.bks.cpg/sg53_3_cif.got.tgz:4501.got - 2010.06.03 12:45:16.
