data_PCOD9414292
_publ_section_title
;
Structure prediction by ZEFSAII (Michael W. Deem and Ramdas Pophale) SiO2 
 PCOD9414292
Probable space group: P M N A
;
_chemical_formula_sum "Si O2"
_cell_formula_units_Z 56
_cell_length_a 17.941999
_cell_length_b 9.535444
_cell_length_c 17.739524
_cell_angle_alpha 90.000000
_cell_angle_beta 90.000000
_cell_angle_gamma 90.000000
_cell_volume 3034.965163
_symmetry_space_group_name_H-M "P M N A"
_symmetry_group_IT_number 53
_symmetry_cell_setting 'orthorhombic'
loop_
_space_group_symop_operation_xyz
x,y,z
1/2-x,-y,1/2+z
x,-y,-z
1/2-x,y,1/2-z
-x,-y,-z
1/2+x,y,1/2-z
-x,y,z
1/2+x,-y,1/2+z
loop_
_atom_site_type_symbol
_atom_site_label
_atom_site_fract_x
_atom_site_fract_y
_atom_site_fract_z
Si Si1 0.587239 0.819755 0.785992
Si Si2 0.585810 0.442846 0.586089
Si Si3 0.917119 0.243725 0.115431
Si Si4 0.244444 0.299853 0.886080
Si Si5 0.786596 0.006266 0.671968
Si Si6 0.295617 0.413058 0.172361
Si Si7 0.730373 0.203474 0.448369
O O1 0.500000 0.812886 0.802897
O O2 0.596353 0.828480 0.695481
O O3 0.628403 0.954811 0.820948
O O4 0.630323 0.679615 0.814070
O O5 0.596542 0.500000 0.500000
O O6 0.500000 0.386074 0.591271
O O7 0.587241 0.589467 0.631297
O O8 0.657062 0.350843 0.611787
O O9 0.858767 0.197919 0.052824
O O10 0.000000 0.214243 0.088836
O O11 0.295416 0.429445 0.859283
O O12 0.263735 0.167164 0.834659
O O13 0.260457 0.247511 0.971047
O O14 0.750000 0.948641 0.750000
O O15 0.758043 0.933645 0.595080
O O16 0.250000 0.414715 0.250000
O O17 0.250447 0.326496 0.109852
#
# Coordination Sequence:
#
# PCOD9414292 Si02
#       7
#     8   8   8   8   8   8   8
#     4  10  20  38  63  83 107 151 203 247 288 342
#     4  10  18  30  51  84 123 156 184 223 281 348
#     4  10  17  30  58  87 111 149 196 232 270 340
#     4  12  22  33  55  88 122 156 189 241 302 342
#     4  11  23  39  56  81 116 155 201 245 287 348
#     4  11  19  35  59  87 116 145 195 245 284 344
#     4  11  19  36  56  83 113 153 199 237 275 348
#
# _framework density 18.451612000000001
#
# number of rings (size 3 to 8) (size 9 to 14) (size 15 to 20)
#    0.000    1.286    5.714    2.143    0.000    0.000 
#    0.000    2.143    0.000   15.429    0.000    0.000 
#    0.000    0.000    0.000    0.000    0.000    0.000 
#
# Total GULP energy -312076.846132 kJ/mol
# GULP energy per Si atom -5572.800824 kJ/mol
# Density = 1.840962 g / cm^3
# Si number density = 18.451612 Si / 1000 Ang^3
#
#
#
# Elastic Constant Matrix: (Units=GPa)
#
#
# Indices 1 2 3 4 5 6 
#
# 1 112.9842 28.8546 21.2661 0.0000 0.0000 0.0000
# 2 28.8546 84.6699 16.1960 0.0000 0.0000 0.0000
# 3 21.2661 16.1960 78.2721 0.0000 0.0000 0.0000
# 4 0.0000 0.0000 0.0000 17.6432 0.0000 0.0000
# 5 0.0000 0.0000 0.0000 0.0000 19.7685 0.0000
# 6 0.0000 0.0000 0.0000 0.0000 0.0000 15.9556
#
#
#
# Elastic Compliance Matrix: (Units=1/GPa)
#
#
# Indices 1 2 3 4 5 6 
#
# 1 0.010015 -0.003012 -0.002098 0.000000 0.000000 0.000000
# 2 -0.003012 0.013203 -0.001914 0.000000 0.000000 0.000000
# 3 -0.002098 -0.001914 0.013742 0.000000 0.000000 0.000000
# 4 0.000000 0.000000 0.000000 0.056679 0.000000 0.000000
# 5 0.000000 0.000000 0.000000 0.000000 0.050585 0.000000
# 6 0.000000 0.000000 0.000000 0.000000 0.000000 0.062674
#
#
# Mechanical properties :
#
#
# Convention : Reuss Voigt Hill
#
# Bulk Modulus (GPa) = 43.64269 45.39551 44.51910
# Shear Modulus (GPa) = 21.87396 24.64742 23.26069
#
# Velocity S-wave (km/s) = 3.44681 3.65881 3.55439
# Velocity P-wave (km/s) = 6.28844 6.51959 6.40506
#
# Compressibility (1/GPa) = 0.02291334
#
# Stress axis : x y z
#
# Youngs Moduli (GPa) = 99.85244 75.74050 72.77024
#
# Poissons Ratio (x) = 0.22810 0.15266
# Poissons Ratio (y) = 0.30072 0.13926
# Poissons Ratio (z) = 0.20947 0.14495
#
# Static dielectric constant tensor:
#      x y z
#    x 1.660530 0.000000 0.000000 
#    y 0.000000 1.685750 0.000000 
#    z 0.000000 0.000000 1.655820 
# 
# From -- ./inp_files/32796.got.cif
#   From: 2010.05.17/outbox.cif.g08.bks.cpg/sg53_17_cif.got.tgz:32796.got - 2010.06.03 12:45:16.
