data_PCOD9414632
_publ_section_title
;
Structure prediction by ZEFSAII (Michael W. Deem and Ramdas Pophale) SiO2 
 PCOD9414632
Probable space group: P M N A
;
_chemical_formula_sum "Si O2"
_cell_formula_units_Z 64
_cell_length_a 17.795549
_cell_length_b 17.238227
_cell_length_c 11.581110
_cell_angle_alpha 90.000000
_cell_angle_beta 90.000000
_cell_angle_gamma 90.000000
_cell_volume 3552.664307
_symmetry_space_group_name_H-M "P M N A"
_symmetry_group_IT_number 53
_symmetry_cell_setting 'orthorhombic'
loop_
_space_group_symop_operation_xyz
x,y,z
1/2-x,-y,1/2+z
x,-y,-z
1/2-x,y,1/2-z
-x,-y,-z
1/2+x,y,1/2-z
-x,y,z
1/2+x,-y,1/2+z
loop_
_atom_site_type_symbol
_atom_site_label
_atom_site_fract_x
_atom_site_fract_y
_atom_site_fract_z
Si Si1 0.912724 0.583244 0.641851
Si Si2 0.683458 0.723027 0.829252
Si Si3 0.586115 0.139212 0.088826
Si Si4 0.147315 0.166402 0.659070
Si Si5 0.244305 0.301679 0.922548
Si Si6 0.706522 0.005730 0.132993
Si Si7 0.916387 0.285257 0.822429
Si Si8 0.373538 0.406286 0.872245
O O1 0.858871 0.644145 0.704947
O O2 0.886476 0.495129 0.660813
O O3 0.904807 0.600774 0.503520
O O4 0.000000 0.591306 0.672802
O O5 0.750000 0.751303 0.750000
O O6 0.620953 0.788508 0.843348
O O7 0.727451 0.705994 0.947668
O O8 0.500000 0.124354 0.115910
O O9 0.637668 0.064581 0.112144
O O10 0.596118 0.164192 0.955287
O O11 0.215362 0.227167 0.636584
O O12 0.178762 0.080079 0.667516
O O13 0.101073 0.201643 0.764968
O O14 0.155636 0.302592 0.902575
O O15 0.287116 0.377841 0.875458
O O16 0.750000 0.032978 0.250000
O O17 0.741683 0.000000 0.000000
O O18 0.912132 0.347188 0.716779
O O19 0.000000 0.287909 0.873305
#
# Coordination Sequence:
#
# PCOD9414632 Si02
#       8
#     8   8   8   8   8   8   8   8
#     4  10  18  30  50  77  98 118 161 212 250 287
#     4  10  21  36  52  68  93 133 172 206 249 303
#     4  10  20  34  53  78 103 128 168 222 265 295
#     4   9  18  32  52  76 103 133 167 207 254 306
#     4   9  19  33  49  71  98 129 167 203 245 306
#     4  10  20  34  55  79 107 142 175 212 259 317
#     4  11  19  29  48  74 105 135 161 199 252 303
#     4   9  17  30  49  73 101 128 154 197 253 304
#
# _framework density 18.014648000000001
#
# number of rings (size 3 to 8) (size 9 to 14) (size 15 to 20)
#    0.000    2.250    0.000    5.625    0.000    3.750 
#    0.000    1.250    0.000    0.375    0.000    8.750 
#    0.000    0.000    0.000    0.000    0.000    0.000 
#
# Total GULP energy -356533.163109 kJ/mol
# GULP energy per Si atom -5570.830674 kJ/mol
# Density = 1.797365 g / cm^3
# Si number density = 18.014648 Si / 1000 Ang^3
#
#
#
# Elastic Constant Matrix: (Units=GPa)
#
#
# Indices 1 2 3 4 5 6 
#
# 1 141.7941 22.4378 29.5692 0.0000 0.0000 0.0000
# 2 22.4378 64.1720 7.5187 0.0000 0.0000 0.0000
# 3 29.5692 7.5187 44.9152 0.0000 0.0000 0.0000
# 4 0.0000 0.0000 0.0000 6.5787 0.0000 0.0000
# 5 0.0000 0.0000 0.0000 0.0000 16.2833 0.0000
# 6 0.0000 0.0000 0.0000 0.0000 0.0000 8.8726
#
#
#
# Elastic Compliance Matrix: (Units=1/GPa)
#
#
# Indices 1 2 3 4 5 6 
#
# 1 0.008513 -0.002366 -0.005208 0.000000 0.000000 0.000000
# 2 -0.002366 0.016553 -0.001213 0.000000 0.000000 0.000000
# 3 -0.005208 -0.001213 0.025896 0.000000 0.000000 0.000000
# 4 0.000000 0.000000 0.000000 0.152006 0.000000 0.000000
# 5 0.000000 0.000000 0.000000 0.000000 0.061412 0.000000
# 6 0.000000 0.000000 0.000000 0.000000 0.000000 0.112707
#
#
# Mechanical properties :
#
#
# Convention : Reuss Voigt Hill
#
# Bulk Modulus (GPa) = 29.95236 41.10363 35.52799
# Shear Modulus (GPa) = 12.32161 19.10396 15.71278
#
# Velocity S-wave (km/s) = 2.61813 3.26002 2.95655
# Velocity P-wave (km/s) = 5.07959 6.08577 5.60530
#
# Compressibility (1/GPa) = 0.03338635
#
# Stress axis : x y z
#
# Youngs Moduli (GPa) = 117.46660 60.41328 38.61591
#
# Poissons Ratio (x) = 0.14296 0.20112
# Poissons Ratio (y) = 0.27797 0.04684
# Poissons Ratio (z) = 0.61180 0.07328
#
# Static dielectric constant tensor:
#      x y z
#    x 1.618260 0.000000 0.000000 
#    y 0.000000 1.619700 0.000000 
#    z 0.000000 0.000000 1.685790 
# 
# From -- ./inp_files/16252.got.cif
#   From: 2010.05.17/outbox.cif.g08.bks.cpg/sg53_9_cif.got.tgz:16252.got - 2010.06.03 12:45:16.
