data_PCOD9414151
_publ_section_title
;
Structure prediction by ZEFSAII (Michael W. Deem and Ramdas Pophale) SiO2 
 PCOD9414151
Probable space group: P M N A
;
_chemical_formula_sum "Si O2"
_cell_formula_units_Z 56
_cell_length_a 9.437633
_cell_length_b 18.082693
_cell_length_c 21.833490
_cell_angle_alpha 90.000000
_cell_angle_beta 90.000000
_cell_angle_gamma 90.000000
_cell_volume 3726.055810
_symmetry_space_group_name_H-M "P M N A"
_symmetry_group_IT_number 53
_symmetry_cell_setting 'orthorhombic'
loop_
_space_group_symop_operation_xyz
x,y,z
1/2-x,-y,1/2+z
x,-y,-z
1/2-x,y,1/2-z
-x,-y,-z
1/2+x,y,1/2-z
-x,y,z
1/2+x,-y,1/2+z
loop_
_atom_site_type_symbol
_atom_site_label
_atom_site_fract_x
_atom_site_fract_y
_atom_site_fract_z
Si Si1 0.835082 0.063280 0.585745
Si Si2 0.667108 0.548282 0.093534
Si Si3 0.170286 0.348814 0.814394
Si Si4 0.831452 0.240845 0.037446
Si Si5 0.666439 0.611830 0.956552
Si Si6 0.334115 0.902193 0.939785
Si Si7 0.332353 0.794803 0.394650
O O1 0.827253 0.080101 0.512701
O O2 0.748427 0.128654 0.617005
O O3 0.000000 0.067229 0.602964
O O4 0.787052 0.978224 0.593068
O O5 0.500000 0.557212 0.109210
O O6 0.767155 0.586943 0.142473
O O7 0.695280 0.461254 0.083518
O O8 0.688085 0.586710 0.027189
O O9 0.250000 0.351072 0.750000
O O10 0.203197 0.271307 0.848642
O O11 0.000000 0.354801 0.808142
O O12 0.761807 0.317700 0.057513
O O13 0.759621 0.170210 0.069727
O O14 0.000000 0.240797 0.045594
O O15 0.801420 0.231659 0.964330
O O16 0.500000 0.630547 0.950122
O O17 0.500000 0.888918 0.925665
O O18 0.500000 0.808328 0.391568
#
# Coordination Sequence:
#
# PCOD9414151 Si02
#       7
#     8   8   8   8   8   8   8
#     4   8  14  24  39  56  77 109 147 178 207 250
#     4   9  18  32  48  66  86 114 150 186 228 274
#     4  11  22  35  48  65  89 118 153 192 230 270
#     4  10  17  25  39  62  89 117 148 180 218 265
#     4   9  17  29  46  66  89 116 148 184 224 275
#     4   8  14  24  36  55  82 112 144 176 209 248
#     4   9  18  29  40  58  85 113 145 183 223 262
#
# _framework density 15.029297
#
# number of rings (size 3 to 8) (size 9 to 14) (size 15 to 20)
#    0.000    2.857    1.429    2.571    0.000    2.857 
#    0.000    4.286    0.000    0.000    0.000    0.000 
#    0.000    1.143    0.000    8.000    0.000    6.286 
#
# Total GULP energy -311836.200448 kJ/mol
# GULP energy per Si atom -5568.503579 kJ/mol
# Density = 1.499509 g / cm^3
# Si number density = 15.029297 Si / 1000 Ang^3
#
#
#
# Elastic Constant Matrix: (Units=GPa)
#
#
# Indices 1 2 3 4 5 6 
#
# 1 66.2700 82.4073 34.4764 0.0000 0.0000 0.0000
# 2 82.4073 149.2860 34.5499 0.0000 0.0000 0.0000
# 3 34.4764 34.5499 43.9852 0.0000 0.0000 0.0000
# 4 0.0000 0.0000 0.0000 9.0353 0.0000 0.0000
# 5 0.0000 0.0000 0.0000 0.0000 10.9310 0.0000
# 6 0.0000 0.0000 0.0000 0.0000 0.0000 27.5776
#
#
#
# Elastic Compliance Matrix: (Units=1/GPa)
#
#
# Indices 1 2 3 4 5 6 
#
# 1 0.070488 -0.031928 -0.030171 0.000000 0.000000 0.000000
# 2 -0.031928 0.022648 0.007235 0.000000 0.000000 0.000000
# 3 -0.030171 0.007235 0.040700 0.000000 0.000000 0.000000
# 4 0.000000 0.000000 0.000000 0.110677 0.000000 0.000000
# 5 0.000000 0.000000 0.000000 0.000000 0.091483 0.000000
# 6 0.000000 0.000000 0.000000 0.000000 0.000000 0.036261
#
#
# Mechanical properties :
#
#
# Convention : Reuss Voigt Hill
#
# Bulk Modulus (GPa) = 41.47631 62.48983 51.98307
# Shear Modulus (GPa) = 10.20362 16.71595 13.45979
#
# Velocity S-wave (km/s) = 2.60843 3.33862 2.99585
# Velocity P-wave (km/s) = 6.06042 7.51870 6.82860
#
# Compressibility (1/GPa) = 0.02411015
#
# Stress axis : x y z
#
# Youngs Moduli (GPa) = 14.18676 44.15334 24.56975
#
# Poissons Ratio (x) = 1.40971 0.74130
# Poissons Ratio (y) = 0.45295 -0.17777
# Poissons Ratio (z) = 0.42803 -0.31946
#
# Static dielectric constant tensor:
#      x y z
#    x 1.494970 0.000000 0.000000 
#    y 0.000000 1.510710 0.000000 
#    z 0.000000 0.000000 1.472340 
# 
# From -- ./inp_files/30980.got.cif
#   From: 2010.05.17/outbox.cif.g08.bks.cpg/sg53_16_cif.got.tgz:30980.got - 2010.06.03 12:45:16.
