data_PCOD9414571
_publ_section_title
;
Structure prediction by ZEFSAII (Michael W. Deem and Ramdas Pophale) SiO2 
 PCOD9414571
Probable space group: P M N A
;
_chemical_formula_sum "Si O2"
_cell_formula_units_Z 56
_cell_length_a 8.598758
_cell_length_b 14.081500
_cell_length_c 29.266951
_cell_angle_alpha 90.000000
_cell_angle_beta 90.000000
_cell_angle_gamma 90.000000
_cell_volume 3543.742250
_symmetry_space_group_name_H-M "P M N A"
_symmetry_group_IT_number 53
_symmetry_cell_setting 'orthorhombic'
loop_
_space_group_symop_operation_xyz
x,y,z
1/2-x,-y,1/2+z
x,-y,-z
1/2-x,y,1/2-z
-x,-y,-z
1/2+x,y,1/2-z
-x,y,z
1/2+x,-y,1/2+z
loop_
_atom_site_type_symbol
_atom_site_label
_atom_site_fract_x
_atom_site_fract_y
_atom_site_fract_z
Si Si1 0.188538 0.896090 0.016055
Si Si2 0.182910 0.393827 0.950946
Si Si3 0.687840 0.578928 0.605978
Si Si4 0.183124 0.285384 0.464881
Si Si5 0.816218 0.798737 0.106295
Si Si6 0.812492 0.492128 0.799213
Si Si7 0.811628 0.729543 0.200738
O O1 0.246867 0.868330 0.067035
O O2 0.000000 0.894052 0.017218
O O3 0.241276 0.812703 0.982037
O O4 0.238652 0.000000 0.000000
O O5 0.233671 0.489170 0.925770
O O6 0.195202 0.306461 0.915552
O O7 0.000000 0.402828 0.963225
O O8 0.273458 0.362211 0.995865
O O9 0.500000 0.582258 0.605627
O O10 0.752431 0.672958 0.582396
O O11 0.738843 0.554342 0.657466
O O12 0.000000 0.273723 0.462535
O O13 0.753212 0.790638 0.157580
O O14 0.000000 0.820410 0.110544
O O15 0.750000 0.523362 0.750000
O O16 0.765620 0.381405 0.805797
O O17 0.000000 0.493490 0.798303
O O18 0.750000 0.760378 0.250000
O O19 0.000000 0.731662 0.200874
#
# Coordination Sequence:
#
# PCOD9414571 Si02
#       7
#     8   8   8   8   8   8   8
#     4   9  18  34  55  72  85 110 152 195 232 280
#     4   9  16  29  46  62  86 123 161 189 215 256
#     4  10  18  30  47  64  87 125 165 192 219 261
#     4  11  22  31  42  66  96 121 146 184 234 278
#     4   8  13  25  45  66  88 114 146 184 223 263
#     4   9  17  28  43  63  88 122 159 191 223 262
#     4   9  15  25  40  61  89 120 150 179 214 258
#
# _framework density 15.802504000000001
#
# number of rings (size 3 to 8) (size 9 to 14) (size 15 to 20)
#    0.000    2.714    1.429    2.571    0.000    3.143 
#    0.000    2.857    0.000    0.000    0.000    1.000 
#    0.000    2.286    0.000    0.000    0.000    0.000 
#
# Total GULP energy -311978.356709 kJ/mol
# GULP energy per Si atom -5571.042084 kJ/mol
# Density = 1.576654 g / cm^3
# Si number density = 15.802504 Si / 1000 Ang^3
#
#
#
# Elastic Constant Matrix: (Units=GPa)
#
#
# Indices 1 2 3 4 5 6 
#
# 1 9.9037 14.1617 22.0532 0.0000 0.0000 0.0000
# 2 14.1617 74.4187 74.3842 0.0000 0.0000 0.0000
# 3 22.0532 74.3842 140.2799 0.0000 0.0000 0.0000
# 4 0.0000 0.0000 0.0000 18.0171 0.0000 0.0000
# 5 0.0000 0.0000 0.0000 0.0000 21.5837 0.0000
# 6 0.0000 0.0000 0.0000 0.0000 0.0000 8.2305
#
#
#
# Elastic Compliance Matrix: (Units=1/GPa)
#
#
# Indices 1 2 3 4 5 6 
#
# 1 0.159677 -0.011266 -0.019128 0.000000 0.000000 0.000000
# 2 -0.011266 0.029386 -0.013811 0.000000 0.000000 0.000000
# 3 -0.019128 -0.013811 0.017459 0.000000 0.000000 0.000000
# 4 0.000000 0.000000 0.000000 0.055503 0.000000 0.000000
# 5 0.000000 0.000000 0.000000 0.000000 0.046331 0.000000
# 6 0.000000 0.000000 0.000000 0.000000 0.000000 0.121499
#
#
# Mechanical properties :
#
#
# Convention : Reuss Voigt Hill
#
# Bulk Modulus (GPa) = 8.46668 49.53340 29.00004
# Shear Modulus (GPa) = 8.96641 17.16648 13.06645
#
# Velocity S-wave (km/s) = 2.38461 3.29950 2.87864
# Velocity P-wave (km/s) = 3.59879 6.77709 5.42587
#
# Compressibility (1/GPa) = 0.11811003
#
# Stress axis : x y z
#
# Youngs Moduli (GPa) = 6.26266 34.02983 57.27675
#
# Poissons Ratio (x) = 0.38339 1.09562
# Poissons Ratio (y) = 0.07056 0.79104
# Poissons Ratio (z) = 0.11980 0.46998
#
# Static dielectric constant tensor:
#      x y z
#    x 1.537030 0.000000 0.000000 
#    y 0.000000 1.510050 0.000000 
#    z 0.000000 0.000000 1.555600 
# 
# From -- ./inp_files/38374.got.cif
#   From: 2010.05.17/outbox.cif.g08.bks.cpg/sg53_20_cif.got.tgz:38374.got - 2010.06.03 12:45:16.
