data_PCOD9414981
_publ_section_title
;
Structure prediction by ZEFSAII (Michael W. Deem and Ramdas Pophale) SiO2 
 PCOD9414981
Probable space group: P M N A
;
_chemical_formula_sum "Si O2"
_cell_formula_units_Z 32
_cell_length_a 9.687448
_cell_length_b 19.744973
_cell_length_c 8.836774
_cell_angle_alpha 90.000000
_cell_angle_beta 90.000000
_cell_angle_gamma 90.000000
_cell_volume 1690.283985
_symmetry_space_group_name_H-M "P M N A"
_symmetry_group_IT_number 53
_symmetry_cell_setting 'orthorhombic'
loop_
_space_group_symop_operation_xyz
x,y,z
1/2-x,-y,1/2+z
x,-y,-z
1/2-x,y,1/2-z
-x,-y,-z
1/2+x,y,1/2-z
-x,y,z
1/2+x,-y,1/2+z
loop_
_atom_site_type_symbol
_atom_site_label
_atom_site_fract_x
_atom_site_fract_y
_atom_site_fract_z
Si Si1 0.000000 0.577120 0.059942
Si Si2 0.000000 0.572174 0.425323
Si Si3 0.330001 0.818548 0.088225
Si Si4 0.163384 0.068351 0.098229
Si Si5 0.255904 0.668083 0.066187
O O1 0.000000 0.568724 0.242727
O O2 0.124194 0.626433 0.014569
O O3 0.000000 0.500000 0.000000
O O4 0.000000 0.500000 0.500000
O O5 0.126247 0.616778 0.476812
O O6 0.250000 0.822703 0.250000
O O7 0.500000 0.824639 0.101085
O O8 0.291250 0.744555 0.020563
O O9 0.254331 0.875126 0.988039
O O10 0.250000 0.054657 0.250000
O O11 0.000000 0.087583 0.122620
O O12 0.161438 0.000000 0.000000
O O13 0.250000 0.671685 0.250000
#
# Coordination Sequence:
#
# PCOD9414981 Si02
#       5
#     4   4   8   8   8
#     4  10  20  34  52  80 109 148 195 248 303 360
#     4  10  18  34  54  76 109 146 193 244 299 358
#     4  11  22  38  64  94 123 162 209 257 309 367
#     4  11  25  44  67  96 130 167 204 249 301 358
#     4   9  19  33  55  81 110 150 198 246 296 362
#
# _framework density 18.931729000000001
#
# number of rings (size 3 to 8) (size 9 to 14) (size 15 to 20)
#    0.000    1.750    1.250    3.000    7.000    4.000 
#    0.000    2.500    0.000    0.000    0.000    0.000 
#    0.000    0.000    0.000    0.000    0.000    0.000 
#
# Total GULP energy -178146.337701 kJ/mol
# GULP energy per Si atom -5567.073053 kJ/mol
# Density = 1.888864 g / cm^3
# Si number density = 18.931729 Si / 1000 Ang^3
#
#
#
# Elastic Constant Matrix: (Units=GPa)
#
#
# Indices 1 2 3 4 5 6 
#
# 1 232.2984 92.2623 45.7815 0.0000 0.0000 0.0000
# 2 92.2623 161.7091 41.1372 0.0000 0.0000 0.0000
# 3 45.7815 41.1372 53.8164 0.0000 0.0000 0.0000
# 4 0.0000 0.0000 0.0000 39.5436 0.0000 0.0000
# 5 0.0000 0.0000 0.0000 0.0000 20.8324 0.0000
# 6 0.0000 0.0000 0.0000 0.0000 0.0000 38.9765
#
#
#
# Elastic Compliance Matrix: (Units=1/GPa)
#
#
# Indices 1 2 3 4 5 6 
#
# 1 0.005946 -0.002614 -0.003060 0.000000 0.000000 0.000000
# 2 -0.002614 0.008826 -0.004523 0.000000 0.000000 0.000000
# 3 -0.003060 -0.004523 0.024642 0.000000 0.000000 0.000000
# 4 0.000000 0.000000 0.000000 0.025289 0.000000 0.000000
# 5 0.000000 0.000000 0.000000 0.000000 0.048002 0.000000
# 6 0.000000 0.000000 0.000000 0.000000 0.000000 0.025656
#
#
# Mechanical properties :
#
#
# Convention : Reuss Voigt Hill
#
# Bulk Modulus (GPa) = 52.57552 89.57619 71.07586
# Shear Modulus (GPa) = 30.28548 37.78003 34.03276
#
# Velocity S-wave (km/s) = 4.00399 4.47205 4.24448
# Velocity P-wave (km/s) = 7.01479 8.60719 7.85147
#
# Compressibility (1/GPa) = 0.01902026
#
# Stress axis : x y z
#
# Youngs Moduli (GPa) = 168.17636 113.30257 40.58080
#
# Poissons Ratio (x) = 0.29618 0.12418
# Poissons Ratio (y) = 0.43962 0.18354
# Poissons Ratio (z) = 0.51465 0.51244
#
# Static dielectric constant tensor:
#      x y z
#    x 1.636870 0.000000 0.000000 
#    y 0.000000 1.606630 0.000000 
#    z 0.000000 0.000000 1.687030 
# 
# From -- ./inp_files/6057.got.cif
#   From: 2010.05.17/outbox.cif.g08.bks.cpg/sg53_4_cif.got.tgz:6057.got - 2010.06.03 12:45:16.
