data_PCOD9414779
_publ_section_title
;
Structure prediction by ZEFSAII (Michael W. Deem and Ramdas Pophale) SiO2 
 PCOD9414779
Probable space group: P M N A
;
_chemical_formula_sum "Si O2"
_cell_formula_units_Z 52
_cell_length_a 13.466833
_cell_length_b 11.896736
_cell_length_c 19.041485
_cell_angle_alpha 90.000000
_cell_angle_beta 90.000000
_cell_angle_gamma 90.000000
_cell_volume 3050.662150
_symmetry_space_group_name_H-M "P M N A"
_symmetry_group_IT_number 53
_symmetry_cell_setting 'orthorhombic'
loop_
_space_group_symop_operation_xyz
x,y,z
1/2-x,-y,1/2+z
x,-y,-z
1/2-x,y,1/2-z
-x,-y,-z
1/2+x,y,1/2-z
-x,y,z
1/2+x,-y,1/2+z
loop_
_atom_site_type_symbol
_atom_site_label
_atom_site_fract_x
_atom_site_fract_y
_atom_site_fract_z
Si Si1 0.382330 0.915586 0.176136
Si Si2 0.279318 0.064091 0.572909
Si Si3 0.750000 0.273195 0.750000
Si Si4 0.879426 0.687046 0.862050
Si Si5 0.882635 0.287792 0.975387
Si Si6 0.119136 0.077032 0.196527
Si Si7 0.382147 0.435351 0.654490
O O1 0.500000 0.898808 0.174575
O O2 0.333219 0.934903 0.100624
O O3 0.324820 0.808872 0.208433
O O4 0.359992 0.020637 0.228228
O O5 0.322643 0.187847 0.561207
O O6 0.291365 0.000000 0.500000
O O7 0.338783 0.002063 0.635093
O O8 0.816168 0.351329 0.800069
O O9 0.845990 0.795583 0.817960
O O10 0.849274 0.564077 0.835794
O O11 0.000000 0.685766 0.861229
O O12 0.850596 0.699776 0.943919
O O13 0.872410 0.397997 0.927089
O O14 0.000000 0.258106 0.975537
O O15 0.000000 0.077459 0.189480
O O16 0.500000 0.424534 0.671670
#
# Coordination Sequence:
#
# PCOD9414779 Si02
#       7
#     8   8   4   8   8   8   8
#     4  11  23  39  57  78 108 142 183 232 276 324
#     4  12  21  33  54  82 112 142 183 223 270 333
#     4  12  20  36  56  80 100 144 186 224 268 314
#     4   9  18  32  52  82 114 140 168 214 277 328
#     4  10  18  31  54  82 113 140 170 221 277 323
#     4  10  19  34  56  82 113 142 174 223 277 325
#     4  10  20  34  52  79 111 141 177 219 265 321
#
# _framework density 17.045480000000001
#
# number of rings (size 3 to 8) (size 9 to 14) (size 15 to 20)
#    0.000    1.538    4.615    1.385    0.000    5.231 
#    2.769    0.000    0.000    0.000    0.000    3.231 
#    0.000    0.000    0.000    0.000    0.000    0.000 
#
# Total GULP energy -290113.833948 kJ/mol
# GULP energy per Si atom -5579.112191 kJ/mol
# Density = 1.700668 g / cm^3
# Si number density = 17.045480 Si / 1000 Ang^3
#
#
#
# Elastic Constant Matrix: (Units=GPa)
#
#
# Indices 1 2 3 4 5 6 
#
# 1 53.8767 18.3607 10.3871 0.0000 0.0000 0.0000
# 2 18.3607 109.1851 17.0730 0.0000 0.0000 0.0000
# 3 10.3871 17.0730 48.5602 0.0000 0.0000 0.0000
# 4 0.0000 0.0000 0.0000 24.2079 0.0000 0.0000
# 5 0.0000 0.0000 0.0000 0.0000 23.6659 0.0000
# 6 0.0000 0.0000 0.0000 0.0000 0.0000 16.4965
#
#
#
# Elastic Compliance Matrix: (Units=1/GPa)
#
#
# Indices 1 2 3 4 5 6 
#
# 1 0.020178 -0.002876 -0.003305 0.000000 0.000000 0.000000
# 2 -0.002876 0.010102 -0.002936 0.000000 0.000000 0.000000
# 3 -0.003305 -0.002936 0.022332 0.000000 0.000000 0.000000
# 4 0.000000 0.000000 0.000000 0.041309 0.000000 0.000000
# 5 0.000000 0.000000 0.000000 0.000000 0.042255 0.000000
# 6 0.000000 0.000000 0.000000 0.000000 0.000000 0.060619
#
#
# Mechanical properties :
#
#
# Convention : Reuss Voigt Hill
#
# Bulk Modulus (GPa) = 29.08922 33.69596 31.39259
# Shear Modulus (GPa) = 22.07614 23.92749 23.00181
#
# Velocity S-wave (km/s) = 3.60270 3.75072 3.67745
# Velocity P-wave (km/s) = 5.86589 6.21035 6.04057
#
# Compressibility (1/GPa) = 0.03437700
#
# Stress axis : x y z
#
# Youngs Moduli (GPa) = 49.55808 98.99418 44.77828
#
# Poissons Ratio (x) = 0.28475 0.14799
# Poissons Ratio (y) = 0.14255 0.13148
# Poissons Ratio (z) = 0.16378 0.29067
#
# Static dielectric constant tensor:
#      x y z
#    x 1.562440 0.000000 0.000000 
#    y 0.000000 1.589100 0.000000 
#    z 0.000000 0.000000 1.574800 
# 
# From -- ./inp_files/28417.got.cif
#   From: 2010.05.17/outbox.cif.g08.bks.cpg/sg53_15_cif.got.tgz:28417.got - 2010.06.03 12:45:16.
