data_PCOD9414172
_publ_section_title
;
Structure prediction by ZEFSAII (Michael W. Deem and Ramdas Pophale) SiO2 
 PCOD9414172
Probable space group: P M N A
;
_chemical_formula_sum "Si O2"
_cell_formula_units_Z 56
_cell_length_a 7.804872
_cell_length_b 15.251280
_cell_length_c 27.243339
_cell_angle_alpha 90.000000
_cell_angle_beta 90.000000
_cell_angle_gamma 90.000000
_cell_volume 3242.891467
_symmetry_space_group_name_H-M "P M N A"
_symmetry_group_IT_number 53
_symmetry_cell_setting 'orthorhombic'
loop_
_space_group_symop_operation_xyz
x,y,z
1/2-x,-y,1/2+z
x,-y,-z
1/2-x,y,1/2-z
-x,-y,-z
1/2+x,y,1/2-z
-x,y,z
1/2+x,-y,1/2+z
loop_
_atom_site_type_symbol
_atom_site_label
_atom_site_fract_x
_atom_site_fract_y
_atom_site_fract_z
Si Si1 0.202803 0.753852 0.882660
Si Si2 0.793629 0.307028 0.566815
Si Si3 0.794869 0.885515 0.044830
Si Si4 0.698538 0.382409 0.035464
Si Si5 0.296115 0.616582 0.806561
Si Si6 0.209893 0.479592 0.612199
Si Si7 0.791110 0.923075 0.933824
O O1 0.291421 0.692334 0.923082
O O2 0.233500 0.707490 0.830741
O O3 0.261267 0.853224 0.892618
O O4 0.000000 0.749918 0.892702
O O5 0.747750 0.205423 0.570774
O O6 0.726009 0.343733 0.514423
O O7 0.737882 0.378480 0.607162
O O8 0.000000 0.309268 0.565432
O O9 0.000000 0.890923 0.042813
O O10 0.732121 0.976171 0.069267
O O11 0.736764 0.887382 0.987702
O O12 0.500000 0.402109 0.024688
O O13 0.768444 0.468150 0.063135
O O14 0.250000 0.606919 0.750000
O O15 0.500000 0.616908 0.810779
O O16 0.231536 0.536582 0.841156
O O17 0.000000 0.482205 0.612355
O O18 0.000000 0.925261 0.933591
#
# Coordination Sequence:
#
# PCOD9414172 Si02
#       7
#     8   8   8   8   8   8   8
#     4  10  17  28  47  68  89 118 153 188 224 266
#     4  10  17  26  41  63  89 120 155 189 220 256
#     4   9  16  28  42  59  87 125 160 187 215 254
#     4   9  16  26  40  60  88 122 154 183 215 258
#     4  10  20  35  52  70  90 114 143 183 230 278
#     4   8  16  29  44  61  86 119 149 177 221 273
#     4   8  15  27  43  60  86 124 158 183 218 261
#
# _framework density 17.268540999999999
#
# number of rings (size 3 to 8) (size 9 to 14) (size 15 to 20)
#    0.000    2.857    1.429    3.000    0.000    1.714 
#    0.000    6.429    0.000    4.286    0.000    1.000 
#    0.000    4.571    0.000    0.000    0.000    0.000 
#
# Total GULP energy -311871.231588 kJ/mol
# GULP energy per Si atom -5569.129135 kJ/mol
# Density = 1.722924 g / cm^3
# Si number density = 17.268541 Si / 1000 Ang^3
#
#
#
# Elastic Constant Matrix: (Units=GPa)
#
#
# Indices 1 2 3 4 5 6 
#
# 1 25.0609 7.7087 1.9650 0.0000 0.0000 0.0000
# 2 7.7087 175.2790 56.2546 0.0000 0.0000 0.0000
# 3 1.9650 56.2546 66.9318 0.0000 0.0000 0.0000
# 4 0.0000 0.0000 0.0000 14.2881 0.0000 0.0000
# 5 0.0000 0.0000 0.0000 0.0000 18.1879 0.0000
# 6 0.0000 0.0000 0.0000 0.0000 0.0000 19.8509
#
#
#
# Elastic Compliance Matrix: (Units=1/GPa)
#
#
# Indices 1 2 3 4 5 6 
#
# 1 0.040459 -0.001915 0.000421 0.000000 0.000000 0.000000
# 2 -0.001915 0.007903 -0.006586 0.000000 0.000000 0.000000
# 3 0.000421 -0.006586 0.020464 0.000000 0.000000 0.000000
# 4 0.000000 0.000000 0.000000 0.069988 0.000000 0.000000
# 5 0.000000 0.000000 0.000000 0.000000 0.054982 0.000000
# 6 0.000000 0.000000 0.000000 0.000000 0.000000 0.050376
#
#
# Mechanical properties :
#
#
# Convention : Reuss Voigt Hill
#
# Bulk Modulus (GPa) = 18.98734 44.34759 31.66747
# Shear Modulus (GPa) = 17.99301 23.88827 20.94064
#
# Velocity S-wave (km/s) = 3.23143 3.72336 3.48609
# Velocity P-wave (km/s) = 4.99420 6.64992 5.88063
#
# Compressibility (1/GPa) = 0.05266667
#
# Stress axis : x y z
#
# Youngs Moduli (GPa) = 24.71660 126.53097 48.86678
#
# Poissons Ratio (x) = 0.24225 -0.02059
# Poissons Ratio (y) = 0.04732 0.32185
# Poissons Ratio (z) = -0.01041 0.83336
#
# Static dielectric constant tensor:
#      x y z
#    x 1.643900 0.000000 0.000000 
#    y 0.000000 1.636890 0.000000 
#    z 0.000000 0.000000 1.578920 
# 
# From -- ./inp_files/38344.got.cif
#   From: 2010.05.17/outbox.cif.g08.bks.cpg/sg53_20_cif.got.tgz:38344.got - 2010.06.03 12:45:16.
