data_PCOD9414329
_publ_section_title
;
Structure prediction by ZEFSAII (Michael W. Deem and Ramdas Pophale) SiO2 
 PCOD9414329
Probable space group: P M N A
;
_chemical_formula_sum "Si O2"
_cell_formula_units_Z 48
_cell_length_a 19.788124
_cell_length_b 10.046015
_cell_length_c 13.862569
_cell_angle_alpha 90.000000
_cell_angle_beta 90.000000
_cell_angle_gamma 90.000000
_cell_volume 2755.764913
_symmetry_space_group_name_H-M "P M N A"
_symmetry_group_IT_number 53
_symmetry_cell_setting 'orthorhombic'
loop_
_space_group_symop_operation_xyz
x,y,z
1/2-x,-y,1/2+z
x,-y,-z
1/2-x,y,1/2-z
-x,-y,-z
1/2+x,y,1/2-z
-x,y,z
1/2+x,-y,1/2+z
loop_
_atom_site_type_symbol
_atom_site_label
_atom_site_fract_x
_atom_site_fract_y
_atom_site_fract_z
Si Si1 0.128666 0.618104 0.577476
Si Si2 0.500000 0.055670 0.839716
Si Si3 0.853149 0.995254 0.273460
Si Si4 0.500000 0.206963 0.028307
Si Si5 0.765904 0.094196 0.906989
Si Si6 0.717700 0.345550 0.471955
Si Si7 0.670631 0.695181 0.734000
O O1 0.121921 0.500000 0.500000
O O2 0.203683 0.675221 0.558553
O O3 0.130620 0.595886 0.693936
O O4 0.067326 0.714699 0.555216
O O5 0.569559 0.048870 0.781438
O O6 0.500000 0.926220 0.908567
O O7 0.500000 0.176504 0.914883
O O8 0.808362 0.931203 0.360117
O O9 0.817238 0.950149 0.175697
O O10 0.847134 0.156027 0.270442
O O11 0.786462 0.241947 0.940455
O O12 0.770895 0.000000 0.000000
O O13 0.709993 0.500000 0.500000
O O14 0.667537 0.314752 0.382261
O O15 0.750000 0.669810 0.750000
#
# Coordination Sequence:
#
# PCOD9414329 Si02
#       7
#     8   4   8   4   8   8   8
#     4  10  20  35  55  82 115 149 183 223 281 355
#     4  11  24  34  53  84 120 149 183 242 290 345
#     4  11  21  36  58  88 115 150 194 242 291 346
#     4  11  21  34  54  78 116 151 183 220 289 353
#     4  11  20  36  64  86 113 150 197 242 290 344
#     4  10  21  37  57  85 115 147 189 240 290 338
#     4  10  17  35  56  80 113 149 185 235 287 341
#
# _framework density 17.418032
#
# number of rings (size 3 to 8) (size 9 to 14) (size 15 to 20)
#    0.000    1.500    5.000    2.250    2.333    0.000 
#   18.000    0.417    0.000    0.000    0.000    2.917 
#    0.000    0.000    0.000    0.000    0.000    0.000 
#
# Total GULP energy -267312.859627 kJ/mol
# GULP energy per Si atom -5569.017909 kJ/mol
# Density = 1.737839 g / cm^3
# Si number density = 17.418032 Si / 1000 Ang^3
#
#
#
# Elastic Constant Matrix: (Units=GPa)
#
#
# Indices 1 2 3 4 5 6 
#
# 1 92.0886 27.7653 46.8093 0.0000 0.0000 0.0000
# 2 27.7653 71.3214 44.4481 0.0000 0.0000 0.0000
# 3 46.8093 44.4481 108.9039 0.0000 0.0000 0.0000
# 4 0.0000 0.0000 0.0000 32.3502 0.0000 0.0000
# 5 0.0000 0.0000 0.0000 0.0000 12.6286 0.0000
# 6 0.0000 0.0000 0.0000 0.0000 0.0000 11.0722
#
#
#
# Elastic Compliance Matrix: (Units=1/GPa)
#
#
# Indices 1 2 3 4 5 6 
#
# 1 0.014173 -0.002308 -0.005150 0.000000 0.000000 0.000000
# 2 -0.002308 0.019180 -0.006836 0.000000 0.000000 0.000000
# 3 -0.005150 -0.006836 0.014186 0.000000 0.000000 0.000000
# 4 0.000000 0.000000 0.000000 0.030912 0.000000 0.000000
# 5 0.000000 0.000000 0.000000 0.000000 0.079185 0.000000
# 6 0.000000 0.000000 0.000000 0.000000 0.000000 0.090316
#
#
# Mechanical properties :
#
#
# Convention : Reuss Voigt Hill
#
# Bulk Modulus (GPa) = 52.76810 56.70660 54.73735
# Shear Modulus (GPa) = 17.67683 21.42961 19.55322
#
# Velocity S-wave (km/s) = 3.18914 3.51139 3.35414
# Velocity P-wave (km/s) = 6.62734 7.00476 6.81867
#
# Compressibility (1/GPa) = 0.01895084
#
# Stress axis : x y z
#
# Youngs Moduli (GPa) = 70.55855 52.13807 70.49238
#
# Poissons Ratio (x) = 0.12034 0.36301
# Poissons Ratio (y) = 0.16285 0.48189
# Poissons Ratio (z) = 0.36336 0.35642
#
# Static dielectric constant tensor:
#      x y z
#    x 1.558530 0.000000 0.000000 
#    y 0.000000 1.623160 0.000000 
#    z 0.000000 0.000000 1.658800 
# 
# From -- ./inp_files/23693.got.cif
#   From: 2010.05.17/outbox.cif.g08.bks.cpg/sg53_12_cif.got.tgz:23693.got - 2010.06.03 12:45:16.
