data_PCOD9414050
_publ_section_title
;
Structure prediction by ZEFSAII (Michael W. Deem and Ramdas Pophale) SiO2 
 PCOD9414050
Probable space group: P N N A
;
_chemical_formula_sum "Si O2"
_cell_formula_units_Z 36
_cell_length_a 12.000000
_cell_length_b 24.000000
_cell_length_c 6.000000
_cell_angle_alpha 90.000000
_cell_angle_beta 90.000000
_cell_angle_gamma 90.000000
_cell_volume 1728.000000
_symmetry_space_group_name_H-M "P N N A"
_symmetry_group_IT_number 52
_symmetry_cell_setting 'orthorhombic'
loop_
_space_group_symop_operation_xyz
x,y,z
1/2-x,-y,z
x,1/2-y,1/2-z
1/2-x,1/2+y,1/2-z
-x,-y,-z
1/2+x,y,-z
-x,1/2+y,1/2+z
1/2+x,1/2-y,1/2+z
loop_
_atom_site_type_symbol
_atom_site_label
_atom_site_fract_x
_atom_site_fract_y
_atom_site_fract_z
Si Si1 0.473350 0.811413 0.305048
Si Si2 0.250000 0.000000 0.532738
Si Si3 0.073938 0.043188 0.860113
Si Si4 0.785309 0.896874 0.772294
Si Si5 0.057313 0.843492 0.200956
O O1 0.425906 0.750000 0.250000
O O2 0.386292 0.861501 0.326453
O O3 0.530944 0.812375 0.557471
O O4 0.528484 0.823185 0.055477
O O5 0.361834 0.991267 0.673332
O O6 0.240868 0.944529 0.389021
O O7 0.001513 0.095727 0.780767
O O8 0.170017 0.071037 0.011633
O O9 0.000000 0.000000 0.000000
O O10 0.688257 0.853420 0.813267
#
# Coordination Sequence:
#
# PCOD9414050 Si02
#       5
#     8   4   8   8   8
#     4  11  26  48  71 100 137 184 241 301 356 417
#     4  12  22  40  70 100 142 182 230 276 356 426
#     4  11  24  41  65 104 147 187 225 284 350 431
#     4  11  26  42  68 106 139 184 238 288 352 429
#     4  11  25  45  71 101 137 184 233 290 354 420
#
# _framework density 20.833333
#
# number of rings (size 3 to 8) (size 9 to 14) (size 15 to 20)
#    0.000    0.889    2.222    4.000    9.333    3.556 
#    0.000    0.000    0.000    0.000    0.000    0.000 
#    0.000    0.000    0.000    0.000    0.000    0.000 
#
# Total GULP energy -200523.435101 kJ/mol
# GULP energy per Si atom -5570.095419 kJ/mol
# Density = 2.078592 g / cm^3
# Si number density = 20.833333 Si / 1000 Ang^3
#
#
#
# Elastic Constant Matrix: (Units=GPa)
#
#
# Indices 1 2 3 4 5 6 
#
# 1 27.6289 -20.7306 25.2066 0.0000 0.0000 0.0000
# 2 -20.7306 59.0533 13.9859 0.0000 0.0000 0.0000
# 3 25.2066 13.9859 112.4835 0.0000 0.0000 0.0000
# 4 0.0000 0.0000 0.0000 42.4031 0.0000 0.0000
# 5 0.0000 0.0000 0.0000 0.0000 28.5820 0.0000
# 6 0.0000 0.0000 0.0000 0.0000 0.0000 12.4709
#
#
#
# Elastic Compliance Matrix: (Units=1/GPa)
#
#
# Indices 1 2 3 4 5 6 
#
# 1 0.083033 0.034574 -0.022906 0.000000 0.000000 0.000000
# 2 0.034574 0.031844 -0.011707 0.000000 0.000000 0.000000
# 3 -0.022906 -0.011707 0.015479 0.000000 0.000000 0.000000
# 4 0.000000 0.000000 0.000000 0.023583 0.000000 0.000000
# 5 0.000000 0.000000 0.000000 0.000000 0.034987 0.000000
# 6 0.000000 0.000000 0.000000 0.000000 0.000000 0.080187
#
#
# Mechanical properties :
#
#
# Convention : Reuss Voigt Hill
#
# Bulk Modulus (GPa) = 7.67596 26.23215 16.95405
# Shear Modulus (GPa) = 15.99404 28.73810 22.36607
#
# Velocity S-wave (km/s) = 2.77377 3.71810 3.28009
# Velocity P-wave (km/s) = 3.73509 5.57235 4.74352
#
# Compressibility (1/GPa) = 0.13027695
#
# Stress axis : x y z
#
# Youngs Moduli (GPa) = 12.04342 31.40353 64.60451
#
# Poissons Ratio (x) = -1.08573 1.47982
# Poissons Ratio (y) = -0.41638 0.75632
# Poissons Ratio (z) = 0.27586 0.36764
#
# Static dielectric constant tensor:
#      x y z
#    x 2.044800 0.000000 0.000000 
#    y 0.000000 1.694110 0.000000 
#    z 0.000000 0.000000 1.188320 
# 
# From -- ./inp_files/1203.got.cif
#   From: 2010.05.17/outbox.ucp.g08.bks.cvg/sg52_1_cif.got.tgz:1203.got - 2010.06.11 16:30:12.
