data_PCOD9414078
_publ_section_title
;
Structure prediction by ZEFSAII (Michael W. Deem and Ramdas Pophale) SiO2 
 PCOD9414078
Probable space group: P M N A
;
_chemical_formula_sum "Si O2"
_cell_formula_units_Z 56
_cell_length_a 7.910119
_cell_length_b 14.294987
_cell_length_c 29.348627
_cell_angle_alpha 90.000000
_cell_angle_beta 90.000000
_cell_angle_gamma 90.000000
_cell_volume 3318.597415
_symmetry_space_group_name_H-M "P M N A"
_symmetry_group_IT_number 53
_symmetry_cell_setting 'orthorhombic'
loop_
_space_group_symop_operation_xyz
x,y,z
1/2-x,-y,1/2+z
x,-y,-z
1/2-x,y,1/2-z
-x,-y,-z
1/2+x,y,1/2-z
-x,y,z
1/2+x,-y,1/2+z
loop_
_atom_site_type_symbol
_atom_site_label
_atom_site_fract_x
_atom_site_fract_y
_atom_site_fract_z
Si Si1 0.705973 0.712135 0.034429
Si Si2 0.700882 0.481908 0.301085
Si Si3 0.700400 0.730455 0.699104
Si Si4 0.702415 0.795922 0.894485
Si Si5 0.792836 0.101216 0.483317
Si Si6 0.703180 0.423981 0.892641
Si Si7 0.706184 0.608071 0.944260
O O1 0.500000 0.716279 0.034568
O O2 0.762911 0.671092 0.082873
O O3 0.761615 0.813595 0.016444
O O4 0.753460 0.636513 0.995455
O O5 0.750000 0.510430 0.250000
O O6 0.500000 0.475832 0.303193
O O7 0.771527 0.375702 0.308401
O O8 0.755817 0.551950 0.340718
O O9 0.750000 0.759688 0.750000
O O10 0.500000 0.723497 0.697665
O O11 0.752942 0.798771 0.658405
O O12 0.500000 0.795456 0.897489
O O13 0.761020 0.871414 0.931839
O O14 0.762201 0.694952 0.913048
O O15 0.000000 0.100491 0.483718
O O16 0.735381 0.000000 0.500000
O O17 0.500000 0.423637 0.896033
O O18 0.766895 0.511729 0.922830
O O19 0.500000 0.605118 0.943774
#
# Coordination Sequence:
#
# PCOD9414078 Si02
#       7
#     8   8   8   8   8   8   8
#     4   8  14  22  36  61  86 112 145 174 204 247
#     4  10  20  31  42  58  83 115 149 179 212 252
#     4  10  19  29  42  60  85 115 146 178 211 253
#     4   9  15  25  42  63  86 115 147 176 211 251
#     4   8  14  25  42  66  93 115 141 180 218 253
#     4  10  16  24  41  61  84 113 145 178 209 242
#     4   8  13  21  35  57  84 111 141 173 200 233
#
# _framework density 16.874599
#
# number of rings (size 3 to 8) (size 9 to 14) (size 15 to 20)
#    0.000    3.000    1.429    3.000    0.000    2.857 
#    0.000    0.000    0.000    5.571    0.000    1.000 
#    0.000    0.000    0.000    0.000    0.000    0.000 
#
# Total GULP energy -311835.432016 kJ/mol
# GULP energy per Si atom -5568.489857 kJ/mol
# Density = 1.683619 g / cm^3
# Si number density = 16.874599 Si / 1000 Ang^3
#
#
#
# Elastic Constant Matrix: (Units=GPa)
#
#
# Indices 1 2 3 4 5 6 
#
# 1 14.6745 9.6885 5.6748 0.0000 0.0000 0.0000
# 2 9.6885 84.8686 81.5949 0.0000 0.0000 0.0000
# 3 5.6748 81.5949 153.3104 0.0000 0.0000 0.0000
# 4 0.0000 0.0000 0.0000 31.3435 0.0000 0.0000
# 5 0.0000 0.0000 0.0000 0.0000 14.0517 0.0000
# 6 0.0000 0.0000 0.0000 0.0000 0.0000 4.6725
#
#
#
# Elastic Compliance Matrix: (Units=1/GPa)
#
#
# Indices 1 2 3 4 5 6 
#
# 1 0.074674 -0.012015 0.003631 0.000000 0.000000 0.000000
# 2 -0.012015 0.026063 -0.013427 0.000000 0.000000 0.000000
# 3 0.003631 -0.013427 0.013534 0.000000 0.000000 0.000000
# 4 0.000000 0.000000 0.000000 0.031905 0.000000 0.000000
# 5 0.000000 0.000000 0.000000 0.000000 0.071166 0.000000
# 6 0.000000 0.000000 0.000000 0.000000 0.000000 0.214018
#
#
# Mechanical properties :
#
#
# Convention : Reuss Voigt Hill
#
# Bulk Modulus (GPa) = 14.15447 49.64109 31.89778
# Shear Modulus (GPa) = 10.02944 20.40657 15.21801
#
# Velocity S-wave (km/s) = 2.44058 3.48128 3.00630
# Velocity P-wave (km/s) = 4.04328 6.75578 5.56726
#
# Compressibility (1/GPa) = 0.07064907
#
# Stress axis : x y z
#
# Youngs Moduli (GPa) = 13.39152 38.36808 73.88653
#
# Poissons Ratio (x) = 0.46101 -0.26827
# Poissons Ratio (y) = 0.16091 0.99205
# Poissons Ratio (z) = -0.04862 0.51516
#
# Static dielectric constant tensor:
#      x y z
#    x 1.613710 0.000000 0.000000 
#    y 0.000000 1.565460 0.000000 
#    z 0.000000 0.000000 1.604860 
# 
# From -- ./inp_files/38382.got.cif
#   From: 2010.05.17/outbox.cif.g08.bks.cpg/sg53_20_cif.got.tgz:38382.got - 2010.06.03 12:45:16.
