data_PCOD9414831
_publ_section_title
;
Structure prediction by ZEFSAII (Michael W. Deem and Ramdas Pophale) SiO2 
 PCOD9414831
Probable space group: P M N A
;
_chemical_formula_sum "Si O2"
_cell_formula_units_Z 48
_cell_length_a 7.538041
_cell_length_b 10.135862
_cell_length_c 31.076283
_cell_angle_alpha 90.000000
_cell_angle_beta 90.000000
_cell_angle_gamma 90.000000
_cell_volume 2374.369211
_symmetry_space_group_name_H-M "P M N A"
_symmetry_group_IT_number 53
_symmetry_cell_setting 'orthorhombic'
loop_
_space_group_symop_operation_xyz
x,y,z
1/2-x,-y,1/2+z
x,-y,-z
1/2-x,y,1/2-z
-x,-y,-z
1/2+x,y,1/2-z
-x,y,z
1/2+x,-y,1/2+z
loop_
_atom_site_type_symbol
_atom_site_label
_atom_site_fract_x
_atom_site_fract_y
_atom_site_fract_z
Si Si1 0.288135 0.808556 0.700009
Si Si2 0.782948 0.418419 0.138731
Si Si3 0.782450 0.006417 0.873493
Si Si4 0.714043 0.780351 0.563067
Si Si5 0.294044 0.635499 0.020803
Si Si6 0.703680 0.700436 0.383687
O O1 0.250000 0.823058 0.750000
O O2 0.500000 0.807215 0.695245
O O3 0.224940 0.671155 0.678855
O O4 0.225565 0.927010 0.669149
O O5 0.731907 0.337257 0.095785
O O6 0.717384 0.568015 0.137045
O O7 0.000000 0.422686 0.138302
O O8 0.729368 0.916493 0.914342
O O9 0.000000 0.008868 0.874311
O O10 0.717019 0.155953 0.875024
O O11 0.500000 0.780502 0.561513
O O12 0.779808 0.746693 0.515752
O O13 0.500000 0.612090 0.031162
O O14 0.204112 0.675220 0.065120
O O15 0.221186 0.500000 0.000000
O O16 0.500000 0.707395 0.368569
#
# Coordination Sequence:
#
# PCOD9414831 Si02
#       6
#     8   8   8   8   8   8
#     4   9  17  33  53  75  98 123 155 195 240 291
#     4   8  15  28  50  72  92 119 160 201 232 272
#     4   8  17  32  52  75  99 123 160 209 245 276
#     4   9  16  31  51  70  91 126 170 206 233 275
#     4  11  22  32  44  69 103 133 162 205 249 284
#     4  10  18  32  53  73  92 127 169 204 240 280
#
# _framework density 20.215896000000001
#
# number of rings (size 3 to 8) (size 9 to 14) (size 15 to 20)
#    0.000    2.833    1.667    2.500    0.000    1.333 
#    0.000   10.000    0.000    0.000    0.000    0.000 
#    0.000    0.000    0.000    0.000    0.000    0.000 
#
# Total GULP energy -267764.250222 kJ/mol
# GULP energy per Si atom -5578.421880 kJ/mol
# Density = 2.016988 g / cm^3
# Si number density = 20.215896 Si / 1000 Ang^3
#
#
#
# Elastic Constant Matrix: (Units=GPa)
#
#
# Indices 1 2 3 4 5 6 
#
# 1 49.7477 7.0728 -7.4512 0.0000 0.0000 0.0000
# 2 7.0728 198.4052 60.3933 0.0000 0.0000 0.0000
# 3 -7.4512 60.3933 93.2791 0.0000 0.0000 0.0000
# 4 0.0000 0.0000 0.0000 17.4233 0.0000 0.0000
# 5 0.0000 0.0000 0.0000 0.0000 15.1831 0.0000
# 6 0.0000 0.0000 0.0000 0.0000 0.0000 0.2493
#
#
#
# Elastic Compliance Matrix: (Units=1/GPa)
#
#
# Indices 1 2 3 4 5 6 
#
# 1 0.020719 -0.001547 0.002657 0.000000 0.000000 0.000000
# 2 -0.001547 0.006393 -0.004263 0.000000 0.000000 0.000000
# 3 0.002657 -0.004263 0.013693 0.000000 0.000000 0.000000
# 4 0.000000 0.000000 0.000000 0.057395 0.000000 0.000000
# 5 0.000000 0.000000 0.000000 0.000000 0.065863 0.000000
# 6 0.000000 0.000000 0.000000 0.000000 0.000000 4.010790
#
#
# Mechanical properties :
#
#
# Convention : Reuss Voigt Hill
#
# Bulk Modulus (GPa) = 28.98664 51.27353 40.13008
# Shear Modulus (GPa) = 1.19256 25.33227 13.26242
#
# Velocity S-wave (km/s) = 0.76889 3.54374 2.56410
# Velocity P-wave (km/s) = 3.89332 6.49324 5.35351
#
# Compressibility (1/GPa) = 0.03449866
#
# Stress axis : x y z
#
# Youngs Moduli (GPa) = 48.26397 156.42416 73.03218
#
# Poissons Ratio (x) = 0.24204 -0.19404
# Poissons Ratio (y) = 0.07468 0.31131
# Poissons Ratio (z) = -0.12823 0.66678
#
# Static dielectric constant tensor:
#      x y z
#    x 1.760070 0.000000 0.000000 
#    y 0.000000 1.743230 0.000000 
#    z 0.000000 0.000000 1.680060 
# 
# From -- ./inp_files/34882.got.cif
#   From: 2010.05.17/outbox.cif.g08.bks.cpg/sg53_18_cif.got.tgz:34882.got - 2010.06.03 12:45:16.
