data_PCOD9414095
_publ_section_title
;
Structure prediction by ZEFSAII (Michael W. Deem and Ramdas Pophale) SiO2 
 PCOD9414095
Probable space group: P M N A
;
_chemical_formula_sum "Si O2"
_cell_formula_units_Z 28
_cell_length_a 14.765417
_cell_length_b 16.230957
_cell_length_c 5.261129
_cell_angle_alpha 90.000000
_cell_angle_beta 90.000000
_cell_angle_gamma 90.000000
_cell_volume 1260.865595
_symmetry_space_group_name_H-M "P M N A"
_symmetry_group_IT_number 53
_symmetry_cell_setting 'orthorhombic'
loop_
_space_group_symop_operation_xyz
x,y,z
1/2-x,-y,1/2+z
x,-y,-z
1/2-x,y,1/2-z
-x,-y,-z
1/2+x,y,1/2-z
-x,y,z
1/2+x,-y,1/2+z
loop_
_atom_site_type_symbol
_atom_site_label
_atom_site_fract_x
_atom_site_fract_y
_atom_site_fract_z
Si Si1 0.250000 0.052877 0.750000
Si Si2 0.648672 0.730969 0.567539
Si Si3 0.392393 0.551134 0.756707
Si Si4 0.148269 0.795523 0.436983
O O1 0.167654 0.113628 0.669182
O O2 0.271557 0.000000 0.500000
O O3 0.645090 0.640929 0.689847
O O4 0.606402 0.789630 0.783721
O O5 0.751022 0.759552 0.502180
O O6 0.605793 0.740559 0.287133
O O7 0.379698 0.500000 0.500000
O O8 0.500000 0.562264 0.800411
O O9 0.355879 0.500000 0.000000
#
# Coordination Sequence:
#
# PCOD9414095 Si02
#       4
#     4   8   8   8
#     4  10  16  26  44  68  96 116 138 176 220 270
#     4   9  16  31  45  60  91 120 144 186 224 263
#     4  10  20  32  47  67  89 118 159 202 234 260
#     4   9  18  29  45  67  91 118 146 176 220 276
#
# _framework density 22.206966999999999
#
# number of rings (size 3 to 8) (size 9 to 14) (size 15 to 20)
#    0.000    2.857    0.000    5.143    0.000    0.000 
#    0.000   11.429    0.000    0.000    0.000    0.000 
#    0.000  121.143    0.000    0.000    0.000    0.000 
#
# Total GULP energy -155954.132895 kJ/mol
# GULP energy per Si atom -5569.790461 kJ/mol
# Density = 2.215642 g / cm^3
# Si number density = 22.206967 Si / 1000 Ang^3
#
#
#
# Elastic Constant Matrix: (Units=GPa)
#
#
# Indices 1 2 3 4 5 6 
#
# 1 62.4237 13.4113 17.8942 0.0000 0.0000 0.0000
# 2 13.4113 141.3189 70.8200 0.0000 0.0000 0.0000
# 3 17.8942 70.8200 219.6193 0.0000 0.0000 0.0000
# 4 0.0000 0.0000 0.0000 -48.7785 0.0000 0.0000
# 5 0.0000 0.0000 0.0000 0.0000 -32.1737 0.0000
# 6 0.0000 0.0000 0.0000 0.0000 0.0000 127.4701
#
#
#
# Elastic Compliance Matrix: (Units=1/GPa)
#
#
# Indices 1 2 3 4 5 6 
#
# 1 0.016536 -0.001066 -0.001003 0.000000 0.000000 0.000000
# 2 -0.001066 0.008509 -0.002657 0.000000 0.000000 0.000000
# 3 -0.001003 -0.002657 0.005492 0.000000 0.000000 0.000000
# 4 0.000000 0.000000 0.000000 -0.020501 0.000000 0.000000
# 5 0.000000 0.000000 0.000000 0.000000 -0.031081 0.000000
# 6 0.000000 0.000000 0.000000 0.000000 0.000000 0.007845
#
#
# Mechanical properties :
#
#
# Convention : Reuss Voigt Hill
#
# Bulk Modulus (GPa) = 47.43068 69.73475 58.58272
# Shear Modulus (GPa) = 1523.72111 30.71934 777.22022
#
# Velocity S-wave (km/s) = 26.22280 3.72334 18.72830
# Velocity P-wave (km/s) = 30.63089 7.06786 22.22843
#
# Compressibility (1/GPa) = 0.02108340
#
# Stress axis : x y z
#
# Youngs Moduli (GPa) = 60.47289 117.52415 182.08731
#
# Poissons Ratio (x) = 0.12533 0.18272
# Poissons Ratio (y) = 0.06449 0.48380
# Poissons Ratio (z) = 0.06068 0.31225
#
# Static dielectric constant tensor:
#      x y z
#    x 2.969260 0.000000 0.000000 
#    y 0.000000 1.485530 0.000000 
#    z 0.000000 0.000000 2.022480 
# 
# From -- ./inp_files/1855.got.cif
#   From: 2010.05.17/outbox.cif.g08.bks.cpg/sg53_1_cif.got.tgz:1855.got - 2010.06.03 12:45:16.
