data_PCOD9414585
_publ_section_title
;
Structure prediction by ZEFSAII (Michael W. Deem and Ramdas Pophale) SiO2 
 PCOD9414585
Probable space group: P M N A
;
_chemical_formula_sum "Si O2"
_cell_formula_units_Z 64
_cell_length_a 9.307908
_cell_length_b 20.853843
_cell_length_c 19.869681
_cell_angle_alpha 90.000000
_cell_angle_beta 90.000000
_cell_angle_gamma 90.000000
_cell_volume 3856.817387
_symmetry_space_group_name_H-M "P M N A"
_symmetry_group_IT_number 53
_symmetry_cell_setting 'orthorhombic'
loop_
_space_group_symop_operation_xyz
x,y,z
1/2-x,-y,1/2+z
x,-y,-z
1/2-x,y,1/2-z
-x,-y,-z
1/2+x,y,1/2-z
-x,y,z
1/2+x,-y,1/2+z
loop_
_atom_site_type_symbol
_atom_site_label
_atom_site_fract_x
_atom_site_fract_y
_atom_site_fract_z
Si Si1 0.668148 0.536537 0.071379
Si Si2 0.169751 0.333223 0.962277
Si Si3 0.167815 0.919606 0.070880
Si Si4 0.667678 0.311613 0.377152
Si Si5 0.666988 0.060941 0.408428
Si Si6 0.327042 0.449932 0.319387
Si Si7 0.835594 0.814505 0.609740
Si Si8 0.334179 0.794737 0.053196
O O1 0.500000 0.542100 0.090742
O O2 0.742213 0.605535 0.062761
O O3 0.758608 0.494422 0.123506
O O4 0.673540 0.500000 0.000000
O O5 0.238500 0.267906 0.933880
O O6 0.000000 0.338362 0.947348
O O7 0.184638 0.328481 0.043548
O O8 0.264726 0.858156 0.085434
O O9 0.000000 0.908534 0.087649
O O10 0.215062 0.987490 0.102626
O O11 0.172502 0.929121 0.989630
O O12 0.500000 0.297129 0.366300
O O13 0.706139 0.375628 0.336950
O O14 0.758484 0.248417 0.361547
O O15 0.500000 0.066074 0.389164
O O16 0.756569 0.118449 0.376456
O O17 0.250000 0.466520 0.250000
O O18 0.500000 0.456756 0.316951
O O19 0.831937 0.805329 0.528135
O O20 0.000000 0.817172 0.631052
O O21 0.500000 0.785657 0.072598
#
# Coordination Sequence:
#
# PCOD9414585 Si02
#       8
#     8   8   8   8   8   8   8   8
#     4  11  22  35  54  78 102 128 161 205 252 299
#     4  10  18  30  48  68  91 121 159 200 241 290
#     4   8  13  21  32  46  68 105 147 184 224 275
#     4   9  18  31  47  65  89 121 156 194 238 288
#     4   8  13  21  32  46  69 103 145 186 225 272
#     4  11  23  39  56  76 101 131 166 203 250 303
#     4   9  16  23  35  55  79 107 145 190 233 274
#     4   9  16  24  34  54  82 111 145 189 237 281
#
# _framework density 16.593993000000001
#
# number of rings (size 3 to 8) (size 9 to 14) (size 15 to 20)
#    0.000    2.625    1.250    2.625    0.000    5.500 
#    0.000    2.500    0.000    0.000    0.000    0.000 
#    0.000    0.000    0.000    1.125    0.000   18.750 
#
# Total GULP energy -356634.746625 kJ/mol
# GULP energy per Si atom -5572.417916 kJ/mol
# Density = 1.655622 g / cm^3
# Si number density = 16.593993 Si / 1000 Ang^3
#
#
#
# Elastic Constant Matrix: (Units=GPa)
#
#
# Indices 1 2 3 4 5 6 
#
# 1 100.0544 76.9072 21.8099 0.0000 0.0000 0.0000
# 2 76.9072 133.9844 17.8249 0.0000 0.0000 0.0000
# 3 21.8099 17.8249 23.9540 0.0000 0.0000 0.0000
# 4 0.0000 0.0000 0.0000 5.9019 0.0000 0.0000
# 5 0.0000 0.0000 0.0000 0.0000 9.2307 0.0000
# 6 0.0000 0.0000 0.0000 0.0000 0.0000 27.7132
#
#
#
# Elastic Compliance Matrix: (Units=1/GPa)
#
#
# Indices 1 2 3 4 5 6 
#
# 1 0.020121 -0.010114 -0.010795 0.000000 0.000000 0.000000
# 2 -0.010114 0.013367 -0.000738 0.000000 0.000000 0.000000
# 3 -0.010795 -0.000738 0.052125 0.000000 0.000000 0.000000
# 4 0.000000 0.000000 0.000000 0.169437 0.000000 0.000000
# 5 0.000000 0.000000 0.000000 0.000000 0.108334 0.000000
# 6 0.000000 0.000000 0.000000 0.000000 0.000000 0.036084
#
#
# Mechanical properties :
#
#
# Convention : Reuss Voigt Hill
#
# Bulk Modulus (GPa) = 23.62960 54.56407 39.09683
# Shear Modulus (GPa) = 10.94410 17.99923 14.47166
#
# Velocity S-wave (km/s) = 2.57090 3.29703 2.95634
# Velocity P-wave (km/s) = 4.80453 6.88818 5.93846
#
# Compressibility (1/GPa) = 0.04231981
#
# Stress axis : x y z
#
# Youngs Moduli (GPa) = 49.69811 74.81080 19.18482
#
# Poissons Ratio (x) = 0.75661 0.20709
# Poissons Ratio (y) = 0.50263 0.01417
# Poissons Ratio (z) = 0.53647 0.05524
#
# Static dielectric constant tensor:
#      x y z
#    x 1.551170 0.000000 0.000000 
#    y 0.000000 1.559520 0.000000 
#    z 0.000000 0.000000 1.546220 
# 
# From -- ./inp_files/27014.got.cif
#   From: 2010.05.17/outbox.cif.g08.bks.cpg/sg53_14_cif.got.tgz:27014.got - 2010.06.03 12:45:16.
