data_PCOD9414630
_publ_section_title
;
Structure prediction by ZEFSAII (Michael W. Deem and Ramdas Pophale) SiO2 
 PCOD9414630
Probable space group: P M N A
;
_chemical_formula_sum "Si O2"
_cell_formula_units_Z 36
_cell_length_a 14.000194
_cell_length_b 8.675989
_cell_length_c 12.447699
_cell_angle_alpha 90.000000
_cell_angle_beta 90.000000
_cell_angle_gamma 90.000000
_cell_volume 1511.966346
_symmetry_space_group_name_H-M "P M N A"
_symmetry_group_IT_number 53
_symmetry_cell_setting 'orthorhombic'
loop_
_space_group_symop_operation_xyz
x,y,z
1/2-x,-y,1/2+z
x,-y,-z
1/2-x,y,1/2-z
-x,-y,-z
1/2+x,y,1/2-z
-x,y,z
1/2+x,-y,1/2+z
loop_
_atom_site_type_symbol
_atom_site_label
_atom_site_fract_x
_atom_site_fract_y
_atom_site_fract_z
Si Si1 0.250000 0.589511 0.750000
Si Si2 0.110154 0.335068 0.547244
Si Si3 0.393691 0.640280 0.305287
Si Si4 0.609861 0.006888 0.679407
Si Si5 0.806868 0.866489 0.617329
O O1 0.187039 0.483661 0.828259
O O2 0.315975 0.704835 0.817139
O O3 0.142555 0.500000 0.500000
O O4 0.111743 0.344720 0.675595
O O5 0.163198 0.185328 0.500348
O O6 0.000000 0.316874 0.512400
O O7 0.500000 0.588480 0.335160
O O8 0.378537 0.812564 0.346833
O O9 0.500000 0.962401 0.655779
O O10 0.696276 0.916713 0.623064
O O11 0.631156 0.978841 0.806784
#
# Coordination Sequence:
#
# PCOD9414630 Si02
#       5
#     4   8   8   8   8
#     4  10  18  30  50  76 106 142 180 212 264 322
#     4  10  19  33  55  85 115 138 172 227 280 323
#     4  10  20  34  55  80 110 141 177 225 271 318
#     4   9  19  34  51  76 107 143 184 219 264 321
#     4  10  20  32  53  80 110 146 178 225 271 322
#
# _framework density 23.810054000000001
#
# number of rings (size 3 to 8) (size 9 to 14) (size 15 to 20)
#    0.000    2.444    2.222    2.000    0.000    4.444 
#    0.000    3.333    0.000    2.000    0.000   12.444 
#    0.000    0.000    0.000    0.000    0.000    0.000 
#
# Total GULP energy -201127.869141 kJ/mol
# GULP energy per Si atom -5586.885254 kJ/mol
# Density = 2.375586 g / cm^3
# Si number density = 23.810054 Si / 1000 Ang^3
#
#
#
# Elastic Constant Matrix: (Units=GPa)
#
#
# Indices 1 2 3 4 5 6 
#
# 1 128.5301 41.1068 -2.6720 0.0000 0.0000 0.0000
# 2 41.1068 72.4080 -11.4155 0.0000 0.0000 0.0000
# 3 -2.6720 -11.4155 37.9266 0.0000 0.0000 0.0000
# 4 0.0000 0.0000 0.0000 29.9837 0.0000 0.0000
# 5 0.0000 0.0000 0.0000 0.0000 18.7218 0.0000
# 6 0.0000 0.0000 0.0000 0.0000 0.0000 26.2216
#
#
#
# Elastic Compliance Matrix: (Units=1/GPa)
#
#
# Indices 1 2 3 4 5 6 
#
# 1 0.009543 -0.005576 -0.001006 0.000000 0.000000 0.000000
# 2 -0.005576 0.017757 0.004952 0.000000 0.000000 0.000000
# 3 -0.001006 0.004952 0.027786 0.000000 0.000000 0.000000
# 4 0.000000 0.000000 0.000000 0.033351 0.000000 0.000000
# 5 0.000000 0.000000 0.000000 0.000000 0.053414 0.000000
# 6 0.000000 0.000000 0.000000 0.000000 0.000000 0.038136
#
#
# Mechanical properties :
#
#
# Convention : Reuss Voigt Hill
#
# Bulk Modulus (GPa) = 19.29564 32.54481 25.92023
# Shear Modulus (GPa) = 24.93477 29.10847 27.02162
#
# Velocity S-wave (km/s) = 3.23961 3.50026 3.37246
# Velocity P-wave (km/s) = 4.70266 5.48032 5.10632
#
# Compressibility (1/GPa) = 0.05182517
#
# Stress axis : x y z
#
# Youngs Moduli (GPa) = 104.79178 56.31609 35.98901
#
# Poissons Ratio (x) = 0.31403 0.03621
# Poissons Ratio (y) = 0.58433 -0.17821
# Poissons Ratio (z) = 0.10543 -0.27887
#
# Static dielectric constant tensor:
#      x y z
#    x 1.911810 0.000000 0.000000 
#    y 0.000000 1.937670 0.000000 
#    z 0.000000 0.000000 1.990940 
# 
# From -- ./inp_files/27991.got.cif
#   From: 2010.05.17/outbox.cif.g08.bks.cpg/sg53_14_cif.got.tgz:27991.got - 2010.06.03 12:45:16.
