data_PCOD9414084
_publ_section_title
;
Structure prediction by ZEFSAII (Michael W. Deem and Ramdas Pophale) SiO2 
 PCOD9414084
Probable space group: P M N A
;
_chemical_formula_sum "Si O2"
_cell_formula_units_Z 32
_cell_length_a 32.784792
_cell_length_b 5.467419
_cell_length_c 7.127117
_cell_angle_alpha 90.000000
_cell_angle_beta 90.000000
_cell_angle_gamma 90.000000
_cell_volume 1277.522856
_symmetry_space_group_name_H-M "P M N A"
_symmetry_group_IT_number 53
_symmetry_cell_setting 'orthorhombic'
loop_
_space_group_symop_operation_xyz
x,y,z
1/2-x,-y,1/2+z
x,-y,-z
1/2-x,y,1/2-z
-x,-y,-z
1/2+x,y,1/2-z
-x,y,z
1/2+x,-y,1/2+z
loop_
_atom_site_type_symbol
_atom_site_label
_atom_site_fract_x
_atom_site_fract_y
_atom_site_fract_z
Si Si1 0.577789 0.047710 0.287490
Si Si2 0.202810 0.719887 0.220405
Si Si3 0.670991 0.780277 0.707402
Si Si4 0.452729 0.546773 0.278969
O O1 0.624065 0.140576 0.300174
O O2 0.553748 0.274710 0.198100
O O3 0.561814 0.000000 0.500000
O O4 0.573929 0.774348 0.206476
O O5 0.250000 0.660835 0.250000
O O6 0.177474 0.487390 0.292664
O O7 0.193853 0.989764 0.297941
O O8 0.189531 0.749176 0.002233
O O9 0.442446 0.500000 0.500000
O O10 0.500000 0.616389 0.263500
#
# Coordination Sequence:
#
# PCOD9414084 Si02
#       4
#     8   8   8   8
#     4  10  16  25  40  52  74 106 131 171 197 218
#     4  10  19  30  44  60  78 100 132 178 216 243
#     4  10  19  30  44  62  80 106 140 176 203 243
#     4   9  17  24  34  53  75 100 135 170 190 214
#
# _framework density 25.048477999999999
#
# number of rings (size 3 to 8) (size 9 to 14) (size 15 to 20)
#    0.000    2.250    2.500    3.000    7.000    3.000 
#    0.000    0.000    0.000    0.000    0.000    0.000 
#    0.000    0.000    0.000    0.000    0.000    0.000 
#
# Total GULP energy -178674.621764 kJ/mol
# GULP energy per Si atom -5583.581930 kJ/mol
# Density = 2.499147 g / cm^3
# Si number density = 25.048478 Si / 1000 Ang^3
#
#
#
# Elastic Constant Matrix: (Units=GPa)
#
#
# Indices 1 2 3 4 5 6 
#
# 1 125.6774 71.4028 2.0152 0.0000 0.0000 0.0000
# 2 71.4028 297.2913 12.3363 0.0000 0.0000 0.0000
# 3 2.0152 12.3363 111.2751 0.0000 0.0000 0.0000
# 4 0.0000 0.0000 0.0000 -30.6633 0.0000 0.0000
# 5 0.0000 0.0000 0.0000 0.0000 -1.8074 0.0000
# 6 0.0000 0.0000 0.0000 0.0000 0.0000 56.4257
#
#
#
# Elastic Compliance Matrix: (Units=1/GPa)
#
#
# Indices 1 2 3 4 5 6 
#
# 1 0.009215 -0.002216 0.000079 0.000000 0.000000 0.000000
# 2 -0.002216 0.003912 -0.000394 0.000000 0.000000 0.000000
# 3 0.000079 -0.000394 0.009029 0.000000 0.000000 0.000000
# 4 0.000000 0.000000 0.000000 -0.032612 0.000000 0.000000
# 5 0.000000 0.000000 0.000000 0.000000 -0.553292 0.000000
# 6 0.000000 0.000000 0.000000 0.000000 0.000000 0.017722
#
#
# Mechanical properties :
#
#
# Convention : Reuss Voigt Hill
#
# Bulk Modulus (GPa) = 58.50093 78.41693 68.45893
# Shear Modulus (GPa) = -9.34116 34.69030 12.67457
#
# Velocity S-wave (km/s) = -1.93322 3.72550 2.25189
# Velocity P-wave (km/s) = 4.29217 7.06256 5.84391
#
# Compressibility (1/GPa) = 0.01709374
#
# Stress axis : x y z
#
# Youngs Moduli (GPa) = 108.51987 255.59832 110.75492
#
# Poissons Ratio (x) = 0.56653 -0.00873
# Poissons Ratio (y) = 0.24053 0.04359
# Poissons Ratio (z) = -0.00856 0.10060
#
# Static dielectric constant tensor:
#      x y z
#    x 1.910990 0.000000 0.000000 
#    y 0.000000 2.064080 0.000000 
#    z 0.000000 0.000000 0.583430 
# 
# From -- ./inp_files/12743.got.cif
#   From: 2010.05.17/outbox.cif.g08.bks.cpg/sg53_7_cif.got.tgz:12743.got - 2010.06.03 12:45:16.
