data_PCOD9414704
_publ_section_title
;
Structure prediction by ZEFSAII (Michael W. Deem and Ramdas Pophale) SiO2 
 PCOD9414704
Probable space group: P M N A
;
_chemical_formula_sum "Si O2"
_cell_formula_units_Z 40
_cell_length_a 9.018557
_cell_length_b 13.035007
_cell_length_c 20.434396
_cell_angle_alpha 90.000000
_cell_angle_beta 90.000000
_cell_angle_gamma 90.000000
_cell_volume 2402.205343
_symmetry_space_group_name_H-M "P M N A"
_symmetry_group_IT_number 53
_symmetry_cell_setting 'orthorhombic'
loop_
_space_group_symop_operation_xyz
x,y,z
1/2-x,-y,1/2+z
x,-y,-z
1/2-x,y,1/2-z
-x,-y,-z
1/2+x,y,1/2-z
-x,y,z
1/2+x,-y,1/2+z
loop_
_atom_site_type_symbol
_atom_site_label
_atom_site_fract_x
_atom_site_fract_y
_atom_site_fract_z
Si Si1 0.678266 0.549852 0.570559
Si Si2 0.322841 0.809704 0.406538
Si Si3 0.178374 0.762820 0.547080
Si Si4 0.829077 0.015892 0.421000
Si Si5 0.821988 0.617381 0.179878
O O1 0.714794 0.500000 0.500000
O O2 0.500000 0.565069 0.571665
O O3 0.759379 0.658288 0.576624
O O4 0.719110 0.470406 0.627565
O O5 0.500000 0.807094 0.415048
O O6 0.247792 0.775167 0.474696
O O7 0.280809 0.727219 0.351533
O O8 0.268894 0.924964 0.391999
O O9 0.218750 0.866155 0.587246
O O10 0.000000 0.761298 0.541813
O O11 0.000000 0.003769 0.400184
O O12 0.826026 0.000000 0.500000
O O13 0.750000 0.601731 0.250000
O O14 0.000000 0.615386 0.186000
#
# Coordination Sequence:
#
# PCOD9414704 Si02
#       5
#     8   8   8   8   8
#     4  10  19  35  54  74 105 137 172 219 263 306
#     4  10  18  31  50  73 102 135 171 209 256 309
#     4  10  19  30  48  77 107 134 168 212 260 306
#     4   8  16  29  44  70 105 132 160 204 252 297
#     4  10  22  37  53  75 104 138 172 215 263 312
#
# _framework density 16.651364999999998
#
# number of rings (size 3 to 8) (size 9 to 14) (size 15 to 20)
#    0.000    2.400    2.000    2.400    0.000    7.200 
#    0.000    0.000    0.000    1.200    0.000    0.000 
#    0.000    0.000    0.000    0.000    0.000    0.000 
#
# Total GULP energy -222994.593087 kJ/mol
# GULP energy per Si atom -5574.864827 kJ/mol
# Density = 1.661347 g / cm^3
# Si number density = 16.651365 Si / 1000 Ang^3
#
#
#
# Elastic Constant Matrix: (Units=GPa)
#
#
# Indices 1 2 3 4 5 6 
#
# 1 41.0997 57.5662 34.4806 0.0000 0.0000 0.0000
# 2 57.5662 176.9090 66.0080 0.0000 0.0000 0.0000
# 3 34.4806 66.0080 89.8336 0.0000 0.0000 0.0000
# 4 0.0000 0.0000 0.0000 16.7449 0.0000 0.0000
# 5 0.0000 0.0000 0.0000 0.0000 18.4066 0.0000
# 6 0.0000 0.0000 0.0000 0.0000 0.0000 35.3158
#
#
#
# Elastic Compliance Matrix: (Units=1/GPa)
#
#
# Indices 1 2 3 4 5 6 
#
# 1 0.050568 -0.012693 -0.010083 0.000000 0.000000 0.000000
# 2 -0.012693 0.010974 -0.003191 0.000000 0.000000 0.000000
# 3 -0.010083 -0.003191 0.017347 0.000000 0.000000 0.000000
# 4 0.000000 0.000000 0.000000 0.059720 0.000000 0.000000
# 5 0.000000 0.000000 0.000000 0.000000 0.054328 0.000000
# 6 0.000000 0.000000 0.000000 0.000000 0.000000 0.028316
#
#
# Mechanical properties :
#
#
# Convention : Reuss Voigt Hill
#
# Bulk Modulus (GPa) = 37.09982 69.32799 53.21391
# Shear Modulus (GPa) = 17.71966 24.07928 20.89947
#
# Velocity S-wave (km/s) = 3.26568 3.80687 3.54661
# Velocity P-wave (km/s) = 6.04552 7.81335 6.98558
#
# Compressibility (1/GPa) = 0.02695431
#
# Stress axis : x y z
#
# Youngs Moduli (GPa) = 19.77517 91.12771 57.64734
#
# Poissons Ratio (x) = 1.15666 0.58127
# Poissons Ratio (y) = 0.25100 0.18397
# Poissons Ratio (z) = 0.19940 0.29082
#
# Static dielectric constant tensor:
#      x y z
#    x 1.556740 0.000000 0.000000 
#    y 0.000000 1.592990 0.000000 
#    z 0.000000 0.000000 1.527520 
# 
# From -- ./inp_files/30349.got.cif
#   From: 2010.05.17/outbox.cif.g08.bks.cpg/sg53_16_cif.got.tgz:30349.got - 2010.06.03 12:45:16.
