data_PCOD9414825
_publ_section_title
;
Structure prediction by ZEFSAII (Michael W. Deem and Ramdas Pophale) SiO2 
 PCOD9414825
Probable space group: P M N A
;
_chemical_formula_sum "Si O2"
_cell_formula_units_Z 32
_cell_length_a 23.912169
_cell_length_b 16.098889
_cell_length_c 5.113083
_cell_angle_alpha 90.000000
_cell_angle_beta 90.000000
_cell_angle_gamma 90.000000
_cell_volume 1968.329131
_symmetry_space_group_name_H-M "P M N A"
_symmetry_group_IT_number 53
_symmetry_cell_setting 'orthorhombic'
loop_
_space_group_symop_operation_xyz
x,y,z
1/2-x,-y,1/2+z
x,-y,-z
1/2-x,y,1/2-z
-x,-y,-z
1/2+x,y,1/2-z
-x,y,z
1/2+x,-y,1/2+z
loop_
_atom_site_type_symbol
_atom_site_label
_atom_site_fract_x
_atom_site_fract_y
_atom_site_fract_z
Si Si1 0.211074 0.402507 0.001945
Si Si2 0.000000 0.440621 0.250110
Si Si3 0.000000 0.941384 0.253324
Si Si4 0.437819 0.782895 0.129736
Si Si5 0.597888 0.689127 0.649658
O O1 0.250000 0.389523 0.250000
O O2 0.156035 0.348586 0.048548
O O3 0.194670 0.500000 0.000000
O O4 0.250000 0.385375 0.750000
O O5 0.000000 0.500000 0.500000
O O6 0.055519 0.383589 0.239142
O O7 0.000000 0.500000 0.000000
O O8 0.053210 0.878891 0.284535
O O9 0.000000 0.000000 0.500000
O O10 0.000000 0.000000 0.000000
O O11 0.500000 0.761480 0.024664
O O12 0.427494 0.734123 0.396423
O O13 0.397832 0.752915 0.895678
#
# Coordination Sequence:
#
# PCOD9414825 Si02
#       5
#     8   4   4   8   8
#     4  10  22  38  54  72  98 142 196 240 277 307
#     4  12  22  30  46  74 102 138 178 214 272 332
#     4  10  18  32  52  78 116 148 168 196 248 336
#     4  10  20  33  52  77 109 144 166 208 267 324
#     4  12  20  37  51  73 110 140 177 228 275 317
#
# _framework density 16.257442000000001
#
# number of rings (size 3 to 8) (size 9 to 14) (size 15 to 20)
#    0.750    0.500    2.500    5.250    0.000    3.000 
#    0.000    0.000    0.000    0.000    0.000    0.000 
#    0.000   56.000    0.000    0.000    0.000    0.000 
#
# Total GULP energy -178259.547320 kJ/mol
# GULP energy per Si atom -5570.610854 kJ/mol
# Density = 1.622044 g / cm^3
# Si number density = 16.257442 Si / 1000 Ang^3
#
#
#
# Elastic Constant Matrix: (Units=GPa)
#
#
# Indices 1 2 3 4 5 6 
#
# 1 70.1230 53.7755 30.6443 0.0000 0.0000 0.0000
# 2 53.7755 103.2645 54.9986 0.0000 0.0000 0.0000
# 3 30.6443 54.9986 134.4920 0.0000 0.0000 0.0000
# 4 0.0000 0.0000 0.0000 39.1166 0.0000 0.0000
# 5 0.0000 0.0000 0.0000 0.0000 -61.0646 0.0000
# 6 0.0000 0.0000 0.0000 0.0000 0.0000 20.9876
#
#
#
# Elastic Compliance Matrix: (Units=1/GPa)
#
#
# Indices 1 2 3 4 5 6 
#
# 1 0.023764 -0.012134 -0.000453 0.000000 0.000000 0.000000
# 2 -0.012134 0.018576 -0.004832 0.000000 0.000000 0.000000
# 3 -0.000453 -0.004832 0.009514 0.000000 0.000000 0.000000
# 4 0.000000 0.000000 0.000000 0.025565 0.000000 0.000000
# 5 0.000000 0.000000 0.000000 0.000000 -0.016376 0.000000
# 6 0.000000 0.000000 0.000000 0.000000 0.000000 0.047647
#
#
# Mechanical properties :
#
#
# Convention : Reuss Voigt Hill
#
# Bulk Modulus (GPa) = 58.76269 65.19069 61.97669
# Shear Modulus (GPa) = 33.51238 11.03868 22.27553
#
# Velocity S-wave (km/s) = 4.54514 2.60858 3.70560
# Velocity P-wave (km/s) = 7.98549 7.01847 7.51754
#
# Compressibility (1/GPa) = 0.01701760
#
# Stress axis : x y z
#
# Youngs Moduli (GPa) = 42.08103 53.83280 105.10447
#
# Poissons Ratio (x) = 0.65321 0.04757
# Poissons Ratio (y) = 0.51061 0.50783
# Poissons Ratio (z) = 0.01905 0.26010
#
# Static dielectric constant tensor:
#      x y z
#    x 1.499940 0.000000 0.000000 
#    y 0.000000 1.519220 0.000000 
#    z 0.000000 0.000000 1.539030 
# 
# From -- ./inp_files/3423.got.cif
#   From: 2010.05.17/outbox.cif.g08.bks.cpg/sg53_2_cif.got.tgz:3423.got - 2010.06.03 12:45:16.
