data_PCOD9414536
_publ_section_title
;
Structure prediction by ZEFSAII (Michael W. Deem and Ramdas Pophale) SiO2 
 PCOD9414536
Probable space group: P M N A
;
_chemical_formula_sum "Si O2"
_cell_formula_units_Z 32
_cell_length_a 19.324141
_cell_length_b 9.276324
_cell_length_c 8.633651
_cell_angle_alpha 90.000000
_cell_angle_beta 90.000000
_cell_angle_gamma 90.000000
_cell_volume 1547.642316
_symmetry_space_group_name_H-M "P M N A"
_symmetry_group_IT_number 53
_symmetry_cell_setting 'orthorhombic'
loop_
_space_group_symop_operation_xyz
x,y,z
1/2-x,-y,1/2+z
x,-y,-z
1/2-x,y,1/2-z
-x,-y,-z
1/2+x,y,1/2-z
-x,y,z
1/2+x,-y,1/2+z
loop_
_atom_site_type_symbol
_atom_site_label
_atom_site_fract_x
_atom_site_fract_y
_atom_site_fract_z
Si Si1 0.420015 0.801911 0.814367
Si Si2 0.645076 0.670492 0.500752
Si Si3 0.721953 0.841993 0.925313
Si Si4 0.419392 0.911072 0.352265
O O1 0.500000 0.769256 0.855017
O O2 0.399204 0.725652 0.651052
O O3 0.355207 0.775332 0.925659
O O4 0.414781 0.975283 0.785238
O O5 0.641799 0.500000 0.500000
O O6 0.722916 0.729872 0.508050
O O7 0.614397 0.755601 0.352885
O O8 0.750000 0.862631 0.750000
O O9 0.723136 0.000000 0.000000
O O10 0.500000 0.888470 0.383983
O O11 0.389164 0.000000 0.500000
#
# Coordination Sequence:
#
# PCOD9414536 Si02
#       4
#     8   8   8   8
#     4   9  18  33  52  75 103 136 176 221 269 319
#     4  10  18  29  49  77 107 140 178 219 263 311
#     4  10  20  36  56  79 107 140 179 223 267 313
#     4   8  14  27  48  73  99 127 167 217 259 300
#
# _framework density 20.676613
#
# number of rings (size 3 to 8) (size 9 to 14) (size 15 to 20)
#    0.000    2.750    0.000    6.000    0.000    2.500 
#    0.000   11.250    0.000    0.750    0.000    0.000 
#    0.000    0.000    0.000    0.000    0.000    0.000 
#
# Total GULP energy -178276.859682 kJ/mol
# GULP energy per Si atom -5571.151865 kJ/mol
# Density = 2.062955 g / cm^3
# Si number density = 20.676613 Si / 1000 Ang^3
#
#
#
# Elastic Constant Matrix: (Units=GPa)
#
#
# Indices 1 2 3 4 5 6 
#
# 1 181.0617 48.1540 15.0722 0.0000 0.0000 0.0000
# 2 48.1540 145.1267 8.3168 0.0000 0.0000 0.0000
# 3 15.0722 8.3168 10.8709 0.0000 0.0000 0.0000
# 4 0.0000 0.0000 0.0000 7.9783 0.0000 0.0000
# 5 0.0000 0.0000 0.0000 0.0000 2.4569 0.0000
# 6 0.0000 0.0000 0.0000 0.0000 0.0000 -3.6760
#
#
#
# Elastic Compliance Matrix: (Units=1/GPa)
#
#
# Indices 1 2 3 4 5 6 
#
# 1 0.006645 -0.001754 -0.007871 0.000000 0.000000 0.000000
# 2 -0.001754 0.007669 -0.003436 0.000000 0.000000 0.000000
# 3 -0.007871 -0.003436 0.105530 0.000000 0.000000 0.000000
# 4 0.000000 0.000000 0.000000 0.125340 0.000000 0.000000
# 5 0.000000 0.000000 0.000000 0.000000 0.407012 0.000000
# 6 0.000000 0.000000 0.000000 0.000000 0.000000 -0.272033
#
#
# Mechanical properties :
#
#
# Convention : Reuss Voigt Hill
#
# Bulk Modulus (GPa) = 10.66978 53.34949 32.00964
# Shear Modulus (GPa) = 11.42793 19.05293 15.24043
#
# Velocity S-wave (km/s) = 2.35350 3.03887 2.71788
# Velocity P-wave (km/s) = 3.54356 6.17826 5.03625
#
# Compressibility (1/GPa) = 0.09372260
#
# Stress axis : x y z
#
# Youngs Moduli (GPa) = 150.49890 130.38978 9.47599
#
# Poissons Ratio (x) = 0.22866 0.07458
# Poissons Ratio (y) = 0.26392 0.03256
# Poissons Ratio (z) = 1.18456 0.44802
#
# Static dielectric constant tensor:
#      x y z
#    x 1.799310 0.000000 0.000000 
#    y 0.000000 1.718910 0.000000 
#    z 0.000000 0.000000 1.845110 
# 
# From -- ./inp_files/16538.got.cif
#   From: 2010.05.17/outbox.cif.g08.bks.cpg/sg53_9_cif.got.tgz:16538.got - 2010.06.03 12:45:16.
