data_PCOD9414723
_publ_section_title
;
Structure prediction by ZEFSAII (Michael W. Deem and Ramdas Pophale) SiO2 
 PCOD9414723
Probable space group: P M N A
;
_chemical_formula_sum "Si O2"
_cell_formula_units_Z 40
_cell_length_a 15.355864
_cell_length_b 7.775760
_cell_length_c 15.517773
_cell_angle_alpha 90.000000
_cell_angle_beta 90.000000
_cell_angle_gamma 90.000000
_cell_volume 1852.876611
_symmetry_space_group_name_H-M "P M N A"
_symmetry_group_IT_number 53
_symmetry_cell_setting 'orthorhombic'
loop_
_space_group_symop_operation_xyz
x,y,z
1/2-x,-y,1/2+z
x,-y,-z
1/2-x,y,1/2-z
-x,-y,-z
1/2+x,y,1/2-z
-x,y,z
1/2+x,-y,1/2+z
loop_
_atom_site_type_symbol
_atom_site_label
_atom_site_fract_x
_atom_site_fract_y
_atom_site_fract_z
Si Si1 0.601638 0.890379 0.180230
Si Si2 0.904195 0.986076 0.880593
Si Si3 0.771214 0.811015 0.647643
Si Si4 0.279312 0.433011 0.848110
Si Si5 0.593241 0.645203 0.427438
O O1 0.500000 0.893306 0.158965
O O2 0.608367 0.926233 0.284205
O O3 0.647353 0.712646 0.152707
O O4 0.656783 0.042730 0.136149
O O5 0.908350 0.149897 0.943819
O O6 0.000000 0.900586 0.877749
O O7 0.821235 0.864987 0.892575
O O8 0.750000 0.806784 0.750000
O O9 0.802999 0.623311 0.618940
O O10 0.250000 0.453194 0.750000
O O11 0.189031 0.378498 0.890571
O O12 0.588808 0.500000 0.500000
O O13 0.500000 0.618829 0.376975
#
# Coordination Sequence:
#
# PCOD9414723 Si02
#       5
#     8   8   8   8   8
#     4  10  18  31  51  76 106 136 173 223 271 309
#     4   9  16  31  51  72 106 141 169 211 267 319
#     4   9  18  30  48  77 106 134 176 224 268 315
#     4  11  19  32  55  79 105 141 184 224 268 316
#     4  10  20  34  54  81 113 146 178 215 266 329
#
# _framework density 21.588054
#
# number of rings (size 3 to 8) (size 9 to 14) (size 15 to 20)
#    0.000    2.200    4.000    0.600    0.000    1.600 
#    0.000    5.000    0.000    4.200    0.000    1.400 
#    0.000    0.000    0.000    0.000    0.000    0.000 
#
# Total GULP energy -222994.445225 kJ/mol
# GULP energy per Si atom -5574.861131 kJ/mol
# Density = 2.153892 g / cm^3
# Si number density = 21.588054 Si / 1000 Ang^3
#
#
#
# Elastic Constant Matrix: (Units=GPa)
#
#
# Indices 1 2 3 4 5 6 
#
# 1 197.6716 102.6155 29.6406 0.0000 0.0000 0.0000
# 2 102.6155 187.4476 0.5442 0.0000 0.0000 0.0000
# 3 29.6406 0.5442 19.2186 0.0000 0.0000 0.0000
# 4 0.0000 0.0000 0.0000 14.2078 0.0000 0.0000
# 5 0.0000 0.0000 0.0000 0.0000 22.0035 0.0000
# 6 0.0000 0.0000 0.0000 0.0000 0.0000 4.9756
#
#
#
# Elastic Compliance Matrix: (Units=1/GPa)
#
#
# Indices 1 2 3 4 5 6 
#
# 1 0.010342 -0.005616 -0.015791 0.000000 0.000000 0.000000
# 2 -0.005616 0.008385 0.008424 0.000000 0.000000 0.000000
# 3 -0.015791 0.008424 0.076149 0.000000 0.000000 0.000000
# 4 0.000000 0.000000 0.000000 0.070384 0.000000 0.000000
# 5 0.000000 0.000000 0.000000 0.000000 0.045447 0.000000
# 6 0.000000 0.000000 0.000000 0.000000 0.000000 0.200982
#
#
# Mechanical properties :
#
#
# Convention : Reuss Voigt Hill
#
# Bulk Modulus (GPa) = 14.51187 74.43761 44.47474
# Shear Modulus (GPa) = 10.85479 26.33987 18.59733
#
# Velocity S-wave (km/s) = 2.24479 3.49680 2.93826
# Velocity P-wave (km/s) = 3.66818 7.13157 5.67075
#
# Compressibility (1/GPa) = 0.06890911
#
# Stress axis : x y z
#
# Youngs Moduli (GPa) = 96.69241 119.26558 13.13209
#
# Poissons Ratio (x) = 0.66977 0.20737
# Poissons Ratio (y) = 0.54300 -0.11062
# Poissons Ratio (z) = 1.52691 -1.00466
#
# Static dielectric constant tensor:
#      x y z
#    x 1.641270 0.000000 0.000000 
#    y 0.000000 1.836860 0.000000 
#    z 0.000000 0.000000 1.859030 
# 
# From -- ./inp_files/28071.got.cif
#   From: 2010.05.17/outbox.cif.g08.bks.cpg/sg53_15_cif.got.tgz:28071.got - 2010.06.03 12:45:16.
