data_PCOD9414881
_publ_section_title
;
Structure prediction by ZEFSAII (Michael W. Deem and Ramdas Pophale) SiO2 
 PCOD9414881
Probable space group: P M N A
;
_chemical_formula_sum "Si O2"
_cell_formula_units_Z 64
_cell_length_a 7.788665
_cell_length_b 12.675455
_cell_length_c 30.158889
_cell_angle_alpha 90.000000
_cell_angle_beta 90.000000
_cell_angle_gamma 90.000000
_cell_volume 2977.432478
_symmetry_space_group_name_H-M "P M N A"
_symmetry_group_IT_number 53
_symmetry_cell_setting 'orthorhombic'
loop_
_space_group_symop_operation_xyz
x,y,z
1/2-x,-y,1/2+z
x,-y,-z
1/2-x,y,1/2-z
-x,-y,-z
1/2+x,y,1/2-z
-x,y,z
1/2+x,-y,1/2+z
loop_
_atom_site_type_symbol
_atom_site_label
_atom_site_fract_x
_atom_site_fract_y
_atom_site_fract_z
Si Si1 0.709926 0.060449 0.891704
Si Si2 0.704282 0.860655 0.200729
Si Si3 0.705139 0.593514 0.702024
Si Si4 0.203745 0.629657 0.169387
Si Si5 0.299935 0.332182 0.392724
Si Si6 0.697403 0.136213 0.052261
Si Si7 0.210526 0.766878 0.462053
Si Si8 0.302987 0.556415 0.074452
O O1 0.500000 0.055311 0.890817
O O2 0.772844 0.959929 0.919531
O O3 0.769480 0.070942 0.840991
O O4 0.757774 0.165185 0.918974
O O5 0.750000 0.896776 0.250000
O O6 0.500000 0.858568 0.197849
O O7 0.764603 0.740660 0.192495
O O8 0.750000 0.637811 0.750000
O O9 0.500000 0.594017 0.698647
O O10 0.761862 0.471258 0.698133
O O11 0.768218 0.650112 0.657348
O O12 0.295781 0.615331 0.122208
O O13 0.000000 0.619136 0.160919
O O14 0.500000 0.302288 0.390851
O O15 0.202440 0.240846 0.418113
O O16 0.285961 0.444658 0.417637
O O17 0.500000 0.105613 0.042636
O O18 0.773667 0.170306 0.005115
O O19 0.268639 0.645376 0.458673
O O20 0.000000 0.762484 0.463514
O O21 0.500000 0.533507 0.062589
#
# Coordination Sequence:
#
# PCOD9414881 Si02
#       8
#     8   8   8   8   8   8   8   8
#     4   9  18  35  58  84 112 141 181 235 283 327
#     4  11  21  34  53  80 113 148 186 226 277 333
#     4   9  19  33  51  74 101 137 178 222 268 319
#     4  10  19  32  50  79 116 149 178 217 275 338
#     4  10  22  39  53  75 116 152 183 227 282 336
#     4  10  20  36  61  84 104 142 195 237 276 331
#     4   9  17  32  58  90 113 135 178 238 287 329
#     4  10  18  32  56  84 114 146 181 224 276 332
#
# _framework density 21.495028999999999
#
# number of rings (size 3 to 8) (size 9 to 14) (size 15 to 20)
#    0.000    2.250    1.250    3.000    0.000    6.000 
#    0.000    5.625    0.000    3.750    0.000    0.000 
#    0.000    0.000    0.000    0.000    0.000    0.000 
#
# Total GULP energy -357245.948525 kJ/mol
# GULP energy per Si atom -5581.967946 kJ/mol
# Density = 2.144611 g / cm^3
# Si number density = 21.495029 Si / 1000 Ang^3
#
#
#
# Elastic Constant Matrix: (Units=GPa)
#
#
# Indices 1 2 3 4 5 6 
#
# 1 38.0155 -10.0551 -7.2271 0.0000 0.0000 0.0000
# 2 -10.0551 58.5267 10.7428 0.0000 0.0000 0.0000
# 3 -7.2271 10.7428 74.7839 0.0000 0.0000 0.0000
# 4 0.0000 0.0000 0.0000 27.3807 0.0000 0.0000
# 5 0.0000 0.0000 0.0000 0.0000 13.8283 0.0000
# 6 0.0000 0.0000 0.0000 0.0000 0.0000 9.2393
#
#
#
# Elastic Compliance Matrix: (Units=1/GPa)
#
#
# Indices 1 2 3 4 5 6 
#
# 1 0.027863 0.004409 0.002059 0.000000 0.000000 0.000000
# 2 0.004409 0.018247 -0.002195 0.000000 0.000000 0.000000
# 3 0.002059 -0.002195 0.013886 0.000000 0.000000 0.000000
# 4 0.000000 0.000000 0.000000 0.036522 0.000000 0.000000
# 5 0.000000 0.000000 0.000000 0.000000 0.072316 0.000000
# 6 0.000000 0.000000 0.000000 0.000000 0.000000 0.108233
#
#
# Mechanical properties :
#
#
# Convention : Reuss Voigt Hill
#
# Bulk Modulus (GPa) = 14.58964 17.58305 16.08635
# Shear Modulus (GPa) = 17.16047 21.94734 19.55390
#
# Velocity S-wave (km/s) = 2.82857 3.19884 3.01939
# Velocity P-wave (km/s) = 4.17970 4.67346 4.43346
#
# Compressibility (1/GPa) = 0.06854176
#
# Stress axis : x y z
#
# Youngs Moduli (GPa) = 35.89026 54.80473 72.01391
#
# Poissons Ratio (x) = -0.24163 -0.14830
# Poissons Ratio (y) = -0.15824 0.15808
# Poissons Ratio (z) = -0.07391 0.12030
#
# Static dielectric constant tensor:
#      x y z
#    x 1.365470 0.000000 0.000000 
#    y 0.000000 1.759620 0.000000 
#    z 0.000000 0.000000 1.803710 
# 
# From -- ./inp_files/38309.got.cif
#   From: 2010.05.17/outbox.cif.g08.bks.cpg/sg53_20_cif.got.tgz:38309.got - 2010.06.03 12:45:16.
