data_PCOD9414707
_publ_section_title
;
Structure prediction by ZEFSAII (Michael W. Deem and Ramdas Pophale) SiO2 
 PCOD9414707
Probable space group: P M N A
;
_chemical_formula_sum "Si O2"
_cell_formula_units_Z 64
_cell_length_a 9.082202
_cell_length_b 10.835710
_cell_length_c 34.009435
_cell_angle_alpha 90.000000
_cell_angle_beta 90.000000
_cell_angle_gamma 90.000000
_cell_volume 3346.940157
_symmetry_space_group_name_H-M "P M N A"
_symmetry_group_IT_number 53
_symmetry_cell_setting 'orthorhombic'
loop_
_space_group_symop_operation_xyz
x,y,z
1/2-x,-y,1/2+z
x,-y,-z
1/2-x,y,1/2-z
-x,-y,-z
1/2+x,y,1/2-z
-x,y,z
1/2+x,-y,1/2+z
loop_
_atom_site_type_symbol
_atom_site_label
_atom_site_fract_x
_atom_site_fract_y
_atom_site_fract_z
Si Si1 0.323839 0.409024 0.708882
Si Si2 0.172124 0.301260 0.873481
Si Si3 0.324906 0.215744 0.130622
Si Si4 0.831550 0.687369 0.992726
Si Si5 0.176506 0.700791 0.791660
Si Si6 0.829253 0.071651 0.063563
Si Si7 0.173218 0.824604 0.442016
Si Si8 0.828934 0.566479 0.914758
O O1 0.250000 0.374100 0.750000
O O2 0.500000 0.399435 0.712450
O O3 0.279183 0.329290 0.671050
O O4 0.291928 0.554389 0.701325
O O5 0.269923 0.208774 0.898529
O O6 0.179551 0.431923 0.896418
O O7 0.000000 0.263194 0.873468
O O8 0.500000 0.205498 0.133553
O O9 0.248636 0.223513 0.173003
O O10 0.256756 0.110402 0.102940
O O11 0.277971 0.342234 0.108472
O O12 0.824138 0.810628 0.965373
O O13 0.799262 0.579410 0.961316
O O14 0.000000 0.673471 0.007232
O O15 0.725139 0.716590 0.028525
O O16 0.250000 0.732275 0.750000
O O17 0.000000 0.715588 0.790715
O O18 0.000000 0.045965 0.071758
O O19 0.754189 0.950658 0.046095
O O20 0.000000 0.839572 0.443449
O O21 0.000000 0.609779 0.909371
#
# Coordination Sequence:
#
# PCOD9414707 Si02
#       8
#     8   8   8   8   8   8   8   8
#     4   9  18  32  54  80 109 142 180 222 263 310
#     4  10  20  37  57  77 108 150 189 223 262 322
#     4  11  20  31  52  82 113 142 172 218 278 329
#     4   9  19  36  59  81 103 138 182 227 273 325
#     4  10  18  31  50  79 113 144 180 219 266 323
#     4  10  21  39  61  79 100 138 186 229 269 324
#     4  12  25  37  52  79 111 142 180 231 280 322
#     4   9  18  35  56  78 106 144 187 223 263 322
#
# _framework density 19.121943999999999
#
# number of rings (size 3 to 8) (size 9 to 14) (size 15 to 20)
#    0.000    2.000    1.250    4.125    0.000    6.000 
#    0.000    2.500    0.000    0.750    0.000    3.500 
#    0.000    0.000    0.000    0.000    0.000    0.000 
#
# Total GULP energy -357504.716291 kJ/mol
# GULP energy per Si atom -5586.011192 kJ/mol
# Density = 1.907842 g / cm^3
# Si number density = 19.121944 Si / 1000 Ang^3
#
#
#
# Elastic Constant Matrix: (Units=GPa)
#
#
# Indices 1 2 3 4 5 6 
#
# 1 101.4819 15.6731 46.8917 0.0000 0.0000 0.0000
# 2 15.6731 31.8959 9.5366 0.0000 0.0000 0.0000
# 3 46.8917 9.5366 114.6797 0.0000 0.0000 0.0000
# 4 0.0000 0.0000 0.0000 24.7954 0.0000 0.0000
# 5 0.0000 0.0000 0.0000 0.0000 30.5727 0.0000
# 6 0.0000 0.0000 0.0000 0.0000 0.0000 12.7374
#
#
#
# Elastic Compliance Matrix: (Units=1/GPa)
#
#
# Indices 1 2 3 4 5 6 
#
# 1 0.012845 -0.004862 -0.004848 0.000000 0.000000 0.000000
# 2 -0.004862 0.033992 -0.000839 0.000000 0.000000 0.000000
# 3 -0.004848 -0.000839 0.010772 0.000000 0.000000 0.000000
# 4 0.000000 0.000000 0.000000 0.040330 0.000000 0.000000
# 5 0.000000 0.000000 0.000000 0.000000 0.032709 0.000000
# 6 0.000000 0.000000 0.000000 0.000000 0.000000 0.078509
#
#
# Mechanical properties :
#
#
# Convention : Reuss Voigt Hill
#
# Bulk Modulus (GPa) = 27.38873 43.58449 35.48661
# Shear Modulus (GPa) = 20.62492 25.35148 22.98820
#
# Velocity S-wave (km/s) = 3.28777 3.64508 3.47102
# Velocity P-wave (km/s) = 5.36347 6.36850 5.88747
#
# Compressibility (1/GPa) = 0.03651136
#
# Stress axis : x y z
#
# Youngs Moduli (GPa) = 77.85136 29.41868 92.83379
#
# Poissons Ratio (x) = 0.14304 0.45005
# Poissons Ratio (y) = 0.37854 0.07785
# Poissons Ratio (z) = 0.37741 0.02467
#
# Static dielectric constant tensor:
#      x y z
#    x 1.629800 0.000000 0.000000 
#    y 0.000000 1.684430 0.000000 
#    z 0.000000 0.000000 1.683460 
# 
# From -- ./inp_files/38290.got.cif
#   From: 2010.05.17/outbox.cif.g08.bks.cpg/sg53_20_cif.got.tgz:38290.got - 2010.06.03 12:45:16.
