data_PCOD9414089
_publ_section_title
;
Structure prediction by ZEFSAII (Michael W. Deem and Ramdas Pophale) SiO2 
 PCOD9414089
Probable space group: P M N A
;
_chemical_formula_sum "Si O2"
_cell_formula_units_Z 64
_cell_length_a 18.716658
_cell_length_b 8.034014
_cell_length_c 17.420519
_cell_angle_alpha 90.000000
_cell_angle_beta 90.000000
_cell_angle_gamma 90.000000
_cell_volume 2619.521568
_symmetry_space_group_name_H-M "P M N A"
_symmetry_group_IT_number 53
_symmetry_cell_setting 'orthorhombic'
loop_
_space_group_symop_operation_xyz
x,y,z
1/2-x,-y,1/2+z
x,-y,-z
1/2-x,y,1/2-z
-x,-y,-z
1/2+x,y,1/2-z
-x,y,z
1/2+x,-y,1/2+z
loop_
_atom_site_type_symbol
_atom_site_label
_atom_site_fract_x
_atom_site_fract_y
_atom_site_fract_z
Si Si1 0.422543 0.957376 0.910341
Si Si2 0.918396 0.530247 0.260296
Si Si3 0.917233 0.092726 0.807733
Si Si4 0.307585 0.084274 0.193183
Si Si5 0.791725 0.834454 0.097727
Si Si6 0.582543 0.667822 0.081114
Si Si7 0.786909 0.679578 0.533889
Si Si8 0.790608 0.530689 0.827971
O O1 0.500000 0.884013 0.891794
O O2 0.356289 0.853745 0.878807
O O3 0.418592 0.147949 0.881348
O O4 0.420652 0.000000 0.000000
O O5 0.917347 0.717027 0.224833
O O6 0.893112 0.547392 0.349514
O O7 0.868599 0.421494 0.205211
O O8 0.000000 0.473160 0.262500
O O9 0.870468 0.981060 0.749653
O O10 0.870740 0.094272 0.886372
O O11 0.000000 0.041517 0.814048
O O12 0.250000 0.166881 0.250000
O O13 0.262238 0.936780 0.152646
O O14 0.794928 0.646045 0.129115
O O15 0.757032 0.819366 0.013739
O O16 0.500000 0.632205 0.061294
O O17 0.633799 0.676174 0.007689
O O18 0.762469 0.500000 0.500000
O O19 0.750225 0.660677 0.617965
O O20 0.750000 0.487541 0.750000
#
# Coordination Sequence:
#
# PCOD9414089 Si02
#       8
#     8   8   8   8   8   8   8   8
#     4  10  19  30  47  74 105 130 152 189 247 306
#     4   9  15  25  42  62  87 122 160 195 235 280
#     4   9  14  21  37  61  88 115 148 184 226 277
#     4  10  16  25  45  68  94 124 156 189 236 284
#     4   9  16  26  40  61  86 119 151 191 232 277
#     4  10  18  30  48  69  96 130 160 195 244 296
#     4  10  18  28  42  61  90 123 159 194 232 281
#     4  10  18  27  40  61  88 118 161 199 237 274
#
# _framework density 24.431940999999998
#
# number of rings (size 3 to 8) (size 9 to 14) (size 15 to 20)
#    0.000    2.375    2.500    3.750    0.000    0.250 
#    0.000    1.250    0.000    4.500    0.000    0.000 
#    0.000   12.500    0.000    0.000    0.000    0.625 
#
# Total GULP energy -357142.367554 kJ/mol
# GULP energy per Si atom -5580.349493 kJ/mol
# Density = 2.437633 g / cm^3
# Si number density = 24.431941 Si / 1000 Ang^3
#
#
#
# Elastic Constant Matrix: (Units=GPa)
#
#
# Indices 1 2 3 4 5 6 
#
# 1 213.0656 19.1788 87.6963 0.0000 0.0000 0.0000
# 2 19.1788 42.8680 -0.5906 0.0000 0.0000 0.0000
# 3 87.6963 -0.5906 137.2844 0.0000 0.0000 0.0000
# 4 0.0000 0.0000 0.0000 17.3160 0.0000 0.0000
# 5 0.0000 0.0000 0.0000 0.0000 44.4234 0.0000
# 6 0.0000 0.0000 0.0000 0.0000 0.0000 35.9803
#
#
#
# Elastic Compliance Matrix: (Units=1/GPa)
#
#
# Indices 1 2 3 4 5 6 
#
# 1 0.006751 -0.003080 -0.004326 0.000000 0.000000 0.000000
# 2 -0.003080 0.024734 0.002074 0.000000 0.000000 0.000000
# 3 -0.004326 0.002074 0.010056 0.000000 0.000000 0.000000
# 4 0.000000 0.000000 0.000000 0.057750 0.000000 0.000000
# 5 0.000000 0.000000 0.000000 0.000000 0.022511 0.000000
# 6 0.000000 0.000000 0.000000 0.000000 0.000000 0.027793
#
#
# Mechanical properties :
#
#
# Convention : Reuss Voigt Hill
#
# Bulk Modulus (GPa) = 32.38596 67.30966 49.84781
# Shear Modulus (GPa) = 29.31666 38.67283 33.99474
#
# Velocity S-wave (km/s) = 3.46776 3.98286 3.73420
# Velocity P-wave (km/s) = 5.41463 6.98288 6.24815
#
# Compressibility (1/GPa) = 0.03087757
#
# Stress axis : x y z
#
# Youngs Moduli (GPa) = 148.12394 40.43028 99.43946
#
# Poissons Ratio (x) = 0.12452 0.43016
# Poissons Ratio (y) = 0.45622 -0.20622
# Poissons Ratio (z) = 0.64076 -0.08385
#
# Static dielectric constant tensor:
#      x y z
#    x 1.988760 0.000000 0.000000 
#    y 0.000000 2.016710 0.000000 
#    z 0.000000 0.000000 1.575600 
# 
# From -- ./inp_files/29126.got.cif
#   From: 2010.05.17/outbox.cif.g08.bks.cpg/sg53_15_cif.got.tgz:29126.got - 2010.06.03 12:45:16.
