data_PCOD9414457
_publ_section_title
;
Structure prediction by ZEFSAII (Michael W. Deem and Ramdas Pophale) SiO2 
 PCOD9414457
Probable space group: P M N A
;
_chemical_formula_sum "Si O2"
_cell_formula_units_Z 64
_cell_length_a 18.334896
_cell_length_b 8.822649
_cell_length_c 19.158985
_cell_angle_alpha 90.000000
_cell_angle_beta 90.000000
_cell_angle_gamma 90.000000
_cell_volume 3099.202473
_symmetry_space_group_name_H-M "P M N A"
_symmetry_group_IT_number 53
_symmetry_cell_setting 'orthorhombic'
loop_
_space_group_symop_operation_xyz
x,y,z
1/2-x,-y,1/2+z
x,-y,-z
1/2-x,y,1/2-z
-x,-y,-z
1/2+x,y,1/2-z
-x,y,z
1/2+x,-y,1/2+z
loop_
_atom_site_type_symbol
_atom_site_label
_atom_site_fract_x
_atom_site_fract_y
_atom_site_fract_z
Si Si1 0.699900 0.394025 0.445562
Si Si2 0.777922 0.890836 0.176479
Si Si3 0.919642 0.921419 0.231649
Si Si4 0.819555 0.363475 0.611750
Si Si5 0.584492 0.260327 0.333891
Si Si6 0.708551 0.141458 0.090314
Si Si7 0.327307 0.613075 0.789657
Si Si8 0.914832 0.089478 0.598613
O O1 0.657573 0.500000 0.500000
O O2 0.761379 0.518918 0.422145
O O3 0.642407 0.319104 0.391866
O O4 0.750972 0.248946 0.465573
O O5 0.750000 0.959576 0.250000
O O6 0.857289 0.829072 0.193436
O O7 0.765774 0.016527 0.117810
O O8 0.728982 0.752533 0.154959
O O9 0.911115 0.085353 0.193474
O O10 0.909923 0.926090 0.315700
O O11 0.000000 0.863492 0.218494
O O12 0.857838 0.473392 0.666450
O O13 0.878681 0.250970 0.576919
O O14 0.500000 0.287391 0.353060
O O15 0.611845 0.345661 0.265470
O O16 0.689780 0.251133 0.155782
O O17 0.635919 0.048478 0.072197
O O18 0.250000 0.581465 0.750000
O O19 0.000000 0.079188 0.580322
#
# Coordination Sequence:
#
# PCOD9414457 Si02
#       8
#     8   8   8   8   8   8   8   8
#     4  11  24  41  57  77 107 156 212 245 268 318
#     4  11  16  29  52  82 112 145 172 221 282 350
#     4  10  18  28  49  84 120 148 172 209 277 359
#     4  10  22  32  56  82 117 144 184 230 293 343
#     4  11  21  33  56  88 118 150 194 236 281 341
#     4  10  18  32  59  79 107 147 191 227 275 341
#     4  11  17  30  52  83 114 148 180 230 288 346
#     4  10  20  33  53  89 121 138 166 223 298 361
#
# _framework density 20.650475
#
# number of rings (size 3 to 8) (size 9 to 14) (size 15 to 20)
#    0.000    1.500    7.500    0.750    0.000    0.750 
#    0.000    6.250    0.000    2.250    0.000    1.750 
#    0.000    0.000    0.000    0.000    0.000    0.000 
#
# Total GULP energy -356386.542963 kJ/mol
# GULP energy per Si atom -5568.539734 kJ/mol
# Density = 2.060347 g / cm^3
# Si number density = 20.650475 Si / 1000 Ang^3
#
#
#
# Elastic Constant Matrix: (Units=GPa)
#
#
# Indices 1 2 3 4 5 6 
#
# 1 121.2952 15.7558 12.3396 0.0000 0.0000 0.0000
# 2 15.7558 62.8321 5.3386 0.0000 0.0000 0.0000
# 3 12.3396 5.3386 30.3412 0.0000 0.0000 0.0000
# 4 0.0000 0.0000 0.0000 25.3909 0.0000 0.0000
# 5 0.0000 0.0000 0.0000 0.0000 12.6104 0.0000
# 6 0.0000 0.0000 0.0000 0.0000 0.0000 18.1692
#
#
#
# Elastic Compliance Matrix: (Units=1/GPa)
#
#
# Indices 1 2 3 4 5 6 
#
# 1 0.008827 -0.001937 -0.003249 0.000000 0.000000 0.000000
# 2 -0.001937 0.016582 -0.002130 0.000000 0.000000 0.000000
# 3 -0.003249 -0.002130 0.034655 0.000000 0.000000 0.000000
# 4 0.000000 0.000000 0.000000 0.039384 0.000000 0.000000
# 5 0.000000 0.000000 0.000000 0.000000 0.079299 0.000000
# 6 0.000000 0.000000 0.000000 0.000000 0.000000 0.055038
#
#
# Mechanical properties :
#
#
# Convention : Reuss Voigt Hill
#
# Bulk Modulus (GPa) = 22.01119 31.25960 26.63539
# Shear Modulus (GPa) = 18.97097 23.30307 21.13702
#
# Velocity S-wave (km/s) = 3.03424 3.36289 3.20278
# Velocity P-wave (km/s) = 4.79141 5.49991 5.15784
#
# Compressibility (1/GPa) = 0.04543145
#
# Stress axis : x y z
#
# Youngs Moduli (GPa) = 113.29514 60.30569 28.85623
#
# Poissons Ratio (x) = 0.11683 0.09375
# Poissons Ratio (y) = 0.21949 0.06146
# Poissons Ratio (z) = 0.36808 0.12844
#
# Static dielectric constant tensor:
#      x y z
#    x 1.766960 0.000000 0.000000 
#    y 0.000000 1.770020 0.000000 
#    z 0.000000 0.000000 1.827730 
# 
# From -- ./inp_files/32833.got.cif
#   From: 2010.05.17/outbox.cif.g08.bks.cpg/sg53_17_cif.got.tgz:32833.got - 2010.06.03 12:45:16.
