data_PCOD9414178
_publ_section_title
;
Structure prediction by ZEFSAII (Michael W. Deem and Ramdas Pophale) SiO2 
 PCOD9414178
Probable space group: P M N A
;
_chemical_formula_sum "Si O2"
_cell_formula_units_Z 56
_cell_length_a 8.524036
_cell_length_b 20.958567
_cell_length_c 14.141160
_cell_angle_alpha 90.000000
_cell_angle_beta 90.000000
_cell_angle_gamma 90.000000
_cell_volume 2526.340572
_symmetry_space_group_name_H-M "P M N A"
_symmetry_group_IT_number 53
_symmetry_cell_setting 'orthorhombic'
loop_
_space_group_symop_operation_xyz
x,y,z
1/2-x,-y,1/2+z
x,-y,-z
1/2-x,y,1/2-z
-x,-y,-z
1/2+x,y,1/2-z
-x,y,z
1/2+x,-y,1/2+z
loop_
_atom_site_type_symbol
_atom_site_label
_atom_site_fract_x
_atom_site_fract_y
_atom_site_fract_z
Si Si1 0.818029 0.617113 0.849653
Si Si2 0.810800 0.075911 0.911857
Si Si3 0.311387 0.783714 0.439985
Si Si4 0.185140 0.945816 0.620892
Si Si5 0.821154 0.484827 0.611867
Si Si6 0.312868 0.650032 0.056317
Si Si7 0.683150 0.810877 0.653189
O O1 0.750000 0.640482 0.750000
O O2 0.787326 0.540832 0.850256
O O3 0.742511 0.642894 0.946924
O O4 0.000000 0.631973 0.853977
O O5 0.754231 0.014995 0.852881
O O6 0.000000 0.071517 0.926905
O O7 0.774677 0.149594 0.886768
O O8 0.717068 0.064541 0.009167
O O9 0.500000 0.779001 0.442095
O O10 0.243174 0.717527 0.403619
O O11 0.254241 0.790329 0.549938
O O12 0.000000 0.941013 0.641414
O O13 0.284612 0.886531 0.658501
O O14 0.832716 0.500000 0.500000
O O15 0.758994 0.412525 0.614730
O O16 0.000000 0.489801 0.649869
O O17 0.500000 0.646819 0.055834
O O18 0.750000 0.782827 0.750000
O O19 0.500000 0.798412 0.651901
#
# Coordination Sequence:
#
# PCOD9414178 Si02
#       7
#     8   8   8   8   8   8   8
#     4  11  21  33  51  73  98 127 161 200 239 283
#     4   9  16  28  44  63  88 115 145 187 230 265
#     4   9  19  32  46  66  94 126 159 192 228 274
#     4  10  17  26  43  65  86 112 148 189 229 271
#     4   8  16  32  50  70  96 124 156 196 240 281
#     4  10  20  33  50  71  99 131 161 197 239 286
#     4  10  20  33  46  63  90 124 158 194 234 277
#
# _framework density 22.166449
#
# number of rings (size 3 to 8) (size 9 to 14) (size 15 to 20)
#    0.000    2.429    0.000    6.429    0.000    7.143 
#    0.000    1.429    0.000    0.000    0.000    1.000 
#    0.000    2.286    0.000    0.000    0.000    0.000 
#
# Total GULP energy -312296.106606 kJ/mol
# GULP energy per Si atom -5576.716189 kJ/mol
# Density = 2.211600 g / cm^3
# Si number density = 22.166449 Si / 1000 Ang^3
#
#
#
# Elastic Constant Matrix: (Units=GPa)
#
#
# Indices 1 2 3 4 5 6 
#
# 1 49.2138 15.5412 -4.4037 0.0000 0.0000 0.0000
# 2 15.5412 186.8543 -3.6554 0.0000 0.0000 0.0000
# 3 -4.4037 -3.6554 24.5760 0.0000 0.0000 0.0000
# 4 0.0000 0.0000 0.0000 -17.9673 0.0000 0.0000
# 5 0.0000 0.0000 0.0000 0.0000 -100.9340 0.0000
# 6 0.0000 0.0000 0.0000 0.0000 0.0000 32.0883
#
#
#
# Elastic Compliance Matrix: (Units=1/GPa)
#
#
# Indices 1 2 3 4 5 6 
#
# 1 0.021171 -0.001692 0.003542 0.000000 0.000000 0.000000
# 2 -0.001692 0.005503 0.000515 0.000000 0.000000 0.000000
# 3 0.003542 0.000515 0.041401 0.000000 0.000000 0.000000
# 4 0.000000 0.000000 0.000000 -0.055657 0.000000 0.000000
# 5 0.000000 0.000000 0.000000 0.000000 -0.009907 0.000000
# 6 0.000000 0.000000 0.000000 0.000000 0.000000 0.031164
#
#
# Mechanical properties :
#
#
# Convention : Reuss Voigt Hill
#
# Bulk Modulus (GPa) = 13.73514 30.62314 22.17914
# Shear Modulus (GPa) = 93.96442 -0.48513 46.73964
#
# Velocity S-wave (km/s) = 6.51785 -0.46833 4.59691
# Velocity P-wave (km/s) = 7.92799 3.68139 6.18084
#
# Compressibility (1/GPa) = 0.07280596
#
# Stress axis : x y z
#
# Youngs Moduli (GPa) = 47.23533 181.73450 24.15376
#
# Poissons Ratio (x) = 0.30741 -0.08555
# Poissons Ratio (y) = 0.07990 -0.01245
# Poissons Ratio (z) = -0.16730 -0.09366
#
# Static dielectric constant tensor:
#      x y z
#    x 1.744710 0.000000 0.000000 
#    y 0.000000 1.892390 0.000000 
#    z 0.000000 0.000000 1.927380 
# 
# From -- ./inp_files/31057.got.cif
#   From: 2010.05.17/outbox.cif.g08.bks.cpg/sg53_16_cif.got.tgz:31057.got - 2010.06.03 12:45:16.
