data_PCOD9414453
_publ_section_title
;
Structure prediction by ZEFSAII (Michael W. Deem and Ramdas Pophale) SiO2 
 PCOD9414453
Probable space group: P M N A
;
_chemical_formula_sum "Si O2"
_cell_formula_units_Z 64
_cell_length_a 9.329130
_cell_length_b 18.605153
_cell_length_c 17.064477
_cell_angle_alpha 90.000000
_cell_angle_beta 90.000000
_cell_angle_gamma 90.000000
_cell_volume 2961.879413
_symmetry_space_group_name_H-M "P M N A"
_symmetry_group_IT_number 53
_symmetry_cell_setting 'orthorhombic'
loop_
_space_group_symop_operation_xyz
x,y,z
1/2-x,-y,1/2+z
x,-y,-z
1/2-x,y,1/2-z
-x,-y,-z
1/2+x,y,1/2-z
-x,y,z
1/2+x,-y,1/2+z
loop_
_atom_site_type_symbol
_atom_site_label
_atom_site_fract_x
_atom_site_fract_y
_atom_site_fract_z
Si Si1 0.667616 0.937907 0.327081
Si Si2 0.162720 0.257255 0.174723
Si Si3 0.328887 0.293108 0.505888
Si Si4 0.837477 0.424618 0.456079
Si Si5 0.831245 0.472820 0.670755
Si Si6 0.660307 0.085144 0.979289
Si Si7 0.671315 0.301578 0.835397
Si Si8 0.159508 0.102184 0.125601
O O1 0.750000 0.913425 0.250000
O O2 0.500000 0.922056 0.322406
O O3 0.738802 0.906467 0.404797
O O4 0.684841 0.024941 0.335112
O O5 0.250000 0.284767 0.250000
O O6 0.157763 0.170301 0.181488
O O7 0.000000 0.284795 0.178658
O O8 0.211228 0.268256 0.083758
O O9 0.500000 0.282432 0.515435
O O10 0.279160 0.375264 0.495975
O O11 0.246779 0.267877 0.585974
O O12 0.855394 0.500000 0.500000
O O13 0.779283 0.456780 0.375733
O O14 0.000000 0.391930 0.452751
O O15 0.750000 0.475667 0.750000
O O16 0.817945 0.388058 0.648744
O O17 0.000000 0.484219 0.675737
O O18 0.500000 0.110308 0.963224
O O19 0.727915 0.116554 0.057326
O O20 0.655255 0.000000 0.000000
O O21 0.750000 0.287544 0.750000
O O22 0.500000 0.284255 0.830696
O O23 0.000000 0.096985 0.088568
#
# Coordination Sequence:
#
# PCOD9414453 Si02
#       8
#     8   8   8   8   8   8   8   8
#     4  10  18  28  47  76 110 146 183 223 273 326
#     4  10  23  41  59  81 112 149 194 241 284 331
#     4  11  23  37  55  82 112 145 184 230 281 334
#     4  10  19  35  53  72 102 139 175 214 269 333
#     4   9  18  31  49  72  99 129 164 206 257 318
#     4   9  17  29  47  74 106 138 175 221 271 325
#     4  10  19  35  57  82 108 136 170 214 268 328
#     4   9  18  34  54  75 103 143 187 232 276 321
#
# _framework density 21.607903
#
# number of rings (size 3 to 8) (size 9 to 14) (size 15 to 20)
#    0.000    2.250    1.250    1.875    0.000    5.250 
#    0.000    2.500    0.000    0.750    0.000    3.500 
#    0.000    0.000    0.000    0.000    0.000    0.000 
#
# Total GULP energy -356289.114729 kJ/mol
# GULP energy per Si atom -5567.017418 kJ/mol
# Density = 2.155872 g / cm^3
# Si number density = 21.607903 Si / 1000 Ang^3
#
#
#
# Elastic Constant Matrix: (Units=GPa)
#
#
# Indices 1 2 3 4 5 6 
#
# 1 104.3983 10.4376 91.9724 0.0000 0.0000 0.0000
# 2 10.4376 24.8346 10.1269 0.0000 0.0000 0.0000
# 3 91.9724 10.1269 125.9341 0.0000 0.0000 0.0000
# 4 0.0000 0.0000 0.0000 14.5112 0.0000 0.0000
# 5 0.0000 0.0000 0.0000 0.0000 32.7685 0.0000
# 6 0.0000 0.0000 0.0000 0.0000 0.0000 40.7363
#
#
#
# Elastic Compliance Matrix: (Units=1/GPa)
#
#
# Indices 1 2 3 4 5 6 
#
# 1 0.027142 -0.003437 -0.019546 0.000000 0.000000 0.000000
# 2 -0.003437 0.042067 -0.000873 0.000000 0.000000 0.000000
# 3 -0.019546 -0.000873 0.022285 0.000000 0.000000 0.000000
# 4 0.000000 0.000000 0.000000 0.068912 0.000000 0.000000
# 5 0.000000 0.000000 0.000000 0.000000 0.030517 0.000000
# 6 0.000000 0.000000 0.000000 0.000000 0.000000 0.024548
#
#
# Mechanical properties :
#
#
# Convention : Reuss Voigt Hill
#
# Bulk Modulus (GPa) = 22.83982 53.36009 38.09995
# Shear Modulus (GPa) = 18.00008 27.11188 22.55598
#
# Velocity S-wave (km/s) = 2.88936 3.54605 3.23441
# Velocity P-wave (km/s) = 4.66093 6.44315 5.62310
#
# Compressibility (1/GPa) = 0.04378318
#
# Stress axis : x y z
#
# Youngs Moduli (GPa) = 36.84379 23.77172 44.87224
#
# Poissons Ratio (x) = 0.08170 0.87706
# Poissons Ratio (y) = 0.12663 0.03916
# Poissons Ratio (z) = 0.72014 0.02075
#
# Static dielectric constant tensor:
#      x y z
#    x 1.763090 0.000000 0.000000 
#    y 0.000000 1.828750 0.000000 
#    z 0.000000 0.000000 3.369190 
# 
# From -- ./inp_files/26775.got.cif
#   From: 2010.05.17/outbox.cif.g08.bks.cpg/sg53_14_cif.got.tgz:26775.got - 2010.06.03 12:45:16.
