data_PCOD9414339
_publ_section_title
;
Structure prediction by ZEFSAII (Michael W. Deem and Ramdas Pophale) SiO2 
 PCOD9414339
Probable space group: P M N A
;
_chemical_formula_sum "Si O2"
_cell_formula_units_Z 48
_cell_length_a 7.340884
_cell_length_b 15.733811
_cell_length_c 21.419927
_cell_angle_alpha 90.000000
_cell_angle_beta 90.000000
_cell_angle_gamma 90.000000
_cell_volume 2474.003313
_symmetry_space_group_name_H-M "P M N A"
_symmetry_group_IT_number 53
_symmetry_cell_setting 'orthorhombic'
loop_
_space_group_symop_operation_xyz
x,y,z
1/2-x,-y,1/2+z
x,-y,-z
1/2-x,y,1/2-z
-x,-y,-z
1/2+x,y,1/2-z
-x,y,z
1/2+x,-y,1/2+z
loop_
_atom_site_type_symbol
_atom_site_label
_atom_site_fract_x
_atom_site_fract_y
_atom_site_fract_z
Si Si1 0.777230 0.068146 0.446819
Si Si2 0.722683 0.577820 0.043150
Si Si3 0.219650 0.766531 0.486101
Si Si4 0.782886 0.383061 0.681723
Si Si5 0.782957 0.010570 0.682487
Si Si6 0.779957 0.195782 0.656386
O O1 0.716539 0.162958 0.465173
O O2 0.000000 0.068650 0.447384
O O3 0.723625 0.000000 0.500000
O O4 0.716092 0.038133 0.378656
O O5 0.500000 0.577237 0.043067
O O6 0.780156 0.575346 0.116337
O O7 0.782313 0.500000 0.000000
O O8 0.781548 0.668881 0.014784
O O9 0.258878 0.802848 0.417295
O O10 0.000000 0.762640 0.491417
O O11 0.750000 0.422370 0.750000
O O12 0.711172 0.285664 0.682273
O O13 0.000000 0.378068 0.675224
O O14 0.750000 0.970525 0.750000
O O15 0.709792 0.107326 0.683002
O O16 0.000000 0.016959 0.674554
O O17 0.000000 0.196766 0.663665
#
# Coordination Sequence:
#
# PCOD9414339 Si02
#       6
#     8   8   8   8   8   8
#     4   9  14  22  38  58  76  98 134 172 196 222
#     4   8  14  24  39  59  81 103 130 167 206 237
#     4   8  12  20  36  58  78  96 127 170 204 227
#     4   9  16  25  39  59  83 107 129 157 199 245
#     4  10  18  26  38  57  82 108 134 165 202 238
#     4   8  13  22  36  57  81 103 127 159 197 237
#
# _framework density 19.401751999999998
#
# number of rings (size 3 to 8) (size 9 to 14) (size 15 to 20)
#    0.000    3.333    1.667    2.500    0.000    0.000 
#    0.000    0.000    0.000    2.000    0.000    1.167 
#    0.000    0.000    0.000    0.000    0.000    0.000 
#
# Total GULP energy -267492.281634 kJ/mol
# GULP energy per Si atom -5572.755867 kJ/mol
# Density = 1.935759 g / cm^3
# Si number density = 19.401752 Si / 1000 Ang^3
#
#
#
# Elastic Constant Matrix: (Units=GPa)
#
#
# Indices 1 2 3 4 5 6 
#
# 1 73.1179 3.2411 3.8703 0.0000 0.0000 0.0000
# 2 3.2411 114.2368 97.3234 0.0000 0.0000 0.0000
# 3 3.8703 97.3234 182.1113 0.0000 0.0000 0.0000
# 4 0.0000 0.0000 0.0000 20.3009 0.0000 0.0000
# 5 0.0000 0.0000 0.0000 0.0000 10.9746 0.0000
# 6 0.0000 0.0000 0.0000 0.0000 0.0000 -64.4356
#
#
#
# Elastic Compliance Matrix: (Units=1/GPa)
#
#
# Indices 1 2 3 4 5 6 
#
# 1 0.013696 -0.000258 -0.000153 0.000000 0.000000 0.000000
# 2 -0.000258 0.016075 -0.008586 0.000000 0.000000 0.000000
# 3 -0.000153 -0.008586 0.010083 0.000000 0.000000 0.000000
# 4 0.000000 0.000000 0.000000 0.049259 0.000000 0.000000
# 5 0.000000 0.000000 0.000000 0.000000 0.091120 0.000000
# 6 0.000000 0.000000 0.000000 0.000000 0.000000 -0.015519
#
#
# Mechanical properties :
#
#
# Convention : Reuss Voigt Hill
#
# Bulk Modulus (GPa) = 45.74428 64.25950 55.00189
# Shear Modulus (GPa) = 26.31666 11.03672 18.67669
#
# Velocity S-wave (km/s) = 3.68694 2.38765 3.10599
# Velocity P-wave (km/s) = 6.46168 6.38698 6.42444
#
# Compressibility (1/GPa) = 0.02186066
#
# Stress axis : x y z
#
# Youngs Moduli (GPa) = 73.01358 62.20671 99.18039
#
# Poissons Ratio (x) = 0.01606 0.01519
# Poissons Ratio (y) = 0.01885 0.85151
# Poissons Ratio (z) = 0.01118 0.53408
#
# Static dielectric constant tensor:
#      x y z
#    x 1.781990 0.000000 0.000000 
#    y 0.000000 1.666090 0.000000 
#    z 0.000000 0.000000 1.702570 
# 
# From -- ./inp_files/21890.got.cif
#   From: 2010.05.17/outbox.cif.g08.bks.cpg/sg53_11_cif.got.tgz:21890.got - 2010.06.03 12:45:16.
