data_PCOD9414366
_publ_section_title
;
Structure prediction by ZEFSAII (Michael W. Deem and Ramdas Pophale) SiO2 
 PCOD9414366
Probable space group: P M N A
;
_chemical_formula_sum "Si O2"
_cell_formula_units_Z 64
_cell_length_a 8.925535
_cell_length_b 27.128226
_cell_length_c 18.608508
_cell_angle_alpha 90.000000
_cell_angle_beta 90.000000
_cell_angle_gamma 90.000000
_cell_volume 4505.751186
_symmetry_space_group_name_H-M "P M N A"
_symmetry_group_IT_number 53
_symmetry_cell_setting 'orthorhombic'
loop_
_space_group_symop_operation_xyz
x,y,z
1/2-x,-y,1/2+z
x,-y,-z
1/2-x,y,1/2-z
-x,-y,-z
1/2+x,y,1/2-z
-x,y,z
1/2+x,-y,1/2+z
loop_
_atom_site_type_symbol
_atom_site_label
_atom_site_fract_x
_atom_site_fract_y
_atom_site_fract_z
Si Si1 0.820024 0.104632 0.576135
Si Si2 0.321433 0.489360 0.828303
Si Si3 0.178546 0.008730 0.671740
Si Si4 0.819279 0.603159 0.086600
Si Si5 0.179997 0.309105 0.671789
Si Si6 0.172613 0.049488 0.049147
Si Si7 0.320297 0.805353 0.172803
Si Si8 0.827971 0.451852 0.051815
O O1 0.783249 0.060333 0.631773
O O2 0.745212 0.091329 0.500497
O O3 0.772048 0.155809 0.612414
O O4 0.000000 0.104639 0.567137
O O5 0.250000 0.495632 0.750000
O O6 0.500000 0.484689 0.823870
O O7 0.251725 0.440171 0.864563
O O8 0.274739 0.534073 0.881252
O O9 0.250000 0.007379 0.750000
O O10 0.000000 0.005975 0.676791
O O11 0.239298 0.965229 0.620770
O O12 0.753164 0.654144 0.114883
O O13 0.000000 0.601329 0.093451
O O14 0.782515 0.591187 0.003248
O O15 0.250000 0.320539 0.750000
O O16 0.214984 0.251686 0.656322
O O17 0.000000 0.315151 0.674155
O O18 0.000000 0.060239 0.065144
O O19 0.178215 0.000000 0.000000
O O20 0.250000 0.817727 0.250000
O O21 0.500000 0.809251 0.179402
O O22 0.000000 0.444482 0.075706
O O23 0.827941 0.500000 0.000000
#
# Coordination Sequence:
#
# PCOD9414366 Si02
#       8
#     8   8   8   8   8   8   8   8
#     4   9  17  29  43  59  81 110 141 171 208 247
#     4  11  20  29  43  62  85 111 140 171 203 243
#     4  10  18  27  41  60  83 110 139 171 205 245
#     4  10  19  31  45  60  82 111 141 173 209 246
#     4  10  19  30  43  60  83 110 142 177 210 243
#     4   9  17  28  41  58  80 106 137 171 205 243
#     4   9  18  30  43  60  83 110 140 176 211 243
#     4   8  16  30  44  59  81 107 135 169 207 244
#
# _framework density 14.204069
#
# number of rings (size 3 to 8) (size 9 to 14) (size 15 to 20)
#    0.000    2.500    0.000    4.125    0.000    5.750 
#    0.000    0.000    0.000    0.000    0.000    0.000 
#    0.000    1.000    0.000    5.250    0.000    4.500 
#
# Total GULP energy -356710.490433 kJ/mol
# GULP energy per Si atom -5573.601413 kJ/mol
# Density = 1.417174 g / cm^3
# Si number density = 14.204069 Si / 1000 Ang^3
#
#
#
# Elastic Constant Matrix: (Units=GPa)
#
#
# Indices 1 2 3 4 5 6 
#
# 1 64.8866 30.5059 48.8906 0.0000 0.0000 0.0000
# 2 30.5059 64.4453 37.3754 0.0000 0.0000 0.0000
# 3 48.8906 37.3754 85.2684 0.0000 0.0000 0.0000
# 4 0.0000 0.0000 0.0000 28.2779 0.0000 0.0000
# 5 0.0000 0.0000 0.0000 0.0000 26.7497 0.0000
# 6 0.0000 0.0000 0.0000 0.0000 0.0000 -8.3638
#
#
#
# Elastic Compliance Matrix: (Units=1/GPa)
#
#
# Indices 1 2 3 4 5 6 
#
# 1 0.028457 -0.005374 -0.013961 0.000000 0.000000 0.000000
# 2 -0.005374 0.021821 -0.006484 0.000000 0.000000 0.000000
# 3 -0.013961 -0.006484 0.022575 0.000000 0.000000 0.000000
# 4 0.000000 0.000000 0.000000 0.035363 0.000000 0.000000
# 5 0.000000 0.000000 0.000000 0.000000 0.037384 0.000000
# 6 0.000000 0.000000 0.000000 0.000000 0.000000 -0.119563
#
#
# Mechanical properties :
#
#
# Convention : Reuss Voigt Hill
#
# Bulk Modulus (GPa) = 47.13455 49.79381 48.46418
# Shear Modulus (GPa) = 59.00017 15.85466 37.42742
#
# Velocity S-wave (km/s) = 6.45195 3.34459 5.13877
# Velocity P-wave (km/s) = 9.42122 7.07440 8.33087
#
# Compressibility (1/GPa) = 0.02121586
#
# Stress axis : x y z
#
# Youngs Moduli (GPa) = 35.14015 45.82757 44.29757
#
# Poissons Ratio (x) = 0.24627 0.61845
# Poissons Ratio (y) = 0.18883 0.28720
# Poissons Ratio (z) = 0.49060 0.29712
#
# Static dielectric constant tensor:
#      x y z
#    x 1.473280 0.000000 0.000000 
#    y 0.000000 1.468080 0.000000 
#    z 0.000000 0.000000 1.454520 
# 
# From -- ./inp_files/27083.got.cif
#   From: 2010.05.17/outbox.cif.g08.bks.cpg/sg53_14_cif.got.tgz:27083.got - 2010.06.03 12:45:16.
