data_PCOD9414188
_publ_section_title
;
Structure prediction by ZEFSAII (Michael W. Deem and Ramdas Pophale) SiO2 
 PCOD9414188
Probable space group: P M N A
;
_chemical_formula_sum "Si O2"
_cell_formula_units_Z 64
_cell_length_a 8.295282
_cell_length_b 22.625369
_cell_length_c 19.338884
_cell_angle_alpha 90.000000
_cell_angle_beta 90.000000
_cell_angle_gamma 90.000000
_cell_volume 3629.595550
_symmetry_space_group_name_H-M "P M N A"
_symmetry_group_IT_number 53
_symmetry_cell_setting 'orthorhombic'
loop_
_space_group_symop_operation_xyz
x,y,z
1/2-x,-y,1/2+z
x,-y,-z
1/2-x,y,1/2-z
-x,-y,-z
1/2+x,y,1/2-z
-x,y,z
1/2+x,-y,1/2+z
loop_
_atom_site_type_symbol
_atom_site_label
_atom_site_fract_x
_atom_site_fract_y
_atom_site_fract_z
Si Si1 0.802815 0.198496 0.467235
Si Si2 0.306718 0.135333 0.174935
Si Si3 0.193193 0.679235 0.469740
Si Si4 0.812145 0.085008 0.542777
Si Si5 0.311847 0.971502 0.596971
Si Si6 0.309135 0.559334 0.537750
Si Si7 0.194287 0.631812 0.326481
Si Si8 0.306745 0.494940 0.173396
O O1 0.752857 0.175367 0.390987
O O2 0.746227 0.263305 0.489367
O O3 0.752598 0.150986 0.525996
O O4 0.000000 0.197560 0.466283
O O5 0.250000 0.156680 0.250000
O O6 0.500000 0.132688 0.173801
O O7 0.237391 0.069513 0.160776
O O8 0.231343 0.618537 0.508836
O O9 0.252675 0.671000 0.390801
O O10 0.000000 0.685397 0.465978
O O11 0.789830 0.054919 0.467143
O O12 0.000000 0.086753 0.560720
O O13 0.724631 0.041314 0.596122
O O14 0.500000 0.963012 0.581894
O O15 0.246022 0.500000 0.500000
O O16 0.500000 0.563026 0.525859
O O17 0.271075 0.547765 0.617500
O O18 0.250000 0.649427 0.250000
O O19 0.245396 0.563399 0.338864
O O20 0.000000 0.631942 0.326579
O O21 0.250000 0.479672 0.250000
O O22 0.500000 0.492561 0.168172
#
# Coordination Sequence:
#
# PCOD9414188 Si02
#       8
#     8   8   8   8   8   8   8   8
#     4   8  17  32  52  74  99 133 177 218 258 308
#     4  10  19  33  51  74 102 136 174 218 264 307
#     4  10  19  35  55  76 100 135 179 217 258 318
#     4   9  15  27  46  70  98 128 160 202 250 296
#     4  10  17  26  44  72  99 127 161 203 249 295
#     4  11  22  34  50  75 105 135 168 215 267 314
#     4   9  18  30  50  75  99 124 157 200 253 310
#     4  10  19  33  52  76 101 131 164 205 258 317
#
# _framework density 17.632819000000001
#
# number of rings (size 3 to 8) (size 9 to 14) (size 15 to 20)
#    0.000    2.375    1.250    4.125    0.000    1.500 
#    0.000    4.375    0.000    2.250    0.000    1.750 
#    0.000    0.000    0.000    0.000    0.000    0.000 
#
# Total GULP energy -356601.757878 kJ/mol
# GULP energy per Si atom -5571.902467 kJ/mol
# Density = 1.759269 g / cm^3
# Si number density = 17.632819 Si / 1000 Ang^3
#
#
#
# Elastic Constant Matrix: (Units=GPa)
#
#
# Indices 1 2 3 4 5 6 
#
# 1 14.2060 7.8848 4.3707 0.0000 0.0000 0.0000
# 2 7.8848 118.9645 60.6257 0.0000 0.0000 0.0000
# 3 4.3707 60.6257 106.1442 0.0000 0.0000 0.0000
# 4 0.0000 0.0000 0.0000 34.1927 0.0000 0.0000
# 5 0.0000 0.0000 0.0000 0.0000 21.9685 0.0000
# 6 0.0000 0.0000 0.0000 0.0000 0.0000 11.8350
#
#
#
# Elastic Compliance Matrix: (Units=1/GPa)
#
#
# Indices 1 2 3 4 5 6 
#
# 1 0.073090 -0.004670 -0.000342 0.000000 0.000000 0.000000
# 2 -0.004670 0.012156 -0.006751 0.000000 0.000000 0.000000
# 3 -0.000342 -0.006751 0.013291 0.000000 0.000000 0.000000
# 4 0.000000 0.000000 0.000000 0.029246 0.000000 0.000000
# 5 0.000000 0.000000 0.000000 0.000000 0.045520 0.000000
# 6 0.000000 0.000000 0.000000 0.000000 0.000000 0.084495
#
#
# Mechanical properties :
#
#
# Convention : Reuss Voigt Hill
#
# Bulk Modulus (GPa) = 13.33135 42.78632 28.05883
# Shear Modulus (GPa) = 16.32247 24.69482 20.50865
#
# Velocity S-wave (km/s) = 3.04581 3.74639 3.41412
# Velocity P-wave (km/s) = 4.46612 6.55986 5.61151
#
# Compressibility (1/GPa) = 0.07501116
#
# Stress axis : x y z
#
# Youngs Moduli (GPa) = 13.68174 82.26718 75.23950
#
# Poissons Ratio (x) = 0.38417 0.02576
# Poissons Ratio (y) = 0.06389 0.50790
# Poissons Ratio (z) = 0.00468 0.55534
#
# Static dielectric constant tensor:
#      x y z
#    x 1.607220 0.000000 0.000000 
#    y 0.000000 1.629170 0.000000 
#    z 0.000000 0.000000 1.673340 
# 
# From -- ./inp_files/27040.got.cif
#   From: 2010.05.17/outbox.cif.g08.bks.cpg/sg53_14_cif.got.tgz:27040.got - 2010.06.03 12:45:16.
