data_PCOD9414740
_publ_section_title
;
Structure prediction by ZEFSAII (Michael W. Deem and Ramdas Pophale) SiO2 
 PCOD9414740
Probable space group: P M N A
;
_chemical_formula_sum "Si O2"
_cell_formula_units_Z 64
_cell_length_a 9.058455
_cell_length_b 21.958554
_cell_length_c 19.014576
_cell_angle_alpha 90.000000
_cell_angle_beta 90.000000
_cell_angle_gamma 90.000000
_cell_volume 3782.200213
_symmetry_space_group_name_H-M "P M N A"
_symmetry_group_IT_number 53
_symmetry_cell_setting 'orthorhombic'
loop_
_space_group_symop_operation_xyz
x,y,z
1/2-x,-y,1/2+z
x,-y,-z
1/2-x,y,1/2-z
-x,-y,-z
1/2+x,y,1/2-z
-x,y,z
1/2+x,-y,1/2+z
loop_
_atom_site_type_symbol
_atom_site_label
_atom_site_fract_x
_atom_site_fract_y
_atom_site_fract_z
Si Si1 0.169660 0.765517 0.133177
Si Si2 0.174470 0.699252 0.571635
Si Si3 0.322545 0.066448 0.974205
Si Si4 0.167551 0.184024 0.027213
Si Si5 0.824132 0.516979 0.082072
Si Si6 0.823977 0.647435 0.414202
Si Si7 0.677938 0.410717 0.173540
Si Si8 0.676390 0.113410 0.819848
O O1 0.250637 0.700644 0.132345
O O2 0.260630 0.818217 0.171502
O O3 0.000000 0.761784 0.157839
O O4 0.166480 0.787986 0.051873
O O5 0.258396 0.763208 0.573189
O O6 0.200373 0.667153 0.495824
O O7 0.215421 0.651285 0.631596
O O8 0.000000 0.711347 0.575605
O O9 0.500000 0.070005 0.979321
O O10 0.284237 0.078831 0.892351
O O11 0.254593 0.120994 0.019984
O O12 0.274642 0.000000 0.000000
O O13 0.000000 0.172974 0.048955
O O14 0.753577 0.582832 0.096547
O O15 0.744308 0.466524 0.129193
O O16 0.000000 0.517693 0.095270
O O17 0.801286 0.500000 0.000000
O O18 0.000000 0.644062 0.402672
O O19 0.750000 0.410274 0.250000
O O20 0.500000 0.415653 0.177063
O O21 0.750000 0.086504 0.750000
O O22 0.500000 0.114680 0.813297
#
# Coordination Sequence:
#
# PCOD9414740 Si02
#       8
#     8   8   8   8   8   8   8   8
#     4   9  17  30  47  72 103 132 165 207 255 304
#     4   9  18  32  52  75 101 133 169 210 259 314
#     4   9  18  33  53  77 107 143 181 218 258 308
#     4   9  17  28  48  77 105 130 163 210 256 297
#     4  11  22  35  54  79 106 138 180 226 270 322
#     4  10  18  31  52  77 103 132 171 216 262 312
#     4  11  23  39  56  77 105 139 177 222 277 331
#     4  10  19  32  51  75 104 139 177 216 261 313
#
# _framework density 16.921367
#
# number of rings (size 3 to 8) (size 9 to 14) (size 15 to 20)
#    0.000    2.250    1.250    2.250    0.000    5.750 
#    0.000    0.625    0.000    0.750    0.000    1.750 
#    0.000    0.000    0.000    0.000    0.000    0.000 
#
# Total GULP energy -357022.217024 kJ/mol
# GULP energy per Si atom -5578.472141 kJ/mol
# Density = 1.688285 g / cm^3
# Si number density = 16.921367 Si / 1000 Ang^3
#
#
#
# Elastic Constant Matrix: (Units=GPa)
#
#
# Indices 1 2 3 4 5 6 
#
# 1 79.8483 70.3622 50.2438 0.0000 0.0000 0.0000
# 2 70.3622 160.1402 57.6735 0.0000 0.0000 0.0000
# 3 50.2438 57.6735 78.8643 0.0000 0.0000 0.0000
# 4 0.0000 0.0000 0.0000 13.7234 0.0000 0.0000
# 5 0.0000 0.0000 0.0000 0.0000 20.7124 0.0000
# 6 0.0000 0.0000 0.0000 0.0000 0.0000 19.8509
#
#
#
# Elastic Compliance Matrix: (Units=1/GPa)
#
#
# Indices 1 2 3 4 5 6 
#
# 1 0.026139 -0.007449 -0.011205 0.000000 0.000000 0.000000
# 2 -0.007449 0.010600 -0.003006 0.000000 0.000000 0.000000
# 3 -0.011205 -0.003006 0.022017 0.000000 0.000000 0.000000
# 4 0.000000 0.000000 0.000000 0.072868 0.000000 0.000000
# 5 0.000000 0.000000 0.000000 0.000000 0.048280 0.000000
# 6 0.000000 0.000000 0.000000 0.000000 0.000000 0.050376
#
#
# Mechanical properties :
#
#
# Convention : Reuss Voigt Hill
#
# Bulk Modulus (GPa) = 64.78759 75.04576 69.91667
# Shear Modulus (GPa) = 17.93748 20.22890 19.08319
#
# Velocity S-wave (km/s) = 3.25937 3.46130 3.36185
# Velocity P-wave (km/s) = 7.24812 7.77304 7.51516
#
# Compressibility (1/GPa) = 0.01543505
#
# Stress axis : x y z
#
# Youngs Moduli (GPa) = 38.25719 94.33748 45.41951
#
# Poissons Ratio (x) = 0.70276 0.50893
# Poissons Ratio (y) = 0.28499 0.13653
# Poissons Ratio (z) = 0.42868 0.28358
#
# Static dielectric constant tensor:
#      x y z
#    x 1.567060 0.000000 0.000000 
#    y 0.000000 1.550360 0.000000 
#    z 0.000000 0.000000 1.577710 
# 
# From -- ./inp_files/26779.got.cif
#   From: 2010.05.17/outbox.cif.g08.bks.cpg/sg53_14_cif.got.tgz:26779.got - 2010.06.03 12:45:16.
