data_PCOD9414766
_publ_section_title
;
Structure prediction by ZEFSAII (Michael W. Deem and Ramdas Pophale) SiO2 
 PCOD9414766
Probable space group: P M N A
;
_chemical_formula_sum "Si O2"
_cell_formula_units_Z 48
_cell_length_a 18.415481
_cell_length_b 11.395986
_cell_length_c 11.693123
_cell_angle_alpha 90.000000
_cell_angle_beta 90.000000
_cell_angle_gamma 90.000000
_cell_volume 2453.948770
_symmetry_space_group_name_H-M "P M N A"
_symmetry_group_IT_number 53
_symmetry_cell_setting 'orthorhombic'
loop_
_space_group_symop_operation_xyz
x,y,z
1/2-x,-y,1/2+z
x,-y,-z
1/2-x,y,1/2-z
-x,-y,-z
1/2+x,y,1/2-z
-x,y,z
1/2+x,-y,1/2+z
loop_
_atom_site_type_symbol
_atom_site_label
_atom_site_fract_x
_atom_site_fract_y
_atom_site_fract_z
Si Si1 0.579491 0.705894 0.158595
Si Si2 0.274987 0.436784 0.874621
Si Si3 0.294028 0.218885 0.509456
Si Si4 0.865344 0.866050 0.525477
Si Si5 0.829515 0.869033 0.777803
Si Si6 0.915952 0.095193 0.853394
O O1 0.500000 0.651806 0.175803
O O2 0.646334 0.617288 0.154881
O O3 0.588960 0.809645 0.251342
O O4 0.584429 0.776317 0.040383
O O5 0.250000 0.489356 0.750000
O O6 0.281559 0.500000 0.000000
O O7 0.219274 0.332506 0.912195
O O8 0.217739 0.149692 0.518957
O O9 0.311564 0.228711 0.373762
O O10 0.361612 0.145481 0.553269
O O11 0.861257 0.829673 0.657312
O O12 0.886960 0.000000 0.500000
O O13 0.750000 0.924062 0.750000
O O14 0.883490 0.970360 0.818292
O O15 0.000000 0.086872 0.887355
#
# Coordination Sequence:
#
# PCOD9414766 Si02
#       6
#     8   8   8   8   8   8
#     4  10  22  37  59  88 119 156 193 239 299 363
#     4  11  24  43  70  91 112 150 206 267 315 363
#     4  10  21  36  56  83 119 152 198 250 294 352
#     4  10  18  31  53  82 118 163 198 237 282 340
#     4  10  20  32  53  85 124 164 198 240 283 338
#     4  11  21  34  56  85 122 163 198 228 281 359
#
# _framework density 19.560310999999999
#
# number of rings (size 3 to 8) (size 9 to 14) (size 15 to 20)
#    0.000    1.667    3.333    2.500    2.333    6.000 
#    0.000    0.000    0.000    2.000    0.000    0.000 
#    0.000    0.000    0.000    0.000    0.000    0.000 
#
# Total GULP energy -267341.655668 kJ/mol
# GULP energy per Si atom -5569.617826 kJ/mol
# Density = 1.951579 g / cm^3
# Si number density = 19.560311 Si / 1000 Ang^3
#
#
#
# Elastic Constant Matrix: (Units=GPa)
#
#
# Indices 1 2 3 4 5 6 
#
# 1 100.2627 14.4257 35.6382 0.0000 0.0000 0.0000
# 2 14.4257 19.1603 18.4972 0.0000 0.0000 0.0000
# 3 35.6382 18.4972 118.7690 0.0000 0.0000 0.0000
# 4 0.0000 0.0000 0.0000 32.5369 0.0000 0.0000
# 5 0.0000 0.0000 0.0000 0.0000 6.8970 0.0000
# 6 0.0000 0.0000 0.0000 0.0000 0.0000 -9.4728
#
#
#
# Elastic Compliance Matrix: (Units=1/GPa)
#
#
# Indices 1 2 3 4 5 6 
#
# 1 0.011802 -0.006434 -0.002539 0.000000 0.000000 0.000000
# 2 -0.006434 0.064935 -0.008182 0.000000 0.000000 0.000000
# 3 -0.002539 -0.008182 0.010456 0.000000 0.000000 0.000000
# 4 0.000000 0.000000 0.000000 0.030734 0.000000 0.000000
# 5 0.000000 0.000000 0.000000 0.000000 0.144990 0.000000
# 6 0.000000 0.000000 0.000000 0.000000 0.000000 -0.105565
#
#
# Mechanical properties :
#
#
# Convention : Reuss Voigt Hill
#
# Bulk Modulus (GPa) = 18.91041 41.70156 30.30598
# Shear Modulus (GPa) = 23.89013 17.30093 20.59553
#
# Velocity S-wave (km/s) = 3.49858 2.97727 3.24840
# Velocity P-wave (km/s) = 5.09989 5.76061 5.44029
#
# Compressibility (1/GPa) = 0.05288094
#
# Stress axis : x y z
#
# Youngs Moduli (GPa) = 84.73029 15.40011 95.63914
#
# Poissons Ratio (x) = 0.09909 0.24286
# Poissons Ratio (y) = 0.54518 0.78254
# Poissons Ratio (z) = 0.21516 0.12601
#
# Static dielectric constant tensor:
#      x y z
#    x 1.668690 0.000000 0.000000 
#    y 0.000000 1.685310 0.000000 
#    z 0.000000 0.000000 1.831930 
# 
# From -- ./inp_files/16893.got.cif
#   From: 2010.05.17/outbox.cif.g08.bks.cpg/sg53_9_cif.got.tgz:16893.got - 2010.06.03 12:45:16.
