data_PCOD9414964
_publ_section_title
;
Structure prediction by ZEFSAII (Michael W. Deem and Ramdas Pophale) SiO2 
 PCOD9414964
Probable space group: P M N A
;
_chemical_formula_sum "Si O2"
_cell_formula_units_Z 56
_cell_length_a 8.528589
_cell_length_b 21.993578
_cell_length_c 14.765895
_cell_angle_alpha 90.000000
_cell_angle_beta 90.000000
_cell_angle_gamma 90.000000
_cell_volume 2769.700756
_symmetry_space_group_name_H-M "P M N A"
_symmetry_group_IT_number 53
_symmetry_cell_setting 'orthorhombic'
loop_
_space_group_symop_operation_xyz
x,y,z
1/2-x,-y,1/2+z
x,-y,-z
1/2-x,y,1/2-z
-x,-y,-z
1/2+x,y,1/2-z
-x,y,z
1/2+x,-y,1/2+z
loop_
_atom_site_type_symbol
_atom_site_label
_atom_site_fract_x
_atom_site_fract_y
_atom_site_fract_z
Si Si1 0.814463 0.788827 0.972884
Si Si2 0.190095 0.341635 0.473187
Si Si3 0.813593 0.897997 0.647313
Si Si4 0.812782 0.975248 0.146575
Si Si5 0.310869 0.544521 0.851282
Si Si6 0.311137 0.592334 0.149599
Si Si7 0.186667 0.154168 0.647460
O O1 0.764221 0.721521 0.943433
O O2 0.732440 0.839959 0.911697
O O3 0.000000 0.796729 0.966863
O O4 0.758245 0.799000 0.076132
O O5 0.239002 0.399588 0.413406
O O6 0.238021 0.358810 0.575456
O O7 0.000000 0.336535 0.469601
O O8 0.750000 0.890029 0.750000
O O9 0.000000 0.905703 0.650995
O O10 0.739023 0.960070 0.606937
O O11 0.750000 0.978417 0.250000
O O12 0.500000 0.969797 0.354918
O O13 0.737054 0.912948 0.112210
O O14 0.250000 0.553612 0.750000
O O15 0.500000 0.544469 0.851910
O O16 0.261322 0.476201 0.879115
O O17 0.250000 0.603967 0.250000
O O18 0.500000 0.592305 0.151679
O O19 0.250000 0.161143 0.750000
O O20 0.000000 0.158576 0.648895
#
# Coordination Sequence:
#
# PCOD9414964 Si02
#       7
#     8   8   8   8   8   8   8
#     4  12  26  42  58  83 116 155 201 243 288 346
#     4  10  21  38  57  79 112 153 192 231 281 341
#     4  11  22  40  63  88 117 152 193 241 294 347
#     4  10  18  33  58  89 119 150 188 235 291 347
#     4   9  18  34  58  86 114 145 184 230 281 336
#     4   9  18  34  58  86 114 145 184 230 281 336
#     4  11  22  40  63  88 117 152 193 241 294 347
#
# _framework density 20.218792000000001
#
# number of rings (size 3 to 8) (size 9 to 14) (size 15 to 20)
#    0.000    1.714    0.000    7.286    0.000    4.571 
#    0.000    5.714    0.000    4.286    0.000    0.000 
#    0.000    0.000    0.000    0.000    0.000    0.000 
#
# Total GULP energy -312944.700737 kJ/mol
# GULP energy per Si atom -5588.298227 kJ/mol
# Density = 2.017277 g / cm^3
# Si number density = 20.218792 Si / 1000 Ang^3
#
#
#
# Elastic Constant Matrix: (Units=GPa)
#
#
# Indices 1 2 3 4 5 6 
#
# 1 63.1458 -0.2297 -5.3425 0.0000 0.0000 0.0000
# 2 -0.2297 58.3653 5.2986 0.0000 0.0000 0.0000
# 3 -5.3425 5.2986 35.2531 0.0000 0.0000 0.0000
# 4 0.0000 0.0000 0.0000 -64.7375 0.0000 0.0000
# 5 0.0000 0.0000 0.0000 0.0000 20.0593 0.0000
# 6 0.0000 0.0000 0.0000 0.0000 0.0000 30.8607
#
#
#
# Elastic Compliance Matrix: (Units=1/GPa)
#
#
# Indices 1 2 3 4 5 6 
#
# 1 0.016044 -0.000160 0.002455 0.000000 0.000000 0.000000
# 2 -0.000160 0.017372 -0.002635 0.000000 0.000000 0.000000
# 3 0.002455 -0.002635 0.029135 0.000000 0.000000 0.000000
# 4 0.000000 0.000000 0.000000 -0.015447 0.000000 0.000000
# 5 0.000000 0.000000 0.000000 0.000000 0.049852 0.000000
# 6 0.000000 0.000000 0.000000 0.000000 0.000000 0.032404
#
#
# Mechanical properties :
#
#
# Convention : Reuss Voigt Hill
#
# Bulk Modulus (GPa) = 16.16272 17.35744 16.76008
# Shear Modulus (GPa) = 33.18690 7.70568 20.44629
#
# Velocity S-wave (km/s) = 4.05580 1.95433 3.18347
# Velocity P-wave (km/s) = 5.47211 3.70081 4.67119
#
# Compressibility (1/GPa) = 0.06187078
#
# Stress axis : x y z
#
# Youngs Moduli (GPa) = 62.33048 57.56364 34.32357
#
# Poissons Ratio (x) = 0.00920 -0.08428
# Poissons Ratio (y) = 0.00996 0.09045
# Poissons Ratio (z) = -0.15304 0.15170
#
# Static dielectric constant tensor:
#      x y z
#    x 1.680340 0.000000 0.000000 
#    y 0.000000 1.729140 0.000000 
#    z 0.000000 0.000000 1.693530 
# 
# From -- ./inp_files/20572.got.cif
#   From: 2010.05.17/outbox.cif.g08.bks.cpg/sg53_11_cif.got.tgz:20572.got - 2010.06.03 12:45:16.
