data_PCOD9414164
_publ_section_title
;
Structure prediction by ZEFSAII (Michael W. Deem and Ramdas Pophale) SiO2 
 PCOD9414164
Probable space group: P M N A
;
_chemical_formula_sum "Si O2"
_cell_formula_units_Z 40
_cell_length_a 17.692555
_cell_length_b 13.671153
_cell_length_c 7.181859
_cell_angle_alpha 90.000000
_cell_angle_beta 90.000000
_cell_angle_gamma 90.000000
_cell_volume 1737.131008
_symmetry_space_group_name_H-M "P M N A"
_symmetry_group_IT_number 53
_symmetry_cell_setting 'orthorhombic'
loop_
_space_group_symop_operation_xyz
x,y,z
1/2-x,-y,1/2+z
x,-y,-z
1/2-x,y,1/2-z
-x,-y,-z
1/2+x,y,1/2-z
-x,y,z
1/2+x,-y,1/2+z
loop_
_atom_site_type_symbol
_atom_site_label
_atom_site_fract_x
_atom_site_fract_y
_atom_site_fract_z
Si Si1 0.662120 0.994476 0.720623
Si Si2 0.090408 0.596494 0.197609
Si Si3 0.086350 0.797021 0.780913
Si Si4 0.586638 0.190463 0.734594
Si Si5 0.338104 0.598742 0.713012
O O1 0.750000 0.975414 0.750000
O O2 0.614405 0.901995 0.789078
O O3 0.647893 0.000000 0.500000
O O4 0.638976 0.101025 0.794566
O O5 0.105694 0.699530 0.298591
O O6 0.115653 0.494791 0.288476
O O7 0.000000 0.594459 0.157555
O O8 0.138108 0.600779 0.005618
O O9 0.136612 0.705605 0.719518
O O10 0.000000 0.778419 0.728587
O O11 0.089013 0.802471 0.007786
O O12 0.500000 0.167652 0.784224
O O13 0.250000 0.583701 0.750000
#
# Coordination Sequence:
#
# PCOD9414164 Si02
#       5
#     8   8   8   8   8
#     4  10  19  30  46  70  96 120 149 191 238 278
#     4   9  17  31  47  65  90 120 155 191 229 275
#     4   9  16  28  46  66  87 114 151 189 225 271
#     4   8  15  28  47  66  84 113 154 192 222 264
#     4  10  17  25  42  69  93 113 144 190 237 273
#
# _framework density 23.026471999999998
#
# number of rings (size 3 to 8) (size 9 to 14) (size 15 to 20)
#    0.000    2.800    0.000    4.800    0.000    3.200 
#    0.000    0.000    0.000    2.400    0.000   30.800 
#    0.000    0.000    0.000    0.000    0.000    0.000 
#
# Total GULP energy -223349.500065 kJ/mol
# GULP energy per Si atom -5583.737502 kJ/mol
# Density = 2.297406 g / cm^3
# Si number density = 23.026472 Si / 1000 Ang^3
#
#
#
# Elastic Constant Matrix: (Units=GPa)
#
#
# Indices 1 2 3 4 5 6 
#
# 1 111.7139 51.0492 -2.8872 0.0000 0.0000 0.0000
# 2 51.0492 174.4598 -16.5981 0.0000 0.0000 0.0000
# 3 -2.8872 -16.5981 93.9641 0.0000 0.0000 0.0000
# 4 0.0000 0.0000 0.0000 -23.8995 0.0000 0.0000
# 5 0.0000 0.0000 0.0000 0.0000 -2.3366 0.0000
# 6 0.0000 0.0000 0.0000 0.0000 0.0000 131.5954
#
#
#
# Elastic Compliance Matrix: (Units=1/GPa)
#
#
# Indices 1 2 3 4 5 6 
#
# 1 0.010338 -0.003046 -0.000220 0.000000 0.000000 0.000000
# 2 -0.003046 0.006727 0.001095 0.000000 0.000000 0.000000
# 3 -0.000220 0.001095 0.010829 0.000000 0.000000 0.000000
# 4 0.000000 0.000000 0.000000 -0.041842 0.000000 0.000000
# 5 0.000000 0.000000 0.000000 0.000000 -0.427977 0.000000
# 6 0.000000 0.000000 0.000000 0.000000 0.000000 0.007599
#
#
# Mechanical properties :
#
#
# Convention : Reuss Voigt Hill
#
# Bulk Modulus (GPa) = 42.46118 49.25175 45.85646
# Shear Modulus (GPa) = -11.84463 44.31012 16.23274
#
# Velocity S-wave (km/s) = -2.27048 4.39146 2.65799
# Velocity P-wave (km/s) = 3.40687 6.86650 5.42013
#
# Compressibility (1/GPa) = 0.02355092
#
# Stress axis : x y z
#
# Youngs Moduli (GPa) = 96.73427 148.64580 92.34486
#
# Poissons Ratio (x) = 0.45276 0.02035
# Poissons Ratio (y) = 0.29464 -0.10110
# Poissons Ratio (z) = 0.02132 -0.16273
#
# Static dielectric constant tensor:
#      x y z
#    x 1.746890 0.000000 0.000000 
#    y 0.000000 1.891510 0.000000 
#    z 0.000000 0.000000 1.904580 
# 
# From -- ./inp_files/8437.got.cif
#   From: 2010.05.17/outbox.cif.g08.bks.cpg/sg53_5_cif.got.tgz:8437.got - 2010.06.03 12:45:16.
