data_PCOD9414973
_publ_section_title
;
Structure prediction by ZEFSAII (Michael W. Deem and Ramdas Pophale) SiO2 
 PCOD9414973
Probable space group: P M N A
;
_chemical_formula_sum "Si O2"
_cell_formula_units_Z 58
_cell_length_a 28.934532
_cell_length_b 8.794262
_cell_length_c 11.863424
_cell_angle_alpha 90.000000
_cell_angle_beta 90.000000
_cell_angle_gamma 90.000000
_cell_volume 3018.741427
_symmetry_space_group_name_H-M "P M N A"
_symmetry_group_IT_number 53
_symmetry_cell_setting 'orthorhombic'
loop_
_space_group_symop_operation_xyz
x,y,z
1/2-x,-y,1/2+z
x,-y,-z
1/2-x,y,1/2-z
-x,-y,-z
1/2+x,y,1/2-z
-x,y,z
1/2+x,-y,1/2+z
loop_
_atom_site_type_symbol
_atom_site_label
_atom_site_fract_x
_atom_site_fract_y
_atom_site_fract_z
Si Si1 0.720132 0.173556 0.960208
Si Si2 0.646117 0.657604 0.177560
Si Si3 0.350604 0.154181 0.354025
Si Si4 0.500000 0.000000 0.000000
Si Si5 0.947326 0.040129 0.132553
Si Si6 0.049484 0.789385 0.323480
Si Si7 0.204756 0.364234 0.317914
Si Si8 0.821885 0.805609 0.106712
O O1 0.675219 0.214358 0.888455
O O2 0.766639 0.205247 0.890874
O O3 0.720903 0.278462 0.070411
O O4 0.720904 0.000000 0.000000
O O5 0.592364 0.680961 0.153610
O O6 0.670009 0.498767 0.149794
O O7 0.654929 0.687828 0.309491
O O8 0.405814 0.152927 0.336534
O O9 0.322549 0.246023 0.261375
O O10 0.338298 0.214665 0.478373
O O11 0.335668 0.976871 0.356887
O O12 0.460485 0.091439 0.924354
O O13 0.000000 0.095539 0.150983
O O14 0.941982 0.891527 0.211624
O O15 0.942187 0.000000 0.000000
O O16 0.000000 0.707385 0.307734
O O17 0.250000 0.420144 0.250000
#
# Coordination Sequence:
#
# PCOD9414973 Si02
#       8
#     8   8   8   2   8   8   8   8
#     4  12  24  39  63  87 120 166 217 270 304 367
#     4  12  25  38  62  91 123 168 208 253 322 391
#     4  11  20  38  62  90 125 161 213 260 312 373
#     4   8  20  36  62  88 122 154 218 270 316 366
#     4  10  18  33  61  94 122 150 199 269 319 360
#     4   9  20  39  62  90 123 157 208 263 321 378
#     4  12  25  42  58  89 135 171 206 255 320 389
#     4  11  20  40  60  90 123 159 215 258 311 367
#
# _framework density 19.213304000000001
#
# number of rings (size 3 to 8) (size 9 to 14) (size 15 to 20)
#    0.414    0.690    5.517    2.483    0.966    0.552 
#    0.000    0.690    0.000    1.655    0.000    4.828 
#    0.000    0.000    0.000    0.000    0.000    0.000 
#
# Total GULP energy -323345.778274 kJ/mol
# GULP energy per Si atom -5574.927212 kJ/mol
# Density = 1.916957 g / cm^3
# Si number density = 19.213304 Si / 1000 Ang^3
#
#
#
# Elastic Constant Matrix: (Units=GPa)
#
#
# Indices 1 2 3 4 5 6 
#
# 1 168.0111 25.3790 18.8086 0.0000 0.0000 0.0000
# 2 25.3790 42.7859 20.5555 0.0000 0.0000 0.0000
# 3 18.8086 20.5555 52.5529 0.0000 0.0000 0.0000
# 4 0.0000 0.0000 0.0000 15.7979 0.0000 0.0000
# 5 0.0000 0.0000 0.0000 0.0000 20.2946 0.0000
# 6 0.0000 0.0000 0.0000 0.0000 0.0000 18.3695
#
#
#
# Elastic Compliance Matrix: (Units=1/GPa)
#
#
# Indices 1 2 3 4 5 6 
#
# 1 0.006582 -0.003414 -0.001020 0.000000 0.000000 0.000000
# 2 -0.003414 0.030551 -0.010728 0.000000 0.000000 0.000000
# 3 -0.001020 -0.010728 0.023590 0.000000 0.000000 0.000000
# 4 0.000000 0.000000 0.000000 0.063300 0.000000 0.000000
# 5 0.000000 0.000000 0.000000 0.000000 0.049274 0.000000
# 6 0.000000 0.000000 0.000000 0.000000 0.000000 0.054438
#
#
# Mechanical properties :
#
#
# Convention : Reuss Voigt Hill
#
# Bulk Modulus (GPa) = 32.89642 43.64844 38.27243
# Shear Modulus (GPa) = 18.64336 24.13284 21.38810
#
# Velocity S-wave (km/s) = 3.11840 3.54792 3.34007
# Velocity P-wave (km/s) = 5.48860 6.28894 5.90235
#
# Compressibility (1/GPa) = 0.03039845
#
# Stress axis : x y z
#
# Youngs Moduli (GPa) = 151.93163 32.73201 42.39137
#
# Poissons Ratio (x) = 0.11175 0.04325
# Poissons Ratio (y) = 0.51868 0.45477
# Poissons Ratio (z) = 0.15502 0.35114
#
# Static dielectric constant tensor:
#      x y z
#    x 1.693840 0.000000 0.000000 
#    y 0.000000 1.661860 0.000000 
#    z 0.000000 0.000000 1.693290 
# 
# From -- ./inp_files/18801.got.cif
#   From: 2010.05.17/outbox.cif.g08.bks.cpg/sg53_10_cif.got.tgz:18801.got - 2010.06.03 12:45:16.
