data_PCOD9414738
_publ_section_title
;
Structure prediction by ZEFSAII (Michael W. Deem and Ramdas Pophale) SiO2 
 PCOD9414738
Probable space group: P M N A
;
_chemical_formula_sum "Si O2"
_cell_formula_units_Z 48
_cell_length_a 8.701296
_cell_length_b 31.685709
_cell_length_c 9.558539
_cell_angle_alpha 90.000000
_cell_angle_beta 90.000000
_cell_angle_gamma 90.000000
_cell_volume 2635.353560
_symmetry_space_group_name_H-M "P M N A"
_symmetry_group_IT_number 53
_symmetry_cell_setting 'orthorhombic'
loop_
_space_group_symop_operation_xyz
x,y,z
1/2-x,-y,1/2+z
x,-y,-z
1/2-x,y,1/2-z
-x,-y,-z
1/2+x,y,1/2-z
-x,y,z
1/2+x,-y,1/2+z
loop_
_atom_site_type_symbol
_atom_site_label
_atom_site_fract_x
_atom_site_fract_y
_atom_site_fract_z
Si Si1 0.816183 0.540733 0.406332
Si Si2 0.183710 0.886209 0.905224
Si Si3 0.683688 0.627858 0.408513
Si Si4 0.184111 0.211471 0.095113
Si Si5 0.183407 0.285156 0.593247
Si Si6 0.184243 0.959721 0.405793
O O1 0.781918 0.500000 0.500000
O O2 0.750000 0.534852 0.250000
O O3 0.743298 0.583601 0.468931
O O4 0.000000 0.546117 0.397090
O O5 0.250000 0.894542 0.750000
O O6 0.218607 0.837378 0.941640
O O7 0.000000 0.891142 0.900783
O O8 0.254463 0.918231 0.016136
O O9 0.750000 0.627362 0.250000
O O10 0.500000 0.629020 0.405445
O O11 0.749583 0.671233 0.470652
O O12 0.250000 0.218377 0.250000
O O13 0.000000 0.216714 0.094428
O O14 0.261176 0.244861 0.992724
O O15 0.250000 0.281646 0.750000
O O16 0.000000 0.287778 0.598901
O O17 0.250000 0.963290 0.250000
O O18 0.000000 0.958389 0.398947
O O19 0.229865 0.000000 0.500000
#
# Coordination Sequence:
#
# PCOD9414738 Si02
#       6
#     8   8   8   8   8   8
#     4  10  20  34  53  77 105 137 175 218 266 321
#     4  10  21  38  61  85 113 148 186 228 273 327
#     4  10  18  31  52  76 104 138 177 220 268 322
#     4  10  21  38  58  83 113 147 184 223 274 329
#     4  11  21  35  56  81 109 142 182 227 272 321
#     4  11  24  40  60  86 116 150 188 231 278 328
#
# _framework density 18.213874000000001
#
# number of rings (size 3 to 8) (size 9 to 14) (size 15 to 20)
#    0.000    1.667    0.000    7.500    0.000    6.667 
#    0.000    0.833    0.000    2.000    0.000    0.000 
#    0.000    0.000    0.000    0.000    0.000    0.000 
#
# Total GULP energy -268103.756129 kJ/mol
# GULP energy per Si atom -5585.494919 kJ/mol
# Density = 1.817242 g / cm^3
# Si number density = 18.213874 Si / 1000 Ang^3
#
#
#
# Elastic Constant Matrix: (Units=GPa)
#
#
# Indices 1 2 3 4 5 6 
#
# 1 127.0319 88.1455 55.7078 0.0000 0.0000 0.0000
# 2 88.1455 168.2099 97.4827 0.0000 0.0000 0.0000
# 3 55.7078 97.4827 92.1647 0.0000 0.0000 0.0000
# 4 0.0000 0.0000 0.0000 -17.1166 0.0000 0.0000
# 5 0.0000 0.0000 0.0000 0.0000 29.8680 0.0000
# 6 0.0000 0.0000 0.0000 0.0000 0.0000 27.7815
#
#
#
# Elastic Compliance Matrix: (Units=1/GPa)
#
#
# Indices 1 2 3 4 5 6 
#
# 1 0.012462 -0.005594 -0.001616 0.000000 0.000000 0.000000
# 2 -0.005594 0.017872 -0.015521 0.000000 0.000000 0.000000
# 3 -0.001616 -0.015521 0.028244 0.000000 0.000000 0.000000
# 4 0.000000 0.000000 0.000000 -0.058423 0.000000 0.000000
# 5 0.000000 0.000000 0.000000 0.000000 0.033481 0.000000
# 6 0.000000 0.000000 0.000000 0.000000 0.000000 0.035995
#
#
# Mechanical properties :
#
#
# Convention : Reuss Voigt Hill
#
# Bulk Modulus (GPa) = 76.24870 96.67539 86.46205
# Shear Modulus (GPa) = 41.85326 17.84461 29.84894
#
# Velocity S-wave (km/s) = 4.79882 3.13345 4.05260
# Velocity P-wave (km/s) = 8.52401 8.14153 8.33496
#
# Compressibility (1/GPa) = 0.01311498
#
# Stress axis : x y z
#
# Youngs Moduli (GPa) = 80.24219 55.95491 35.40596
#
# Poissons Ratio (x) = 0.31302 0.05721
# Poissons Ratio (y) = 0.44888 0.54955
# Poissons Ratio (z) = 0.12965 0.86850
#
# Static dielectric constant tensor:
#      x y z
#    x 1.607790 0.000000 0.000000 
#    y 0.000000 1.653910 0.000000 
#    z 0.000000 0.000000 1.747820 
# 
# From -- ./inp_files/6725.got.cif
#   From: 2010.05.17/outbox.cif.g08.bks.cpg/sg53_4_cif.got.tgz:6725.got - 2010.06.03 12:45:16.
