data_PCOD9414431
_publ_section_title
;
Structure prediction by ZEFSAII (Michael W. Deem and Ramdas Pophale) SiO2 
 PCOD9414431
Probable space group: P M N A
;
_chemical_formula_sum "Si O2"
_cell_formula_units_Z 56
_cell_length_a 8.665214
_cell_length_b 16.421682
_cell_length_c 25.216365
_cell_angle_alpha 90.000000
_cell_angle_beta 90.000000
_cell_angle_gamma 90.000000
_cell_volume 3588.222894
_symmetry_space_group_name_H-M "P M N A"
_symmetry_group_IT_number 53
_symmetry_cell_setting 'orthorhombic'
loop_
_space_group_symop_operation_xyz
x,y,z
1/2-x,-y,1/2+z
x,-y,-z
1/2-x,y,1/2-z
-x,-y,-z
1/2+x,y,1/2-z
-x,y,z
1/2+x,-y,1/2+z
loop_
_atom_site_type_symbol
_atom_site_label
_atom_site_fract_x
_atom_site_fract_y
_atom_site_fract_z
Si Si1 0.315222 0.523799 0.417822
Si Si2 0.685284 0.199389 0.483312
Si Si3 0.315554 0.623101 0.987342
Si Si4 0.183782 0.870912 0.407555
Si Si5 0.685290 0.768291 0.193698
Si Si6 0.814375 0.578279 0.307445
Si Si7 0.678901 0.032483 0.439139
O O1 0.500000 0.525764 0.419505
O O2 0.253849 0.441939 0.446036
O O3 0.248652 0.596380 0.454881
O O4 0.254838 0.532312 0.358041
O O5 0.500000 0.206092 0.481190
O O6 0.762364 0.286110 0.473608
O O7 0.734613 0.169393 0.541743
O O8 0.731944 0.125997 0.443502
O O9 0.500000 0.616720 0.988077
O O10 0.235742 0.824129 0.354936
O O11 0.000000 0.860901 0.413773
O O12 0.225019 0.966492 0.406762
O O13 0.750000 0.795956 0.250000
O O14 0.500000 0.770300 0.195688
O O15 0.730426 0.673759 0.186011
O O16 0.750000 0.551900 0.250000
O O17 0.000000 0.572345 0.307699
O O18 0.500000 0.030300 0.422336
O O19 0.683388 0.000000 0.500000
#
# Coordination Sequence:
#
# PCOD9414431 Si02
#       7
#     8   8   8   8   8   8   8
#     4  11  21  34  50  70  96 127 160 193 235 286
#     4  10  19  31  46  66  92 122 155 187 225 275
#     4  11  21  33  49  70  96 126 158 196 239 283
#     4  10  18  28  44  67  93 121 153 189 228 268
#     4   9  19  31  44  64  90 119 152 188 223 264
#     4  10  19  33  50  70  96 126 161 199 237 277
#     4   8  16  29  43  62  89 119 150 182 217 263
#
# _framework density 15.60661
#
# number of rings (size 3 to 8) (size 9 to 14) (size 15 to 20)
#    0.000    2.143    0.000    6.429    0.000    6.000 
#    0.000    0.000    0.000    0.000    0.000    1.000 
#    0.000    4.571    0.000    0.000    0.000    0.000 
#
# Total GULP energy -312346.597329 kJ/mol
# GULP energy per Si atom -5577.617809 kJ/mol
# Density = 1.557109 g / cm^3
# Si number density = 15.606610 Si / 1000 Ang^3
#
#
#
# Elastic Constant Matrix: (Units=GPa)
#
#
# Indices 1 2 3 4 5 6 
#
# 1 79.0982 26.9814 31.3138 0.0000 0.0000 0.0000
# 2 26.9814 78.6108 28.4320 0.0000 0.0000 0.0000
# 3 31.3138 28.4320 89.3721 0.0000 0.0000 0.0000
# 4 0.0000 0.0000 0.0000 21.9477 0.0000 0.0000
# 5 0.0000 0.0000 0.0000 0.0000 25.1795 0.0000
# 6 0.0000 0.0000 0.0000 0.0000 0.0000 26.9718
#
#
#
# Elastic Compliance Matrix: (Units=1/GPa)
#
#
# Indices 1 2 3 4 5 6 
#
# 1 0.015634 -0.003825 -0.004261 0.000000 0.000000 0.000000
# 2 -0.003825 0.015311 -0.003531 0.000000 0.000000 0.000000
# 3 -0.004261 -0.003531 0.013805 0.000000 0.000000 0.000000
# 4 0.000000 0.000000 0.000000 0.045563 0.000000 0.000000
# 5 0.000000 0.000000 0.000000 0.000000 0.039715 0.000000
# 6 0.000000 0.000000 0.000000 0.000000 0.000000 0.037076
#
#
# Mechanical properties :
#
#
# Convention : Reuss Voigt Hill
#
# Bulk Modulus (GPa) = 46.47487 46.72616 46.60051
# Shear Modulus (GPa) = 25.31529 25.51005 25.41267
#
# Velocity S-wave (km/s) = 4.03188 4.04736 4.03963
# Velocity P-wave (km/s) = 7.17763 7.20045 7.18905
#
# Compressibility (1/GPa) = 0.02151701
#
# Stress axis : x y z
#
# Youngs Moduli (GPa) = 63.96272 65.31381 72.43586
#
# Poissons Ratio (x) = 0.24982 0.30865
# Poissons Ratio (y) = 0.24465 0.25574
# Poissons Ratio (z) = 0.27254 0.23060
#
# Static dielectric constant tensor:
#      x y z
#    x 1.524820 0.000000 0.000000 
#    y 0.000000 1.536310 0.000000 
#    z 0.000000 0.000000 1.499150 
# 
# From -- ./inp_files/34376.got.cif
#   From: 2010.05.17/outbox.cif.g08.bks.cpg/sg53_18_cif.got.tgz:34376.got - 2010.06.03 12:45:16.
