data_PCOD9414357
_publ_section_title
;
Structure prediction by ZEFSAII (Michael W. Deem and Ramdas Pophale) SiO2 
 PCOD9414357
Probable space group: P M N A
;
_chemical_formula_sum "Si O2"
_cell_formula_units_Z 64
_cell_length_a 8.887576
_cell_length_b 18.933867
_cell_length_c 27.252882
_cell_angle_alpha 90.000000
_cell_angle_beta 90.000000
_cell_angle_gamma 90.000000
_cell_volume 4586.010930
_symmetry_space_group_name_H-M "P M N A"
_symmetry_group_IT_number 53
_symmetry_cell_setting 'orthorhombic'
loop_
_space_group_symop_operation_xyz
x,y,z
1/2-x,-y,1/2+z
x,-y,-z
1/2-x,y,1/2-z
-x,-y,-z
1/2+x,y,1/2-z
-x,y,z
1/2+x,-y,1/2+z
loop_
_atom_site_type_symbol
_atom_site_label
_atom_site_fract_x
_atom_site_fract_y
_atom_site_fract_z
Si Si1 0.317402 0.908792 0.104589
Si Si2 0.817693 0.175422 0.505175
Si Si3 0.181241 0.582874 0.101407
Si Si4 0.819085 0.333370 0.802291
Si Si5 0.326498 0.454985 0.050703
Si Si6 0.174585 0.956396 0.551267
Si Si7 0.319551 0.831501 0.302727
Si Si8 0.679814 0.329817 0.503421
O O1 0.500000 0.910107 0.107930
O O2 0.279386 0.858164 0.058330
O O3 0.247059 0.878254 0.153733
O O4 0.262735 0.988006 0.090534
O O5 0.761918 0.119786 0.463686
O O6 0.750892 0.252738 0.499670
O O7 0.000000 0.177889 0.502737
O O8 0.230035 0.618167 0.152354
O O9 0.251810 0.506707 0.090279
O O10 0.000000 0.576564 0.101335
O O11 0.221109 0.634812 0.056033
O O12 0.750000 0.353685 0.750000
O O13 0.779848 0.251152 0.811893
O O14 0.000000 0.337092 0.799129
O O15 0.500000 0.440747 0.062395
O O16 0.239840 0.383170 0.038148
O O17 0.321272 0.500000 0.000000
O O18 0.000000 0.944871 0.564786
O O19 0.174016 0.000000 0.500000
O O20 0.250000 0.850540 0.250000
O O21 0.500000 0.837069 0.301182
O O22 0.500000 0.325644 0.501275
#
# Coordination Sequence:
#
# PCOD9414357 Si02
#       8
#     8   8   8   8   8   8   8   8
#     4   9  16  27  43  60  79 107 140 170 203 240
#     4   9  16  26  41  60  82 108 138 169 198 235
#     4   9  17  29  42  56  78 108 136 163 201 242
#     4   9  18  30  42  57  79 106 136 169 202 236
#     4   9  17  28  41  58  78 101 133 169 200 235
#     4   7  12  24  40  57  78 105 135 165 198 237
#     4  10  19  30  42  58  81 108 139 173 206 238
#     4  10  18  27  40  58  82 110 137 166 202 241
#
# _framework density 13.955484
#
# number of rings (size 3 to 8) (size 9 to 14) (size 15 to 20)
#    0.000    3.000    0.000    3.375    0.000    4.500 
#    0.000    0.625    0.000    2.250    0.000    0.000 
#    0.000    1.000    0.000    7.250    0.000    3.500 
#
# Total GULP energy -356295.523920 kJ/mol
# GULP energy per Si atom -5567.117561 kJ/mol
# Density = 1.392372 g / cm^3
# Si number density = 13.955484 Si / 1000 Ang^3
#
#
#
# Elastic Constant Matrix: (Units=GPa)
#
#
# Indices 1 2 3 4 5 6 
#
# 1 25.1399 37.4333 30.5614 0.0000 0.0000 0.0000
# 2 37.4333 122.4704 67.8252 0.0000 0.0000 0.0000
# 3 30.5614 67.8252 99.0046 0.0000 0.0000 0.0000
# 4 0.0000 0.0000 0.0000 27.7831 0.0000 0.0000
# 5 0.0000 0.0000 0.0000 0.0000 18.4847 0.0000
# 6 0.0000 0.0000 0.0000 0.0000 0.0000 18.7559
#
#
#
# Elastic Compliance Matrix: (Units=1/GPa)
#
#
# Indices 1 2 3 4 5 6 
#
# 1 0.082470 -0.017900 -0.013195 0.000000 0.000000 0.000000
# 2 -0.017900 0.017042 -0.006150 0.000000 0.000000 0.000000
# 3 -0.013195 -0.006150 0.018387 0.000000 0.000000 0.000000
# 4 0.000000 0.000000 0.000000 0.035993 0.000000 0.000000
# 5 0.000000 0.000000 0.000000 0.000000 0.054099 0.000000
# 6 0.000000 0.000000 0.000000 0.000000 0.000000 0.053317
#
#
# Mechanical properties :
#
#
# Convention : Reuss Voigt Hill
#
# Bulk Modulus (GPa) = 23.03592 57.58387 40.30989
# Shear Modulus (GPa) = 14.27486 20.39108 17.33297
#
# Velocity S-wave (km/s) = 3.20173 3.82665 3.52805
# Velocity P-wave (km/s) = 5.49642 7.80233 6.74859
#
# Compressibility (1/GPa) = 0.04341047
#
# Stress axis : x y z
#
# Youngs Moduli (GPa) = 12.12555 58.67854 54.38756
#
# Poissons Ratio (x) = 1.05033 0.71764
# Poissons Ratio (y) = 0.21704 0.33446
# Poissons Ratio (z) = 0.16000 0.36085
#
# Static dielectric constant tensor:
#      x y z
#    x 1.469120 0.000000 0.000000 
#    y 0.000000 1.460630 0.000000 
#    z 0.000000 0.000000 1.441810 
# 
# From -- ./inp_files/34464.got.cif
#   From: 2010.05.17/outbox.cif.g08.bks.cpg/sg53_18_cif.got.tgz:34464.got - 2010.06.03 12:45:16.
