data_PCOD9414399
_publ_section_title
;
Structure prediction by ZEFSAII (Michael W. Deem and Ramdas Pophale) SiO2 
 PCOD9414399
Probable space group: P M N A
;
_chemical_formula_sum "Si O2"
_cell_formula_units_Z 56
_cell_length_a 14.581301
_cell_length_b 15.274101
_cell_length_c 12.995927
_cell_angle_alpha 90.000000
_cell_angle_beta 90.000000
_cell_angle_gamma 90.000000
_cell_volume 2894.404311
_symmetry_space_group_name_H-M "P M N A"
_symmetry_group_IT_number 53
_symmetry_cell_setting 'orthorhombic'
loop_
_space_group_symop_operation_xyz
x,y,z
1/2-x,-y,1/2+z
x,-y,-z
1/2-x,y,1/2-z
-x,-y,-z
1/2+x,y,1/2-z
-x,y,z
1/2+x,-y,1/2+z
loop_
_atom_site_type_symbol
_atom_site_label
_atom_site_fract_x
_atom_site_fract_y
_atom_site_fract_z
Si Si1 0.856366 0.023995 0.721959
Si Si2 0.305451 0.887976 0.934352
Si Si3 0.605849 0.198961 0.868162
Si Si4 0.392855 0.759073 0.773783
Si Si5 0.111245 0.389566 0.605517
Si Si6 0.098894 0.107701 0.100807
Si Si7 0.889114 0.581016 0.633564
O O1 0.750000 0.024364 0.750000
O O2 0.888716 0.123535 0.717268
O O3 0.857813 0.973089 0.612101
O O4 0.902908 0.964107 0.807690
O O5 0.326349 0.818425 0.843113
O O6 0.197291 0.905366 0.951510
O O7 0.342804 0.843233 0.035766
O O8 0.500000 0.208339 0.898441
O O9 0.640879 0.296993 0.846325
O O10 0.500000 0.768180 0.810872
O O11 0.393671 0.799241 0.660040
O O12 0.364705 0.658551 0.788636
O O13 0.134728 0.390558 0.483539
O O14 0.145359 0.482073 0.650886
O O15 0.000000 0.392644 0.612263
O O16 0.000000 0.103507 0.045393
O O17 0.000000 0.576223 0.635412
#
# Coordination Sequence:
#
# PCOD9414399 Si02
#       7
#     8   8   8   8   8   8   8
#     4   9  19  32  45  61  89 122 148 181 224 267
#     4  10  18  28  42  66  93 115 145 189 230 265
#     4  11  19  28  47  74  95 115 146 184 225 268
#     4   9  14  23  41  63  89 120 148 175 218 272
#     4   8  14  22  35  61  92 118 141 170 214 263
#     4   9  18  31  45  61  86 123 156 182 220 267
#     4   8  12  21  36  57  91 123 142 167 212 268
#
# _framework density 19.347677999999998
#
# number of rings (size 3 to 8) (size 9 to 14) (size 15 to 20)
#    0.000    2.857    1.429    3.429    0.000    2.286 
#    0.000    0.000    0.000    9.429    0.000    0.000 
#    0.000    2.286    0.000    0.000    0.000    0.000 
#
# Total GULP energy -311792.750808 kJ/mol
# GULP energy per Si atom -5567.727693 kJ/mol
# Density = 1.930364 g / cm^3
# Si number density = 19.347678 Si / 1000 Ang^3
#
#
#
# Elastic Constant Matrix: (Units=GPa)
#
#
# Indices 1 2 3 4 5 6 
#
# 1 78.9952 -1.1660 -6.5351 0.0000 0.0000 0.0000
# 2 -1.1660 178.8041 11.1383 0.0000 0.0000 0.0000
# 3 -6.5351 11.1383 8.3660 0.0000 0.0000 0.0000
# 4 0.0000 0.0000 0.0000 13.6275 0.0000 0.0000
# 5 0.0000 0.0000 0.0000 0.0000 -9.8629 0.0000
# 6 0.0000 0.0000 0.0000 0.0000 0.0000 -6.7699
#
#
#
# Elastic Compliance Matrix: (Units=1/GPa)
#
#
# Indices 1 2 3 4 5 6 
#
# 1 0.013597 -0.000625 0.011453 0.000000 0.000000 0.000000
# 2 -0.000625 0.006127 -0.008646 0.000000 0.000000 0.000000
# 3 0.011453 -0.008646 0.139989 0.000000 0.000000 0.000000
# 4 0.000000 0.000000 0.000000 0.073381 0.000000 0.000000
# 5 0.000000 0.000000 0.000000 0.000000 -0.101390 0.000000
# 6 0.000000 0.000000 0.000000 0.000000 0.000000 -0.147712
#
#
# Mechanical properties :
#
#
# Convention : Reuss Voigt Hill
#
# Bulk Modulus (GPa) = 6.09460 30.33774 18.21617
# Shear Modulus (GPa) = 145.68472 16.91412 81.29942
#
# Velocity S-wave (km/s) = 8.68687 2.95993 6.48934
# Velocity P-wave (km/s) = 10.18688 5.23411 8.09841
#
# Compressibility (1/GPa) = 0.16407967
#
# Stress axis : x y z
#
# Youngs Moduli (GPa) = 73.54408 163.20656 7.14340
#
# Poissons Ratio (x) = 0.10197 -0.08182
# Poissons Ratio (y) = 0.04595 0.06176
# Poissons Ratio (z) = -0.84233 1.41103
#
# Static dielectric constant tensor:
#      x y z
#    x 1.704830 0.000000 0.000000 
#    y 0.000000 1.757590 0.000000 
#    z 0.000000 0.000000 1.697850 
# 
# From -- ./inp_files/22972.got.cif
#   From: 2010.05.17/outbox.cif.g08.bks.cpg/sg53_12_cif.got.tgz:22972.got - 2010.06.03 12:45:16.
