data_PCOD9414452
_publ_section_title
;
Structure prediction by ZEFSAII (Michael W. Deem and Ramdas Pophale) SiO2 
 PCOD9414452
Probable space group: P M N A
;
_chemical_formula_sum "Si O2"
_cell_formula_units_Z 64
_cell_length_a 7.823647
_cell_length_b 22.627785
_cell_length_c 19.464481
_cell_angle_alpha 90.000000
_cell_angle_beta 90.000000
_cell_angle_gamma 90.000000
_cell_volume 3445.832151
_symmetry_space_group_name_H-M "P M N A"
_symmetry_group_IT_number 53
_symmetry_cell_setting 'orthorhombic'
loop_
_space_group_symop_operation_xyz
x,y,z
1/2-x,-y,1/2+z
x,-y,-z
1/2-x,y,1/2-z
-x,-y,-z
1/2+x,y,1/2-z
-x,y,z
1/2+x,-y,1/2+z
loop_
_atom_site_type_symbol
_atom_site_label
_atom_site_fract_x
_atom_site_fract_y
_atom_site_fract_z
Si Si1 0.299412 0.184433 0.527050
Si Si2 0.205823 0.593138 0.170600
Si Si3 0.797123 0.512465 0.923469
Si Si4 0.702690 0.354519 0.083730
Si Si5 0.703079 0.108782 0.175752
Si Si6 0.705147 0.936990 0.525947
Si Si7 0.292400 0.306816 0.568064
Si Si8 0.208259 0.231052 0.376589
O O1 0.500000 0.178405 0.543945
O O2 0.225834 0.118529 0.518883
O O3 0.228800 0.238904 0.571772
O O4 0.278491 0.210349 0.450311
O O5 0.250000 0.593726 0.250000
O O6 0.271068 0.534678 0.131249
O O7 0.267000 0.650588 0.128733
O O8 0.000000 0.593461 0.165944
O O9 0.773781 0.580557 0.903423
O O10 0.000000 0.501762 0.927837
O O11 0.725865 0.500000 0.000000
O O12 0.500000 0.358514 0.091413
O O13 0.763889 0.299190 0.130633
O O14 0.741877 0.335896 0.004891
O O15 0.750000 0.083244 0.250000
O O16 0.500000 0.109833 0.171055
O O17 0.764233 0.075988 0.106694
O O18 0.765298 0.177387 0.171929
O O19 0.500000 0.936996 0.517084
O O20 0.771425 0.000000 0.500000
O O21 0.500000 0.304895 0.568294
O O22 0.000000 0.231167 0.378989
#
# Coordination Sequence:
#
# PCOD9414452 Si02
#       8
#     8   8   8   8   8   8   8   8
#     4   8  14  25  46  71  92 119 156 191 226 277
#     4  10  21  35  50  67  91 122 154 198 246 293
#     4  10  19  34  51  67  92 125 162 199 242 294
#     4  10  18  28  47  74  97 117 152 201 244 281
#     4  10  19  32  50  71  99 134 172 209 249 297
#     4   9  17  30  49  76 107 135 166 206 248 290
#     4   9  16  30  49  68  91 122 157 193 237 287
#     4   8  16  29  43  65  96 123 147 190 242 282
#
# _framework density 18.573163000000001
#
# number of rings (size 3 to 8) (size 9 to 14) (size 15 to 20)
#    0.000    2.750    1.250    0.750    0.000    2.500 
#    0.000    0.625    0.000    3.750    0.000    1.750 
#    0.000    0.000    0.000    0.000    0.000    0.000 
#
# Total GULP energy -356282.728132 kJ/mol
# GULP energy per Si atom -5566.917627 kJ/mol
# Density = 1.853089 g / cm^3
# Si number density = 18.573163 Si / 1000 Ang^3
#
#
#
# Elastic Constant Matrix: (Units=GPa)
#
#
# Indices 1 2 3 4 5 6 
#
# 1 20.5246 5.4963 -0.9980 0.0000 0.0000 0.0000
# 2 5.4963 173.7006 68.1669 0.0000 0.0000 0.0000
# 3 -0.9980 68.1669 83.9225 0.0000 0.0000 0.0000
# 4 0.0000 0.0000 0.0000 15.5572 0.0000 0.0000
# 5 0.0000 0.0000 0.0000 0.0000 8.3946 0.0000
# 6 0.0000 0.0000 0.0000 0.0000 0.0000 8.6185
#
#
#
# Elastic Compliance Matrix: (Units=1/GPa)
#
#
# Indices 1 2 3 4 5 6 
#
# 1 0.049562 -0.002642 0.002735 0.000000 0.000000 0.000000
# 2 -0.002642 0.008592 -0.007010 0.000000 0.000000 0.000000
# 3 0.002735 -0.007010 0.017642 0.000000 0.000000 0.000000
# 4 0.000000 0.000000 0.000000 0.064279 0.000000 0.000000
# 5 0.000000 0.000000 0.000000 0.000000 0.119124 0.000000
# 6 0.000000 0.000000 0.000000 0.000000 0.000000 0.116030
#
#
# Mechanical properties :
#
#
# Convention : Reuss Voigt Hill
#
# Bulk Modulus (GPa) = 16.13862 47.05312 31.59587
# Shear Modulus (GPa) = 12.20354 20.21289 16.20821
#
# Velocity S-wave (km/s) = 2.56608 3.30249 2.95730
# Velocity P-wave (km/s) = 4.18184 6.31909 5.35811
#
# Compressibility (1/GPa) = 0.06196316
#
# Stress axis : x y z
#
# Youngs Moduli (GPa) = 20.17656 116.39223 56.68204
#
# Poissons Ratio (x) = 0.30747 -0.15503
# Poissons Ratio (y) = 0.05330 0.39734
# Poissons Ratio (z) = -0.05518 0.81592
#
# Static dielectric constant tensor:
#      x y z
#    x 1.671250 0.000000 0.000000 
#    y 0.000000 1.711700 0.000000 
#    z 0.000000 0.000000 1.656530 
# 
# From -- ./inp_files/27062.got.cif
#   From: 2010.05.17/outbox.cif.g08.bks.cpg/sg53_14_cif.got.tgz:27062.got - 2010.06.03 12:45:16.
