data_PCOD9414289
_publ_section_title
;
Structure prediction by ZEFSAII (Michael W. Deem and Ramdas Pophale) SiO2 
 PCOD9414289
Probable space group: P M N A
;
_chemical_formula_sum "Si O2"
_cell_formula_units_Z 64
_cell_length_a 16.653042
_cell_length_b 17.051504
_cell_length_c 12.388404
_cell_angle_alpha 90.000000
_cell_angle_beta 90.000000
_cell_angle_gamma 90.000000
_cell_volume 3517.803919
_symmetry_space_group_name_H-M "P M N A"
_symmetry_group_IT_number 53
_symmetry_cell_setting 'orthorhombic'
loop_
_space_group_symop_operation_xyz
x,y,z
1/2-x,-y,1/2+z
x,-y,-z
1/2-x,y,1/2-z
-x,-y,-z
1/2+x,y,1/2-z
-x,y,z
1/2+x,-y,1/2+z
loop_
_atom_site_type_symbol
_atom_site_label
_atom_site_fract_x
_atom_site_fract_y
_atom_site_fract_z
Si Si1 0.097577 0.610560 0.917783
Si Si2 0.147577 0.179882 0.559836
Si Si3 0.903888 0.703810 0.274128
Si Si4 0.666683 0.836438 0.384849
Si Si5 0.902686 0.872701 0.670092
Si Si6 0.092944 0.950572 0.280610
Si Si7 0.096824 0.212226 0.109511
Si Si8 0.597330 0.552313 0.340938
O O1 0.126152 0.697591 0.891304
O O2 0.125532 0.537809 0.843608
O O3 0.000000 0.611975 0.912059
O O4 0.117095 0.588754 0.041629
O O5 0.117445 0.262038 0.608953
O O6 0.238964 0.169497 0.596821
O O7 0.135751 0.168189 0.433550
O O8 0.099171 0.111376 0.621815
O O9 0.864500 0.763645 0.188050
O O10 0.876438 0.615422 0.247961
O O11 0.000000 0.708201 0.258857
O O12 0.642849 0.913651 0.317772
O O13 0.626062 0.830298 0.501493
O O14 0.878957 0.831107 0.781345
O O15 0.000000 0.868306 0.658726
O O16 0.880376 0.964242 0.679643
O O17 0.000000 0.956442 0.246194
O O18 0.000000 0.213452 0.106437
O O19 0.500000 0.549117 0.335167
#
# Coordination Sequence:
#
# PCOD9414289 Si02
#       8
#     8   8   8   8   8   8   8   8
#     4   8  13  24  45  78 111 129 158 215 270 310
#     4  11  22  36  51  77 107 144 180 213 257 319
#     4  10  17  30  55  81 107 136 175 224 264 303
#     4  11  21  34  51  82 107 135 170 219 283 316
#     4  10  22  39  57  76  99 142 186 215 258 315
#     4  10  20  38  60  77 100 130 177 231 265 306
#     4  10  19  34  55  79 108 138 173 220 268 316
#     4   8  13  22  45  81 108 127 162 215 269 306
#
# _framework density 18.193168
#
# number of rings (size 3 to 8) (size 9 to 14) (size 15 to 20)
#    0.000    2.250    1.250    5.625    0.000    2.000 
#    6.750    1.875    0.000    0.750    9.750    4.375 
#    0.000    0.000    0.000    0.000    0.000    0.000 
#
# Total GULP energy -356953.019236 kJ/mol
# GULP energy per Si atom -5577.390926 kJ/mol
# Density = 1.815176 g / cm^3
# Si number density = 18.193168 Si / 1000 Ang^3
#
#
#
# Elastic Constant Matrix: (Units=GPa)
#
#
# Indices 1 2 3 4 5 6 
#
# 1 33.0335 -4.5935 7.3677 0.0000 0.0000 0.0000
# 2 -4.5935 63.3224 36.6297 0.0000 0.0000 0.0000
# 3 7.3677 36.6297 102.2278 0.0000 0.0000 0.0000
# 4 0.0000 0.0000 0.0000 26.6824 0.0000 0.0000
# 5 0.0000 0.0000 0.0000 0.0000 5.0472 0.0000
# 6 0.0000 0.0000 0.0000 0.0000 0.0000 -6.6135
#
#
#
# Elastic Compliance Matrix: (Units=1/GPa)
#
#
# Indices 1 2 3 4 5 6 
#
# 1 0.031786 0.004580 -0.003932 0.000000 0.000000 0.000000
# 2 0.004580 0.020581 -0.007705 0.000000 0.000000 0.000000
# 3 -0.003932 -0.007705 0.012826 0.000000 0.000000 0.000000
# 4 0.000000 0.000000 0.000000 0.037478 0.000000 0.000000
# 5 0.000000 0.000000 0.000000 0.000000 0.198129 0.000000
# 6 0.000000 0.000000 0.000000 0.000000 0.000000 -0.151206
#
#
# Mechanical properties :
#
#
# Convention : Reuss Voigt Hill
#
# Bulk Modulus (GPa) = 19.57678 30.82130 25.19904
# Shear Modulus (GPa) = 27.66492 15.63521 21.65007
#
# Velocity S-wave (km/s) = 3.90375 2.93473 3.45340
# Velocity P-wave (km/s) = 5.57699 5.33493 5.45730
#
# Compressibility (1/GPa) = 0.05108091
#
# Stress axis : x y z
#
# Youngs Moduli (GPa) = 31.46019 48.58759 77.96550
#
# Poissons Ratio (x) = -0.22255 0.30657
# Poissons Ratio (y) = -0.14410 0.60070
# Poissons Ratio (z) = 0.12371 0.37435
#
# Static dielectric constant tensor:
#      x y z
#    x 1.632690 0.000000 0.000000 
#    y 0.000000 1.647120 0.000000 
#    z 0.000000 0.000000 1.612780 
# 
# From -- ./inp_files/16248.got.cif
#   From: 2010.05.17/outbox.cif.g08.bks.cpg/sg53_9_cif.got.tgz:16248.got - 2010.06.03 12:45:16.
