data_PCOD9414044
_publ_section_title
;
Structure prediction by ZEFSAII (Michael W. Deem and Ramdas Pophale) SiO2 
 PCOD9414044
Probable space group: P N N A
;
_chemical_formula_sum "Si O2"
_cell_formula_units_Z 56
_cell_length_a 12.000000
_cell_length_b 15.000000
_cell_length_c 15.000000
_cell_angle_alpha 90.000000
_cell_angle_beta 90.000000
_cell_angle_gamma 90.000000
_cell_volume 2700.000000
_symmetry_space_group_name_H-M "P N N A"
_symmetry_group_IT_number 52
_symmetry_cell_setting 'orthorhombic'
loop_
_space_group_symop_operation_xyz
x,y,z
1/2-x,-y,z
x,1/2-y,1/2-z
1/2-x,1/2+y,1/2-z
-x,-y,-z
1/2+x,y,-z
-x,1/2+y,1/2+z
1/2+x,1/2-y,1/2+z
loop_
_atom_site_type_symbol
_atom_site_label
_atom_site_fract_x
_atom_site_fract_y
_atom_site_fract_z
Si Si1 0.843501 0.066723 0.531887
Si Si2 0.292543 0.742958 0.987337
Si Si3 0.967890 0.709828 0.351725
Si Si4 0.617407 0.490690 0.334390
Si Si5 0.049962 0.224070 0.352066
Si Si6 0.020053 0.978350 0.639230
Si Si7 0.095896 0.649982 0.535657
O O1 0.791089 0.161246 0.506480
O O2 0.889796 0.025911 0.439759
O O3 0.750000 0.000000 0.566141
O O4 0.939255 0.059038 0.607315
O O5 0.377240 0.728534 0.904510
O O6 0.227074 0.833929 0.969871
O O7 0.356342 0.755670 0.079793
O O8 0.996614 0.750000 0.250000
O O9 0.915090 0.612744 0.337329
O O10 0.050929 0.682129 0.436961
O O11 0.750000 0.500000 0.331969
O O12 0.567547 0.519540 0.238462
O O13 0.573662 0.553954 0.416793
O O14 0.068883 0.250000 0.250000
O O15 0.039784 0.118232 0.366025
O O16 0.944354 0.277341 0.390920
#
# Coordination Sequence:
#
# PCOD9414044 Si02
#       7
#     8   8   8   8   8   8   8
#     4  11  23  39  63  97 142 176 223 292 358 405
#     4  11  24  42  67  96 134 179 230 280 354 415
#     4  11  28  44  71 103 133 180 241 293 348 423
#     4  12  25  45  70 100 136 183 238 283 356 429
#     4  11  22  42  65  96 132 179 227 273 346 418
#     4  11  24  37  66 100 136 178 228 295 349 417
#     4  11  24  46  70  95 139 182 221 293 345 417
#
# _framework density 20.740741
#
# number of rings (size 3 to 8) (size 9 to 14) (size 15 to 20)
#    0.000    0.857    5.714    0.857    6.000    1.143 
#    0.000    0.000    0.000    0.000    0.000    0.000 
#    0.000    0.000    0.000    0.000    0.000    0.000 
#
# Total GULP energy -311963.336496 kJ/mol
# GULP energy per Si atom -5570.773866 kJ/mol
# Density = 2.069353 g / cm^3
# Si number density = 20.740741 Si / 1000 Ang^3
#
#
#
# Elastic Constant Matrix: (Units=GPa)
#
#
# Indices 1 2 3 4 5 6 
#
# 1 59.2764 13.9864 48.5087 0.0000 0.0000 0.0000
# 2 13.9864 83.0728 24.0790 0.0000 0.0000 0.0000
# 3 48.5087 24.0790 171.5900 0.0000 0.0000 0.0000
# 4 0.0000 0.0000 0.0000 36.9748 0.0000 0.0000
# 5 0.0000 0.0000 0.0000 0.0000 20.7652 0.0000
# 6 0.0000 0.0000 0.0000 0.0000 0.0000 24.1353
#
#
#
# Elastic Compliance Matrix: (Units=1/GPa)
#
#
# Indices 1 2 3 4 5 6 
#
# 1 0.022264 -0.002006 -0.006013 0.000000 0.000000 0.000000
# 2 -0.002006 0.012729 -0.001219 0.000000 0.000000 0.000000
# 3 -0.006013 -0.001219 0.007699 0.000000 0.000000 0.000000
# 4 0.000000 0.000000 0.000000 0.027045 0.000000 0.000000
# 5 0.000000 0.000000 0.000000 0.000000 0.048157 0.000000
# 6 0.000000 0.000000 0.000000 0.000000 0.000000 0.041433
#
#
# Mechanical properties :
#
#
# Convention : Reuss Voigt Hill
#
# Bulk Modulus (GPa) = 41.29443 54.12082 47.70762
# Shear Modulus (GPa) = 26.89996 31.53274 29.21635
#
# Velocity S-wave (km/s) = 3.60524 3.90337 3.75726
# Velocity P-wave (km/s) = 6.10601 6.81657 6.47105
#
# Compressibility (1/GPa) = 0.02421634
#
# Stress axis : x y z
#
# Youngs Moduli (GPa) = 44.91623 78.56265 129.89238
#
# Poissons Ratio (x) = 0.15757 0.78098
# Poissons Ratio (y) = 0.09009 0.15837
# Poissons Ratio (z) = 0.27006 0.09578
#
# Static dielectric constant tensor:
#      x y z
#    x 1.888000 0.000000 0.000000 
#    y 0.000000 1.800440 0.000000 
#    z 0.000000 0.000000 1.728330 
# 
# From -- ./inp_files/26139.got.cif
#   From: 2010.05.17/outbox.ucp.g08.bks.cvg/sg52_14_cif.got.tgz:26139.got - 2010.06.11 16:30:12.
