data_PCOD9414652
_publ_section_title
;
Structure prediction by ZEFSAII (Michael W. Deem and Ramdas Pophale) SiO2 
 PCOD9414652
Probable space group: P M N A
;
_chemical_formula_sum "Si O2"
_cell_formula_units_Z 40
_cell_length_a 8.736793
_cell_length_b 26.731923
_cell_length_c 9.188350
_cell_angle_alpha 90.000000
_cell_angle_beta 90.000000
_cell_angle_gamma 90.000000
_cell_volume 2145.950883
_symmetry_space_group_name_H-M "P M N A"
_symmetry_group_IT_number 53
_symmetry_cell_setting 'orthorhombic'
loop_
_space_group_symop_operation_xyz
x,y,z
1/2-x,-y,1/2+z
x,-y,-z
1/2-x,y,1/2-z
-x,-y,-z
1/2+x,y,1/2-z
-x,y,z
1/2+x,-y,1/2+z
loop_
_atom_site_type_symbol
_atom_site_label
_atom_site_fract_x
_atom_site_fract_y
_atom_site_fract_z
Si Si1 0.316489 0.449747 0.911882
Si Si2 0.816651 0.255601 0.912847
Si Si3 0.683276 0.356272 0.411780
Si Si4 0.182948 0.050277 0.912075
Si Si5 0.817172 0.152505 0.585310
O O1 0.250000 0.452023 0.750000
O O2 0.500000 0.446317 0.905121
O O3 0.275447 0.500000 0.000000
O O4 0.251237 0.401811 0.995548
O O5 0.750000 0.262537 0.750000
O O6 0.745912 0.204501 0.977367
O O7 0.000000 0.250194 0.902383
O O8 0.779682 0.303922 0.008930
O O9 0.750000 0.357262 0.250000
O O10 0.500000 0.361069 0.406300
O O11 0.250000 0.044925 0.750000
O O12 0.255638 0.100604 0.980015
O O13 0.000000 0.056696 0.903882
O O14 0.217633 0.000000 0.000000
O O15 0.750000 0.152333 0.750000
O O16 0.000000 0.152708 0.589422
#
# Coordination Sequence:
#
# PCOD9414652 Si02
#       5
#     8   8   8   8   8
#     4  11  24  41  63  90 120 154 192 235 281 332
#     4  10  20  35  56  82 109 140 181 227 275 327
#     4  11  24  40  60  85 116 153 190 233 282 334
#     4  10  20  34  53  77 106 140 178 222 271 324
#     4  10  18  30  52  78 105 139 178 222 271 324
#
# _framework density 18.639755999999998
#
# number of rings (size 3 to 8) (size 9 to 14) (size 15 to 20)
#    0.000    1.600    0.000    7.800    0.000    9.600 
#    0.000    1.000    0.000    0.000    0.000    0.000 
#    0.000    0.000    0.000    0.000    0.000    0.000 
#
# Total GULP energy -223474.178874 kJ/mol
# GULP energy per Si atom -5586.854472 kJ/mol
# Density = 1.859733 g / cm^3
# Si number density = 18.639756 Si / 1000 Ang^3
#
#
#
# Elastic Constant Matrix: (Units=GPa)
#
#
# Indices 1 2 3 4 5 6 
#
# 1 99.7550 101.0676 50.9296 0.0000 0.0000 0.0000
# 2 101.0676 229.1791 91.7787 0.0000 0.0000 0.0000
# 3 50.9296 91.7787 107.7589 0.0000 0.0000 0.0000
# 4 0.0000 0.0000 0.0000 26.0854 0.0000 0.0000
# 5 0.0000 0.0000 0.0000 0.0000 29.1560 0.0000
# 6 0.0000 0.0000 0.0000 0.0000 0.0000 38.0642
#
#
#
# Elastic Compliance Matrix: (Units=1/GPa)
#
#
# Indices 1 2 3 4 5 6 
#
# 1 0.018641 -0.007121 -0.002745 0.000000 0.000000 0.000000
# 2 -0.007121 0.009343 -0.004591 0.000000 0.000000 0.000000
# 3 -0.002745 -0.004591 0.014488 0.000000 0.000000 0.000000
# 4 0.000000 0.000000 0.000000 0.038336 0.000000 0.000000
# 5 0.000000 0.000000 0.000000 0.000000 0.034298 0.000000
# 6 0.000000 0.000000 0.000000 0.000000 0.000000 0.026271
#
#
# Mechanical properties :
#
#
# Convention : Reuss Voigt Hill
#
# Bulk Modulus (GPa) = 73.76765 102.69388 88.23077
# Shear Modulus (GPa) = 28.60229 31.52224 30.06227
#
# Velocity S-wave (km/s) = 3.92149 4.11680 4.02033
# Velocity P-wave (km/s) = 7.75664 8.82105 8.30591
#
# Compressibility (1/GPa) = 0.01355608
#
# Stress axis : x y z
#
# Youngs Moduli (GPa) = 53.64478 107.03588 69.02359
#
# Poissons Ratio (x) = 0.76225 0.18946
# Poissons Ratio (y) = 0.38203 0.31691
# Poissons Ratio (z) = 0.14725 0.49144
#
# Static dielectric constant tensor:
#      x y z
#    x 1.624210 0.000000 0.000000 
#    y 0.000000 1.675180 0.000000 
#    z 0.000000 0.000000 1.613910 
# 
# From -- ./inp_files/6447.got.cif
#   From: 2010.05.17/outbox.cif.g08.bks.cpg/sg53_4_cif.got.tgz:6447.got - 2010.06.03 12:45:16.
