data_PCOD9414624
_publ_section_title
;
Structure prediction by ZEFSAII (Michael W. Deem and Ramdas Pophale) SiO2 
 PCOD9414624
Probable space group: P M N A
;
_chemical_formula_sum "Si O2"
_cell_formula_units_Z 48
_cell_length_a 9.410894
_cell_length_b 13.915568
_cell_length_c 21.367907
_cell_angle_alpha 90.000000
_cell_angle_beta 90.000000
_cell_angle_gamma 90.000000
_cell_volume 2798.296984
_symmetry_space_group_name_H-M "P M N A"
_symmetry_group_IT_number 53
_symmetry_cell_setting 'orthorhombic'
loop_
_space_group_symop_operation_xyz
x,y,z
1/2-x,-y,1/2+z
x,-y,-z
1/2-x,y,1/2-z
-x,-y,-z
1/2+x,y,1/2-z
-x,y,z
1/2+x,-y,1/2+z
loop_
_atom_site_type_symbol
_atom_site_label
_atom_site_fract_x
_atom_site_fract_y
_atom_site_fract_z
Si Si1 0.337567 0.531086 0.573716
Si Si2 0.329773 0.064463 0.061007
Si Si3 0.665389 0.006357 0.312873
Si Si4 0.336892 0.774746 0.310813
Si Si5 0.339453 0.709553 0.952731
Si Si6 0.661532 0.349718 0.901972
O O1 0.338784 0.500000 0.500000
O O2 0.500000 0.527151 0.595610
O O3 0.270849 0.637011 0.579128
O O4 0.237173 0.452321 0.605773
O O5 0.500000 0.050366 0.070767
O O6 0.244602 0.037127 0.123576
O O7 0.304801 0.177695 0.048989
O O8 0.290688 0.000000 0.000000
O O9 0.750000 0.037313 0.250000
O O10 0.500000 0.037638 0.311417
O O11 0.665591 0.890158 0.312886
O O12 0.250000 0.743212 0.250000
O O13 0.500000 0.743283 0.308576
O O14 0.256103 0.730386 0.369212
O O15 0.500000 0.696891 0.927294
O O16 0.343352 0.675918 0.024771
O O17 0.500000 0.349909 0.878306
#
# Coordination Sequence:
#
# PCOD9414624 Si02
#       6
#     8   8   8   8   8   8
#     4   9  17  29  46  69  97 128 161 198 242 294
#     4  10  20  34  53  78 108 139 173 216 262 306
#     4  10  21  36  54  75 102 138 177 215 256 308
#     4  10  20  33  49  71  98 128 164 204 247 296
#     4   9  18  31  48  72 101 133 167 203 247 298
#     4  10  18  30  50  73  99 130 163 200 245 298
#
# _framework density 17.153290999999999
#
# number of rings (size 3 to 8) (size 9 to 14) (size 15 to 20)
#    0.000    2.333    0.000    3.000    0.000    7.000 
#    0.000    0.000    0.000    1.000    0.000    2.333 
#    0.000    0.000    0.000    0.000    0.000    0.000 
#
# Total GULP energy -267546.021712 kJ/mol
# GULP energy per Si atom -5573.875452 kJ/mol
# Density = 1.711425 g / cm^3
# Si number density = 17.153291 Si / 1000 Ang^3
#
#
#
# Elastic Constant Matrix: (Units=GPa)
#
#
# Indices 1 2 3 4 5 6 
#
# 1 143.1536 53.1497 48.7306 0.0000 0.0000 0.0000
# 2 53.1497 59.9905 21.8505 0.0000 0.0000 0.0000
# 3 48.7306 21.8505 63.2284 0.0000 0.0000 0.0000
# 4 0.0000 0.0000 0.0000 13.0548 0.0000 0.0000
# 5 0.0000 0.0000 0.0000 0.0000 25.7154 0.0000
# 6 0.0000 0.0000 0.0000 0.0000 0.0000 24.3784
#
#
#
# Elastic Compliance Matrix: (Units=1/GPa)
#
#
# Indices 1 2 3 4 5 6 
#
# 1 0.012429 -0.008606 -0.006605 0.000000 0.000000 0.000000
# 2 -0.008606 0.025029 -0.002017 0.000000 0.000000 0.000000
# 3 -0.006605 -0.002017 0.021603 0.000000 0.000000 0.000000
# 4 0.000000 0.000000 0.000000 0.076600 0.000000 0.000000
# 5 0.000000 0.000000 0.000000 0.000000 0.038887 0.000000
# 6 0.000000 0.000000 0.000000 0.000000 0.000000 0.041020
#
#
# Mechanical properties :
#
#
# Convention : Reuss Voigt Hill
#
# Bulk Modulus (GPa) = 40.64176 57.09269 48.86722
# Shear Modulus (GPa) = 19.36289 22.13915 20.75102
#
# Velocity S-wave (km/s) = 3.36343 3.59648 3.48190
# Velocity P-wave (km/s) = 6.23123 7.11353 6.68695
#
# Compressibility (1/GPa) = 0.02460523
#
# Stress axis : x y z
#
# Youngs Moduli (GPa) = 80.45571 39.95439 46.28929
#
# Poissons Ratio (x) = 0.34385 0.30575
# Poissons Ratio (y) = 0.69241 0.09335
# Poissons Ratio (z) = 0.53142 0.08057
#
# Static dielectric constant tensor:
#      x y z
#    x 1.596280 0.000000 0.000000 
#    y 0.000000 1.569330 0.000000 
#    z 0.000000 0.000000 1.623270 
# 
# From -- ./inp_files/26294.got.cif
#   From: 2010.05.17/outbox.cif.g08.bks.cpg/sg53_14_cif.got.tgz:26294.got - 2010.06.03 12:45:16.
