data_PCOD9414029
_publ_section_title
;
Structure prediction by ZEFSAII (Michael W. Deem and Ramdas Pophale) SiO2 
 PCOD9414029
Probable space group: P N N A
;
_chemical_formula_sum "Si O2"
_cell_formula_units_Z 60
_cell_length_a 27.000000
_cell_length_b 12.000000
_cell_length_c 9.000000
_cell_angle_alpha 90.000000
_cell_angle_beta 90.000000
_cell_angle_gamma 90.000000
_cell_volume 2916.000000
_symmetry_space_group_name_H-M "P N N A"
_symmetry_group_IT_number 52
_symmetry_cell_setting 'orthorhombic'
loop_
_space_group_symop_operation_xyz
x,y,z
1/2-x,-y,z
x,1/2-y,1/2-z
1/2-x,1/2+y,1/2-z
-x,-y,-z
1/2+x,y,-z
-x,1/2+y,1/2+z
1/2+x,1/2-y,1/2+z
loop_
_atom_site_type_symbol
_atom_site_label
_atom_site_fract_x
_atom_site_fract_y
_atom_site_fract_z
Si Si1 0.938275 0.033255 0.884342
Si Si2 0.505021 0.815792 0.094084
Si Si3 0.363378 0.135261 0.514756
Si Si4 0.703526 0.829514 0.925045
Si Si5 0.288033 0.750000 0.250000
Si Si6 0.335858 0.512828 0.244332
Si Si7 0.974094 0.389455 0.936916
Si Si8 0.722515 0.618542 0.250923
O O1 0.881121 0.012248 0.854684
O O2 0.963801 0.912131 0.895058
O O3 0.960431 0.092080 0.735492
O O4 0.949773 0.111152 0.025595
O O5 0.510836 0.750000 0.250000
O O6 0.493601 0.719013 0.974387
O O7 0.343224 0.245899 0.429720
O O8 0.422495 0.135578 0.524467
O O9 0.328028 0.129381 0.656639
O O10 0.352259 0.025975 0.417600
O O11 0.751709 0.755045 0.892273
O O12 0.703555 0.921528 0.796917
O O13 0.708547 0.893764 0.077728
O O14 0.319727 0.638787 0.249684
O O15 0.000000 0.500000 0.000000
O O16 0.750000 0.500000 0.207139
O O17 0.744083 0.750000 0.250000
#
# Coordination Sequence:
#
# PCOD9414029 Si02
#       8
#     8   8   8   8   4   8   8   8
#     4  10  24  42  63  99 130 182 214 286 340 398
#     4  11  22  40  69  93 130 175 229 270 341 408
#     4  10  23  39  66  93 122 169 220 265 330 397
#     4  11  22  41  61  94 124 168 219 268 321 395
#     4  12  24  34  68  96 126 176 212 278 332 396
#     4  11  23  40  64  91 135 161 225 265 331 396
#     4  11  22  41  66  95 133 171 219 280 338 405
#     4  10  23  40  64  93 134 170 216 275 335 399
#
# _framework density 20.576132000000001
#
# number of rings (size 3 to 8) (size 9 to 14) (size 15 to 20)
#    0.000    1.333    2.667    2.400    4.667    4.800 
#    0.000    0.000    0.000    0.000    0.000    0.000 
#    0.000    0.000    0.000    0.000    0.000    0.000 
#
# Total GULP energy -334538.931966 kJ/mol
# GULP energy per Si atom -5575.648866 kJ/mol
# Density = 2.052930 g / cm^3
# Si number density = 20.576132 Si / 1000 Ang^3
#
#
#
# Elastic Constant Matrix: (Units=GPa)
#
#
# Indices 1 2 3 4 5 6 
#
# 1 58.5899 44.6991 15.7747 0.0000 0.0000 0.0000
# 2 44.6991 171.4954 25.9471 0.0000 0.0000 0.0000
# 3 15.7747 25.9471 52.2868 0.0000 0.0000 0.0000
# 4 0.0000 0.0000 0.0000 37.1408 0.0000 0.0000
# 5 0.0000 0.0000 0.0000 0.0000 22.7738 0.0000
# 6 0.0000 0.0000 0.0000 0.0000 0.0000 26.4633
#
#
#
# Elastic Compliance Matrix: (Units=1/GPa)
#
#
# Indices 1 2 3 4 5 6 
#
# 1 0.022095 -0.005136 -0.004117 0.000000 0.000000 0.000000
# 2 -0.005136 0.007498 -0.002171 0.000000 0.000000 0.000000
# 3 -0.004117 -0.002171 0.021445 0.000000 0.000000 0.000000
# 4 0.000000 0.000000 0.000000 0.026925 0.000000 0.000000
# 5 0.000000 0.000000 0.000000 0.000000 0.043910 0.000000
# 6 0.000000 0.000000 0.000000 0.000000 0.000000 0.037788
#
#
# Mechanical properties :
#
#
# Convention : Reuss Voigt Hill
#
# Bulk Modulus (GPa) = 35.47517 50.57931 43.02724
# Shear Modulus (GPa) = 26.05442 30.33898 28.19670
#
# Velocity S-wave (km/s) = 3.56229 3.84405 3.70585
# Velocity P-wave (km/s) = 5.84793 6.65862 6.26640
#
# Compressibility (1/GPa) = 0.02818873
#
# Stress axis : x y z
#
# Youngs Moduli (GPa) = 45.26005 133.36474 46.63086
#
# Poissons Ratio (x) = 0.68494 0.19199
# Poissons Ratio (y) = 0.23245 0.10126
# Poissons Ratio (z) = 0.18634 0.28960
#
# Static dielectric constant tensor:
#      x y z
#    x 1.798800 0.000000 0.000000 
#    y 0.000000 1.748150 0.000000 
#    z 0.000000 0.000000 1.772620 
# 
# From -- ./inp_files/15074.got.cif
#   From: 2010.05.17/outbox.ucp.g08.bks.cvg/sg52_8_cif.got.tgz:15074.got - 2010.06.11 16:30:12.
