data_PCOD9414716
_publ_section_title
;
Structure prediction by ZEFSAII (Michael W. Deem and Ramdas Pophale) SiO2 
 PCOD9414716
Probable space group: P M N A
;
_chemical_formula_sum "Si O2"
_cell_formula_units_Z 64
_cell_length_a 8.080524
_cell_length_b 14.067776
_cell_length_c 29.911763
_cell_angle_alpha 90.000000
_cell_angle_beta 90.000000
_cell_angle_gamma 90.000000
_cell_volume 3400.219707
_symmetry_space_group_name_H-M "P M N A"
_symmetry_group_IT_number 53
_symmetry_cell_setting 'orthorhombic'
loop_
_space_group_symop_operation_xyz
x,y,z
1/2-x,-y,1/2+z
x,-y,-z
1/2-x,y,1/2-z
-x,-y,-z
1/2+x,y,1/2-z
-x,y,z
1/2+x,-y,1/2+z
loop_
_atom_site_type_symbol
_atom_site_label
_atom_site_fract_x
_atom_site_fract_y
_atom_site_fract_z
Si Si1 0.303156 0.724136 0.569938
Si Si2 0.698272 0.279279 0.200729
Si Si3 0.302155 0.877551 0.868203
Si Si4 0.802595 0.968180 0.200677
Si Si5 0.798251 0.393573 0.984126
Si Si6 0.693123 0.434206 0.139212
Si Si7 0.808823 0.364600 0.885158
Si Si8 0.799938 0.250970 0.798994
O O1 0.500000 0.710787 0.575213
O O2 0.260988 0.831796 0.585211
O O3 0.258007 0.686620 0.520726
O O4 0.212724 0.649379 0.602720
O O5 0.750000 0.257630 0.250000
O O6 0.500000 0.277345 0.196956
O O7 0.764677 0.199921 0.167398
O O8 0.750577 0.383335 0.184583
O O9 0.500000 0.874951 0.870584
O O10 0.254984 0.975018 0.843399
O O11 0.750000 0.006958 0.250000
O O12 0.000000 0.968674 0.200411
O O13 0.742861 0.858881 0.198717
O O14 0.734849 0.363151 0.935165
O O15 0.000000 0.399700 0.981378
O O16 0.743684 0.500000 0.000000
O O17 0.500000 0.461597 0.141762
O O18 0.799187 0.524635 0.127188
O O19 0.737770 0.307097 0.842825
O O20 0.000000 0.333567 0.889303
O O21 0.750000 0.289260 0.750000
O O22 0.000000 0.252182 0.800064
#
# Coordination Sequence:
#
# PCOD9414716 Si02
#       8
#     8   8   8   8   8   8   8   8
#     4  10  18  31  51  74 101 134 168 208 257 308
#     4   9  19  31  42  60  91 125 159 196 238 289
#     4  10  20  33  49  73 103 132 165 210 258 308
#     4  10  19  33  53  78 102 131 172 214 260 310
#     4   9  16  29  52  79 102 129 173 221 256 299
#     4  10  20  32  44  66  99 132 166 208 252 302
#     4  10  19  34  54  75  99 133 174 214 259 305
#     4   9  20  36  55  77 104 135 171 216 259 307
#
# _framework density 18.822312
#
# number of rings (size 3 to 8) (size 9 to 14) (size 15 to 20)
#    0.000    2.375    1.250    2.625    0.000    5.500 
#    0.000    4.375    0.000    0.750    0.000    5.250 
#    0.000    0.000    0.000    0.000    0.000    0.000 
#
# Total GULP energy -356400.124274 kJ/mol
# GULP energy per Si atom -5568.751942 kJ/mol
# Density = 1.877947 g / cm^3
# Si number density = 18.822312 Si / 1000 Ang^3
#
#
#
# Elastic Constant Matrix: (Units=GPa)
#
#
# Indices 1 2 3 4 5 6 
#
# 1 24.2734 1.4703 7.3061 0.0000 0.0000 0.0000
# 2 1.4703 53.4201 51.9112 0.0000 0.0000 0.0000
# 3 7.3061 51.9112 128.5984 0.0000 0.0000 0.0000
# 4 0.0000 0.0000 0.0000 27.9234 0.0000 0.0000
# 5 0.0000 0.0000 0.0000 0.0000 16.4337 0.0000
# 6 0.0000 0.0000 0.0000 0.0000 0.0000 14.2968
#
#
#
# Elastic Compliance Matrix: (Units=1/GPa)
#
#
# Indices 1 2 3 4 5 6 
#
# 1 0.042033 0.001915 -0.003161 0.000000 0.000000 0.000000
# 2 0.001915 0.030889 -0.012578 0.000000 0.000000 0.000000
# 3 -0.003161 -0.012578 0.013033 0.000000 0.000000 0.000000
# 4 0.000000 0.000000 0.000000 0.035812 0.000000 0.000000
# 5 0.000000 0.000000 0.000000 0.000000 0.060851 0.000000
# 6 0.000000 0.000000 0.000000 0.000000 0.000000 0.069946
#
#
# Mechanical properties :
#
#
# Convention : Reuss Voigt Hill
#
# Bulk Modulus (GPa) = 17.15054 36.40746 26.77900
# Shear Modulus (GPa) = 16.68626 21.43773 19.06199
#
# Velocity S-wave (km/s) = 2.98067 3.37850 3.18580
# Velocity P-wave (km/s) = 4.58011 5.88249 5.27168
#
# Compressibility (1/GPa) = 0.05830721
#
# Stress axis : x y z
#
# Youngs Moduli (GPa) = 23.79094 32.37349 76.72806
#
# Poissons Ratio (x) = -0.06199 0.24254
# Poissons Ratio (y) = -0.04556 0.96508
# Poissons Ratio (z) = 0.07520 0.40719
#
# Static dielectric constant tensor:
#      x y z
#    x 1.668980 0.000000 0.000000 
#    y 0.000000 1.667010 0.000000 
#    z 0.000000 0.000000 1.701850 
# 
# From -- ./inp_files/38525.got.cif
#   From: 2010.05.17/outbox.cif.g08.bks.cpg/sg53_20_cif.got.tgz:38525.got - 2010.06.03 12:45:16.
