data_PCOD9414876
_publ_section_title
;
Structure prediction by ZEFSAII (Michael W. Deem and Ramdas Pophale) SiO2 
 PCOD9414876
Probable space group: P M N A
;
_chemical_formula_sum "Si O2"
_cell_formula_units_Z 56
_cell_length_a 14.597221
_cell_length_b 11.378727
_cell_length_c 15.528644
_cell_angle_alpha 90.000000
_cell_angle_beta 90.000000
_cell_angle_gamma 90.000000
_cell_volume 2579.273492
_symmetry_space_group_name_H-M "P M N A"
_symmetry_group_IT_number 53
_symmetry_cell_setting 'orthorhombic'
loop_
_space_group_symop_operation_xyz
x,y,z
1/2-x,-y,1/2+z
x,-y,-z
1/2-x,y,1/2-z
-x,-y,-z
1/2+x,y,1/2-z
-x,y,z
1/2+x,-y,1/2+z
loop_
_atom_site_type_symbol
_atom_site_label
_atom_site_fract_x
_atom_site_fract_y
_atom_site_fract_z
Si Si1 0.098218 0.429142 0.089492
Si Si2 0.699098 0.900703 0.925156
Si Si3 0.390911 0.727018 0.056132
Si Si4 0.739882 0.597499 0.351290
Si Si5 0.107815 0.068168 0.700173
Si Si6 0.605713 0.188528 0.628387
Si Si7 0.900984 0.149363 0.065025
O O1 0.188388 0.474438 0.136431
O O2 0.097990 0.290987 0.072842
O O3 0.000000 0.458174 0.133387
O O4 0.098391 0.500000 0.000000
O O5 0.804137 0.886536 0.898326
O O6 0.647301 0.952258 0.843171
O O7 0.654721 0.785990 0.971096
O O8 0.693056 0.000000 0.000000
O O9 0.500000 0.705988 0.044840
O O10 0.331338 0.618278 0.092682
O O11 0.379965 0.824649 0.132294
O O12 0.750000 0.616735 0.250000
O O13 0.669259 0.698546 0.381349
O O14 0.142379 0.111320 0.792755
O O15 0.000000 0.049928 0.709894
O O16 0.500000 0.223288 0.646654
O O17 0.604776 0.123479 0.537252
O O18 0.000000 0.106614 0.098861
#
# Coordination Sequence:
#
# PCOD9414876 Si02
#       7
#     8   8   8   8   8   8   8
#     4  10  19  34  58  87 118 156 200 246 303 367
#     4  10  19  33  53  80 113 157 200 238 288 358
#     4  10  19  31  48  75 114 157 201 242 286 350
#     4  12  21  31  55  88 125 154 198 246 306 346
#     4   9  18  31  51  80 117 155 195 245 297 344
#     4  10  18  32  55  87 120 149 192 252 306 349
#     4  10  20  35  59  87 119 156 197 250 303 359
#
# _framework density 21.711542000000001
#
# number of rings (size 3 to 8) (size 9 to 14) (size 15 to 20)
#    0.000    1.857    4.286    0.857    0.000    2.571 
#    0.000    0.000    0.000    7.286    0.000    2.000 
#    0.000    0.571    0.000    0.000    0.000    0.000 
#
# Total GULP energy -312887.886470 kJ/mol
# GULP energy per Si atom -5587.283687 kJ/mol
# Density = 2.166213 g / cm^3
# Si number density = 21.711542 Si / 1000 Ang^3
#
#
#
# Elastic Constant Matrix: (Units=GPa)
#
#
# Indices 1 2 3 4 5 6 
#
# 1 124.8775 32.4406 29.7198 0.0000 0.0000 0.0000
# 2 32.4406 48.8227 20.3232 0.0000 0.0000 0.0000
# 3 29.7198 20.3232 45.1838 0.0000 0.0000 0.0000
# 4 0.0000 0.0000 0.0000 19.4400 0.0000 0.0000
# 5 0.0000 0.0000 0.0000 0.0000 16.5723 0.0000
# 6 0.0000 0.0000 0.0000 0.0000 0.0000 32.5014
#
#
#
# Elastic Compliance Matrix: (Units=1/GPa)
#
#
# Indices 1 2 3 4 5 6 
#
# 1 0.010399 -0.004998 -0.004592 0.000000 0.000000 0.000000
# 2 -0.004998 0.027603 -0.009128 0.000000 0.000000 0.000000
# 3 -0.004592 -0.009128 0.029258 0.000000 0.000000 0.000000
# 4 0.000000 0.000000 0.000000 0.051440 0.000000 0.000000
# 5 0.000000 0.000000 0.000000 0.000000 0.060342 0.000000
# 6 0.000000 0.000000 0.000000 0.000000 0.000000 0.030768
#
#
# Mechanical properties :
#
#
# Convention : Reuss Voigt Hill
#
# Bulk Modulus (GPa) = 33.53029 42.65014 38.09022
# Shear Modulus (GPa) = 19.44107 22.79610 21.11858
#
# Velocity S-wave (km/s) = 2.99561 3.24381 3.12218
# Velocity P-wave (km/s) = 5.23851 5.80658 5.52985
#
# Compressibility (1/GPa) = 0.02982378
#
# Stress axis : x y z
#
# Youngs Moduli (GPa) = 96.16177 36.22781 34.17896
#
# Poissons Ratio (x) = 0.18108 0.15695
# Poissons Ratio (y) = 0.48065 0.31198
# Poissons Ratio (z) = 0.44156 0.33068
#
# Static dielectric constant tensor:
#      x y z
#    x 1.835070 0.000000 0.000000 
#    y 0.000000 1.826880 0.000000 
#    z 0.000000 0.000000 1.784610 
# 
# From -- ./inp_files/22849.got.cif
#   From: 2010.05.17/outbox.cif.g08.bks.cpg/sg53_12_cif.got.tgz:22849.got - 2010.06.03 12:45:16.
