data_PCOD9414639
_publ_section_title
;
Structure prediction by ZEFSAII (Michael W. Deem and Ramdas Pophale) SiO2 
 PCOD9414639
Probable space group: P M N A
;
_chemical_formula_sum "Si O2"
_cell_formula_units_Z 48
_cell_length_a 8.462841
_cell_length_b 16.193869
_cell_length_c 18.614788
_cell_angle_alpha 90.000000
_cell_angle_beta 90.000000
_cell_angle_gamma 90.000000
_cell_volume 2551.084815
_symmetry_space_group_name_H-M "P M N A"
_symmetry_group_IT_number 53
_symmetry_cell_setting 'orthorhombic'
loop_
_space_group_symop_operation_xyz
x,y,z
1/2-x,-y,1/2+z
x,-y,-z
1/2-x,y,1/2-z
-x,-y,-z
1/2+x,y,1/2-z
-x,y,z
1/2+x,-y,1/2+z
loop_
_atom_site_type_symbol
_atom_site_label
_atom_site_fract_x
_atom_site_fract_y
_atom_site_fract_z
Si Si1 0.189046 0.825370 0.331878
Si Si2 0.190967 0.337205 0.418235
Si Si3 0.689125 0.001728 0.667881
Si Si4 0.807007 0.662721 0.416614
Si Si5 0.308798 0.499307 0.168713
Si Si6 0.810503 0.180025 0.168052
O O1 0.250000 0.818115 0.250000
O O2 0.244191 0.746908 0.377748
O O3 0.000000 0.825351 0.329457
O O4 0.244289 0.913374 0.363694
O O5 0.244559 0.341025 0.500785
O O6 0.244275 0.417600 0.373863
O O7 0.246379 0.254145 0.379598
O O8 0.000000 0.338041 0.418412
O O9 0.750000 0.001354 0.750000
O O10 0.500000 0.006722 0.667759
O O11 0.736639 0.911362 0.639287
O O12 0.756241 0.582128 0.372365
O O13 0.000000 0.662624 0.416590
O O14 0.250000 0.498322 0.250000
O O15 0.500000 0.499267 0.169108
O O16 0.750000 0.188262 0.250000
O O17 0.000000 0.183117 0.169777
#
# Coordination Sequence:
#
# PCOD9414639 Si02
#       6
#     8   8   8   8   8   8
#     4  10  18  30  51  76 102 132 170 214 255 300
#     4  10  20  35  55  76 102 137 173 210 251 298
#     4   9  17  30  49  73 101 132 168 210 255 300
#     4   9  19  35  53  75 103 137 173 206 249 305
#     4  10  20  35  56  79 103 132 169 211 253 301
#     4  10  20  34  53  77 104 135 171 212 256 302
#
# _framework density 18.815525000000001
#
# number of rings (size 3 to 8) (size 9 to 14) (size 15 to 20)
#    0.000    2.333    0.000    4.000    0.000    6.000 
#    0.000    4.167    0.000    7.000    0.000    0.000 
#    0.000    0.000    0.000    0.000    0.000    0.000 
#
# Total GULP energy -267804.335447 kJ/mol
# GULP energy per Si atom -5579.256988 kJ/mol
# Density = 1.877270 g / cm^3
# Si number density = 18.815525 Si / 1000 Ang^3
#
#
#
# Elastic Constant Matrix: (Units=GPa)
#
#
# Indices 1 2 3 4 5 6 
#
# 1 22.1843 29.3877 16.3595 0.0000 0.0000 0.0000
# 2 29.3877 232.9084 106.0643 0.0000 0.0000 0.0000
# 3 16.3595 106.0643 128.5249 0.0000 0.0000 0.0000
# 4 0.0000 0.0000 0.0000 -4.9632 0.0000 0.0000
# 5 0.0000 0.0000 0.0000 0.0000 22.0766 0.0000
# 6 0.0000 0.0000 0.0000 0.0000 0.0000 25.2937
#
#
#
# Elastic Compliance Matrix: (Units=1/GPa)
#
#
# Indices 1 2 3 4 5 6 
#
# 1 0.054449 -0.005950 -0.002020 0.000000 0.000000 0.000000
# 2 -0.005950 0.007529 -0.005456 0.000000 0.000000 0.000000
# 3 -0.002020 -0.005456 0.012540 0.000000 0.000000 0.000000
# 4 0.000000 0.000000 0.000000 -0.201481 0.000000 0.000000
# 5 0.000000 0.000000 0.000000 0.000000 0.045297 0.000000
# 6 0.000000 0.000000 0.000000 0.000000 0.000000 0.039536
#
#
# Mechanical properties :
#
#
# Convention : Reuss Voigt Hill
#
# Bulk Modulus (GPa) = 20.97951 76.36006 48.66979
# Shear Modulus (GPa) = 8195.95471 23.93514 4109.94493
#
# Velocity S-wave (km/s) = 66.07125 3.57051 46.78760
# Velocity P-wave (km/s) = 76.36570 7.59406 54.26504
#
# Compressibility (1/GPa) = 0.04766555
#
# Stress axis : x y z
#
# Youngs Moduli (GPa) = 18.36578 132.82345 79.74467
#
# Poissons Ratio (x) = 0.79033 0.16110
# Poissons Ratio (y) = 0.10928 0.43506
# Poissons Ratio (z) = 0.03710 0.72464
#
# Static dielectric constant tensor:
#      x y z
#    x 1.650860 0.000000 0.000000 
#    y 0.000000 1.677130 0.000000 
#    z 0.000000 0.000000 1.608880 
# 
# From -- ./inp_files/26252.got.cif
#   From: 2010.05.17/outbox.cif.g08.bks.cpg/sg53_14_cif.got.tgz:26252.got - 2010.06.03 12:45:16.
