data_PCOD9414551
_publ_section_title
;
Structure prediction by ZEFSAII (Michael W. Deem and Ramdas Pophale) SiO2 
 PCOD9414551
Probable space group: P M N A
;
_chemical_formula_sum "Si O2"
_cell_formula_units_Z 48
_cell_length_a 21.050284
_cell_length_b 8.039328
_cell_length_c 12.953495
_cell_angle_alpha 90.000000
_cell_angle_beta 90.000000
_cell_angle_gamma 90.000000
_cell_volume 2192.121741
_symmetry_space_group_name_H-M "P M N A"
_symmetry_group_IT_number 53
_symmetry_cell_setting 'orthorhombic'
loop_
_space_group_symop_operation_xyz
x,y,z
1/2-x,-y,1/2+z
x,-y,-z
1/2-x,y,1/2-z
-x,-y,-z
1/2+x,y,1/2-z
-x,y,z
1/2+x,-y,1/2+z
loop_
_atom_site_type_symbol
_atom_site_label
_atom_site_fract_x
_atom_site_fract_y
_atom_site_fract_z
Si Si1 0.876847 0.693334 0.537680
Si Si2 0.429382 0.165616 0.829672
Si Si3 0.185277 0.903009 0.182205
Si Si4 0.931998 0.551902 0.739001
Si Si5 0.696796 0.464787 0.658462
Si Si6 0.253924 0.213462 0.375684
O O1 0.862587 0.500000 0.500000
O O2 0.907638 0.800678 0.446719
O O3 0.921571 0.659588 0.635832
O O4 0.815529 0.795610 0.575588
O O5 0.500000 0.090424 0.823121
O O6 0.375033 0.081763 0.758983
O O7 0.434038 0.356607 0.790205
O O8 0.250000 0.895411 0.250000
O O9 0.181094 0.723475 0.127815
O O10 0.198576 0.060601 0.110156
O O11 0.867209 0.555381 0.802109
O O12 0.000000 0.595636 0.787670
O O13 0.750000 0.444767 0.750000
O O14 0.724209 0.606618 0.586383
O O15 0.250000 0.226170 0.250000
#
# Coordination Sequence:
#
# PCOD9414551 Si02
#       6
#     8   8   8   8   8   8
#     4  10  18  29  52  82 115 159 186 224 288 345
#     4   9  18  32  52  82 121 155 182 224 287 353
#     4   9  19  32  54  74 102 151 193 233 266 319
#     4   9  15  26  47  78 111 149 188 220 269 339
#     4   9  15  29  51  70  96 142 189 232 267 306
#     4  10  18  33  53  71 102 149 195 233 265 317
#
# _framework density 21.896595999999999
#
# number of rings (size 3 to 8) (size 9 to 14) (size 15 to 20)
#    0.000    2.667    3.333    0.500    2.333    2.000 
#    0.000    4.167    0.000    4.000    0.000    0.000 
#    0.000    6.667    0.000    0.000    0.000    0.000 
#
# Total GULP energy -267336.874117 kJ/mol
# GULP energy per Si atom -5569.518211 kJ/mol
# Density = 2.184676 g / cm^3
# Si number density = 21.896596 Si / 1000 Ang^3
#
#
#
# Elastic Constant Matrix: (Units=GPa)
#
#
# Indices 1 2 3 4 5 6 
#
# 1 171.3161 30.5595 29.7340 0.0000 0.0000 0.0000
# 2 30.5595 122.0790 27.1928 0.0000 0.0000 0.0000
# 3 29.7340 27.1928 41.7790 0.0000 0.0000 0.0000
# 4 0.0000 0.0000 0.0000 18.2948 0.0000 0.0000
# 5 0.0000 0.0000 0.0000 0.0000 19.6033 0.0000
# 6 0.0000 0.0000 0.0000 0.0000 0.0000 -49.8490
#
#
#
# Elastic Compliance Matrix: (Units=1/GPa)
#
#
# Indices 1 2 3 4 5 6 
#
# 1 0.006714 -0.000721 -0.004309 0.000000 0.000000 0.000000
# 2 -0.000721 0.009658 -0.005773 0.000000 0.000000 0.000000
# 3 -0.004309 -0.005773 0.030760 0.000000 0.000000 0.000000
# 4 0.000000 0.000000 0.000000 0.054660 0.000000 0.000000
# 5 0.000000 0.000000 0.000000 0.000000 0.051012 0.000000
# 6 0.000000 0.000000 0.000000 0.000000 0.000000 -0.020061
#
#
# Mechanical properties :
#
#
# Convention : Reuss Voigt Hill
#
# Bulk Modulus (GPa) = 39.17638 56.68297 47.92967
# Shear Modulus (GPa) = 30.70188 14.12234 22.41211
#
# Velocity S-wave (km/s) = 3.74857 2.54235 3.20276
# Velocity P-wave (km/s) = 6.05525 5.87886 5.96770
#
# Compressibility (1/GPa) = 0.02552558
#
# Stress axis : x y z
#
# Youngs Moduli (GPa) = 148.95137 103.54359 32.51016
#
# Poissons Ratio (x) = 0.07463 0.14008
# Poissons Ratio (y) = 0.10736 0.18768
# Poissons Ratio (z) = 0.64182 0.59776
#
# Static dielectric constant tensor:
#      x y z
#    x 1.744850 0.000000 0.000000 
#    y 0.000000 1.930840 0.000000 
#    z 0.000000 0.000000 1.974930 
# 
# From -- ./inp_files/24161.got.cif
#   From: 2010.05.17/outbox.cif.g08.bks.cpg/sg53_13_cif.got.tgz:24161.got - 2010.06.03 12:45:16.
