data_PCOD9414397
_publ_section_title
;
Structure prediction by ZEFSAII (Michael W. Deem and Ramdas Pophale) SiO2 
 PCOD9414397
Probable space group: P M N A
;
_chemical_formula_sum "Si O2"
_cell_formula_units_Z 64
_cell_length_a 8.912748
_cell_length_b 26.803559
_cell_length_c 18.695493
_cell_angle_alpha 90.000000
_cell_angle_beta 90.000000
_cell_angle_gamma 90.000000
_cell_volume 4466.229268
_symmetry_space_group_name_H-M "P M N A"
_symmetry_group_IT_number 53
_symmetry_cell_setting 'orthorhombic'
loop_
_space_group_symop_operation_xyz
x,y,z
1/2-x,-y,1/2+z
x,-y,-z
1/2-x,y,1/2-z
-x,-y,-z
1/2+x,y,1/2-z
-x,y,z
1/2+x,-y,1/2+z
loop_
_atom_site_type_symbol
_atom_site_label
_atom_site_fract_x
_atom_site_fract_y
_atom_site_fract_z
Si Si1 0.820472 0.103030 0.580398
Si Si2 0.321481 0.497248 0.828171
Si Si3 0.320835 0.005290 0.827979
Si Si4 0.678340 0.604994 0.084174
Si Si5 0.320092 0.306548 0.672030
Si Si6 0.172850 0.050875 0.047142
Si Si7 0.319227 0.800575 0.172608
Si Si8 0.827090 0.447963 0.044416
O O1 0.778115 0.058193 0.634902
O O2 0.742859 0.092268 0.504781
O O3 0.784487 0.155637 0.616786
O O4 0.000000 0.099912 0.570706
O O5 0.250000 0.498500 0.750000
O O6 0.500000 0.503990 0.824250
O O7 0.293660 0.443255 0.865047
O O8 0.250020 0.538400 0.880759
O O9 0.250000 0.001627 0.750000
O O10 0.500000 0.003658 0.823176
O O11 0.262670 0.962301 0.881271
O O12 0.500000 0.614036 0.083294
O O13 0.765459 0.651605 0.117128
O O14 0.737434 0.590260 0.005653
O O15 0.250000 0.318598 0.750000
O O16 0.500000 0.304772 0.677012
O O17 0.253493 0.252360 0.652388
O O18 0.000000 0.061528 0.063486
O O19 0.179102 0.000000 0.000000
O O20 0.250000 0.813841 0.250000
O O21 0.500000 0.795767 0.178775
O O22 0.000000 0.432825 0.053644
O O23 0.826170 0.500000 0.000000
#
# Coordination Sequence:
#
# PCOD9414397 Si02
#       8
#     8   8   8   8   8   8   8   8
#     4   9  18  30  44  61  83 113 144 176 214 254
#     4  10  19  29  43  63  87 115 146 179 214 254
#     4  10  18  28  42  61  86 113 143 176 211 252
#     4  10  19  31  46  63  85 114 147 180 216 256
#     4  11  21  32  45  62  85 113 146 182 219 254
#     4   9  17  28  42  60  82 109 141 175 210 250
#     4  10  19  31  45  62  85 112 144 180 217 253
#     4   9  17  29  44  62  85 112 142 176 213 254
#
# _framework density 14.329762000000001
#
# number of rings (size 3 to 8) (size 9 to 14) (size 15 to 20)
#    0.000    2.250    0.000    4.875    0.000    7.000 
#    0.000    0.000    0.000    0.000    0.000    0.000 
#    0.000    1.000    0.000    5.500    0.000    5.875 
#
# Total GULP energy -356927.128159 kJ/mol
# GULP energy per Si atom -5576.986377 kJ/mol
# Density = 1.429715 g / cm^3
# Si number density = 14.329762 Si / 1000 Ang^3
#
#
#
# Elastic Constant Matrix: (Units=GPa)
#
#
# Indices 1 2 3 4 5 6 
#
# 1 88.7973 45.1768 58.4614 0.0000 0.0000 0.0000
# 2 45.1768 66.8413 42.6312 0.0000 0.0000 0.0000
# 3 58.4614 42.6312 103.0416 0.0000 0.0000 0.0000
# 4 0.0000 0.0000 0.0000 24.4553 0.0000 0.0000
# 5 0.0000 0.0000 0.0000 0.0000 29.2023 0.0000
# 6 0.0000 0.0000 0.0000 0.0000 0.0000 15.5961
#
#
#
# Elastic Compliance Matrix: (Units=1/GPa)
#
#
# Indices 1 2 3 4 5 6 
#
# 1 0.021425 -0.009140 -0.008374 0.000000 0.000000 0.000000
# 2 -0.009140 0.024223 -0.004836 0.000000 0.000000 0.000000
# 3 -0.008374 -0.004836 0.016457 0.000000 0.000000 0.000000
# 4 0.000000 0.000000 0.000000 0.040891 0.000000 0.000000
# 5 0.000000 0.000000 0.000000 0.000000 0.034244 0.000000
# 6 0.000000 0.000000 0.000000 0.000000 0.000000 0.064119
#
#
# Mechanical properties :
#
#
# Convention : Reuss Voigt Hill
#
# Bulk Modulus (GPa) = 57.45699 61.24656 59.35178
# Shear Modulus (GPa) = 19.85237 21.34478 20.59858
#
# Velocity S-wave (km/s) = 3.72613 3.86365 3.79551
# Velocity P-wave (km/s) = 7.66129 7.92069 7.79207
#
# Compressibility (1/GPa) = 0.01740432
#
# Stress axis : x y z
#
# Youngs Moduli (GPa) = 46.67479 41.28374 60.76498
#
# Poissons Ratio (x) = 0.37732 0.50886
# Poissons Ratio (y) = 0.42659 0.29387
# Poissons Ratio (z) = 0.39087 0.19965
#
# Static dielectric constant tensor:
#      x y z
#    x 1.478620 0.000000 0.000000 
#    y 0.000000 1.457390 0.000000 
#    z 0.000000 0.000000 1.453860 
# 
# From -- ./inp_files/27029.got.cif
#   From: 2010.05.17/outbox.cif.g08.bks.cpg/sg53_14_cif.got.tgz:27029.got - 2010.06.03 12:45:16.
