data_PCOD9414659
_publ_section_title
;
Structure prediction by ZEFSAII (Michael W. Deem and Ramdas Pophale) SiO2 
 PCOD9414659
Probable space group: P M N A
;
_chemical_formula_sum "Si O2"
_cell_formula_units_Z 56
_cell_length_a 13.180016
_cell_length_b 14.858864
_cell_length_c 12.131931
_cell_angle_alpha 90.000000
_cell_angle_beta 90.000000
_cell_angle_gamma 90.000000
_cell_volume 2375.918159
_symmetry_space_group_name_H-M "P M N A"
_symmetry_group_IT_number 53
_symmetry_cell_setting 'orthorhombic'
loop_
_space_group_symop_operation_xyz
x,y,z
1/2-x,-y,1/2+z
x,-y,-z
1/2-x,y,1/2-z
-x,-y,-z
1/2+x,y,1/2-z
-x,y,z
1/2+x,-y,1/2+z
loop_
_atom_site_type_symbol
_atom_site_label
_atom_site_fract_x
_atom_site_fract_y
_atom_site_fract_z
Si Si1 0.395171 0.793305 0.535967
Si Si2 0.335038 0.579551 0.085590
Si Si3 0.160298 0.045862 0.393848
Si Si4 0.385716 0.665744 0.743158
Si Si5 0.610713 0.014274 0.355945
Si Si6 0.314741 0.746291 0.960354
Si Si7 0.615136 0.466052 0.664869
O O1 0.500000 0.766886 0.480377
O O2 0.389897 0.745211 0.654751
O O3 0.394997 0.897545 0.566822
O O4 0.292916 0.763662 0.480110
O O5 0.376640 0.565431 0.208113
O O6 0.211253 0.572365 0.098294
O O7 0.364315 0.500000 0.000000
O O8 0.369487 0.676596 0.040417
O O9 0.112933 0.037150 0.273586
O O10 0.270198 0.993163 0.380114
O O11 0.158710 0.152724 0.421981
O O12 0.112026 0.000000 0.500000
O O13 0.500000 0.658351 0.791320
O O14 0.314663 0.689950 0.845615
O O15 0.368005 0.573403 0.678311
O O16 0.500000 0.966566 0.370745
O O17 0.500000 0.449918 0.622898
#
# Coordination Sequence:
#
# PCOD9414659 Si02
#       7
#     8   8   8   8   8   8   8
#     4   9  17  29  51  81 107 134 172 223 284 327
#     4  11  22  36  58  83 111 147 188 229 281 339
#     4  10  21  36  57  85 114 147 187 232 285 342
#     4  10  18  30  53  79 105 138 176 224 279 321
#     4   9  18  35  56  81 112 142 180 237 286 329
#     4  11  20  33  55  81 112 142 180 234 275 327
#     4  10  23  39  53  77 116 153 188 231 273 333
#
# _framework density 23.569835999999999
#
# number of rings (size 3 to 8) (size 9 to 14) (size 15 to 20)
#    0.000    2.000    2.857    1.286    2.000    2.286 
#    0.000    2.857    0.000    1.714    0.000    0.000 
#    0.000    0.000    0.000    0.000    0.000    0.000 
#
# Total GULP energy -311978.338956 kJ/mol
# GULP energy per Si atom -5571.041767 kJ/mol
# Density = 2.351619 g / cm^3
# Si number density = 23.569836 Si / 1000 Ang^3
#
#
#
# Elastic Constant Matrix: (Units=GPa)
#
#
# Indices 1 2 3 4 5 6 
#
# 1 110.5768 20.7257 0.6237 0.0000 0.0000 0.0000
# 2 20.7257 34.5247 22.7672 0.0000 0.0000 0.0000
# 3 0.6237 22.7672 86.4305 0.0000 0.0000 0.0000
# 4 0.0000 0.0000 0.0000 36.4330 0.0000 0.0000
# 5 0.0000 0.0000 0.0000 0.0000 4.5169 0.0000
# 6 0.0000 0.0000 0.0000 0.0000 0.0000 39.9858
#
#
#
# Elastic Compliance Matrix: (Units=1/GPa)
#
#
# Indices 1 2 3 4 5 6 
#
# 1 0.010444 -0.007527 0.001907 0.000000 0.000000 0.000000
# 2 -0.007527 0.040479 -0.010609 0.000000 0.000000 0.000000
# 3 0.001907 -0.010609 0.014351 0.000000 0.000000 0.000000
# 4 0.000000 0.000000 0.000000 0.027448 0.000000 0.000000
# 5 0.000000 0.000000 0.000000 0.000000 0.221390 0.000000
# 6 0.000000 0.000000 0.000000 0.000000 0.000000 0.025009
#
#
# Mechanical properties :
#
#
# Convention : Reuss Voigt Hill
#
# Bulk Modulus (GPa) = 30.47228 35.52948 33.00088
# Shear Modulus (GPa) = 13.07135 28.68151 20.87643
#
# Velocity S-wave (km/s) = 2.35751 3.49216 2.97934
# Velocity P-wave (km/s) = 4.51298 5.60063 5.08597
#
# Compressibility (1/GPa) = 0.03281671
#
# Stress axis : x y z
#
# Youngs Moduli (GPa) = 95.75252 24.70399 69.68307
#
# Poissons Ratio (x) = 0.18595 -0.13292
# Poissons Ratio (y) = 0.72076 0.73924
# Poissons Ratio (z) = -0.18264 0.26207
#
# Static dielectric constant tensor:
#      x y z
#    x 2.065570 0.000000 0.000000 
#    y 0.000000 1.869710 0.000000 
#    z 0.000000 0.000000 1.825220 
# 
# From -- ./inp_files/16011.got.cif
#   From: 2010.05.17/outbox.cif.g08.bks.cpg/sg53_9_cif.got.tgz:16011.got - 2010.06.03 12:45:16.
