data_PCOD9414808
_publ_section_title
;
Structure prediction by ZEFSAII (Michael W. Deem and Ramdas Pophale) SiO2 
 PCOD9414808
Probable space group: P M N A
;
_chemical_formula_sum "Si O2"
_cell_formula_units_Z 64
_cell_length_a 9.169799
_cell_length_b 19.245254
_cell_length_c 22.117240
_cell_angle_alpha 90.000000
_cell_angle_beta 90.000000
_cell_angle_gamma 90.000000
_cell_volume 3903.142381
_symmetry_space_group_name_H-M "P M N A"
_symmetry_group_IT_number 53
_symmetry_cell_setting 'orthorhombic'
loop_
_space_group_symop_operation_xyz
x,y,z
1/2-x,-y,1/2+z
x,-y,-z
1/2-x,y,1/2-z
-x,-y,-z
1/2+x,y,1/2-z
-x,y,z
1/2+x,-y,1/2+z
loop_
_atom_site_type_symbol
_atom_site_label
_atom_site_fract_x
_atom_site_fract_y
_atom_site_fract_z
Si Si1 0.331812 0.291957 0.807849
Si Si2 0.831977 0.157596 0.614252
Si Si3 0.175684 0.950494 0.558358
Si Si4 0.673287 0.669233 0.988360
Si Si5 0.826222 0.180741 0.007278
Si Si6 0.168703 0.458716 0.064318
Si Si7 0.326190 0.414224 0.885480
Si Si8 0.173270 0.976840 0.313526
O O1 0.250000 0.265114 0.750000
O O2 0.500000 0.302144 0.792387
O O3 0.326181 0.235007 0.860170
O O4 0.272567 0.365081 0.831654
O O5 0.722103 0.153731 0.559023
O O6 0.799989 0.103338 0.667407
O O7 0.000000 0.143190 0.593459
O O8 0.256592 0.877225 0.550761
O O9 0.000000 0.941533 0.556761
O O10 0.211574 0.000000 0.500000
O O11 0.213735 0.983252 0.623948
O O12 0.500000 0.678098 0.979304
O O13 0.742511 0.612491 0.943157
O O14 0.753442 0.743247 0.985248
O O15 0.693649 0.632442 0.053901
O O16 0.000000 0.185048 0.012916
O O17 0.243242 0.513563 0.108945
O O18 0.000000 0.445283 0.078366
O O19 0.173683 0.500000 0.000000
O O20 0.500000 0.426072 0.880472
O O21 0.250000 0.994299 0.250000
O O22 0.000000 0.986120 0.305226
#
# Coordination Sequence:
#
# PCOD9414808 Si02
#       8
#     8   8   8   8   8   8   8   8
#     4  10  20  32  47  68  98 136 180 221 256 303
#     4  10  19  36  53  70 101 144 183 213 257 321
#     4  10  20  38  59  76 103 144 183 215 262 329
#     4  10  18  32  51  69  97 134 169 202 248 314
#     4  12  23  32  50  80 109 136 172 224 273 309
#     4   9  17  28  44  70  99 123 156 203 249 291
#     4   9  17  30  47  66  92 132 173 206 247 302
#     4  10  21  36  58  80 104 139 179 224 268 317
#
# _framework density 16.397044999999999
#
# number of rings (size 3 to 8) (size 9 to 14) (size 15 to 20)
#    0.000    2.000    2.500    2.250    0.000    4.250 
#    0.000    0.000    0.000    0.000    0.000    0.875 
#    0.000    0.000    0.000    0.000    0.000    0.000 
#
# Total GULP energy -356708.656977 kJ/mol
# GULP energy per Si atom -5573.572765 kJ/mol
# Density = 1.635972 g / cm^3
# Si number density = 16.397045 Si / 1000 Ang^3
#
#
#
# Elastic Constant Matrix: (Units=GPa)
#
#
# Indices 1 2 3 4 5 6 
#
# 1 72.5655 55.3009 33.7198 0.0000 0.0000 0.0000
# 2 55.3009 92.4475 36.1914 0.0000 0.0000 0.0000
# 3 33.7198 36.1914 68.3401 0.0000 0.0000 0.0000
# 4 0.0000 0.0000 0.0000 19.5915 0.0000 0.0000
# 5 0.0000 0.0000 0.0000 0.0000 21.9670 0.0000
# 6 0.0000 0.0000 0.0000 0.0000 0.0000 22.0890
#
#
#
# Elastic Compliance Matrix: (Units=1/GPa)
#
#
# Indices 1 2 3 4 5 6 
#
# 1 0.027177 -0.013886 -0.006056 0.000000 0.000000 0.000000
# 2 -0.013886 0.020741 -0.004132 0.000000 0.000000 0.000000
# 3 -0.006056 -0.004132 0.019809 0.000000 0.000000 0.000000
# 4 0.000000 0.000000 0.000000 0.051042 0.000000 0.000000
# 5 0.000000 0.000000 0.000000 0.000000 0.045523 0.000000
# 6 0.000000 0.000000 0.000000 0.000000 0.000000 0.045271
#
#
# Mechanical properties :
#
#
# Convention : Reuss Voigt Hill
#
# Bulk Modulus (GPa) = 51.07596 53.75305 52.41450
# Shear Modulus (GPa) = 18.92223 19.93890 19.43056
#
# Velocity S-wave (km/s) = 3.40075 3.49091 3.44612
# Velocity P-wave (km/s) = 6.82914 7.00728 6.91878
#
# Compressibility (1/GPa) = 0.01957868
#
# Stress axis : x y z
#
# Youngs Moduli (GPa) = 36.79559 48.21275 50.48186
#
# Poissons Ratio (x) = 0.66950 0.30570
# Poissons Ratio (y) = 0.51096 0.20862
# Poissons Ratio (z) = 0.22282 0.19924
#
# Static dielectric constant tensor:
#      x y z
#    x 1.546410 0.000000 0.000000 
#    y 0.000000 1.556180 0.000000 
#    z 0.000000 0.000000 1.557780 
# 
# From -- ./inp_files/34497.got.cif
#   From: 2010.05.17/outbox.cif.g08.bks.cpg/sg53_18_cif.got.tgz:34497.got - 2010.06.03 12:45:16.
