data_PCOD9414842
_publ_section_title
;
Structure prediction by ZEFSAII (Michael W. Deem and Ramdas Pophale) SiO2 
 PCOD9414842
Probable space group: P M N A
;
_chemical_formula_sum "Si O2"
_cell_formula_units_Z 64
_cell_length_a 7.931735
_cell_length_b 13.027437
_cell_length_c 30.112122
_cell_angle_alpha 90.000000
_cell_angle_beta 90.000000
_cell_angle_gamma 90.000000
_cell_volume 3111.490927
_symmetry_space_group_name_H-M "P M N A"
_symmetry_group_IT_number 53
_symmetry_cell_setting 'orthorhombic'
loop_
_space_group_symop_operation_xyz
x,y,z
1/2-x,-y,1/2+z
x,-y,-z
1/2-x,y,1/2-z
-x,-y,-z
1/2+x,y,1/2-z
-x,y,z
1/2+x,-y,1/2+z
loop_
_atom_site_type_symbol
_atom_site_label
_atom_site_fract_x
_atom_site_fract_y
_atom_site_fract_z
Si Si1 0.799840 0.761012 0.198137
Si Si2 0.705454 0.961707 0.354030
Si Si3 0.304121 0.974911 0.548040
Si Si4 0.203539 0.436150 0.639741
Si Si5 0.803814 0.186609 0.164099
Si Si6 0.200542 0.615413 0.703530
Si Si7 0.192839 0.754415 0.570568
Si Si8 0.793527 0.525704 0.549435
O O1 0.750000 0.752911 0.250000
O O2 0.755902 0.662063 0.168287
O O3 0.000000 0.770414 0.198308
O O4 0.731319 0.862651 0.172656
O O5 0.500000 0.955445 0.355836
O O6 0.764344 0.976868 0.405542
O O7 0.747131 0.068647 0.328921
O O8 0.500000 0.007117 0.546541
O O9 0.292228 0.852213 0.552735
O O10 0.225934 0.000000 0.500000
O O11 0.260035 0.539826 0.664766
O O12 0.260392 0.448300 0.588629
O O13 0.000000 0.436723 0.639766
O O14 0.782322 0.272306 0.201118
O O15 0.697221 0.230830 0.123365
O O16 0.000000 0.184025 0.150522
O O17 0.250000 0.565125 0.750000
O O18 0.000000 0.625899 0.700770
O O19 0.259687 0.641989 0.559938
O O20 0.000000 0.761387 0.554494
O O21 0.737557 0.500000 0.500000
O O22 0.000000 0.525254 0.549943
#
# Coordination Sequence:
#
# PCOD9414842 Si02
#       8
#     8   8   8   8   8   8   8   8
#     4  11  23  40  60  82 112 152 196 244 294 346
#     4   8  18  36  56  80 111 147 187 234 288 344
#     4   9  18  34  56  81 112 153 193 235 293 354
#     4  10  21  39  59  82 114 150 191 234 285 344
#     4  10  19  35  58  81 109 147 184 226 285 344
#     4  11  22  36  55  83 113 144 183 231 279 335
#     4  10  18  32  53  79 110 146 186 234 285 337
#     4   9  18  34  56  82 114 152 188 231 288 343
#
# _framework density 20.568918
#
# number of rings (size 3 to 8) (size 9 to 14) (size 15 to 20)
#    0.000    2.250    1.250    2.625    0.000    3.750 
#    0.000    7.500    0.000    2.625    0.000    0.000 
#    0.000    0.000    0.000    0.000    0.000    0.000 
#
# Total GULP energy -356795.153375 kJ/mol
# GULP energy per Si atom -5574.924271 kJ/mol
# Density = 2.052210 g / cm^3
# Si number density = 20.568918 Si / 1000 Ang^3
#
#
#
# Elastic Constant Matrix: (Units=GPa)
#
#
# Indices 1 2 3 4 5 6 
#
# 1 27.5632 8.2625 11.4007 0.0000 0.0000 0.0000
# 2 8.2625 145.9634 88.6974 0.0000 0.0000 0.0000
# 3 11.4007 88.6974 151.9896 0.0000 0.0000 0.0000
# 4 0.0000 0.0000 0.0000 25.5745 0.0000 0.0000
# 5 0.0000 0.0000 0.0000 0.0000 13.5353 0.0000
# 6 0.0000 0.0000 0.0000 0.0000 0.0000 20.0575
#
#
#
# Elastic Compliance Matrix: (Units=1/GPa)
#
#
# Indices 1 2 3 4 5 6 
#
# 1 0.037481 -0.000640 -0.002438 0.000000 0.000000 0.000000
# 2 -0.000640 0.010626 -0.006153 0.000000 0.000000 0.000000
# 3 -0.002438 -0.006153 0.010353 0.000000 0.000000 0.000000
# 4 0.000000 0.000000 0.000000 0.039101 0.000000 0.000000
# 5 0.000000 0.000000 0.000000 0.000000 0.073881 0.000000
# 6 0.000000 0.000000 0.000000 0.000000 0.000000 0.049857
#
#
# Mechanical properties :
#
#
# Convention : Reuss Voigt Hill
#
# Bulk Modulus (GPa) = 25.00161 60.24861 42.62511
# Shear Modulus (GPa) = 19.75548 26.31049 23.03299
#
# Velocity S-wave (km/s) = 3.10248 3.58038 3.34997
# Velocity P-wave (km/s) = 5.00153 6.81520 5.97755
#
# Compressibility (1/GPa) = 0.03999742
#
# Stress axis : x y z
#
# Youngs Moduli (GPa) = 26.68053 94.10475 96.58873
#
# Poissons Ratio (x) = 0.06026 0.23546
# Poissons Ratio (y) = 0.01708 0.59434
# Poissons Ratio (z) = 0.06504 0.57906
#
# Static dielectric constant tensor:
#      x y z
#    x 1.773830 0.000000 0.000000 
#    y 0.000000 1.732850 0.000000 
#    z 0.000000 0.000000 1.798470 
# 
# From -- ./inp_files/38175.got.cif
#   From: 2010.05.17/outbox.cif.g08.bks.cpg/sg53_20_cif.got.tgz:38175.got - 2010.06.03 12:45:16.
