data_PCOD9414597
_publ_section_title
;
Structure prediction by ZEFSAII (Michael W. Deem and Ramdas Pophale) SiO2 
 PCOD9414597
Probable space group: P M N A
;
_chemical_formula_sum "Si O2"
_cell_formula_units_Z 48
_cell_length_a 8.035755
_cell_length_b 12.223524
_cell_length_c 26.241706
_cell_angle_alpha 90.000000
_cell_angle_beta 90.000000
_cell_angle_gamma 90.000000
_cell_volume 2577.597977
_symmetry_space_group_name_H-M "P M N A"
_symmetry_group_IT_number 53
_symmetry_cell_setting 'orthorhombic'
loop_
_space_group_symop_operation_xyz
x,y,z
1/2-x,-y,1/2+z
x,-y,-z
1/2-x,y,1/2-z
-x,-y,-z
1/2+x,y,1/2-z
-x,y,z
1/2+x,-y,1/2+z
loop_
_atom_site_type_symbol
_atom_site_label
_atom_site_fract_x
_atom_site_fract_y
_atom_site_fract_z
Si Si1 0.199866 0.221589 0.592906
Si Si2 0.198369 0.871931 0.192058
Si Si3 0.798885 0.876372 0.807962
Si Si4 0.199040 0.623333 0.498069
Si Si5 0.189640 0.760638 0.905215
Si Si6 0.308912 0.987301 0.939978
O O1 0.238189 0.220507 0.652894
O O2 0.262823 0.308784 0.551340
O O3 0.264562 0.101353 0.578521
O O4 0.000000 0.218486 0.586887
O O5 0.250000 0.849149 0.250000
O O6 0.000000 0.874807 0.188791
O O7 0.259654 0.997894 0.180938
O O8 0.750000 0.852164 0.750000
O O9 0.738082 0.785715 0.848710
O O10 0.000000 0.877752 0.811808
O O11 0.266368 0.500000 0.500000
O O12 0.228423 0.685284 0.551633
O O13 0.000000 0.616566 0.491469
O O14 0.000000 0.722946 0.900011
O O15 0.199630 0.883388 0.927193
O O16 0.500000 0.970224 0.921048
O O17 0.321756 0.000000 0.000000
#
# Coordination Sequence:
#
# PCOD9414597 Si02
#       6
#     8   8   8   8   8   8
#     4  10  19  32  52  77 105 138 175 217 260 309
#     4  10  19  32  49  75 110 144 175 208 255 311
#     4   9  19  32  47  73 107 141 172 205 249 307
#     4  10  22  40  58  76 101 138 183 223 263 315
#     4  11  21  33  51  78 111 138 171 217 265 316
#     4  10  18  30  48  74 106 139 174 208 255 317
#
# _framework density 18.621988000000002
#
# number of rings (size 3 to 8) (size 9 to 14) (size 15 to 20)
#    0.000    2.000    3.333    1.000    0.000    3.333 
#    0.000    0.000    0.000    1.000    0.000    2.333 
#    0.000    0.000    0.000    0.000    0.000    0.000 
#
# Total GULP energy -267323.692848 kJ/mol
# GULP energy per Si atom -5569.243601 kJ/mol
# Density = 1.857960 g / cm^3
# Si number density = 18.621988 Si / 1000 Ang^3
#
#
#
# Elastic Constant Matrix: (Units=GPa)
#
#
# Indices 1 2 3 4 5 6 
#
# 1 10.6023 4.8256 -2.2096 0.0000 0.0000 0.0000
# 2 4.8256 100.7774 64.5264 0.0000 0.0000 0.0000
# 3 -2.2096 64.5264 143.8492 0.0000 0.0000 0.0000
# 4 0.0000 0.0000 0.0000 9.8725 0.0000 0.0000
# 5 0.0000 0.0000 0.0000 0.0000 23.4315 0.0000
# 6 0.0000 0.0000 0.0000 0.0000 0.0000 101.3500
#
#
#
# Elastic Compliance Matrix: (Units=1/GPa)
#
#
# Indices 1 2 3 4 5 6 
#
# 1 0.099035 -0.008020 0.005119 0.000000 0.000000 0.000000
# 2 -0.008020 0.014571 -0.006659 0.000000 0.000000 0.000000
# 3 0.005119 -0.006659 0.010017 0.000000 0.000000 0.000000
# 4 0.000000 0.000000 0.000000 0.101291 0.000000 0.000000
# 5 0.000000 0.000000 0.000000 0.000000 0.042678 0.000000
# 6 0.000000 0.000000 0.000000 0.000000 0.000000 0.009867
#
#
# Mechanical properties :
#
#
# Convention : Reuss Voigt Hill
#
# Bulk Modulus (GPa) = 9.56907 43.27931 26.42419
# Shear Modulus (GPa) = 15.08689 39.46991 27.27840
#
# Velocity S-wave (km/s) = 2.84943 4.60883 3.83149
# Velocity P-wave (km/s) = 3.99692 7.18423 5.81329
#
# Compressibility (1/GPa) = 0.10450332
#
# Stress axis : x y z
#
# Youngs Moduli (GPa) = 10.09739 68.63132 99.82600
#
# Poissons Ratio (x) = 0.55039 -0.51096
# Poissons Ratio (y) = 0.08098 0.66475
# Poissons Ratio (z) = -0.05168 0.45702
#
# Static dielectric constant tensor:
#      x y z
#    x 1.685680 0.000000 0.000000 
#    y 0.000000 1.637700 0.000000 
#    z 0.000000 0.000000 1.767330 
# 
# From -- ./inp_files/33848.got.cif
#   From: 2010.05.17/outbox.cif.g08.bks.cpg/sg53_17_cif.got.tgz:33848.got - 2010.06.03 12:45:16.
