data_PCOD9414511
_publ_section_title
;
Structure prediction by ZEFSAII (Michael W. Deem and Ramdas Pophale) SiO2 
 PCOD9414511
Probable space group: P M N A
;
_chemical_formula_sum "Si O2"
_cell_formula_units_Z 48
_cell_length_a 14.686698
_cell_length_b 12.429182
_cell_length_c 12.986993
_cell_angle_alpha 90.000000
_cell_angle_beta 90.000000
_cell_angle_gamma 90.000000
_cell_volume 2370.693006
_symmetry_space_group_name_H-M "P M N A"
_symmetry_group_IT_number 53
_symmetry_cell_setting 'orthorhombic'
loop_
_space_group_symop_operation_xyz
x,y,z
1/2-x,-y,1/2+z
x,-y,-z
1/2-x,y,1/2-z
-x,-y,-z
1/2+x,y,1/2-z
-x,y,z
1/2+x,-y,1/2+z
loop_
_atom_site_type_symbol
_atom_site_label
_atom_site_fract_x
_atom_site_fract_y
_atom_site_fract_z
Si Si1 0.893243 0.201370 0.781402
Si Si2 0.355445 0.527172 0.720945
Si Si3 0.395219 0.741462 0.632518
Si Si4 0.401240 0.639359 0.105540
Si Si5 0.889799 0.980492 0.881060
Si Si6 0.697150 0.637688 0.436524
O O1 0.892741 0.246321 0.665432
O O2 0.826052 0.276806 0.846417
O O3 0.000000 0.215593 0.816080
O O4 0.865623 0.079460 0.806719
O O5 0.250000 0.530077 0.750000
O O6 0.390377 0.648487 0.717820
O O7 0.402040 0.450048 0.803725
O O8 0.354125 0.467224 0.609782
O O9 0.500000 0.751561 0.599683
O O10 0.361476 0.861655 0.655876
O O11 0.340639 0.691451 0.538192
O O12 0.500000 0.634953 0.051529
O O13 0.305332 0.620467 0.049759
O O14 0.000000 0.981097 0.883105
O O15 0.859825 0.000000 0.000000
#
# Coordination Sequence:
#
# PCOD9414511 Si02
#       6
#     8   8   8   8   8   8
#     4   9  15  27  46  68  97 129 157 192 244 292
#     4   9  19  33  47  68 101 131 160 198 241 292
#     4  11  20  30  51  78 102 129 158 196 250 297
#     4   9  18  32  50  69  95 131 167 203 239 284
#     4   9  16  27  43  68 102 129 151 190 241 290
#     4  10  18  29  47  73 100 124 160 208 247 282
#
# _framework density 20.247243999999998
#
# number of rings (size 3 to 8) (size 9 to 14) (size 15 to 20)
#    0.000    2.500    1.667    3.000    0.000    2.667 
#    0.000    1.667    0.000    9.000    0.000    2.333 
#    0.000    0.000    0.000    0.000    0.000    0.000 
#
# Total GULP energy -267473.879402 kJ/mol
# GULP energy per Si atom -5572.372488 kJ/mol
# Density = 2.020116 g / cm^3
# Si number density = 20.247244 Si / 1000 Ang^3
#
#
#
# Elastic Constant Matrix: (Units=GPa)
#
#
# Indices 1 2 3 4 5 6 
#
# 1 93.2905 -0.5615 -7.4114 0.0000 0.0000 0.0000
# 2 -0.5615 162.6268 8.5334 0.0000 0.0000 0.0000
# 3 -7.4114 8.5334 10.2490 0.0000 0.0000 0.0000
# 4 0.0000 0.0000 0.0000 12.1363 0.0000 0.0000
# 5 0.0000 0.0000 0.0000 0.0000 -12.5459 0.0000
# 6 0.0000 0.0000 0.0000 0.0000 0.0000 -4.5418
#
#
#
# Elastic Compliance Matrix: (Units=1/GPa)
#
#
# Indices 1 2 3 4 5 6 
#
# 1 0.011399 -0.000411 0.008585 0.000000 0.000000 0.000000
# 2 -0.000411 0.006445 -0.005663 0.000000 0.000000 0.000000
# 3 0.008585 -0.005663 0.108494 0.000000 0.000000 0.000000
# 4 0.000000 0.000000 0.000000 0.082397 0.000000 0.000000
# 5 0.000000 0.000000 0.000000 0.000000 -0.079707 0.000000
# 6 0.000000 0.000000 0.000000 0.000000 0.000000 -0.220177
#
#
# Mechanical properties :
#
#
# Convention : Reuss Voigt Hill
#
# Bulk Modulus (GPa) = 7.61273 29.69859 18.65566
# Shear Modulus (GPa) = -95.44807 16.71677 -39.36565
#
# Velocity S-wave (km/s) = -6.87340 2.87650 -4.41415
# Velocity P-wave (km/s) = 7.69568 5.07268 4.09214
#
# Compressibility (1/GPa) = 0.13135900
#
# Stress axis : x y z
#
# Youngs Moduli (GPa) = 87.72866 155.16398 9.21711
#
# Poissons Ratio (x) = 0.06379 -0.07913
# Poissons Ratio (y) = 0.03607 0.05220
# Poissons Ratio (z) = -0.75317 0.87874
#
# Static dielectric constant tensor:
#      x y z
#    x 1.743790 0.000000 0.000000 
#    y 0.000000 1.782320 0.000000 
#    z 0.000000 0.000000 1.756060 
# 
# From -- ./inp_files/22654.got.cif
#   From: 2010.05.17/outbox.cif.g08.bks.cpg/sg53_12_cif.got.tgz:22654.got - 2010.06.03 12:45:16.
