data_PCOD9414364
_publ_section_title
;
Structure prediction by ZEFSAII (Michael W. Deem and Ramdas Pophale) SiO2 
 PCOD9414364
Probable space group: P M N A
;
_chemical_formula_sum "Si O2"
_cell_formula_units_Z 64
_cell_length_a 8.722454
_cell_length_b 17.134023
_cell_length_c 24.026797
_cell_angle_alpha 90.000000
_cell_angle_beta 90.000000
_cell_angle_gamma 90.000000
_cell_volume 3590.822290
_symmetry_space_group_name_H-M "P M N A"
_symmetry_group_IT_number 53
_symmetry_cell_setting 'orthorhombic'
loop_
_space_group_symop_operation_xyz
x,y,z
1/2-x,-y,1/2+z
x,-y,-z
1/2-x,y,1/2-z
-x,-y,-z
1/2+x,y,1/2-z
-x,y,z
1/2+x,-y,1/2+z
loop_
_atom_site_type_symbol
_atom_site_label
_atom_site_fract_x
_atom_site_fract_y
_atom_site_fract_z
Si Si1 0.680578 0.712164 0.089668
Si Si2 0.183789 0.277703 0.074353
Si Si3 0.180589 0.937026 0.690831
Si Si4 0.818867 0.157288 0.987906
Si Si5 0.816012 0.055202 0.890978
Si Si6 0.181134 0.188487 0.689179
Si Si7 0.183328 0.588280 0.495429
Si Si8 0.319277 0.750597 0.808361
O O1 0.500000 0.730970 0.077510
O O2 0.704056 0.731867 0.154013
O O3 0.786182 0.771725 0.055067
O O4 0.708946 0.626678 0.065395
O O5 0.241121 0.196291 0.044990
O O6 0.244067 0.350681 0.038569
O O7 0.240832 0.283322 0.137036
O O8 0.000000 0.276544 0.072330
O O9 0.250000 0.965949 0.750000
O O10 0.205414 0.844260 0.689207
O O11 0.000000 0.953358 0.691312
O O12 0.254331 0.976624 0.636723
O O13 0.000000 0.144295 0.995689
O O14 0.760673 0.082382 0.952719
O O15 0.759416 0.121132 0.847612
O O16 0.000000 0.052997 0.892238
O O17 0.250000 0.191841 0.750000
O O18 0.000000 0.172354 0.692044
O O19 0.240740 0.500000 0.500000
O O20 0.000000 0.587443 0.505284
O O21 0.250000 0.722739 0.750000
O O22 0.500000 0.736052 0.809626
#
# Coordination Sequence:
#
# PCOD9414364 Si02
#       8
#     8   8   8   8   8   8   8   8
#     4   8  15  27  43  64  90 120 154 192 231 273
#     4  10  19  33  54  78 104 131 162 201 244 294
#     4  10  20  33  48  67  92 124 164 210 257 299
#     4   8  16  29  45  67  94 126 160 195 238 286
#     4  10  18  29  45  65  92 125 163 205 247 289
#     4  10  18  27  40  60  88 122 160 197 233 276
#     4   9  17  31  53  79 103 127 156 192 237 287
#     4  10  21  37  56  76  98 127 165 207 250 296
#
# _framework density 17.823215999999999
#
# number of rings (size 3 to 8) (size 9 to 14) (size 15 to 20)
#    0.000    2.625    0.000    2.250    0.000    3.250 
#    0.000    0.625    0.000    4.500    0.000    1.750 
#    0.000    0.000    0.000    0.000    0.000    0.000 
#
# Total GULP energy -356500.892321 kJ/mol
# GULP energy per Si atom -5570.326443 kJ/mol
# Density = 1.778265 g / cm^3
# Si number density = 17.823216 Si / 1000 Ang^3
#
#
#
# Elastic Constant Matrix: (Units=GPa)
#
#
# Indices 1 2 3 4 5 6 
#
# 1 -2.8769 55.7218 21.9114 0.0000 0.0000 0.0000
# 2 55.7218 3.5186 15.7338 0.0000 0.0000 0.0000
# 3 21.9114 15.7338 91.5318 0.0000 0.0000 0.0000
# 4 0.0000 0.0000 0.0000 9.0054 0.0000 0.0000
# 5 0.0000 0.0000 0.0000 0.0000 16.5383 0.0000
# 6 0.0000 0.0000 0.0000 0.0000 0.0000 14.2893
#
#
#
# Elastic Compliance Matrix: (Units=1/GPa)
#
#
# Indices 1 2 3 4 5 6 
#
# 1 -0.000301 0.019200 -0.003228 0.000000 0.000000 0.000000
# 2 0.019200 0.003002 -0.005112 0.000000 0.000000 0.000000
# 3 -0.003228 -0.005112 0.012577 0.000000 0.000000 0.000000
# 4 0.000000 0.000000 0.000000 0.111044 0.000000 0.000000
# 5 0.000000 0.000000 0.000000 0.000000 0.060466 0.000000
# 6 0.000000 0.000000 0.000000 0.000000 0.000000 0.069982
#
#
# Mechanical properties :
#
#
# Convention : Reuss Voigt Hill
#
# Bulk Modulus (GPa) = 27.02938 30.98972 29.00955
# Shear Modulus (GPa) = 20.21163 7.88706 14.04934
#
# Velocity S-wave (km/s) = 3.37115 2.10589 2.81064
# Velocity P-wave (km/s) = 5.50918 4.83095 5.18117
#
# Compressibility (1/GPa) = 0.03699678
#
# Stress axis : x y z
#
# Youngs Moduli (GPa) = -3323.91396 333.16052 79.51178
#
# Poissons Ratio (x) = -6.39677 0.25670
# Poissons Ratio (y) = 63.82007 0.40648
# Poissons Ratio (z) = -10.73093 1.70319
#
# Static dielectric constant tensor:
#      x y z
#    x 1.607100 0.000000 0.000000 
#    y 0.000000 1.623150 0.000000 
#    z 0.000000 0.000000 1.629520 
# 
# From -- ./inp_files/31133.got.cif
#   From: 2010.05.17/outbox.cif.g08.bks.cpg/sg53_16_cif.got.tgz:31133.got - 2010.06.03 12:45:16.
