data_PCOD9414609
_publ_section_title
;
Structure prediction by ZEFSAII (Michael W. Deem and Ramdas Pophale) SiO2 
 PCOD9414609
Probable space group: P M N A
;
_chemical_formula_sum "Si O2"
_cell_formula_units_Z 64
_cell_length_a 8.905748
_cell_length_b 19.941475
_cell_length_c 15.995112
_cell_angle_alpha 90.000000
_cell_angle_beta 90.000000
_cell_angle_gamma 90.000000
_cell_volume 2840.631939
_symmetry_space_group_name_H-M "P M N A"
_symmetry_group_IT_number 53
_symmetry_cell_setting 'orthorhombic'
loop_
_space_group_symop_operation_xyz
x,y,z
1/2-x,-y,1/2+z
x,-y,-z
1/2-x,y,1/2-z
-x,-y,-z
1/2+x,y,1/2-z
-x,y,z
1/2+x,-y,1/2+z
loop_
_atom_site_type_symbol
_atom_site_label
_atom_site_fract_x
_atom_site_fract_y
_atom_site_fract_z
Si Si1 0.819580 0.882821 0.836679
Si Si2 0.682172 0.977643 0.407236
Si Si3 0.182581 0.170178 0.841742
Si Si4 0.329516 0.688420 0.667469
Si Si5 0.833334 0.419754 0.997932
Si Si6 0.818307 0.221503 0.019098
Si Si7 0.839537 0.564077 0.647392
Si Si8 0.673723 0.596468 0.165072
O O1 0.750000 0.858753 0.750000
O O2 0.776710 0.840956 0.920008
O O3 0.000000 0.878897 0.831526
O O4 0.774823 0.960018 0.849542
O O5 0.500000 0.974588 0.411735
O O6 0.727610 0.905655 0.370803
O O7 0.733408 0.000000 0.500000
O O8 0.250000 0.185459 0.750000
O O9 0.000000 0.173166 0.835703
O O10 0.232426 0.214455 0.923002
O O11 0.250000 0.714735 0.750000
O O12 0.500000 0.708285 0.673253
O O13 0.271996 0.715993 0.578229
O O14 0.303553 0.608338 0.672317
O O15 0.787263 0.388777 0.910003
O O16 0.000000 0.392046 0.022394
O O17 0.857599 0.500000 0.000000
O O18 0.677822 0.421188 0.049508
O O19 0.000000 0.221286 0.013613
O O20 0.829174 0.485906 0.666552
O O21 0.000000 0.590497 0.676532
O O22 0.750000 0.620462 0.250000
O O23 0.500000 0.617575 0.156072
#
# Coordination Sequence:
#
# PCOD9414609 Si02
#       8
#     8   8   8   8   8   8   8   8
#     4  10  18  30  49  73 100 134 170 205 251 308
#     4   9  15  27  50  74  99 135 173 204 244 310
#     4  10  19  34  55  78 102 132 173 216 259 310
#     4  11  22  36  54  77 103 135 175 219 268 321
#     4   9  17  30  49  73 102 136 172 210 255 308
#     4   9  19  35  54  73  99 136 175 212 257 319
#     4  10  20  34  52  75 104 138 175 216 260 310
#     4  10  19  30  47  73 106 141 176 213 255 305
#
# _framework density 22.530197999999999
#
# number of rings (size 3 to 8) (size 9 to 14) (size 15 to 20)
#    0.000    2.250    1.250    2.625    0.000    4.000 
#    0.000    2.500    0.000    1.500    0.000    3.500 
#    0.000    0.000    0.000    0.000    0.000    0.000 
#
# Total GULP energy -356379.707523 kJ/mol
# GULP energy per Si atom -5568.432930 kJ/mol
# Density = 2.247892 g / cm^3
# Si number density = 22.530198 Si / 1000 Ang^3
#
#
#
# Elastic Constant Matrix: (Units=GPa)
#
#
# Indices 1 2 3 4 5 6 
#
# 1 81.0871 3.7917 39.6228 0.0000 0.0000 0.0000
# 2 3.7917 48.7862 -9.0057 0.0000 0.0000 0.0000
# 3 39.6228 -9.0057 154.9757 0.0000 0.0000 0.0000
# 4 0.0000 0.0000 0.0000 10.0026 0.0000 0.0000
# 5 0.0000 0.0000 0.0000 0.0000 62.8021 0.0000
# 6 0.0000 0.0000 0.0000 0.0000 0.0000 4.9428
#
#
#
# Elastic Compliance Matrix: (Units=1/GPa)
#
#
# Indices 1 2 3 4 5 6 
#
# 1 0.014248 -0.001799 -0.003747 0.000000 0.000000 0.000000
# 2 -0.001799 0.020947 0.001677 0.000000 0.000000 0.000000
# 3 -0.003747 0.001677 0.007508 0.000000 0.000000 0.000000
# 4 0.000000 0.000000 0.000000 0.099974 0.000000 0.000000
# 5 0.000000 0.000000 0.000000 0.000000 0.015923 0.000000
# 6 0.000000 0.000000 0.000000 0.000000 0.000000 0.202313
#
#
# Mechanical properties :
#
#
# Convention : Reuss Voigt Hill
#
# Bulk Modulus (GPa) = 28.60038 39.29630 33.94834
# Shear Modulus (GPa) = 13.14734 32.24553 22.69643
#
# Velocity S-wave (km/s) = 2.41828 3.78724 3.17737
# Velocity P-wave (km/s) = 4.52982 6.05010 5.34430
#
# Compressibility (1/GPa) = 0.03496458
#
# Stress axis : x y z
#
# Youngs Moduli (GPa) = 70.18721 47.73949 133.18860
#
# Poissons Ratio (x) = 0.08589 0.49909
# Poissons Ratio (y) = 0.12627 -0.22339
# Poissons Ratio (z) = 0.26301 -0.08007
#
# Static dielectric constant tensor:
#      x y z
#    x 1.868000 0.000000 0.000000 
#    y 0.000000 1.916690 0.000000 
#    z 0.000000 0.000000 2.237900 
# 
# From -- ./inp_files/20977.got.cif
#   From: 2010.05.17/outbox.cif.g08.bks.cpg/sg53_11_cif.got.tgz:20977.got - 2010.06.03 12:45:16.
