data_PCOD9414944
_publ_section_title
;
Structure prediction by ZEFSAII (Michael W. Deem and Ramdas Pophale) SiO2 
 PCOD9414944
Probable space group: P M N A
;
_chemical_formula_sum "Si O2"
_cell_formula_units_Z 56
_cell_length_a 15.434872
_cell_length_b 18.736949
_cell_length_c 8.670925
_cell_angle_alpha 90.000000
_cell_angle_beta 90.000000
_cell_angle_gamma 90.000000
_cell_volume 2507.652402
_symmetry_space_group_name_H-M "P M N A"
_symmetry_group_IT_number 53
_symmetry_cell_setting 'orthorhombic'
loop_
_space_group_symop_operation_xyz
x,y,z
1/2-x,-y,1/2+z
x,-y,-z
1/2-x,y,1/2-z
-x,-y,-z
1/2+x,y,1/2-z
-x,y,z
1/2+x,-y,1/2+z
loop_
_atom_site_type_symbol
_atom_site_label
_atom_site_fract_x
_atom_site_fract_y
_atom_site_fract_z
Si Si1 0.406525 0.641830 0.086728
Si Si2 0.148695 0.776835 0.229691
Si Si3 0.604977 0.917468 0.661798
Si Si4 0.094903 0.428986 0.895859
Si Si5 0.602663 0.237622 0.369116
Si Si6 0.734773 0.361399 0.399374
Si Si7 0.395442 0.930556 0.298595
O O1 0.500000 0.633830 0.009883
O O2 0.402995 0.716169 0.180530
O O3 0.396922 0.577144 0.211026
O O4 0.327759 0.648579 0.972325
O O5 0.250000 0.758903 0.250000
O O6 0.137805 0.859103 0.282930
O O7 0.115191 0.774072 0.053523
O O8 0.500000 0.918680 0.665040
O O9 0.628311 0.837527 0.711710
O O10 0.628269 0.924630 0.480487
O O11 0.633978 0.989569 0.748574
O O12 0.000000 0.394710 0.926420
O O13 0.093619 0.500000 0.000000
O O14 0.175961 0.388473 0.962832
O O15 0.500000 0.252400 0.338778
O O16 0.673458 0.297843 0.333952
O O17 0.750000 0.411135 0.250000
O O18 0.500000 0.928015 0.288643
#
# Coordination Sequence:
#
# PCOD9414944 Si02
#       7
#     8   8   8   8   8   8   8
#     4  11  22  40  64  92 127 166 207 257 309 362
#     4  11  17  28  52  84 117 149 200 259 314 366
#     4   7  12  23  42  68 103 142 188 243 303 364
#     4  10  22  43  71  98 124 157 199 247 302 361
#     4  10  18  33  56  80 112 158 206 257 310 366
#     4  12  25  39  59  92 130 168 207 251 299 371
#     4   8  13  22  39  71 106 141 185 242 309 368
#
# _framework density 22.331644000000001
#
# number of rings (size 3 to 8) (size 9 to 14) (size 15 to 20)
#    0.000    2.143    2.857    3.857    0.000    2.286 
#    0.000    0.714    0.000    3.000    0.000    0.000 
#    0.000    5.714    0.000    0.000    0.000    0.000 
#
# Total GULP energy -311810.278597 kJ/mol
# GULP energy per Si atom -5568.040689 kJ/mol
# Density = 2.228082 g / cm^3
# Si number density = 22.331644 Si / 1000 Ang^3
#
#
#
# Elastic Constant Matrix: (Units=GPa)
#
#
# Indices 1 2 3 4 5 6 
#
# 1 147.6955 33.0829 33.7696 0.0000 0.0000 0.0000
# 2 33.0829 67.0475 11.5944 0.0000 0.0000 0.0000
# 3 33.7696 11.5944 52.3876 0.0000 0.0000 0.0000
# 4 0.0000 0.0000 0.0000 -1.5169 0.0000 0.0000
# 5 0.0000 0.0000 0.0000 0.0000 6.0865 0.0000
# 6 0.0000 0.0000 0.0000 0.0000 0.0000 -10.4831
#
#
#
# Elastic Compliance Matrix: (Units=1/GPa)
#
#
# Indices 1 2 3 4 5 6 
#
# 1 0.008639 -0.003431 -0.004809 0.000000 0.000000 0.000000
# 2 -0.003431 0.016871 -0.001522 0.000000 0.000000 0.000000
# 3 -0.004809 -0.001522 0.022526 0.000000 0.000000 0.000000
# 4 0.000000 0.000000 0.000000 -0.659254 0.000000 0.000000
# 5 0.000000 0.000000 0.000000 0.000000 0.164299 0.000000
# 6 0.000000 0.000000 0.000000 0.000000 0.000000 -0.095391
#
#
# Mechanical properties :
#
#
# Convention : Reuss Voigt Hill
#
# Bulk Modulus (GPa) = 35.07513 47.11383 41.09448
# Shear Modulus (GPa) = -9.74121 11.39621 0.82750
#
# Velocity S-wave (km/s) = -2.09082 2.26147 0.60939
# Velocity P-wave (km/s) = 3.14831 5.28792 4.35167
#
# Compressibility (1/GPa) = 0.02851023
#
# Stress axis : x y z
#
# Youngs Moduli (GPa) = 115.75659 59.27351 44.39407
#
# Poissons Ratio (x) = 0.20336 0.21351
# Poissons Ratio (y) = 0.39715 0.06758
# Poissons Ratio (z) = 0.55671 0.09023
#
# Static dielectric constant tensor:
#      x y z
#    x 1.800480 0.000000 0.000000 
#    y 0.000000 1.952830 0.000000 
#    z 0.000000 0.000000 1.828950 
# 
# From -- ./inp_files/8852.got.cif
#   From: 2010.05.17/outbox.cif.g08.bks.cpg/sg53_5_cif.got.tgz:8852.got - 2010.06.03 12:45:16.
