data_PCOD9414847
_publ_section_title
;
Structure prediction by ZEFSAII (Michael W. Deem and Ramdas Pophale) SiO2 
 PCOD9414847
Probable space group: P M N A
;
_chemical_formula_sum "Si O2"
_cell_formula_units_Z 48
_cell_length_a 8.795101
_cell_length_b 12.324795
_cell_length_c 26.575235
_cell_angle_alpha 90.000000
_cell_angle_beta 90.000000
_cell_angle_gamma 90.000000
_cell_volume 2880.697456
_symmetry_space_group_name_H-M "P M N A"
_symmetry_group_IT_number 53
_symmetry_cell_setting 'orthorhombic'
loop_
_space_group_symop_operation_xyz
x,y,z
1/2-x,-y,1/2+z
x,-y,-z
1/2-x,y,1/2-z
-x,-y,-z
1/2+x,y,1/2-z
-x,y,z
1/2+x,-y,1/2+z
loop_
_atom_site_type_symbol
_atom_site_label
_atom_site_fract_x
_atom_site_fract_y
_atom_site_fract_z
Si Si1 0.317820 0.974580 0.885570
Si Si2 0.321668 0.228474 0.430049
Si Si3 0.815176 0.843170 0.305628
Si Si4 0.315629 0.464408 0.056682
Si Si5 0.823752 0.149487 0.530764
Si Si6 0.821931 0.332428 0.616827
O O1 0.500000 0.962041 0.883730
O O2 0.240852 0.858181 0.889851
O O3 0.272101 0.051702 0.839120
O O4 0.284714 0.044421 0.936153
O O5 0.500000 0.242711 0.424355
O O6 0.240950 0.345006 0.430018
O O7 0.281360 0.175937 0.484123
O O8 0.750000 0.847698 0.250000
O O9 0.760044 0.735954 0.336077
O O10 0.000000 0.840595 0.304773
O O11 0.500000 0.465082 0.056832
O O12 0.258259 0.554251 0.096614
O O13 0.269166 0.500000 0.000000
O O14 0.817408 0.249582 0.569759
O O15 0.000000 0.140041 0.513454
O O16 0.000000 0.351798 0.628080
#
# Coordination Sequence:
#
# PCOD9414847 Si02
#       6
#     8   8   8   8   8   8
#     4   9  19  34  52  71  95 131 174 209 239 295
#     4  12  23  30  42  70 109 139 164 204 254 300
#     4   9  18  34  57  81 101 122 157 208 261 306
#     4  10  18  32  54  71  93 136 183 211 234 288
#     4   9  16  31  51  69  93 131 176 209 235 284
#     4   8  15  30  52  76  97 125 169 211 242 286
#
# _framework density 16.662631999999999
#
# number of rings (size 3 to 8) (size 9 to 14) (size 15 to 20)
#    0.000    2.500    1.667    4.000    0.000    3.667 
#    0.000    3.333    0.000    1.000    0.000    2.333 
#    0.000    0.000    0.000    0.000    0.000    0.000 
#
# Total GULP energy -267565.087240 kJ/mol
# GULP energy per Si atom -5574.272651 kJ/mol
# Density = 1.662471 g / cm^3
# Si number density = 16.662632 Si / 1000 Ang^3
#
#
#
# Elastic Constant Matrix: (Units=GPa)
#
#
# Indices 1 2 3 4 5 6 
#
# 1 14.2419 31.2264 19.4253 0.0000 0.0000 0.0000
# 2 31.2264 147.1970 57.8647 0.0000 0.0000 0.0000
# 3 19.4253 57.8647 92.4383 0.0000 0.0000 0.0000
# 4 0.0000 0.0000 0.0000 9.0516 0.0000 0.0000
# 5 0.0000 0.0000 0.0000 0.0000 23.2311 0.0000
# 6 0.0000 0.0000 0.0000 0.0000 0.0000 7.8682
#
#
#
# Elastic Compliance Matrix: (Units=1/GPa)
#
#
# Indices 1 2 3 4 5 6 
#
# 1 0.145265 -0.024958 -0.014903 0.000000 0.000000 0.000000
# 2 -0.024958 0.013299 -0.003080 0.000000 0.000000 0.000000
# 3 -0.014903 -0.003080 0.015878 0.000000 0.000000 0.000000
# 4 0.000000 0.000000 0.000000 0.110478 0.000000 0.000000
# 5 0.000000 0.000000 0.000000 0.000000 0.043046 0.000000
# 6 0.000000 0.000000 0.000000 0.000000 0.000000 0.127093
#
#
# Mechanical properties :
#
#
# Convention : Reuss Voigt Hill
#
# Bulk Modulus (GPa) = 11.29188 52.32334 31.80761
# Shear Modulus (GPa) = 8.76483 17.72089 13.24286
#
# Velocity S-wave (km/s) = 2.29599 3.26469 2.82221
# Velocity P-wave (km/s) = 3.71756 6.75875 5.45440
#
# Compressibility (1/GPa) = 0.08855924
#
# Stress axis : x y z
#
# Youngs Moduli (GPa) = 6.88397 75.19317 62.98017
#
# Poissons Ratio (x) = 1.87667 0.93861
# Poissons Ratio (y) = 0.17181 0.19399
# Poissons Ratio (z) = 0.10259 0.23161
#
# Static dielectric constant tensor:
#      x y z
#    x 1.556130 0.000000 0.000000 
#    y 0.000000 1.586880 0.000000 
#    z 0.000000 0.000000 1.551930 
# 
# From -- ./inp_files/36139.got.cif
#   From: 2010.05.17/outbox.cif.g08.bks.cpg/sg53_19_cif.got.tgz:36139.got - 2010.06.03 12:45:16.
