data_PCOD9414210
_publ_section_title
;
Structure prediction by ZEFSAII (Michael W. Deem and Ramdas Pophale) SiO2 
 PCOD9414210
Probable space group: P M N A
;
_chemical_formula_sum "Si O2"
_cell_formula_units_Z 64
_cell_length_a 8.620455
_cell_length_b 18.725226
_cell_length_c 24.027336
_cell_angle_alpha 90.000000
_cell_angle_beta 90.000000
_cell_angle_gamma 90.000000
_cell_volume 3878.491811
_symmetry_space_group_name_H-M "P M N A"
_symmetry_group_IT_number 53
_symmetry_cell_setting 'orthorhombic'
loop_
_space_group_symop_operation_xyz
x,y,z
1/2-x,-y,1/2+z
x,-y,-z
1/2-x,y,1/2-z
-x,-y,-z
1/2+x,y,1/2-z
-x,y,z
1/2+x,-y,1/2+z
loop_
_atom_site_type_symbol
_atom_site_label
_atom_site_fract_x
_atom_site_fract_y
_atom_site_fract_z
Si Si1 0.811917 0.359910 0.623554
Si Si2 0.315093 0.926061 0.186728
Si Si3 0.189079 0.416891 0.503168
Si Si4 0.315058 0.776446 0.312987
Si Si5 0.813276 0.502785 0.688341
Si Si6 0.814397 0.230929 0.187025
Si Si7 0.812362 0.360788 0.384514
Si Si8 0.814326 0.928031 0.813021
O O1 0.764554 0.379281 0.560569
O O2 0.739403 0.288890 0.649014
O O3 0.765964 0.427788 0.661239
O O4 0.000000 0.353856 0.625043
O O5 0.250000 0.926710 0.250000
O O6 0.500000 0.924710 0.188129
O O7 0.250017 0.851666 0.163745
O O8 0.257016 0.000503 0.160410
O O9 0.239322 0.500000 0.500000
O O10 0.237477 0.374132 0.448094
O O11 0.000000 0.418952 0.503195
O O12 0.250000 0.766578 0.250000
O O13 0.500000 0.780012 0.309547
O O14 0.750000 0.510524 0.750000
O O15 0.764162 0.569108 0.650235
O O16 0.000000 0.503370 0.689750
O O17 0.750000 0.240076 0.250000
O O18 0.751902 0.291468 0.146233
O O19 0.773850 0.150998 0.165332
O O20 0.000000 0.235134 0.190604
O O21 0.000000 0.357384 0.383689
O O22 0.750000 0.926144 0.750000
O O23 0.000000 0.935421 0.811776
#
# Coordination Sequence:
#
# PCOD9414210 Si02
#       8
#     8   8   8   8   8   8   8   8
#     4  10  19  33  52  72  95 125 164 207 248 292
#     4  10  17  27  45  69  97 129 163 196 236 285
#     4   9  16  32  56  75  92 121 165 211 252 294
#     4  11  21  33  48  70 102 134 165 200 243 293
#     4  10  20  31  46  68  95 126 159 196 240 291
#     4  10  20  32  47  70 102 136 166 202 244 292
#     4  10  19  32  51  73  95 126 165 205 248 293
#     4   9  16  27  43  65  95 130 164 195 235 284
#
# _framework density 16.501259999999998
#
# number of rings (size 3 to 8) (size 9 to 14) (size 15 to 20)
#    0.000    2.125    1.250    5.250    0.000    4.500 
#    0.000    0.625    0.000    0.750    0.000    0.875 
#    0.000    7.000    0.000    0.000    0.000    0.000 
#
# Total GULP energy -356853.884675 kJ/mol
# GULP energy per Si atom -5575.841948 kJ/mol
# Density = 1.646370 g / cm^3
# Si number density = 16.501260 Si / 1000 Ang^3
#
#
#
# Elastic Constant Matrix: (Units=GPa)
#
#
# Indices 1 2 3 4 5 6 
#
# 1 57.9035 38.0893 13.6447 0.0000 0.0000 0.0000
# 2 38.0893 133.8742 22.9199 0.0000 0.0000 0.0000
# 3 13.6447 22.9199 58.7440 0.0000 0.0000 0.0000
# 4 0.0000 0.0000 0.0000 1.0438 0.0000 0.0000
# 5 0.0000 0.0000 0.0000 0.0000 15.6018 0.0000
# 6 0.0000 0.0000 0.0000 0.0000 0.0000 26.5674
#
#
#
# Elastic Compliance Matrix: (Units=1/GPa)
#
#
# Indices 1 2 3 4 5 6 
#
# 1 0.021673 -0.005684 -0.002816 0.000000 0.000000 0.000000
# 2 -0.005684 0.009495 -0.002384 0.000000 0.000000 0.000000
# 3 -0.002816 -0.002384 0.018607 0.000000 0.000000 0.000000
# 4 0.000000 0.000000 0.000000 0.958001 0.000000 0.000000
# 5 0.000000 0.000000 0.000000 0.000000 0.064095 0.000000
# 6 0.000000 0.000000 0.000000 0.000000 0.000000 0.037640
#
#
# Mechanical properties :
#
#
# Convention : Reuss Voigt Hill
#
# Bulk Modulus (GPa) = 35.70684 44.42549 40.06617
# Shear Modulus (GPa) = 4.38360 20.36712 12.37536
#
# Velocity S-wave (km/s) = 1.63165 3.51704 2.74152
# Velocity P-wave (km/s) = 5.02350 6.59346 5.86128
#
# Compressibility (1/GPa) = 0.02800584
#
# Stress axis : x y z
#
# Youngs Moduli (GPa) = 46.14084 105.31708 53.74186
#
# Poissons Ratio (x) = 0.59863 0.15135
# Poissons Ratio (y) = 0.26227 0.12814
# Poissons Ratio (z) = 0.12995 0.25112
#
# Static dielectric constant tensor:
#      x y z
#    x 1.483640 0.000000 0.000000 
#    y 0.000000 1.591370 0.000000 
#    z 0.000000 0.000000 1.527020 
# 
# From -- ./inp_files/34524.got.cif
#   From: 2010.05.17/outbox.cif.g08.bks.cpg/sg53_18_cif.got.tgz:34524.got - 2010.06.03 12:45:16.
