data_PCOD9414275
_publ_section_title
;
Structure prediction by ZEFSAII (Michael W. Deem and Ramdas Pophale) SiO2 
 PCOD9414275
Probable space group: P M N A
;
_chemical_formula_sum "Si O2"
_cell_formula_units_Z 64
_cell_length_a 8.461031
_cell_length_b 15.341036
_cell_length_c 30.815775
_cell_angle_alpha 90.000000
_cell_angle_beta 90.000000
_cell_angle_gamma 90.000000
_cell_volume 3999.917830
_symmetry_space_group_name_H-M "P M N A"
_symmetry_group_IT_number 53
_symmetry_cell_setting 'orthorhombic'
loop_
_space_group_symop_operation_xyz
x,y,z
1/2-x,-y,1/2+z
x,-y,-z
1/2-x,y,1/2-z
-x,-y,-z
1/2+x,y,1/2-z
-x,y,z
1/2+x,-y,1/2+z
loop_
_atom_site_type_symbol
_atom_site_label
_atom_site_fract_x
_atom_site_fract_y
_atom_site_fract_z
Si Si1 0.688936 0.538699 0.892145
Si Si2 0.308366 0.209830 0.884516
Si Si3 0.811419 0.325907 0.039524
Si Si4 0.691644 0.049785 0.936821
Si Si5 0.310431 0.368265 0.557368
Si Si6 0.690420 0.497432 0.796678
Si Si7 0.308909 0.131225 0.030596
Si Si8 0.190233 0.294656 0.703961
O O1 0.500000 0.531448 0.891405
O O2 0.738626 0.620973 0.920746
O O3 0.753292 0.452588 0.916320
O O4 0.743056 0.541569 0.841766
O O5 0.500000 0.210482 0.884808
O O6 0.254038 0.114071 0.899020
O O7 0.253052 0.282024 0.918911
O O8 0.253697 0.240223 0.837266
O O9 0.765051 0.224447 0.039980
O O10 0.000000 0.334694 0.041519
O O11 0.758081 0.365803 0.992996
O O12 0.500000 0.046438 0.935727
O O13 0.743587 0.949451 0.938923
O O14 0.731589 0.097882 0.982103
O O15 0.500000 0.366921 0.557811
O O16 0.750000 0.530816 0.750000
O O17 0.500000 0.499508 0.795366
O O18 0.741200 0.395747 0.800328
O O19 0.500000 0.139326 0.032652
O O20 0.250000 0.261279 0.750000
O O21 0.000000 0.294533 0.703878
#
# Coordination Sequence:
#
# PCOD9414275 Si02
#       8
#     8   8   8   8   8   8   8   8
#     4  11  22  36  52  70  92 127 170 202 233 282
#     4  10  17  30  50  70  95 127 163 197 231 279
#     4  11  23  35  46  68 100 132 164 201 245 285
#     4   8  15  27  49  74  93 117 158 201 235 275
#     4  11  22  33  45  67 100 132 163 198 235 282
#     4   9  18  32  49  71  94 119 155 195 238 285
#     4   9  16  30  50  71  92 122 160 199 238 278
#     4   9  17  29  45  67  94 123 155 193 234 282
#
# _framework density 16.000329000000001
#
# number of rings (size 3 to 8) (size 9 to 14) (size 15 to 20)
#    0.000    2.250    2.500    2.250    0.000    4.500 
#    0.000    1.875    0.000    0.000    0.000    0.875 
#    0.000    2.000    0.000    0.000    0.000    0.000 
#
# Total GULP energy -356811.645968 kJ/mol
# GULP energy per Si atom -5575.181968 kJ/mol
# Density = 1.596391 g / cm^3
# Si number density = 16.000329 Si / 1000 Ang^3
#
#
#
# Elastic Constant Matrix: (Units=GPa)
#
#
# Indices 1 2 3 4 5 6 
#
# 1 11.3700 6.1675 19.9798 0.0000 0.0000 0.0000
# 2 6.1675 67.1375 50.9868 0.0000 0.0000 0.0000
# 3 19.9798 50.9868 143.8436 0.0000 0.0000 0.0000
# 4 0.0000 0.0000 0.0000 21.3315 0.0000 0.0000
# 5 0.0000 0.0000 0.0000 0.0000 18.6205 0.0000
# 6 0.0000 0.0000 0.0000 0.0000 0.0000 -3.2669
#
#
#
# Elastic Compliance Matrix: (Units=1/GPa)
#
#
# Indices 1 2 3 4 5 6 
#
# 1 0.116580 0.002173 -0.016963 0.000000 0.000000 0.000000
# 2 0.002173 0.020422 -0.007541 0.000000 0.000000 0.000000
# 3 -0.016963 -0.007541 0.011981 0.000000 0.000000 0.000000
# 4 0.000000 0.000000 0.000000 0.046879 0.000000 0.000000
# 5 0.000000 0.000000 0.000000 0.000000 0.053704 0.000000
# 6 0.000000 0.000000 0.000000 0.000000 0.000000 -0.306104
#
#
# Mechanical properties :
#
#
# Convention : Reuss Voigt Hill
#
# Bulk Modulus (GPa) = 9.58575 41.84659 25.71617
# Shear Modulus (GPa) = 218.37111 17.01818 117.69465
#
# Velocity S-wave (km/s) = 11.69510 3.26485 8.58588
# Velocity P-wave (km/s) = 13.72484 6.35788 10.69565
#
# Compressibility (1/GPa) = 0.10432155
#
# Stress axis : x y z
#
# Youngs Moduli (GPa) = 8.57780 48.96736 83.46563
#
# Poissons Ratio (x) = -0.10641 1.41584
# Poissons Ratio (y) = -0.01864 0.62938
# Poissons Ratio (z) = 0.14551 0.36924
#
# Static dielectric constant tensor:
#      x y z
#    x 1.547850 0.000000 0.000000 
#    y 0.000000 1.523250 0.000000 
#    z 0.000000 0.000000 1.548030 
# 
# From -- ./inp_files/38462.got.cif
#   From: 2010.05.17/outbox.cif.g08.bks.cpg/sg53_20_cif.got.tgz:38462.got - 2010.06.03 12:45:16.
