data_PCOD9414921
_publ_section_title
;
Structure prediction by ZEFSAII (Michael W. Deem and Ramdas Pophale) SiO2 
 PCOD9414921
Probable space group: P M N A
;
_chemical_formula_sum "Si O2"
_cell_formula_units_Z 44
_cell_length_a 30.508018
_cell_length_b 5.130277
_cell_length_c 13.625537
_cell_angle_alpha 90.000000
_cell_angle_beta 90.000000
_cell_angle_gamma 90.000000
_cell_volume 2132.595243
_symmetry_space_group_name_H-M "P M N A"
_symmetry_group_IT_number 53
_symmetry_cell_setting 'orthorhombic'
loop_
_space_group_symop_operation_xyz
x,y,z
1/2-x,-y,1/2+z
x,-y,-z
1/2-x,y,1/2-z
-x,-y,-z
1/2+x,y,1/2-z
-x,y,z
1/2+x,-y,1/2+z
loop_
_atom_site_type_symbol
_atom_site_label
_atom_site_fract_x
_atom_site_fract_y
_atom_site_fract_z
Si Si1 0.948721 0.883405 0.849672
Si Si2 0.363059 0.753570 0.068541
Si Si3 0.264859 0.247793 0.930739
Si Si4 0.386091 0.000000 0.500000
Si Si5 0.092483 0.592686 0.236944
Si Si6 0.327592 0.360504 0.607724
O O1 0.936126 0.668331 0.768902
O O2 0.000000 0.881952 0.869921
O O3 0.919868 0.807686 0.945661
O O4 0.932800 0.173349 0.819373
O O5 0.313472 0.796210 0.110940
O O6 0.396063 0.701950 0.156526
O O7 0.362637 0.500000 0.000000
O O8 0.373063 0.000000 0.000000
O O9 0.222524 0.306444 0.864130
O O10 0.268615 0.500000 0.000000
O O11 0.254292 0.000000 0.000000
O O12 0.353037 0.095312 0.583095
O O13 0.139654 0.519015 0.186978
O O14 0.327665 0.500000 0.500000
#
# Coordination Sequence:
#
# PCOD9414921 Si02
#       6
#     8   8   8   4   8   8
#     4  11  23  39  59  87 120 152 195 242 295 358
#     4  10  21  40  60  84 113 153 202 247 298 341
#     4   9  18  31  54  80 116 156 188 235 277 331
#     4  10  19  34  56  86 122 168 186 220 283 360
#     4  11  23  37  62  86 114 157 195 244 298 352
#     4  10  18  33  53  85 126 154 192 221 282 348
#
# _framework density 20.63214
#
# number of rings (size 3 to 8) (size 9 to 14) (size 15 to 20)
#    0.000    1.818    2.727    1.909    0.000    0.727 
#    0.000    2.727    0.000   19.636    0.000    0.000 
#    0.000    0.000    0.000    0.000    0.000    0.000 
#
# Total GULP energy -245161.503675 kJ/mol
# GULP energy per Si atom -5571.852356 kJ/mol
# Density = 2.058518 g / cm^3
# Si number density = 20.632140 Si / 1000 Ang^3
#
#
#
# Elastic Constant Matrix: (Units=GPa)
#
#
# Indices 1 2 3 4 5 6 
#
# 1 75.8968 10.0485 21.6961 0.0000 0.0000 0.0000
# 2 10.0485 96.0483 9.9794 0.0000 0.0000 0.0000
# 3 21.6961 9.9794 52.7845 0.0000 0.0000 0.0000
# 4 0.0000 0.0000 0.0000 25.6782 0.0000 0.0000
# 5 0.0000 0.0000 0.0000 0.0000 17.5933 0.0000
# 6 0.0000 0.0000 0.0000 0.0000 0.0000 28.1613
#
#
#
# Elastic Compliance Matrix: (Units=1/GPa)
#
#
# Indices 1 2 3 4 5 6 
#
# 1 0.015014 -0.000948 -0.005992 0.000000 0.000000 0.000000
# 2 -0.000948 0.010680 -0.001629 0.000000 0.000000 0.000000
# 3 -0.005992 -0.001629 0.021716 0.000000 0.000000 0.000000
# 4 0.000000 0.000000 0.000000 0.038944 0.000000 0.000000
# 5 0.000000 0.000000 0.000000 0.000000 0.056840 0.000000
# 6 0.000000 0.000000 0.000000 0.000000 0.000000 0.035510
#
#
# Mechanical properties :
#
#
# Convention : Reuss Voigt Hill
#
# Bulk Modulus (GPa) = 33.03518 34.24197 33.63857
# Shear Modulus (GPa) = 24.27977 26.48693 25.38335
#
# Velocity S-wave (km/s) = 3.43416 3.58686 3.51134
# Velocity P-wave (km/s) = 5.63657 5.81262 5.72527
#
# Compressibility (1/GPa) = 0.03027076
#
# Stress axis : x y z
#
# Youngs Moduli (GPa) = 66.60341 93.63364 46.04908
#
# Poissons Ratio (x) = 0.08878 0.27593
# Poissons Ratio (y) = 0.06315 0.07503
# Poissons Ratio (z) = 0.39909 0.15257
#
# Static dielectric constant tensor:
#      x y z
#    x 1.749510 0.000000 0.000000 
#    y 0.000000 1.772780 0.000000 
#    z 0.000000 0.000000 1.754140 
# 
# From -- ./inp_files/24855.got.cif
#   From: 2010.05.17/outbox.cif.g08.bks.cpg/sg53_13_cif.got.tgz:24855.got - 2010.06.03 12:45:16.
