data_PCOD9414126
_publ_section_title
;
Structure prediction by ZEFSAII (Michael W. Deem and Ramdas Pophale) SiO2 
 PCOD9414126
Probable space group: P M N A
;
_chemical_formula_sum "Si O2"
_cell_formula_units_Z 40
_cell_length_a 24.397332
_cell_length_b 10.163164
_cell_length_c 9.211314
_cell_angle_alpha 90.000000
_cell_angle_beta 90.000000
_cell_angle_gamma 90.000000
_cell_volume 2283.982946
_symmetry_space_group_name_H-M "P M N A"
_symmetry_group_IT_number 53
_symmetry_cell_setting 'orthorhombic'
loop_
_space_group_symop_operation_xyz
x,y,z
1/2-x,-y,1/2+z
x,-y,-z
1/2-x,y,1/2-z
-x,-y,-z
1/2+x,y,1/2-z
-x,y,z
1/2+x,-y,1/2+z
loop_
_atom_site_type_symbol
_atom_site_label
_atom_site_fract_x
_atom_site_fract_y
_atom_site_fract_z
Si Si1 0.276231 0.372146 0.910045
Si Si2 0.621513 0.699241 0.566312
Si Si3 0.774350 0.133730 0.090123
Si Si4 0.000000 0.471953 0.668370
Si Si5 0.879508 0.430164 0.759947
Si Si6 0.000000 0.351941 0.078955
O O1 0.250000 0.369046 0.750000
O O2 0.340347 0.391321 0.871949
O O3 0.257461 0.500000 0.000000
O O4 0.259687 0.245612 0.003086
O O5 0.663237 0.814000 0.603157
O O6 0.636695 0.647935 0.405507
O O7 0.626919 0.581682 0.685335
O O8 0.556379 0.722104 0.550533
O O9 0.750000 0.116887 0.250000
O O10 0.772438 0.000000 0.000000
O O11 0.000000 0.500000 0.500000
O O12 0.942971 0.406240 0.718297
O O13 0.000000 0.610052 0.752837
O O14 0.000000 0.500000 0.000000
#
# Coordination Sequence:
#
# PCOD9414126 Si02
#       6
#     8   8   8   4   8   4
#     4  12  22  35  58  88 118 155 197 246 296 354
#     4  10  18  36  60  88 118 154 196 242 292 360
#     4  12  27  44  60  84 118 161 206 253 306 361
#     4  10  18  28  48  90 131 150 185 240 301 346
#     4  10  18  32  57  88 122 153 191 239 295 345
#     4  10  16  34  59  86 120 154 187 236 296 355
#
# _framework density 17.513266000000002
#
# number of rings (size 3 to 8) (size 9 to 14) (size 15 to 20)
#    0.000    1.200    6.000    4.200    0.000    1.600 
#    0.000    0.500    0.000    0.000    0.000    1.400 
#    0.000    0.000    0.000    0.000    0.000    0.000 
#
# Total GULP energy -223052.585009 kJ/mol
# GULP energy per Si atom -5576.314625 kJ/mol
# Density = 1.747341 g / cm^3
# Si number density = 17.513266 Si / 1000 Ang^3
#
#
#
# Elastic Constant Matrix: (Units=GPa)
#
#
# Indices 1 2 3 4 5 6 
#
# 1 147.8959 56.5310 50.7988 0.0000 0.0000 0.0000
# 2 56.5310 101.9136 51.9910 0.0000 0.0000 0.0000
# 3 50.7988 51.9910 122.9104 0.0000 0.0000 0.0000
# 4 0.0000 0.0000 0.0000 25.0486 0.0000 0.0000
# 5 0.0000 0.0000 0.0000 0.0000 24.7621 0.0000
# 6 0.0000 0.0000 0.0000 0.0000 0.0000 5.0685
#
#
#
# Elastic Compliance Matrix: (Units=1/GPa)
#
#
# Indices 1 2 3 4 5 6 
#
# 1 0.008966 -0.003931 -0.002043 0.000000 0.000000 0.000000
# 2 -0.003931 0.014236 -0.004397 0.000000 0.000000 0.000000
# 3 -0.002043 -0.004397 0.010840 0.000000 0.000000 0.000000
# 4 0.000000 0.000000 0.000000 0.039922 0.000000 0.000000
# 5 0.000000 0.000000 0.000000 0.000000 0.040384 0.000000
# 6 0.000000 0.000000 0.000000 0.000000 0.000000 0.197296
#
#
# Mechanical properties :
#
#
# Convention : Reuss Voigt Hill
#
# Bulk Modulus (GPa) = 75.18725 76.81795 76.00260
# Shear Modulus (GPa) = 14.84473 25.20245 20.02359
#
# Velocity S-wave (km/s) = 2.91456 3.79760 3.38500
# Velocity P-wave (km/s) = 7.37232 7.94902 7.66609
#
# Compressibility (1/GPa) = 0.01330013
#
# Stress axis : x y z
#
# Youngs Moduli (GPa) = 111.53547 70.24445 92.24944
#
# Poissons Ratio (x) = 0.27615 0.18843
# Poissons Ratio (y) = 0.43847 0.40563
# Poissons Ratio (z) = 0.22783 0.30887
#
# Static dielectric constant tensor:
#      x y z
#    x 1.688310 0.000000 0.000000 
#    y 0.000000 1.564730 0.000000 
#    z 0.000000 0.000000 1.603520 
# 
# From -- ./inp_files/12347.got.cif
#   From: 2010.05.17/outbox.cif.g08.bks.cpg/sg53_7_cif.got.tgz:12347.got - 2010.06.03 12:45:16.
