data_PCOD9414475
_publ_section_title
;
Structure prediction by ZEFSAII (Michael W. Deem and Ramdas Pophale) SiO2 
 PCOD9414475
Probable space group: P M N A
;
_chemical_formula_sum "Si O2"
_cell_formula_units_Z 64
_cell_length_a 27.829870
_cell_length_b 9.255342
_cell_length_c 14.706081
_cell_angle_alpha 90.000000
_cell_angle_beta 90.000000
_cell_angle_gamma 90.000000
_cell_volume 3787.918294
_symmetry_space_group_name_H-M "P M N A"
_symmetry_group_IT_number 53
_symmetry_cell_setting 'orthorhombic'
loop_
_space_group_symop_operation_xyz
x,y,z
1/2-x,-y,1/2+z
x,-y,-z
1/2-x,y,1/2-z
-x,-y,-z
1/2+x,y,1/2-z
-x,y,z
1/2+x,-y,1/2+z
loop_
_atom_site_type_symbol
_atom_site_label
_atom_site_fract_x
_atom_site_fract_y
_atom_site_fract_z
Si Si1 0.056610 0.579870 0.407430
Si Si2 0.862519 0.928599 0.264702
Si Si3 0.056263 0.075599 0.595199
Si Si4 0.632139 0.403498 0.758211
Si Si5 0.185712 0.556510 0.897703
Si Si6 0.285130 0.587291 0.089743
Si Si7 0.717128 0.914298 0.081279
Si Si8 0.709760 0.872037 0.668937
O O1 0.072864 0.500000 0.500000
O O2 0.063134 0.752423 0.418399
O O3 0.086139 0.545434 0.316328
O O4 0.000000 0.549145 0.396421
O O5 0.909084 0.972064 0.323170
O O6 0.871962 0.765644 0.228309
O O7 0.818773 0.908882 0.335075
O O8 0.839620 0.051556 0.201655
O O9 0.000000 0.049449 0.615496
O O10 0.067824 0.000000 0.500000
O O11 0.646072 0.500888 0.672945
O O12 0.674792 0.412995 0.832967
O O13 0.236281 0.480614 0.872983
O O14 0.196041 0.725928 0.883224
O O15 0.175472 0.500000 0.000000
O O16 0.272977 0.749460 0.058174
O O17 0.300431 0.500000 0.000000
O O18 0.763122 0.008440 0.108196
O O19 0.692392 0.000000 0.000000
O O20 0.750000 0.842005 0.750000
#
# Coordination Sequence:
#
# PCOD9414475 Si02
#       8
#     8   8   8   8   8   8   8   8
#     4   9  18  32  51  77 104 130 160 192 236 293
#     4   9  19  31  46  69  94 126 161 193 238 288
#     4   9  17  30  48  71 101 130 155 189 231 281
#     4  10  19  33  50  69  99 132 162 201 244 286
#     4  11  22  34  48  68  94 125 167 209 246 288
#     4  10  19  30  47  72  99 131 164 195 239 290
#     4  10  18  29  45  66  97 128 157 193 232 283
#     4  10  20  33  48  67  92 125 163 204 248 290
#
# _framework density 16.895824000000001
#
# number of rings (size 3 to 8) (size 9 to 14) (size 15 to 20)
#    0.000    2.250    0.000    4.125    0.000    4.000 
#    0.000    0.000    0.000    0.375    0.000    0.000 
#    0.000    4.500    0.000    0.000    0.000    0.000 
#
# Total GULP energy -356659.046431 kJ/mol
# GULP energy per Si atom -5572.797600 kJ/mol
# Density = 1.685737 g / cm^3
# Si number density = 16.895824 Si / 1000 Ang^3
#
#
#
# Elastic Constant Matrix: (Units=GPa)
#
#
# Indices 1 2 3 4 5 6 
#
# 1 69.9027 31.7318 32.0772 0.0000 0.0000 0.0000
# 2 31.7318 105.4800 47.9498 0.0000 0.0000 0.0000
# 3 32.0772 47.9498 75.5082 0.0000 0.0000 0.0000
# 4 0.0000 0.0000 0.0000 26.4528 0.0000 0.0000
# 5 0.0000 0.0000 0.0000 0.0000 36.7834 0.0000
# 6 0.0000 0.0000 0.0000 0.0000 0.0000 17.8842
#
#
#
# Elastic Compliance Matrix: (Units=1/GPa)
#
#
# Indices 1 2 3 4 5 6 
#
# 1 0.018330 -0.002776 -0.006024 0.000000 0.000000 0.000000
# 2 -0.002776 0.013748 -0.007551 0.000000 0.000000 0.000000
# 3 -0.006024 -0.007551 0.020598 0.000000 0.000000 0.000000
# 4 0.000000 0.000000 0.000000 0.037803 0.000000 0.000000
# 5 0.000000 0.000000 0.000000 0.000000 0.027186 0.000000
# 6 0.000000 0.000000 0.000000 0.000000 0.000000 0.055915
#
#
# Mechanical properties :
#
#
# Convention : Reuss Voigt Hill
#
# Bulk Modulus (GPa) = 50.06567 52.71204 51.38886
# Shear Modulus (GPa) = 23.48062 25.49956 24.49009
#
# Velocity S-wave (km/s) = 3.73195 3.88909 3.81133
# Velocity P-wave (km/s) = 6.94739 7.17166 7.06041
#
# Compressibility (1/GPa) = 0.01997376
#
# Stress axis : x y z
#
# Youngs Moduli (GPa) = 54.55521 72.73663 48.54818
#
# Poissons Ratio (x) = 0.20190 0.29247
# Poissons Ratio (y) = 0.15143 0.36660
# Poissons Ratio (z) = 0.32865 0.54926
#
# Static dielectric constant tensor:
#      x y z
#    x 1.573780 0.000000 0.000000 
#    y 0.000000 1.600960 0.000000 
#    z 0.000000 0.000000 1.589400 
# 
# From -- ./inp_files/25229.got.cif
#   From: 2010.05.17/outbox.cif.g08.bks.cpg/sg53_13_cif.got.tgz:25229.got - 2010.06.03 12:45:16.
