data_PCOD9414180
_publ_section_title
;
Structure prediction by ZEFSAII (Michael W. Deem and Ramdas Pophale) SiO2 
 PCOD9414180
Probable space group: P M N A
;
_chemical_formula_sum "Si O2"
_cell_formula_units_Z 64
_cell_length_a 14.409637
_cell_length_b 5.316415
_cell_length_c 38.104577
_cell_angle_alpha 90.000000
_cell_angle_beta 90.000000
_cell_angle_gamma 90.000000
_cell_volume 2919.100585
_symmetry_space_group_name_H-M "P M N A"
_symmetry_group_IT_number 53
_symmetry_cell_setting 'orthorhombic'
loop_
_space_group_symop_operation_xyz
x,y,z
1/2-x,-y,1/2+z
x,-y,-z
1/2-x,y,1/2-z
-x,-y,-z
1/2+x,y,1/2-z
-x,y,z
1/2+x,-y,1/2+z
loop_
_atom_site_type_symbol
_atom_site_label
_atom_site_fract_x
_atom_site_fract_y
_atom_site_fract_z
Si Si1 0.691842 0.470130 0.541269
Si Si2 0.886214 0.430548 0.189594
Si Si3 0.140097 0.022798 0.388355
Si Si4 0.098977 0.476313 0.570569
Si Si5 0.346299 0.970187 0.581424
Si Si6 0.612288 0.914123 0.806291
Si Si7 0.395954 0.072961 0.657191
Si Si8 0.613308 0.586497 0.231759
O O1 0.678350 0.500000 0.500000
O O2 0.803703 0.472442 0.549283
O O3 0.650021 0.209283 0.555737
O O4 0.646057 0.706431 0.561425
O O5 0.853900 0.651922 0.163388
O O6 0.860954 0.515981 0.228583
O O7 0.000000 0.408690 0.187778
O O8 0.849975 0.158650 0.177662
O O9 0.100319 0.766525 0.404323
O O10 0.244980 0.024693 0.401299
O O11 0.099316 0.272797 0.405985
O O12 0.132913 0.033231 0.346759
O O13 0.000000 0.470867 0.550454
O O14 0.404616 0.005055 0.616530
O O15 0.500000 0.910543 0.803067
O O16 0.644249 0.641168 0.793284
O O17 0.646203 0.143376 0.781933
O O18 0.500000 0.096528 0.672324
O O19 0.500000 0.593857 0.231172
#
# Coordination Sequence:
#
# PCOD9414180 Si02
#       8
#     8   8   8   8   8   8   8   8
#     4  10  21  37  57  79 106 140 166 193 243 300
#     4   9  17  30  49  75 101 125 161 211 264 304
#     4  10  20  32  48  71 103 140 174 212 257 294
#     4  10  19  32  51  76 104 134 175 218 245 276
#     4  10  21  37  56  78 103 132 167 205 248 307
#     4  10  17  26  43  65  93 132 173 209 245 289
#     4  10  19  33  57  80  98 125 164 214 259 299
#     4   9  17  27  42  67  97 129 167 210 252 296
#
# _framework density 21.92456
#
# number of rings (size 3 to 8) (size 9 to 14) (size 15 to 20)
#    0.000    2.250    0.000    3.750    0.000    4.250 
#    0.000    0.000    0.000   11.250    0.000    0.000 
#    0.000    0.000    0.000    0.000    0.000    0.000 
#
# Total GULP energy -357462.703928 kJ/mol
# GULP energy per Si atom -5585.354749 kJ/mol
# Density = 2.187466 g / cm^3
# Si number density = 21.924560 Si / 1000 Ang^3
#
#
#
# Elastic Constant Matrix: (Units=GPa)
#
#
# Indices 1 2 3 4 5 6 
#
# 1 19.5796 6.1253 -15.4121 0.0000 0.0000 0.0000
# 2 6.1253 116.4934 -4.3172 0.0000 0.0000 0.0000
# 3 -15.4121 -4.3172 54.5178 0.0000 0.0000 0.0000
# 4 0.0000 0.0000 0.0000 26.6274 0.0000 0.0000
# 5 0.0000 0.0000 0.0000 0.0000 -9.7376 0.0000
# 6 0.0000 0.0000 0.0000 0.0000 0.0000 5.8883
#
#
#
# Elastic Compliance Matrix: (Units=1/GPa)
#
#
# Indices 1 2 3 4 5 6 
#
# 1 0.066598 -0.002812 0.018604 0.000000 0.000000 0.000000
# 2 -0.002812 0.008728 -0.000104 0.000000 0.000000 0.000000
# 3 0.018604 -0.000104 0.023594 0.000000 0.000000 0.000000
# 4 0.000000 0.000000 0.000000 0.037555 0.000000 0.000000
# 5 0.000000 0.000000 0.000000 0.000000 -0.102695 0.000000
# 6 0.000000 0.000000 0.000000 0.000000 0.000000 0.169829
#
#
# Mechanical properties :
#
#
# Convention : Reuss Voigt Hill
#
# Bulk Modulus (GPa) = 7.67483 18.15366 12.91424
# Shear Modulus (GPa) = 23.18413 18.16861 20.67637
#
# Velocity S-wave (km/s) = 3.25537 2.88182 3.07427
# Velocity P-wave (km/s) = 4.19977 4.40127 4.30170
#
# Compressibility (1/GPa) = 0.13029608
#
# Stress axis : x y z
#
# Youngs Moduli (GPa) = 15.01553 114.57117 42.38398
#
# Poissons Ratio (x) = 0.32221 -0.78853
# Poissons Ratio (y) = 0.04223 0.00440
# Poissons Ratio (z) = -0.27935 0.01190
#
# Static dielectric constant tensor:
#      x y z
#    x 1.674570 0.000000 0.000000 
#    y 0.000000 1.789310 0.000000 
#    z 0.000000 0.000000 1.730810 
# 
# From -- ./inp_files/39035.got.cif
#   From: 2010.05.17/outbox.cif.g08.bks.cpg/sg53_20_cif.got.tgz:39035.got - 2010.06.03 12:45:16.
