data_PCOD9414734
_publ_section_title
;
Structure prediction by ZEFSAII (Michael W. Deem and Ramdas Pophale) SiO2 
 PCOD9414734
Probable space group: P M N A
;
_chemical_formula_sum "Si O2"
_cell_formula_units_Z 64
_cell_length_a 21.260396
_cell_length_b 9.145950
_cell_length_c 18.116400
_cell_angle_alpha 90.000000
_cell_angle_beta 90.000000
_cell_angle_gamma 90.000000
_cell_volume 3522.670913
_symmetry_space_group_name_H-M "P M N A"
_symmetry_group_IT_number 53
_symmetry_cell_setting 'orthorhombic'
loop_
_space_group_symop_operation_xyz
x,y,z
1/2-x,-y,1/2+z
x,-y,-z
1/2-x,y,1/2-z
-x,-y,-z
1/2+x,y,1/2-z
-x,y,z
1/2+x,-y,1/2+z
loop_
_atom_site_type_symbol
_atom_site_label
_atom_site_fract_x
_atom_site_fract_y
_atom_site_fract_z
Si Si1 0.573194 0.416903 0.335288
Si Si2 0.714564 0.881140 0.139951
Si Si3 0.349022 0.331398 0.471057
Si Si4 0.788437 0.673306 0.491263
Si Si5 0.925761 0.256016 0.888772
Si Si6 0.881077 0.103075 0.438149
Si Si7 0.654993 0.944492 0.289186
Si Si8 0.071851 0.810219 0.719006
O O1 0.500000 0.396071 0.356661
O O2 0.616406 0.329995 0.393022
O O3 0.586711 0.587411 0.349010
O O4 0.580286 0.352140 0.253124
O O5 0.721184 0.734249 0.091873
O O6 0.676959 0.856877 0.216008
O O7 0.782078 0.948761 0.161472
O O8 0.674036 0.997238 0.093381
O O9 0.348358 0.500000 0.500000
O O10 0.276760 0.283841 0.468177
O O11 0.388647 0.250043 0.533981
O O12 0.796427 0.500000 0.500000
O O13 0.847281 0.759588 0.524107
O O14 0.898653 0.134841 0.835044
O O15 0.000000 0.244139 0.901391
O O16 0.919483 0.161648 0.367992
O O17 0.913887 0.000000 0.500000
O O18 0.624981 0.093066 0.258901
O O19 0.000000 0.854472 0.738380
#
# Coordination Sequence:
#
# PCOD9414734 Si02
#       8
#     8   8   8   8   8   8   8   8
#     4   9  19  33  49  72 105 139 172 215 261 304
#     4   9  19  35  50  73 105 138 168 211 268 307
#     4   9  17  30  48  71 102 138 174 208 250 305
#     4  10  19  33  55  79 103 133 174 217 258 309
#     4  10  18  31  52  75 102 140 177 211 255 307
#     4   9  20  37  57  78 103 137 170 214 271 319
#     4  10  19  33  52  73 103 136 175 215 255 311
#     4  10  21  37  55  77 105 136 175 220 263 315
#
# _framework density 18.168033000000001
#
# number of rings (size 3 to 8) (size 9 to 14) (size 15 to 20)
#    0.000    2.500    1.250    0.750    1.750    2.750 
#    0.000    0.625    0.000    2.625    0.000    0.000 
#    0.000    0.000    0.000    0.000    0.000    0.000 
#
# Total GULP energy -356493.160236 kJ/mol
# GULP energy per Si atom -5570.205629 kJ/mol
# Density = 1.812668 g / cm^3
# Si number density = 18.168033 Si / 1000 Ang^3
#
#
#
# Elastic Constant Matrix: (Units=GPa)
#
#
# Indices 1 2 3 4 5 6 
#
# 1 31.2266 5.3901 -1.3185 0.0000 0.0000 0.0000
# 2 5.3901 17.6529 6.7764 0.0000 0.0000 0.0000
# 3 -1.3185 6.7764 53.9117 0.0000 0.0000 0.0000
# 4 0.0000 0.0000 0.0000 28.2577 0.0000 0.0000
# 5 0.0000 0.0000 0.0000 0.0000 31.5242 0.0000
# 6 0.0000 0.0000 0.0000 0.0000 0.0000 14.7477
#
#
#
# Elastic Compliance Matrix: (Units=1/GPa)
#
#
# Indices 1 2 3 4 5 6 
#
# 1 0.034063 -0.011264 0.002249 0.000000 0.000000 0.000000
# 2 -0.011264 0.063245 -0.008225 0.000000 0.000000 0.000000
# 3 0.002249 -0.008225 0.019638 0.000000 0.000000 0.000000
# 4 0.000000 0.000000 0.000000 0.035389 0.000000 0.000000
# 5 0.000000 0.000000 0.000000 0.000000 0.031722 0.000000
# 6 0.000000 0.000000 0.000000 0.000000 0.000000 0.067807
#
#
# Mechanical properties :
#
#
# Convention : Reuss Voigt Hill
#
# Bulk Modulus (GPa) = 12.12633 13.83192 12.97913
# Shear Modulus (GPa) = 15.93212 21.03549 18.48381
#
# Velocity S-wave (km/s) = 2.96452 3.40638 3.19310
# Velocity P-wave (km/s) = 4.29032 4.80636 4.55565
#
# Compressibility (1/GPa) = 0.08246516
#
# Stress axis : x y z
#
# Youngs Moduli (GPa) = 29.35715 15.81164 50.92248
#
# Poissons Ratio (x) = 0.17810 -0.11452
# Poissons Ratio (y) = 0.33068 0.41884
# Poissons Ratio (z) = -0.06602 0.13005
#
# Static dielectric constant tensor:
#      x y z
#    x 1.609610 0.000000 0.000000 
#    y 0.000000 1.623780 0.000000 
#    z 0.000000 0.000000 1.642010 
# 
# From -- ./inp_files/29399.got.cif
#   From: 2010.05.17/outbox.cif.g08.bks.cpg/sg53_15_cif.got.tgz:29399.got - 2010.06.03 12:45:16.
