data_PCOD9414827
_publ_section_title
;
Structure prediction by ZEFSAII (Michael W. Deem and Ramdas Pophale) SiO2 
 PCOD9414827
Probable space group: P M N A
;
_chemical_formula_sum "Si O2"
_cell_formula_units_Z 36
_cell_length_a 9.939041
_cell_length_b 9.048046
_cell_length_c 23.447925
_cell_angle_alpha 90.000000
_cell_angle_beta 90.000000
_cell_angle_gamma 90.000000
_cell_volume 2108.646106
_symmetry_space_group_name_H-M "P M N A"
_symmetry_group_IT_number 53
_symmetry_cell_setting 'orthorhombic'
loop_
_space_group_symop_operation_xyz
x,y,z
1/2-x,-y,1/2+z
x,-y,-z
1/2-x,y,1/2-z
-x,-y,-z
1/2+x,y,1/2-z
-x,y,z
1/2+x,-y,1/2+z
loop_
_atom_site_type_symbol
_atom_site_label
_atom_site_fract_x
_atom_site_fract_y
_atom_site_fract_z
Si Si1 0.849308 0.249451 0.847346
Si Si2 0.250000 0.036524 0.750000
Si Si3 0.158427 0.491713 0.693486
Si Si4 0.151071 0.173700 0.349396
Si Si5 0.343091 0.986618 0.565271
O O1 0.834519 0.143858 0.791531
O O2 0.730917 0.368836 0.845161
O O3 0.835017 0.142662 0.901650
O O4 0.000000 0.314870 0.847208
O O5 0.328483 0.929167 0.793441
O O6 0.250000 0.489917 0.750000
O O7 0.166760 0.655847 0.667858
O O8 0.000000 0.458844 0.703861
O O9 0.000000 0.149774 0.370715
O O10 0.256650 0.124882 0.396903
O O11 0.500000 0.941745 0.565379
O O12 0.298285 0.000000 0.500000
#
# Coordination Sequence:
#
# PCOD9414827 Si02
#       5
#     8   4   8   8   8
#     4  10  20  33  54  80 108 141 178 220 268 319
#     4  10  18  32  52  80 108 140 176 220 266 324
#     4  11  22  35  52  78 114 148 178 215 266 326
#     4  10  21  35  54  81 110 143 182 223 268 319
#     4   9  20  39  60  81 106 140 184 230 273 319
#
# _framework density 17.072565999999998
#
# number of rings (size 3 to 8) (size 9 to 14) (size 15 to 20)
#    0.000    2.000    2.222    1.333    0.000    6.667 
#    0.000    1.111    0.000    6.667    0.000    0.000 
#    0.000    0.000    0.000    0.000    0.000    0.000 
#
# Total GULP energy -200752.579043 kJ/mol
# GULP energy per Si atom -5576.460529 kJ/mol
# Density = 1.703371 g / cm^3
# Si number density = 17.072566 Si / 1000 Ang^3
#
#
#
# Elastic Constant Matrix: (Units=GPa)
#
#
# Indices 1 2 3 4 5 6 
#
# 1 123.5354 52.1705 38.4100 0.0000 0.0000 0.0000
# 2 52.1705 73.7932 19.5159 0.0000 0.0000 0.0000
# 3 38.4100 19.5159 90.3335 0.0000 0.0000 0.0000
# 4 0.0000 0.0000 0.0000 10.7611 0.0000 0.0000
# 5 0.0000 0.0000 0.0000 0.0000 12.7404 0.0000
# 6 0.0000 0.0000 0.0000 0.0000 0.0000 24.8628
#
#
#
# Elastic Compliance Matrix: (Units=1/GPa)
#
#
# Indices 1 2 3 4 5 6 
#
# 1 0.012572 -0.007928 -0.003633 0.000000 0.000000 0.000000
# 2 -0.007928 0.019371 -0.000814 0.000000 0.000000 0.000000
# 3 -0.003633 -0.000814 0.012791 0.000000 0.000000 0.000000
# 4 0.000000 0.000000 0.000000 0.092927 0.000000 0.000000
# 5 0.000000 0.000000 0.000000 0.000000 0.078491 0.000000
# 6 0.000000 0.000000 0.000000 0.000000 0.000000 0.040221
#
#
# Mechanical properties :
#
#
# Convention : Reuss Voigt Hill
#
# Bulk Modulus (GPa) = 50.03820 56.42831 53.23325
# Shear Modulus (GPa) = 17.37413 21.51059 19.44236
#
# Velocity S-wave (km/s) = 3.19354 3.55343 3.37828
# Velocity P-wave (km/s) = 6.55523 7.06821 6.81655
#
# Compressibility (1/GPa) = 0.01998473
#
# Stress axis : x y z
#
# Youngs Moduli (GPa) = 79.53928 51.62243 78.18125
#
# Poissons Ratio (x) = 0.40924 0.28404
# Poissons Ratio (y) = 0.63056 0.06366
# Poissons Ratio (z) = 0.28897 0.04203
#
# Static dielectric constant tensor:
#      x y z
#    x 1.585270 0.000000 0.000000 
#    y 0.000000 1.574040 0.000000 
#    z 0.000000 0.000000 1.556920 
# 
# From -- ./inp_files/30136.got.cif
#   From: 2010.05.17/outbox.cif.g08.bks.cpg/sg53_16_cif.got.tgz:30136.got - 2010.06.03 12:45:16.
