data_PCOD9414791
_publ_section_title
;
Structure prediction by ZEFSAII (Michael W. Deem and Ramdas Pophale) SiO2 
 PCOD9414791
Probable space group: P M N A
;
_chemical_formula_sum "Si O2"
_cell_formula_units_Z 64
_cell_length_a 23.821783
_cell_length_b 9.695232
_cell_length_c 15.065913
_cell_angle_alpha 90.000000
_cell_angle_beta 90.000000
_cell_angle_gamma 90.000000
_cell_volume 3479.588808
_symmetry_space_group_name_H-M "P M N A"
_symmetry_group_IT_number 53
_symmetry_cell_setting 'orthorhombic'
loop_
_space_group_symop_operation_xyz
x,y,z
1/2-x,-y,1/2+z
x,-y,-z
1/2-x,y,1/2-z
-x,-y,-z
1/2+x,y,1/2-z
-x,y,z
1/2+x,-y,1/2+z
loop_
_atom_site_type_symbol
_atom_site_label
_atom_site_fract_x
_atom_site_fract_y
_atom_site_fract_z
Si Si1 0.564451 0.214654 0.512511
Si Si2 0.869645 0.845043 0.478102
Si Si3 0.374293 0.454388 0.775071
Si Si4 0.067630 0.159668 0.704627
Si Si5 0.566141 0.383393 0.076286
Si Si6 0.563755 0.956906 0.647510
Si Si7 0.283982 0.385658 0.920622
Si Si8 0.657955 0.413410 0.588018
O O1 0.500000 0.267227 0.504241
O O2 0.586048 0.166193 0.414970
O O3 0.607696 0.313120 0.560857
O O4 0.560983 0.083129 0.577623
O O5 0.913613 0.855703 0.396764
O O6 0.900662 0.755518 0.553540
O O7 0.817110 0.750874 0.450380
O O8 0.853003 0.000000 0.500000
O O9 0.403300 0.303373 0.767301
O O10 0.415332 0.552616 0.830373
O O11 0.318986 0.441680 0.836451
O O12 0.359168 0.496661 0.675773
O O13 0.000000 0.170530 0.713550
O O14 0.087866 0.029769 0.764563
O O15 0.500000 0.358802 0.073112
O O16 0.578938 0.500000 0.000000
O O17 0.500000 0.915266 0.670518
O O18 0.219866 0.351545 0.895580
O O19 0.286549 0.500000 0.000000
O O20 0.665746 0.500000 0.500000
#
# Coordination Sequence:
#
# PCOD9414791 Si02
#       8
#     8   8   8   8   8   8   8   8
#     4   9  17  33  53  76 110 146 184 238 297 345
#     4  11  22  38  58  87 126 156 192 253 311 357
#     4  11  19  36  60  85 113 152 199 257 293 353
#     4  10  18  31  57  85 112 152 199 239 287 362
#     4  11  20  35  63  94 121 159 201 240 304 380
#     4   8  15  30  53  76 105 148 188 227 282 345
#     4  10  20  42  63  83 111 159 204 245 302 364
#     4  11  24  37  58  86 113 153 207 252 299 357
#
# _framework density 18.392976999999998
#
# number of rings (size 3 to 8) (size 9 to 14) (size 15 to 20)
#    0.000    1.875    5.000    1.875    0.000    1.750 
#    4.500    0.000    0.000    0.000    0.000    0.000 
#    0.000    0.000    0.000    0.000    0.000    0.000 
#
# Total GULP energy -356463.818213 kJ/mol
# GULP energy per Si atom -5569.747160 kJ/mol
# Density = 1.835111 g / cm^3
# Si number density = 18.392977 Si / 1000 Ang^3
#
#
#
# Elastic Constant Matrix: (Units=GPa)
#
#
# Indices 1 2 3 4 5 6 
#
# 1 67.0591 8.8019 8.9456 0.0000 0.0000 0.0000
# 2 8.8019 52.0848 21.7967 0.0000 0.0000 0.0000
# 3 8.9456 21.7967 96.7731 0.0000 0.0000 0.0000
# 4 0.0000 0.0000 0.0000 29.3631 0.0000 0.0000
# 5 0.0000 0.0000 0.0000 0.0000 12.6161 0.0000
# 6 0.0000 0.0000 0.0000 0.0000 0.0000 10.1442
#
#
#
# Elastic Compliance Matrix: (Units=1/GPa)
#
#
# Indices 1 2 3 4 5 6 
#
# 1 0.015324 -0.002205 -0.000920 0.000000 0.000000 0.000000
# 2 -0.002205 0.021515 -0.004642 0.000000 0.000000 0.000000
# 3 -0.000920 -0.004642 0.011464 0.000000 0.000000 0.000000
# 4 0.000000 0.000000 0.000000 0.034056 0.000000 0.000000
# 5 0.000000 0.000000 0.000000 0.000000 0.079264 0.000000
# 6 0.000000 0.000000 0.000000 0.000000 0.000000 0.098579
#
#
# Mechanical properties :
#
#
# Convention : Reuss Voigt Hill
#
# Bulk Modulus (GPa) = 30.51615 32.77840 31.64728
# Shear Modulus (GPa) = 17.44235 22.18287 19.81261
#
# Velocity S-wave (km/s) = 3.08281 3.47659 3.28561
# Velocity P-wave (km/s) = 5.41284 5.82884 5.62469
#
# Compressibility (1/GPa) = 0.03276953
#
# Stress axis : x y z
#
# Youngs Moduli (GPa) = 65.25577 46.47995 87.22919
#
# Poissons Ratio (x) = 0.10247 0.08025
# Poissons Ratio (y) = 0.14387 0.40492
# Poissons Ratio (z) = 0.06003 0.21576
#
# Static dielectric constant tensor:
#      x y z
#    x 1.647580 0.000000 0.000000 
#    y 0.000000 1.641930 0.000000 
#    z 0.000000 0.000000 1.287400 
# 
# From -- ./inp_files/24722.got.cif
#   From: 2010.05.17/outbox.cif.g08.bks.cpg/sg53_13_cif.got.tgz:24722.got - 2010.06.03 12:45:16.
