data_PCOD9414219
_publ_section_title
;
Structure prediction by ZEFSAII (Michael W. Deem and Ramdas Pophale) SiO2 
 PCOD9414219
Probable space group: P M N A
;
_chemical_formula_sum "Si O2"
_cell_formula_units_Z 64
_cell_length_a 7.840416
_cell_length_b 15.604122
_cell_length_c 30.636937
_cell_angle_alpha 90.000000
_cell_angle_beta 90.000000
_cell_angle_gamma 90.000000
_cell_volume 3748.208895
_symmetry_space_group_name_H-M "P M N A"
_symmetry_group_IT_number 53
_symmetry_cell_setting 'orthorhombic'
loop_
_space_group_symop_operation_xyz
x,y,z
1/2-x,-y,1/2+z
x,-y,-z
1/2-x,y,1/2-z
-x,-y,-z
1/2+x,y,1/2-z
-x,y,z
1/2+x,-y,1/2+z
loop_
_atom_site_type_symbol
_atom_site_label
_atom_site_fract_x
_atom_site_fract_y
_atom_site_fract_z
Si Si1 0.297078 0.293778 0.701956
Si Si2 0.707061 0.948748 0.063881
Si Si3 0.792482 0.624908 0.441789
Si Si4 0.298105 0.788756 0.113440
Si Si5 0.701235 0.548857 0.608620
Si Si6 0.794452 0.490580 0.798585
Si Si7 0.207379 0.125506 0.467859
Si Si8 0.297639 0.318412 0.036122
O O1 0.250000 0.262574 0.750000
O O2 0.500000 0.297098 0.697783
O O3 0.228235 0.236234 0.663234
O O4 0.231137 0.391903 0.698075
O O5 0.500000 0.954398 0.066844
O O6 0.770776 0.881527 0.099691
O O7 0.769386 0.046741 0.062218
O O8 0.744657 0.904170 0.017306
O O9 0.732617 0.709964 0.416087
O O10 0.731718 0.540588 0.416707
O O11 0.734582 0.634240 0.492063
O O12 0.000000 0.621493 0.440869
O O13 0.500000 0.791267 0.104361
O O14 0.500000 0.562897 0.611571
O O15 0.768585 0.539782 0.658283
O O16 0.772393 0.624365 0.578678
O O17 0.750000 0.522683 0.750000
O O18 0.000000 0.488203 0.800944
O O19 0.271584 0.221559 0.459889
O O20 0.000000 0.127614 0.464343
O O21 0.500000 0.309391 0.029047
#
# Coordination Sequence:
#
# PCOD9414219 Si02
#       8
#     8   8   8   8   8   8   8   8
#     4  10  19  32  47  66  91 121 153 190 231 279
#     4   8  13  23  43  69  93 118 149 188 229 265
#     4  10  19  30  44  65  94 126 161 194 219 259
#     4  10  17  27  46  71  95 122 154 189 230 274
#     4  11  22  34  45  64  92 125 158 190 231 280
#     4   9  19  33  48  65  86 112 148 189 230 274
#     4   8  13  24  43  67  93 118 151 193 228 260
#     4  10  19  31  46  67  93 125 163 198 226 261
#
# _framework density 17.074822000000001
#
# number of rings (size 3 to 8) (size 9 to 14) (size 15 to 20)
#    0.000    2.500    2.500    1.875    0.000    3.500 
#    0.000    0.000    0.000    0.750    0.000    2.625 
#    0.000    2.000    0.000    0.000    0.000    0.000 
#
# Total GULP energy -356708.412642 kJ/mol
# GULP energy per Si atom -5573.568948 kJ/mol
# Density = 1.703596 g / cm^3
# Si number density = 17.074822 Si / 1000 Ang^3
#
#
#
# Elastic Constant Matrix: (Units=GPa)
#
#
# Indices 1 2 3 4 5 6 
#
# 1 9.3886 -6.3075 -14.2894 0.0000 0.0000 0.0000
# 2 -6.3075 84.9372 53.3541 0.0000 0.0000 0.0000
# 3 -14.2894 53.3541 111.9920 0.0000 0.0000 0.0000
# 4 0.0000 0.0000 0.0000 23.9468 0.0000 0.0000
# 5 0.0000 0.0000 0.0000 0.0000 15.6481 0.0000
# 6 0.0000 0.0000 0.0000 0.0000 0.0000 -7.2153
#
#
#
# Elastic Compliance Matrix: (Units=1/GPa)
#
#
# Indices 1 2 3 4 5 6 
#
# 1 0.132255 -0.001111 0.017404 0.000000 0.000000 0.000000
# 2 -0.001111 0.016811 -0.008151 0.000000 0.000000 0.000000
# 3 0.017404 -0.008151 0.015033 0.000000 0.000000 0.000000
# 4 0.000000 0.000000 0.000000 0.041759 0.000000 0.000000
# 5 0.000000 0.000000 0.000000 0.000000 0.063906 0.000000
# 6 0.000000 0.000000 0.000000 0.000000 0.000000 -0.138594
#
#
# Mechanical properties :
#
#
# Convention : Reuss Voigt Hill
#
# Bulk Modulus (GPa) = 5.54376 30.20357 17.87367
# Shear Modulus (GPa) = 28.56942 18.04663 23.30802
#
# Velocity S-wave (km/s) = 4.09490 3.25455 3.69867
# Velocity P-wave (km/s) = 5.06077 5.64359 5.36011
#
# Compressibility (1/GPa) = 0.18038288
#
# Stress axis : x y z
#
# Youngs Moduli (GPa) = 7.56117 59.48580 66.52084
#
# Poissons Ratio (x) = 0.06610 -1.15774
# Poissons Ratio (y) = 0.00840 0.54218
# Poissons Ratio (z) = -0.13160 0.48484
#
# Static dielectric constant tensor:
#      x y z
#    x 1.634770 0.000000 0.000000 
#    y 0.000000 1.588740 0.000000 
#    z 0.000000 0.000000 1.576720 
# 
# From -- ./inp_files/38529.got.cif
#   From: 2010.05.17/outbox.cif.g08.bks.cpg/sg53_20_cif.got.tgz:38529.got - 2010.06.03 12:45:16.
