data_PCOD9414157
_publ_section_title
;
Structure prediction by ZEFSAII (Michael W. Deem and Ramdas Pophale) SiO2 
 PCOD9414157
Probable space group: P M N A
;
_chemical_formula_sum "Si O2"
_cell_formula_units_Z 48
_cell_length_a 8.042167
_cell_length_b 9.742819
_cell_length_c 32.833624
_cell_angle_alpha 90.000000
_cell_angle_beta 90.000000
_cell_angle_gamma 90.000000
_cell_volume 2572.625334
_symmetry_space_group_name_H-M "P M N A"
_symmetry_group_IT_number 53
_symmetry_cell_setting 'orthorhombic'
loop_
_space_group_symop_operation_xyz
x,y,z
1/2-x,-y,1/2+z
x,-y,-z
1/2-x,y,1/2-z
-x,-y,-z
1/2+x,y,1/2-z
-x,y,z
1/2+x,-y,1/2+z
loop_
_atom_site_type_symbol
_atom_site_label
_atom_site_fract_x
_atom_site_fract_y
_atom_site_fract_z
Si Si1 0.701064 0.340517 0.629991
Si Si2 0.703734 0.658820 0.629868
Si Si3 0.691204 0.672089 0.541179
Si Si4 0.799489 0.842935 0.205209
Si Si5 0.191369 0.635154 0.455973
Si Si6 0.799519 0.157802 0.205209
O O1 0.500000 0.338144 0.629503
O O2 0.754197 0.499675 0.634389
O O3 0.759865 0.250297 0.667941
O O4 0.762747 0.290026 0.585836
O O5 0.500000 0.659977 0.628938
O O6 0.758817 0.714366 0.585505
O O7 0.759781 0.748868 0.667966
O O8 0.500000 0.714182 0.538030
O O9 0.701833 0.505220 0.543512
O O10 0.778386 0.710036 0.498862
O O11 0.750000 0.791592 0.250000
O O12 0.000000 0.845181 0.203538
O O13 0.739543 0.000377 0.201433
O O14 0.000000 0.592075 0.454459
O O15 0.750000 0.209085 0.250000
O O16 0.000000 0.155674 0.203451
#
# Coordination Sequence:
#
# PCOD9414157 Si02
#       6
#     8   8   8   8   8   8
#     4   9  17  30  45  64  88 118 148 178 215 259
#     4   8  15  27  45  65  87 112 144 179 213 250
#     4   9  15  26  43  62  87 121 150 176 213 263
#     4   9  18  31  48  65  86 114 147 180 216 260
#     4  10  17  25  40  65  92 116 143 182 220 256
#     4   9  17  31  47  65  86 113 145 179 215 258
#
# _framework density 18.657983000000002
#
# number of rings (size 3 to 8) (size 9 to 14) (size 15 to 20)
#    0.000    3.000    0.000    4.000    0.000    1.333 
#    0.000    4.167    0.000    1.000    0.000    7.000 
#    0.000    0.000    0.000    0.000    0.000    0.000 
#
# Total GULP energy -267310.383504 kJ/mol
# GULP energy per Si atom -5568.966323 kJ/mol
# Density = 1.861552 g / cm^3
# Si number density = 18.657983 Si / 1000 Ang^3
#
#
#
# Elastic Constant Matrix: (Units=GPa)
#
#
# Indices 1 2 3 4 5 6 
#
# 1 20.9982 6.0957 12.3241 0.0000 0.0000 0.0000
# 2 6.0957 35.9850 68.1852 0.0000 0.0000 0.0000
# 3 12.3241 68.1852 234.3595 0.0000 0.0000 0.0000
# 4 0.0000 0.0000 0.0000 -9.6359 0.0000 0.0000
# 5 0.0000 0.0000 0.0000 0.0000 24.2401 0.0000
# 6 0.0000 0.0000 0.0000 0.0000 0.0000 3.5196
#
#
#
# Elastic Compliance Matrix: (Units=1/GPa)
#
#
# Indices 1 2 3 4 5 6 
#
# 1 0.050100 -0.007788 -0.000369 0.000000 0.000000 0.000000
# 2 -0.007788 0.063142 -0.017961 0.000000 0.000000 0.000000
# 3 -0.000369 -0.017961 0.009512 0.000000 0.000000 0.000000
# 4 0.000000 0.000000 0.000000 -0.103779 0.000000 0.000000
# 5 0.000000 0.000000 0.000000 0.000000 0.041254 0.000000
# 6 0.000000 0.000000 0.000000 0.000000 0.000000 0.284124
#
#
# Mechanical properties :
#
#
# Convention : Reuss Voigt Hill
#
# Bulk Modulus (GPa) = 14.18071 51.61695 32.89883
# Shear Modulus (GPa) = 11.90209 17.27396 14.58802
#
# Velocity S-wave (km/s) = 2.52843 3.04603 2.79922
# Velocity P-wave (km/s) = 4.01756 6.33214 5.30267
#
# Compressibility (1/GPa) = 0.07051832
#
# Stress axis : x y z
#
# Youngs Moduli (GPa) = 19.95994 15.83739 105.13058
#
# Poissons Ratio (x) = 0.12334 0.03876
# Poissons Ratio (y) = 0.15545 1.88826
# Poissons Ratio (z) = 0.00736 0.28446
#
# Static dielectric constant tensor:
#      x y z
#    x 1.662680 0.000000 0.000000 
#    y 0.000000 1.622310 0.000000 
#    z 0.000000 0.000000 1.693020 
# 
# From -- ./inp_files/36163.got.cif
#   From: 2010.05.17/outbox.cif.g08.bks.cpg/sg53_19_cif.got.tgz:36163.got - 2010.06.03 12:45:16.
