data_PCOD9414199
_publ_section_title
;
Structure prediction by ZEFSAII (Michael W. Deem and Ramdas Pophale) SiO2 
 PCOD9414199
Probable space group: P M N A
;
_chemical_formula_sum "Si O2"
_cell_formula_units_Z 64
_cell_length_a 18.184177
_cell_length_b 12.184802
_cell_length_c 14.992974
_cell_angle_alpha 90.000000
_cell_angle_beta 90.000000
_cell_angle_gamma 90.000000
_cell_volume 3322.002189
_symmetry_space_group_name_H-M "P M N A"
_symmetry_group_IT_number 53
_symmetry_cell_setting 'orthorhombic'
loop_
_space_group_symop_operation_xyz
x,y,z
1/2-x,-y,1/2+z
x,-y,-z
1/2-x,y,1/2-z
-x,-y,-z
1/2+x,y,1/2-z
-x,y,z
1/2+x,-y,1/2+z
loop_
_atom_site_type_symbol
_atom_site_label
_atom_site_fract_x
_atom_site_fract_y
_atom_site_fract_z
Si Si1 0.414425 0.119065 0.782282
Si Si2 0.410907 0.360830 0.742908
Si Si3 0.625056 0.996431 0.600913
Si Si4 0.876018 0.737289 0.887513
Si Si5 0.584572 0.606395 0.452409
Si Si6 0.281886 0.738612 0.852010
Si Si7 0.217396 0.011151 0.350721
Si Si8 0.914614 0.607039 0.707308
O O1 0.500000 0.110226 0.808080
O O2 0.388365 0.245456 0.784142
O O3 0.408351 0.070147 0.680494
O O4 0.357986 0.054119 0.844792
O O5 0.500000 0.353607 0.741692
O O6 0.381434 0.364409 0.641822
O O7 0.394228 0.478770 0.784949
O O8 0.620905 0.867777 0.630835
O O9 0.711556 0.029780 0.595392
O O10 0.594321 0.000000 0.500000
O O11 0.915997 0.705046 0.978001
O O12 0.790890 0.705106 0.904658
O O13 0.906554 0.666526 0.804591
O O14 0.618045 0.500000 0.500000
O O15 0.500000 0.575227 0.431558
O O16 0.250000 0.736415 0.750000
O O17 0.299237 0.863690 0.875494
O O18 0.354566 0.666487 0.853903
O O19 0.250000 0.011578 0.250000
O O20 0.000000 0.617041 0.680364
#
# Coordination Sequence:
#
# PCOD9414199 Si02
#       8
#     8   8   8   8   8   8   8   8
#     4  10  19  31  48  70  96 123 157 197 235 279
#     4   9  18  29  42  65  95 122 149 184 223 269
#     4  10  20  33  49  68  95 128 158 192 235 284
#     4  10  18  29  45  64  91 120 146 188 226 262
#     4  10  17  27  43  64  92 128 154 173 217 280
#     4   8  16  28  42  63  87 113 146 191 226 257
#     4   8  16  32  48  64  91 127 156 187 238 286
#     4  10  17  28  46  65  89 121 151 180 225 273
#
# _framework density 19.265488000000001
#
# number of rings (size 3 to 8) (size 9 to 14) (size 15 to 20)
#    0.000    2.625    1.250    3.375    0.000    2.750 
#    0.000    5.625    0.000    0.375    0.000    0.000 
#    0.000    0.500    0.000    0.500    0.000    0.000 
#
# Total GULP energy -356383.398218 kJ/mol
# GULP energy per Si atom -5568.490597 kJ/mol
# Density = 1.922164 g / cm^3
# Si number density = 19.265488 Si / 1000 Ang^3
#
#
#
# Elastic Constant Matrix: (Units=GPa)
#
#
# Indices 1 2 3 4 5 6 
#
# 1 86.4638 42.6883 3.6531 0.0000 0.0000 0.0000
# 2 42.6883 94.9082 -9.3162 0.0000 0.0000 0.0000
# 3 3.6531 -9.3162 3.8890 0.0000 0.0000 0.0000
# 4 0.0000 0.0000 0.0000 13.2878 0.0000 0.0000
# 5 0.0000 0.0000 0.0000 0.0000 10.6541 0.0000
# 6 0.0000 0.0000 0.0000 0.0000 0.0000 33.1149
#
#
#
# Elastic Compliance Matrix: (Units=1/GPa)
#
#
# Indices 1 2 3 4 5 6 
#
# 1 0.021468 -0.015213 -0.056609 0.000000 0.000000 0.000000
# 2 -0.015213 0.024556 0.073115 0.000000 0.000000 0.000000
# 3 -0.056609 0.073115 0.485466 0.000000 0.000000 0.000000
# 4 0.000000 0.000000 0.000000 0.075257 0.000000 0.000000
# 5 0.000000 0.000000 0.000000 0.000000 0.093860 0.000000
# 6 0.000000 0.000000 0.000000 0.000000 0.000000 0.030198
#
#
# Mechanical properties :
#
#
# Convention : Reuss Voigt Hill
#
# Bulk Modulus (GPa) = 1.87239 28.81237 15.34238
# Shear Modulus (GPa) = 5.51728 21.29374 13.40551
#
# Velocity S-wave (km/s) = 1.69412 3.32818 2.64072
# Velocity P-wave (km/s) = 2.19105 5.45499 4.15678
#
# Compressibility (1/GPa) = 0.53407761
#
# Stress axis : x y z
#
# Youngs Moduli (GPa) = 46.58097 40.72327 2.05987
#
# Poissons Ratio (x) = 0.61951 0.11661
# Poissons Ratio (y) = 0.70862 -0.15061
# Poissons Ratio (z) = 2.63690 -2.97750
#
# Static dielectric constant tensor:
#      x y z
#    x 1.703830 0.000000 0.000000 
#    y 0.000000 1.704690 0.000000 
#    z 0.000000 0.000000 1.693470 
# 
# From -- ./inp_files/29439.got.cif
#   From: 2010.05.17/outbox.cif.g08.bks.cpg/sg53_15_cif.got.tgz:29439.got - 2010.06.03 12:45:16.
