data_PCOD9414361
_publ_section_title
;
Structure prediction by ZEFSAII (Michael W. Deem and Ramdas Pophale) SiO2 
 PCOD9414361
Probable space group: P M N A
;
_chemical_formula_sum "Si O2"
_cell_formula_units_Z 64
_cell_length_a 8.495502
_cell_length_b 17.388200
_cell_length_c 24.175678
_cell_angle_alpha 90.000000
_cell_angle_beta 90.000000
_cell_angle_gamma 90.000000
_cell_volume 3571.267125
_symmetry_space_group_name_H-M "P M N A"
_symmetry_group_IT_number 53
_symmetry_cell_setting 'orthorhombic'
loop_
_space_group_symop_operation_xyz
x,y,z
1/2-x,-y,1/2+z
x,-y,-z
1/2-x,y,1/2-z
-x,-y,-z
1/2+x,y,1/2-z
-x,y,z
1/2+x,-y,1/2+z
loop_
_atom_site_type_symbol
_atom_site_label
_atom_site_fract_x
_atom_site_fract_y
_atom_site_fract_z
Si Si1 0.689523 0.759680 0.691970
Si Si2 0.809047 0.413991 0.991543
Si Si3 0.312181 0.293117 0.592363
Si Si4 0.812280 0.941532 0.391923
Si Si5 0.186581 0.808857 0.188553
Si Si6 0.814930 0.162044 0.512664
Si Si7 0.810463 0.276487 0.071986
Si Si8 0.687836 0.061982 0.309010
O O1 0.750000 0.727417 0.750000
O O2 0.500000 0.758511 0.692975
O O3 0.743765 0.720584 0.635267
O O4 0.740028 0.849204 0.688673
O O5 0.755443 0.349932 0.036134
O O6 0.000000 0.417382 0.996217
O O7 0.748234 0.500000 0.000000
O O8 0.773791 0.376555 0.931727
O O9 0.500000 0.279948 0.581465
O O10 0.284856 0.270925 0.655642
O O11 0.217278 0.231471 0.555975
O O12 0.766520 0.874904 0.348214
O O13 0.755871 0.912411 0.452653
O O14 0.000000 0.948008 0.395198
O O15 0.744757 0.017224 0.363229
O O16 0.250000 0.807793 0.250000
O O17 0.000000 0.823864 0.188891
O O18 0.737872 0.196295 0.457436
O O19 0.000000 0.152159 0.502784
O O20 0.000000 0.278108 0.071360
O O21 0.750000 0.029374 0.250000
O O22 0.500000 0.058786 0.307142
#
# Coordination Sequence:
#
# PCOD9414361 Si02
#       8
#     8   8   8   8   8   8   8   8
#     4   9  19  34  51  70  90 117 153 192 230 268
#     4   8  13  24  47  75  94 110 139 179 218 258
#     4   8  15  27  42  61  87 117 147 180 215 255
#     4  10  19  30  43  62  89 118 151 191 232 271
#     4  10  18  27  40  59  84 117 155 188 220 259
#     4   9  17  28  44  66  90 118 150 183 222 266
#     4   9  17  31  50  71  95 120 149 184 222 268
#     4  10  19  31  46  63  85 115 153 195 238 276
#
# _framework density 17.920808999999998
#
# number of rings (size 3 to 8) (size 9 to 14) (size 15 to 20)
#    0.000    2.875    0.000    2.625    0.000    3.000 
#    0.000    0.625    0.000   10.500    0.000    0.000 
#    0.000    0.000    0.000    0.000    0.000    0.000 
#
# Total GULP energy -356342.479487 kJ/mol
# GULP energy per Si atom -5567.851242 kJ/mol
# Density = 1.788002 g / cm^3
# Si number density = 17.920809 Si / 1000 Ang^3
#
#
#
# Elastic Constant Matrix: (Units=GPa)
#
#
# Indices 1 2 3 4 5 6 
#
# 1 11.7058 2.9436 2.7311 0.0000 0.0000 0.0000
# 2 2.9436 42.3029 14.9476 0.0000 0.0000 0.0000
# 3 2.7311 14.9476 88.0619 0.0000 0.0000 0.0000
# 4 0.0000 0.0000 0.0000 21.6040 0.0000 0.0000
# 5 0.0000 0.0000 0.0000 0.0000 18.9852 0.0000
# 6 0.0000 0.0000 0.0000 0.0000 0.0000 5.1688
#
#
#
# Elastic Compliance Matrix: (Units=1/GPa)
#
#
# Indices 1 2 3 4 5 6 
#
# 1 0.087211 -0.005439 -0.001782 0.000000 0.000000 0.000000
# 2 -0.005439 0.025486 -0.004157 0.000000 0.000000 0.000000
# 3 -0.001782 -0.004157 0.012117 0.000000 0.000000 0.000000
# 4 0.000000 0.000000 0.000000 0.046288 0.000000 0.000000
# 5 0.000000 0.000000 0.000000 0.000000 0.052673 0.000000
# 6 0.000000 0.000000 0.000000 0.000000 0.000000 0.193470
#
#
# Mechanical properties :
#
#
# Convention : Reuss Voigt Hill
#
# Bulk Modulus (GPa) = 9.79829 20.36835 15.08332
# Shear Modulus (GPa) = 10.54807 17.24814 13.89811
#
# Velocity S-wave (km/s) = 2.42873 3.10573 2.78785
# Velocity P-wave (km/s) = 3.65299 4.92454 4.33564
#
# Compressibility (1/GPa) = 0.10205860
#
# Stress axis : x y z
#
# Youngs Moduli (GPa) = 11.46642 39.23647 82.53156
#
# Poissons Ratio (x) = 0.21340 0.14703
# Poissons Ratio (y) = 0.06237 0.34312
# Poissons Ratio (z) = 0.02043 0.16312
#
# Static dielectric constant tensor:
#      x y z
#    x 1.612580 0.000000 0.000000 
#    y 0.000000 1.629610 0.000000 
#    z 0.000000 0.000000 1.648580 
# 
# From -- ./inp_files/31350.got.cif
#   From: 2010.05.17/outbox.cif.g08.bks.cpg/sg53_16_cif.got.tgz:31350.got - 2010.06.03 12:45:16.
