data_PCOD9414487
_publ_section_title
;
Structure prediction by ZEFSAII (Michael W. Deem and Ramdas Pophale) SiO2 
 PCOD9414487
Probable space group: P M N A
;
_chemical_formula_sum "Si O2"
_cell_formula_units_Z 64
_cell_length_a 8.468366
_cell_length_b 17.455793
_cell_length_c 24.797880
_cell_angle_alpha 90.000000
_cell_angle_beta 90.000000
_cell_angle_gamma 90.000000
_cell_volume 3665.673307
_symmetry_space_group_name_H-M "P M N A"
_symmetry_group_IT_number 53
_symmetry_cell_setting 'orthorhombic'
loop_
_space_group_symop_operation_xyz
x,y,z
1/2-x,-y,1/2+z
x,-y,-z
1/2-x,y,1/2-z
-x,-y,-z
1/2+x,y,1/2-z
-x,y,z
1/2+x,-y,1/2+z
loop_
_atom_site_type_symbol
_atom_site_label
_atom_site_fract_x
_atom_site_fract_y
_atom_site_fract_z
Si Si1 0.811409 0.871484 0.690774
Si Si2 0.190923 0.815649 0.526929
Si Si3 0.806866 0.141760 0.588664
Si Si4 0.191188 0.758419 0.311322
Si Si5 0.812849 0.725423 0.872905
Si Si6 0.191310 0.032066 0.411220
Si Si7 0.810552 0.578564 0.688318
Si Si8 0.690148 0.410620 0.811290
O O1 0.750000 0.887203 0.750000
O O2 0.742768 0.792471 0.667670
O O3 0.768577 0.937615 0.648333
O O4 0.000000 0.864599 0.691032
O O5 0.238086 0.810514 0.464570
O O6 0.253555 0.752382 0.568310
O O7 0.242600 0.899813 0.548865
O O8 0.000000 0.813867 0.530150
O O9 0.755062 0.179490 0.644783
O O10 0.000000 0.140284 0.589725
O O11 0.752105 0.054188 0.581016
O O12 0.250000 0.769883 0.250000
O O13 0.240410 0.673113 0.331835
O O14 0.000000 0.760251 0.309402
O O15 0.747038 0.645926 0.850270
O O16 0.000000 0.722313 0.873134
O O17 0.000000 0.029563 0.416057
O O18 0.750000 0.589009 0.750000
O O19 0.758540 0.493935 0.667444
O O20 0.000000 0.580322 0.690592
O O21 0.750000 0.410919 0.750000
O O22 0.500000 0.410728 0.812397
#
# Coordination Sequence:
#
# PCOD9414487 Si02
#       8
#     8   8   8   8   8   8   8   8
#     4  10  19  31  46  65  94 129 161 190 227 275
#     4   9  17  31  50  69  90 120 159 198 234 272
#     4   9  16  28  50  74  93 118 156 197 232 272
#     4   9  17  30  48  72  99 124 150 183 228 276
#     4  11  21  32  46  66  93 122 154 192 234 277
#     4   8  15  27  45  69  92 118 155 196 233 269
#     4  10  18  29  46  69  95 122 154 188 225 270
#     4   8  15  27  44  66  93 122 150 183 222 268
#
# _framework density 17.459275999999999
#
# number of rings (size 3 to 8) (size 9 to 14) (size 15 to 20)
#    0.000    2.750    0.000    3.375    0.000    2.500 
#    0.000    0.625    0.000   10.500    0.000    5.250 
#    0.000    0.000    0.000    0.000    0.000    0.000 
#
# Total GULP energy -356458.508107 kJ/mol
# GULP energy per Si atom -5569.664189 kJ/mol
# Density = 1.741954 g / cm^3
# Si number density = 17.459276 Si / 1000 Ang^3
#
#
#
# Elastic Constant Matrix: (Units=GPa)
#
#
# Indices 1 2 3 4 5 6 
#
# 1 27.3667 11.3704 17.5331 0.0000 0.0000 0.0000
# 2 11.3704 71.4236 34.4121 0.0000 0.0000 0.0000
# 3 17.5331 34.4121 99.2659 0.0000 0.0000 0.0000
# 4 0.0000 0.0000 0.0000 16.7639 0.0000 0.0000
# 5 0.0000 0.0000 0.0000 0.0000 18.6638 0.0000
# 6 0.0000 0.0000 0.0000 0.0000 0.0000 9.1976
#
#
#
# Elastic Compliance Matrix: (Units=1/GPa)
#
#
# Indices 1 2 3 4 5 6 
#
# 1 0.042018 -0.003738 -0.006126 0.000000 0.000000 0.000000
# 2 -0.003738 0.017141 -0.005282 0.000000 0.000000 0.000000
# 3 -0.006126 -0.005282 0.012987 0.000000 0.000000 0.000000
# 4 0.000000 0.000000 0.000000 0.059652 0.000000 0.000000
# 5 0.000000 0.000000 0.000000 0.000000 0.053580 0.000000
# 6 0.000000 0.000000 0.000000 0.000000 0.000000 0.108724
#
#
# Mechanical properties :
#
#
# Convention : Reuss Voigt Hill
#
# Bulk Modulus (GPa) = 23.89187 36.07636 29.98412
# Shear Modulus (GPa) = 14.77783 17.90777 16.34280
#
# Velocity S-wave (km/s) = 2.91248 3.20611 3.06282
# Velocity P-wave (km/s) = 5.00241 5.86631 5.45150
#
# Compressibility (1/GPa) = 0.04185524
#
# Stress axis : x y z
#
# Youngs Moduli (GPa) = 23.79907 58.34008 76.99984
#
# Poissons Ratio (x) = 0.21806 0.47169
# Poissons Ratio (y) = 0.08895 0.40671
# Poissons Ratio (z) = 0.14579 0.30815
#
# Static dielectric constant tensor:
#      x y z
#    x 1.601690 0.000000 0.000000 
#    y 0.000000 1.624700 0.000000 
#    z 0.000000 0.000000 1.576060 
# 
# From -- ./inp_files/34485.got.cif
#   From: 2010.05.17/outbox.cif.g08.bks.cpg/sg53_18_cif.got.tgz:34485.got - 2010.06.03 12:45:16.
