data_PCOD9414951
_publ_section_title
;
Structure prediction by ZEFSAII (Michael W. Deem and Ramdas Pophale) SiO2 
 PCOD9414951
Probable space group: P M N A
;
_chemical_formula_sum "Si O2"
_cell_formula_units_Z 64
_cell_length_a 8.485501
_cell_length_b 12.458239
_cell_length_c 32.145635
_cell_angle_alpha 90.000000
_cell_angle_beta 90.000000
_cell_angle_gamma 90.000000
_cell_volume 3398.256500
_symmetry_space_group_name_H-M "P M N A"
_symmetry_group_IT_number 53
_symmetry_cell_setting 'orthorhombic'
loop_
_space_group_symop_operation_xyz
x,y,z
1/2-x,-y,1/2+z
x,-y,-z
1/2-x,y,1/2-z
-x,-y,-z
1/2+x,y,1/2-z
-x,y,z
1/2+x,-y,1/2+z
loop_
_atom_site_type_symbol
_atom_site_label
_atom_site_fract_x
_atom_site_fract_y
_atom_site_fract_z
Si Si1 0.808159 0.753744 0.055195
Si Si2 0.310079 0.253364 0.705014
Si Si3 0.813387 0.114233 0.022943
Si Si4 0.189346 0.631218 0.624478
Si Si5 0.189896 0.100483 0.868650
Si Si6 0.809254 0.488563 0.951341
Si Si7 0.310613 0.501171 0.704111
Si Si8 0.184803 0.127937 0.385983
O O1 0.753787 0.839576 0.089370
O O2 0.760643 0.631406 0.063001
O O3 0.000000 0.755426 0.055938
O O4 0.763439 0.794380 0.009509
O O5 0.250000 0.219872 0.750000
O O6 0.500000 0.253043 0.704748
O O7 0.254293 0.172927 0.669554
O O8 0.260130 0.376702 0.697920
O O9 0.716798 0.117777 0.064885
O O10 0.000000 0.127293 0.032787
O O11 0.797664 0.000000 0.000000
O O12 0.246563 0.574442 0.581828
O O13 0.247918 0.568672 0.665272
O O14 0.246300 0.754678 0.626586
O O15 0.000000 0.631222 0.623878
O O16 0.000000 0.103493 0.869760
O O17 0.239165 0.977429 0.866142
O O18 0.000000 0.494913 0.950520
O O19 0.761933 0.500000 0.000000
O O20 0.250000 0.534651 0.750000
O O21 0.500000 0.505187 0.704245
O O22 0.000000 0.124746 0.377299
#
# Coordination Sequence:
#
# PCOD9414951 Si02
#       8
#     8   8   8   8   8   8   8   8
#     4   9  17  31  53  81 107 133 178 232 275 322
#     4   9  19  35  59  88 116 141 170 217 273 329
#     4  10  18  33  57  79 103 143 187 228 273 330
#     4  11  24  40  56  79 116 157 196 239 287 339
#     4  10  19  35  56  78 106 142 183 222 265 323
#     4  10  20  35  57  83 112 148 191 238 287 343
#     4  10  20  38  65  93 118 145 183 231 284 344
#     4  11  24  38  52  76 112 149 187 235 278 322
#
# _framework density 18.833186999999999
#
# number of rings (size 3 to 8) (size 9 to 14) (size 15 to 20)
#    0.000    2.000    1.250    2.625    0.000    6.500 
#    0.000    3.125    0.000    1.500    0.000    0.000 
#    0.000    0.000    0.000    0.000    0.000    0.000 
#
# Total GULP energy -357275.243368 kJ/mol
# GULP energy per Si atom -5582.425678 kJ/mol
# Density = 1.879032 g / cm^3
# Si number density = 18.833187 Si / 1000 Ang^3
#
#
#
# Elastic Constant Matrix: (Units=GPa)
#
#
# Indices 1 2 3 4 5 6 
#
# 1 14.8680 18.9012 17.7512 0.0000 0.0000 0.0000
# 2 18.9012 117.1112 61.8874 0.0000 0.0000 0.0000
# 3 17.7512 61.8874 115.3104 0.0000 0.0000 0.0000
# 4 0.0000 0.0000 0.0000 33.4368 0.0000 0.0000
# 5 0.0000 0.0000 0.0000 0.0000 25.8938 0.0000
# 6 0.0000 0.0000 0.0000 0.0000 0.0000 20.7140
#
#
#
# Elastic Compliance Matrix: (Units=1/GPa)
#
#
# Indices 1 2 3 4 5 6 
#
# 1 0.090188 -0.010077 -0.008475 0.000000 0.000000 0.000000
# 2 -0.010077 0.013045 -0.005450 0.000000 0.000000 0.000000
# 3 -0.008475 -0.005450 0.012902 0.000000 0.000000 0.000000
# 4 0.000000 0.000000 0.000000 0.029907 0.000000 0.000000
# 5 0.000000 0.000000 0.000000 0.000000 0.038619 0.000000
# 6 0.000000 0.000000 0.000000 0.000000 0.000000 0.048277
#
#
# Mechanical properties :
#
#
# Convention : Reuss Voigt Hill
#
# Bulk Modulus (GPa) = 14.67780 49.37435 32.02607
# Shear Modulus (GPa) = 16.46611 25.92556 21.19583
#
# Velocity S-wave (km/s) = 2.96009 3.71427 3.35841
# Velocity P-wave (km/s) = 4.41512 6.68341 5.66398
#
# Compressibility (1/GPa) = 0.06813011
#
# Stress axis : x y z
#
# Youngs Moduli (GPa) = 11.08796 76.65503 77.50649
#
# Poissons Ratio (x) = 0.77246 0.65690
# Poissons Ratio (y) = 0.11173 0.42243
# Poissons Ratio (z) = 0.09398 0.41779
#
# Static dielectric constant tensor:
#      x y z
#    x 1.651600 0.000000 0.000000 
#    y 0.000000 1.666330 0.000000 
#    z 0.000000 0.000000 1.633880 
# 
# From -- ./inp_files/38279.got.cif
#   From: 2010.05.17/outbox.cif.g08.bks.cpg/sg53_20_cif.got.tgz:38279.got - 2010.06.03 12:45:16.
