data_PCOD9414318
_publ_section_title
;
Structure prediction by ZEFSAII (Michael W. Deem and Ramdas Pophale) SiO2 
 PCOD9414318
Probable space group: P M N A
;
_chemical_formula_sum "Si O2"
_cell_formula_units_Z 56
_cell_length_a 18.433993
_cell_length_b 8.522755
_cell_length_c 18.767820
_cell_angle_alpha 90.000000
_cell_angle_beta 90.000000
_cell_angle_gamma 90.000000
_cell_volume 2948.582284
_symmetry_space_group_name_H-M "P M N A"
_symmetry_group_IT_number 53
_symmetry_cell_setting 'orthorhombic'
loop_
_space_group_symop_operation_xyz
x,y,z
1/2-x,-y,1/2+z
x,-y,-z
1/2-x,y,1/2-z
-x,-y,-z
1/2+x,y,1/2-z
-x,y,z
1/2+x,-y,1/2+z
loop_
_atom_site_type_symbol
_atom_site_label
_atom_site_fract_x
_atom_site_fract_y
_atom_site_fract_z
Si Si1 0.416585 0.139344 0.328455
Si Si2 0.174485 0.825164 0.971377
Si Si3 0.584323 0.218419 0.730432
Si Si4 0.820313 0.328265 0.892165
Si Si5 0.322232 0.752406 0.796690
Si Si6 0.204248 0.111075 0.677085
Si Si7 0.208645 0.591014 0.567834
O O1 0.500000 0.174816 0.342686
O O2 0.368365 0.173846 0.397356
O O3 0.385912 0.231488 0.260409
O O4 0.410770 0.954844 0.306808
O O5 0.253258 0.749087 0.959780
O O6 0.139855 0.722863 0.035401
O O7 0.177414 0.000000 0.000000
O O8 0.500000 0.256686 0.739839
O O9 0.626905 0.330144 0.675455
O O10 0.629640 0.200132 0.803671
O O11 0.756762 0.198325 0.877678
O O12 0.776915 0.486559 0.906141
O O13 0.250000 0.715211 0.750000
O O14 0.335011 0.632698 0.861114
O O15 0.310003 0.926219 0.831094
O O16 0.250000 0.120916 0.750000
O O17 0.175310 0.500000 0.500000
#
# Coordination Sequence:
#
# PCOD9414318 Si02
#       7
#     8   8   8   8   8   8   8
#     4  10  20  33  54  85 110 141 193 237 281 336
#     4  11  19  33  53  77 109 146 185 229 275 337
#     4   9  17  31  51  78 110 145 184 231 282 335
#     4  10  19  32  50  74 112 146 182 226 280 334
#     4  10  17  33  58  76 105 144 189 245 280 326
#     4   8  16  30  51  78 101 139 188 240 275 324
#     4  10  22  34  52  83 111 144 192 237 288 338
#
# _framework density 18.992177999999999
#
# number of rings (size 3 to 8) (size 9 to 14) (size 15 to 20)
#    0.000    2.286    2.857    1.714    0.000    2.571 
#    0.000    0.714    0.000    3.000    0.000    3.000 
#    0.000   19.429    0.000    0.000    0.000    0.000 
#
# Total GULP energy -312240.217376 kJ/mol
# GULP energy per Si atom -5575.718167 kJ/mol
# Density = 1.894895 g / cm^3
# Si number density = 18.992178 Si / 1000 Ang^3
#
#
#
# Elastic Constant Matrix: (Units=GPa)
#
#
# Indices 1 2 3 4 5 6 
#
# 1 52.4786 7.2843 27.2336 0.0000 0.0000 0.0000
# 2 7.2843 38.7706 36.4446 0.0000 0.0000 0.0000
# 3 27.2336 36.4446 107.4491 0.0000 0.0000 0.0000
# 4 0.0000 0.0000 0.0000 27.4360 0.0000 0.0000
# 5 0.0000 0.0000 0.0000 0.0000 15.0147 0.0000
# 6 0.0000 0.0000 0.0000 0.0000 0.0000 6.0254
#
#
#
# Elastic Compliance Matrix: (Units=1/GPa)
#
#
# Indices 1 2 3 4 5 6 
#
# 1 0.022011 0.001628 -0.006131 0.000000 0.000000 0.000000
# 2 0.001628 0.037986 -0.013297 0.000000 0.000000 0.000000
# 3 -0.006131 -0.013297 0.015371 0.000000 0.000000 0.000000
# 4 0.000000 0.000000 0.000000 0.036448 0.000000 0.000000
# 5 0.000000 0.000000 0.000000 0.000000 0.066602 0.000000
# 6 0.000000 0.000000 0.000000 0.000000 0.000000 0.165965
#
#
# Mechanical properties :
#
#
# Convention : Reuss Voigt Hill
#
# Bulk Modulus (GPa) = 25.14603 37.84705 31.49654
# Shear Modulus (GPa) = 12.71494 18.21092 15.46293
#
# Velocity S-wave (km/s) = 2.59024 3.09991 2.85647
# Velocity P-wave (km/s) = 4.71325 5.72569 5.24397
#
# Compressibility (1/GPa) = 0.03976770
#
# Stress axis : x y z
#
# Youngs Moduli (GPa) = 45.43167 26.32561 65.05936
#
# Poissons Ratio (x) = -0.04285 0.39887
# Poissons Ratio (y) = -0.07394 0.86507
# Poissons Ratio (z) = 0.27854 0.35004
#
# Static dielectric constant tensor:
#      x y z
#    x 1.647760 0.000000 0.000000 
#    y 0.000000 1.724210 0.000000 
#    z 0.000000 0.000000 1.696560 
# 
# From -- ./inp_files/29352.got.cif
#   From: 2010.05.17/outbox.cif.g08.bks.cpg/sg53_15_cif.got.tgz:29352.got - 2010.06.03 12:45:16.
