data_PCOD9414155
_publ_section_title
;
Structure prediction by ZEFSAII (Michael W. Deem and Ramdas Pophale) SiO2 
 PCOD9414155
Probable space group: P M N A
;
_chemical_formula_sum "Si O2"
_cell_formula_units_Z 48
_cell_length_a 8.786834
_cell_length_b 10.468357
_cell_length_c 30.997815
_cell_angle_alpha 90.000000
_cell_angle_beta 90.000000
_cell_angle_gamma 90.000000
_cell_volume 2851.294187
_symmetry_space_group_name_H-M "P M N A"
_symmetry_group_IT_number 53
_symmetry_cell_setting 'orthorhombic'
loop_
_space_group_symop_operation_xyz
x,y,z
1/2-x,-y,1/2+z
x,-y,-z
1/2-x,y,1/2-z
-x,-y,-z
1/2+x,y,1/2-z
-x,y,z
1/2+x,-y,1/2+z
loop_
_atom_site_type_symbol
_atom_site_label
_atom_site_fract_x
_atom_site_fract_y
_atom_site_fract_z
Si Si1 0.316293 0.368641 0.477841
Si Si2 0.681488 0.723150 0.794215
Si Si3 0.181933 0.990076 0.207302
Si Si4 0.683271 0.278367 0.384224
Si Si5 0.318506 0.976084 0.388500
Si Si6 0.318606 0.873794 0.026387
O O1 0.265598 0.500000 0.500000
O O2 0.500000 0.365084 0.478593
O O3 0.271211 0.351892 0.427708
O O4 0.255396 0.249191 0.504753
O O5 0.750000 0.665348 0.750000
O O6 0.500000 0.721291 0.792227
O O7 0.740681 0.672078 0.840191
O O8 0.742379 0.869513 0.794585
O O9 0.250000 0.925599 0.250000
O O10 0.000000 0.005142 0.211527
O O11 0.213153 0.931244 0.160432
O O12 0.500000 0.283918 0.378971
O O13 0.721898 0.127524 0.390939
O O14 0.500000 0.967651 0.395817
O O15 0.232789 0.897384 0.424728
O O16 0.500000 0.863724 0.023671
O O17 0.269372 0.000000 0.000000
#
# Coordination Sequence:
#
# PCOD9414155 Si02
#       6
#     8   8   8   8   8   8
#     4  10  21  37  56  75  98 134 174 210 254 306
#     4  10  17  25  40  63  93 127 161 198 243 294
#     4   9  16  26  40  63  94 128 161 198 247 297
#     4   9  17  30  47  69  97 127 162 204 249 295
#     4   9  17  29  47  69  95 131 168 206 248 295
#     4  11  22  33  49  75 103 132 169 209 252 296
#
# _framework density 16.834461999999998
#
# number of rings (size 3 to 8) (size 9 to 14) (size 15 to 20)
#    0.000    2.333    1.667    4.500    0.000    5.000 
#    0.000    0.000    0.000    0.000    0.000    1.167 
#    0.000    5.333    0.000    0.000    0.000    0.000 
#
# Total GULP energy -267489.228457 kJ/mol
# GULP energy per Si atom -5572.692260 kJ/mol
# Density = 1.679615 g / cm^3
# Si number density = 16.834462 Si / 1000 Ang^3
#
#
#
# Elastic Constant Matrix: (Units=GPa)
#
#
# Indices 1 2 3 4 5 6 
#
# 1 48.0406 21.1082 56.4726 0.0000 0.0000 0.0000
# 2 21.1082 61.5789 52.8943 0.0000 0.0000 0.0000
# 3 56.4726 52.8943 185.3307 0.0000 0.0000 0.0000
# 4 0.0000 0.0000 0.0000 12.2055 0.0000 0.0000
# 5 0.0000 0.0000 0.0000 0.0000 29.1568 0.0000
# 6 0.0000 0.0000 0.0000 0.0000 0.0000 11.8013
#
#
#
# Elastic Compliance Matrix: (Units=1/GPa)
#
#
# Indices 1 2 3 4 5 6 
#
# 1 0.033007 -0.003544 -0.009046 0.000000 0.000000 0.000000
# 2 -0.003544 0.021894 -0.005169 0.000000 0.000000 0.000000
# 3 -0.009046 -0.005169 0.009627 0.000000 0.000000 0.000000
# 4 0.000000 0.000000 0.000000 0.081931 0.000000 0.000000
# 5 0.000000 0.000000 0.000000 0.000000 0.034297 0.000000
# 6 0.000000 0.000000 0.000000 0.000000 0.000000 0.084737
#
#
# Mechanical properties :
#
#
# Convention : Reuss Voigt Hill
#
# Bulk Modulus (GPa) = 34.47021 61.76671 48.11846
# Shear Modulus (GPa) = 16.09373 21.59772 18.84572
#
# Velocity S-wave (km/s) = 3.09528 3.58571 3.34948
# Velocity P-wave (km/s) = 5.77016 7.34257 6.60334
#
# Compressibility (1/GPa) = 0.02901056
#
# Stress axis : x y z
#
# Youngs Moduli (GPa) = 30.29693 45.67479 103.86998
#
# Poissons Ratio (x) = 0.16186 0.93962
# Poissons Ratio (y) = 0.10737 0.53688
# Poissons Ratio (z) = 0.27407 0.23608
#
# Static dielectric constant tensor:
#      x y z
#    x 1.562310 0.000000 0.000000 
#    y 0.000000 1.534210 0.000000 
#    z 0.000000 0.000000 1.629300 
# 
# From -- ./inp_files/37907.got.cif
#   From: 2010.05.17/outbox.cif.g08.bks.cpg/sg53_19_cif.got.tgz:37907.got - 2010.06.03 12:45:16.
