data_PCOD9414563
_publ_section_title
;
Structure prediction by ZEFSAII (Michael W. Deem and Ramdas Pophale) SiO2 
 PCOD9414563
Probable space group: P M N A
;
_chemical_formula_sum "Si O2"
_cell_formula_units_Z 56
_cell_length_a 7.825075
_cell_length_b 14.265116
_cell_length_c 29.223059
_cell_angle_alpha 90.000000
_cell_angle_beta 90.000000
_cell_angle_gamma 90.000000
_cell_volume 3262.041570
_symmetry_space_group_name_H-M "P M N A"
_symmetry_group_IT_number 53
_symmetry_cell_setting 'orthorhombic'
loop_
_space_group_symop_operation_xyz
x,y,z
1/2-x,-y,1/2+z
x,-y,-z
1/2-x,y,1/2-z
-x,-y,-z
1/2+x,y,1/2-z
-x,y,z
1/2+x,-y,1/2+z
loop_
_atom_site_type_symbol
_atom_site_label
_atom_site_fract_x
_atom_site_fract_y
_atom_site_fract_z
Si Si1 0.293518 0.101691 0.015656
Si Si2 0.697123 0.398270 0.051043
Si Si3 0.802416 0.782847 0.898160
Si Si4 0.794725 0.478016 0.300913
Si Si5 0.203709 0.262734 0.301311
Si Si6 0.209687 0.425817 0.608359
Si Si7 0.790683 0.286652 0.535662
O O1 0.500000 0.100369 0.014306
O O2 0.244534 0.134210 0.066850
O O3 0.235144 0.184299 0.981150
O O4 0.230981 0.000000 0.000000
O O5 0.500000 0.421709 0.041437
O O6 0.701847 0.309709 0.085313
O O7 0.769784 0.488846 0.075819
O O8 0.769683 0.359173 0.003681
O O9 0.769641 0.796333 0.844419
O O10 0.000000 0.760876 0.905074
O O11 0.750000 0.509497 0.250000
O O12 0.730287 0.370565 0.306391
O O13 0.732909 0.546386 0.340932
O O14 0.000000 0.472760 0.304420
O O15 0.250000 0.231200 0.250000
O O16 0.000000 0.264831 0.304510
O O17 0.261077 0.328841 0.584407
O O18 0.000000 0.426876 0.608873
O O19 0.000000 0.285748 0.534287
#
# Coordination Sequence:
#
# PCOD9414563 Si02
#       7
#     8   8   8   8   8   8   8
#     4   9  18  33  51  69  89 114 148 193 241 286
#     4   9  15  26  41  60  87 118 149 181 215 256
#     4  11  20  29  44  67  93 124 155 185 226 274
#     4   9  17  27  40  58  84 117 152 184 212 251
#     4  10  18  30  45  65  92 123 157 190 222 262
#     4   9  14  23  40  63  86 113 148 183 217 256
#     4   8  14  23  42  67  86 107 143 186 224 269
#
# _framework density 17.167162999999999
#
# number of rings (size 3 to 8) (size 9 to 14) (size 15 to 20)
#    0.000    2.714    1.429    3.000    0.000    2.571 
#    0.000    0.000    0.000   10.286    0.000    1.000 
#    0.000    2.286    0.000    0.000    0.000    0.000 
#
# Total GULP energy -312005.651426 kJ/mol
# GULP energy per Si atom -5571.529490 kJ/mol
# Density = 1.712809 g / cm^3
# Si number density = 17.167163 Si / 1000 Ang^3
#
#
#
# Elastic Constant Matrix: (Units=GPa)
#
#
# Indices 1 2 3 4 5 6 
#
# 1 29.5737 7.0294 5.5019 0.0000 0.0000 0.0000
# 2 7.0294 86.7380 84.5187 0.0000 0.0000 0.0000
# 3 5.5019 84.5187 136.7159 0.0000 0.0000 0.0000
# 4 0.0000 0.0000 0.0000 17.3998 0.0000 0.0000
# 5 0.0000 0.0000 0.0000 0.0000 17.0180 0.0000
# 6 0.0000 0.0000 0.0000 0.0000 0.0000 2.3241
#
#
#
# Elastic Compliance Matrix: (Units=1/GPa)
#
#
# Indices 1 2 3 4 5 6 
#
# 1 0.034518 -0.003631 0.000856 0.000000 0.000000 0.000000
# 2 -0.003631 0.029378 -0.018015 0.000000 0.000000 0.000000
# 3 0.000856 -0.018015 0.018417 0.000000 0.000000 0.000000
# 4 0.000000 0.000000 0.000000 0.057472 0.000000 0.000000
# 5 0.000000 0.000000 0.000000 0.000000 0.058761 0.000000
# 6 0.000000 0.000000 0.000000 0.000000 0.000000 0.430282
#
#
# Mechanical properties :
#
#
# Convention : Reuss Voigt Hill
#
# Bulk Modulus (GPa) = 24.55138 49.68085 37.11612
# Shear Modulus (GPa) = 7.31008 17.74688 12.52848
#
# Velocity S-wave (km/s) = 2.06577 3.21872 2.70440
# Velocity P-wave (km/s) = 4.47463 6.54338 5.60527
#
# Compressibility (1/GPa) = 0.04073091
#
# Stress axis : x y z
#
# Youngs Moduli (GPa) = 28.97064 34.03953 54.29715
#
# Poissons Ratio (x) = 0.12361 -0.04646
# Poissons Ratio (y) = 0.10520 0.97818
# Poissons Ratio (z) = -0.02479 0.61323
#
# Static dielectric constant tensor:
#      x y z
#    x 1.639950 0.000000 0.000000 
#    y 0.000000 1.569250 0.000000 
#    z 0.000000 0.000000 1.614710 
# 
# From -- ./inp_files/38348.got.cif
#   From: 2010.05.17/outbox.cif.g08.bks.cpg/sg53_20_cif.got.tgz:38348.got - 2010.06.03 12:45:16.
