data_PCOD9414087
_publ_section_title
;
Structure prediction by ZEFSAII (Michael W. Deem and Ramdas Pophale) SiO2 
 PCOD9414087
Probable space group: P M N A
;
_chemical_formula_sum "Si O2"
_cell_formula_units_Z 32
_cell_length_a 5.577063
_cell_length_b 7.171976
_cell_length_c 31.512483
_cell_angle_alpha 90.000000
_cell_angle_beta 90.000000
_cell_angle_gamma 90.000000
_cell_volume 1260.454005
_symmetry_space_group_name_H-M "P M N A"
_symmetry_group_IT_number 53
_symmetry_cell_setting 'orthorhombic'
loop_
_space_group_symop_operation_xyz
x,y,z
1/2-x,-y,1/2+z
x,-y,-z
1/2-x,y,1/2-z
-x,-y,-z
1/2+x,y,1/2-z
-x,y,z
1/2+x,-y,1/2+z
loop_
_atom_site_type_symbol
_atom_site_label
_atom_site_fract_x
_atom_site_fract_y
_atom_site_fract_z
Si Si1 0.000000 0.687903 0.643369
Si Si2 0.500000 0.098843 0.229333
Si Si3 0.500000 0.479011 0.448964
Si Si4 0.500000 0.681462 0.633253
Si Si5 0.500000 0.056667 0.901586
Si Si6 0.000000 0.367829 0.542158
Si Si7 0.500000 0.894025 0.353070
Si Si8 0.500000 0.310907 0.737609
O O1 0.252082 0.584390 0.645416
O O2 0.000000 0.829638 0.682119
O O3 0.000000 0.830639 0.602930
O O4 0.750000 0.159440 0.250000
O O5 0.500000 0.874459 0.232550
O O6 0.500000 0.500000 0.500000
O O7 0.500000 0.298237 0.418467
O O8 0.249779 0.572831 0.437300
O O9 0.500000 0.881987 0.655399
O O10 0.500000 0.144482 0.949315
O O11 0.252592 0.123039 0.878637
O O12 0.000000 0.500000 0.500000
O O13 0.500000 0.773670 0.310083
O O14 0.250000 0.409389 0.750000
#
# Coordination Sequence:
#
# PCOD9414087 Si02
#       8
#     4   4   4   4   4   4   4   4
#     4  10  19  30  50  79 110 136 162 208 263 312
#     4  10  16  25  41  68 110 140 162 192 238 313
#     4  10  21  37  57  75  97 131 173 220 257 299
#     4  10  18  32  51  74 105 133 166 211 258 308
#     4  10  18  32  51  74 105 133 166 211 258 308
#     4  10  21  37  57  75  97 131 173 220 257 299
#     4  10  19  30  50  79 110 136 162 208 263 312
#     4  10  16  25  41  68 110 140 162 192 238 313
#
# _framework density 25.387677
#
# number of rings (size 3 to 8) (size 9 to 14) (size 15 to 20)
#    0.000    2.000    0.000    9.000    0.000    0.000 
#    0.000    0.000    0.000   72.000    0.000    0.000 
#    0.000  244.000    0.000    0.000    0.000    0.000 
#
# Total GULP energy -178172.267014 kJ/mol
# GULP energy per Si atom -5567.883344 kJ/mol
# Density = 2.532989 g / cm^3
# Si number density = 25.387677 Si / 1000 Ang^3
#
#
#
# Elastic Constant Matrix: (Units=GPa)
#
#
# Indices 1 2 3 4 5 6 
#
# 1 319.5780 16.0764 23.3267 0.0000 0.0000 0.0000
# 2 16.0764 50.1269 14.0305 0.0000 0.0000 0.0000
# 3 23.3267 14.0305 56.0284 0.0000 0.0000 0.0000
# 4 0.0000 0.0000 0.0000 28.0073 0.0000 0.0000
# 5 0.0000 0.0000 0.0000 0.0000 -943.8600 0.0000
# 6 0.0000 0.0000 0.0000 0.0000 0.0000 -4.7918
#
#
#
# Elastic Compliance Matrix: (Units=1/GPa)
#
#
# Indices 1 2 3 4 5 6 
#
# 1 0.003251 -0.000714 -0.001175 0.000000 0.000000 0.000000
# 2 -0.000714 0.021610 -0.005114 0.000000 0.000000 0.000000
# 3 -0.001175 -0.005114 0.019618 0.000000 0.000000 0.000000
# 4 0.000000 0.000000 0.000000 0.035705 0.000000 0.000000
# 5 0.000000 0.000000 0.000000 0.000000 -0.001059 0.000000
# 6 0.000000 0.000000 0.000000 0.000000 0.000000 -0.208689
#
#
# Mechanical properties :
#
#
# Convention : Reuss Voigt Hill
#
# Bulk Modulus (GPa) = 32.81602 59.17783 45.99693
# Shear Modulus (GPa) = -47.43758 -159.30891 -103.37324
#
# Velocity S-wave (km/s) = -4.32734 -7.93011 -6.38798
# Velocity P-wave (km/s) = 3.46609 7.77745 6.02090
#
# Compressibility (1/GPa) = 0.03047292
#
# Stress axis : x y z
#
# Youngs Moduli (GPa) = 307.61891 46.27535 50.97392
#
# Poissons Ratio (x) = 0.03303 0.05988
# Poissons Ratio (y) = 0.21957 0.26070
# Poissons Ratio (z) = 0.36135 0.23667
#
# Static dielectric constant tensor:
#      x y z
#    x 2.090490 0.000000 0.000000 
#    y 0.000000 1.990330 0.000000 
#    z 0.000000 0.000000 2.281970 
# 
# From -- ./inp_files/37360.got.cif
#   From: 2010.05.17/outbox.cif.g08.bks.cpg/sg53_19_cif.got.tgz:37360.got - 2010.06.03 12:45:16.
