data_PCOD9414883
_publ_section_title
;
Structure prediction by ZEFSAII (Michael W. Deem and Ramdas Pophale) SiO2 
 PCOD9414883
Probable space group: P M N A
;
_chemical_formula_sum "Si O2"
_cell_formula_units_Z 56
_cell_length_a 7.752399
_cell_length_b 18.284687
_cell_length_c 19.997456
_cell_angle_alpha 90.000000
_cell_angle_beta 90.000000
_cell_angle_gamma 90.000000
_cell_volume 2834.643172
_symmetry_space_group_name_H-M "P M N A"
_symmetry_group_IT_number 53
_symmetry_cell_setting 'orthorhombic'
loop_
_space_group_symop_operation_xyz
x,y,z
1/2-x,-y,1/2+z
x,-y,-z
1/2-x,y,1/2-z
-x,-y,-z
1/2+x,y,1/2-z
-x,y,z
1/2+x,-y,1/2+z
loop_
_atom_site_type_symbol
_atom_site_label
_atom_site_fract_x
_atom_site_fract_y
_atom_site_fract_z
Si Si1 0.207281 0.017659 0.925359
Si Si2 0.210024 0.556428 0.406325
Si Si3 0.295635 0.891799 0.672384
Si Si4 0.292543 0.306478 0.826508
Si Si5 0.210163 0.600380 0.557868
Si Si6 0.706956 0.236923 0.075022
Si Si7 0.207879 0.183789 0.570017
O O1 0.246495 0.101653 0.909828
O O2 0.000000 0.010255 0.927527
O O3 0.276146 0.959491 0.871526
O O4 0.273945 0.000000 0.000000
O O5 0.271016 0.614147 0.351463
O O6 0.254662 0.587800 0.479838
O O7 0.269619 0.472375 0.403339
O O8 0.000000 0.554565 0.404058
O O9 0.250000 0.894553 0.750000
O O10 0.500000 0.896838 0.668545
O O11 0.245588 0.816635 0.635934
O O12 0.250000 0.291837 0.750000
O O13 0.500000 0.307453 0.832555
O O14 0.228746 0.243914 0.877120
O O15 0.271292 0.679725 0.581419
O O16 0.000000 0.600510 0.560729
O O17 0.500000 0.241316 0.069339
O O18 0.771557 0.202194 0.005001
O O19 0.000000 0.188672 0.568248
#
# Coordination Sequence:
#
# PCOD9414883 Si02
#       7
#     8   8   8   8   8   8   8
#     4  10  21  38  58  81 108 138 175 219 266 318
#     4   8  13  25  47  75 105 136 176 221 264 309
#     4  11  24  41  59  80 109 143 177 216 268 325
#     4  10  20  34  50  75 110 146 182 221 267 319
#     4   8  13  24  49  80 104 132 174 224 266 307
#     4  10  18  32  56  85 111 137 177 226 270 314
#     4  10  20  33  54  82 109 138 180 226 264 314
#
# _framework density 19.755572000000001
#
# number of rings (size 3 to 8) (size 9 to 14) (size 15 to 20)
#    0.000    2.429    2.857    1.286    0.000    2.571 
#    0.000    3.571    0.000    2.571    0.000    2.000 
#    0.000    0.000    0.000    0.000    0.000    0.000 
#
# Total GULP energy -312445.435099 kJ/mol
# GULP energy per Si atom -5579.382770 kJ/mol
# Density = 1.971061 g / cm^3
# Si number density = 19.755572 Si / 1000 Ang^3
#
#
#
# Elastic Constant Matrix: (Units=GPa)
#
#
# Indices 1 2 3 4 5 6 
#
# 1 27.8356 8.7599 5.1972 0.0000 0.0000 0.0000
# 2 8.7599 197.7551 94.2650 0.0000 0.0000 0.0000
# 3 5.1972 94.2650 134.3173 0.0000 0.0000 0.0000
# 4 0.0000 0.0000 0.0000 30.9950 0.0000 0.0000
# 5 0.0000 0.0000 0.0000 0.0000 24.1046 0.0000
# 6 0.0000 0.0000 0.0000 0.0000 0.0000 106.7229
#
#
#
# Elastic Compliance Matrix: (Units=1/GPa)
#
#
# Indices 1 2 3 4 5 6 
#
# 1 0.036449 -0.001416 -0.000417 0.000000 0.000000 0.000000
# 2 -0.001416 0.007654 -0.005317 0.000000 0.000000 0.000000
# 3 -0.000417 -0.005317 0.011193 0.000000 0.000000 0.000000
# 4 0.000000 0.000000 0.000000 0.032263 0.000000 0.000000
# 5 0.000000 0.000000 0.000000 0.000000 0.041486 0.000000
# 6 0.000000 0.000000 0.000000 0.000000 0.000000 0.009370
#
#
# Mechanical properties :
#
#
# Convention : Reuss Voigt Hill
#
# Bulk Modulus (GPa) = 24.39241 64.03913 44.21577
# Shear Modulus (GPa) = 30.05202 49.14356 39.59779
#
# Velocity S-wave (km/s) = 3.90448 4.99297 4.48189
# Velocity P-wave (km/s) = 5.71844 8.10715 7.01521
#
# Compressibility (1/GPa) = 0.04099635
#
# Stress axis : x y z
#
# Youngs Moduli (GPa) = 27.43590 130.65325 89.34539
#
# Poissons Ratio (x) = 0.18500 0.03722
# Poissons Ratio (y) = 0.03885 0.47503
# Poissons Ratio (z) = 0.01143 0.69465
#
# Static dielectric constant tensor:
#      x y z
#    x 1.733310 0.000000 0.000000 
#    y 0.000000 1.715550 0.000000 
#    z 0.000000 0.000000 1.654110 
# 
# From -- ./inp_files/30972.got.cif
#   From: 2010.05.17/outbox.cif.g08.bks.cpg/sg53_16_cif.got.tgz:30972.got - 2010.06.03 12:45:16.
