data_PCOD9414510
_publ_section_title
;
Structure prediction by ZEFSAII (Michael W. Deem and Ramdas Pophale) SiO2 
 PCOD9414510
Probable space group: P M N A
;
_chemical_formula_sum "Si O2"
_cell_formula_units_Z 64
_cell_length_a 9.378229
_cell_length_b 24.280881
_cell_length_c 15.021233
_cell_angle_alpha 90.000000
_cell_angle_beta 90.000000
_cell_angle_gamma 90.000000
_cell_volume 3420.509937
_symmetry_space_group_name_H-M "P M N A"
_symmetry_group_IT_number 53
_symmetry_cell_setting 'orthorhombic'
loop_
_space_group_symop_operation_xyz
x,y,z
1/2-x,-y,1/2+z
x,-y,-z
1/2-x,y,1/2-z
-x,-y,-z
1/2+x,y,1/2-z
-x,y,z
1/2+x,-y,1/2+z
loop_
_atom_site_type_symbol
_atom_site_label
_atom_site_fract_x
_atom_site_fract_y
_atom_site_fract_z
Si Si1 0.342527 0.375073 0.540416
Si Si2 0.667622 0.983586 0.604171
Si Si3 0.659741 0.551798 0.929698
Si Si4 0.169625 0.733349 0.155230
Si Si5 0.664618 0.815899 0.027894
Si Si6 0.344555 0.474228 0.675635
Si Si7 0.172787 0.129298 0.342798
Si Si8 0.333708 0.910631 0.169362
O O1 0.500000 0.363845 0.500659
O O2 0.221024 0.392133 0.471492
O O3 0.310083 0.326330 0.608905
O O4 0.355178 0.431633 0.595622
O O5 0.500000 0.978358 0.629364
O O6 0.753931 0.928181 0.626693
O O7 0.672319 0.000000 0.500000
O O8 0.747500 0.033530 0.652708
O O9 0.500000 0.559771 0.897639
O O10 0.767427 0.529036 0.856456
O O11 0.654057 0.500000 0.000000
O O12 0.250000 0.736872 0.250000
O O13 0.233318 0.775708 0.082878
O O14 0.000000 0.742100 0.168483
O O15 0.500000 0.796423 0.034295
O O16 0.671503 0.873730 0.081057
O O17 0.697911 0.828300 0.924693
O O18 0.250000 0.446153 0.750000
O O19 0.500000 0.485767 0.711429
O O20 0.250000 0.144799 0.250000
O O21 0.000000 0.123260 0.332710
O O22 0.250000 0.881158 0.250000
O O23 0.500000 0.919757 0.191326
#
# Coordination Sequence:
#
# PCOD9414510 Si02
#       8
#     8   8   8   8   8   8   8   8
#     4   9  19  34  51  75 106 143 181 222 272 324
#     4  11  22  36  57  85 115 148 185 225 272 328
#     4   9  17  29  47  72 101 136 177 219 266 320
#     4  11  23  38  59  85 115 148 187 233 283 339
#     4  10  23  41  60  82 111 147 186 232 283 333
#     4  10  18  29  47  72 107 144 180 221 266 320
#     4  11  23  41  63  87 114 146 186 231 280 334
#     4  11  22  37  56  80 112 149 185 223 273 330
#
# _framework density 18.710660000000001
#
# number of rings (size 3 to 8) (size 9 to 14) (size 15 to 20)
#    0.000    1.750    1.250    3.375    0.000    6.500 
#    0.000    0.000    0.000    0.750    0.000    1.750 
#    0.000    0.000    0.000    0.000    0.000    0.000 
#
# Total GULP energy -356833.757829 kJ/mol
# GULP energy per Si atom -5575.527466 kJ/mol
# Density = 1.866807 g / cm^3
# Si number density = 18.710660 Si / 1000 Ang^3
#
#
#
# Elastic Constant Matrix: (Units=GPa)
#
#
# Indices 1 2 3 4 5 6 
#
# 1 151.8025 58.9536 54.6122 0.0000 0.0000 0.0000
# 2 58.9536 66.1400 36.2476 0.0000 0.0000 0.0000
# 3 54.6122 36.2476 87.3975 0.0000 0.0000 0.0000
# 4 0.0000 0.0000 0.0000 22.7782 0.0000 0.0000
# 5 0.0000 0.0000 0.0000 0.0000 26.4450 0.0000
# 6 0.0000 0.0000 0.0000 0.0000 0.0000 20.1946
#
#
#
# Elastic Compliance Matrix: (Units=1/GPa)
#
#
# Indices 1 2 3 4 5 6 
#
# 1 0.010883 -0.007731 -0.003594 0.000000 0.000000 0.000000
# 2 -0.007731 0.025058 -0.005562 0.000000 0.000000 0.000000
# 3 -0.003594 -0.005562 0.015995 0.000000 0.000000 0.000000
# 4 0.000000 0.000000 0.000000 0.043902 0.000000 0.000000
# 5 0.000000 0.000000 0.000000 0.000000 0.037814 0.000000
# 6 0.000000 0.000000 0.000000 0.000000 0.000000 0.049518
#
#
# Mechanical properties :
#
#
# Convention : Reuss Voigt Hill
#
# Bulk Modulus (GPa) = 55.05975 67.21855 61.13915
# Shear Modulus (GPa) = 22.42173 24.25198 23.33686
#
# Velocity S-wave (km/s) = 3.46546 3.60413 3.53547
# Velocity P-wave (km/s) = 6.74562 7.30225 7.02945
#
# Compressibility (1/GPa) = 0.01816209
#
# Stress axis : x y z
#
# Youngs Moduli (GPa) = 91.88859 39.90677 62.52056
#
# Poissons Ratio (x) = 0.30850 0.22471
# Poissons Ratio (y) = 0.71035 0.34775
# Poissons Ratio (z) = 0.33026 0.22197
#
# Static dielectric constant tensor:
#      x y z
#    x 1.660420 0.000000 0.000000 
#    y 0.000000 1.630190 0.000000 
#    z 0.000000 0.000000 1.711110 
# 
# From -- ./inp_files/21007.got.cif
#   From: 2010.05.17/outbox.cif.g08.bks.cpg/sg53_11_cif.got.tgz:21007.got - 2010.06.03 12:45:16.
