data_PCOD9414190
_publ_section_title
;
Structure prediction by ZEFSAII (Michael W. Deem and Ramdas Pophale) SiO2 
 PCOD9414190
Probable space group: P M N A
;
_chemical_formula_sum "Si O2"
_cell_formula_units_Z 64
_cell_length_a 13.896892
_cell_length_b 14.962940
_cell_length_c 17.854154
_cell_angle_alpha 90.000000
_cell_angle_beta 90.000000
_cell_angle_gamma 90.000000
_cell_volume 3712.563523
_symmetry_space_group_name_H-M "P M N A"
_symmetry_group_IT_number 53
_symmetry_cell_setting 'orthorhombic'
loop_
_space_group_symop_operation_xyz
x,y,z
1/2-x,-y,1/2+z
x,-y,-z
1/2-x,y,1/2-z
-x,-y,-z
1/2+x,y,1/2-z
-x,y,z
1/2+x,-y,1/2+z
loop_
_atom_site_type_symbol
_atom_site_label
_atom_site_fract_x
_atom_site_fract_y
_atom_site_fract_z
Si Si1 0.111069 0.761851 0.738402
Si Si2 0.710731 0.146427 0.499139
Si Si3 0.113357 0.033681 0.280703
Si Si4 0.114293 0.454582 0.581154
Si Si5 0.609186 0.706408 0.592083
Si Si6 0.789400 0.009050 0.874698
Si Si7 0.803804 0.624133 0.629183
Si Si8 0.387560 0.725573 0.011690
O O1 0.138975 0.860785 0.711954
O O2 0.114328 0.758091 0.828261
O O3 0.172495 0.684476 0.700588
O O4 0.000000 0.747315 0.716867
O O5 0.639740 0.225291 0.473018
O O6 0.711946 0.074689 0.431647
O O7 0.815173 0.191829 0.510175
O O8 0.684276 0.093851 0.574465
O O9 0.140638 0.006887 0.195746
O O10 0.183319 0.983060 0.337859
O O11 0.000000 0.022616 0.294109
O O12 0.134410 0.500000 0.500000
O O13 0.167446 0.521087 0.637430
O O14 0.138831 0.350107 0.573665
O O15 0.000000 0.460326 0.593448
O O16 0.500000 0.673666 0.582937
O O17 0.694385 0.634562 0.600869
O O18 0.869823 0.672693 0.566144
O O19 0.500000 0.748633 0.018684
#
# Coordination Sequence:
#
# PCOD9414190 Si02
#       8
#     8   8   8   8   8   8   8   8
#     4  10  18  28  46  72  99 129 163 202 259 317
#     4  10  20  34  50  71 102 138 171 223 261 308
#     4  10  20  34  50  71 101 133 168 218 264 313
#     4   8  14  26  44  69  97 123 157 198 238 298
#     4  10  20  31  44  68 101 135 172 206 247 309
#     4  10  21  33  50  74 100 131 179 218 265 316
#     4  10  17  26  46  70  99 131 161 201 252 302
#     4   9  17  29  47  71  99 130 165 207 258 303
#
# _framework density 17.238762000000001
#
# number of rings (size 3 to 8) (size 9 to 14) (size 15 to 20)
#    0.000    2.375    1.250    3.750    1.750    2.500 
#    0.000    2.500    0.000    9.375    6.500    0.000 
#    0.000    0.000    0.000    0.000    0.000    0.000 
#
# Total GULP energy -356560.556029 kJ/mol
# GULP energy per Si atom -5571.258688 kJ/mol
# Density = 1.719953 g / cm^3
# Si number density = 17.238762 Si / 1000 Ang^3
#
#
#
# Elastic Constant Matrix: (Units=GPa)
#
#
# Indices 1 2 3 4 5 6 
#
# 1 57.8186 2.0901 8.1342 0.0000 0.0000 0.0000
# 2 2.0901 34.4989 13.8151 0.0000 0.0000 0.0000
# 3 8.1342 13.8151 56.7801 0.0000 0.0000 0.0000
# 4 0.0000 0.0000 0.0000 6980.4877 0.0000 0.0000
# 5 0.0000 0.0000 0.0000 0.0000 15.9738 0.0000
# 6 0.0000 0.0000 0.0000 0.0000 0.0000 11.6849
#
#
#
# Elastic Compliance Matrix: (Units=1/GPa)
#
#
# Indices 1 2 3 4 5 6 
#
# 1 0.017651 -0.000063 -0.002513 0.000000 0.000000 0.000000
# 2 -0.000063 0.032116 -0.007805 0.000000 0.000000 0.000000
# 3 -0.002513 -0.007805 0.019871 0.000000 0.000000 0.000000
# 4 0.000000 0.000000 0.000000 0.000143 0.000000 0.000000
# 5 0.000000 0.000000 0.000000 0.000000 0.062603 0.000000
# 6 0.000000 0.000000 0.000000 0.000000 0.000000 0.085581
#
#
# Mechanical properties :
#
#
# Convention : Reuss Voigt Hill
#
# Bulk Modulus (GPa) = 20.46021 21.90848 21.18435
# Shear Modulus (GPa) = 19.60640 1409.96650 714.78645
#
# Velocity S-wave (km/s) = 3.37611 28.63006 20.38478
# Velocity P-wave (km/s) = 5.20500 33.25122 23.79848
#
# Compressibility (1/GPa) = 0.04887535
#
# Stress axis : x y z
#
# Youngs Moduli (GPa) = 56.65289 31.13740 50.32491
#
# Poissons Ratio (x) = 0.00196 0.12649
# Poissons Ratio (y) = 0.00356 0.39279
# Poissons Ratio (z) = 0.14239 0.24303
#
# Static dielectric constant tensor:
#      x y z
#    x 1.598740 0.000000 0.000000 
#    y 0.000000 1.604380 0.000000 
#    z 0.000000 0.000000 1.613140 
# 
# From -- ./inp_files/28633.got.cif
#   From: 2010.05.17/outbox.cif.g08.bks.cpg/sg53_15_cif.got.tgz:28633.got - 2010.06.03 12:45:16.
