data_PCOD9414975
_publ_section_title
;
Structure prediction by ZEFSAII (Michael W. Deem and Ramdas Pophale) SiO2 
 PCOD9414975
Probable space group: P M N A
;
_chemical_formula_sum "Si O2"
_cell_formula_units_Z 28
_cell_length_a 15.227525
_cell_length_b 7.486487
_cell_length_c 11.571844
_cell_angle_alpha 90.000000
_cell_angle_beta 90.000000
_cell_angle_gamma 90.000000
_cell_volume 1319.197945
_symmetry_space_group_name_H-M "P M N A"
_symmetry_group_IT_number 53
_symmetry_cell_setting 'orthorhombic'
loop_
_space_group_symop_operation_xyz
x,y,z
1/2-x,-y,1/2+z
x,-y,-z
1/2-x,y,1/2-z
-x,-y,-z
1/2+x,y,1/2-z
-x,y,z
1/2+x,-y,1/2+z
loop_
_atom_site_type_symbol
_atom_site_label
_atom_site_fract_x
_atom_site_fract_y
_atom_site_fract_z
Si Si1 0.666265 0.855805 0.907914
Si Si2 0.132906 0.088992 0.157967
Si Si3 0.094461 0.292600 0.923187
Si Si4 0.751826 0.500000 0.500000
O O1 0.763628 0.924749 0.872224
O O2 0.617004 0.840701 0.786249
O O3 0.687700 0.661752 0.959010
O O4 0.630757 0.000000 0.000000
O O5 0.099667 0.887195 0.150664
O O6 0.097755 0.213324 0.054612
O O7 0.000000 0.379782 0.901451
O O8 0.180694 0.415124 0.909678
#
# Coordination Sequence:
#
# PCOD9414975 Si02
#       4
#     8   8   8   4
#     4  10  18  34  50  77 116 139 176 225 275 334
#     4   9  17  32  51  79 108 141 178 219 276 319
#     4  10  18  34  56  81 109 142 184 223 268 325
#     4  10  19  34  52  82 109 146 178 226 276 320
#
# _framework density 21.225017999999999
#
# number of rings (size 3 to 8) (size 9 to 14) (size 15 to 20)
#    0.000    2.286    5.714    2.143    0.000    0.000 
#   20.571    0.000    0.000    3.429    0.000    4.000 
#    0.000    0.286    0.000    0.000    0.000    0.000 
#
# Total GULP energy -156020.046065 kJ/mol
# GULP energy per Si atom -5572.144502 kJ/mol
# Density = 2.117671 g / cm^3
# Si number density = 21.225018 Si / 1000 Ang^3
#
#
#
# Elastic Constant Matrix: (Units=GPa)
#
#
# Indices 1 2 3 4 5 6 
#
# 1 26.6962 8.7010 6.0074 0.0000 0.0000 0.0000
# 2 8.7010 138.2488 29.5147 0.0000 0.0000 0.0000
# 3 6.0074 29.5147 88.3525 0.0000 0.0000 0.0000
# 4 0.0000 0.0000 0.0000 11.5767 0.0000 0.0000
# 5 0.0000 0.0000 0.0000 0.0000 7.0159 0.0000
# 6 0.0000 0.0000 0.0000 0.0000 0.0000 -535.3246
#
#
#
# Elastic Compliance Matrix: (Units=1/GPa)
#
#
# Indices 1 2 3 4 5 6 
#
# 1 0.038552 -0.002010 -0.001950 0.000000 0.000000 0.000000
# 2 -0.002010 0.007894 -0.002500 0.000000 0.000000 0.000000
# 3 -0.001950 -0.002500 0.012286 0.000000 0.000000 0.000000
# 4 0.000000 0.000000 0.000000 0.086381 0.000000 0.000000
# 5 0.000000 0.000000 0.000000 0.000000 0.142534 0.000000
# 6 0.000000 0.000000 0.000000 0.000000 0.000000 -0.001868
#
#
# Mechanical properties :
#
#
# Convention : Reuss Voigt Hill
#
# Bulk Modulus (GPa) = 21.82843 37.97151 29.89997
# Shear Modulus (GPa) = 15.92510 -89.40812 -36.74151
#
# Velocity S-wave (km/s) = 2.74213 -6.49734 -4.16510
# Velocity P-wave (km/s) = 4.50914 6.19341 3.00217
#
# Compressibility (1/GPa) = 0.04581182
#
# Stress axis : x y z
#
# Youngs Moduli (GPa) = 25.93869 126.68460 81.39279
#
# Poissons Ratio (x) = 0.25465 0.15870
# Poissons Ratio (y) = 0.05214 0.20350
# Poissons Ratio (z) = 0.05058 0.31674
#
# Static dielectric constant tensor:
#      x y z
#    x 1.796760 0.000000 0.000000 
#    y 0.000000 1.786840 0.000000 
#    z 0.000000 0.000000 1.810730 
# 
# From -- ./inp_files/16466.got.cif
#   From: 2010.05.17/outbox.cif.g08.bks.cpg/sg53_9_cif.got.tgz:16466.got - 2010.06.03 12:45:16.
