data_PCOD9414016
_publ_section_title
;
Structure prediction by ZEFSAII (Michael W. Deem and Ramdas Pophale) SiO2 
 PCOD9414016
Probable space group: P N N A
;
_chemical_formula_sum "Si O2"
_cell_formula_units_Z 60
_cell_length_a 12.000000
_cell_length_b 27.000000
_cell_length_c 9.000000
_cell_angle_alpha 90.000000
_cell_angle_beta 90.000000
_cell_angle_gamma 90.000000
_cell_volume 2916.000000
_symmetry_space_group_name_H-M "P N N A"
_symmetry_group_IT_number 52
_symmetry_cell_setting 'orthorhombic'
loop_
_space_group_symop_operation_xyz
x,y,z
1/2-x,-y,z
x,1/2-y,1/2-z
1/2-x,1/2+y,1/2-z
-x,-y,-z
1/2+x,y,-z
-x,1/2+y,1/2+z
1/2+x,1/2-y,1/2+z
loop_
_atom_site_type_symbol
_atom_site_label
_atom_site_fract_x
_atom_site_fract_y
_atom_site_fract_z
Si Si1 0.160792 0.646818 0.692223
Si Si2 0.250000 0.500000 0.788308
Si Si3 0.247582 0.077577 0.245898
Si Si4 0.044538 0.369525 0.079368
Si Si5 0.408755 0.042139 0.474692
Si Si6 0.054995 0.861816 0.106900
Si Si7 0.880866 0.804948 0.314084
Si Si8 0.653056 0.431128 0.433872
O O1 0.253862 0.677861 0.780754
O O2 0.243996 0.603049 0.629964
O O3 0.053440 0.638641 0.798753
O O4 0.101926 0.665451 0.540164
O O5 0.342191 0.524233 0.681834
O O6 0.317709 0.462123 0.892975
O O7 0.151779 0.102719 0.348283
O O8 0.330242 0.040719 0.331860
O O9 0.334816 0.119248 0.189844
O O10 0.188226 0.056069 0.100589
O O11 0.085946 0.322538 0.981645
O O12 0.982122 0.408294 0.971319
O O13 0.500000 0.000000 0.500000
O O14 0.973878 0.831175 0.211966
O O15 0.968487 0.905790 0.060332
O O16 0.885195 0.750000 0.250000
#
# Coordination Sequence:
#
# PCOD9414016 Si02
#       8
#     8   4   8   8   8   8   8   8
#     4  10  22  44  69  95 131 180 223 278 348 417
#     4  12  24  38  62 102 140 176 236 294 330 404
#     4  11  23  42  68  98 133 192 232 282 351 426
#     4  12  23  44  71  99 137 184 230 282 361 408
#     4  12  25  40  62 100 142 186 235 289 337 419
#     4  10  21  45  70  95 131 178 233 278 352 415
#     4  11  26  44  71 103 136 172 226 291 353 425
#     4  10  22  41  67  95 138 183 233 284 343 404
#
# _framework density 20.576132000000001
#
# number of rings (size 3 to 8) (size 9 to 14) (size 15 to 20)
#    0.000    1.067    4.000    2.400    3.733    2.667 
#    0.000    2.667    0.000    0.000    0.000    0.000 
#    0.000    0.000    0.000    0.000    0.000    0.000 
#
# Total GULP energy -334487.886683 kJ/mol
# GULP energy per Si atom -5574.798111 kJ/mol
# Density = 2.052930 g / cm^3
# Si number density = 20.576132 Si / 1000 Ang^3
#
#
#
# Elastic Constant Matrix: (Units=GPa)
#
#
# Indices 1 2 3 4 5 6 
#
# 1 137.1999 13.4913 34.7656 0.0000 0.0000 0.0000
# 2 13.4913 44.5471 27.3910 0.0000 0.0000 0.0000
# 3 34.7656 27.3910 98.7242 0.0000 0.0000 0.0000
# 4 0.0000 0.0000 0.0000 18.1158 0.0000 0.0000
# 5 0.0000 0.0000 0.0000 0.0000 38.5468 0.0000
# 6 0.0000 0.0000 0.0000 0.0000 0.0000 16.3908
#
#
#
# Elastic Compliance Matrix: (Units=1/GPa)
#
#
# Indices 1 2 3 4 5 6 
#
# 1 0.008028 -0.000836 -0.002595 0.000000 0.000000 0.000000
# 2 -0.000836 0.027152 -0.007239 0.000000 0.000000 0.000000
# 3 -0.002595 -0.007239 0.013052 0.000000 0.000000 0.000000
# 4 0.000000 0.000000 0.000000 0.055201 0.000000 0.000000
# 5 0.000000 0.000000 0.000000 0.000000 0.025943 0.000000
# 6 0.000000 0.000000 0.000000 0.000000 0.000000 0.061010
#
#
# Mechanical properties :
#
#
# Convention : Reuss Voigt Hill
#
# Bulk Modulus (GPa) = 37.18544 47.97410 42.57977
# Shear Modulus (GPa) = 22.65624 28.26556 25.46090
#
# Velocity S-wave (km/s) = 3.32187 3.71038 3.52149
# Velocity P-wave (km/s) = 5.72926 6.45925 6.10518
#
# Compressibility (1/GPa) = 0.02689225
#
# Stress axis : x y z
#
# Youngs Moduli (GPa) = 124.55698 36.82915 76.61850
#
# Poissons Ratio (x) = 0.03078 0.19885
# Poissons Ratio (y) = 0.10408 0.55465
# Poissons Ratio (z) = 0.32327 0.26661
#
# Static dielectric constant tensor:
#      x y z
#    x 1.675380 0.000000 0.000000 
#    y 0.000000 1.796190 0.000000 
#    z 0.000000 0.000000 1.778240 
# 
# From -- ./inp_files/9032.got.cif
#   From: 2010.05.17/outbox.ucp.g08.bks.cvg/sg52_5_cif.got.tgz:9032.got - 2010.06.11 16:30:12.
