data_PCOD9414822
_publ_section_title
;
Structure prediction by ZEFSAII (Michael W. Deem and Ramdas Pophale) SiO2 
 PCOD9414822
Probable space group: P M N A
;
_chemical_formula_sum "Si O2"
_cell_formula_units_Z 64
_cell_length_a 8.787926
_cell_length_b 22.512615
_cell_length_c 19.279197
_cell_angle_alpha 90.000000
_cell_angle_beta 90.000000
_cell_angle_gamma 90.000000
_cell_volume 3814.180809
_symmetry_space_group_name_H-M "P M N A"
_symmetry_group_IT_number 53
_symmetry_cell_setting 'orthorhombic'
loop_
_space_group_symop_operation_xyz
x,y,z
1/2-x,-y,1/2+z
x,-y,-z
1/2-x,y,1/2-z
-x,-y,-z
1/2+x,y,1/2-z
-x,y,z
1/2+x,-y,1/2+z
loop_
_atom_site_type_symbol
_atom_site_label
_atom_site_fract_x
_atom_site_fract_y
_atom_site_fract_z
Si Si1 0.177824 0.024886 0.610796
Si Si2 0.319438 0.442613 0.548930
Si Si3 0.681565 0.136840 0.676364
Si Si4 0.680275 0.501712 0.822734
Si Si5 0.185113 0.677658 0.971008
Si Si6 0.177583 0.909927 0.539067
Si Si7 0.316932 0.198298 0.533073
Si Si8 0.183119 0.367114 0.175864
O O1 0.268668 0.068883 0.660446
O O2 0.184009 0.056169 0.535105
O O3 0.000000 0.023062 0.631407
O O4 0.232641 0.957583 0.596338
O O5 0.300584 0.500000 0.500000
O O6 0.500000 0.438021 0.564953
O O7 0.225845 0.456395 0.617530
O O8 0.270308 0.382807 0.510068
O O9 0.750000 0.155768 0.750000
O O10 0.500000 0.140115 0.679573
O O11 0.734560 0.175641 0.609424
O O12 0.750000 0.481441 0.750000
O O13 0.500000 0.509527 0.817432
O O14 0.756816 0.565929 0.837298
O O15 0.229789 0.672164 0.890312
O O16 0.000000 0.678574 0.971481
O O17 0.238202 0.736767 0.010111
O O18 0.266611 0.849712 0.524461
O O19 0.000000 0.897633 0.553068
O O20 0.500000 0.199110 0.535473
O O21 0.250000 0.347997 0.250000
O O22 0.000000 0.369044 0.179817
#
# Coordination Sequence:
#
# PCOD9414822 Si02
#       8
#     8   8   8   8   8   8   8   8
#     4   8  14  26  45  68  94 121 153 191 239 284
#     4  10  18  33  54  74  98 132 168 207 260 310
#     4  10  19  30  47  70  98 130 169 210 252 292
#     4  11  21  33  50  74 102 129 160 202 253 309
#     4   9  18  33  53  73  99 133 170 206 251 307
#     4   8  14  26  45  69  95 122 149 191 241 285
#     4   9  18  32  49  71  96 131 173 211 244 295
#     4  10  18  32  52  75  98 125 157 196 248 305
#
# _framework density 16.779488000000001
#
# number of rings (size 3 to 8) (size 9 to 14) (size 15 to 20)
#    0.000    2.625    1.250    3.375    0.000    1.250 
#    0.000    5.000    0.000    2.250    0.000    3.500 
#    0.000    0.000    0.000    0.000    0.000    0.000 
#
# Total GULP energy -356473.292783 kJ/mol
# GULP energy per Si atom -5569.895200 kJ/mol
# Density = 1.674130 g / cm^3
# Si number density = 16.779488 Si / 1000 Ang^3
#
#
#
# Elastic Constant Matrix: (Units=GPa)
#
#
# Indices 1 2 3 4 5 6 
#
# 1 42.6383 27.0576 34.5121 0.0000 0.0000 0.0000
# 2 27.0576 109.5481 56.9328 0.0000 0.0000 0.0000
# 3 34.5121 56.9328 107.2336 0.0000 0.0000 0.0000
# 4 0.0000 0.0000 0.0000 18.2881 0.0000 0.0000
# 5 0.0000 0.0000 0.0000 0.0000 22.7672 0.0000
# 6 0.0000 0.0000 0.0000 0.0000 0.0000 100.1766
#
#
#
# Elastic Compliance Matrix: (Units=1/GPa)
#
#
# Indices 1 2 3 4 5 6 
#
# 1 0.032713 -0.003602 -0.008616 0.000000 0.000000 0.000000
# 2 -0.003602 0.013004 -0.005745 0.000000 0.000000 0.000000
# 3 -0.008616 -0.005745 0.015148 0.000000 0.000000 0.000000
# 4 0.000000 0.000000 0.000000 0.054680 0.000000 0.000000
# 5 0.000000 0.000000 0.000000 0.000000 0.043923 0.000000
# 6 0.000000 0.000000 0.000000 0.000000 0.000000 0.009982
#
#
# Mechanical properties :
#
#
# Convention : Reuss Voigt Hill
#
# Bulk Modulus (GPa) = 40.09697 55.15836 47.62767
# Shear Modulus (GPa) = 23.39854 37.64088 30.51971
#
# Velocity S-wave (km/s) = 3.73832 4.74145 4.26945
# Velocity P-wave (km/s) = 6.52546 7.93215 7.26294
#
# Compressibility (1/GPa) = 0.02493954
#
# Stress axis : x y z
#
# Youngs Moduli (GPa) = 30.56908 76.90170 66.01398
#
# Poissons Ratio (x) = 0.27701 0.56877
# Poissons Ratio (y) = 0.11011 0.37922
# Poissons Ratio (z) = 0.26338 0.44177
#
# Static dielectric constant tensor:
#      x y z
#    x 1.565900 0.000000 0.000000 
#    y 0.000000 1.572690 0.000000 
#    z 0.000000 0.000000 1.578800 
# 
# From -- ./inp_files/31387.got.cif
#   From: 2010.05.17/outbox.cif.g08.bks.cpg/sg53_16_cif.got.tgz:31387.got - 2010.06.03 12:45:16.
