data_PCOD9414946
_publ_section_title
;
Structure prediction by ZEFSAII (Michael W. Deem and Ramdas Pophale) SiO2 
 PCOD9414946
Probable space group: P M N A
;
_chemical_formula_sum "Si O2"
_cell_formula_units_Z 48
_cell_length_a 9.280319
_cell_length_b 17.382270
_cell_length_c 15.259143
_cell_angle_alpha 90.000000
_cell_angle_beta 90.000000
_cell_angle_gamma 90.000000
_cell_volume 2461.498296
_symmetry_space_group_name_H-M "P M N A"
_symmetry_group_IT_number 53
_symmetry_cell_setting 'orthorhombic'
loop_
_space_group_symop_operation_xyz
x,y,z
1/2-x,-y,1/2+z
x,-y,-z
1/2-x,y,1/2-z
-x,-y,-z
1/2+x,y,1/2-z
-x,y,z
1/2+x,-y,1/2+z
loop_
_atom_site_type_symbol
_atom_site_label
_atom_site_fract_x
_atom_site_fract_y
_atom_site_fract_z
Si Si1 0.668867 0.909567 0.491061
Si Si2 0.664911 0.498471 0.392832
Si Si3 0.329691 0.191608 0.335828
Si Si4 0.671936 0.177998 0.838090
Si Si5 0.333163 0.649631 0.106664
Si Si6 0.332199 0.654637 0.894275
O O1 0.500000 0.899869 0.466247
O O2 0.689999 0.865469 0.582581
O O3 0.768741 0.870523 0.419019
O O4 0.697478 0.000000 0.500000
O O5 0.665689 0.500000 0.500000
O O6 0.500000 0.490094 0.364269
O O7 0.733521 0.579228 0.364660
O O8 0.760778 0.425690 0.365969
O O9 0.250000 0.160886 0.250000
O O10 0.500000 0.201373 0.320660
O O11 0.256888 0.273295 0.358698
O O12 0.750000 0.152111 0.750000
O O13 0.500000 0.171870 0.831370
O O14 0.708160 0.267880 0.854867
O O15 0.500000 0.633027 0.128533
O O16 0.325232 0.656625 0.000653
O O17 0.500000 0.659192 0.868935
#
# Coordination Sequence:
#
# PCOD9414946 Si02
#       6
#     8   8   8   8   8   8
#     4  10  23  44  68  94 124 158 198 247 304 365
#     4   9  17  28  48  81 116 154 203 251 300 353
#     4  11  23  39  62  90 123 159 200 248 300 361
#     4  11  23  40  63  93 126 163 205 250 303 362
#     4   9  18  33  54  81 116 158 203 251 302 354
#     4  10  18  33  56  82 117 157 203 252 301 356
#
# _framework density 19.500318
#
# number of rings (size 3 to 8) (size 9 to 14) (size 15 to 20)
#    0.000    2.000    1.667    2.000    0.000    5.667 
#    0.000    2.500    0.000    2.000    0.000    0.000 
#    0.000    0.000    0.000    0.000    0.000    0.000 
#
# Total GULP energy -268313.203016 kJ/mol
# GULP energy per Si atom -5589.858396 kJ/mol
# Density = 1.945593 g / cm^3
# Si number density = 19.500318 Si / 1000 Ang^3
#
#
#
# Elastic Constant Matrix: (Units=GPa)
#
#
# Indices 1 2 3 4 5 6 
#
# 1 128.9149 82.2889 63.3747 0.0000 0.0000 0.0000
# 2 82.2889 117.9928 41.2729 0.0000 0.0000 0.0000
# 3 63.3747 41.2729 73.2859 0.0000 0.0000 0.0000
# 4 0.0000 0.0000 0.0000 -14.4941 0.0000 0.0000
# 5 0.0000 0.0000 0.0000 0.0000 25.2167 0.0000
# 6 0.0000 0.0000 0.0000 0.0000 0.0000 29.5102
#
#
#
# Elastic Compliance Matrix: (Units=1/GPa)
#
#
# Indices 1 2 3 4 5 6 
#
# 1 0.019533 -0.009607 -0.011482 0.000000 0.000000 0.000000
# 2 -0.009607 0.015279 -0.000297 0.000000 0.000000 0.000000
# 3 -0.011482 -0.000297 0.023741 0.000000 0.000000 0.000000
# 4 0.000000 0.000000 0.000000 -0.068994 0.000000 0.000000
# 5 0.000000 0.000000 0.000000 0.000000 0.039656 0.000000
# 6 0.000000 0.000000 0.000000 0.000000 0.000000 0.033887
#
#
# Mechanical properties :
#
#
# Convention : Reuss Voigt Hill
#
# Bulk Modulus (GPa) = 63.36003 77.11853 70.23928
# Shear Modulus (GPa) = 44.99052 16.93037 30.96044
#
# Velocity S-wave (km/s) = 4.80851 2.94974 3.98890
# Velocity P-wave (km/s) = 7.96187 7.15782 7.57053
#
# Compressibility (1/GPa) = 0.01578282
#
# Stress axis : x y z
#
# Youngs Moduli (GPa) = 51.19415 65.45032 42.12056
#
# Poissons Ratio (x) = 0.62876 0.48361
# Poissons Ratio (y) = 0.49180 0.01252
# Poissons Ratio (z) = 0.58779 0.01945
#
# Static dielectric constant tensor:
#      x y z
#    x 1.648550 0.000000 0.000000 
#    y 0.000000 1.641310 0.000000 
#    z 0.000000 0.000000 1.704900 
# 
# From -- ./inp_files/20174.got.cif
#   From: 2010.05.17/outbox.cif.g08.bks.cpg/sg53_11_cif.got.tgz:20174.got - 2010.06.03 12:45:16.
