data_PCOD9414564
_publ_section_title
;
Structure prediction by ZEFSAII (Michael W. Deem and Ramdas Pophale) SiO2 
 PCOD9414564
Probable space group: P M N A
;
_chemical_formula_sum "Si O2"
_cell_formula_units_Z 64
_cell_length_a 8.876147
_cell_length_b 18.903068
_cell_length_c 26.799633
_cell_angle_alpha 90.000000
_cell_angle_beta 90.000000
_cell_angle_gamma 90.000000
_cell_volume 4496.614219
_symmetry_space_group_name_H-M "P M N A"
_symmetry_group_IT_number 53
_symmetry_cell_setting 'orthorhombic'
loop_
_space_group_symop_operation_xyz
x,y,z
1/2-x,-y,1/2+z
x,-y,-z
1/2-x,y,1/2-z
-x,-y,-z
1/2+x,y,1/2-z
-x,y,z
1/2+x,-y,1/2+z
loop_
_atom_site_type_symbol
_atom_site_label
_atom_site_fract_x
_atom_site_fract_y
_atom_site_fract_z
Si Si1 0.819366 0.667882 0.196124
Si Si2 0.819211 0.915706 0.398231
Si Si3 0.174881 0.955882 0.948094
Si Si4 0.826795 0.457799 0.052723
Si Si5 0.318533 0.830563 0.002387
Si Si6 0.318295 0.822302 0.196591
Si Si7 0.179695 0.414385 0.605018
Si Si8 0.318859 0.332222 0.997757
O O1 0.750000 0.648265 0.250000
O O2 0.751779 0.745637 0.184288
O O3 0.764905 0.615312 0.153036
O O4 0.000000 0.671246 0.199127
O O5 0.773125 0.864515 0.444259
O O6 0.779857 0.877885 0.346592
O O7 0.000000 0.922376 0.400607
O O8 0.748502 0.992442 0.407572
O O9 0.000000 0.944793 0.937455
O O10 0.255077 0.881863 0.959670
O O11 0.188069 0.000000 0.000000
O O12 0.732863 0.506993 0.090097
O O13 0.000000 0.451732 0.068805
O O14 0.824421 0.500000 0.000000
O O15 0.755771 0.382384 0.039096
O O16 0.500000 0.832086 0.000573
O O17 0.270089 0.749208 0.998940
O O18 0.250000 0.843071 0.250000
O O19 0.500000 0.815702 0.199588
O O20 0.215797 0.364598 0.557003
O O21 0.000000 0.412001 0.612591
O O22 0.500000 0.335714 0.003074
#
# Coordination Sequence:
#
# PCOD9414564 Si02
#       8
#     8   8   8   8   8   8   8   8
#     4  11  21  32  45  62  85 112 143 178 215 250
#     4   9  17  29  44  59  79 111 145 173 204 247
#     4   9  17  27  39  58  82 106 135 172 211 247
#     4   9  17  28  41  60  85 111 140 174 211 249
#     4   9  16  27  42  59  81 110 143 173 204 246
#     4  10  19  31  45  62  84 110 142 177 212 247
#     4  10  18  30  46  62  83 112 146 178 210 249
#     4   9  17  28  43  62  84 113 145 175 208 249
#
# _framework density 14.232931000000001
#
# number of rings (size 3 to 8) (size 9 to 14) (size 15 to 20)
#    0.000    2.500    0.000    4.125    0.000    7.000 
#    0.000    2.500    0.000    0.000    0.000    0.000 
#    0.000    1.000    0.000    5.250    0.000    5.000 
#
# Total GULP energy -356716.038047 kJ/mol
# GULP energy per Si atom -5573.688094 kJ/mol
# Density = 1.420054 g / cm^3
# Si number density = 14.232931 Si / 1000 Ang^3
#
#
#
# Elastic Constant Matrix: (Units=GPa)
#
#
# Indices 1 2 3 4 5 6 
#
# 1 58.6261 40.6616 37.6263 0.0000 0.0000 0.0000
# 2 40.6616 114.4935 50.8090 0.0000 0.0000 0.0000
# 3 37.6263 50.8090 73.2611 0.0000 0.0000 0.0000
# 4 0.0000 0.0000 0.0000 25.0801 0.0000 0.0000
# 5 0.0000 0.0000 0.0000 0.0000 18.6927 0.0000
# 6 0.0000 0.0000 0.0000 0.0000 0.0000 20.3711
#
#
#
# Elastic Compliance Matrix: (Units=1/GPa)
#
#
# Indices 1 2 3 4 5 6 
#
# 1 0.027304 -0.005018 -0.010543 0.000000 0.000000 0.000000
# 2 -0.005018 0.013540 -0.006813 0.000000 0.000000 0.000000
# 3 -0.010543 -0.006813 0.023789 0.000000 0.000000 0.000000
# 4 0.000000 0.000000 0.000000 0.039872 0.000000 0.000000
# 5 0.000000 0.000000 0.000000 0.000000 0.053497 0.000000
# 6 0.000000 0.000000 0.000000 0.000000 0.000000 0.049089
#
#
# Mechanical properties :
#
#
# Convention : Reuss Voigt Hill
#
# Bulk Modulus (GPa) = 50.28831 56.06383 53.17607
# Shear Modulus (GPa) = 19.34474 20.64769 19.99622
#
# Velocity S-wave (km/s) = 3.69067 3.81294 3.75230
# Velocity P-wave (km/s) = 7.31918 7.67205 7.49769
#
# Compressibility (1/GPa) = 0.01988534
#
# Stress axis : x y z
#
# Youngs Moduli (GPa) = 36.62438 73.85688 42.03537
#
# Poissons Ratio (x) = 0.37064 0.44317
# Poissons Ratio (y) = 0.18379 0.28638
# Poissons Ratio (z) = 0.38613 0.50318
#
# Static dielectric constant tensor:
#      x y z
#    x 1.477070 0.000000 0.000000 
#    y 0.000000 1.461070 0.000000 
#    z 0.000000 0.000000 1.451820 
# 
# From -- ./inp_files/34414.got.cif
#   From: 2010.05.17/outbox.cif.g08.bks.cpg/sg53_18_cif.got.tgz:34414.got - 2010.06.03 12:45:16.
