data_PCOD9414998
_publ_section_title
;
Structure prediction by ZEFSAII (Michael W. Deem and Ramdas Pophale) SiO2 
 PCOD9414998
Probable space group: P M N A
;
_chemical_formula_sum "Si O2"
_cell_formula_units_Z 64
_cell_length_a 16.933059
_cell_length_b 20.893836
_cell_length_c 9.974825
_cell_angle_alpha 90.000000
_cell_angle_beta 90.000000
_cell_angle_gamma 90.000000
_cell_volume 3529.058749
_symmetry_space_group_name_H-M "P M N A"
_symmetry_group_IT_number 53
_symmetry_cell_setting 'orthorhombic'
loop_
_space_group_symop_operation_xyz
x,y,z
1/2-x,-y,1/2+z
x,-y,-z
1/2-x,y,1/2-z
-x,-y,-z
1/2+x,y,1/2-z
-x,y,z
1/2+x,-y,1/2+z
loop_
_atom_site_type_symbol
_atom_site_label
_atom_site_fract_x
_atom_site_fract_y
_atom_site_fract_z
Si Si1 0.323591 0.680290 0.061001
Si Si2 0.909741 0.278990 0.062224
Si Si3 0.234168 0.060458 0.905319
Si Si4 0.320127 0.816104 0.139215
Si Si5 0.592327 0.844054 0.393743
Si Si6 0.596198 0.366121 0.203874
Si Si7 0.091232 0.501186 0.161220
Si Si8 0.349057 0.636549 0.342913
O O1 0.322851 0.756466 0.040529
O O2 0.365610 0.672687 0.204706
O O3 0.236037 0.654251 0.094492
O O4 0.364665 0.643642 0.940244
O O5 0.874477 0.309398 0.196907
O O6 0.000000 0.263577 0.094520
O O7 0.878871 0.215798 0.986632
O O8 0.907698 0.337319 0.955652
O O9 0.250000 0.042551 0.750000
O O10 0.296626 0.117786 0.931244
O O11 0.148948 0.095244 0.917416
O O12 0.241334 0.000000 0.000000
O O13 0.250000 0.803802 0.250000
O O14 0.394208 0.824904 0.237932
O O15 0.500000 0.855767 0.418504
O O16 0.500000 0.363568 0.195073
O O17 0.616069 0.434421 0.271973
O O18 0.143555 0.562514 0.194201
O O19 0.000000 0.513082 0.201933
O O20 0.092890 0.500000 0.000000
#
# Coordination Sequence:
#
# PCOD9414998 Si02
#       8
#     8   8   8   8   8   8   8   8
#     4  11  22  37  54  83 116 139 177 245 282 323
#     4  10  18  34  57  80 105 142 190 227 269 333
#     4   9  19  36  57  80 113 149 184 219 264 328
#     4   9  16  35  58  76 112 147 187 219 263 334
#     4   9  17  30  58  88 108 140 191 234 264 315
#     4  10  23  39  55  81 114 147 182 230 292 336
#     4  10  20  39  59  74 101 145 190 230 276 349
#     4  11  20  36  57  79 104 143 192 226 280 329
#
# _framework density 18.135148000000001
#
# number of rings (size 3 to 8) (size 9 to 14) (size 15 to 20)
#    0.000    2.375    3.750    1.125    0.000    2.750 
#    6.750    1.250    0.000    6.000    0.000    0.000 
#    0.000    0.000    0.000    0.000    0.000    0.000 
#
# Total GULP energy -356457.390583 kJ/mol
# GULP energy per Si atom -5569.646728 kJ/mol
# Density = 1.809387 g / cm^3
# Si number density = 18.135148 Si / 1000 Ang^3
#
#
#
# Elastic Constant Matrix: (Units=GPa)
#
#
# Indices 1 2 3 4 5 6 
#
# 1 23.9766 34.1422 31.1767 0.0000 0.0000 0.0000
# 2 34.1422 147.1171 57.0828 0.0000 0.0000 0.0000
# 3 31.1767 57.0828 87.6985 0.0000 0.0000 0.0000
# 4 0.0000 0.0000 0.0000 38.8223 0.0000 0.0000
# 5 0.0000 0.0000 0.0000 0.0000 22.0476 0.0000
# 6 0.0000 0.0000 0.0000 0.0000 0.0000 13.1417
#
#
#
# Elastic Compliance Matrix: (Units=1/GPa)
#
#
# Indices 1 2 3 4 5 6 
#
# 1 0.089693 -0.011297 -0.024533 0.000000 0.000000 0.000000
# 2 -0.011297 0.010517 -0.002829 0.000000 0.000000 0.000000
# 3 -0.024533 -0.002829 0.021966 0.000000 0.000000 0.000000
# 4 0.000000 0.000000 0.000000 0.025758 0.000000 0.000000
# 5 0.000000 0.000000 0.000000 0.000000 0.045356 0.000000
# 6 0.000000 0.000000 0.000000 0.000000 0.000000 0.076094
#
#
# Mechanical properties :
#
#
# Convention : Reuss Voigt Hill
#
# Bulk Modulus (GPa) = 22.29253 55.95505 39.12379
# Shear Modulus (GPa) = 13.82534 23.89504 18.86019
#
# Velocity S-wave (km/s) = 2.76406 3.63383 3.22837
# Velocity P-wave (km/s) = 4.74404 6.96618 5.95960
#
# Compressibility (1/GPa) = 0.04485807
#
# Stress axis : x y z
#
# Youngs Moduli (GPa) = 11.14911 95.08583 45.52532
#
# Poissons Ratio (x) = 1.07414 1.11687
# Poissons Ratio (y) = 0.12595 0.12881
# Poissons Ratio (z) = 0.27352 0.26904
#
# Static dielectric constant tensor:
#      x y z
#    x 1.671660 0.000000 0.000000 
#    y 0.000000 1.664860 0.000000 
#    z 0.000000 0.000000 1.625420 
# 
# From -- ./inp_files/10255.got.cif
#   From: 2010.05.17/outbox.cif.g08.bks.cpg/sg53_6_cif.got.tgz:10255.got - 2010.06.03 12:45:16.
