data_PCOD9414872
_publ_section_title
;
Structure prediction by ZEFSAII (Michael W. Deem and Ramdas Pophale) SiO2 
 PCOD9414872
Probable space group: P M N A
;
_chemical_formula_sum "Si O2"
_cell_formula_units_Z 64
_cell_length_a 7.956543
_cell_length_b 14.911351
_cell_length_c 25.559423
_cell_angle_alpha 90.000000
_cell_angle_beta 90.000000
_cell_angle_gamma 90.000000
_cell_volume 3032.441650
_symmetry_space_group_name_H-M "P M N A"
_symmetry_group_IT_number 53
_symmetry_cell_setting 'orthorhombic'
loop_
_space_group_symop_operation_xyz
x,y,z
1/2-x,-y,1/2+z
x,-y,-z
1/2-x,y,1/2-z
-x,-y,-z
1/2+x,y,1/2-z
-x,y,z
1/2+x,-y,1/2+z
loop_
_atom_site_type_symbol
_atom_site_label
_atom_site_fract_x
_atom_site_fract_y
_atom_site_fract_z
Si Si1 0.796816 0.201305 0.691068
Si Si2 0.199847 0.653772 0.392998
Si Si3 0.808278 0.806094 0.807005
Si Si4 0.293600 0.524875 0.940487
Si Si5 0.198174 0.275485 0.414860
Si Si6 0.306661 0.024560 0.557307
Si Si7 0.698801 0.795720 0.021045
Si Si8 0.306753 0.999356 0.831077
O O1 0.750000 0.226291 0.750000
O O2 0.733541 0.276739 0.650468
O O3 0.000000 0.196352 0.684862
O O4 0.736809 0.098480 0.681685
O O5 0.265597 0.553521 0.401117
O O6 0.215035 0.701541 0.449451
O O7 0.000000 0.646294 0.382043
O O8 0.750000 0.774792 0.750000
O O9 0.717924 0.764338 0.857344
O O10 0.787857 0.913867 0.808632
O O11 0.000000 0.781925 0.813830
O O12 0.500000 0.524046 0.939820
O O13 0.236471 0.623495 0.922767
O O14 0.244702 0.500000 0.000000
O O15 0.264573 0.212540 0.461888
O O16 0.000000 0.280340 0.426435
O O17 0.500000 0.994869 0.562104
O O18 0.295452 0.131755 0.555224
O O19 0.240197 0.000000 0.500000
O O20 0.203327 0.990287 0.606173
O O21 0.500000 0.820018 0.022704
O O22 0.500000 0.994250 0.813578
#
# Coordination Sequence:
#
# PCOD9414872 Si02
#       8
#     8   8   8   8   8   8   8   8
#     4  10  21  36  56  81 113 150 190 234 284 338
#     4   9  16  31  53  83 118 149 185 236 288 337
#     4  12  26  44  63  84 116 156 199 248 294 345
#     4   9  15  28  57  92 121 148 189 240 287 345
#     4  10  20  35  61  94 120 152 195 242 298 354
#     4  11  23  35  49  77 118 159 195 235 289 348
#     4  10  18  32  55  82 116 152 191 236 287 350
#     4  11  22  39  62  86 112 148 196 247 295 348
#
# _framework density 21.105105999999999
#
# number of rings (size 3 to 8) (size 9 to 14) (size 15 to 20)
#    0.000    1.750    2.500    3.000    0.000    5.500 
#    0.000    0.625    0.000    3.375    0.000    0.000 
#    0.000    0.000    0.000    0.000    0.000    0.000 
#
# Total GULP energy -357331.502469 kJ/mol
# GULP energy per Si atom -5583.304726 kJ/mol
# Density = 2.105707 g / cm^3
# Si number density = 21.105106 Si / 1000 Ang^3
#
#
#
# Elastic Constant Matrix: (Units=GPa)
#
#
# Indices 1 2 3 4 5 6 
#
# 1 20.5039 -1.6223 -6.6586 0.0000 0.0000 0.0000
# 2 -1.6223 78.4830 28.0430 0.0000 0.0000 0.0000
# 3 -6.6586 28.0430 115.8996 0.0000 0.0000 0.0000
# 4 0.0000 0.0000 0.0000 25.2837 0.0000 0.0000
# 5 0.0000 0.0000 0.0000 0.0000 4.1068 0.0000
# 6 0.0000 0.0000 0.0000 0.0000 0.0000 1.9682
#
#
#
# Elastic Compliance Matrix: (Units=1/GPa)
#
#
# Indices 1 2 3 4 5 6 
#
# 1 0.049698 0.000008 0.002853 0.000000 0.000000 0.000000
# 2 0.000008 0.013947 -0.003374 0.000000 0.000000 0.000000
# 3 0.002853 -0.003374 0.009609 0.000000 0.000000 0.000000
# 4 0.000000 0.000000 0.000000 0.039551 0.000000 0.000000
# 5 0.000000 0.000000 0.000000 0.000000 0.243501 0.000000
# 6 0.000000 0.000000 0.000000 0.000000 0.000000 0.508086
#
#
# Mechanical properties :
#
#
# Convention : Reuss Voigt Hill
#
# Bulk Modulus (GPa) = 13.84506 28.26789 21.05648
# Shear Modulus (GPa) = 5.62117 19.28003 12.45060
#
# Velocity S-wave (km/s) = 1.63377 3.02574 2.43149
# Velocity P-wave (km/s) = 3.18327 5.06258 4.22865
#
# Compressibility (1/GPa) = 0.07222791
#
# Stress axis : x y z
#
# Youngs Moduli (GPa) = 20.12140 71.69777 104.07432
#
# Poissons Ratio (x) = -0.00055 -0.29696
# Poissons Ratio (y) = -0.00016 0.35117
# Poissons Ratio (z) = -0.05741 0.24193
#
# Static dielectric constant tensor:
#      x y z
#    x 1.744330 0.000000 0.000000 
#    y 0.000000 1.807130 0.000000 
#    z 0.000000 0.000000 1.695730 
# 
# From -- ./inp_files/34164.got.cif
#   From: 2010.05.17/outbox.cif.g08.bks.cpg/sg53_18_cif.got.tgz:34164.got - 2010.06.03 12:45:16.
