data_PCOD9414440
_publ_section_title
;
Structure prediction by ZEFSAII (Michael W. Deem and Ramdas Pophale) SiO2 
 PCOD9414440
Probable space group: P M N A
;
_chemical_formula_sum "Si O2"
_cell_formula_units_Z 64
_cell_length_a 8.819117
_cell_length_b 21.122709
_cell_length_c 21.057021
_cell_angle_alpha 90.000000
_cell_angle_beta 90.000000
_cell_angle_gamma 90.000000
_cell_volume 3922.578562
_symmetry_space_group_name_H-M "P M N A"
_symmetry_group_IT_number 53
_symmetry_cell_setting 'orthorhombic'
loop_
_space_group_symop_operation_xyz
x,y,z
1/2-x,-y,1/2+z
x,-y,-z
1/2-x,y,1/2-z
-x,-y,-z
1/2+x,y,1/2-z
-x,y,z
1/2+x,-y,1/2+z
loop_
_atom_site_type_symbol
_atom_site_label
_atom_site_fract_x
_atom_site_fract_y
_atom_site_fract_z
Si Si1 0.680804 0.483548 0.183742
Si Si2 0.176030 0.782943 0.849528
Si Si3 0.818095 0.675975 0.996149
Si Si4 0.181885 0.658190 0.644616
Si Si5 0.682594 0.062946 0.460087
Si Si6 0.678678 0.194275 0.015245
Si Si7 0.675353 0.074637 0.314775
Si Si8 0.817736 0.454966 0.940899
O O1 0.750000 0.505895 0.250000
O O2 0.500000 0.487615 0.185736
O O3 0.722290 0.409589 0.173499
O O4 0.742562 0.521309 0.123381
O O5 0.236994 0.717559 0.821804
O O6 0.281320 0.794129 0.910700
O O7 0.181875 0.848581 0.812355
O O8 0.000000 0.774782 0.869010
O O9 0.780386 0.617511 0.041936
O O10 0.000000 0.678135 0.988929
O O11 0.743110 0.659872 0.927935
O O12 0.757514 0.744928 0.017133
O O13 0.000000 0.665822 0.645264
O O14 0.500000 0.072416 0.457338
O O15 0.753124 0.124419 0.494320
O O16 0.735079 0.058084 0.385924
O O17 0.714888 0.000000 0.500000
O O18 0.500000 0.195204 0.004338
O O19 0.750000 0.050036 0.250000
O O20 0.500000 0.055448 0.313990
O O21 0.000000 0.460416 0.935088
O O22 0.771627 0.500000 0.000000
#
# Coordination Sequence:
#
# PCOD9414440 Si02
#       8
#     8   8   8   8   8   8   8   8
#     4  11  24  37  50  68  97 132 167 211 260 314
#     4   9  17  29  44  62  89 128 168 200 233 278
#     4  10  18  30  51  74  98 129 163 204 250 299
#     4  10  19  30  45  68  94 125 164 206 248 287
#     4   9  18  34  53  72  98 133 170 203 240 291
#     4  10  18  28  45  72 103 128 158 201 245 290
#     4   9  18  30  45  67  93 125 162 198 236 277
#     4  10  20  35  55  77  98 126 167 213 259 306
#
# _framework density 16.315798000000001
#
# number of rings (size 3 to 8) (size 9 to 14) (size 15 to 20)
#    0.000    2.250    1.250    4.875    0.000    6.000 
#    0.000    2.500    0.000    0.000    0.000    0.875 
#    0.000    2.000    0.000    0.000    0.000    0.000 
#
# Total GULP energy -356615.449335 kJ/mol
# GULP energy per Si atom -5572.116396 kJ/mol
# Density = 1.627866 g / cm^3
# Si number density = 16.315798 Si / 1000 Ang^3
#
#
#
# Elastic Constant Matrix: (Units=GPa)
#
#
# Indices 1 2 3 4 5 6 
#
# 1 35.8439 35.6841 29.9182 0.0000 0.0000 0.0000
# 2 35.6841 105.7756 49.3088 0.0000 0.0000 0.0000
# 3 29.9182 49.3088 89.2204 0.0000 0.0000 0.0000
# 4 0.0000 0.0000 0.0000 8.8443 0.0000 0.0000
# 5 0.0000 0.0000 0.0000 0.0000 11.4440 0.0000
# 6 0.0000 0.0000 0.0000 0.0000 0.0000 22.2602
#
#
#
# Elastic Compliance Matrix: (Units=1/GPa)
#
#
# Indices 1 2 3 4 5 6 
#
# 1 0.047300 -0.011535 -0.009486 0.000000 0.000000 0.000000
# 2 -0.011535 0.015548 -0.004725 0.000000 0.000000 0.000000
# 3 -0.009486 -0.004725 0.017000 0.000000 0.000000 0.000000
# 4 0.000000 0.000000 0.000000 0.113067 0.000000 0.000000
# 5 0.000000 0.000000 0.000000 0.000000 0.087382 0.000000
# 6 0.000000 0.000000 0.000000 0.000000 0.000000 0.044923
#
#
# Mechanical properties :
#
#
# Convention : Reuss Voigt Hill
#
# Bulk Modulus (GPa) = 35.26501 51.18470 43.22485
# Shear Modulus (GPa) = 12.94784 16.23828 14.59306
#
# Velocity S-wave (km/s) = 2.82011 3.15818 2.99392
# Velocity P-wave (km/s) = 5.68022 6.68866 6.20496
#
# Compressibility (1/GPa) = 0.02835672
#
# Stress axis : x y z
#
# Youngs Moduli (GPa) = 21.14156 64.31753 58.82216
#
# Poissons Ratio (x) = 0.74190 0.55800
# Poissons Ratio (y) = 0.24387 0.27792
# Poissons Ratio (z) = 0.20055 0.30388
#
# Static dielectric constant tensor:
#      x y z
#    x 1.551420 0.000000 0.000000 
#    y 0.000000 1.578920 0.000000 
#    z 0.000000 0.000000 1.559440 
# 
# From -- ./inp_files/31384.got.cif
#   From: 2010.05.17/outbox.cif.g08.bks.cpg/sg53_16_cif.got.tgz:31384.got - 2010.06.03 12:45:16.
