data_PCOD9414982
_publ_section_title
;
Structure prediction by ZEFSAII (Michael W. Deem and Ramdas Pophale) SiO2 
 PCOD9414982
Probable space group: P M N A
;
_chemical_formula_sum "Si O2"
_cell_formula_units_Z 60
_cell_length_a 9.257241
_cell_length_b 12.025702
_cell_length_c 30.935896
_cell_angle_alpha 90.000000
_cell_angle_beta 90.000000
_cell_angle_gamma 90.000000
_cell_volume 3443.933103
_symmetry_space_group_name_H-M "P M N A"
_symmetry_group_IT_number 53
_symmetry_cell_setting 'orthorhombic'
loop_
_space_group_symop_operation_xyz
x,y,z
1/2-x,-y,1/2+z
x,-y,-z
1/2-x,y,1/2-z
-x,-y,-z
1/2+x,y,1/2-z
-x,y,z
1/2+x,-y,1/2+z
loop_
_atom_site_type_symbol
_atom_site_label
_atom_site_fract_x
_atom_site_fract_y
_atom_site_fract_z
Si Si1 0.163445 0.405340 0.324089
Si Si2 0.673315 0.262714 0.390088
Si Si3 0.170419 0.837484 0.533739
Si Si4 0.665178 0.921202 0.675148
Si Si5 0.326029 0.157443 0.649589
Si Si6 0.672452 0.657898 0.204580
Si Si7 0.171786 0.906390 0.438138
Si Si8 0.250000 0.236795 0.250000
O O1 0.270024 0.365299 0.361724
O O2 0.196241 0.528710 0.307546
O O3 0.172602 0.319611 0.283662
O O4 0.000000 0.402760 0.340894
O O5 0.500000 0.262992 0.390883
O O6 0.737852 0.246808 0.437458
O O7 0.731098 0.156331 0.362130
O O8 0.201545 0.840344 0.482628
O O9 0.000000 0.815553 0.539346
O O10 0.196894 0.963606 0.550653
O O11 0.500000 0.936305 0.661777
O O12 0.667344 0.848272 0.718464
O O13 0.721669 0.046382 0.676584
O O14 0.500000 0.172624 0.651603
O O15 0.244613 0.262569 0.669295
O O16 0.270725 0.132405 0.601221
O O17 0.750000 0.680753 0.250000
O O18 0.500000 0.676149 0.207586
O O19 0.000000 0.894444 0.428036
#
# Coordination Sequence:
#
# PCOD9414982 Si02
#       8
#     8   8   8   8   8   8   8   4
#     4  10  21  37  58  80 106 141 185 231 278 325
#     4  10  19  32  53  82 115 144 176 221 274 326
#     4   9  17  31  53  81 114 147 184 221 270 329
#     4   9  19  32  47  74 110 141 173 215 266 324
#     4  11  22  37  54  79 114 150 186 226 272 326
#     4  11  24  42  60  81 106 144 193 236 274 321
#     4   9  18  33  53  79 111 150 186 224 268 327
#     4  10  18  34  54  78 106 136 182 218 274 326
#
# _framework density 17.421942000000001
#
# number of rings (size 3 to 8) (size 9 to 14) (size 15 to 20)
#    0.000    2.133    2.000    2.400    0.933    2.133 
#    0.000    2.667    0.000    0.800    0.000    5.600 
#    0.000    0.000    0.000    0.000    0.000    0.000 
#
# Total GULP energy -334269.662214 kJ/mol
# GULP energy per Si atom -5571.161037 kJ/mol
# Density = 1.738229 g / cm^3
# Si number density = 17.421942 Si / 1000 Ang^3
#
#
#
# Elastic Constant Matrix: (Units=GPa)
#
#
# Indices 1 2 3 4 5 6 
#
# 1 67.3749 41.5982 48.8870 0.0000 0.0000 0.0000
# 2 41.5982 68.5509 51.7677 0.0000 0.0000 0.0000
# 3 48.8870 51.7677 83.6725 0.0000 0.0000 0.0000
# 4 0.0000 0.0000 0.0000 21.7875 0.0000 0.0000
# 5 0.0000 0.0000 0.0000 0.0000 31.5781 0.0000
# 6 0.0000 0.0000 0.0000 0.0000 0.0000 21.0270
#
#
#
# Elastic Compliance Matrix: (Units=1/GPa)
#
#
# Indices 1 2 3 4 5 6 
#
# 1 0.028342 -0.008809 -0.011109 0.000000 0.000000 0.000000
# 2 -0.008809 0.030118 -0.013487 0.000000 0.000000 0.000000
# 3 -0.011109 -0.013487 0.026786 0.000000 0.000000 0.000000
# 4 0.000000 0.000000 0.000000 0.045898 0.000000 0.000000
# 5 0.000000 0.000000 0.000000 0.000000 0.031668 0.000000
# 6 0.000000 0.000000 0.000000 0.000000 0.000000 0.047558
#
#
# Mechanical properties :
#
#
# Convention : Reuss Voigt Hill
#
# Bulk Modulus (GPa) = 54.24189 56.01157 55.12673
# Shear Modulus (GPa) = 17.64749 20.03487 18.84118
#
# Velocity S-wave (km/s) = 3.18613 3.39481 3.29213
# Velocity P-wave (km/s) = 6.68858 6.89827 6.79423
#
# Compressibility (1/GPa) = 0.01843593
#
# Stress axis : x y z
#
# Youngs Moduli (GPa) = 35.28332 33.20219 37.33245
#
# Poissons Ratio (x) = 0.29249 0.41473
# Poissons Ratio (y) = 0.31082 0.50351
# Poissons Ratio (z) = 0.39196 0.44780
#
# Static dielectric constant tensor:
#      x y z
#    x 1.592070 0.000000 0.000000 
#    y 0.000000 1.602600 0.000000 
#    z 0.000000 0.000000 1.593260 
# 
# From -- ./inp_files/38052.got.cif
#   From: 2010.05.17/outbox.cif.g08.bks.cpg/sg53_20_cif.got.tgz:38052.got - 2010.06.03 12:45:16.
