data_PCOD9414830
_publ_section_title
;
Structure prediction by ZEFSAII (Michael W. Deem and Ramdas Pophale) SiO2 
 PCOD9414830
Probable space group: P M N A
;
_chemical_formula_sum "Si O2"
_cell_formula_units_Z 48
_cell_length_a 8.010594
_cell_length_b 15.860475
_cell_length_c 20.975846
_cell_angle_alpha 90.000000
_cell_angle_beta 90.000000
_cell_angle_gamma 90.000000
_cell_volume 2665.019534
_symmetry_space_group_name_H-M "P M N A"
_symmetry_group_IT_number 53
_symmetry_cell_setting 'orthorhombic'
loop_
_space_group_symop_operation_xyz
x,y,z
1/2-x,-y,1/2+z
x,-y,-z
1/2-x,y,1/2-z
-x,-y,-z
1/2+x,y,1/2-z
-x,y,z
1/2+x,-y,1/2+z
loop_
_atom_site_type_symbol
_atom_site_label
_atom_site_fract_x
_atom_site_fract_y
_atom_site_fract_z
Si Si1 0.695717 0.236367 0.005397
Si Si2 0.299154 0.623160 0.818173
Si Si3 0.804352 0.809791 0.653554
Si Si4 0.795025 0.419849 0.458910
Si Si5 0.802969 0.068880 0.549794
Si Si6 0.308819 0.005776 0.319753
O O1 0.500000 0.247842 0.988521
O O2 0.768596 0.162690 0.961226
O O3 0.702826 0.198835 0.077014
O O4 0.764547 0.331114 0.010733
O O5 0.250000 0.585611 0.750000
O O6 0.500000 0.627257 0.820934
O O7 0.238041 0.720458 0.821086
O O8 0.244205 0.579596 0.884222
O O9 0.712351 0.893125 0.675685
O O10 0.000000 0.818891 0.671121
O O11 0.741740 0.500000 0.500000
O O12 0.000000 0.418459 0.458952
O O13 0.000000 0.076065 0.534332
O O14 0.731857 0.000000 0.500000
O O15 0.786918 0.034775 0.620975
O O16 0.250000 0.978798 0.250000
O O17 0.500000 0.983251 0.328278
#
# Coordination Sequence:
#
# PCOD9414830 Si02
#       6
#     8   8   8   8   8   8
#     4   8  14  26  47  71  93 123 158 192 235 285
#     4   9  17  27  44  68  96 125 154 190 233 287
#     4   9  16  30  47  67  95 126 158 189 233 288
#     4   8  14  26  46  72  97 121 157 199 233 274
#     4  10  18  32  53  71  94 129 164 199 238 283
#     4  12  24  34  46  67  97 130 167 206 245 287
#
# _framework density 18.011125
#
# number of rings (size 3 to 8) (size 9 to 14) (size 15 to 20)
#    0.000    2.667    1.667    4.000    0.000    2.333 
#    0.000    0.000    0.000    1.500    0.000    2.333 
#    0.000    0.000    0.000    0.000    0.000    0.000 
#
# Total GULP energy -267457.122078 kJ/mol
# GULP energy per Si atom -5572.023377 kJ/mol
# Density = 1.797013 g / cm^3
# Si number density = 18.011125 Si / 1000 Ang^3
#
#
#
# Elastic Constant Matrix: (Units=GPa)
#
#
# Indices 1 2 3 4 5 6 
#
# 1 10.8838 5.5213 -6.7820 0.0000 0.0000 0.0000
# 2 5.5213 107.6501 74.1824 0.0000 0.0000 0.0000
# 3 -6.7820 74.1824 115.9926 0.0000 0.0000 0.0000
# 4 0.0000 0.0000 0.0000 25.3983 0.0000 0.0000
# 5 0.0000 0.0000 0.0000 0.0000 15.7122 0.0000
# 6 0.0000 0.0000 0.0000 0.0000 0.0000 4.5507
#
#
#
# Elastic Compliance Matrix: (Units=1/GPa)
#
#
# Indices 1 2 3 4 5 6 
#
# 1 0.112702 -0.018455 0.018392 0.000000 0.000000 0.000000
# 2 -0.018455 0.019631 -0.013634 0.000000 0.000000 0.000000
# 3 0.018392 -0.013634 0.018416 0.000000 0.000000 0.000000
# 4 0.000000 0.000000 0.000000 0.039373 0.000000 0.000000
# 5 0.000000 0.000000 0.000000 0.000000 0.063645 0.000000
# 6 0.000000 0.000000 0.000000 0.000000 0.000000 0.219744
#
#
# Mechanical properties :
#
#
# Convention : Reuss Voigt Hill
#
# Bulk Modulus (GPa) = 8.10658 42.26333 25.18495
# Shear Modulus (GPa) = 9.22470 19.90591 14.56531
#
# Velocity S-wave (km/s) = 2.26557 3.32806 2.84682
# Velocity P-wave (km/s) = 3.36962 6.18741 4.98189
#
# Compressibility (1/GPa) = 0.12335663
#
# Stress axis : x y z
#
# Youngs Moduli (GPa) = 8.87294 50.93931 54.30000
#
# Poissons Ratio (x) = 0.94007 -0.99870
# Poissons Ratio (y) = 0.16375 0.74033
# Poissons Ratio (z) = -0.16319 0.69451
#
# Static dielectric constant tensor:
#      x y z
#    x 1.650060 0.000000 0.000000 
#    y 0.000000 1.628790 0.000000 
#    z 0.000000 0.000000 1.846960 
# 
# From -- ./inp_files/26391.got.cif
#   From: 2010.05.17/outbox.cif.g08.bks.cpg/sg53_14_cif.got.tgz:26391.got - 2010.06.03 12:45:16.
