data_PCOD9414335
_publ_section_title
;
Structure prediction by ZEFSAII (Michael W. Deem and Ramdas Pophale) SiO2 
 PCOD9414335
Probable space group: P M N A
;
_chemical_formula_sum "Si O2"
_cell_formula_units_Z 48
_cell_length_a 14.477762
_cell_length_b 18.625203
_cell_length_c 8.433509
_cell_angle_alpha 90.000000
_cell_angle_beta 90.000000
_cell_angle_gamma 90.000000
_cell_volume 2274.106296
_symmetry_space_group_name_H-M "P M N A"
_symmetry_group_IT_number 53
_symmetry_cell_setting 'orthorhombic'
loop_
_space_group_symop_operation_xyz
x,y,z
1/2-x,-y,1/2+z
x,-y,-z
1/2-x,y,1/2-z
-x,-y,-z
1/2+x,y,1/2-z
-x,y,z
1/2+x,-y,1/2+z
loop_
_atom_site_type_symbol
_atom_site_label
_atom_site_fract_x
_atom_site_fract_y
_atom_site_fract_z
Si Si1 0.746129 0.808410 0.934382
Si Si2 0.708858 0.349430 0.969206
Si Si3 0.890466 0.079503 0.937632
Si Si4 0.151529 0.463336 0.326548
Si Si5 0.390610 0.922707 0.063058
Si Si6 0.396120 0.594566 0.343986
O O1 0.750000 0.791347 0.750000
O O2 0.732932 0.733821 0.024991
O O3 0.833968 0.856290 0.983474
O O4 0.660573 0.859816 0.972997
O O5 0.645560 0.367674 0.816120
O O6 0.809294 0.390114 0.960803
O O7 0.653218 0.379964 0.122703
O O8 0.872202 0.081869 0.749988
O O9 0.000000 0.087923 0.965214
O O10 0.864823 0.000000 0.000000
O O11 0.139880 0.500000 0.500000
O O12 0.250000 0.477896 0.250000
O O13 0.093672 0.510593 0.204081
O O14 0.500000 0.917849 0.037775
O O15 0.359343 0.000000 0.000000
O O16 0.500000 0.620561 0.385721
#
# Coordination Sequence:
#
# PCOD9414335 Si02
#       6
#     8   8   8   8   8   8
#     4  12  25  40  61  93 130 172 209 258 326 384
#     4  10  23  39  60  91 128 164 205 263 320 374
#     4  10  22  41  67  95 127 169 216 265 310 368
#     4  10  17  37  62  84 118 157 197 252 305 361
#     4  10  22  41  66  94 127 168 215 261 310 375
#     4  10  21  39  65  91 120 162 209 258 315 379
#
# _framework density 21.107192999999999
#
# number of rings (size 3 to 8) (size 9 to 14) (size 15 to 20)
#    0.000    1.667    3.333    2.500    4.667    6.333 
#    0.000    1.667    0.000    6.000    0.000    0.000 
#    0.000    0.000    0.000    0.000    0.000    0.000 
#
# Total GULP energy -267692.778567 kJ/mol
# GULP energy per Si atom -5576.932887 kJ/mol
# Density = 2.105915 g / cm^3
# Si number density = 21.107193 Si / 1000 Ang^3
#
#
#
# Elastic Constant Matrix: (Units=GPa)
#
#
# Indices 1 2 3 4 5 6 
#
# 1 86.6971 20.8182 14.2304 0.0000 0.0000 0.0000
# 2 20.8182 123.2570 12.5200 0.0000 0.0000 0.0000
# 3 14.2304 12.5200 39.2253 0.0000 0.0000 0.0000
# 4 0.0000 0.0000 0.0000 20.7879 0.0000 0.0000
# 5 0.0000 0.0000 0.0000 0.0000 17.3383 0.0000
# 6 0.0000 0.0000 0.0000 0.0000 0.0000 452.1322
#
#
#
# Elastic Compliance Matrix: (Units=1/GPa)
#
#
# Indices 1 2 3 4 5 6 
#
# 1 0.012608 -0.001721 -0.004025 0.000000 0.000000 0.000000
# 2 -0.001721 0.008620 -0.002127 0.000000 0.000000 0.000000
# 3 -0.004025 -0.002127 0.027633 0.000000 0.000000 0.000000
# 4 0.000000 0.000000 0.000000 0.048105 0.000000 0.000000
# 5 0.000000 0.000000 0.000000 0.000000 0.057676 0.000000
# 6 0.000000 0.000000 0.000000 0.000000 0.000000 0.002212
#
#
# Mechanical properties :
#
#
# Convention : Reuss Voigt Hill
#
# Bulk Modulus (GPa) = 30.19719 38.25738 34.22728
# Shear Modulus (GPa) = 27.22762 111.49241 69.36001
#
# Velocity S-wave (km/s) = 3.59551 7.27576 5.73866
# Velocity P-wave (km/s) = 5.61912 9.42055 7.75633
#
# Compressibility (1/GPa) = 0.03311567
#
# Stress axis : x y z
#
# Youngs Moduli (GPa) = 79.31322 116.01181 36.18880
#
# Poissons Ratio (x) = 0.19962 0.14566
# Poissons Ratio (y) = 0.13647 0.07698
# Poissons Ratio (z) = 0.31923 0.24676
#
# Static dielectric constant tensor:
#      x y z
#    x 1.840440 0.000000 0.000000 
#    y 0.000000 1.774500 0.000000 
#    z 0.000000 0.000000 1.791730 
# 
# From -- ./inp_files/8611.got.cif
#   From: 2010.05.17/outbox.cif.g08.bks.cpg/sg53_5_cif.got.tgz:8611.got - 2010.06.03 12:45:16.
