data_PCOD9414543
_publ_section_title
;
Structure prediction by ZEFSAII (Michael W. Deem and Ramdas Pophale) SiO2 
 PCOD9414543
Probable space group: P M N A
;
_chemical_formula_sum "Si O2"
_cell_formula_units_Z 48
_cell_length_a 16.728342
_cell_length_b 15.424136
_cell_length_c 7.437664
_cell_angle_alpha 90.000000
_cell_angle_beta 90.000000
_cell_angle_gamma 90.000000
_cell_volume 1919.067717
_symmetry_space_group_name_H-M "P M N A"
_symmetry_group_IT_number 53
_symmetry_cell_setting 'orthorhombic'
loop_
_space_group_symop_operation_xyz
x,y,z
1/2-x,-y,1/2+z
x,-y,-z
1/2-x,y,1/2-z
-x,-y,-z
1/2+x,y,1/2-z
-x,y,z
1/2+x,-y,1/2+z
loop_
_atom_site_type_symbol
_atom_site_label
_atom_site_fract_x
_atom_site_fract_y
_atom_site_fract_z
Si Si1 0.657221 0.985959 0.211470
Si Si2 0.660871 0.375454 0.864564
Si Si3 0.809188 0.683742 0.920919
Si Si4 0.593145 0.164316 0.288328
Si Si5 0.905966 0.194018 0.639376
Si Si6 0.092893 0.449859 0.263971
O O1 0.750000 0.000575 0.250000
O O2 0.635210 0.886160 0.239465
O O3 0.608810 0.061940 0.309379
O O4 0.640758 0.000000 0.000000
O O5 0.749788 0.348019 0.924978
O O6 0.611567 0.400380 0.048641
O O7 0.620103 0.288121 0.792928
O O8 0.647997 0.465175 0.760842
O O9 0.750000 0.677352 0.750000
O O10 0.847472 0.778610 0.908060
O O11 0.880634 0.616564 0.888734
O O12 0.500000 0.184524 0.320662
O O13 0.611608 0.188100 0.077100
O O14 0.000000 0.182605 0.658459
O O15 0.000000 0.472874 0.254145
#
# Coordination Sequence:
#
# PCOD9414543 Si02
#       6
#     8   8   8   8   8   8
#     4  10  22  36  57  85 121 152 194 248 306 360
#     4  10  19  30  51  81 112 143 188 248 297 350
#     4  10  18  29  50  82 112 139 188 244 295 351
#     4  10  18  31  54  82 108 141 189 244 293 344
#     4  10  18  32  54  82 110 142 191 246 291 345
#     4  10  18  31  51  79 112 147 188 237 292 349
#
# _framework density 25.012146000000001
#
# number of rings (size 3 to 8) (size 9 to 14) (size 15 to 20)
#    0.000    2.000    3.333    3.500    2.333    2.000 
#    0.000    4.167    0.000    2.000    0.000   64.167 
#    0.000    0.000    0.000    0.000    0.000    0.000 
#
# Total GULP energy -268893.351962 kJ/mol
# GULP energy per Si atom -5601.944833 kJ/mol
# Density = 2.495522 g / cm^3
# Si number density = 25.012146 Si / 1000 Ang^3
#
#
#
# Elastic Constant Matrix: (Units=GPa)
#
#
# Indices 1 2 3 4 5 6 
#
# 1 115.9234 37.5199 11.2278 0.0000 0.0000 0.0000
# 2 37.5199 181.8628 41.5577 0.0000 0.0000 0.0000
# 3 11.2278 41.5577 67.3868 0.0000 0.0000 0.0000
# 4 0.0000 0.0000 0.0000 36.4303 0.0000 0.0000
# 5 0.0000 0.0000 0.0000 0.0000 9.3620 0.0000
# 6 0.0000 0.0000 0.0000 0.0000 0.0000 51.9389
#
#
#
# Elastic Compliance Matrix: (Units=1/GPa)
#
#
# Indices 1 2 3 4 5 6 
#
# 1 0.009254 -0.001812 -0.000424 0.000000 0.000000 0.000000
# 2 -0.001812 0.006756 -0.003864 0.000000 0.000000 0.000000
# 3 -0.000424 -0.003864 0.017293 0.000000 0.000000 0.000000
# 4 0.000000 0.000000 0.000000 0.027450 0.000000 0.000000
# 5 0.000000 0.000000 0.000000 0.000000 0.106814 0.000000
# 6 0.000000 0.000000 0.000000 0.000000 0.000000 0.019253
#
#
# Mechanical properties :
#
#
# Convention : Reuss Voigt Hill
#
# Bulk Modulus (GPa) = 47.38979 60.64266 54.01623
# Shear Modulus (GPa) = 24.26526 37.87073 31.06799
#
# Velocity S-wave (km/s) = 3.11808 3.89536 3.52819
# Velocity P-wave (km/s) = 5.65253 6.67305 6.18388
#
# Compressibility (1/GPa) = 0.02110159
#
# Stress axis : x y z
#
# Youngs Moduli (GPa) = 108.06105 148.02634 57.82526
#
# Poissons Ratio (x) = 0.26826 0.02453
# Poissons Ratio (y) = 0.19583 0.22345
# Poissons Ratio (z) = 0.04585 0.57201
#
# Static dielectric constant tensor:
#      x y z
#    x 1.881990 0.000000 0.000000 
#    y 0.000000 1.922230 0.000000 
#    z 0.000000 0.000000 2.220100 
# 
# From -- ./inp_files/15952.got.cif
#   From: 2010.05.17/outbox.cif.g08.bks.cpg/sg53_8_cif.got.tgz:15952.got - 2010.06.03 12:45:16.
