data_PCOD9414836
_publ_section_title
;
Structure prediction by ZEFSAII (Michael W. Deem and Ramdas Pophale) SiO2 
 PCOD9414836
Probable space group: P M N A
;
_chemical_formula_sum "Si O2"
_cell_formula_units_Z 64
_cell_length_a 8.332777
_cell_length_b 12.249933
_cell_length_c 33.068874
_cell_angle_alpha 90.000000
_cell_angle_beta 90.000000
_cell_angle_gamma 90.000000
_cell_volume 3375.537058
_symmetry_space_group_name_H-M "P M N A"
_symmetry_group_IT_number 53
_symmetry_cell_setting 'orthorhombic'
loop_
_space_group_symop_operation_xyz
x,y,z
1/2-x,-y,1/2+z
x,-y,-z
1/2-x,y,1/2-z
-x,-y,-z
1/2+x,y,1/2-z
-x,y,z
1/2+x,-y,1/2+z
loop_
_atom_site_type_symbol
_atom_site_label
_atom_site_fract_x
_atom_site_fract_y
_atom_site_fract_z
Si Si1 0.185227 0.263349 0.423258
Si Si2 0.194603 0.688581 0.294188
Si Si3 0.315294 0.872278 0.506441
Si Si4 0.186920 0.636388 0.380048
Si Si5 0.303845 0.933288 0.872960
Si Si6 0.188217 0.508691 0.953810
Si Si7 0.306536 0.057828 0.793662
Si Si8 0.811781 0.858990 0.423333
O O1 0.199642 0.182904 0.461608
O O2 0.278059 0.371315 0.435925
O O3 0.000000 0.292612 0.415720
O O4 0.247750 0.187098 0.386694
O O5 0.250000 0.649170 0.250000
O O6 0.252883 0.624477 0.334326
O O7 0.247835 0.815874 0.297845
O O8 0.000000 0.687974 0.294942
O O9 0.500000 0.858256 0.519354
O O10 0.286963 0.822785 0.462263
O O11 0.281894 0.000000 0.500000
O O12 0.253030 0.573465 0.418945
O O13 0.197765 0.765311 0.389870
O O14 0.000000 0.606202 0.378365
O O15 0.500000 0.932412 0.873663
O O16 0.251110 0.979716 0.829830
O O17 0.254442 0.025964 0.905320
O O18 0.000000 0.490142 0.957736
O O19 0.257533 0.500000 0.000000
O O20 0.250000 0.018709 0.750000
O O21 0.500000 0.059990 0.795096
O O22 0.000000 0.869682 0.434723
#
# Coordination Sequence:
#
# PCOD9414836 Si02
#       8
#     8   8   8   8   8   8   8   8
#     4  11  22  37  59  80 101 138 188 230 266 320
#     4   9  17  30  51  81 115 146 177 220 269 325
#     4  11  22  33  46  72 110 143 170 213 268 317
#     4  10  20  35  58  83 108 143 188 231 270 321
#     4   9  17  31  53  79 108 139 174 219 266 312
#     4  11  25  43  59  77 109 147 185 235 292 341
#     4   9  16  30  50  77 114 148 176 211 263 322
#     4  10  18  32  53  77 105 140 181 220 259 314
#
# _framework density 18.959945999999999
#
# number of rings (size 3 to 8) (size 9 to 14) (size 15 to 20)
#    0.000    2.000    2.500    1.875    0.000    4.500 
#    0.000    1.875    0.000    0.750    0.000    1.750 
#    0.000    0.000    0.000    0.000    0.000    0.000 
#
# Total GULP energy -356825.994649 kJ/mol
# GULP energy per Si atom -5575.406166 kJ/mol
# Density = 1.891679 g / cm^3
# Si number density = 18.959946 Si / 1000 Ang^3
#
#
#
# Elastic Constant Matrix: (Units=GPa)
#
#
# Indices 1 2 3 4 5 6 
#
# 1 9.0000 5.0840 15.3348 0.0000 0.0000 0.0000
# 2 5.0840 59.6972 40.7739 0.0000 0.0000 0.0000
# 3 15.3348 40.7739 150.9565 0.0000 0.0000 0.0000
# 4 0.0000 0.0000 0.0000 24.8546 0.0000 0.0000
# 5 0.0000 0.0000 0.0000 0.0000 24.9264 0.0000
# 6 0.0000 0.0000 0.0000 0.0000 0.0000 18.1118
#
#
#
# Elastic Compliance Matrix: (Units=1/GPa)
#
#
# Indices 1 2 3 4 5 6 
#
# 1 0.134698 -0.002606 -0.012979 0.000000 0.000000 0.000000
# 2 -0.002606 0.020591 -0.005297 0.000000 0.000000 0.000000
# 3 -0.012979 -0.005297 0.009374 0.000000 0.000000 0.000000
# 4 0.000000 0.000000 0.000000 0.040234 0.000000 0.000000
# 5 0.000000 0.000000 0.000000 0.000000 0.040118 0.000000
# 6 0.000000 0.000000 0.000000 0.000000 0.000000 0.055213
#
#
# Mechanical properties :
#
#
# Convention : Reuss Voigt Hill
#
# Bulk Modulus (GPa) = 8.13685 38.00434 23.07060
# Shear Modulus (GPa) = 13.05627 24.14264 18.59945
#
# Velocity S-wave (km/s) = 2.62701 3.57227 3.13547
# Velocity P-wave (km/s) = 3.67457 6.09122 5.03018
#
# Compressibility (1/GPa) = 0.12289764
#
# Stress axis : x y z
#
# Youngs Moduli (GPa) = 7.42403 48.56482 106.68229
#
# Poissons Ratio (x) = 0.12657 1.38465
# Poissons Ratio (y) = 0.01935 0.56509
# Poissons Ratio (z) = 0.09636 0.25725
#
# Static dielectric constant tensor:
#      x y z
#    x 1.659010 0.000000 0.000000 
#    y 0.000000 1.673130 0.000000 
#    z 0.000000 0.000000 1.700580 
# 
# From -- ./inp_files/38257.got.cif
#   From: 2010.05.17/outbox.cif.g08.bks.cpg/sg53_20_cif.got.tgz:38257.got - 2010.06.03 12:45:16.
