data_PCOD9414094
_publ_section_title
;
Structure prediction by ZEFSAII (Michael W. Deem and Ramdas Pophale) SiO2 
 PCOD9414094
Probable space group: P M N A
;
_chemical_formula_sum "Si O2"
_cell_formula_units_Z 28
_cell_length_a 14.892659
_cell_length_b 16.067393
_cell_length_c 5.217960
_cell_angle_alpha 90.000000
_cell_angle_beta 90.000000
_cell_angle_gamma 90.000000
_cell_volume 1248.585846
_symmetry_space_group_name_H-M "P M N A"
_symmetry_group_IT_number 53
_symmetry_cell_setting 'orthorhombic'
loop_
_space_group_symop_operation_xyz
x,y,z
1/2-x,-y,1/2+z
x,-y,-z
1/2-x,y,1/2-z
-x,-y,-z
1/2+x,y,1/2-z
-x,y,z
1/2+x,-y,1/2+z
loop_
_atom_site_type_symbol
_atom_site_label
_atom_site_fract_x
_atom_site_fract_y
_atom_site_fract_z
Si Si1 0.688249 0.500000 0.000000
Si Si2 0.140907 0.667076 0.265807
Si Si3 0.857124 0.757229 0.759003
Si Si4 0.392051 0.952388 0.746901
O O1 0.750000 0.472130 0.250000
O O2 0.629978 0.573967 0.124293
O O3 0.250000 0.672580 0.250000
O O4 0.106872 0.727799 0.486170
O O5 0.108207 0.699819 0.991862
O O6 0.750000 0.744598 0.750000
O O7 0.872028 0.855154 0.783161
O O8 0.500000 0.959283 0.750122
O O9 0.356787 0.000000 0.500000
O O10 0.359117 0.000000 0.000000
#
# Coordination Sequence:
#
# PCOD9414094 Si02
#       4
#     4   8   8   8
#     4  10  16  26  44  68 101 136 163 192 238 288
#     4   9  17  28  44  70 100 128 157 194 237 282
#     4  10  19  31  48  72  99 124 156 199 243 284
#     4  10  21  36  52  70  93 124 163 201 239 291
#
# _framework density 22.425370000000001
#
# number of rings (size 3 to 8) (size 9 to 14) (size 15 to 20)
#    0.000    2.286    0.000    6.000    0.000    1.143 
#    0.000    0.000    0.000    0.000    0.000    6.000 
#    0.000    0.000    0.000   17.571    0.000    0.000 
#
# Total GULP energy -156207.188970 kJ/mol
# GULP energy per Si atom -5578.828177 kJ/mol
# Density = 2.237433 g / cm^3
# Si number density = 22.425370 Si / 1000 Ang^3
#
#
#
# Elastic Constant Matrix: (Units=GPa)
#
#
# Indices 1 2 3 4 5 6 
#
# 1 60.8559 -4.5981 11.9229 0.0000 0.0000 0.0000
# 2 -4.5981 184.9832 86.5473 0.0000 0.0000 0.0000
# 3 11.9229 86.5473 195.0574 0.0000 0.0000 0.0000
# 4 0.0000 0.0000 0.0000 47.1640 0.0000 0.0000
# 5 0.0000 0.0000 0.0000 0.0000 -22.6774 0.0000
# 6 0.0000 0.0000 0.0000 0.0000 0.0000 50.9122
#
#
#
# Elastic Compliance Matrix: (Units=1/GPa)
#
#
# Indices 1 2 3 4 5 6 
#
# 1 0.016818 0.001135 -0.001531 0.000000 0.000000 0.000000
# 2 0.001135 0.006899 -0.003130 0.000000 0.000000 0.000000
# 3 -0.001531 -0.003130 0.006609 0.000000 0.000000 0.000000
# 4 0.000000 0.000000 0.000000 0.021203 0.000000 0.000000
# 5 0.000000 0.000000 0.000000 0.000000 -0.044097 0.000000
# 6 0.000000 0.000000 0.000000 0.000000 0.000000 0.019642
#
#
# Mechanical properties :
#
#
# Convention : Reuss Voigt Hill
#
# Bulk Modulus (GPa) = 42.97085 69.84894 56.40990
# Shear Modulus (GPa) = 119.37466 38.21471 78.79468
#
# Velocity S-wave (km/s) = 7.30394 4.13253 5.93403
# Velocity P-wave (km/s) = 9.50439 7.34747 8.49467
#
# Compressibility (1/GPa) = 0.02327159
#
# Stress axis : x y z
#
# Youngs Moduli (GPa) = 59.46001 144.95578 151.30378
#
# Poissons Ratio (x) = -0.16446 0.23171
# Poissons Ratio (y) = -0.06746 0.47363
# Poissons Ratio (z) = 0.09106 0.45375
#
# Static dielectric constant tensor:
#      x y z
#    x 1.878010 0.000000 0.000000 
#    y 0.000000 1.810690 0.000000 
#    z 0.000000 0.000000 1.824120 
# 
# From -- ./inp_files/3372.got.cif
#   From: 2010.05.17/outbox.cif.g08.bks.cpg/sg53_2_cif.got.tgz:3372.got - 2010.06.03 12:45:16.
