data_PCOD9414569
_publ_section_title
;
Structure prediction by ZEFSAII (Michael W. Deem and Ramdas Pophale) SiO2 
 PCOD9414569
Probable space group: P M N A
;
_chemical_formula_sum "Si O2"
_cell_formula_units_Z 64
_cell_length_a 9.071799
_cell_length_b 17.354613
_cell_length_c 26.083685
_cell_angle_alpha 90.000000
_cell_angle_beta 90.000000
_cell_angle_gamma 90.000000
_cell_volume 4106.551745
_symmetry_space_group_name_H-M "P M N A"
_symmetry_group_IT_number 53
_symmetry_cell_setting 'orthorhombic'
loop_
_space_group_symop_operation_xyz
x,y,z
1/2-x,-y,1/2+z
x,-y,-z
1/2-x,y,1/2-z
-x,-y,-z
1/2+x,y,1/2-z
-x,y,z
1/2+x,-y,1/2+z
loop_
_atom_site_type_symbol
_atom_site_label
_atom_site_fract_x
_atom_site_fract_y
_atom_site_fract_z
Si Si1 0.324209 0.344062 0.059748
Si Si2 0.169985 0.498853 0.937690
Si Si3 0.323315 0.907294 0.695293
Si Si4 0.823279 0.823429 0.600238
Si Si5 0.323440 0.912347 0.304133
Si Si6 0.823815 0.909394 0.994829
Si Si7 0.677237 0.813310 0.402353
Si Si8 0.675838 0.659363 0.061458
O O1 0.500000 0.356879 0.062579
O O2 0.242126 0.420542 0.078540
O O3 0.287124 0.266202 0.089737
O O4 0.288520 0.331479 0.999387
O O5 0.258111 0.422690 0.921647
O O6 0.000000 0.493802 0.922143
O O7 0.175428 0.500000 0.000000
O O8 0.250000 0.889255 0.750000
O O9 0.500000 0.898434 0.697552
O O10 0.254159 0.856143 0.650654
O O11 0.290664 0.997775 0.684313
O O12 0.764278 0.871322 0.551595
O O13 0.000000 0.830543 0.603905
O O14 0.250000 0.892455 0.250000
O O15 0.500000 0.906300 0.299085
O O16 0.276544 0.858466 0.351129
O O17 0.000000 0.901535 0.985146
O O18 0.789441 0.865441 0.047753
O O19 0.791771 0.000000 0.000000
O O20 0.500000 0.803456 0.400878
O O21 0.753623 0.731170 0.409349
O O22 0.500000 0.659250 0.066549
#
# Coordination Sequence:
#
# PCOD9414569 Si02
#       8
#     8   8   8   8   8   8   8   8
#     4   9  18  31  45  66  99 132 162 198 241 289
#     4   9  17  28  45  68  93 125 165 200 237 286
#     4  10  20  36  55  74  97 128 169 213 257 296
#     4  11  21  33  49  73 102 132 166 204 247 296
#     4   9  19  35  53  72  95 125 165 212 255 294
#     4  10  20  33  48  67  96 134 169 202 246 298
#     4  10  19  31  48  70  98 129 164 204 245 292
#     4  10  18  30  46  67  98 132 163 198 242 289
#
# _framework density 15.584853000000001
#
# number of rings (size 3 to 8) (size 9 to 14) (size 15 to 20)
#    0.000    2.250    1.250    2.250    0.000    6.250 
#    0.000    1.250    0.000    0.000    0.000    0.875 
#    0.000    2.000    0.000    0.000    0.000    0.000 
#
# Total GULP energy -357043.588044 kJ/mol
# GULP energy per Si atom -5578.806063 kJ/mol
# Density = 1.554938 g / cm^3
# Si number density = 15.584853 Si / 1000 Ang^3
#
#
#
# Elastic Constant Matrix: (Units=GPa)
#
#
# Indices 1 2 3 4 5 6 
#
# 1 56.1496 69.8110 54.8413 0.0000 0.0000 0.0000
# 2 69.8110 149.5599 81.8580 0.0000 0.0000 0.0000
# 3 54.8413 81.8580 101.6944 0.0000 0.0000 0.0000
# 4 0.0000 0.0000 0.0000 15.9050 0.0000 0.0000
# 5 0.0000 0.0000 0.0000 0.0000 23.6815 0.0000
# 6 0.0000 0.0000 0.0000 0.0000 0.0000 28.0630
#
#
#
# Elastic Compliance Matrix: (Units=1/GPa)
#
#
# Indices 1 2 3 4 5 6 
#
# 1 0.053472 -0.016404 -0.015632 0.000000 0.000000 0.000000
# 2 -0.016404 0.016984 -0.004825 0.000000 0.000000 0.000000
# 3 -0.015632 -0.004825 0.022147 0.000000 0.000000 0.000000
# 4 0.000000 0.000000 0.000000 0.062873 0.000000 0.000000
# 5 0.000000 0.000000 0.000000 0.000000 0.042227 0.000000
# 6 0.000000 0.000000 0.000000 0.000000 0.000000 0.035634
#
#
# Mechanical properties :
#
#
# Convention : Reuss Voigt Hill
#
# Bulk Modulus (GPa) = 52.96134 80.04716 66.50425
# Shear Modulus (GPa) = 15.95639 20.25615 18.10627
#
# Velocity S-wave (km/s) = 3.20322 3.60909 3.41220
# Velocity P-wave (km/s) = 6.90921 8.29705 7.63473
#
# Compressibility (1/GPa) = 0.01888170
#
# Stress axis : x y z
#
# Youngs Moduli (GPa) = 18.70123 58.87904 45.15204
#
# Poissons Ratio (x) = 0.96583 0.70583
# Poissons Ratio (y) = 0.30677 0.21786
# Poissons Ratio (z) = 0.29234 0.28409
#
# Static dielectric constant tensor:
#      x y z
#    x 1.519820 0.000000 0.000000 
#    y 0.000000 1.508790 0.000000 
#    z 0.000000 0.000000 1.492030 
# 
# From -- ./inp_files/34195.got.cif
#   From: 2010.05.17/outbox.cif.g08.bks.cpg/sg53_18_cif.got.tgz:34195.got - 2010.06.03 12:45:16.
