data_PCOD9414228
_publ_section_title
;
Structure prediction by ZEFSAII (Michael W. Deem and Ramdas Pophale) SiO2 
 PCOD9414228
Probable space group: P M N A
;
_chemical_formula_sum "Si O2"
_cell_formula_units_Z 56
_cell_length_a 15.500368
_cell_length_b 22.322073
_cell_length_c 8.192871
_cell_angle_alpha 90.000000
_cell_angle_beta 90.000000
_cell_angle_gamma 90.000000
_cell_volume 2834.736201
_symmetry_space_group_name_H-M "P M N A"
_symmetry_group_IT_number 53
_symmetry_cell_setting 'orthorhombic'
loop_
_space_group_symop_operation_xyz
x,y,z
1/2-x,-y,1/2+z
x,-y,-z
1/2-x,y,1/2-z
-x,-y,-z
1/2+x,y,1/2-z
-x,y,z
1/2+x,-y,1/2+z
loop_
_atom_site_type_symbol
_atom_site_label
_atom_site_fract_x
_atom_site_fract_y
_atom_site_fract_z
Si Si1 0.602590 0.368587 0.013539
Si Si2 0.894690 0.441993 0.794280
Si Si3 0.104956 0.581283 0.850806
Si Si4 0.741508 0.846312 0.927183
Si Si5 0.835119 0.746863 0.335162
Si Si6 0.403199 0.071125 0.979428
Si Si7 0.403058 0.856603 0.356381
O O1 0.500000 0.379638 0.024595
O O2 0.637142 0.414118 0.875055
O O3 0.616425 0.303395 0.936487
O O4 0.636439 0.379355 0.197408
O O5 0.873882 0.512116 0.809515
O O6 0.000000 0.438479 0.792133
O O7 0.865926 0.408732 0.961698
O O8 0.000000 0.585964 0.856769
O O9 0.750000 0.819377 0.750000
O O10 0.702081 0.796777 0.044374
O O11 0.672783 0.899653 0.917624
O O12 0.830318 0.866881 0.009172
O O13 0.750000 0.719925 0.250000
O O14 0.890155 0.788333 0.211204
O O15 0.500000 0.091118 0.027959
O O16 0.391000 0.097152 0.795243
O O17 0.399860 0.000000 0.000000
O O18 0.500000 0.863609 0.417907
#
# Coordination Sequence:
#
# PCOD9414228 Si02
#       7
#     8   8   8   8   8   8   8
#     4  10  17  27  48  74  96 127 173 216 266 325
#     4   8  14  25  42  68 102 129 157 204 265 322
#     4   8  14  25  41  69 103 128 157 207 262 322
#     4  10  21  36  55  79 111 149 189 229 277 328
#     4   9  19  36  51  69  99 138 177 224 277 329
#     4   9  18  34  58  86 115 149 187 225 267 318
#     4   9  18  36  59  79 107 147 188 230 279 328
#
# _framework density 19.754923999999999
#
# number of rings (size 3 to 8) (size 9 to 14) (size 15 to 20)
#    0.000    3.000    0.000    3.000    0.000    4.000 
#    5.143    0.000    0.000    3.000    7.429    0.000 
#    0.000    0.000    0.000    0.000    0.000    2.286 
#
# Total GULP energy -311971.308290 kJ/mol
# GULP energy per Si atom -5570.916219 kJ/mol
# Density = 1.970996 g / cm^3
# Si number density = 19.754924 Si / 1000 Ang^3
#
#
#
# Elastic Constant Matrix: (Units=GPa)
#
#
# Indices 1 2 3 4 5 6 
#
# 1 45.3637 2.8866 29.2303 0.0000 0.0000 0.0000
# 2 2.8866 28.9354 4.7414 0.0000 0.0000 0.0000
# 3 29.2303 4.7414 66.8400 0.0000 0.0000 0.0000
# 4 0.0000 0.0000 0.0000 2.2478 0.0000 0.0000
# 5 0.0000 0.0000 0.0000 0.0000 2.5303 0.0000
# 6 0.0000 0.0000 0.0000 0.0000 0.0000 1.1502
#
#
#
# Elastic Compliance Matrix: (Units=1/GPa)
#
#
# Indices 1 2 3 4 5 6 
#
# 1 0.030715 -0.000873 -0.013370 0.000000 0.000000 0.000000
# 2 -0.000873 0.034991 -0.002100 0.000000 0.000000 0.000000
# 3 -0.013370 -0.002100 0.020957 0.000000 0.000000 0.000000
# 4 0.000000 0.000000 0.000000 0.444874 0.000000 0.000000
# 5 0.000000 0.000000 0.000000 0.000000 0.395209 0.000000
# 6 0.000000 0.000000 0.000000 0.000000 0.000000 0.869440
#
#
# Mechanical properties :
#
#
# Convention : Reuss Voigt Hill
#
# Bulk Modulus (GPa) = 18.52690 23.87286 21.19988
# Shear Modulus (GPa) = 2.70729 8.13772 5.42250
#
# Velocity S-wave (km/s) = 1.17193 2.03182 1.65857
# Velocity P-wave (km/s) = 3.35111 4.19704 3.79770
#
# Compressibility (1/GPa) = 0.05397557
#
# Stress axis : x y z
#
# Youngs Moduli (GPa) = 32.55772 28.57872 47.71663
#
# Poissons Ratio (x) = 0.02496 0.63798
# Poissons Ratio (y) = 0.02843 0.10022
# Poissons Ratio (z) = 0.43530 0.06002
#
# Static dielectric constant tensor:
#      x y z
#    x 1.727400 0.000000 0.000000 
#    y 0.000000 1.672110 0.000000 
#    z 0.000000 0.000000 1.592680 
# 
# From -- ./inp_files/8828.got.cif
#   From: 2010.05.17/outbox.cif.g08.bks.cpg/sg53_5_cif.got.tgz:8828.got - 2010.06.03 12:45:16.
