data_PCOD9414152
_publ_section_title
;
Structure prediction by ZEFSAII (Michael W. Deem and Ramdas Pophale) SiO2 
 PCOD9414152
Probable space group: P M N A
;
_chemical_formula_sum "Si O2"
_cell_formula_units_Z 64
_cell_length_a 8.730323
_cell_length_b 21.994011
_cell_length_c 18.659872
_cell_angle_alpha 90.000000
_cell_angle_beta 90.000000
_cell_angle_gamma 90.000000
_cell_volume 3582.971965
_symmetry_space_group_name_H-M "P M N A"
_symmetry_group_IT_number 53
_symmetry_cell_setting 'orthorhombic'
loop_
_space_group_symop_operation_xyz
x,y,z
1/2-x,-y,1/2+z
x,-y,-z
1/2-x,y,1/2-z
-x,-y,-z
1/2+x,y,1/2-z
-x,y,z
1/2+x,-y,1/2+z
loop_
_atom_site_type_symbol
_atom_site_label
_atom_site_fract_x
_atom_site_fract_y
_atom_site_fract_z
Si Si1 0.185167 0.370833 0.580905
Si Si2 0.178184 0.496822 0.412774
Si Si3 0.683889 0.252559 0.830190
Si Si4 0.316954 0.871652 0.831357
Si Si5 0.816547 0.128366 0.830949
Si Si6 0.316276 0.995193 0.668918
Si Si7 0.317772 0.628886 0.578145
Si Si8 0.684096 0.746623 0.669920
O O1 0.236323 0.436780 0.611123
O O2 0.231555 0.312419 0.626480
O O3 0.244228 0.364854 0.500179
O O4 0.000000 0.373222 0.578953
O O5 0.185830 0.500000 0.500000
O O6 0.265848 0.436211 0.390524
O O7 0.000000 0.490115 0.393218
O O8 0.750000 0.256968 0.750000
O O9 0.500000 0.249802 0.827143
O O10 0.746090 0.189493 0.863681
O O11 0.250000 0.871575 0.750000
O O12 0.256090 0.934635 0.864888
O O13 0.253335 0.808715 0.862956
O O14 0.000000 0.871404 0.671213
O O15 0.750000 0.127006 0.750000
O O16 0.000000 0.134073 0.827402
O O17 0.780589 0.061819 0.863402
O O18 0.250000 0.997500 0.750000
O O19 0.500000 0.988594 0.672359
O O20 0.500000 0.628620 0.570788
O O21 0.273500 0.686574 0.625946
O O22 0.750000 0.740719 0.750000
O O23 0.500000 0.752129 0.672982
#
# Coordination Sequence:
#
# PCOD9414152 Si02
#       8
#     8   8   8   8   8   8   8   8
#     4   9  19  34  51  71  94 124 158 189 229 280
#     4   8  15  30  50  69  92 121 152 188 230 276
#     4  10  19  31  47  68  96 127 158 192 231 276
#     4  10  17  25  40  61  86 118 153 188 228 271
#     4   9  16  25  39  60  87 120 154 188 230 274
#     4   9  15  23  36  56  84 116 150 188 227 269
#     4  10  20  32  50  75  96 117 152 196 234 271
#     4  10  20  33  47  67  96 126 155 188 231 279
#
# _framework density 17.862266000000002
#
# number of rings (size 3 to 8) (size 9 to 14) (size 15 to 20)
#    0.000    2.625    0.000    6.000    0.000    6.750 
#    0.000    0.625    0.000    3.000    0.000    0.875 
#    0.000    7.000    0.000    0.000    0.000    0.000 
#
# Total GULP energy -356427.205715 kJ/mol
# GULP energy per Si atom -5569.175089 kJ/mol
# Density = 1.782161 g / cm^3
# Si number density = 17.862266 Si / 1000 Ang^3
#
#
#
# Elastic Constant Matrix: (Units=GPa)
#
#
# Indices 1 2 3 4 5 6 
#
# 1 63.2432 61.3537 12.1698 0.0000 0.0000 0.0000
# 2 61.3537 232.7863 42.7164 0.0000 0.0000 0.0000
# 3 12.1698 42.7164 17.8378 0.0000 0.0000 0.0000
# 4 0.0000 0.0000 0.0000 374.1490 0.0000 0.0000
# 5 0.0000 0.0000 0.0000 0.0000 4.0760 0.0000
# 6 0.0000 0.0000 0.0000 0.0000 0.0000 32.8553
#
#
#
# Elastic Compliance Matrix: (Units=1/GPa)
#
#
# Indices 1 2 3 4 5 6 
#
# 1 0.021281 -0.005253 -0.001940 0.000000 0.000000 0.000000
# 2 -0.005253 0.008960 -0.017872 0.000000 0.000000 0.000000
# 3 -0.001940 -0.017872 0.100184 0.000000 0.000000 0.000000
# 4 0.000000 0.000000 0.000000 0.002673 0.000000 0.000000
# 5 0.000000 0.000000 0.000000 0.000000 0.245336 0.000000
# 6 0.000000 0.000000 0.000000 0.000000 0.000000 0.030436
#
#
# Mechanical properties :
#
#
# Convention : Reuss Voigt Hill
#
# Bulk Modulus (GPa) = 12.45417 60.70524 36.57971
# Shear Modulus (GPa) = 10.29304 95.39122 52.84213
#
# Velocity S-wave (km/s) = 2.40311 7.31572 5.44494
# Velocity P-wave (km/s) = 3.83242 10.26735 7.74939
#
# Compressibility (1/GPa) = 0.08029438
#
# Stress axis : x y z
#
# Youngs Moduli (GPa) = 46.98958 111.60850 9.98167
#
# Poissons Ratio (x) = 0.58628 0.01936
# Poissons Ratio (y) = 0.24684 0.17840
# Poissons Ratio (z) = 0.09115 1.99472
#
# Static dielectric constant tensor:
#      x y z
#    x 1.606230 0.000000 0.000000 
#    y 0.000000 1.702970 0.000000 
#    z 0.000000 0.000000 1.583640 
# 
# From -- ./inp_files/31396.got.cif
#   From: 2010.05.17/outbox.cif.g08.bks.cpg/sg53_16_cif.got.tgz:31396.got - 2010.06.03 12:45:16.
