data_PCOD9414067
_publ_section_title
;
Structure prediction by ZEFSAII (Michael W. Deem and Ramdas Pophale) SiO2 
 PCOD9414067
Probable space group: P M N A
;
_chemical_formula_sum "Si O2"
_cell_formula_units_Z 64
_cell_length_a 8.572705
_cell_length_b 22.610963
_cell_length_c 14.200156
_cell_angle_alpha 90.000000
_cell_angle_beta 90.000000
_cell_angle_gamma 90.000000
_cell_volume 2752.517280
_symmetry_space_group_name_H-M "P M N A"
_symmetry_group_IT_number 53
_symmetry_cell_setting 'orthorhombic'
loop_
_space_group_symop_operation_xyz
x,y,z
1/2-x,-y,1/2+z
x,-y,-z
1/2-x,y,1/2-z
-x,-y,-z
1/2+x,y,1/2-z
-x,y,z
1/2+x,-y,1/2+z
loop_
_atom_site_type_symbol
_atom_site_label
_atom_site_fract_x
_atom_site_fract_y
_atom_site_fract_z
Si Si1 0.327169 0.478690 0.895113
Si Si2 0.685754 0.968242 0.641921
Si Si3 0.813718 0.282796 0.357752
Si Si4 0.810929 0.219621 0.642033
Si Si5 0.687441 0.154145 0.142020
Si Si6 0.819166 0.400090 0.147596
Si Si7 0.687981 0.909100 0.141756
Si Si8 0.689050 0.652326 0.142804
O O1 0.500000 0.480406 0.847033
O O2 0.213926 0.530597 0.863830
O O3 0.262901 0.412238 0.895092
O O4 0.352515 0.500000 0.000000
O O5 0.750000 0.968580 0.750000
O O6 0.500000 0.967300 0.643817
O O7 0.743237 0.030523 0.600008
O O8 0.748131 0.906736 0.599616
O O9 0.750000 0.279148 0.250000
O O10 0.769592 0.218583 0.400115
O O11 0.760964 0.344543 0.405636
O O12 0.000000 0.285063 0.354010
O O13 0.750000 0.219715 0.750000
O O14 0.766005 0.155436 0.601246
O O15 0.760364 0.283729 0.602374
O O16 0.000000 0.219928 0.642549
O O17 0.750000 0.155014 0.250000
O O18 0.500000 0.150389 0.142771
O O19 0.750000 0.390905 0.250000
O O20 0.000000 0.389130 0.141564
O O21 0.750000 0.907466 0.250000
O O22 0.500000 0.913486 0.141770
O O23 0.750000 0.651673 0.250000
O O24 0.500000 0.651748 0.139363
#
# Coordination Sequence:
#
# PCOD9414067 Si02
#       8
#     8   8   8   8   8   8   8   8
#     4  10  21  36  52  70  95 125 154 188 232 280
#     4  10  16  20  27  40  63  97 135 171 206 249
#     4   9  16  26  41  60  82 108 142 183 224 265
#     4   8  14  23  36  54  75 100 133 175 217 257
#     4   9  15  22  32  47  69  99 135 174 213 254
#     4  11  21  33  51  72  95 122 155 194 232 276
#     4   9  14  20  29  42  64  94 129 168 208 249
#     4   9  17  30  48  69  90 115 150 188 228 272
#
# _framework density 23.251443999999999
#
# number of rings (size 3 to 8) (size 9 to 14) (size 15 to 20)
#    0.000    2.625    0.000    6.000    0.000    3.750 
#    0.000    0.000    0.000    0.000    0.000    0.000 
#    0.000    0.000    0.000    1.125    0.000   27.000 
#
# Total GULP energy -356533.724820 kJ/mol
# GULP energy per Si atom -5570.839450 kJ/mol
# Density = 2.319852 g / cm^3
# Si number density = 23.251444 Si / 1000 Ang^3
#
#
#
# Elastic Constant Matrix: (Units=GPa)
#
#
# Indices 1 2 3 4 5 6 
#
# 1 83.9803 67.0566 -2.1625 0.0000 0.0000 0.0000
# 2 67.0566 329.4310 40.3726 0.0000 0.0000 0.0000
# 3 -2.1625 40.3726 35.2407 0.0000 0.0000 0.0000
# 4 0.0000 0.0000 0.0000 21.8557 0.0000 0.0000
# 5 0.0000 0.0000 0.0000 0.0000 -7.6854 0.0000
# 6 0.0000 0.0000 0.0000 0.0000 0.0000 41.5987
#
#
#
# Elastic Compliance Matrix: (Units=1/GPa)
#
#
# Indices 1 2 3 4 5 6 
#
# 1 0.014976 -0.003677 0.005132 0.000000 0.000000 0.000000
# 2 -0.003677 0.004434 -0.005306 0.000000 0.000000 0.000000
# 3 0.005132 -0.005306 0.034769 0.000000 0.000000 0.000000
# 4 0.000000 0.000000 0.000000 0.045755 0.000000 0.000000
# 5 0.000000 0.000000 0.000000 0.000000 -0.130117 0.000000
# 6 0.000000 0.000000 0.000000 0.000000 0.000000 0.024039
#
#
# Mechanical properties :
#
#
# Convention : Reuss Voigt Hill
#
# Bulk Modulus (GPa) = 21.51586 73.24281 47.37934
# Shear Modulus (GPa) = 293.22398 34.04614 163.63506
#
# Velocity S-wave (km/s) = 11.24205 3.83072 8.39816
# Velocity P-wave (km/s) = 13.33362 7.15084 10.69860
#
# Compressibility (1/GPa) = 0.04647734
#
# Stress axis : x y z
#
# Youngs Moduli (GPa) = 66.77367 225.51531 28.76085
#
# Poissons Ratio (x) = 0.82929 -0.14759
# Poissons Ratio (y) = 0.24555 0.15260
# Poissons Ratio (z) = -0.34267 1.19651
#
# Static dielectric constant tensor:
#      x y z
#    x 1.859060 0.000000 0.000000 
#    y 0.000000 2.145870 0.000000 
#    z 0.000000 0.000000 1.710100 
# 
# From -- ./inp_files/27058.got.cif
#   From: 2010.05.17/outbox.cif.g08.bks.cpg/sg53_14_cif.got.tgz:27058.got - 2010.06.03 12:45:16.
