data_PCOD9414994
_publ_section_title
;
Structure prediction by ZEFSAII (Michael W. Deem and Ramdas Pophale) SiO2 
 PCOD9414994
Probable space group: P M N A
;
_chemical_formula_sum "Si O2"
_cell_formula_units_Z 64
_cell_length_a 8.647011
_cell_length_b 12.415564
_cell_length_c 32.114265
_cell_angle_alpha 90.000000
_cell_angle_beta 90.000000
_cell_angle_gamma 90.000000
_cell_volume 3447.707798
_symmetry_space_group_name_H-M "P M N A"
_symmetry_group_IT_number 53
_symmetry_cell_setting 'orthorhombic'
loop_
_space_group_symop_operation_xyz
x,y,z
1/2-x,-y,1/2+z
x,-y,-z
1/2-x,y,1/2-z
-x,-y,-z
1/2+x,y,1/2-z
-x,y,z
1/2+x,-y,1/2+z
loop_
_atom_site_type_symbol
_atom_site_label
_atom_site_fract_x
_atom_site_fract_y
_atom_site_fract_z
Si Si1 0.185880 0.493600 0.795531
Si Si2 0.815281 0.098967 0.632426
Si Si3 0.184389 0.243593 0.794537
Si Si4 0.684472 0.877852 0.985323
Si Si5 0.182580 0.243615 0.940088
Si Si6 0.686265 0.375892 0.125725
Si Si7 0.687514 0.136386 0.111509
Si Si8 0.813027 0.510657 0.048786
O O1 0.250000 0.526948 0.750000
O O2 0.231518 0.368090 0.801676
O O3 0.250103 0.559663 0.834565
O O4 0.000000 0.500232 0.794859
O O5 0.746523 0.166681 0.669955
O O6 0.769681 0.162570 0.590591
O O7 0.000000 0.096974 0.635355
O O8 0.757249 0.975612 0.631268
O O9 0.250000 0.210353 0.750000
O O10 0.000000 0.240722 0.793893
O O11 0.500000 0.857957 0.990146
O O12 0.726238 0.867302 0.937269
O O13 0.778076 0.795506 0.013610
O O14 0.713968 0.000000 0.000000
O O15 0.227987 0.368517 0.935970
O O16 0.000000 0.235811 0.931896
O O17 0.500000 0.379451 0.125908
O O18 0.738659 0.251260 0.128901
O O19 0.743084 0.427194 0.081958
O O20 0.500000 0.134814 0.114110
O O21 0.000000 0.500596 0.049765
O O22 0.765685 0.500000 0.000000
#
# Coordination Sequence:
#
# PCOD9414994 Si02
#       8
#     8   8   8   8   8   8   8   8
#     4  10  21  39  63  89 118 147 183 231 285 342
#     4  11  21  37  58  80 110 147 183 223 275 328
#     4  10  21  38  60  88 116 142 175 221 274 331
#     4  10  18  34  56  76 105 148 191 232 280 330
#     4  11  22  34  52  81 111 141 184 235 279 327
#     4  11  22  37  59  85 114 149 194 240 286 341
#     4   9  20  37  55  79 111 148 189 234 278 328
#     4  10  22  39  55  76 114 156 191 234 289 341
#
# _framework density 18.563057000000001
#
# number of rings (size 3 to 8) (size 9 to 14) (size 15 to 20)
#    0.000    1.750    1.250    3.375    0.000    6.000 
#    0.000    3.750    0.000    0.000    0.000    0.000 
#    0.000    0.000    0.000    0.000    0.000    0.000 
#
# Total GULP energy -357452.122283 kJ/mol
# GULP energy per Si atom -5585.189411 kJ/mol
# Density = 1.852081 g / cm^3
# Si number density = 18.563057 Si / 1000 Ang^3
#
#
#
# Elastic Constant Matrix: (Units=GPa)
#
#
# Indices 1 2 3 4 5 6 
#
# 1 28.2693 25.0654 23.4636 0.0000 0.0000 0.0000
# 2 25.0654 107.5475 64.7816 0.0000 0.0000 0.0000
# 3 23.4636 64.7816 120.0328 0.0000 0.0000 0.0000
# 4 0.0000 0.0000 0.0000 36.1984 0.0000 0.0000
# 5 0.0000 0.0000 0.0000 0.0000 36.5901 0.0000
# 6 0.0000 0.0000 0.0000 0.0000 0.0000 -57.1007
#
#
#
# Elastic Compliance Matrix: (Units=1/GPa)
#
#
# Indices 1 2 3 4 5 6 
#
# 1 0.046374 -0.007924 -0.004789 0.000000 0.000000 0.000000
# 2 -0.007924 0.015131 -0.006617 0.000000 0.000000 0.000000
# 3 -0.004789 -0.006617 0.012838 0.000000 0.000000 0.000000
# 4 0.000000 0.000000 0.000000 0.027625 0.000000 0.000000
# 5 0.000000 0.000000 0.000000 0.000000 0.027330 0.000000
# 6 0.000000 0.000000 0.000000 0.000000 0.000000 -0.017513
#
#
# Mechanical properties :
#
#
# Convention : Reuss Voigt Hill
#
# Bulk Modulus (GPa) = 28.02344 53.60786 40.81565
# Shear Modulus (GPa) = 30.79960 12.64017 21.71989
#
# Velocity S-wave (km/s) = 4.07773 2.61230 3.42432
# Velocity P-wave (km/s) = 6.10734 6.16768 6.13759
#
# Compressibility (1/GPa) = 0.03568442
#
# Stress axis : x y z
#
# Youngs Moduli (GPa) = 21.56370 66.09022 77.89107
#
# Poissons Ratio (x) = 0.52368 0.37300
# Poissons Ratio (y) = 0.17086 0.51542
# Poissons Ratio (z) = 0.10326 0.43733
#
# Static dielectric constant tensor:
#      x y z
#    x 1.629590 0.000000 0.000000 
#    y 0.000000 1.656240 0.000000 
#    z 0.000000 0.000000 1.624530 
# 
# From -- ./inp_files/38242.got.cif
#   From: 2010.05.17/outbox.cif.g08.bks.cpg/sg53_20_cif.got.tgz:38242.got - 2010.06.03 12:45:16.
