data_PCOD9414912
_publ_section_title
;
Structure prediction by ZEFSAII (Michael W. Deem and Ramdas Pophale) SiO2 
 PCOD9414912
Probable space group: P M N A
;
_chemical_formula_sum "Si O2"
_cell_formula_units_Z 64
_cell_length_a 8.432485
_cell_length_b 19.937150
_cell_length_c 19.795874
_cell_angle_alpha 90.000000
_cell_angle_beta 90.000000
_cell_angle_gamma 90.000000
_cell_volume 3328.076761
_symmetry_space_group_name_H-M "P M N A"
_symmetry_group_IT_number 53
_symmetry_cell_setting 'orthorhombic'
loop_
_space_group_symop_operation_xyz
x,y,z
1/2-x,-y,1/2+z
x,-y,-z
1/2-x,y,1/2-z
-x,-y,-z
1/2+x,y,1/2-z
-x,y,z
1/2+x,-y,1/2+z
loop_
_atom_site_type_symbol
_atom_site_label
_atom_site_fract_x
_atom_site_fract_y
_atom_site_fract_z
Si Si1 0.811680 0.557754 0.672522
Si Si2 0.689235 0.930739 0.460954
Si Si3 0.308109 0.356778 0.445166
Si Si4 0.682441 0.213646 0.498660
Si Si5 0.183003 0.558261 0.073253
Si Si6 0.813486 0.087595 0.684118
Si Si7 0.820936 0.639655 0.318831
Si Si8 0.823437 0.769186 0.159310
O O1 0.750000 0.552309 0.750000
O O2 0.742423 0.620097 0.629347
O O3 0.765730 0.496004 0.622278
O O4 0.000000 0.562182 0.675936
O O5 0.500000 0.919205 0.448368
O O6 0.747305 0.863196 0.500709
O O7 0.775845 0.940550 0.389682
O O8 0.706272 0.000000 0.500000
O O9 0.500000 0.356446 0.450779
O O10 0.249403 0.281521 0.463991
O O11 0.256357 0.414577 0.500465
O O12 0.500000 0.209166 0.474120
O O13 0.681999 0.229503 0.578244
O O14 0.203606 0.622926 0.120377
O O15 0.000000 0.538204 0.066438
O O16 0.750000 0.048813 0.750000
O O17 0.713444 0.156334 0.682408
O O18 0.000000 0.099683 0.690073
O O19 0.750000 0.610692 0.250000
O O20 0.810946 0.719423 0.315209
O O21 0.000000 0.617167 0.330571
O O22 0.000000 0.747764 0.180039
#
# Coordination Sequence:
#
# PCOD9414912 Si02
#       8
#     8   8   8   8   8   8   8   8
#     4  12  26  43  61  84 113 148 190 243 296 349
#     4   9  18  34  58  87 119 155 193 234 284 345
#     4  10  20  38  63  88 114 150 190 233 287 345
#     4   8  15  31  56  84 113 147 185 226 275 334
#     4  11  22  39  60  83 111 147 187 231 284 346
#     4  11  21  33  50  76 109 149 191 236 282 336
#     4  12  23  33  47  71 107 148 188 230 275 326
#     4  10  18  33  51  73 106 146 188 228 274 330
#
# _framework density 19.230326000000002
#
# number of rings (size 3 to 8) (size 9 to 14) (size 15 to 20)
#    0.000    1.625    1.250    6.000    0.000    2.750 
#    0.000    0.625    0.000    0.750    0.000    0.000 
#    0.000    0.000    0.000    0.000    0.000    0.000 
#
# Total GULP energy -356632.611501 kJ/mol
# GULP energy per Si atom -5572.384555 kJ/mol
# Density = 1.918656 g / cm^3
# Si number density = 19.230326 Si / 1000 Ang^3
#
#
#
# Elastic Constant Matrix: (Units=GPa)
#
#
# Indices 1 2 3 4 5 6 
#
# 1 70.5626 22.5864 30.2941 0.0000 0.0000 0.0000
# 2 22.5864 97.5839 49.5441 0.0000 0.0000 0.0000
# 3 30.2941 49.5441 113.3560 0.0000 0.0000 0.0000
# 4 0.0000 0.0000 0.0000 13.6071 0.0000 0.0000
# 5 0.0000 0.0000 0.0000 0.0000 24.5053 0.0000
# 6 0.0000 0.0000 0.0000 0.0000 0.0000 10.1160
#
#
#
# Elastic Compliance Matrix: (Units=1/GPa)
#
#
# Indices 1 2 3 4 5 6 
#
# 1 0.016309 -0.002007 -0.003481 0.000000 0.000000 0.000000
# 2 -0.002007 0.013417 -0.005328 0.000000 0.000000 0.000000
# 3 -0.003481 -0.005328 0.012081 0.000000 0.000000 0.000000
# 4 0.000000 0.000000 0.000000 0.073491 0.000000 0.000000
# 5 0.000000 0.000000 0.000000 0.000000 0.040808 0.000000
# 6 0.000000 0.000000 0.000000 0.000000 0.000000 0.098853
#
#
# Mechanical properties :
#
#
# Convention : Reuss Voigt Hill
#
# Bulk Modulus (GPa) = 49.56827 54.03906 51.80367
# Shear Modulus (GPa) = 17.64818 21.58422 19.61620
#
# Velocity S-wave (km/s) = 3.03269 3.35387 3.19731
# Velocity P-wave (km/s) = 6.17211 6.56962 6.37396
#
# Compressibility (1/GPa) = 0.02017419
#
# Stress axis : x y z
#
# Youngs Moduli (GPa) = 61.31630 74.53160 82.77697
#
# Poissons Ratio (x) = 0.14961 0.28816
# Poissons Ratio (y) = 0.12309 0.44101
# Poissons Ratio (z) = 0.21345 0.39708
#
# Static dielectric constant tensor:
#      x y z
#    x 1.683260 0.000000 0.000000 
#    y 0.000000 1.749040 0.000000 
#    z 0.000000 0.000000 1.717390 
# 
# From -- ./inp_files/26940.got.cif
#   From: 2010.05.17/outbox.cif.g08.bks.cpg/sg53_14_cif.got.tgz:26940.got - 2010.06.03 12:45:16.
