data_PCOD9414706
_publ_section_title
;
Structure prediction by ZEFSAII (Michael W. Deem and Ramdas Pophale) SiO2 
 PCOD9414706
Probable space group: P M N A
;
_chemical_formula_sum "Si O2"
_cell_formula_units_Z 56
_cell_length_a 8.589780
_cell_length_b 14.815700
_cell_length_c 26.482745
_cell_angle_alpha 90.000000
_cell_angle_beta 90.000000
_cell_angle_gamma 90.000000
_cell_volume 3370.289560
_symmetry_space_group_name_H-M "P M N A"
_symmetry_group_IT_number 53
_symmetry_cell_setting 'orthorhombic'
loop_
_space_group_symop_operation_xyz
x,y,z
1/2-x,-y,1/2+z
x,-y,-z
1/2-x,y,1/2-z
-x,-y,-z
1/2+x,y,1/2-z
-x,y,z
1/2+x,-y,1/2+z
loop_
_atom_site_type_symbol
_atom_site_label
_atom_site_fract_x
_atom_site_fract_y
_atom_site_fract_z
Si Si1 0.311905 0.897535 0.940517
Si Si2 0.313735 0.604647 0.304850
Si Si3 0.188097 0.395374 0.499158
Si Si4 0.187789 0.396001 0.195178
Si Si5 0.689142 0.900564 0.058425
Si Si6 0.186349 0.286697 0.097152
Si Si7 0.311687 0.712294 0.100243
O O1 0.500000 0.893176 0.938155
O O2 0.243138 0.815713 0.908996
O O3 0.261528 0.998918 0.925685
O O4 0.267722 0.885954 0.999663
O O5 0.250000 0.631722 0.250000
O O6 0.500000 0.606633 0.303908
O O7 0.263521 0.500282 0.313684
O O8 0.252664 0.666960 0.349589
O O9 0.236858 0.500000 0.500000
O O10 0.252358 0.343302 0.450670
O O11 0.235088 0.345262 0.550781
O O12 0.000000 0.392326 0.496569
O O13 0.250000 0.368219 0.250000
O O14 0.240832 0.333730 0.148968
O O15 0.000000 0.394375 0.196620
O O16 0.500000 0.901092 0.059047
O O17 0.740919 0.815414 0.091116
O O18 0.000000 0.288826 0.096474
O O19 0.500000 0.711398 0.102323
#
# Coordination Sequence:
#
# PCOD9414706 Si02
#       7
#     8   8   8   8   8   8   8
#     4   9  16  31  52  72  96 132 172 205 241 293
#     4  10  20  35  53  73  97 130 169 207 247 293
#     4  10  20  32  48  72 101 135 171 201 237 295
#     4   9  20  36  52  71  97 130 169 207 246 292
#     4   8  15  29  51  73  97 130 169 208 243 285
#     4  11  21  32  48  74 106 133 159 204 258 302
#     4  10  18  31  50  74 102 130 164 206 246 291
#
# _framework density 16.615784000000001
#
# number of rings (size 3 to 8) (size 9 to 14) (size 15 to 20)
#    0.000    2.429    1.429    2.571    0.000    2.571 
#    0.000    2.143    0.000    0.857    0.000    2.000 
#    0.000    0.000    0.000    0.000    0.000    0.000 
#
# Total GULP energy -312347.524866 kJ/mol
# GULP energy per Si atom -5577.634373 kJ/mol
# Density = 1.657797 g / cm^3
# Si number density = 16.615784 Si / 1000 Ang^3
#
#
#
# Elastic Constant Matrix: (Units=GPa)
#
#
# Indices 1 2 3 4 5 6 
#
# 1 13.2227 28.6791 27.5651 0.0000 0.0000 0.0000
# 2 28.6791 157.2902 104.5157 0.0000 0.0000 0.0000
# 3 27.5651 104.5157 148.3050 0.0000 0.0000 0.0000
# 4 0.0000 0.0000 0.0000 21.1257 0.0000 0.0000
# 5 0.0000 0.0000 0.0000 0.0000 25.6398 0.0000
# 6 0.0000 0.0000 0.0000 0.0000 0.0000 200.7939
#
#
#
# Elastic Compliance Matrix: (Units=1/GPa)
#
#
# Indices 1 2 3 4 5 6 
#
# 1 0.141333 -0.015637 -0.015250 0.000000 0.000000 0.000000
# 2 -0.015637 0.013687 -0.006739 0.000000 0.000000 0.000000
# 3 -0.015250 -0.006739 0.014327 0.000000 0.000000 0.000000
# 4 0.000000 0.000000 0.000000 0.047336 0.000000 0.000000
# 5 0.000000 0.000000 0.000000 0.000000 0.039002 0.000000
# 6 0.000000 0.000000 0.000000 0.000000 0.000000 0.004980
#
#
# Mechanical properties :
#
#
# Convention : Reuss Voigt Hill
#
# Bulk Modulus (GPa) = 10.62750 71.14862 40.88806
# Shear Modulus (GPa) = 13.61360 60.04908 36.83134
#
# Velocity S-wave (km/s) = 2.86548 6.01816 4.71324
# Velocity P-wave (km/s) = 4.16628 9.55007 7.36755
#
# Compressibility (1/GPa) = 0.09409553
#
# Stress axis : x y z
#
# Youngs Moduli (GPa) = 7.07550 73.06315 69.80015
#
# Poissons Ratio (x) = 1.14246 1.06442
# Poissons Ratio (y) = 0.11064 0.47040
# Poissons Ratio (z) = 0.10790 0.49239
#
# Static dielectric constant tensor:
#      x y z
#    x 1.567590 0.000000 0.000000 
#    y 0.000000 1.571110 0.000000 
#    z 0.000000 0.000000 1.526420 
# 
# From -- ./inp_files/30737.got.cif
#   From: 2010.05.17/outbox.cif.g08.bks.cpg/sg53_16_cif.got.tgz:30737.got - 2010.06.03 12:45:16.
