data_PCOD9414480
_publ_section_title
;
Structure prediction by ZEFSAII (Michael W. Deem and Ramdas Pophale) SiO2 
 PCOD9414480
Probable space group: P M N A
;
_chemical_formula_sum "Si O2"
_cell_formula_units_Z 56
_cell_length_a 25.076834
_cell_length_b 26.141958
_cell_length_c 5.145281
_cell_angle_alpha 90.000000
_cell_angle_beta 90.000000
_cell_angle_gamma 90.000000
_cell_volume 3373.027761
_symmetry_space_group_name_H-M "P M N A"
_symmetry_group_IT_number 53
_symmetry_cell_setting 'orthorhombic'
loop_
_space_group_symop_operation_xyz
x,y,z
1/2-x,-y,1/2+z
x,-y,-z
1/2-x,y,1/2-z
-x,-y,-z
1/2+x,y,1/2-z
-x,y,z
1/2+x,-y,1/2+z
loop_
_atom_site_type_symbol
_atom_site_label
_atom_site_fract_x
_atom_site_fract_y
_atom_site_fract_z
Si Si1 0.813285 0.965361 0.749717
Si Si2 0.561505 0.552942 0.605545
Si Si3 0.876443 0.723275 0.267891
Si Si4 0.313027 0.755520 0.723916
Si Si5 0.938268 0.379334 0.588384
Si Si6 0.373554 0.859257 0.692830
Si Si7 0.563114 0.173135 0.794932
O O1 0.750000 0.953205 0.750000
O O2 0.846100 0.913189 0.754806
O O3 0.824857 0.000000 0.500000
O O4 0.824599 0.000000 0.000000
O O5 0.586427 0.500000 0.500000
O O6 0.500000 0.540070 0.682413
O O7 0.560808 0.589427 0.356449
O O8 0.582681 0.584209 0.854600
O O9 0.838602 0.741069 0.501328
O O10 0.903967 0.670868 0.355007
O O11 0.920828 0.767788 0.238978
O O12 0.841795 0.722856 0.003653
O O13 0.250000 0.749155 0.750000
O O14 0.329276 0.814406 0.665671
O O15 0.000000 0.365438 0.522071
O O16 0.408026 0.858950 0.430603
O O17 0.411514 0.842781 0.930475
O O18 0.500000 0.166873 0.793685
#
# Coordination Sequence:
#
# PCOD9414480 Si02
#       7
#     8   8   8   8   8   8   8
#     4  10  20  34  54  78 101 124 156 204 256 300
#     4   9  17  28  43  65  95 133 168 197 237 284
#     4  10  20  32  49  74  99 129 165 199 241 290
#     4  10  20  34  51  72 100 128 158 199 245 297
#     4  10  18  29  46  68 100 133 162 200 237 281
#     4  10  20  34  54  75  98 130 163 198 242 295
#     4  10  20  34  52  73 100 133 168 201 233 282
#
# _framework density 16.602293
#
# number of rings (size 3 to 8) (size 9 to 14) (size 15 to 20)
#    0.000    2.143    0.000    3.857    0.000    1.714 
#    0.000    8.571    0.000    8.571    0.000    0.000 
#    0.000   32.000    0.000    0.000    0.000    0.000 
#
# Total GULP energy -312304.999897 kJ/mol
# GULP energy per Si atom -5576.874998 kJ/mol
# Density = 1.656451 g / cm^3
# Si number density = 16.602293 Si / 1000 Ang^3
#
#
#
# Elastic Constant Matrix: (Units=GPa)
#
#
# Indices 1 2 3 4 5 6 
#
# 1 63.9326 32.7001 6.3818 0.0000 0.0000 0.0000
# 2 32.7001 86.0107 6.1341 0.0000 0.0000 0.0000
# 3 6.3818 6.1341 82.9670 0.0000 0.0000 0.0000
# 4 0.0000 0.0000 0.0000 -45.3988 0.0000 0.0000
# 5 0.0000 0.0000 0.0000 0.0000 32.9890 0.0000
# 6 0.0000 0.0000 0.0000 0.0000 0.0000 11.7399
#
#
#
# Elastic Compliance Matrix: (Units=1/GPa)
#
#
# Indices 1 2 3 4 5 6 
#
# 1 0.019493 -0.007343 -0.000956 0.000000 0.000000 0.000000
# 2 -0.007343 0.014454 -0.000504 0.000000 0.000000 0.000000
# 3 -0.000956 -0.000504 0.012164 0.000000 0.000000 0.000000
# 4 0.000000 0.000000 0.000000 -0.022027 0.000000 0.000000
# 5 0.000000 0.000000 0.000000 0.000000 0.030313 0.000000
# 6 0.000000 0.000000 0.000000 0.000000 0.000000 0.085180
#
#
# Mechanical properties :
#
#
# Convention : Reuss Voigt Hill
#
# Bulk Modulus (GPa) = 35.08227 35.92692 35.50460
# Shear Modulus (GPa) = 29.99695 12.37896 21.18795
#
# Velocity S-wave (km/s) = 4.25525 2.73356 3.57628
# Velocity P-wave (km/s) = 6.73200 5.62582 6.20361
#
# Compressibility (1/GPa) = 0.02850443
#
# Stress axis : x y z
#
# Youngs Moduli (GPa) = 51.30175 69.18523 82.21108
#
# Poissons Ratio (x) = 0.50800 0.07863
# Poissons Ratio (y) = 0.37669 0.04142
# Poissons Ratio (z) = 0.04907 0.03486
#
# Static dielectric constant tensor:
#      x y z
#    x 1.538020 0.000000 0.000000 
#    y 0.000000 1.554520 0.000000 
#    z 0.000000 0.000000 1.561720 
# 
# From -- ./inp_files/3050.got.cif
#   From: 2010.05.17/outbox.cif.g08.bks.cpg/sg53_2_cif.got.tgz:3050.got - 2010.06.03 12:45:16.
