data_PCOD9414526
_publ_section_title
;
Structure prediction by ZEFSAII (Michael W. Deem and Ramdas Pophale) SiO2 
 PCOD9414526
Probable space group: P M N A
;
_chemical_formula_sum "Si O2"
_cell_formula_units_Z 64
_cell_length_a 8.826566
_cell_length_b 16.851698
_cell_length_c 24.182564
_cell_angle_alpha 90.000000
_cell_angle_beta 90.000000
_cell_angle_gamma 90.000000
_cell_volume 3596.978039
_symmetry_space_group_name_H-M "P M N A"
_symmetry_group_IT_number 53
_symmetry_cell_setting 'orthorhombic'
loop_
_space_group_symop_operation_xyz
x,y,z
1/2-x,-y,1/2+z
x,-y,-z
1/2-x,y,1/2-z
-x,-y,-z
1/2+x,y,1/2-z
-x,y,z
1/2+x,-y,1/2+z
loop_
_atom_site_type_symbol
_atom_site_label
_atom_site_fract_x
_atom_site_fract_y
_atom_site_fract_z
Si Si1 0.817727 0.280590 0.811732
Si Si2 0.820168 0.785318 0.621408
Si Si3 0.317663 0.069373 0.312124
Si Si4 0.180207 0.376461 0.310588
Si Si5 0.681634 0.894938 0.311225
Si Si6 0.679781 0.633607 0.086252
Si Si7 0.320548 0.465865 0.410737
Si Si8 0.179968 0.695605 0.978963
O O1 0.750000 0.289323 0.750000
O O2 0.775809 0.191640 0.833924
O O3 0.750899 0.342591 0.854938
O O4 0.000000 0.286944 0.809038
O O5 0.746208 0.862049 0.649032
O O6 0.794572 0.710311 0.662356
O O7 0.748155 0.760091 0.562961
O O8 0.000000 0.795806 0.615605
O O9 0.250000 0.077379 0.250000
O O10 0.500000 0.075199 0.308508
O O11 0.275771 0.981153 0.334855
O O12 0.250000 0.378948 0.250000
O O13 0.261937 0.438751 0.350720
O O14 0.000000 0.391031 0.309541
O O15 0.750000 0.895493 0.250000
O O16 0.500000 0.894821 0.307598
O O17 0.500000 0.637601 0.088615
O O18 0.733845 0.544757 0.072058
O O19 0.743489 0.691094 0.038592
O O20 0.500000 0.481577 0.410553
O O21 0.292481 0.390135 0.449953
O O22 0.000000 0.706169 0.984162
#
# Coordination Sequence:
#
# PCOD9414526 Si02
#       8
#     8   8   8   8   8   8   8   8
#     4  10  20  37  58  81 109 138 171 212 260 310
#     4  10  20  33  50  75 106 140 176 215 258 304
#     4  10  18  29  48  77 109 141 177 214 255 304
#     4  10  20  33  49  71 103 140 175 211 256 307
#     4   8  16  30  50  75 104 137 171 210 255 303
#     4  12  24  37  56  81 106 134 170 211 257 309
#     4  10  21  37  56  77 101 132 173 217 260 305
#     4  10  21  38  58  78 102 135 174 216 260 304
#
# _framework density 17.792712000000002
#
# number of rings (size 3 to 8) (size 9 to 14) (size 15 to 20)
#    0.000    2.000    0.000    4.125    0.000    7.000 
#    0.000    2.500    0.000    0.750    0.000    5.250 
#    0.000    0.000    0.000    0.000    0.000    0.000 
#
# Total GULP energy -357128.441294 kJ/mol
# GULP energy per Si atom -5580.131895 kJ/mol
# Density = 1.775222 g / cm^3
# Si number density = 17.792712 Si / 1000 Ang^3
#
#
#
# Elastic Constant Matrix: (Units=GPa)
#
#
# Indices 1 2 3 4 5 6 
#
# 1 62.9688 29.3091 35.4629 0.0000 0.0000 0.0000
# 2 29.3091 45.6099 2.1501 0.0000 0.0000 0.0000
# 3 35.4629 2.1501 73.0683 0.0000 0.0000 0.0000
# 4 0.0000 0.0000 0.0000 13.3855 0.0000 0.0000
# 5 0.0000 0.0000 0.0000 0.0000 26.7632 0.0000
# 6 0.0000 0.0000 0.0000 0.0000 0.0000 33.5047
#
#
#
# Elastic Compliance Matrix: (Units=1/GPa)
#
#
# Indices 1 2 3 4 5 6 
#
# 1 0.035441 -0.021994 -0.016554 0.000000 0.000000 0.000000
# 2 -0.021994 0.035605 0.009627 0.000000 0.000000 0.000000
# 3 -0.016554 0.009627 0.021437 0.000000 0.000000 0.000000
# 4 0.000000 0.000000 0.000000 0.074708 0.000000 0.000000
# 5 0.000000 0.000000 0.000000 0.000000 0.037365 0.000000
# 6 0.000000 0.000000 0.000000 0.000000 0.000000 0.029847
#
#
# Mechanical properties :
#
#
# Convention : Reuss Voigt Hill
#
# Bulk Modulus (GPa) = 28.86790 35.05460 31.96125
# Shear Modulus (GPa) = 16.45874 22.37901 19.41887
#
# Velocity S-wave (km/s) = 3.04473 3.55034 3.30721
# Velocity P-wave (km/s) = 5.34979 6.04574 5.70838
#
# Compressibility (1/GPa) = 0.03464056
#
# Stress axis : x y z
#
# Youngs Moduli (GPa) = 28.21598 28.08616 46.64899
#
# Poissons Ratio (x) = 0.61773 0.77221
# Poissons Ratio (y) = 0.62059 -0.44908
# Poissons Ratio (z) = 0.46708 -0.27038
#
# Static dielectric constant tensor:
#      x y z
#    x 1.587990 0.000000 0.000000 
#    y 0.000000 1.634770 0.000000 
#    z 0.000000 0.000000 1.585880 
# 
# From -- ./inp_files/34168.got.cif
#   From: 2010.05.17/outbox.cif.g08.bks.cpg/sg53_18_cif.got.tgz:34168.got - 2010.06.03 12:45:16.
