data_PCOD9414885
_publ_section_title
;
Structure prediction by ZEFSAII (Michael W. Deem and Ramdas Pophale) SiO2 
 PCOD9414885
Probable space group: P M N A
;
_chemical_formula_sum "Si O2"
_cell_formula_units_Z 28
_cell_length_a 19.441598
_cell_length_b 12.408745
_cell_length_c 4.828938
_cell_angle_alpha 90.000000
_cell_angle_beta 90.000000
_cell_angle_gamma 90.000000
_cell_volume 1164.961165
_symmetry_space_group_name_H-M "P M N A"
_symmetry_group_IT_number 53
_symmetry_cell_setting 'orthorhombic'
loop_
_space_group_symop_operation_xyz
x,y,z
1/2-x,-y,1/2+z
x,-y,-z
1/2-x,y,1/2-z
-x,-y,-z
1/2+x,y,1/2-z
-x,y,z
1/2+x,-y,1/2+z
loop_
_atom_site_type_symbol
_atom_site_label
_atom_site_fract_x
_atom_site_fract_y
_atom_site_fract_z
Si Si1 0.500000 0.226219 0.953661
Si Si2 0.155218 0.383066 0.928726
Si Si3 0.750000 0.932260 0.250000
Si Si4 0.500000 0.350034 0.448128
Si Si5 0.654757 0.232759 0.069679
O O1 0.500000 0.237175 0.623284
O O2 0.575557 0.189962 0.051302
O O3 0.500000 0.341445 0.117182
O O4 0.172329 0.281878 0.130680
O O5 0.072803 0.394411 0.962240
O O6 0.185744 0.500000 0.000000
O O7 0.165726 0.338611 0.622505
O O8 0.800945 0.859749 0.430977
O O9 0.714510 0.000000 0.500000
#
# Coordination Sequence:
#
# PCOD9414885 Si02
#       5
#     4   8   4   4   8
#     4   8  16  32  55  83 117 150 185 239 292 335
#     4  10  18  32  56  89 125 160 188 224 281 352
#     4  12  26  46  66  82 106 154 210 262 316 362
#     4   8  15  26  48  83 123 160 191 215 262 343
#     4  10  21  38  59  87 120 153 195 243 289 353
#
# _framework density 24.035138
#
# number of rings (size 3 to 8) (size 9 to 14) (size 15 to 20)
#    0.000    2.286    0.000    3.000    0.000    0.000 
#    0.000   12.857    0.000    0.000    0.000    0.000 
#    0.000    0.000    0.000    0.000    0.000    0.143 
#
# Total GULP energy -156005.928077 kJ/mol
# GULP energy per Si atom -5571.640288 kJ/mol
# Density = 2.398043 g / cm^3
# Si number density = 24.035138 Si / 1000 Ang^3
#
#
#
# Elastic Constant Matrix: (Units=GPa)
#
#
# Indices 1 2 3 4 5 6 
#
# 1 76.7293 17.7452 9.1984 0.0000 0.0000 0.0000
# 2 17.7452 44.5067 5.3630 0.0000 0.0000 0.0000
# 3 9.1984 5.3630 112.6566 0.0000 0.0000 0.0000
# 4 0.0000 0.0000 0.0000 -33.5115 0.0000 0.0000
# 5 0.0000 0.0000 0.0000 0.0000 26.3487 0.0000
# 6 0.0000 0.0000 0.0000 0.0000 0.0000 10.4096
#
#
#
# Elastic Compliance Matrix: (Units=1/GPa)
#
#
# Indices 1 2 3 4 5 6 
#
# 1 0.014449 -0.005651 -0.000911 0.000000 0.000000 0.000000
# 2 -0.005651 0.024808 -0.000720 0.000000 0.000000 0.000000
# 3 -0.000911 -0.000720 0.008985 0.000000 0.000000 0.000000
# 4 0.000000 0.000000 0.000000 -0.029840 0.000000 0.000000
# 5 0.000000 0.000000 0.000000 0.000000 0.037953 0.000000
# 6 0.000000 0.000000 0.000000 0.000000 0.000000 0.096065
#
#
# Mechanical properties :
#
#
# Convention : Reuss Voigt Hill
#
# Bulk Modulus (GPa) = 29.69162 33.16729 31.42946
# Shear Modulus (GPa) = 28.05690 14.08843 21.07266
#
# Velocity S-wave (km/s) = 3.42033 2.42370 2.96420
# Velocity P-wave (km/s) = 5.28946 4.65423 4.98198
#
# Compressibility (1/GPa) = 0.03367954
#
# Stress axis : x y z
#
# Youngs Moduli (GPa) = 69.20914 40.30893 111.29475
#
# Poissons Ratio (x) = 0.22779 0.10136
# Poissons Ratio (y) = 0.39111 0.08009
# Poissons Ratio (z) = 0.06303 0.02901
#
# Static dielectric constant tensor:
#      x y z
#    x 1.986780 0.000000 0.000000 
#    y 0.000000 1.955230 0.000000 
#    z 0.000000 0.000000 1.890270 
# 
# From -- ./inp_files/2574.got.cif
#   From: 2010.05.17/outbox.cif.g08.bks.cpg/sg53_2_cif.got.tgz:2574.got - 2010.06.03 12:45:16.
