data_PCOD9414715
_publ_section_title
;
Structure prediction by ZEFSAII (Michael W. Deem and Ramdas Pophale) SiO2 
 PCOD9414715
Probable space group: P M N A
;
_chemical_formula_sum "Si O2"
_cell_formula_units_Z 40
_cell_length_a 28.715505
_cell_length_b 9.108400
_cell_length_c 8.341822
_cell_angle_alpha 90.000000
_cell_angle_beta 90.000000
_cell_angle_gamma 90.000000
_cell_volume 2181.822778
_symmetry_space_group_name_H-M "P M N A"
_symmetry_group_IT_number 53
_symmetry_cell_setting 'orthorhombic'
loop_
_space_group_symop_operation_xyz
x,y,z
1/2-x,-y,1/2+z
x,-y,-z
1/2-x,y,1/2-z
-x,-y,-z
1/2+x,y,1/2-z
-x,y,z
1/2+x,-y,1/2+z
loop_
_atom_site_type_symbol
_atom_site_label
_atom_site_fract_x
_atom_site_fract_y
_atom_site_fract_z
Si Si1 0.359388 0.688007 0.648296
Si Si2 0.948753 0.329221 0.947852
Si Si3 0.669568 0.171629 0.018691
Si Si4 0.741066 0.661544 0.560184
Si Si5 0.607344 0.406916 0.841835
O O1 0.405933 0.732269 0.553091
O O2 0.347314 0.786208 0.802069
O O3 0.313684 0.688317 0.536794
O O4 0.367558 0.525032 0.724046
O O5 0.933864 0.336626 0.762259
O O6 0.000000 0.263291 0.972913
O O7 0.951537 0.500000 0.000000
O O8 0.723424 0.218218 0.994352
O O9 0.640665 0.277556 0.901429
O O10 0.662804 0.000000 0.000000
O O11 0.754222 0.500000 0.500000
O O12 0.750000 0.660147 0.750000
O O13 0.593019 0.500000 0.000000
#
# Coordination Sequence:
#
# PCOD9414715 Si02
#       5
#     8   8   8   8   8
#     4   9  18  34  52  75 103 132 166 206 254 304
#     4   9  17  31  54  81 102 123 163 217 260 295
#     4  10  20  34  50  72 103 136 171 208 246 294
#     4  10  18  31  51  74 100 132 165 199 243 300
#     4   9  17  32  54  76 101 134 167 203 251 304
#
# _framework density 18.333295
#
# number of rings (size 3 to 8) (size 9 to 14) (size 15 to 20)
#    0.000    2.600    0.000    4.800    0.000    0.400 
#    0.000   19.000    0.000    3.600    0.000    0.000 
#    0.000    0.000    0.000    0.000    0.000    0.000 
#
# Total GULP energy -222907.567895 kJ/mol
# GULP energy per Si atom -5572.689197 kJ/mol
# Density = 1.829157 g / cm^3
# Si number density = 18.333295 Si / 1000 Ang^3
#
#
#
# Elastic Constant Matrix: (Units=GPa)
#
#
# Indices 1 2 3 4 5 6 
#
# 1 145.4362 34.0054 54.4976 0.0000 0.0000 0.0000
# 2 34.0054 85.9908 22.6968 0.0000 0.0000 0.0000
# 3 54.4976 22.6968 63.7522 0.0000 0.0000 0.0000
# 4 0.0000 0.0000 0.0000 8.7107 0.0000 0.0000
# 5 0.0000 0.0000 0.0000 0.0000 14.3315 0.0000
# 6 0.0000 0.0000 0.0000 0.0000 0.0000 -3.5823
#
#
#
# Elastic Compliance Matrix: (Units=1/GPa)
#
#
# Indices 1 2 3 4 5 6 
#
# 1 0.010404 -0.001950 -0.008200 0.000000 0.000000 0.000000
# 2 -0.001950 0.013201 -0.003033 0.000000 0.000000 0.000000
# 3 -0.008200 -0.003033 0.023775 0.000000 0.000000 0.000000
# 4 0.000000 0.000000 0.000000 0.114801 0.000000 0.000000
# 5 0.000000 0.000000 0.000000 0.000000 0.069776 0.000000
# 6 0.000000 0.000000 0.000000 0.000000 0.000000 -0.279152
#
#
# Mechanical properties :
#
#
# Convention : Reuss Voigt Hill
#
# Bulk Modulus (GPa) = 47.58520 57.50875 52.54698
# Shear Modulus (GPa) = -361.69849 16.15729 -172.77060
#
# Velocity S-wave (km/s) = -14.06125 2.97190 -9.71819
# Velocity P-wave (km/s) = 15.41470 6.57365 9.85901
#
# Compressibility (1/GPa) = 0.02101494
#
# Stress axis : x y z
#
# Youngs Moduli (GPa) = 96.11262 75.75296 42.06128
#
# Poissons Ratio (x) = 0.14773 0.34489
# Poissons Ratio (y) = 0.18744 0.12755
# Poissons Ratio (z) = 0.78810 0.22973
#
# Static dielectric constant tensor:
#      x y z
#    x 1.686310 0.000000 0.000000 
#    y 0.000000 1.592260 0.000000 
#    z 0.000000 0.000000 1.654830 
# 
# From -- ./inp_files/11515.got.cif
#   From: 2010.05.17/outbox.cif.g08.bks.cpg/sg53_6_cif.got.tgz:11515.got - 2010.06.03 12:45:16.
