data_PCOD9414036
_publ_section_title
;
Structure prediction by ZEFSAII (Michael W. Deem and Ramdas Pophale) SiO2 
 PCOD9414036
Probable space group: P N N A
;
_chemical_formula_sum "Si O2"
_cell_formula_units_Z 56
_cell_length_a 15.000000
_cell_length_b 15.000000
_cell_length_c 12.000000
_cell_angle_alpha 90.000000
_cell_angle_beta 90.000000
_cell_angle_gamma 90.000000
_cell_volume 2700.000000
_symmetry_space_group_name_H-M "P N N A"
_symmetry_group_IT_number 52
_symmetry_cell_setting 'orthorhombic'
loop_
_space_group_symop_operation_xyz
x,y,z
1/2-x,-y,z
x,1/2-y,1/2-z
1/2-x,1/2+y,1/2-z
-x,-y,-z
1/2+x,y,-z
-x,1/2+y,1/2+z
1/2+x,1/2-y,1/2+z
loop_
_atom_site_type_symbol
_atom_site_label
_atom_site_fract_x
_atom_site_fract_y
_atom_site_fract_z
Si Si1 0.747286 0.722283 0.974013
Si Si2 0.500835 0.928737 0.096036
Si Si3 0.528775 0.489404 0.178404
Si Si4 0.790046 0.099560 0.088444
Si Si5 0.576241 0.252312 0.877477
Si Si6 0.935157 0.127648 0.499685
Si Si7 0.208350 0.402679 0.820560
O O1 0.823147 0.712119 0.881300
O O2 0.649279 0.682400 0.958625
O O3 0.738251 0.826434 0.000738
O O4 0.782790 0.666509 0.080191
O O5 0.603513 0.898384 0.098795
O O6 0.434742 0.847536 0.077957
O O7 0.480638 0.972833 0.214504
O O8 0.500000 0.000000 0.000000
O O9 0.463021 0.441334 0.094264
O O10 0.605887 0.420897 0.210288
O O11 0.577692 0.568942 0.111594
O O12 0.755343 0.129185 0.209066
O O13 0.750000 0.000000 0.068821
O O14 0.542365 0.250000 0.750000
O O15 0.515952 0.310324 0.960056
O O16 0.250000 0.500000 0.849534
#
# Coordination Sequence:
#
# PCOD9414036 Si02
#       7
#     8   8   8   8   8   8   8
#     4  12  24  42  66  99 136 174 228 281 342 402
#     4  12  24  43  68  99 138 182 219 285 355 415
#     4  11  22  42  69 102 135 170 234 284 343 410
#     4  11  22  39  66  97 130 174 229 280 340 401
#     4  12  26  44  67  99 139 186 230 278 347 421
#     4  11  23  43  73  98 130 184 232 283 334 413
#     4  11  20  35  67 104 128 159 222 295 338 388
#
# _framework density 20.740741
#
# number of rings (size 3 to 8) (size 9 to 14) (size 15 to 20)
#    0.000    0.571    8.571    1.286    0.000    0.000 
#    2.571    0.714    0.000    0.000    0.000    0.000 
#    0.000    0.000    0.000    0.000    0.000    0.000 
#
# Total GULP energy -312535.784632 kJ/mol
# GULP energy per Si atom -5580.996154 kJ/mol
# Density = 2.069353 g / cm^3
# Si number density = 20.740741 Si / 1000 Ang^3
#
#
#
# Elastic Constant Matrix: (Units=GPa)
#
#
# Indices 1 2 3 4 5 6 
#
# 1 71.8226 20.5687 30.9328 0.0000 0.0000 0.0000
# 2 20.5687 61.2328 13.8553 0.0000 0.0000 0.0000
# 3 30.9328 13.8553 26.6722 0.0000 0.0000 0.0000
# 4 0.0000 0.0000 0.0000 -153.5522 0.0000 0.0000
# 5 0.0000 0.0000 0.0000 0.0000 20.6354 0.0000
# 6 0.0000 0.0000 0.0000 0.0000 0.0000 14.9915
#
#
#
# Elastic Compliance Matrix: (Units=1/GPa)
#
#
# Indices 1 2 3 4 5 6 
#
# 1 0.028111 -0.002341 -0.031385 0.000000 0.000000 0.000000
# 2 -0.002341 0.018701 -0.007000 0.000000 0.000000 0.000000
# 3 -0.031385 -0.007000 0.077527 0.000000 0.000000 0.000000
# 4 0.000000 0.000000 0.000000 -0.006512 0.000000 0.000000
# 5 0.000000 0.000000 0.000000 0.000000 0.048460 0.000000
# 6 0.000000 0.000000 0.000000 0.000000 0.000000 0.066704
#
#
# Mechanical properties :
#
#
# Convention : Reuss Voigt Hill
#
# Bulk Modulus (GPa) = 23.31687 32.27125 27.79406
# Shear Modulus (GPa) = 15.20966 -17.29367 -1.04201
#
# Velocity S-wave (km/s) = 2.71093 -2.89070 -0.70957
# Velocity P-wave (km/s) = 4.58970 2.10989 3.57190
#
# Compressibility (1/GPa) = 0.04288741
#
# Stress axis : x y z
#
# Youngs Moduli (GPa) = 35.57370 53.47216 12.89875
#
# Poissons Ratio (x) = 0.12518 0.40483
# Poissons Ratio (y) = 0.08328 0.09029
# Poissons Ratio (z) = 1.11648 0.37429
#
# Static dielectric constant tensor:
#      x y z
#    x 1.684690 0.000000 0.000000 
#    y 0.000000 1.752050 0.000000 
#    z 0.000000 0.000000 1.802720 
# 
# From -- ./inp_files/19605.got.cif
#   From: 2010.05.17/outbox.ucp.g08.bks.cvg/sg52_10_cif.got.tgz:19605.got - 2010.06.11 16:30:12.
