data_PCOD9414821
_publ_section_title
;
Structure prediction by ZEFSAII (Michael W. Deem and Ramdas Pophale) SiO2 
 PCOD9414821
Probable space group: P M N A
;
_chemical_formula_sum "Si O2"
_cell_formula_units_Z 64
_cell_length_a 8.665253
_cell_length_b 21.520683
_cell_length_c 20.581549
_cell_angle_alpha 90.000000
_cell_angle_beta 90.000000
_cell_angle_gamma 90.000000
_cell_volume 3838.091774
_symmetry_space_group_name_H-M "P M N A"
_symmetry_group_IT_number 53
_symmetry_cell_setting 'orthorhombic'
loop_
_space_group_symop_operation_xyz
x,y,z
1/2-x,-y,1/2+z
x,-y,-z
1/2-x,y,1/2-z
-x,-y,-z
1/2+x,y,1/2-z
-x,y,z
1/2+x,-y,1/2+z
loop_
_atom_site_type_symbol
_atom_site_label
_atom_site_fract_x
_atom_site_fract_y
_atom_site_fract_z
Si Si1 0.681602 0.305641 0.452958
Si Si2 0.826307 0.692340 0.684788
Si Si3 0.815424 0.822993 0.545571
Si Si4 0.187645 0.060586 0.540790
Si Si5 0.185336 0.445667 0.046535
Si Si6 0.172248 0.456741 0.315268
Si Si7 0.313633 0.014369 0.819439
Si Si8 0.684961 0.874366 0.679519
O O1 0.500000 0.302184 0.466305
O O2 0.714590 0.300121 0.375972
O O3 0.765782 0.244856 0.479839
O O4 0.740420 0.375328 0.469611
O O5 0.750000 0.717129 0.750000
O O6 0.840730 0.617900 0.693032
O O7 0.000000 0.716634 0.672880
O O8 0.762061 0.877454 0.496695
O O9 0.746334 0.836858 0.617115
O O10 0.000000 0.825913 0.550747
O O11 0.231024 0.053287 0.616396
O O12 0.000000 0.060282 0.539459
O O13 0.238792 0.000000 0.500000
O O14 0.230467 0.463676 0.119585
O O15 0.000000 0.443039 0.042145
O O16 0.243888 0.500000 0.000000
O O17 0.250000 0.481668 0.250000
O O18 0.000000 0.481664 0.323714
O O19 0.250000 0.037476 0.750000
O O20 0.500000 0.010144 0.816400
O O21 0.245608 0.945135 0.828894
O O22 0.750000 0.854592 0.750000
O O23 0.500000 0.872743 0.681030
#
# Coordination Sequence:
#
# PCOD9414821 Si02
#       8
#     8   8   8   8   8   8   8   8
#     4  10  20  33  47  68  97 125 159 201 244 292
#     4   9  16  27  43  63  88 123 162 195 230 273
#     4  11  21  35  52  70  95 130 168 205 246 293
#     4   9  17  32  53  73  96 130 165 198 241 292
#     4   9  18  33  52  72  97 131 165 200 246 297
#     4   9  16  26  43  68  97 126 158 197 236 279
#     4  10  18  32  52  74  99 128 164 203 246 290
#     4  11  21  33  48  70  99 133 169 205 243 283
#
# _framework density 16.674954
#
# number of rings (size 3 to 8) (size 9 to 14) (size 15 to 20)
#    0.000    2.250    1.250    3.750    0.000    4.250 
#    0.000    5.625    0.000    0.000    0.000    0.875 
#    0.000    4.000    0.000    0.000    0.000    0.000 
#
# Total GULP energy -356738.411642 kJ/mol
# GULP energy per Si atom -5574.037682 kJ/mol
# Density = 1.663700 g / cm^3
# Si number density = 16.674954 Si / 1000 Ang^3
#
#
#
# Elastic Constant Matrix: (Units=GPa)
#
#
# Indices 1 2 3 4 5 6 
#
# 1 54.3542 21.7267 20.8109 0.0000 0.0000 0.0000
# 2 21.7267 104.7217 64.5960 0.0000 0.0000 0.0000
# 3 20.8109 64.5960 99.6163 0.0000 0.0000 0.0000
# 4 0.0000 0.0000 0.0000 8.6970 0.0000 0.0000
# 5 0.0000 0.0000 0.0000 0.0000 15.6226 0.0000
# 6 0.0000 0.0000 0.0000 0.0000 0.0000 15.6050
#
#
#
# Elastic Compliance Matrix: (Units=1/GPa)
#
#
# Indices 1 2 3 4 5 6 
#
# 1 0.020438 -0.002678 -0.002533 0.000000 0.000000 0.000000
# 2 -0.002678 0.016266 -0.009988 0.000000 0.000000 0.000000
# 3 -0.002533 -0.009988 0.017044 0.000000 0.000000 0.000000
# 4 0.000000 0.000000 0.000000 0.114983 0.000000 0.000000
# 5 0.000000 0.000000 0.000000 0.000000 0.064010 0.000000
# 6 0.000000 0.000000 0.000000 0.000000 0.000000 0.064082
#
#
# Mechanical properties :
#
#
# Convention : Reuss Voigt Hill
#
# Bulk Modulus (GPa) = 42.82637 52.55103 47.68870
# Shear Modulus (GPa) = 14.92518 18.08882 16.50700
#
# Velocity S-wave (km/s) = 2.99501 3.29719 3.14973
# Velocity P-wave (km/s) = 6.13995 6.78812 6.47215
#
# Compressibility (1/GPa) = 0.02335010
#
# Stress axis : x y z
#
# Youngs Moduli (GPa) = 48.92811 61.47950 58.66997
#
# Poissons Ratio (x) = 0.16462 0.14864
# Poissons Ratio (y) = 0.13101 0.58600
# Poissons Ratio (z) = 0.12396 0.61406
#
# Static dielectric constant tensor:
#      x y z
#    x 1.581180 0.000000 0.000000 
#    y 0.000000 1.591440 0.000000 
#    z 0.000000 0.000000 1.563460 
# 
# From -- ./inp_files/31425.got.cif
#   From: 2010.05.17/outbox.cif.g08.bks.cpg/sg53_16_cif.got.tgz:31425.got - 2010.06.03 12:45:16.
