data_PCOD9414840
_publ_section_title
;
Structure prediction by ZEFSAII (Michael W. Deem and Ramdas Pophale) SiO2 
 PCOD9414840
Probable space group: P M N A
;
_chemical_formula_sum "Si O2"
_cell_formula_units_Z 64
_cell_length_a 16.715296
_cell_length_b 22.858274
_cell_length_c 7.782974
_cell_angle_alpha 90.000000
_cell_angle_beta 90.000000
_cell_angle_gamma 90.000000
_cell_volume 2973.740622
_symmetry_space_group_name_H-M "P M N A"
_symmetry_group_IT_number 53
_symmetry_cell_setting 'orthorhombic'
loop_
_space_group_symop_operation_xyz
x,y,z
1/2-x,-y,1/2+z
x,-y,-z
1/2-x,y,1/2-z
-x,-y,-z
1/2+x,y,1/2-z
-x,y,z
1/2+x,-y,1/2+z
loop_
_atom_site_type_symbol
_atom_site_label
_atom_site_fract_x
_atom_site_fract_y
_atom_site_fract_z
Si Si1 0.655292 0.897782 0.221062
Si Si2 0.842083 0.980440 0.798238
Si Si3 0.838242 0.227361 0.654173
Si Si4 0.321811 0.640294 0.644517
Si Si5 0.708436 0.560762 0.070860
Si Si6 0.094713 0.862216 0.900643
Si Si7 0.094391 0.660249 0.517430
Si Si8 0.091332 0.741856 0.999791
O O1 0.750000 0.905504 0.250000
O O2 0.649614 0.840666 0.099830
O O3 0.619680 0.879774 0.405581
O O4 0.625327 0.963942 0.189116
O O5 0.750000 0.971938 0.750000
O O6 0.880148 0.916461 0.783313
O O7 0.848443 0.000000 0.000000
O O8 0.750000 0.231840 0.750000
O O9 0.860470 0.278081 0.519886
O O10 0.902392 0.237423 0.805333
O O11 0.250000 0.669804 0.750000
O O12 0.277622 0.585520 0.557937
O O13 0.355862 0.684355 0.507165
O O14 0.390061 0.635999 0.788953
O O15 0.750000 0.549728 0.250000
O O16 0.641752 0.611022 0.090336
O O17 0.674901 0.500000 0.000000
O O18 0.124740 0.795297 0.882795
O O19 0.000000 0.857378 0.893442
O O20 0.000000 0.665263 0.483550
O O21 0.000000 0.729610 0.950622
#
# Coordination Sequence:
#
# PCOD9414840 Si02
#       8
#     8   8   8   8   8   8   8   8
#     4   8  16  29  47  71 102 138 182 234 283 337
#     4   9  17  31  49  71 100 137 182 235 289 343
#     4  10  18  32  53  78 109 147 193 239 286 344
#     4  10  21  37  58  84 114 150 189 229 278 337
#     4  11  23  43  68  91 118 155 197 237 281 341
#     4   9  18  30  48  74 101 135 182 234 286 340
#     4  11  22  36  57  88 123 154 189 236 289 343
#     4  10  19  33  52  76 108 143 183 234 289 342
#
# _framework density 21.521716000000001
#
# number of rings (size 3 to 8) (size 9 to 14) (size 15 to 20)
#    0.000    2.250    0.000    4.500    0.000    3.500 
#    0.000    4.375    0.000    3.000    0.000    2.625 
#    0.000    0.000    0.000    0.000    0.000    0.000 
#
# Total GULP energy -356321.260317 kJ/mol
# GULP energy per Si atom -5567.519692 kJ/mol
# Density = 2.147273 g / cm^3
# Si number density = 21.521716 Si / 1000 Ang^3
#
#
#
# Elastic Constant Matrix: (Units=GPa)
#
#
# Indices 1 2 3 4 5 6 
#
# 1 54.5684 29.4125 7.5217 0.0000 0.0000 0.0000
# 2 29.4125 126.1849 20.8231 0.0000 0.0000 0.0000
# 3 7.5217 20.8231 34.8338 0.0000 0.0000 0.0000
# 4 0.0000 0.0000 0.0000 29.3675 0.0000 0.0000
# 5 0.0000 0.0000 0.0000 0.0000 14.8873 0.0000
# 6 0.0000 0.0000 0.0000 0.0000 0.0000 17.6624
#
#
#
# Elastic Compliance Matrix: (Units=1/GPa)
#
#
# Indices 1 2 3 4 5 6 
#
# 1 0.021059 -0.004613 -0.001790 0.000000 0.000000 0.000000
# 2 -0.004613 0.009803 -0.004864 0.000000 0.000000 0.000000
# 3 -0.001790 -0.004864 0.032002 0.000000 0.000000 0.000000
# 4 0.000000 0.000000 0.000000 0.034051 0.000000 0.000000
# 5 0.000000 0.000000 0.000000 0.000000 0.067171 0.000000
# 6 0.000000 0.000000 0.000000 0.000000 0.000000 0.056618
#
#
# Mechanical properties :
#
#
# Convention : Reuss Voigt Hill
#
# Bulk Modulus (GPa) = 24.79538 36.78908 30.79223
# Shear Modulus (GPa) = 19.47949 22.90542 21.19245
#
# Velocity S-wave (km/s) = 3.01177 3.26589 3.14140
# Velocity P-wave (km/s) = 4.86214 5.59932 5.24370
#
# Compressibility (1/GPa) = 0.04033010
#
# Stress axis : x y z
#
# Youngs Moduli (GPa) = 47.48586 102.01133 31.24835
#
# Poissons Ratio (x) = 0.47061 0.05592
# Poissons Ratio (y) = 0.21907 0.15199
# Poissons Ratio (z) = 0.08498 0.49616
#
# Static dielectric constant tensor:
#      x y z
#    x 1.769080 0.000000 0.000000 
#    y 0.000000 1.866940 0.000000 
#    z 0.000000 0.000000 1.907290 
# 
# From -- ./inp_files/10267.got.cif
#   From: 2010.05.17/outbox.cif.g08.bks.cpg/sg53_6_cif.got.tgz:10267.got - 2010.06.03 12:45:16.
