data_PCOD9414110
_publ_section_title
;
Structure prediction by ZEFSAII (Michael W. Deem and Ramdas Pophale) SiO2 
 PCOD9414110
Probable space group: P M N A
;
_chemical_formula_sum "Si O2"
_cell_formula_units_Z 40
_cell_length_a 24.373134
_cell_length_b 9.291410
_cell_length_c 7.458704
_cell_angle_alpha 90.000000
_cell_angle_beta 90.000000
_cell_angle_gamma 90.000000
_cell_volume 1689.103933
_symmetry_space_group_name_H-M "P M N A"
_symmetry_group_IT_number 53
_symmetry_cell_setting 'orthorhombic'
loop_
_space_group_symop_operation_xyz
x,y,z
1/2-x,-y,1/2+z
x,-y,-z
1/2-x,y,1/2-z
-x,-y,-z
1/2+x,y,1/2-z
-x,y,z
1/2+x,-y,1/2+z
loop_
_atom_site_type_symbol
_atom_site_label
_atom_site_fract_x
_atom_site_fract_y
_atom_site_fract_z
Si Si1 0.939102 0.331356 0.058591
Si Si2 0.438857 0.333179 0.011504
Si Si3 0.322227 0.250821 0.366115
Si Si4 0.744631 0.000000 0.000000
Si Si5 0.829131 0.245011 0.564907
Si Si6 0.743686 0.500000 0.000000
O O1 0.941553 0.310316 0.274864
O O2 0.879438 0.260059 0.024905
O O3 0.000000 0.282575 0.992853
O O4 0.934787 0.500000 0.000000
O O5 0.500000 0.314528 0.938939
O O6 0.393629 0.248546 0.897952
O O7 0.422744 0.500000 0.000000
O O8 0.330260 0.246865 0.152941
O O9 0.285099 0.388832 0.407912
O O10 0.285072 0.116274 0.416041
O O11 0.703493 0.898065 0.116356
O O12 0.796671 0.391566 0.611193
#
# Coordination Sequence:
#
# PCOD9414110 Si02
#       6
#     8   8   8   4   8   4
#     4   9  17  32  55  81 108 138 173 221 273 319
#     4   9  17  32  55  81 108 138 173 221 273 319
#     4  10  20  35  51  75 107 138 178 224 266 319
#     4  10  20  34  48  66 108 144 176 212 258 314
#     4  10  20  35  51  75 107 138 178 224 266 319
#     4  10  16  30  52  74 100 132 172 220 262 314
#
# _framework density 23.681194999999999
#
# number of rings (size 3 to 8) (size 9 to 14) (size 15 to 20)
#    0.000    2.400    2.000    2.400    0.000    0.000 
#    0.000   21.000    0.000    0.000    0.000    0.000 
#    0.000    0.000    0.000    0.000    0.000    0.000 
#
# Total GULP energy -223178.702326 kJ/mol
# GULP energy per Si atom -5579.467558 kJ/mol
# Density = 2.362730 g / cm^3
# Si number density = 23.681195 Si / 1000 Ang^3
#
#
#
# Elastic Constant Matrix: (Units=GPa)
#
#
# Indices 1 2 3 4 5 6 
#
# 1 223.9970 70.9497 11.1218 0.0000 0.0000 0.0000
# 2 70.9497 141.1360 11.2909 0.0000 0.0000 0.0000
# 3 11.1218 11.2909 63.4475 0.0000 0.0000 0.0000
# 4 0.0000 0.0000 0.0000 24.8190 0.0000 0.0000
# 5 0.0000 0.0000 0.0000 0.0000 22.3012 0.0000
# 6 0.0000 0.0000 0.0000 0.0000 0.0000 26.0758
#
#
#
# Elastic Compliance Matrix: (Units=1/GPa)
#
#
# Indices 1 2 3 4 5 6 
#
# 1 0.005323 -0.002639 -0.000463 0.000000 0.000000 0.000000
# 2 -0.002639 0.008496 -0.001049 0.000000 0.000000 0.000000
# 3 -0.000463 -0.001049 0.016029 0.000000 0.000000 0.000000
# 4 0.000000 0.000000 0.000000 0.040292 0.000000 0.000000
# 5 0.000000 0.000000 0.000000 0.000000 0.044841 0.000000
# 6 0.000000 0.000000 0.000000 0.000000 0.000000 0.038350
#
#
# Mechanical properties :
#
#
# Convention : Reuss Voigt Hill
#
# Bulk Modulus (GPa) = 46.41516 68.36725 57.39120
# Shear Modulus (GPa) = 29.61814 36.98705 33.30260
#
# Velocity S-wave (km/s) = 3.54036 3.95634 3.75412
# Velocity P-wave (km/s) = 6.02949 7.05710 6.56344
#
# Compressibility (1/GPa) = 0.02154469
#
# Stress axis : x y z
#
# Youngs Moduli (GPa) = 187.85601 117.70359 62.38671
#
# Poissons Ratio (x) = 0.31061 0.02892
# Poissons Ratio (y) = 0.49574 0.06546
# Poissons Ratio (z) = 0.08707 0.12351
#
# Static dielectric constant tensor:
#      x y z
#    x 1.999340 0.000000 0.000000 
#    y 0.000000 1.886380 0.000000 
#    z 0.000000 0.000000 2.018240 
# 
# From -- ./inp_files/12364.got.cif
#   From: 2010.05.17/outbox.cif.g08.bks.cpg/sg53_7_cif.got.tgz:12364.got - 2010.06.03 12:45:16.
