data_PCOD9414006
_publ_section_title
;
Structure prediction by ZEFSAII (Michael W. Deem and Ramdas Pophale) SiO2 
 PCOD9414006
Probable space group: P N N A
;
_chemical_formula_sum "Si O2"
_cell_formula_units_Z 40
_cell_length_a 12.000000
_cell_length_b 9.000000
_cell_length_c 18.000000
_cell_angle_alpha 90.000000
_cell_angle_beta 90.000000
_cell_angle_gamma 90.000000
_cell_volume 1944.000000
_symmetry_space_group_name_H-M "P N N A"
_symmetry_group_IT_number 52
_symmetry_cell_setting 'orthorhombic'
loop_
_space_group_symop_operation_xyz
x,y,z
1/2-x,-y,z
x,1/2-y,1/2-z
1/2-x,1/2+y,1/2-z
-x,-y,-z
1/2+x,y,-z
-x,1/2+y,1/2+z
1/2+x,1/2-y,1/2+z
loop_
_atom_site_type_symbol
_atom_site_label
_atom_site_fract_x
_atom_site_fract_y
_atom_site_fract_z
Si Si1 0.250000 0.000000 0.660907
Si Si2 0.918962 0.593906 0.052322
Si Si3 0.583521 0.655341 0.561488
Si Si4 0.794595 0.662289 0.912031
Si Si5 0.511661 0.841093 0.109639
Si Si6 0.157305 0.750000 0.750000
O O1 0.137951 0.996123 0.613626
O O2 0.258756 0.140719 0.710509
O O3 0.986792 0.730341 0.084453
O O4 0.819924 0.650039 0.999985
O O5 0.000000 0.500000 0.000000
O O6 0.698163 0.716972 0.594045
O O7 0.578735 0.667939 0.470139
O O8 0.553376 0.495292 0.593536
O O9 0.750000 0.500000 0.887344
O O10 0.913451 0.717690 0.882143
O O11 0.584391 0.828683 0.184481
#
# Coordination Sequence:
#
# PCOD9414006 Si02
#       6
#     4   8   8   8   8   4
#     4  12  26  42  66  96 138 178 218 268 336 418
#     4  11  19  37  68 101 128 164 224 281 333 392
#     4  10  21  39  69  96 123 167 228 286 331 378
#     4  11  19  35  66  99 122 160 220 281 332 382
#     4  10  24  42  61  94 135 170 216 278 331 408
#     4  12  28  46  62  92 142 180 212 264 348 422
#
# _framework density 20.576132000000001
#
# number of rings (size 3 to 8) (size 9 to 14) (size 15 to 20)
#    0.000    1.200    3.000    4.200    2.800    0.000 
#    3.600    2.000    0.000    0.000    0.000    0.000 
#    0.000    0.000    0.000    0.000    0.000    0.000 
#
# Total GULP energy -222944.013674 kJ/mol
# GULP energy per Si atom -5573.600342 kJ/mol
# Density = 2.052930 g / cm^3
# Si number density = 20.576132 Si / 1000 Ang^3
#
#
#
# Elastic Constant Matrix: (Units=GPa)
#
#
# Indices 1 2 3 4 5 6 
#
# 1 77.7757 42.5439 20.8887 0.0000 0.0000 0.0000
# 2 42.5439 80.5843 13.1789 0.0000 0.0000 0.0000
# 3 20.8887 13.1789 48.2443 0.0000 0.0000 0.0000
# 4 0.0000 0.0000 0.0000 31.1329 0.0000 0.0000
# 5 0.0000 0.0000 0.0000 0.0000 -377.8135 0.0000
# 6 0.0000 0.0000 0.0000 0.0000 0.0000 42.7668
#
#
#
# Elastic Compliance Matrix: (Units=1/GPa)
#
#
# Indices 1 2 3 4 5 6 
#
# 1 0.019568 -0.009363 -0.005915 0.000000 0.000000 0.000000
# 2 -0.009363 0.017470 -0.000718 0.000000 0.000000 0.000000
# 3 -0.005915 -0.000718 0.023485 0.000000 0.000000 0.000000
# 4 0.000000 0.000000 0.000000 0.032120 0.000000 0.000000
# 5 0.000000 0.000000 0.000000 0.000000 -0.002647 0.000000
# 6 0.000000 0.000000 0.000000 0.000000 0.000000 0.023383
#
#
# Mechanical properties :
#
#
# Convention : Reuss Voigt Hill
#
# Bulk Modulus (GPa) = 35.05020 39.98079 37.51550
# Shear Modulus (GPa) = 32.28266 -52.11656 -9.91695
#
# Velocity S-wave (km/s) = 3.96528 -5.03822 -2.19775
# Velocity P-wave (km/s) = 6.16733 3.79104 3.43976
#
# Compressibility (1/GPa) = 0.02853051
#
# Stress axis : x y z
#
# Youngs Moduli (GPa) = 51.10406 57.24033 42.58049
#
# Poissons Ratio (x) = 0.53597 0.25185
# Poissons Ratio (y) = 0.47851 0.03058
# Poissons Ratio (z) = 0.30226 0.04111
#
# Static dielectric constant tensor:
#      x y z
#    x 1.741570 0.000000 0.000000 
#    y 0.000000 1.799010 0.000000 
#    z 0.000000 0.000000 1.739520 
# 
# From -- ./inp_files/31995.got.cif
#   From: 2010.05.17/outbox.ucp.g08.bks.cvg/sg52_16_cif.got.tgz:31995.got - 2010.06.11 16:30:12.
