data_PCOD9414455
_publ_section_title
;
Structure prediction by ZEFSAII (Michael W. Deem and Ramdas Pophale) SiO2 
 PCOD9414455
Probable space group: P M N A
;
_chemical_formula_sum "Si O2"
_cell_formula_units_Z 64
_cell_length_a 11.898252
_cell_length_b 11.369648
_cell_length_c 27.355169
_cell_angle_alpha 90.000000
_cell_angle_beta 90.000000
_cell_angle_gamma 90.000000
_cell_volume 3700.578185
_symmetry_space_group_name_H-M "P M N A"
_symmetry_group_IT_number 53
_symmetry_cell_setting 'orthorhombic'
loop_
_space_group_symop_operation_xyz
x,y,z
1/2-x,-y,1/2+z
x,-y,-z
1/2-x,y,1/2-z
-x,-y,-z
1/2+x,y,1/2-z
-x,y,z
1/2+x,-y,1/2+z
loop_
_atom_site_type_symbol
_atom_site_label
_atom_site_fract_x
_atom_site_fract_y
_atom_site_fract_z
Si Si1 0.632746 0.141470 0.586552
Si Si2 0.374405 0.812423 0.724224
Si Si3 0.629214 0.218111 0.479124
Si Si4 0.374998 0.296306 0.134228
Si Si5 0.701741 0.559222 0.700575
Si Si6 0.792239 0.570618 0.544198
Si Si7 0.870686 0.412017 0.890002
Si Si8 0.200495 0.097334 0.121272
O O1 0.500000 0.113703 0.593620
O O2 0.653767 0.144486 0.528135
O O3 0.652209 0.273020 0.606477
O O4 0.704573 0.041493 0.612876
O O5 0.250000 0.838040 0.750000
O O6 0.500000 0.844397 0.744700
O O7 0.372662 0.671178 0.716559
O O8 0.365895 0.870833 0.670569
O O9 0.500000 0.256708 0.483182
O O10 0.710410 0.329434 0.477273
O O11 0.644733 0.149182 0.428237
O O12 0.500000 0.284726 0.152530
O O13 0.300735 0.375450 0.170397
O O14 0.370764 0.363387 0.082531
O O15 0.315502 0.170544 0.127348
O O16 0.750000 0.503627 0.750000
O O17 0.645255 0.468043 0.663714
O O18 0.847236 0.500000 0.500000
O O19 0.713171 0.482420 0.574925
O O20 0.000000 0.430411 0.905461
#
# Coordination Sequence:
#
# PCOD9414455 Si02
#       8
#     8   8   8   8   8   8   8   8
#     4  10  19  30  48  74 105 139 167 197 244 309
#     4  10  20  34  54  80 105 133 172 221 274 318
#     4  10  18  28  48  76 104 135 166 201 253 309
#     4   9  20  35  52  74  95 128 175 216 260 304
#     4   9  19  33  53  77 101 130 163 214 266 313
#     4  10  18  30  48  73 103 133 162 206 250 303
#     4  10  19  30  48  77 108 135 162 198 253 315
#     4  10  20  33  51  72 103 134 170 218 256 302
#
# _framework density 17.294595000000001
#
# number of rings (size 3 to 8) (size 9 to 14) (size 15 to 20)
#    0.000    2.250    1.250    3.000    0.000    6.750 
#    0.000    0.625    0.000    9.000    0.000    0.000 
#    0.000    0.000    0.000    0.000    0.000    0.000 
#
# Total GULP energy -356566.460813 kJ/mol
# GULP energy per Si atom -5571.350950 kJ/mol
# Density = 1.725523 g / cm^3
# Si number density = 17.294595 Si / 1000 Ang^3
#
#
#
# Elastic Constant Matrix: (Units=GPa)
#
#
# Indices 1 2 3 4 5 6 
#
# 1 91.5677 25.5876 13.6452 0.0000 0.0000 0.0000
# 2 25.5876 77.0350 25.8954 0.0000 0.0000 0.0000
# 3 13.6452 25.8954 81.0475 0.0000 0.0000 0.0000
# 4 0.0000 0.0000 0.0000 22.8505 0.0000 0.0000
# 5 0.0000 0.0000 0.0000 0.0000 7.6542 0.0000
# 6 0.0000 0.0000 0.0000 0.0000 0.0000 -2.3962
#
#
#
# Elastic Compliance Matrix: (Units=1/GPa)
#
#
# Indices 1 2 3 4 5 6 
#
# 1 0.012089 -0.003732 -0.000843 0.000000 0.000000 0.000000
# 2 -0.003732 0.015695 -0.004386 0.000000 0.000000 0.000000
# 3 -0.000843 -0.004386 0.013882 0.000000 0.000000 0.000000
# 4 0.000000 0.000000 0.000000 0.043763 0.000000 0.000000
# 5 0.000000 0.000000 0.000000 0.000000 0.130647 0.000000
# 6 0.000000 0.000000 0.000000 0.000000 0.000000 -0.417327
#
#
# Mechanical properties :
#
#
# Convention : Reuss Voigt Hill
#
# Bulk Modulus (GPa) = 42.11685 42.21184 42.16434
# Shear Modulus (GPa) = -28.50414 17.92317 -5.29048
#
# Velocity S-wave (km/s) = -4.06415 3.22272 -1.75091
# Velocity P-wave (km/s) = 1.54350 6.18938 4.51059
#
# Compressibility (1/GPa) = 0.02374347
#
# Stress axis : x y z
#
# Youngs Moduli (GPa) = 82.71702 63.71336 72.03640
#
# Poissons Ratio (x) = 0.23779 0.06072
# Poissons Ratio (y) = 0.30872 0.31598
# Poissons Ratio (z) = 0.06972 0.27947
#
# Static dielectric constant tensor:
#      x y z
#    x 1.586930 0.000000 0.000000 
#    y 0.000000 1.571460 0.000000 
#    z 0.000000 0.000000 1.627440 
# 
# From -- ./inp_files/36850.got.cif
#   From: 2010.05.17/outbox.cif.g08.bks.cpg/sg53_19_cif.got.tgz:36850.got - 2010.06.03 12:45:16.
