data_PCOD9414983
_publ_section_title
;
Structure prediction by ZEFSAII (Michael W. Deem and Ramdas Pophale) SiO2 
 PCOD9414983
Probable space group: P M N A
;
_chemical_formula_sum "Si O2"
_cell_formula_units_Z 40
_cell_length_a 9.377750
_cell_length_b 25.008434
_cell_length_c 8.925978
_cell_angle_alpha 90.000000
_cell_angle_beta 90.000000
_cell_angle_gamma 90.000000
_cell_volume 2093.345728
_symmetry_space_group_name_H-M "P M N A"
_symmetry_group_IT_number 53
_symmetry_cell_setting 'orthorhombic'
loop_
_space_group_symop_operation_xyz
x,y,z
1/2-x,-y,1/2+z
x,-y,-z
1/2-x,y,1/2-z
-x,-y,-z
1/2+x,y,1/2-z
-x,y,z
1/2+x,-y,1/2+z
loop_
_atom_site_type_symbol
_atom_site_label
_atom_site_fract_x
_atom_site_fract_y
_atom_site_fract_z
Si Si1 0.755820 0.364434 0.568279
Si Si2 0.668370 0.054622 0.905731
Si Si3 0.325271 0.245043 0.913991
Si Si4 0.000000 0.560453 0.061273
Si Si5 0.000000 0.443601 0.577606
Si Si6 0.824468 0.851794 0.911938
O O1 0.750000 0.360566 0.750000
O O2 0.788505 0.304044 0.521497
O O3 0.624176 0.399140 0.516892
O O4 0.873824 0.406431 0.527834
O O5 0.750000 0.045499 0.750000
O O6 0.500000 0.070574 0.886334
O O7 0.761476 0.099184 0.991205
O O8 0.668691 0.000000 0.000000
O O9 0.250000 0.241236 0.750000
O O10 0.500000 0.238930 0.905197
O O11 0.244919 0.200897 0.012917
O O12 0.000000 0.552550 0.241898
O O13 0.000000 0.500000 0.000000
O O14 0.000000 0.500000 0.500000
O O15 0.750000 0.856888 0.750000
O O16 0.000000 0.850916 0.907164
#
# Coordination Sequence:
#
# PCOD9414983 Si02
#       6
#     8   8   8   4   4   8
#     4   9  19  33  56  80 109 147 194 245 298 364
#     4  11  24  43  69 101 137 177 221 267 315 370
#     4  11  22  39  64  92 120 158 210 262 314 375
#     4  10  20  34  52  80 110 146 189 242 299 366
#     4  10  18  34  54  78 108 144 189 238 299 362
#     4  12  26  44  66  93 131 172 211 262 318 376
#
# _framework density 19.108166000000001
#
# number of rings (size 3 to 8) (size 9 to 14) (size 15 to 20)
#    0.000    1.400    1.000    4.800    5.600    3.200 
#    0.000    2.000    0.000    0.000    0.000    0.000 
#    0.000    0.000    0.000    0.000    0.000    0.000 
#
# Total GULP energy -222714.586932 kJ/mol
# GULP energy per Si atom -5567.864673 kJ/mol
# Density = 1.906467 g / cm^3
# Si number density = 19.108166 Si / 1000 Ang^3
#
#
#
# Elastic Constant Matrix: (Units=GPa)
#
#
# Indices 1 2 3 4 5 6 
#
# 1 238.9805 84.9727 54.4848 0.0000 0.0000 0.0000
# 2 84.9727 160.1132 50.7436 0.0000 0.0000 0.0000
# 3 54.4848 50.7436 86.3067 0.0000 0.0000 0.0000
# 4 0.0000 0.0000 0.0000 39.7037 0.0000 0.0000
# 5 0.0000 0.0000 0.0000 0.0000 21.7664 0.0000
# 6 0.0000 0.0000 0.0000 0.0000 0.0000 33.2751
#
#
#
# Elastic Compliance Matrix: (Units=1/GPa)
#
#
# Indices 1 2 3 4 5 6 
#
# 1 0.005462 -0.002220 -0.002143 0.000000 0.000000 0.000000
# 2 -0.002220 0.008578 -0.003642 0.000000 0.000000 0.000000
# 3 -0.002143 -0.003642 0.015081 0.000000 0.000000 0.000000
# 4 0.000000 0.000000 0.000000 0.025187 0.000000 0.000000
# 5 0.000000 0.000000 0.000000 0.000000 0.045942 0.000000
# 6 0.000000 0.000000 0.000000 0.000000 0.000000 0.030053
#
#
# Mechanical properties :
#
#
# Convention : Reuss Voigt Hill
#
# Bulk Modulus (GPa) = 76.27105 96.20029 86.23567
# Shear Modulus (GPa) = 33.18230 38.62899 35.90565
#
# Velocity S-wave (km/s) = 4.17172 4.50109 4.33953
# Velocity P-wave (km/s) = 7.95024 8.80156 8.38671
#
# Compressibility (1/GPa) = 0.01311113
#
# Stress axis : x y z
#
# Youngs Moduli (GPa) = 183.07312 116.58022 66.30879
#
# Poissons Ratio (x) = 0.25876 0.14212
# Poissons Ratio (y) = 0.40635 0.24150
# Poissons Ratio (z) = 0.39238 0.42459
#
# Static dielectric constant tensor:
#      x y z
#    x 1.546090 0.000000 0.000000 
#    y 0.000000 1.637950 0.000000 
#    z 0.000000 0.000000 1.678600 
# 
# From -- ./inp_files/6348.got.cif
#   From: 2010.05.17/outbox.cif.g08.bks.cpg/sg53_4_cif.got.tgz:6348.got - 2010.06.03 12:45:16.
