data_PCOD9414537
_publ_section_title
;
Structure prediction by ZEFSAII (Michael W. Deem and Ramdas Pophale) SiO2 
 PCOD9414537
Probable space group: P M N A
;
_chemical_formula_sum "Si O2"
_cell_formula_units_Z 64
_cell_length_a 7.964335
_cell_length_b 11.860224
_cell_length_c 31.683623
_cell_angle_alpha 90.000000
_cell_angle_beta 90.000000
_cell_angle_gamma 90.000000
_cell_volume 2992.796917
_symmetry_space_group_name_H-M "P M N A"
_symmetry_group_IT_number 53
_symmetry_cell_setting 'orthorhombic'
loop_
_space_group_symop_operation_xyz
x,y,z
1/2-x,-y,1/2+z
x,-y,-z
1/2-x,y,1/2-z
-x,-y,-z
1/2+x,y,1/2-z
-x,y,z
1/2+x,-y,1/2+z
loop_
_atom_site_type_symbol
_atom_site_label
_atom_site_fract_x
_atom_site_fract_y
_atom_site_fract_z
Si Si1 0.695985 0.729675 0.797811
Si Si2 0.696262 0.407216 0.703735
Si Si3 0.198272 0.801840 0.154159
Si Si4 0.204656 0.057460 0.062996
Si Si5 0.296393 0.944024 0.657408
Si Si6 0.697058 0.633539 0.079721
Si Si7 0.298477 0.823550 0.479229
Si Si8 0.690450 0.564414 0.866775
O O1 0.750000 0.701815 0.750000
O O2 0.500000 0.703247 0.799431
O O3 0.726983 0.860277 0.807725
O O4 0.773333 0.665070 0.839120
O O5 0.750000 0.438878 0.750000
O O6 0.500000 0.434319 0.695918
O O7 0.717536 0.274855 0.695325
O O8 0.809909 0.471022 0.670257
O O9 0.269209 0.727095 0.116024
O O10 0.000000 0.812184 0.144238
O O11 0.262690 0.926943 0.160765
O O12 0.256298 0.090555 0.109893
O O13 0.000000 0.056100 0.062802
O O14 0.257448 0.929624 0.050295
O O15 0.260148 0.142054 0.026084
O O16 0.500000 0.941136 0.660076
O O17 0.500000 0.614657 0.076823
O O18 0.752137 0.700819 0.038050
O O19 0.769449 0.511613 0.095217
O O20 0.500000 0.828530 0.479191
O O21 0.500000 0.597371 0.879062
#
# Coordination Sequence:
#
# PCOD9414537 Si02
#       8
#     8   8   8   8   8   8   8   8
#     4  11  24  41  58  76  98 131 176 224 266 311
#     4  10  19  30  48  73  98 125 158 201 255 311
#     4   9  18  32  49  70  99 134 167 200 247 312
#     4   8  15  28  51  77 107 145 179 208 246 300
#     4  10  19  35  56  77 104 138 175 215 257 305
#     4  10  18  29  49  78 108 136 166 211 262 306
#     4   9  15  28  50  78 109 144 178 207 248 305
#     4   9  20  37  54  72  98 130 169 215 263 308
#
# _framework density 21.384678000000001
#
# number of rings (size 3 to 8) (size 9 to 14) (size 15 to 20)
#    0.000    2.500    1.250    2.250    0.000    4.000 
#    0.000    3.125    0.000    0.750    0.000    5.250 
#    0.000    0.000    0.000    0.000    0.000    0.000 
#
# Total GULP energy -356439.007921 kJ/mol
# GULP energy per Si atom -5569.359499 kJ/mol
# Density = 2.133601 g / cm^3
# Si number density = 21.384678 Si / 1000 Ang^3
#
#
#
# Elastic Constant Matrix: (Units=GPa)
#
#
# Indices 1 2 3 4 5 6 
#
# 1 21.6477 6.3812 5.9504 0.0000 0.0000 0.0000
# 2 6.3812 56.7562 1.0178 0.0000 0.0000 0.0000
# 3 5.9504 1.0178 35.5373 0.0000 0.0000 0.0000
# 4 0.0000 0.0000 0.0000 11.2666 0.0000 0.0000
# 5 0.0000 0.0000 0.0000 0.0000 -164.8298 0.0000
# 6 0.0000 0.0000 0.0000 0.0000 0.0000 -4.1400
#
#
#
# Elastic Compliance Matrix: (Units=1/GPa)
#
#
# Indices 1 2 3 4 5 6 
#
# 1 0.050072 -0.005482 -0.008227 0.000000 0.000000 0.000000
# 2 -0.005482 0.018228 0.000396 0.000000 0.000000 0.000000
# 3 -0.008227 0.000396 0.029506 0.000000 0.000000 0.000000
# 4 0.000000 0.000000 0.000000 0.088758 0.000000 0.000000
# 5 0.000000 0.000000 0.000000 0.000000 -0.006067 0.000000
# 6 0.000000 0.000000 0.000000 0.000000 0.000000 -0.241543
#
#
# Mechanical properties :
#
#
# Convention : Reuss Voigt Hill
#
# Bulk Modulus (GPa) = 14.04903 15.62666 14.83784
# Shear Modulus (GPa) = -467.57227 -24.83452 -246.20340
#
# Velocity S-wave (km/s) = -14.80280 -3.41152 -10.74154
# Velocity P-wave (km/s) = 16.89911 2.86263 12.11971
#
# Compressibility (1/GPa) = 0.07117929
#
# Stress axis : x y z
#
# Youngs Moduli (GPa) = 19.97135 54.85923 33.89179
#
# Poissons Ratio (x) = 0.30074 0.27883
# Poissons Ratio (y) = 0.10949 -0.01342
# Poissons Ratio (z) = 0.16431 -0.02172
#
# Static dielectric constant tensor:
#      x y z
#    x 1.792260 0.000000 0.000000 
#    y 0.000000 1.832340 0.000000 
#    z 0.000000 0.000000 1.811580 
# 
# From -- ./inp_files/38178.got.cif
#   From: 2010.05.17/outbox.cif.g08.bks.cpg/sg53_20_cif.got.tgz:38178.got - 2010.06.03 12:45:16.
