data_PCOD9414454
_publ_section_title
;
Structure prediction by ZEFSAII (Michael W. Deem and Ramdas Pophale) SiO2 
 PCOD9414454
Probable space group: P M N A
;
_chemical_formula_sum "Si O2"
_cell_formula_units_Z 48
_cell_length_a 16.524456
_cell_length_b 9.401835
_cell_length_c 17.278737
_cell_angle_alpha 90.000000
_cell_angle_beta 90.000000
_cell_angle_gamma 90.000000
_cell_volume 2684.428188
_symmetry_space_group_name_H-M "P M N A"
_symmetry_group_IT_number 53
_symmetry_cell_setting 'orthorhombic'
loop_
_space_group_symop_operation_xyz
x,y,z
1/2-x,-y,1/2+z
x,-y,-z
1/2-x,y,1/2-z
-x,-y,-z
1/2+x,y,1/2-z
-x,y,z
1/2+x,-y,1/2+z
loop_
_atom_site_type_symbol
_atom_site_label
_atom_site_fract_x
_atom_site_fract_y
_atom_site_fract_z
Si Si1 0.834083 0.730827 0.793397
Si Si2 0.241673 0.519808 0.911042
Si Si3 0.408791 0.531609 0.837394
Si Si4 0.589674 0.968649 0.326805
Si Si5 0.087095 0.194188 0.663217
Si Si6 0.260539 0.790960 0.343543
O O1 0.750000 0.772636 0.750000
O O2 0.807797 0.642422 0.868481
O O3 0.882408 0.626368 0.735656
O O4 0.885059 0.868839 0.814350
O O5 0.337466 0.551676 0.899635
O O6 0.225479 0.371894 0.866582
O O7 0.221818 0.500000 0.000000
O O8 0.500000 0.567931 0.862380
O O9 0.408417 0.363055 0.817524
O O10 0.500000 0.955188 0.361881
O O11 0.585291 0.895681 0.241940
O O12 0.663780 0.886952 0.367492
O O13 0.172895 0.162379 0.622931
O O14 0.000000 0.170982 0.622884
O O15 0.250000 0.799378 0.250000
#
# Coordination Sequence:
#
# PCOD9414454 Si02
#       6
#     8   8   8   8   8   8
#     4  10  18  30  49  74 101 129 163 205 251 295
#     4  10  20  33  50  72 101 137 169 200 246 300
#     4   9  17  31  53  78 102 127 160 205 251 299
#     4  10  18  28  48  74  96 122 163 215 258 290
#     4   8  14  25  44  72  98 121 151 190 241 293
#     4   9  16  31  51  71  96 127 165 205 244 294
#
# _framework density 17.880901999999999
#
# number of rings (size 3 to 8) (size 9 to 14) (size 15 to 20)
#    0.000    2.667    0.000    5.500    0.000    0.333 
#    0.000    1.667    0.000    5.500    0.000    0.000 
#    0.000   36.000    0.000    0.000    0.000    0.000 
#
# Total GULP energy -267251.643436 kJ/mol
# GULP energy per Si atom -5567.742572 kJ/mol
# Density = 1.784020 g / cm^3
# Si number density = 17.880902 Si / 1000 Ang^3
#
#
#
# Elastic Constant Matrix: (Units=GPa)
#
#
# Indices 1 2 3 4 5 6 
#
# 1 144.0105 45.2724 0.1359 0.0000 0.0000 0.0000
# 2 45.2724 49.5356 0.2952 0.0000 0.0000 0.0000
# 3 0.1359 0.2952 10.0966 0.0000 0.0000 0.0000
# 4 0.0000 0.0000 0.0000 -2.7872 0.0000 0.0000
# 5 0.0000 0.0000 0.0000 0.0000 3.2259 0.0000
# 6 0.0000 0.0000 0.0000 0.0000 0.0000 13.4945
#
#
#
# Elastic Compliance Matrix: (Units=1/GPa)
#
#
# Indices 1 2 3 4 5 6 
#
# 1 0.009743 -0.008906 0.000129 0.000000 0.000000 0.000000
# 2 -0.008906 0.028331 -0.000709 0.000000 0.000000 0.000000
# 3 0.000129 -0.000709 0.099062 0.000000 0.000000 0.000000
# 4 0.000000 0.000000 0.000000 -0.358779 0.000000 0.000000
# 5 0.000000 0.000000 0.000000 0.000000 0.309993 0.000000
# 6 0.000000 0.000000 0.000000 0.000000 0.000000 0.074105
#
#
# Mechanical properties :
#
#
# Convention : Reuss Voigt Hill
#
# Bulk Modulus (GPa) = 8.46262 32.78331 20.62297
# Shear Modulus (GPa) = 22.64342 13.31589 17.97966
#
# Velocity S-wave (km/s) = 3.56244 2.73188 3.17444
# Velocity P-wave (km/s) = 4.65449 5.32212 4.99946
#
# Compressibility (1/GPa) = 0.11816674
#
# Stress axis : x y z
#
# Youngs Moduli (GPa) = 102.63254 35.29706 10.09466
#
# Poissons Ratio (x) = 0.31435 -0.00130
# Poissons Ratio (y) = 0.91402 0.00715
# Poissons Ratio (z) = -0.01327 0.02501
#
# Static dielectric constant tensor:
#      x y z
#    x 1.701650 0.000000 0.000000 
#    y 0.000000 1.595520 0.000000 
#    z 0.000000 0.000000 1.559680 
# 
# From -- ./inp_files/28916.got.cif
#   From: 2010.05.17/outbox.cif.g08.bks.cpg/sg53_15_cif.got.tgz:28916.got - 2010.06.03 12:45:16.
