data_PCOD9414758
_publ_section_title
;
Structure prediction by ZEFSAII (Michael W. Deem and Ramdas Pophale) SiO2 
 PCOD9414758
Probable space group: P M N A
;
_chemical_formula_sum "Si O2"
_cell_formula_units_Z 48
_cell_length_a 15.597573
_cell_length_b 16.847821
_cell_length_c 8.557044
_cell_angle_alpha 90.000000
_cell_angle_beta 90.000000
_cell_angle_gamma 90.000000
_cell_volume 2248.663817
_symmetry_space_group_name_H-M "P M N A"
_symmetry_group_IT_number 53
_symmetry_cell_setting 'orthorhombic'
loop_
_space_group_symop_operation_xyz
x,y,z
1/2-x,-y,1/2+z
x,-y,-z
1/2-x,y,1/2-z
-x,-y,-z
1/2+x,y,1/2-z
-x,y,z
1/2+x,-y,1/2+z
loop_
_atom_site_type_symbol
_atom_site_label
_atom_site_fract_x
_atom_site_fract_y
_atom_site_fract_z
Si Si1 0.151960 0.912786 0.688488
Si Si2 0.404778 0.414450 0.349828
Si Si3 0.654570 0.582880 0.315291
Si Si4 0.348336 0.916550 0.189827
Si Si5 0.848582 0.745594 0.309666
Si Si6 0.653240 0.740537 0.816374
O O1 0.250000 0.912407 0.750000
O O2 0.152792 0.914562 0.499334
O O3 0.115537 0.826624 0.735082
O O4 0.113499 0.997987 0.738924
O O5 0.500000 0.413728 0.417967
O O6 0.341712 0.410550 0.497165
O O7 0.390302 0.500065 0.272066
O O8 0.392590 0.338043 0.243899
O O9 0.750000 0.578345 0.250000
O O10 0.612552 0.664418 0.255681
O O11 0.250000 0.917146 0.250000
O O12 0.386561 0.831365 0.238918
O O13 0.750000 0.746693 0.250000
O O14 0.846776 0.740408 0.496505
O O15 0.750000 0.737166 0.750000
#
# Coordination Sequence:
#
# PCOD9414758 Si02
#       6
#     8   8   8   8   8   8
#     4   8  14  23  40  68 102 136 170 212 262 312
#     4  11  24  41  57  79 111 146 178 220 275 326
#     4  10  20  36  58  80 102 136 179 220 265 321
#     4   8  13  23  38  65 105 136 161 209 271 315
#     4   9  17  28  48  78 107 135 173 221 271 317
#     4  10  18  31  53  80 107 141 185 224 262 317
#
# _framework density 21.34601
#
# number of rings (size 3 to 8) (size 9 to 14) (size 15 to 20)
#    0.000    2.667    0.000    3.500    0.000    4.667 
#    0.000    2.500    0.000    0.000    0.000   12.833 
#    0.000    0.000    0.000    0.000    0.000    0.000 
#
# Total GULP energy -267336.839514 kJ/mol
# GULP energy per Si atom -5569.517490 kJ/mol
# Density = 2.129743 g / cm^3
# Si number density = 21.346010 Si / 1000 Ang^3
#
#
#
# Elastic Constant Matrix: (Units=GPa)
#
#
# Indices 1 2 3 4 5 6 
#
# 1 34.6306 16.4251 6.4869 0.0000 0.0000 0.0000
# 2 16.4251 286.9791 47.9359 0.0000 0.0000 0.0000
# 3 6.4869 47.9359 33.9864 0.0000 0.0000 0.0000
# 4 0.0000 0.0000 0.0000 21.4146 0.0000 0.0000
# 5 0.0000 0.0000 0.0000 0.0000 19.9648 0.0000
# 6 0.0000 0.0000 0.0000 0.0000 0.0000 -27.0109
#
#
#
# Elastic Compliance Matrix: (Units=1/GPa)
#
#
# Indices 1 2 3 4 5 6 
#
# 1 0.030165 -0.001000 -0.004346 0.000000 0.000000 0.000000
# 2 -0.001000 0.004592 -0.006285 0.000000 0.000000 0.000000
# 3 -0.004346 -0.006285 0.039118 0.000000 0.000000 0.000000
# 4 0.000000 0.000000 0.000000 0.046697 0.000000 0.000000
# 5 0.000000 0.000000 0.000000 0.000000 0.050088 0.000000
# 6 0.000000 0.000000 0.000000 0.000000 0.000000 -0.037022
#
#
# Mechanical properties :
#
#
# Convention : Reuss Voigt Hill
#
# Bulk Modulus (GPa) = 19.75881 55.25468 37.50675
# Shear Modulus (GPa) = 28.77322 21.85691 25.31507
#
# Velocity S-wave (km/s) = 3.67542 3.20337 3.44748
# Velocity P-wave (km/s) = 5.22380 6.29472 5.78410
#
# Compressibility (1/GPa) = 0.05061034
#
# Stress axis : x y z
#
# Youngs Moduli (GPa) = 33.15120 217.78296 25.56349
#
# Poissons Ratio (x) = 0.21789 0.11111
# Poissons Ratio (y) = 0.03317 0.16068
# Poissons Ratio (z) = 0.14409 1.36886
#
# Static dielectric constant tensor:
#      x y z
#    x 1.819700 0.000000 0.000000 
#    y 0.000000 1.896310 0.000000 
#    z 0.000000 0.000000 1.736670 
# 
# From -- ./inp_files/8645.got.cif
#   From: 2010.05.17/outbox.cif.g08.bks.cpg/sg53_5_cif.got.tgz:8645.got - 2010.06.03 12:45:16.
