data_PCOD9414259
_publ_section_title
;
Structure prediction by ZEFSAII (Michael W. Deem and Ramdas Pophale) SiO2 
 PCOD9414259
Probable space group: P M N A
;
_chemical_formula_sum "Si O2"
_cell_formula_units_Z 64
_cell_length_a 8.519669
_cell_length_b 14.532549
_cell_length_c 30.506006
_cell_angle_alpha 90.000000
_cell_angle_beta 90.000000
_cell_angle_gamma 90.000000
_cell_volume 3777.025088
_symmetry_space_group_name_H-M "P M N A"
_symmetry_group_IT_number 53
_symmetry_cell_setting 'orthorhombic'
loop_
_space_group_symop_operation_xyz
x,y,z
1/2-x,-y,1/2+z
x,-y,-z
1/2-x,y,1/2-z
-x,-y,-z
1/2+x,y,1/2-z
-x,y,z
1/2+x,-y,1/2+z
loop_
_atom_site_type_symbol
_atom_site_label
_atom_site_fract_x
_atom_site_fract_y
_atom_site_fract_z
Si Si1 0.186000 0.789461 0.419170
Si Si2 0.311843 0.620769 0.375108
Si Si3 0.812632 0.185420 0.415080
Si Si4 0.816852 0.468683 0.061123
Si Si5 0.809331 0.988044 0.449233
Si Si6 0.812227 0.694382 0.994612
Si Si7 0.186433 0.508446 0.701314
Si Si8 0.681976 0.330991 0.354970
O O1 0.261653 0.725740 0.381851
O O2 0.245715 0.893402 0.426988
O O3 0.225508 0.737386 0.464365
O O4 0.000000 0.792353 0.412150
O O5 0.500000 0.613988 0.375327
O O6 0.250646 0.561276 0.417315
O O7 0.250307 0.569071 0.332143
O O8 0.723415 0.238320 0.454043
O O9 0.765042 0.237412 0.370499
O O10 0.000000 0.195380 0.421719
O O11 0.771504 0.078424 0.421009
O O12 0.755798 0.407169 0.020855
O O13 0.811563 0.398201 0.102428
O O14 0.000000 0.486306 0.051294
O O15 0.000000 0.982103 0.451519
O O16 0.755621 0.000000 0.500000
O O17 0.000000 0.690713 0.002507
O O18 0.250000 0.494101 0.750000
O O19 0.241396 0.607883 0.682932
O O20 0.000000 0.505068 0.700990
O O21 0.000000 0.313845 0.154872
#
# Coordination Sequence:
#
# PCOD9414259 Si02
#       8
#     8   8   8   8   8   8   8   8
#     4  11  21  33  47  66  95 133 179 225 263 305
#     4  10  20  36  52  71 101 134 167 211 259 304
#     4  10  17  29  49  70  95 133 177 219 262 308
#     4   7  14  28  45  61  88 127 162 196 244 297
#     4   9  17  31  48  67  95 135 180 228 270 303
#     4  10  18  29  44  65  91 127 171 216 262 305
#     4  11  21  36  59  86 110 136 166 198 242 301
#     4   9  17  31  49  75 107 134 161 204 254 301
#
# _framework density 16.944552000000002
#
# number of rings (size 3 to 8) (size 9 to 14) (size 15 to 20)
#    0.000    2.375    1.250    4.500    0.000    0.500 
#    0.000    7.500    0.000    0.000    0.000    0.875 
#    0.000    0.000    0.000    0.000    0.000    0.000 
#
# Total GULP energy -356775.349535 kJ/mol
# GULP energy per Si atom -5574.614836 kJ/mol
# Density = 1.690599 g / cm^3
# Si number density = 16.944552 Si / 1000 Ang^3
#
#
#
# Elastic Constant Matrix: (Units=GPa)
#
#
# Indices 1 2 3 4 5 6 
#
# 1 37.5517 19.9933 6.1854 0.0000 0.0000 0.0000
# 2 19.9933 146.7491 45.2838 0.0000 0.0000 0.0000
# 3 6.1854 45.2838 68.9800 0.0000 0.0000 0.0000
# 4 0.0000 0.0000 0.0000 14.4607 0.0000 0.0000
# 5 0.0000 0.0000 0.0000 0.0000 20.6584 0.0000
# 6 0.0000 0.0000 0.0000 0.0000 0.0000 28.4735
#
#
#
# Elastic Compliance Matrix: (Units=1/GPa)
#
#
# Indices 1 2 3 4 5 6 
#
# 1 0.028713 -0.003909 -0.000008 0.000000 0.000000 0.000000
# 2 -0.003909 0.009078 -0.005609 0.000000 0.000000 0.000000
# 3 -0.000008 -0.005609 0.018180 0.000000 0.000000 0.000000
# 4 0.000000 0.000000 0.000000 0.069153 0.000000 0.000000
# 5 0.000000 0.000000 0.000000 0.000000 0.048406 0.000000
# 6 0.000000 0.000000 0.000000 0.000000 0.000000 0.035120
#
#
# Mechanical properties :
#
#
# Convention : Reuss Voigt Hill
#
# Bulk Modulus (GPa) = 27.08748 44.02289 35.55519
# Shear Modulus (GPa) = 20.83262 24.83974 22.83618
#
# Velocity S-wave (km/s) = 3.51017 3.83292 3.67509
# Velocity P-wave (km/s) = 5.69640 6.75465 6.24797
#
# Compressibility (1/GPa) = 0.03691742
#
# Stress axis : x y z
#
# Youngs Moduli (GPa) = 34.82780 110.15984 55.00634
#
# Poissons Ratio (x) = 0.43065 0.00046
# Poissons Ratio (y) = 0.13615 0.30852
# Poissons Ratio (z) = 0.00029 0.61786
#
# Static dielectric constant tensor:
#      x y z
#    x 1.573210 0.000000 0.000000 
#    y 0.000000 1.615110 0.000000 
#    z 0.000000 0.000000 1.574570 
# 
# From -- ./inp_files/38504.got.cif
#   From: 2010.05.17/outbox.cif.g08.bks.cpg/sg53_20_cif.got.tgz:38504.got - 2010.06.03 12:45:16.
