data_PCOD9414623
_publ_section_title
;
Structure prediction by ZEFSAII (Michael W. Deem and Ramdas Pophale) SiO2 
 PCOD9414623
Probable space group: P M N A
;
_chemical_formula_sum "Si O2"
_cell_formula_units_Z 48
_cell_length_a 8.584902
_cell_length_b 32.170726
_cell_length_c 9.601579
_cell_angle_alpha 90.000000
_cell_angle_beta 90.000000
_cell_angle_gamma 90.000000
_cell_volume 2651.788380
_symmetry_space_group_name_H-M "P M N A"
_symmetry_group_IT_number 53
_symmetry_cell_setting 'orthorhombic'
loop_
_space_group_symop_operation_xyz
x,y,z
1/2-x,-y,1/2+z
x,-y,-z
1/2-x,y,1/2-z
-x,-y,-z
1/2+x,y,1/2-z
-x,y,z
1/2+x,-y,1/2+z
loop_
_atom_site_type_symbol
_atom_site_label
_atom_site_fract_x
_atom_site_fract_y
_atom_site_fract_z
Si Si1 0.311735 0.539365 0.093574
Si Si2 0.814289 0.873576 0.091358
Si Si3 0.812804 0.787117 0.407081
Si Si4 0.687875 0.289872 0.095273
Si Si5 0.188204 0.383752 0.405553
Si Si6 0.686731 0.039658 0.907167
O O1 0.250000 0.536723 0.250000
O O2 0.500000 0.539371 0.098675
O O3 0.262820 0.500000 0.000000
O O4 0.260216 0.581354 0.014567
O O5 0.750000 0.873785 0.250000
O O6 0.750135 0.830503 0.030079
O O7 0.753798 0.917186 0.031749
O O8 0.000000 0.872935 0.093561
O O9 0.750000 0.783712 0.250000
O O10 0.761211 0.746833 0.493354
O O11 0.000000 0.788942 0.403515
O O12 0.750000 0.282328 0.250000
O O13 0.500000 0.289448 0.098071
O O14 0.736904 0.336769 0.054694
O O15 0.250000 0.392350 0.250000
O O16 0.000000 0.384750 0.400032
O O17 0.750000 0.034645 0.750000
O O18 0.500000 0.042944 0.901053
O O19 0.729754 0.000000 0.000000
#
# Coordination Sequence:
#
# PCOD9414623 Si02
#       6
#     8   8   8   8   8   8
#     4  10  21  35  52  76 105 135 169 210 253 300
#     4  10  18  30  50  73  98 130 166 203 246 295
#     4  10  19  32  50  73  99 127 163 205 247 292
#     4   9  19  34  52  73 100 133 166 205 251 299
#     4   9  18  34  53  74 100 131 169 208 249 298
#     4  10  20  34  53  76 102 132 166 205 249 296
#
# _framework density 18.100991
#
# number of rings (size 3 to 8) (size 9 to 14) (size 15 to 20)
#    0.000    2.333    0.000    5.000    0.000    4.333 
#    0.000    0.833    0.000    0.000    0.000    0.000 
#    0.000    0.000    0.000    0.000    0.000    0.000 
#
# Total GULP energy -267734.406580 kJ/mol
# GULP energy per Si atom -5577.800137 kJ/mol
# Density = 1.805979 g / cm^3
# Si number density = 18.100991 Si / 1000 Ang^3
#
#
#
# Elastic Constant Matrix: (Units=GPa)
#
#
# Indices 1 2 3 4 5 6 
#
# 1 46.0449 46.9327 23.6225 0.0000 0.0000 0.0000
# 2 46.9327 205.3557 103.6341 0.0000 0.0000 0.0000
# 3 23.6225 103.6341 87.9113 0.0000 0.0000 0.0000
# 4 0.0000 0.0000 0.0000 34.5856 0.0000 0.0000
# 5 0.0000 0.0000 0.0000 0.0000 27.2915 0.0000
# 6 0.0000 0.0000 0.0000 0.0000 0.0000-1101.6124
#
#
#
# Elastic Compliance Matrix: (Units=1/GPa)
#
#
# Indices 1 2 3 4 5 6 
#
# 1 0.028314 -0.006496 0.000050 0.000000 0.000000 0.000000
# 2 -0.006496 0.013511 -0.014182 0.000000 0.000000 0.000000
# 3 0.000050 -0.014182 0.028081 0.000000 0.000000 0.000000
# 4 0.000000 0.000000 0.000000 0.028914 0.000000 0.000000
# 5 0.000000 0.000000 0.000000 0.000000 0.036642 0.000000
# 6 0.000000 0.000000 0.000000 0.000000 0.000000 -0.000908
#
#
# Mechanical properties :
#
#
# Convention : Reuss Voigt Hill
#
# Bulk Modulus (GPa) = 34.90609 76.41005 55.65807
# Shear Modulus (GPa) = 26.97446 -196.93890 -84.98222
#
# Velocity S-wave (km/s) = 3.86453 -10.44204 -6.85936
# Velocity P-wave (km/s) = 6.26408 10.15268 5.64970
#
# Compressibility (1/GPa) = 0.02864830
#
# Stress axis : x y z
#
# Youngs Moduli (GPa) = 35.31866 74.01112 35.61154
#
# Poissons Ratio (x) = 0.48077 -0.00177
# Poissons Ratio (y) = 0.22943 0.50506
# Poissons Ratio (z) = -0.00175 1.04966
#
# Static dielectric constant tensor:
#      x y z
#    x 1.612040 0.000000 0.000000 
#    y 0.000000 1.667190 0.000000 
#    z 0.000000 0.000000 1.587510 
# 
# From -- ./inp_files/6754.got.cif
#   From: 2010.05.17/outbox.cif.g08.bks.cpg/sg53_4_cif.got.tgz:6754.got - 2010.06.03 12:45:16.
