data_PCOD9414737
_publ_section_title
;
Structure prediction by ZEFSAII (Michael W. Deem and Ramdas Pophale) SiO2 
 PCOD9414737
Probable space group: P M N A
;
_chemical_formula_sum "Si O2"
_cell_formula_units_Z 48
_cell_length_a 8.639119
_cell_length_b 31.955080
_cell_length_c 9.583978
_cell_angle_alpha 90.000000
_cell_angle_beta 90.000000
_cell_angle_gamma 90.000000
_cell_volume 2645.788799
_symmetry_space_group_name_H-M "P M N A"
_symmetry_group_IT_number 53
_symmetry_cell_setting 'orthorhombic'
loop_
_space_group_symop_operation_xyz
x,y,z
1/2-x,-y,1/2+z
x,-y,-z
1/2-x,y,1/2-z
-x,-y,-z
1/2+x,y,1/2-z
-x,y,z
1/2+x,-y,1/2+z
loop_
_atom_site_type_symbol
_atom_site_label
_atom_site_fract_x
_atom_site_fract_y
_atom_site_fract_z
Si Si1 0.815216 0.372929 0.408490
Si Si2 0.313827 0.212165 0.905594
Si Si3 0.685404 0.459837 0.406765
Si Si4 0.687057 0.039646 0.093975
Si Si5 0.686418 0.883271 0.095119
Si Si6 0.684638 0.286182 0.407020
O O1 0.750000 0.373367 0.250000
O O2 0.755514 0.416853 0.468549
O O3 0.749898 0.329763 0.469951
O O4 0.000000 0.371897 0.406015
O O5 0.250000 0.218898 0.750000
O O6 0.500000 0.215502 0.906646
O O7 0.270626 0.164306 0.944663
O O8 0.241630 0.246539 0.006242
O O9 0.724113 0.500000 0.500000
O O10 0.750000 0.465288 0.250000
O O11 0.500000 0.455502 0.399220
O O12 0.750000 0.036853 0.250000
O O13 0.500000 0.039776 0.100048
O O14 0.738411 0.081936 0.015019
O O15 0.734705 0.000000 0.000000
O O16 0.750000 0.891930 0.250000
O O17 0.500000 0.884948 0.102713
O O18 0.750000 0.282671 0.250000
O O19 0.500000 0.288277 0.402044
#
# Coordination Sequence:
#
# PCOD9414737 Si02
#       6
#     8   8   8   8   8   8
#     4  10  18  31  52  76 103 136 174 215 262 314
#     4  10  20  36  55  78 108 141 177 216 265 319
#     4  10  20  34  53  77 105 137 174 215 261 313
#     4  10  21  36  54  79 109 140 177 219 263 312
#     4   9  19  35  55  78 105 138 176 217 259 311
#     4  11  21  35  55  79 106 137 176 220 265 313
#
# _framework density 18.142039
#
# number of rings (size 3 to 8) (size 9 to 14) (size 15 to 20)
#    0.000    2.000    0.000    6.500    0.000    3.667 
#    0.000    2.500    0.000    2.000    0.000    0.000 
#    0.000    0.000    0.000    0.000    0.000    0.000 
#
# Total GULP energy -267919.577053 kJ/mol
# GULP energy per Si atom -5581.657855 kJ/mol
# Density = 1.810075 g / cm^3
# Si number density = 18.142039 Si / 1000 Ang^3
#
#
#
# Elastic Constant Matrix: (Units=GPa)
#
#
# Indices 1 2 3 4 5 6 
#
# 1 93.7710 69.3171 38.9478 0.0000 0.0000 0.0000
# 2 69.3171 195.8333 102.4931 0.0000 0.0000 0.0000
# 3 38.9478 102.4931 89.0225 0.0000 0.0000 0.0000
# 4 0.0000 0.0000 0.0000 31.7497 0.0000 0.0000
# 5 0.0000 0.0000 0.0000 0.0000 28.6144 0.0000
# 6 0.0000 0.0000 0.0000 0.0000 0.0000 67.9504
#
#
#
# Elastic Compliance Matrix: (Units=1/GPa)
#
#
# Indices 1 2 3 4 5 6 
#
# 1 0.014486 -0.004555 -0.001093 0.000000 0.000000 0.000000
# 2 -0.004555 0.014281 -0.014449 0.000000 0.000000 0.000000
# 3 -0.001093 -0.014449 0.028346 0.000000 0.000000 0.000000
# 4 0.000000 0.000000 0.000000 0.031496 0.000000 0.000000
# 5 0.000000 0.000000 0.000000 0.000000 0.034947 0.000000
# 6 0.000000 0.000000 0.000000 0.000000 0.000000 0.014717
#
#
# Mechanical properties :
#
#
# Convention : Reuss Voigt Hill
#
# Bulk Modulus (GPa) = 59.10582 88.90474 74.00528
# Shear Modulus (GPa) = 27.15813 36.85417 32.00615
#
# Velocity S-wave (km/s) = 3.87327 4.51202 4.20479
# Velocity P-wave (km/s) = 7.25625 8.73245 8.02835
#
# Compressibility (1/GPa) = 0.01691881
#
# Stress axis : x y z
#
# Youngs Moduli (GPa) = 69.03420 70.02381 35.27778
#
# Poissons Ratio (x) = 0.31898 0.03855
# Poissons Ratio (y) = 0.31447 0.50972
# Poissons Ratio (z) = 0.07545 1.01176
#
# Static dielectric constant tensor:
#      x y z
#    x 1.612650 0.000000 0.000000 
#    y 0.000000 1.659260 0.000000 
#    z 0.000000 0.000000 1.602210 
# 
# From -- ./inp_files/6703.got.cif
#   From: 2010.05.17/outbox.cif.g08.bks.cpg/sg53_4_cif.got.tgz:6703.got - 2010.06.03 12:45:16.
