data_PCOD9414197
_publ_section_title
;
Structure prediction by ZEFSAII (Michael W. Deem and Ramdas Pophale) SiO2 
 PCOD9414197
Probable space group: P M N A
;
_chemical_formula_sum "Si O2"
_cell_formula_units_Z 56
_cell_length_a 9.104443
_cell_length_b 18.107540
_cell_length_c 22.732610
_cell_angle_alpha 90.000000
_cell_angle_beta 90.000000
_cell_angle_gamma 90.000000
_cell_volume 3747.676848
_symmetry_space_group_name_H-M "P M N A"
_symmetry_group_IT_number 53
_symmetry_cell_setting 'orthorhombic'
loop_
_space_group_symop_operation_xyz
x,y,z
1/2-x,-y,1/2+z
x,-y,-z
1/2-x,y,1/2-z
-x,-y,-z
1/2+x,y,1/2-z
-x,y,z
1/2+x,-y,1/2+z
loop_
_atom_site_type_symbol
_atom_site_label
_atom_site_fract_x
_atom_site_fract_y
_atom_site_fract_z
Si Si1 0.676465 0.249161 0.313259
Si Si2 0.823247 0.175714 0.529138
Si Si3 0.325374 0.328712 0.535024
Si Si4 0.331281 0.980397 0.069823
Si Si5 0.675094 0.619710 0.599457
Si Si6 0.330864 0.474154 0.931522
Si Si7 0.824662 0.125363 0.092818
O O1 0.750000 0.248304 0.250000
O O2 0.500000 0.250984 0.307151
O O3 0.719575 0.320905 0.351642
O O4 0.713315 0.177201 0.352196
O O5 0.756336 0.252845 0.549852
O O6 0.787393 0.105474 0.570716
O O7 0.753997 0.157742 0.465271
O O8 0.000000 0.179086 0.524042
O O9 0.500000 0.322361 0.543108
O O10 0.298642 0.345608 0.465448
O O11 0.260626 0.398634 0.569881
O O12 0.500000 0.988507 0.089742
O O13 0.229597 0.041287 0.099818
O O14 0.329547 0.000000 0.000000
O O15 0.500000 0.607029 0.603505
O O16 0.758666 0.542160 0.603006
O O17 0.500000 0.462344 0.914921
O O18 0.328081 0.500000 0.000000
O O19 0.000000 0.128191 0.083779
#
# Coordination Sequence:
#
# PCOD9414197 Si02
#       7
#     8   8   8   8   8   8   8
#     4  10  21  34  46  64  86 113 152 191 224 259
#     4  10  18  27  41  62  89 116 145 178 213 258
#     4  10  17  27  43  62  87 117 146 176 215 257
#     4   8  16  28  40  59  84 112 143 175 214 259
#     4   9  17  31  44  57  83 114 145 182 221 257
#     4   9  17  27  40  62  85 109 145 177 211 261
#     4  10  18  30  44  60  83 112 147 184 220 260
#
# _framework density 14.942589999999999
#
# number of rings (size 3 to 8) (size 9 to 14) (size 15 to 20)
#    0.000    2.571    1.429    2.571    0.000    7.143 
#    0.000    0.000    0.000    0.000    0.000    0.000 
#    0.000    1.143    0.000    5.714    0.000    5.571 
#
# Total GULP energy -312004.735153 kJ/mol
# GULP energy per Si atom -5571.513128 kJ/mol
# Density = 1.490858 g / cm^3
# Si number density = 14.942590 Si / 1000 Ang^3
#
#
#
# Elastic Constant Matrix: (Units=GPa)
#
#
# Indices 1 2 3 4 5 6 
#
# 1 63.0812 69.8060 29.3960 0.0000 0.0000 0.0000
# 2 69.8060 161.0573 43.5931 0.0000 0.0000 0.0000
# 3 29.3960 43.5931 48.1391 0.0000 0.0000 0.0000
# 4 0.0000 0.0000 0.0000 12.3566 0.0000 0.0000
# 5 0.0000 0.0000 0.0000 0.0000 16.9718 0.0000
# 6 0.0000 0.0000 0.0000 0.0000 0.0000 31.6958
#
#
#
# Elastic Compliance Matrix: (Units=1/GPa)
#
#
# Indices 1 2 3 4 5 6 
#
# 1 0.033567 -0.011923 -0.009701 0.000000 0.000000 0.000000
# 2 -0.011923 0.012460 -0.004003 0.000000 0.000000 0.000000
# 3 -0.009701 -0.004003 0.030321 0.000000 0.000000 0.000000
# 4 0.000000 0.000000 0.000000 0.080928 0.000000 0.000000
# 5 0.000000 0.000000 0.000000 0.000000 0.058921 0.000000
# 6 0.000000 0.000000 0.000000 0.000000 0.000000 0.031550
#
#
# Mechanical properties :
#
#
# Convention : Reuss Voigt Hill
#
# Bulk Modulus (GPa) = 39.84679 61.98532 50.91606
# Shear Modulus (GPa) = 16.26724 20.83703 18.55213
#
# Velocity S-wave (km/s) = 3.30305 3.73831 3.52740
# Velocity P-wave (km/s) = 6.42428 7.75923 7.12310
#
# Compressibility (1/GPa) = 0.02509612
#
# Stress axis : x y z
#
# Youngs Moduli (GPa) = 29.79080 80.25570 32.98010
#
# Poissons Ratio (x) = 0.95691 0.31992
# Poissons Ratio (y) = 0.35520 0.13201
# Poissons Ratio (z) = 0.28899 0.32123
#
# Static dielectric constant tensor:
#      x y z
#    x 1.498240 0.000000 0.000000 
#    y 0.000000 1.521040 0.000000 
#    z 0.000000 0.000000 1.454280 
# 
# From -- ./inp_files/34384.got.cif
#   From: 2010.05.17/outbox.cif.g08.bks.cpg/sg53_18_cif.got.tgz:34384.got - 2010.06.03 12:45:16.
