data_PCOD9414311
_publ_section_title
;
Structure prediction by ZEFSAII (Michael W. Deem and Ramdas Pophale) SiO2 
 PCOD9414311
Probable space group: P M N A
;
_chemical_formula_sum "Si O2"
_cell_formula_units_Z 44
_cell_length_a 14.549861
_cell_length_b 10.741835
_cell_length_c 16.343593
_cell_angle_alpha 90.000000
_cell_angle_beta 90.000000
_cell_angle_gamma 90.000000
_cell_volume 2554.376206
_symmetry_space_group_name_H-M "P M N A"
_symmetry_group_IT_number 53
_symmetry_cell_setting 'orthorhombic'
loop_
_space_group_symop_operation_xyz
x,y,z
1/2-x,-y,1/2+z
x,-y,-z
1/2-x,y,1/2-z
-x,-y,-z
1/2+x,y,1/2-z
-x,y,z
1/2+x,-y,1/2+z
loop_
_atom_site_type_symbol
_atom_site_label
_atom_site_fract_x
_atom_site_fract_y
_atom_site_fract_z
Si Si1 0.299617 0.858293 0.468124
Si Si2 0.334452 0.303039 0.049029
Si Si3 0.609475 0.454675 0.884973
Si Si4 0.000000 0.092211 0.921483
Si Si5 0.000000 0.045469 0.731695
Si Si6 0.500000 0.890414 0.929903
Si Si7 0.326564 0.790420 0.183430
O O1 0.264609 0.761000 0.536800
O O2 0.402354 0.836579 0.432618
O O3 0.221806 0.837972 0.399445
O O4 0.295918 0.000000 0.500000
O O5 0.342586 0.410810 0.117052
O O6 0.410032 0.195176 0.058640
O O7 0.364275 0.381006 0.968397
O O8 0.500000 0.472875 0.883288
O O9 0.641833 0.353020 0.819952
O O10 0.000000 0.028494 0.830815
O O11 0.000000 0.000000 0.000000
O O12 0.087804 0.126413 0.707245
O O13 0.000000 0.936165 0.664315
O O14 0.500000 0.000000 0.000000
O O15 0.250000 0.806042 0.250000
#
# Coordination Sequence:
#
# PCOD9414311 Si02
#       7
#     8   8   8   4   4   4   8
#     4  10  20  35  57  82 110 149 190 234 289 345
#     4  10  18  31  53  83 113 143 175 223 283 351
#     4  10  17  32  54  78 112 149 183 219 285 340
#     4  10  22  40  57  73 109 155 206 244 272 328
#     4  12  22  35  56  88 113 150 192 237 295 344
#     4  12  20  30  55  91 131 142 167 231 303 364
#     4  11  21  34  56  82 112 143 191 242 280 340
#
# _framework density 17.225341
#
# number of rings (size 3 to 8) (size 9 to 14) (size 15 to 20)
#    0.000    1.455    4.545    4.364    0.000    0.000 
#    0.000    0.000    8.000    9.818    0.000    0.000 
#    0.000    0.000    0.000    0.000    0.000    0.000 
#
# Total GULP energy -244960.376345 kJ/mol
# GULP energy per Si atom -5567.281281 kJ/mol
# Density = 1.718613 g / cm^3
# Si number density = 17.225341 Si / 1000 Ang^3
#
#
#
# Elastic Constant Matrix: (Units=GPa)
#
#
# Indices 1 2 3 4 5 6 
#
# 1 90.8739 45.5583 34.1706 0.0000 0.0000 0.0000
# 2 45.5583 104.8199 30.6296 0.0000 0.0000 0.0000
# 3 34.1706 30.6296 51.6898 0.0000 0.0000 0.0000
# 4 0.0000 0.0000 0.0000 17.0486 0.0000 0.0000
# 5 0.0000 0.0000 0.0000 0.0000 -110.1985 0.0000
# 6 0.0000 0.0000 0.0000 0.0000 0.0000 19.5645
#
#
#
# Elastic Compliance Matrix: (Units=1/GPa)
#
#
# Indices 1 2 3 4 5 6 
#
# 1 0.016422 -0.004796 -0.008014 0.000000 0.000000 0.000000
# 2 -0.004796 0.012939 -0.004497 0.000000 0.000000 0.000000
# 3 -0.008014 -0.004497 0.027309 0.000000 0.000000 0.000000
# 4 0.000000 0.000000 0.000000 0.058656 0.000000 0.000000
# 5 0.000000 0.000000 0.000000 0.000000 -0.009075 0.000000
# 6 0.000000 0.000000 0.000000 0.000000 0.000000 0.051113
#
#
# Mechanical properties :
#
#
# Convention : Reuss Voigt Hill
#
# Bulk Modulus (GPa) = 45.33921 52.01118 48.67520
# Shear Modulus (GPa) = 25.08415 -5.58207 9.75104
#
# Velocity S-wave (km/s) = 3.82021 -1.80212 2.38184
# Velocity P-wave (km/s) = 6.77030 5.09214 5.99028
#
# Compressibility (1/GPa) = 0.02205596
#
# Stress axis : x y z
#
# Youngs Moduli (GPa) = 60.89360 77.28865 36.61826
#
# Poissons Ratio (x) = 0.37065 0.29347
# Poissons Ratio (y) = 0.29203 0.16466
# Poissons Ratio (z) = 0.48802 0.34754
#
# Static dielectric constant tensor:
#      x y z
#    x 1.578560 0.000000 0.000000 
#    y 0.000000 1.603020 0.000000 
#    z 0.000000 0.000000 1.678310 
# 
# From -- ./inp_files/28190.got.cif
#   From: 2010.05.17/outbox.cif.g08.bks.cpg/sg53_15_cif.got.tgz:28190.got - 2010.06.03 12:45:16.
