data_PCOD9414160
_publ_section_title
;
Structure prediction by ZEFSAII (Michael W. Deem and Ramdas Pophale) SiO2 
 PCOD9414160
Probable space group: P M N A
;
_chemical_formula_sum "Si O2"
_cell_formula_units_Z 48
_cell_length_a 8.758680
_cell_length_b 15.808480
_cell_length_c 20.544113
_cell_angle_alpha 90.000000
_cell_angle_beta 90.000000
_cell_angle_gamma 90.000000
_cell_volume 2844.567009
_symmetry_space_group_name_H-M "P M N A"
_symmetry_group_IT_number 53
_symmetry_cell_setting 'orthorhombic'
loop_
_space_group_symop_operation_xyz
x,y,z
1/2-x,-y,1/2+z
x,-y,-z
1/2-x,y,1/2-z
-x,-y,-z
1/2+x,y,1/2-z
-x,y,z
1/2+x,-y,1/2+z
loop_
_atom_site_type_symbol
_atom_site_label
_atom_site_fract_x
_atom_site_fract_y
_atom_site_fract_z
Si Si1 0.182450 0.775255 0.454522
Si Si2 0.317847 0.601224 0.438075
Si Si3 0.182980 0.752522 0.607456
Si Si4 0.816763 0.567904 0.582606
Si Si5 0.817701 0.089074 0.179383
Si Si6 0.815834 0.044032 0.931467
O O1 0.259684 0.694470 0.420113
O O2 0.223725 0.771933 0.531816
O O3 0.239582 0.864418 0.427699
O O4 0.000000 0.767240 0.450252
O O5 0.500000 0.598461 0.441519
O O6 0.255952 0.521325 0.397045
O O7 0.246251 0.586530 0.509981
O O8 0.221524 0.654095 0.620908
O O9 0.262478 0.820220 0.653079
O O10 0.000000 0.761303 0.612935
O O11 0.000000 0.560165 0.579521
O O12 0.750000 0.072080 0.250000
O O13 0.000000 0.088816 0.182525
O O14 0.770133 0.018272 0.126822
O O15 0.000000 0.053666 0.930848
O O16 0.774011 0.000000 0.000000
#
# Coordination Sequence:
#
# PCOD9414160 Si02
#       6
#     8   8   8   8   8   8
#     4  10  19  30  48  73 101 134 169 212 258 308
#     4  10  17  25  40  65  98 133 166 204 247 299
#     4   9  18  31  48  71  99 132 169 207 253 305
#     4   9  16  27  42  64  96 131 165 204 247 297
#     4  11  23  37  54  74 103 137 171 216 260 312
#     4  10  20  35  53  76 102 132 172 218 266 311
#
# _framework density 16.874272000000001
#
# number of rings (size 3 to 8) (size 9 to 14) (size 15 to 20)
#    0.000    2.167    1.667    5.000    0.000    5.000 
#    0.000    0.000    0.000    0.000    0.000    1.167 
#    0.000    2.667    0.000    0.000    0.000    0.000 
#
# Total GULP energy -267606.156853 kJ/mol
# GULP energy per Si atom -5575.128268 kJ/mol
# Density = 1.683587 g / cm^3
# Si number density = 16.874272 Si / 1000 Ang^3
#
#
#
# Elastic Constant Matrix: (Units=GPa)
#
#
# Indices 1 2 3 4 5 6 
#
# 1 49.7762 54.2879 26.2228 0.0000 0.0000 0.0000
# 2 54.2879 177.8924 53.7815 0.0000 0.0000 0.0000
# 3 26.2228 53.7815 69.0916 0.0000 0.0000 0.0000
# 4 0.0000 0.0000 0.0000 11.1103 0.0000 0.0000
# 5 0.0000 0.0000 0.0000 0.0000 22.0643 0.0000
# 6 0.0000 0.0000 0.0000 0.0000 0.0000 38.7577
#
#
#
# Elastic Compliance Matrix: (Units=1/GPa)
#
#
# Indices 1 2 3 4 5 6 
#
# 1 0.031860 -0.007934 -0.005916 0.000000 0.000000 0.000000
# 2 -0.007934 0.009327 -0.004249 0.000000 0.000000 0.000000
# 3 -0.005916 -0.004249 0.020026 0.000000 0.000000 0.000000
# 4 0.000000 0.000000 0.000000 0.090007 0.000000 0.000000
# 5 0.000000 0.000000 0.000000 0.000000 0.045322 0.000000
# 6 0.000000 0.000000 0.000000 0.000000 0.000000 0.025801
#
#
# Mechanical properties :
#
#
# Convention : Reuss Voigt Hill
#
# Bulk Modulus (GPa) = 39.97596 62.81608 51.39602
# Shear Modulus (GPa) = 18.73495 25.21764 21.97630
#
# Velocity S-wave (km/s) = 3.33568 3.87000 3.61273
# Velocity P-wave (km/s) = 6.21109 7.56809 6.92292
#
# Compressibility (1/GPa) = 0.02501503
#
# Stress axis : x y z
#
# Youngs Moduli (GPa) = 31.38743 107.21207 49.93405
#
# Poissons Ratio (x) = 0.85065 0.29541
# Poissons Ratio (y) = 0.24904 0.21218
# Poissons Ratio (z) = 0.18569 0.45556
#
# Static dielectric constant tensor:
#      x y z
#    x 1.558580 0.000000 0.000000 
#    y 0.000000 1.615920 0.000000 
#    z 0.000000 0.000000 1.544750 
# 
# From -- ./inp_files/30485.got.cif
#   From: 2010.05.17/outbox.cif.g08.bks.cpg/sg53_16_cif.got.tgz:30485.got - 2010.06.03 12:45:16.
