data_PCOD9414760
_publ_section_title
;
Structure prediction by ZEFSAII (Michael W. Deem and Ramdas Pophale) SiO2 
 PCOD9414760
Probable space group: P M N A
;
_chemical_formula_sum "Si O2"
_cell_formula_units_Z 32
_cell_length_a 7.561064
_cell_length_b 11.230297
_cell_length_c 21.827551
_cell_angle_alpha 90.000000
_cell_angle_beta 90.000000
_cell_angle_gamma 90.000000
_cell_volume 1853.442715
_symmetry_space_group_name_H-M "P M N A"
_symmetry_group_IT_number 53
_symmetry_cell_setting 'orthorhombic'
loop_
_space_group_symop_operation_xyz
x,y,z
1/2-x,-y,1/2+z
x,-y,-z
1/2-x,y,1/2-z
-x,-y,-z
1/2+x,y,1/2-z
-x,y,z
1/2+x,-y,1/2+z
loop_
_atom_site_type_symbol
_atom_site_label
_atom_site_fract_x
_atom_site_fract_y
_atom_site_fract_z
Si Si1 0.000000 0.029070 0.903566
Si Si2 0.712095 0.391761 0.046507
Si Si3 0.289707 0.346397 0.180972
Si Si4 0.500000 0.201752 0.490312
Si Si5 0.709643 0.070451 0.180335
O O1 0.825258 0.011640 0.863141
O O2 0.000000 0.150455 0.941266
O O3 0.000000 0.915187 0.948386
O O4 0.500000 0.368473 0.044572
O O5 0.763883 0.413078 0.118280
O O6 0.748025 0.500000 0.000000
O O7 0.828128 0.280625 0.024422
O O8 0.250000 0.390469 0.250000
O O9 0.500000 0.340777 0.179187
O O10 0.227091 0.208846 0.175110
O O11 0.750000 0.036267 0.250000
O O12 0.500000 0.065802 0.168037
#
# Coordination Sequence:
#
# PCOD9414760 Si02
#       5
#     4   8   8   4   8
#     4  11  22  34  52  84 116 145 182 225 277 338
#     4  10  21  38  58  81 110 146 189 231 277 332
#     4   9  18  29  50  81 108 133 170 229 285 323
#     4  11  23  36  54  80 115 151 184 221 273 338
#     4  10  18  31  53  80 111 140 179 232 281 327
#
# _framework density 17.265167999999999
#
# number of rings (size 3 to 8) (size 9 to 14) (size 15 to 20)
#    0.000    2.000    3.750    0.375    3.500    1.000 
#    0.000    2.500    0.000    1.500    0.000    0.000 
#    0.000    0.000    0.000    0.000    0.000    0.000 
#
# Total GULP energy -178278.765256 kJ/mol
# GULP energy per Si atom -5571.211414 kJ/mol
# Density = 1.722587 g / cm^3
# Si number density = 17.265168 Si / 1000 Ang^3
#
#
#
# Elastic Constant Matrix: (Units=GPa)
#
#
# Indices 1 2 3 4 5 6 
#
# 1 73.1897 24.2486 40.2794 0.0000 0.0000 0.0000
# 2 24.2486 49.0254 55.7796 0.0000 0.0000 0.0000
# 3 40.2794 55.7796 171.8094 0.0000 0.0000 0.0000
# 4 0.0000 0.0000 0.0000 32.7522 0.0000 0.0000
# 5 0.0000 0.0000 0.0000 0.0000 23.6230 0.0000
# 6 0.0000 0.0000 0.0000 0.0000 0.0000 -7.1782
#
#
#
# Elastic Compliance Matrix: (Units=1/GPa)
#
#
# Indices 1 2 3 4 5 6 
#
# 1 0.016748 -0.006052 -0.001962 0.000000 0.000000 0.000000
# 2 -0.006052 0.034533 -0.009793 0.000000 0.000000 0.000000
# 3 -0.001962 -0.009793 0.009460 0.000000 0.000000 0.000000
# 4 0.000000 0.000000 0.000000 0.030532 0.000000 0.000000
# 5 0.000000 0.000000 0.000000 0.000000 0.042332 0.000000
# 6 0.000000 0.000000 0.000000 0.000000 0.000000 -0.139311
#
#
# Mechanical properties :
#
#
# Convention : Reuss Voigt Hill
#
# Bulk Modulus (GPa) = 39.79636 59.40441 49.60039
# Shear Modulus (GPa) = 130.61474 21.42052 76.01763
#
# Velocity S-wave (km/s) = 8.70726 3.52615 6.64267
# Velocity P-wave (km/s) = 11.14400 7.14563 9.36079
#
# Compressibility (1/GPa) = 0.02512793
#
# Stress axis : x y z
#
# Youngs Moduli (GPa) = 59.70964 28.95815 105.71356
#
# Poissons Ratio (x) = 0.17525 0.20737
# Poissons Ratio (y) = 0.36135 1.03520
# Poissons Ratio (z) = 0.11713 0.28357
#
# Static dielectric constant tensor:
#      x y z
#    x 1.599770 0.000000 0.000000 
#    y 0.000000 1.549630 0.000000 
#    z 0.000000 0.000000 1.648320 
# 
# From -- ./inp_files/25759.got.cif
#   From: 2010.05.17/outbox.cif.g08.bks.cpg/sg53_13_cif.got.tgz:25759.got - 2010.06.03 12:45:16.
