data_PCOD9414342
_publ_section_title
;
Structure prediction by ZEFSAII (Michael W. Deem and Ramdas Pophale) SiO2 
 PCOD9414342
Probable space group: P M N A
;
_chemical_formula_sum "Si O2"
_cell_formula_units_Z 64
_cell_length_a 8.292009
_cell_length_b 17.381977
_cell_length_c 24.030062
_cell_angle_alpha 90.000000
_cell_angle_beta 90.000000
_cell_angle_gamma 90.000000
_cell_volume 3463.489115
_symmetry_space_group_name_H-M "P M N A"
_symmetry_group_IT_number 53
_symmetry_cell_setting 'orthorhombic'
loop_
_space_group_symop_operation_xyz
x,y,z
1/2-x,-y,1/2+z
x,-y,-z
1/2-x,y,1/2-z
-x,-y,-z
1/2+x,y,1/2-z
-x,y,z
1/2+x,-y,1/2+z
loop_
_atom_site_type_symbol
_atom_site_label
_atom_site_fract_x
_atom_site_fract_y
_atom_site_fract_z
Si Si1 0.695377 0.068061 0.189706
Si Si2 0.806591 0.292176 0.906881
Si Si3 0.692276 0.054792 0.895920
Si Si4 0.188657 0.160749 0.510464
Si Si5 0.191650 0.813892 0.187315
Si Si6 0.691427 0.279537 0.426821
Si Si7 0.196191 0.414104 0.989964
Si Si8 0.191792 0.755219 0.691236
O O1 0.750000 0.035525 0.250000
O O2 0.500000 0.066438 0.189251
O O3 0.752484 0.156215 0.187697
O O4 0.753914 0.020959 0.135739
O O5 0.716914 0.229848 0.945343
O O6 0.775024 0.267095 0.843921
O O7 0.000000 0.281531 0.916656
O O8 0.764083 0.375838 0.930273
O O9 0.500000 0.045751 0.903384
O O10 0.755518 0.086669 0.955444
O O11 0.724381 0.121161 0.850234
O O12 0.258870 0.197872 0.454540
O O13 0.000000 0.147661 0.500453
O O14 0.250000 0.815180 0.250000
O O15 0.000000 0.827818 0.185370
O O16 0.500000 0.282280 0.428030
O O17 0.751096 0.350886 0.464658
O O18 0.751093 0.286090 0.364196
O O19 0.000000 0.417255 0.993318
O O20 0.257295 0.500000 0.000000
O O21 0.250000 0.722482 0.750000
O O22 0.000000 0.757916 0.691610
#
# Coordination Sequence:
#
# PCOD9414342 Si02
#       8
#     8   8   8   8   8   8   8   8
#     4   9  18  31  46  65  89 119 157 202 246 285
#     4   8  15  27  42  62  89 118 148 184 222 265
#     4   9  17  29  44  64  90 120 157 198 239 279
#     4   9  16  27  45  67  92 123 155 189 230 275
#     4  10  18  26  38  59  87 120 156 189 223 264
#     4  10  19  32  51  74  99 125 155 190 229 279
#     4   8  14  27  50  76  95 114 144 181 222 269
#     4  10  20  35  54  73  94 122 158 198 239 280
#
# _framework density 18.478476000000001
#
# number of rings (size 3 to 8) (size 9 to 14) (size 15 to 20)
#    0.000    2.875    0.000    2.625    0.000    3.000 
#    0.000    0.625    0.000   13.875    0.000    1.750 
#    0.000    0.000    0.000    0.000    0.000    0.000 
#
# Total GULP energy -356370.962498 kJ/mol
# GULP energy per Si atom -5568.296289 kJ/mol
# Density = 1.843642 g / cm^3
# Si number density = 18.478476 Si / 1000 Ang^3
#
#
#
# Elastic Constant Matrix: (Units=GPa)
#
#
# Indices 1 2 3 4 5 6 
#
# 1 10.9999 -1.8182 2.2015 0.0000 0.0000 0.0000
# 2 -1.8182 43.7679 10.4519 0.0000 0.0000 0.0000
# 3 2.2015 10.4519 77.7775 0.0000 0.0000 0.0000
# 4 0.0000 0.0000 0.0000 11.2682 0.0000 0.0000
# 5 0.0000 0.0000 0.0000 0.0000 24.0292 0.0000
# 6 0.0000 0.0000 0.0000 0.0000 0.0000 7.0435
#
#
#
# Elastic Compliance Matrix: (Units=1/GPa)
#
#
# Indices 1 2 3 4 5 6 
#
# 1 0.092318 0.004607 -0.003232 0.000000 0.000000 0.000000
# 2 0.004607 0.023835 -0.003333 0.000000 0.000000 0.000000
# 3 -0.003232 -0.003333 0.013397 0.000000 0.000000 0.000000
# 4 0.000000 0.000000 0.000000 0.088745 0.000000 0.000000
# 5 0.000000 0.000000 0.000000 0.000000 0.041616 0.000000
# 6 0.000000 0.000000 0.000000 0.000000 0.000000 0.141975
#
#
# Mechanical properties :
#
#
# Convention : Reuss Voigt Hill
#
# Bulk Modulus (GPa) = 7.95972 17.13508 12.54740
# Shear Modulus (GPa) = 11.16865 16.58218 13.87542
#
# Velocity S-wave (km/s) = 2.46115 2.99888 2.74322
# Velocity P-wave (km/s) = 3.52041 4.61347 4.10350
#
# Compressibility (1/GPa) = 0.12563260
#
# Stress axis : x y z
#
# Youngs Moduli (GPa) = 10.83211 41.95476 74.64571
#
# Poissons Ratio (x) = -0.19328 0.24126
# Poissons Ratio (y) = -0.04990 0.24882
# Poissons Ratio (z) = 0.03501 0.13985
#
# Static dielectric constant tensor:
#      x y z
#    x 1.652460 0.000000 0.000000 
#    y 0.000000 1.662850 0.000000 
#    z 0.000000 0.000000 1.659900 
# 
# From -- ./inp_files/34461.got.cif
#   From: 2010.05.17/outbox.cif.g08.bks.cpg/sg53_18_cif.got.tgz:34461.got - 2010.06.03 12:45:16.
