data_PCOD9414174
_publ_section_title
;
Structure prediction by ZEFSAII (Michael W. Deem and Ramdas Pophale) SiO2 
 PCOD9414174
Probable space group: P M N A
;
_chemical_formula_sum "Si O2"
_cell_formula_units_Z 48
_cell_length_a 8.704343
_cell_length_b 10.493117
_cell_length_c 31.086021
_cell_angle_alpha 90.000000
_cell_angle_beta 90.000000
_cell_angle_gamma 90.000000
_cell_volume 2839.263162
_symmetry_space_group_name_H-M "P M N A"
_symmetry_group_IT_number 53
_symmetry_cell_setting 'orthorhombic'
loop_
_space_group_symop_operation_xyz
x,y,z
1/2-x,-y,1/2+z
x,-y,-z
1/2-x,y,1/2-z
-x,-y,-z
1/2+x,y,1/2-z
-x,y,z
1/2+x,-y,1/2+z
loop_
_atom_site_type_symbol
_atom_site_label
_atom_site_fract_x
_atom_site_fract_y
_atom_site_fract_z
Si Si1 0.814982 0.379277 0.470021
Si Si2 0.815705 0.223700 0.793738
Si Si3 0.316425 0.521178 0.616858
Si Si4 0.815461 0.777901 0.111242
Si Si5 0.314672 0.129384 0.976986
Si Si6 0.683089 0.488101 0.206276
O O1 0.776236 0.500000 0.500000
O O2 0.736937 0.399276 0.424134
O O3 0.767244 0.251425 0.494670
O O4 0.000000 0.377656 0.464511
O O5 0.750000 0.163003 0.750000
O O6 0.773334 0.171461 0.840999
O O7 0.751204 0.368085 0.794579
O O8 0.000000 0.228980 0.790859
O O9 0.500000 0.522879 0.621733
O O10 0.269761 0.372323 0.609098
O O11 0.239707 0.568075 0.661100
O O12 0.744776 0.851858 0.071314
O O13 0.000000 0.781668 0.108034
O O14 0.500000 0.128779 0.975569
O O15 0.262682 0.000000 0.000000
O O16 0.750000 0.427900 0.250000
O O17 0.500000 0.492785 0.208396
#
# Coordination Sequence:
#
# PCOD9414174 Si02
#       6
#     8   8   8   8   8   8
#     4  10  19  32  50  72  95 125 164 201 241 292
#     4   9  16  26  40  64  94 125 159 197 240 288
#     4  10  19  30  46  70  97 126 163 203 246 289
#     4   9  18  30  45  67  96 127 160 198 240 289
#     4  10  21  35  50  70  97 128 164 204 246 292
#     4  10  17  26  41  63  95 130 161 196 242 292
#
# _framework density 16.905792999999999
#
# number of rings (size 3 to 8) (size 9 to 14) (size 15 to 20)
#    0.000    2.333    1.667    4.500    0.000    4.667 
#    0.000    0.000    0.000    0.000    0.000    1.167 
#    0.000    2.667    0.000    0.000    0.000    0.000 
#
# Total GULP energy -267496.945168 kJ/mol
# GULP energy per Si atom -5572.853024 kJ/mol
# Density = 1.686731 g / cm^3
# Si number density = 16.905793 Si / 1000 Ang^3
#
#
#
# Elastic Constant Matrix: (Units=GPa)
#
#
# Indices 1 2 3 4 5 6 
#
# 1 51.6007 18.4549 54.8630 0.0000 0.0000 0.0000
# 2 18.4549 62.5213 51.4676 0.0000 0.0000 0.0000
# 3 54.8630 51.4676 202.7305 0.0000 0.0000 0.0000
# 4 0.0000 0.0000 0.0000 13.6660 0.0000 0.0000
# 5 0.0000 0.0000 0.0000 0.0000 38.9031 0.0000
# 6 0.0000 0.0000 0.0000 0.0000 0.0000 244.8643
#
#
#
# Elastic Compliance Matrix: (Units=1/GPa)
#
#
# Indices 1 2 3 4 5 6 
#
# 1 0.027518 -0.002519 -0.006808 0.000000 0.000000 0.000000
# 2 -0.002519 0.020451 -0.004510 0.000000 0.000000 0.000000
# 3 -0.006808 -0.004510 0.007920 0.000000 0.000000 0.000000
# 4 0.000000 0.000000 0.000000 0.073175 0.000000 0.000000
# 5 0.000000 0.000000 0.000000 0.000000 0.025705 0.000000
# 6 0.000000 0.000000 0.000000 0.000000 0.000000 0.004084
#
#
# Mechanical properties :
#
#
# Convention : Reuss Voigt Hill
#
# Bulk Modulus (GPa) = 35.44098 62.93597 49.18847
# Shear Modulus (GPa) = 25.51916 72.29115 48.90515
#
# Velocity S-wave (km/s) = 3.88943 6.54630 5.38431
# Velocity P-wave (km/s) = 6.41713 9.71838 8.23488
#
# Compressibility (1/GPa) = 0.02821593
#
# Stress axis : x y z
#
# Youngs Moduli (GPa) = 36.33931 48.89759 126.26324
#
# Poissons Ratio (x) = 0.12316 0.85955
# Poissons Ratio (y) = 0.09153 0.56948
# Poissons Ratio (z) = 0.24738 0.22054
#
# Static dielectric constant tensor:
#      x y z
#    x 1.565690 0.000000 0.000000 
#    y 0.000000 1.546190 0.000000 
#    z 0.000000 0.000000 1.620050 
# 
# From -- ./inp_files/37924.got.cif
#   From: 2010.05.17/outbox.cif.g08.bks.cpg/sg53_19_cif.got.tgz:37924.got - 2010.06.03 12:45:16.
