data_PCOD9414469
_publ_section_title
;
Structure prediction by ZEFSAII (Michael W. Deem and Ramdas Pophale) SiO2 
 PCOD9414469
Probable space group: P M N A
;
_chemical_formula_sum "Si O2"
_cell_formula_units_Z 64
_cell_length_a 8.849267
_cell_length_b 17.594824
_cell_length_c 27.430086
_cell_angle_alpha 90.000000
_cell_angle_beta 90.000000
_cell_angle_gamma 90.000000
_cell_volume 4270.899923
_symmetry_space_group_name_H-M "P M N A"
_symmetry_group_IT_number 53
_symmetry_cell_setting 'orthorhombic'
loop_
_space_group_symop_operation_xyz
x,y,z
1/2-x,-y,1/2+z
x,-y,-z
1/2-x,y,1/2-z
-x,-y,-z
1/2+x,y,1/2-z
-x,y,z
1/2+x,-y,1/2+z
loop_
_atom_site_type_symbol
_atom_site_label
_atom_site_fract_x
_atom_site_fract_y
_atom_site_fract_z
Si Si1 0.182840 0.361837 0.423705
Si Si2 0.681500 0.842022 0.062007
Si Si3 0.824964 0.518052 0.058029
Si Si4 0.182614 0.917187 0.696554
Si Si5 0.817991 0.327048 0.535835
Si Si6 0.323963 0.906634 0.955175
Si Si7 0.822109 0.782878 0.629403
Si Si8 0.678335 0.976242 0.384979
O O1 0.244514 0.446573 0.416843
O O2 0.225662 0.334130 0.478515
O O3 0.240010 0.299623 0.384789
O O4 0.000000 0.363242 0.422493
O O5 0.500000 0.844511 0.068744
O O6 0.728870 0.754117 0.057522
O O7 0.761462 0.892485 0.102749
O O8 0.712835 0.880496 0.009408
O O9 0.747866 0.599913 0.063381
O O10 0.000000 0.521316 0.071624
O O11 0.815180 0.500000 0.000000
O O12 0.250000 0.926104 0.750000
O O13 0.237212 0.837210 0.672219
O O14 0.000000 0.917321 0.697325
O O15 0.238611 0.983312 0.660263
O O16 0.000000 0.330340 0.537048
O O17 0.500000 0.932162 0.953744
O O18 0.312559 0.834176 0.919409
O O19 0.222320 0.971568 0.931623
O O20 0.000000 0.772182 0.639754
O O21 0.500000 0.976859 0.377272
#
# Coordination Sequence:
#
# PCOD9414469 Si02
#       8
#     8   8   8   8   8   8   8   8
#     4   9  14  25  43  61  81 110 153 189 212 251
#     4  10  18  29  45  63  86 118 156 193 228 264
#     4   9  17  26  35  53  84 118 148 180 222 258
#     4  10  20  36  55  70  89 114 144 184 231 275
#     4   9  16  26  42  60  80 114 158 192 217 253
#     4   9  16  29  45  61  85 118 153 188 226 263
#     4   8  14  26  46  68  86 111 147 186 222 261
#     4  11  22  32  43  64  90 117 150 183 223 273
#
# _framework density 14.985132
#
# number of rings (size 3 to 8) (size 9 to 14) (size 15 to 20)
#    0.000    2.625    1.250    3.000    0.000    4.000 
#    0.000    3.125    0.000    0.000    0.000    0.000 
#    0.000    1.000    0.000    6.750    0.000    4.875 
#
# Total GULP energy -356531.997133 kJ/mol
# GULP energy per Si atom -5570.812455 kJ/mol
# Density = 1.495102 g / cm^3
# Si number density = 14.985132 Si / 1000 Ang^3
#
#
#
# Elastic Constant Matrix: (Units=GPa)
#
#
# Indices 1 2 3 4 5 6 
#
# 1 39.9897 43.3952 26.4486 0.0000 0.0000 0.0000
# 2 43.3952 132.9321 50.3693 0.0000 0.0000 0.0000
# 3 26.4486 50.3693 57.2045 0.0000 0.0000 0.0000
# 4 0.0000 0.0000 0.0000 10.7387 0.0000 0.0000
# 5 0.0000 0.0000 0.0000 0.0000 11.3131 0.0000
# 6 0.0000 0.0000 0.0000 0.0000 0.0000 -40.1109
#
#
#
# Elastic Compliance Matrix: (Units=1/GPa)
#
#
# Indices 1 2 3 4 5 6 
#
# 1 0.043109 -0.009785 -0.011316 0.000000 0.000000 0.000000
# 2 -0.009785 0.013510 -0.007372 0.000000 0.000000 0.000000
# 3 -0.011316 -0.007372 0.029204 0.000000 0.000000 0.000000
# 4 0.000000 0.000000 0.000000 0.093121 0.000000 0.000000
# 5 0.000000 0.000000 0.000000 0.000000 0.088393 0.000000
# 6 0.000000 0.000000 0.000000 0.000000 0.000000 -0.024931
#
#
# Mechanical properties :
#
#
# Convention : Reuss Voigt Hill
#
# Bulk Modulus (GPa) = 34.62838 52.28362 43.45600
# Shear Modulus (GPa) = 16.18243 3.71573 9.94908
#
# Velocity S-wave (km/s) = 3.28975 1.57639 2.57948
# Velocity P-wave (km/s) = 6.13095 6.18703 6.15906
#
# Compressibility (1/GPa) = 0.02887804
#
# Stress axis : x y z
#
# Youngs Moduli (GPa) = 23.19709 74.01837 34.24221
#
# Poissons Ratio (x) = 0.72428 0.38747
# Poissons Ratio (y) = 0.22699 0.25242
# Poissons Ratio (z) = 0.26249 0.54564
#
# Static dielectric constant tensor:
#      x y z
#    x 1.500000 0.000000 0.000000 
#    y 0.000000 1.521610 0.000000 
#    z 0.000000 0.000000 1.473820 
# 
# From -- ./inp_files/36471.got.cif
#   From: 2010.05.17/outbox.cif.g08.bks.cpg/sg53_19_cif.got.tgz:36471.got - 2010.06.03 12:45:16.
