data_PCOD9414729
_publ_section_title
;
Structure prediction by ZEFSAII (Michael W. Deem and Ramdas Pophale) SiO2 
 PCOD9414729
Probable space group: P M N A
;
_chemical_formula_sum "Si O2"
_cell_formula_units_Z 64
_cell_length_a 27.213566
_cell_length_b 9.315387
_cell_length_c 13.406430
_cell_angle_alpha 90.000000
_cell_angle_beta 90.000000
_cell_angle_gamma 90.000000
_cell_volume 3398.595682
_symmetry_space_group_name_H-M "P M N A"
_symmetry_group_IT_number 53
_symmetry_cell_setting 'orthorhombic'
loop_
_space_group_symop_operation_xyz
x,y,z
1/2-x,-y,1/2+z
x,-y,-z
1/2-x,y,1/2-z
-x,-y,-z
1/2+x,y,1/2-z
-x,y,z
1/2+x,-y,1/2+z
loop_
_atom_site_type_symbol
_atom_site_label
_atom_site_fract_x
_atom_site_fract_y
_atom_site_fract_z
Si Si1 0.114571 0.582454 0.103489
Si Si2 0.147980 0.251307 0.327976
Si Si3 0.195160 0.262650 0.544066
Si Si4 0.307377 0.454874 0.767490
Si Si5 0.556789 0.329151 0.291499
Si Si6 0.213239 0.159295 0.049196
Si Si7 0.600102 0.834402 0.528795
Si Si8 0.787462 0.002543 0.320517
O O1 0.160409 0.607762 0.176902
O O2 0.077380 0.479003 0.163184
O O3 0.127528 0.500000 0.000000
O O4 0.092004 0.732095 0.066499
O O5 0.161940 0.261032 0.445093
O O6 0.178279 0.378422 0.275249
O O7 0.092013 0.282147 0.299039
O O8 0.166181 0.096399 0.287685
O O9 0.181098 0.379044 0.626615
O O10 0.252907 0.270924 0.511665
O O11 0.193645 0.107119 0.596845
O O12 0.250000 0.439273 0.750000
O O13 0.500000 0.338896 0.265746
O O14 0.566030 0.215764 0.380951
O O15 0.156899 0.199089 0.061309
O O16 0.248612 0.122360 0.141184
O O17 0.210975 0.000000 0.000000
O O18 0.595553 0.000000 0.500000
O O19 0.750000 0.914624 0.250000
#
# Coordination Sequence:
#
# PCOD9414729 Si02
#       8
#     8   8   8   8   8   8   8   8
#     4   9  21  37  53  77 110 144 176 213 269 333
#     4  10  21  36  53  77 106 140 184 229 267 314
#     4  10  20  33  53  79 114 150 181 215 254 311
#     4  11  21  32  51  80 113 147 179 216 258 308
#     4  10  22  40  59  75  98 139 183 225 283 340
#     4   8  16  29  45  73 111 147 171 196 248 313
#     4  10  19  33  56  86 114 137 172 222 266 318
#     4  10  18  31  51  77 111 150 181 205 249 317
#
# _framework density 18.831306999999999
#
# number of rings (size 3 to 8) (size 9 to 14) (size 15 to 20)
#    0.000    2.250    0.000    3.750    0.000   11.500 
#    0.000    0.000    0.000    7.500    0.000    0.000 
#    0.000    0.000    0.000    0.000    0.000    0.000 
#
# Total GULP energy -356816.157981 kJ/mol
# GULP energy per Si atom -5575.252468 kJ/mol
# Density = 1.878845 g / cm^3
# Si number density = 18.831307 Si / 1000 Ang^3
#
#
#
# Elastic Constant Matrix: (Units=GPa)
#
#
# Indices 1 2 3 4 5 6 
#
# 1 119.3291 21.5293 41.4033 0.0000 0.0000 0.0000
# 2 21.5293 82.0799 19.8660 0.0000 0.0000 0.0000
# 3 41.4033 19.8660 90.1147 0.0000 0.0000 0.0000
# 4 0.0000 0.0000 0.0000 22.0674 0.0000 0.0000
# 5 0.0000 0.0000 0.0000 0.0000 20.1312 0.0000
# 6 0.0000 0.0000 0.0000 0.0000 0.0000 11.4287
#
#
#
# Elastic Compliance Matrix: (Units=1/GPa)
#
#
# Indices 1 2 3 4 5 6 
#
# 1 0.010170 -0.001623 -0.004315 0.000000 0.000000 0.000000
# 2 -0.001623 0.013129 -0.002149 0.000000 0.000000 0.000000
# 3 -0.004315 -0.002149 0.013553 0.000000 0.000000 0.000000
# 4 0.000000 0.000000 0.000000 0.045316 0.000000 0.000000
# 5 0.000000 0.000000 0.000000 0.000000 0.049674 0.000000
# 6 0.000000 0.000000 0.000000 0.000000 0.000000 0.087499
#
#
# Mechanical properties :
#
#
# Convention : Reuss Voigt Hill
#
# Bulk Modulus (GPa) = 48.35818 50.79122 49.57470
# Shear Modulus (GPa) = 20.62643 24.64047 22.63345
#
# Velocity S-wave (km/s) = 3.31316 3.62122 3.47061
# Velocity P-wave (km/s) = 6.35386 6.67192 6.51483
#
# Compressibility (1/GPa) = 0.02067902
#
# Stress axis : x y z
#
# Youngs Moduli (GPa) = 98.32684 76.16700 73.78404
#
# Poissons Ratio (x) = 0.12364 0.31837
# Poissons Ratio (y) = 0.15961 0.15853
# Poissons Ratio (z) = 0.42426 0.16365
#
# Static dielectric constant tensor:
#      x y z
#    x 1.641390 0.000000 0.000000 
#    y 0.000000 1.689790 0.000000 
#    z 0.000000 0.000000 1.771040 
# 
# From -- ./inp_files/19047.got.cif
#   From: 2010.05.17/outbox.cif.g08.bks.cpg/sg53_10_cif.got.tgz:19047.got - 2010.06.03 12:45:16.
