data_PCOD9414290
_publ_section_title
;
Structure prediction by ZEFSAII (Michael W. Deem and Ramdas Pophale) SiO2 
 PCOD9414290
Probable space group: P M N A
;
_chemical_formula_sum "Si O2"
_cell_formula_units_Z 32
_cell_length_a 17.670940
_cell_length_b 9.708434
_cell_length_c 10.170130
_cell_angle_alpha 90.000000
_cell_angle_beta 90.000000
_cell_angle_gamma 90.000000
_cell_volume 1744.758566
_symmetry_space_group_name_H-M "P M N A"
_symmetry_group_IT_number 53
_symmetry_cell_setting 'orthorhombic'
loop_
_space_group_symop_operation_xyz
x,y,z
1/2-x,-y,1/2+z
x,-y,-z
1/2-x,y,1/2-z
-x,-y,-z
1/2+x,y,1/2-z
-x,y,z
1/2+x,-y,1/2+z
loop_
_atom_site_type_symbol
_atom_site_label
_atom_site_fract_x
_atom_site_fract_y
_atom_site_fract_z
Si Si1 0.084846 0.801736 0.399770
Si Si2 0.806740 0.143312 0.059017
Si Si3 0.637012 0.100327 0.171155
Si Si4 0.732228 0.378207 0.895809
O O1 0.086656 0.834787 0.556307
O O2 0.149700 0.689859 0.383488
O O3 0.000000 0.764483 0.359840
O O4 0.111825 0.940925 0.325246
O O5 0.722465 0.109072 0.114341
O O6 0.858137 0.172676 0.187072
O O7 0.790536 0.261819 0.952024
O O8 0.835604 0.000000 0.000000
O O9 0.750000 0.428562 0.750000
O O10 0.731919 0.500000 0.000000
#
# Coordination Sequence:
#
# PCOD9414290 Si02
#       4
#     8   8   8   8
#     4  10  19  34  57  85 118 150 190 237 286 350
#     4  10  17  30  55  82 113 144 190 246 286 320
#     4   9  16  28  54  84 113 145 186 233 287 335
#     4  11  24  38  59  87 115 152 200 242 286 345
#
# _framework density 18.340646
#
# number of rings (size 3 to 8) (size 9 to 14) (size 15 to 20)
#    0.000    2.000    5.000    3.000    7.000    0.500 
#    0.000    0.000    0.000   14.250    0.000    0.000 
#    0.000    0.000    0.000    0.000    0.000    0.000 
#
# Total GULP energy -178259.154959 kJ/mol
# GULP energy per Si atom -5570.598592 kJ/mol
# Density = 1.829890 g / cm^3
# Si number density = 18.340646 Si / 1000 Ang^3
#
#
#
# Elastic Constant Matrix: (Units=GPa)
#
#
# Indices 1 2 3 4 5 6 
#
# 1 52.8083 21.0128 24.8052 0.0000 0.0000 0.0000
# 2 21.0128 50.4162 15.9391 0.0000 0.0000 0.0000
# 3 24.8052 15.9391 99.9981 0.0000 0.0000 0.0000
# 4 0.0000 0.0000 0.0000 18.6293 0.0000 0.0000
# 5 0.0000 0.0000 0.0000 0.0000 15.3785 0.0000
# 6 0.0000 0.0000 0.0000 0.0000 0.0000 -4.4494
#
#
#
# Elastic Compliance Matrix: (Units=1/GPa)
#
#
# Indices 1 2 3 4 5 6 
#
# 1 0.024645 -0.008781 -0.004714 0.000000 0.000000 0.000000
# 2 -0.008781 0.024016 -0.001650 0.000000 0.000000 0.000000
# 3 -0.004714 -0.001650 0.011432 0.000000 0.000000 0.000000
# 4 0.000000 0.000000 0.000000 0.053679 0.000000 0.000000
# 5 0.000000 0.000000 0.000000 0.000000 0.065026 0.000000
# 6 0.000000 0.000000 0.000000 0.000000 0.000000 -0.224751
#
#
# Mechanical properties :
#
#
# Convention : Reuss Voigt Hill
#
# Bulk Modulus (GPa) = 33.55253 36.30408 34.92830
# Shear Modulus (GPa) = -872.87255 15.34271 -428.76492
#
# Velocity S-wave (km/s) = -21.83931 2.89544 -15.30641
# Velocity P-wave (km/s) = 24.85170 5.56915 17.12588
#
# Compressibility (1/GPa) = 0.02980401
#
# Stress axis : x y z
#
# Youngs Moduli (GPa) = 40.57670 41.63816 87.47068
#
# Poissons Ratio (x) = 0.36564 0.41230
# Poissons Ratio (y) = 0.35632 0.14431
# Poissons Ratio (z) = 0.19126 0.06869
#
# Static dielectric constant tensor:
#      x y z
#    x 1.642790 0.000000 0.000000 
#    y 0.000000 1.649270 0.000000 
#    z 0.000000 0.000000 1.682340 
# 
# From -- ./inp_files/10448.got.cif
#   From: 2010.05.17/outbox.cif.g08.bks.cpg/sg53_6_cif.got.tgz:10448.got - 2010.06.03 12:45:16.
