data_PCOD9414774
_publ_section_title
;
Structure prediction by ZEFSAII (Michael W. Deem and Ramdas Pophale) SiO2 
 PCOD9414774
Probable space group: P M N A
;
_chemical_formula_sum "Si O2"
_cell_formula_units_Z 56
_cell_length_a 8.366635
_cell_length_b 17.399207
_cell_length_c 22.033380
_cell_angle_alpha 90.000000
_cell_angle_beta 90.000000
_cell_angle_gamma 90.000000
_cell_volume 3207.461134
_symmetry_space_group_name_H-M "P M N A"
_symmetry_group_IT_number 53
_symmetry_cell_setting 'orthorhombic'
loop_
_space_group_symop_operation_xyz
x,y,z
1/2-x,-y,1/2+z
x,-y,-z
1/2-x,y,1/2-z
-x,-y,-z
1/2+x,y,1/2-z
-x,y,z
1/2+x,-y,1/2+z
loop_
_atom_site_type_symbol
_atom_site_label
_atom_site_fract_x
_atom_site_fract_y
_atom_site_fract_z
Si Si1 0.190165 0.143997 0.182314
Si Si2 0.193398 0.543223 0.437305
Si Si3 0.693475 0.700198 0.620582
Si Si4 0.807449 0.295848 0.515640
Si Si5 0.309021 0.544886 0.682699
Si Si6 0.805118 0.122605 0.526656
Si Si7 0.307661 0.026172 0.092159
O O1 0.250000 0.151973 0.250000
O O2 0.250898 0.217018 0.143787
O O3 0.246611 0.064926 0.152685
O O4 0.000000 0.146654 0.181136
O O5 0.244395 0.500000 0.500000
O O6 0.245465 0.632141 0.443870
O O7 0.253284 0.505575 0.374961
O O8 0.000000 0.539895 0.436447
O O9 0.500000 0.700391 0.617958
O O10 0.758617 0.686589 0.553410
O O11 0.743704 0.631929 0.665645
O O12 0.747883 0.210095 0.531826
O O13 0.000000 0.293800 0.518427
O O14 0.250000 0.523036 0.750000
O O15 0.500000 0.543326 0.683927
O O16 0.756866 0.082534 0.463170
O O17 0.000000 0.124549 0.526808
O O18 0.754758 0.060501 0.577158
O O19 0.500000 0.026135 0.092180
#
# Coordination Sequence:
#
# PCOD9414774 Si02
#       7
#     8   8   8   8   8   8   8
#     4  11  22  34  48  71 103 138 173 208 252 304
#     4  10  20  34  54  82 110 139 176 219 264 316
#     4  10  21  34  49  75 107 138 172 211 258 311
#     4  10  18  31  54  79 107 140 172 209 255 309
#     4  11  23  38  56  76 105 143 181 222 266 317
#     4   8  15  28  50  77 100 129 165 202 247 297
#     4   9  16  30  51  73  99 130 168 206 243 295
#
# _framework density 17.459292000000001
#
# number of rings (size 3 to 8) (size 9 to 14) (size 15 to 20)
#    0.000    2.143    2.857    2.143    0.000    2.000 
#    0.000    2.143    0.000    0.857    0.000    0.000 
#    0.000    0.000    0.000    0.000    0.000    0.000 
#
# Total GULP energy -312261.264279 kJ/mol
# GULP energy per Si atom -5576.094005 kJ/mol
# Density = 1.741955 g / cm^3
# Si number density = 17.459292 Si / 1000 Ang^3
#
#
#
# Elastic Constant Matrix: (Units=GPa)
#
#
# Indices 1 2 3 4 5 6 
#
# 1 8.0421 19.2462 12.1279 0.0000 0.0000 0.0000
# 2 19.2462 122.7207 54.9790 0.0000 0.0000 0.0000
# 3 12.1279 54.9790 97.7589 0.0000 0.0000 0.0000
# 4 0.0000 0.0000 0.0000 30.0858 0.0000 0.0000
# 5 0.0000 0.0000 0.0000 0.0000 17.1581 0.0000
# 6 0.0000 0.0000 0.0000 0.0000 0.0000 18.3196
#
#
#
# Elastic Compliance Matrix: (Units=1/GPa)
#
#
# Indices 1 2 3 4 5 6 
#
# 1 0.205942 -0.027875 -0.009872 0.000000 0.000000 0.000000
# 2 -0.027875 0.014666 -0.004790 0.000000 0.000000 0.000000
# 3 -0.009872 -0.004790 0.014148 0.000000 0.000000 0.000000
# 4 0.000000 0.000000 0.000000 0.033238 0.000000 0.000000
# 5 0.000000 0.000000 0.000000 0.000000 0.058282 0.000000
# 6 0.000000 0.000000 0.000000 0.000000 0.000000 0.054586
#
#
# Mechanical properties :
#
#
# Convention : Reuss Voigt Hill
#
# Bulk Modulus (GPa) = 6.68085 44.58086 25.63086
# Shear Modulus (GPa) = 9.69311 22.59060 16.14186
#
# Velocity S-wave (km/s) = 2.35879 3.60099 3.04393
# Velocity P-wave (km/s) = 3.35460 6.54821 5.20252
#
# Compressibility (1/GPa) = 0.14968149
#
# Stress axis : x y z
#
# Youngs Moduli (GPa) = 4.85574 68.18443 70.68211
#
# Poissons Ratio (x) = 1.90064 0.69779
# Poissons Ratio (y) = 0.13535 0.33857
# Poissons Ratio (z) = 0.04794 0.32660
#
# Static dielectric constant tensor:
#      x y z
#    x 1.596700 0.000000 0.000000 
#    y 0.000000 1.632840 0.000000 
#    z 0.000000 0.000000 1.565380 
# 
# From -- ./inp_files/31023.got.cif
#   From: 2010.05.17/outbox.cif.g08.bks.cpg/sg53_16_cif.got.tgz:31023.got - 2010.06.03 12:45:16.
