data_PCOD9414214
_publ_section_title
;
Structure prediction by ZEFSAII (Michael W. Deem and Ramdas Pophale) SiO2 
 PCOD9414214
Probable space group: P M N A
;
_chemical_formula_sum "Si O2"
_cell_formula_units_Z 32
_cell_length_a 8.589068
_cell_length_b 11.869734
_cell_length_c 18.018759
_cell_angle_alpha 90.000000
_cell_angle_beta 90.000000
_cell_angle_gamma 90.000000
_cell_volume 1837.011624
_symmetry_space_group_name_H-M "P M N A"
_symmetry_group_IT_number 53
_symmetry_cell_setting 'orthorhombic'
loop_
_space_group_symop_operation_xyz
x,y,z
1/2-x,-y,1/2+z
x,-y,-z
1/2-x,y,1/2-z
-x,-y,-z
1/2+x,y,1/2-z
-x,y,z
1/2+x,-y,1/2+z
loop_
_atom_site_type_symbol
_atom_site_label
_atom_site_fract_x
_atom_site_fract_y
_atom_site_fract_z
Si Si1 0.814406 0.655516 0.543790
Si Si2 0.186230 0.870725 0.018415
Si Si3 0.814464 0.773353 0.327610
Si Si4 0.314643 0.447447 0.610121
O O1 0.762634 0.785085 0.540997
O O2 0.733572 0.605822 0.469567
O O3 0.755364 0.573265 0.608868
O O4 0.000000 0.646146 0.536746
O O5 0.248446 0.837248 0.100054
O O6 0.000000 0.854353 0.017440
O O7 0.221349 0.000000 0.000000
O O8 0.750000 0.819561 0.250000
O O9 0.757904 0.643542 0.334637
O O10 0.000000 0.776946 0.329400
O O11 0.500000 0.450946 0.616937
#
# Coordination Sequence:
#
# PCOD9414214 Si02
#       4
#     8   8   8   8
#     4  10  17  27  45  70  98 126 159 199 245 292
#     4  10  20  34  52  75 103 136 176 218 259 304
#     4  11  21  34  52  75 103 133 169 211 260 313
#     4  10  17  28  46  69  97 126 158 196 244 295
#
# _framework density 17.419594
#
# number of rings (size 3 to 8) (size 9 to 14) (size 15 to 20)
#    0.000    1.750    0.000   12.000    0.000    2.000 
#    0.000    0.000    0.000    1.500    0.000    3.500 
#    0.000    0.000    0.000    0.000    0.000    0.000 
#
# Total GULP energy -178418.577584 kJ/mol
# GULP energy per Si atom -5575.580550 kJ/mol
# Density = 1.737995 g / cm^3
# Si number density = 17.419594 Si / 1000 Ang^3
#
#
#
# Elastic Constant Matrix: (Units=GPa)
#
#
# Indices 1 2 3 4 5 6 
#
# 1 95.1283 47.4647 19.5720 0.0000 0.0000 0.0000
# 2 47.4647 125.5796 34.5799 0.0000 0.0000 0.0000
# 3 19.5720 34.5799 58.6485 0.0000 0.0000 0.0000
# 4 0.0000 0.0000 0.0000 15.4554 0.0000 0.0000
# 5 0.0000 0.0000 0.0000 0.0000 -26.7281 0.0000
# 6 0.0000 0.0000 0.0000 0.0000 0.0000 25.2126
#
#
#
# Elastic Compliance Matrix: (Units=1/GPa)
#
#
# Indices 1 2 3 4 5 6 
#
# 1 0.013101 -0.004474 -0.001734 0.000000 0.000000 0.000000
# 2 -0.004474 0.011035 -0.005013 0.000000 0.000000 0.000000
# 3 -0.001734 -0.005013 0.020585 0.000000 0.000000 0.000000
# 4 0.000000 0.000000 0.000000 0.064703 0.000000 0.000000
# 5 0.000000 0.000000 0.000000 0.000000 -0.037414 0.000000
# 6 0.000000 0.000000 0.000000 0.000000 0.000000 0.039663
#
#
# Mechanical properties :
#
#
# Convention : Reuss Voigt Hill
#
# Bulk Modulus (GPa) = 44.88648 53.62103 49.25376
# Shear Modulus (GPa) = 35.32534 14.63729 24.98132
#
# Velocity S-wave (km/s) = 4.50812 2.90190 3.79105
# Velocity P-wave (km/s) = 7.27470 6.48667 6.89196
#
# Compressibility (1/GPa) = 0.02227842
#
# Stress axis : x y z
#
# Youngs Moduli (GPa) = 76.32776 90.62380 48.57876
#
# Poissons Ratio (x) = 0.40549 0.08424
# Poissons Ratio (y) = 0.34152 0.24352
# Poissons Ratio (z) = 0.13235 0.45430
#
# Static dielectric constant tensor:
#      x y z
#    x 1.576110 0.000000 0.000000 
#    y 0.000000 1.649330 0.000000 
#    z 0.000000 0.000000 1.672070 
# 
# From -- ./inp_files/25751.got.cif
#   From: 2010.05.17/outbox.cif.g08.bks.cpg/sg53_13_cif.got.tgz:25751.got - 2010.06.03 12:45:16.
