data_PCOD9414321
_publ_section_title
;
Structure prediction by ZEFSAII (Michael W. Deem and Ramdas Pophale) SiO2 
 PCOD9414321
Probable space group: P M N A
;
_chemical_formula_sum "Si O2"
_cell_formula_units_Z 40
_cell_length_a 14.989059
_cell_length_b 12.810424
_cell_length_c 10.519576
_cell_angle_alpha 90.000000
_cell_angle_beta 90.000000
_cell_angle_gamma 90.000000
_cell_volume 2019.929021
_symmetry_space_group_name_H-M "P M N A"
_symmetry_group_IT_number 53
_symmetry_cell_setting 'orthorhombic'
loop_
_space_group_symop_operation_xyz
x,y,z
1/2-x,-y,1/2+z
x,-y,-z
1/2-x,y,1/2-z
-x,-y,-z
1/2+x,y,1/2-z
-x,y,z
1/2+x,-y,1/2+z
loop_
_atom_site_type_symbol
_atom_site_label
_atom_site_fract_x
_atom_site_fract_y
_atom_site_fract_z
Si Si1 0.500000 0.434695 0.871556
Si Si2 0.401804 0.843339 0.274595
Si Si3 0.813487 0.954746 0.869573
Si Si4 0.149098 0.728871 0.970918
Si Si5 0.000000 0.423742 0.120303
Si Si6 0.690432 0.682242 0.132721
O O1 0.500000 0.509158 0.748224
O O2 0.593632 0.370834 0.872755
O O3 0.500000 0.500000 0.000000
O O4 0.500000 0.837863 0.219694
O O5 0.392722 0.761756 0.391971
O O6 0.331036 0.802726 0.171631
O O7 0.385469 0.957385 0.331650
O O8 0.750000 0.950853 0.750000
O O9 0.845722 0.838285 0.897585
O O10 0.771846 0.000000 0.000000
O O11 0.246543 0.683565 0.009030
O O12 0.087013 0.648793 0.896815
O O13 0.000000 0.500000 0.000000
O O14 0.750000 0.638062 0.250000
#
# Coordination Sequence:
#
# PCOD9414321 Si02
#       6
#     4   8   8   8   4   8
#     4  12  28  44  63  95 135 163 220 278 330 385
#     4  10  17  33  63  95 128 166 208 255 309 389
#     4  10  21  36  59  93 130 166 210 254 309 383
#     4  10  22  37  65  92 127 159 216 267 322 368
#     4  12  24  44  68  97 119 163 221 282 315 383
#     4  10  21  41  66  95 125 174 214 261 324 396
#
# _framework density 19.802676000000002
#
# number of rings (size 3 to 8) (size 9 to 14) (size 15 to 20)
#    0.000    1.600    2.000    5.400    1.400    5.200 
#    0.000    0.000    2.200    1.800    0.000    0.000 
#    0.000    0.000    0.000    0.000    0.000    0.000 
#
# Total GULP energy -223114.207241 kJ/mol
# GULP energy per Si atom -5577.855181 kJ/mol
# Density = 1.975760 g / cm^3
# Si number density = 19.802676 Si / 1000 Ang^3
#
#
#
# Elastic Constant Matrix: (Units=GPa)
#
#
# Indices 1 2 3 4 5 6 
#
# 1 152.5273 64.6714 43.2566 0.0000 0.0000 0.0000
# 2 64.6714 122.3285 54.4713 0.0000 0.0000 0.0000
# 3 43.2566 54.4713 85.0752 0.0000 0.0000 0.0000
# 4 0.0000 0.0000 0.0000 22.7587 0.0000 0.0000
# 5 0.0000 0.0000 0.0000 0.0000 18.6867 0.0000
# 6 0.0000 0.0000 0.0000 0.0000 0.0000 32.1794
#
#
#
# Elastic Compliance Matrix: (Units=1/GPa)
#
#
# Indices 1 2 3 4 5 6 
#
# 1 0.008703 -0.003680 -0.002069 0.000000 0.000000 0.000000
# 2 -0.003680 0.012991 -0.006447 0.000000 0.000000 0.000000
# 3 -0.002069 -0.006447 0.016934 0.000000 0.000000 0.000000
# 4 0.000000 0.000000 0.000000 0.043939 0.000000 0.000000
# 5 0.000000 0.000000 0.000000 0.000000 0.053514 0.000000
# 6 0.000000 0.000000 0.000000 0.000000 0.000000 0.031076
#
#
# Mechanical properties :
#
#
# Convention : Reuss Voigt Hill
#
# Bulk Modulus (GPa) = 70.24012 76.08106 73.16059
# Shear Modulus (GPa) = 25.47208 27.89374 26.68291
#
# Velocity S-wave (km/s) = 3.59039 3.75718 3.67473
# Velocity P-wave (km/s) = 7.26188 7.57132 7.41821
#
# Compressibility (1/GPa) = 0.01423688
#
# Stress axis : x y z
#
# Youngs Moduli (GPa) = 114.89995 76.97830 59.05317
#
# Poissons Ratio (x) = 0.28326 0.12219
# Poissons Ratio (y) = 0.42281 0.38069
# Poissons Ratio (z) = 0.23774 0.49625
#
# Static dielectric constant tensor:
#      x y z
#    x 1.732800 0.000000 0.000000 
#    y 0.000000 1.722980 0.000000 
#    z 0.000000 0.000000 1.680600 
# 
# From -- ./inp_files/15797.got.cif
#   From: 2010.05.17/outbox.cif.g08.bks.cpg/sg53_8_cif.got.tgz:15797.got - 2010.06.03 12:45:16.
