data_PCOD9414153
_publ_section_title
;
Structure prediction by ZEFSAII (Michael W. Deem and Ramdas Pophale) SiO2 
 PCOD9414153
Probable space group: P M N A
;
_chemical_formula_sum "Si O2"
_cell_formula_units_Z 56
_cell_length_a 8.724683
_cell_length_b 16.697152
_cell_length_c 25.423659
_cell_angle_alpha 90.000000
_cell_angle_beta 90.000000
_cell_angle_gamma 90.000000
_cell_volume 3703.651479
_symmetry_space_group_name_H-M "P M N A"
_symmetry_group_IT_number 53
_symmetry_cell_setting 'orthorhombic'
loop_
_space_group_symop_operation_xyz
x,y,z
1/2-x,-y,1/2+z
x,-y,-z
1/2-x,y,1/2-z
-x,-y,-z
1/2+x,y,1/2-z
-x,y,z
1/2+x,-y,1/2+z
loop_
_atom_site_type_symbol
_atom_site_label
_atom_site_fract_x
_atom_site_fract_y
_atom_site_fract_z
Si Si1 0.183174 0.306927 0.488307
Si Si2 0.821681 0.542025 0.942283
Si Si3 0.313947 0.377347 0.596251
Si Si4 0.316280 0.915922 0.306812
Si Si5 0.185411 0.978377 0.414133
Si Si6 0.815567 0.729872 0.193961
Si Si7 0.313796 0.125622 0.013409
O O1 0.233964 0.374610 0.446804
O O2 0.250663 0.334557 0.544284
O O3 0.237134 0.216403 0.477323
O O4 0.000000 0.306707 0.491642
O O5 0.765605 0.470739 0.904462
O O6 0.000000 0.558728 0.931659
O O7 0.813315 0.500000 0.000000
O O8 0.500000 0.377163 0.593016
O O9 0.264966 0.327603 0.646986
O O10 0.250000 0.941003 0.250000
O O11 0.500000 0.919868 0.304972
O O12 0.254774 0.963964 0.356967
O O13 0.269529 0.822501 0.314900
O O14 0.232008 0.909399 0.456245
O O15 0.000000 0.977102 0.410388
O O16 0.232282 0.061638 0.442143
O O17 0.750000 0.704491 0.250000
O O18 0.000000 0.728098 0.195872
O O19 0.500000 0.125168 0.013330
#
# Coordination Sequence:
#
# PCOD9414153 Si02
#       7
#     8   8   8   8   8   8   8
#     4  10  17  25  40  63  86 107 137 172 202 237
#     4   8  15  27  40  55  79 110 138 162 196 240
#     4   9  17  29  42  57  82 114 140 165 202 243
#     4  10  19  30  44  64  87 111 141 175 211 248
#     4   9  16  30  47  61  83 115 146 172 207 255
#     4   9  18  30  43  60  83 109 137 169 202 240
#     4   8  16  28  43  63  87 115 141 170 213 258
#
# _framework density 15.120214000000001
#
# number of rings (size 3 to 8) (size 9 to 14) (size 15 to 20)
#    0.000    3.000    0.000    3.429    0.000    3.714 
#    0.000    3.571    0.000    0.000    0.000    1.000 
#    0.000    4.571    0.000    0.000    0.000    0.000 
#
# Total GULP energy -311828.242078 kJ/mol
# GULP energy per Si atom -5568.361466 kJ/mol
# Density = 1.508580 g / cm^3
# Si number density = 15.120214 Si / 1000 Ang^3
#
#
#
# Elastic Constant Matrix: (Units=GPa)
#
#
# Indices 1 2 3 4 5 6 
#
# 1 17.5342 25.6651 23.4151 0.0000 0.0000 0.0000
# 2 25.6651 117.8808 56.7436 0.0000 0.0000 0.0000
# 3 23.4151 56.7436 104.4040 0.0000 0.0000 0.0000
# 4 0.0000 0.0000 0.0000 24.4979 0.0000 0.0000
# 5 0.0000 0.0000 0.0000 0.0000 20.2409 0.0000
# 6 0.0000 0.0000 0.0000 0.0000 0.0000 -1.4674
#
#
#
# Elastic Compliance Matrix: (Units=1/GPa)
#
#
# Indices 1 2 3 4 5 6 
#
# 1 0.096532 -0.014350 -0.013850 0.000000 0.000000 0.000000
# 2 -0.014350 0.013622 -0.004185 0.000000 0.000000 0.000000
# 3 -0.013850 -0.004185 0.014959 0.000000 0.000000 0.000000
# 4 0.000000 0.000000 0.000000 0.040820 0.000000 0.000000
# 5 0.000000 0.000000 0.000000 0.000000 0.049405 0.000000
# 6 0.000000 0.000000 0.000000 0.000000 0.000000 -0.681477
#
#
# Mechanical properties :
#
#
# Convention : Reuss Voigt Hill
#
# Bulk Modulus (GPa) = 16.57230 50.16298 33.36764
# Shear Modulus (GPa) = -13.11462 17.58728 2.23633
#
# Velocity S-wave (km/s) = -2.94829 3.41422 1.21747
# Velocity P-wave (km/s) = 0.77827 6.98503 4.90841
#
# Compressibility (1/GPa) = 0.06034167
#
# Stress axis : x y z
#
# Youngs Moduli (GPa) = 10.35931 73.41038 66.84860
#
# Poissons Ratio (x) = 1.05343 0.92588
# Poissons Ratio (y) = 0.14865 0.27978
# Poissons Ratio (z) = 0.14348 0.30724
#
# Static dielectric constant tensor:
#      x y z
#    x 1.512550 0.000000 0.000000 
#    y 0.000000 1.523640 0.000000 
#    z 0.000000 0.000000 1.482290 
# 
# From -- ./inp_files/34386.got.cif
#   From: 2010.05.17/outbox.cif.g08.bks.cpg/sg53_18_cif.got.tgz:34386.got - 2010.06.03 12:45:16.
