data_PCOD9414643
_publ_section_title
;
Structure prediction by ZEFSAII (Michael W. Deem and Ramdas Pophale) SiO2 
 PCOD9414643
Probable space group: P M N A
;
_chemical_formula_sum "Si O2"
_cell_formula_units_Z 64
_cell_length_a 8.489574
_cell_length_b 15.247760
_cell_length_c 28.338001
_cell_angle_alpha 90.000000
_cell_angle_beta 90.000000
_cell_angle_gamma 90.000000
_cell_volume 3668.268843
_symmetry_space_group_name_H-M "P M N A"
_symmetry_group_IT_number 53
_symmetry_cell_setting 'orthorhombic'
loop_
_space_group_symop_operation_xyz
x,y,z
1/2-x,-y,1/2+z
x,-y,-z
1/2-x,y,1/2-z
-x,-y,-z
1/2+x,y,1/2-z
-x,y,z
1/2+x,-y,1/2+z
loop_
_atom_site_type_symbol
_atom_site_label
_atom_site_fract_x
_atom_site_fract_y
_atom_site_fract_z
Si Si1 0.189867 0.160849 0.967099
Si Si2 0.311000 0.344410 0.696965
Si Si3 0.308560 0.848539 0.575914
Si Si4 0.809980 0.528285 0.114483
Si Si5 0.187036 0.153169 0.697252
Si Si6 0.686712 0.646753 0.030166
Si Si7 0.190523 0.651951 0.924173
Si Si8 0.309533 0.029027 0.616699
O O1 0.267566 0.253985 0.955572
O O2 0.230976 0.086810 0.929447
O O3 0.000000 0.172587 0.966134
O O4 0.233445 0.136768 0.020875
O O5 0.250000 0.358900 0.750000
O O6 0.500000 0.344412 0.697835
O O7 0.254248 0.417838 0.660149
O O8 0.255586 0.247527 0.681522
O O9 0.500000 0.849016 0.577687
O O10 0.255351 0.750271 0.588858
O O11 0.254732 0.929607 0.607583
O O12 0.758684 0.580343 0.067831
O O13 0.756305 0.427731 0.108938
O O14 0.000000 0.527929 0.116143
O O15 0.250000 0.137171 0.750000
O O16 0.239724 0.077562 0.661754
O O17 0.000000 0.160135 0.698740
O O18 0.500000 0.636551 0.028904
O O19 0.754937 0.633684 0.977668
O O20 0.000000 0.653221 0.924420
O O21 0.500000 0.029284 0.620710
#
# Coordination Sequence:
#
# PCOD9414643 Si02
#       8
#     8   8   8   8   8   8   8   8
#     4   9  17  30  48  70  99 134 167 196 232 285
#     4  10  20  35  54  76 100 125 155 193 240 290
#     4   8  15  29  50  73  96 127 167 204 233 270
#     4  10  20  33  51  72  95 128 167 200 234 287
#     4  11  22  36  53  74 100 128 158 194 241 292
#     4  11  21  30  44  70 102 132 163 202 246 285
#     4   9  18  34  52  69  94 131 170 202 234 278
#     4  10  18  30  51  76  99 126 163 203 241 283
#
# _framework density 17.446921
#
# number of rings (size 3 to 8) (size 9 to 14) (size 15 to 20)
#    0.000    2.250    0.000    5.625    0.000    8.000 
#    0.000    2.500    0.000    4.500    0.000    1.750 
#    0.000    0.000    0.000    0.000    0.000    0.000 
#
# Total GULP energy -357165.693957 kJ/mol
# GULP energy per Si atom -5580.713968 kJ/mol
# Density = 1.740721 g / cm^3
# Si number density = 17.446921 Si / 1000 Ang^3
#
#
#
# Elastic Constant Matrix: (Units=GPa)
#
#
# Indices 1 2 3 4 5 6 
#
# 1 22.9280 23.8401 17.7570 0.0000 0.0000 0.0000
# 2 23.8401 147.8158 85.9547 0.0000 0.0000 0.0000
# 3 17.7570 85.9547 76.3200 0.0000 0.0000 0.0000
# 4 0.0000 0.0000 0.0000 31.6633 0.0000 0.0000
# 5 0.0000 0.0000 0.0000 0.0000 18.2974 0.0000
# 6 0.0000 0.0000 0.0000 0.0000 0.0000 7.6895
#
#
#
# Elastic Compliance Matrix: (Units=1/GPa)
#
#
# Indices 1 2 3 4 5 6 
#
# 1 0.054033 -0.004069 -0.007989 0.000000 0.000000 0.000000
# 2 -0.004069 0.019910 -0.021477 0.000000 0.000000 0.000000
# 3 -0.007989 -0.021477 0.039150 0.000000 0.000000 0.000000
# 4 0.000000 0.000000 0.000000 0.031582 0.000000 0.000000
# 5 0.000000 0.000000 0.000000 0.000000 0.054652 0.000000
# 6 0.000000 0.000000 0.000000 0.000000 0.000000 0.130048
#
#
# Mechanical properties :
#
#
# Convention : Reuss Voigt Hill
#
# Bulk Modulus (GPa) = 21.72828 55.79638 38.76233
# Shear Modulus (GPa) = 12.14221 19.49751 15.81986
#
# Velocity S-wave (km/s) = 2.64095 3.34658 3.01448
# Velocity P-wave (km/s) = 4.66695 6.85440 5.86359
#
# Compressibility (1/GPa) = 0.04602297
#
# Stress axis : x y z
#
# Youngs Moduli (GPa) = 18.50732 50.22494 25.54281
#
# Poissons Ratio (x) = 0.20437 0.20406
# Poissons Ratio (y) = 0.07531 0.54859
# Poissons Ratio (z) = 0.14785 1.07869
#
# Static dielectric constant tensor:
#      x y z
#    x 1.596980 0.000000 0.000000 
#    y 0.000000 1.615860 0.000000 
#    z 0.000000 0.000000 1.570140 
# 
# From -- ./inp_files/38505.got.cif
#   From: 2010.05.17/outbox.cif.g08.bks.cpg/sg53_20_cif.got.tgz:38505.got - 2010.06.03 12:45:16.
