data_PCOD9414660
_publ_section_title
;
Structure prediction by ZEFSAII (Michael W. Deem and Ramdas Pophale) SiO2 
 PCOD9414660
Probable space group: P M N A
;
_chemical_formula_sum "Si O2"
_cell_formula_units_Z 64
_cell_length_a 7.766553
_cell_length_b 12.361742
_cell_length_c 32.806514
_cell_angle_alpha 90.000000
_cell_angle_beta 90.000000
_cell_angle_gamma 90.000000
_cell_volume 3149.691878
_symmetry_space_group_name_H-M "P M N A"
_symmetry_group_IT_number 53
_symmetry_cell_setting 'orthorhombic'
loop_
_space_group_symop_operation_xyz
x,y,z
1/2-x,-y,1/2+z
x,-y,-z
1/2-x,y,1/2-z
-x,-y,-z
1/2+x,y,1/2-z
-x,y,z
1/2+x,-y,1/2+z
loop_
_atom_site_type_symbol
_atom_site_label
_atom_site_fract_x
_atom_site_fract_y
_atom_site_fract_z
Si Si1 0.791265 0.737149 0.057407
Si Si2 0.292892 0.248995 0.704686
Si Si3 0.789816 0.117769 0.016296
Si Si4 0.202924 0.628809 0.624656
Si Si5 0.210561 0.104019 0.869167
Si Si6 0.701241 0.503839 0.953724
Si Si7 0.296490 0.493602 0.704637
Si Si8 0.292446 0.132668 0.391199
O O1 0.741402 0.824147 0.091656
O O2 0.717212 0.618190 0.063146
O O3 0.000000 0.728240 0.058183
O O4 0.736677 0.787633 0.014233
O O5 0.250000 0.211845 0.750000
O O6 0.500000 0.253292 0.700438
O O7 0.228382 0.167773 0.670439
O O8 0.223460 0.371535 0.700139
O O9 0.730434 0.135741 0.062070
O O10 0.000000 0.116786 0.016195
O O11 0.736070 0.000000 0.000000
O O12 0.277653 0.581322 0.581730
O O13 0.252994 0.564418 0.665333
O O14 0.244007 0.755019 0.629293
O O15 0.000000 0.615695 0.620809
O O16 0.000000 0.101672 0.868989
O O17 0.269140 0.980242 0.872175
O O18 0.500000 0.533207 0.958748
O O19 0.776791 0.500000 0.000000
O O20 0.250000 0.535281 0.750000
O O21 0.500000 0.482951 0.704941
O O22 0.500000 0.127777 0.392147
#
# Coordination Sequence:
#
# PCOD9414660 Si02
#       8
#     8   8   8   8   8   8   8   8
#     4  10  18  30  53  80 103 129 172 225 271 322
#     4   9  18  33  54  80 107 133 163 205 258 316
#     4   9  15  27  49  78 106 135 174 222 273 323
#     4  11  23  38  55  77 110 150 191 234 280 330
#     4   9  17  31  52  78 105 133 167 211 264 317
#     4  10  22  38  52  71 108 152 187 226 280 334
#     4  10  20  37  62  89 114 140 177 224 276 335
#     4  10  19  33  54  77 106 144 183 223 269 324
#
# _framework density 20.319448999999999
#
# number of rings (size 3 to 8) (size 9 to 14) (size 15 to 20)
#    0.000    2.250    1.250    2.250    0.000    2.750 
#    0.000    2.500    0.000    2.250    0.000    0.000 
#    0.000    0.000    0.000    0.000    0.000    0.000 
#
# Total GULP energy -357240.873792 kJ/mol
# GULP energy per Si atom -5581.888653 kJ/mol
# Density = 2.027320 g / cm^3
# Si number density = 20.319449 Si / 1000 Ang^3
#
#
#
# Elastic Constant Matrix: (Units=GPa)
#
#
# Indices 1 2 3 4 5 6 
#
# 1 30.5543 -2.0176 11.4760 0.0000 0.0000 0.0000
# 2 -2.0176 109.6039 78.9474 0.0000 0.0000 0.0000
# 3 11.4760 78.9474 155.8215 0.0000 0.0000 0.0000
# 4 0.0000 0.0000 0.0000 35.5966 0.0000 0.0000
# 5 0.0000 0.0000 0.0000 0.0000 27.5940 0.0000
# 6 0.0000 0.0000 0.0000 0.0000 0.0000 15.4347
#
#
#
# Elastic Compliance Matrix: (Units=1/GPa)
#
#
# Indices 1 2 3 4 5 6 
#
# 1 0.034689 0.003903 -0.004532 0.000000 0.000000 0.000000
# 2 0.003903 0.014806 -0.007789 0.000000 0.000000 0.000000
# 3 -0.004532 -0.007789 0.010698 0.000000 0.000000 0.000000
# 4 0.000000 0.000000 0.000000 0.028093 0.000000 0.000000
# 5 0.000000 0.000000 0.000000 0.000000 0.036240 0.000000
# 6 0.000000 0.000000 0.000000 0.000000 0.000000 0.064789
#
#
# Mechanical properties :
#
#
# Convention : Reuss Voigt Hill
#
# Bulk Modulus (GPa) = 23.06476 52.53235 37.79856
# Shear Modulus (GPa) = 22.66527 29.56333 26.11430
#
# Velocity S-wave (km/s) = 3.34345 3.81849 3.58884
# Velocity P-wave (km/s) = 5.12646 6.73428 5.98461
#
# Compressibility (1/GPa) = 0.04335618
#
# Stress axis : x y z
#
# Youngs Moduli (GPa) = 28.82782 67.54034 93.47817
#
# Poissons Ratio (x) = -0.26362 0.42367
# Poissons Ratio (y) = -0.11252 0.72810
# Poissons Ratio (z) = 0.13066 0.52607
#
# Static dielectric constant tensor:
#      x y z
#    x 1.755230 0.000000 0.000000 
#    y 0.000000 1.724690 0.000000 
#    z 0.000000 0.000000 1.723250 
# 
# From -- ./inp_files/38278.got.cif
#   From: 2010.05.17/outbox.cif.g08.bks.cpg/sg53_20_cif.got.tgz:38278.got - 2010.06.03 12:45:16.
