data_PCOD9414653
_publ_section_title
;
Structure prediction by ZEFSAII (Michael W. Deem and Ramdas Pophale) SiO2 
 PCOD9414653
Probable space group: P M N A
;
_chemical_formula_sum "Si O2"
_cell_formula_units_Z 48
_cell_length_a 17.280700
_cell_length_b 12.334669
_cell_length_c 13.430487
_cell_angle_alpha 90.000000
_cell_angle_beta 90.000000
_cell_angle_gamma 90.000000
_cell_volume 2862.731332
_symmetry_space_group_name_H-M "P M N A"
_symmetry_group_IT_number 53
_symmetry_cell_setting 'orthorhombic'
loop_
_space_group_symop_operation_xyz
x,y,z
1/2-x,-y,1/2+z
x,-y,-z
1/2-x,y,1/2-z
-x,-y,-z
1/2+x,y,1/2-z
-x,y,z
1/2+x,-y,1/2+z
loop_
_atom_site_type_symbol
_atom_site_label
_atom_site_fract_x
_atom_site_fract_y
_atom_site_fract_z
Si Si1 0.207118 0.811343 0.355017
Si Si2 0.358369 0.610958 0.877641
Si Si3 0.770892 0.239169 0.059570
Si Si4 0.910334 0.372871 0.602088
Si Si5 0.180985 0.945631 0.669798
Si Si6 0.910497 0.780922 0.789323
O O1 0.250000 0.808442 0.250000
O O2 0.266792 0.771849 0.440974
O O3 0.135652 0.729389 0.357238
O O4 0.175407 0.933581 0.371513
O O5 0.271399 0.652022 0.901137
O O6 0.368622 0.483284 0.862477
O O7 0.390269 0.682521 0.786647
O O8 0.403433 0.632842 0.981473
O O9 0.712436 0.143035 0.092829
O O10 0.851480 0.224973 0.117286
O O11 0.000000 0.376527 0.629797
O O12 0.250000 0.950416 0.750000
O O13 0.109481 0.890652 0.727335
O O14 0.000000 0.777154 0.817619
#
# Coordination Sequence:
#
# PCOD9414653 Si02
#       6
#     8   8   8   8   8   8
#     4  10  20  33  49  68  96 136 172 199 239 299
#     4   9  17  32  51  72  97 126 160 200 248 300
#     4   9  18  32  51  73  96 129 168 204 244 295
#     4  10  19  31  49  74 100 125 160 207 251 290
#     4   8  16  31  50  70  95 126 161 197 236 291
#     4  10  18  30  52  80 104 125 158 209 260 298
#
# _framework density 16.767205000000001
#
# number of rings (size 3 to 8) (size 9 to 14) (size 15 to 20)
#    0.000    2.667    0.000    4.000    0.000    2.000 
#    0.000    0.833    0.000   19.000    0.000   11.667 
#    0.000    0.000    0.000    0.000    0.000    0.000 
#
# Total GULP energy -267284.401966 kJ/mol
# GULP energy per Si atom -5568.425041 kJ/mol
# Density = 1.672904 g / cm^3
# Si number density = 16.767205 Si / 1000 Ang^3
#
#
#
# Elastic Constant Matrix: (Units=GPa)
#
#
# Indices 1 2 3 4 5 6 
#
# 1 102.2256 35.6450 45.0081 0.0000 0.0000 0.0000
# 2 35.6450 101.9734 27.4784 0.0000 0.0000 0.0000
# 3 45.0081 27.4784 74.5566 0.0000 0.0000 0.0000
# 4 0.0000 0.0000 0.0000 18.7127 0.0000 0.0000
# 5 0.0000 0.0000 0.0000 0.0000 14.6412 0.0000
# 6 0.0000 0.0000 0.0000 0.0000 0.0000 11.8491
#
#
#
# Elastic Compliance Matrix: (Units=1/GPa)
#
#
# Indices 1 2 3 4 5 6 
#
# 1 0.014064 -0.002918 -0.007415 0.000000 0.000000 0.000000
# 2 -0.002918 0.011493 -0.002474 0.000000 0.000000 0.000000
# 3 -0.007415 -0.002474 0.018801 0.000000 0.000000 0.000000
# 4 0.000000 0.000000 0.000000 0.053440 0.000000 0.000000
# 5 0.000000 0.000000 0.000000 0.000000 0.068300 0.000000
# 6 0.000000 0.000000 0.000000 0.000000 0.000000 0.084394
#
#
# Mechanical properties :
#
#
# Convention : Reuss Voigt Hill
#
# Bulk Modulus (GPa) = 53.35109 55.00208 54.17658
# Shear Modulus (GPa) = 17.70818 20.41555 19.06187
#
# Velocity S-wave (km/s) = 3.25333 3.49318 3.37538
# Velocity P-wave (km/s) = 6.78233 7.01030 6.89726
#
# Compressibility (1/GPa) = 0.01874376
#
# Stress axis : x y z
#
# Youngs Moduli (GPa) = 71.10118 87.00735 53.18939
#
# Poissons Ratio (x) = 0.25390 0.39439
# Poissons Ratio (y) = 0.20749 0.13161
# Poissons Ratio (z) = 0.52721 0.21528
#
# Static dielectric constant tensor:
#      x y z
#    x 1.553700 0.000000 0.000000 
#    y 0.000000 1.596180 0.000000 
#    z 0.000000 0.000000 1.587370 
# 
# From -- ./inp_files/22699.got.cif
#   From: 2010.05.17/outbox.cif.g08.bks.cpg/sg53_12_cif.got.tgz:22699.got - 2010.06.03 12:45:16.
