data_PCOD9414129
_publ_section_title
;
Structure prediction by ZEFSAII (Michael W. Deem and Ramdas Pophale) SiO2 
 PCOD9414129
Probable space group: P M N A
;
_chemical_formula_sum "Si O2"
_cell_formula_units_Z 32
_cell_length_a 13.743614
_cell_length_b 10.408215
_cell_length_c 10.473406
_cell_angle_alpha 90.000000
_cell_angle_beta 90.000000
_cell_angle_gamma 90.000000
_cell_volume 1498.183960
_symmetry_space_group_name_H-M "P M N A"
_symmetry_group_IT_number 53
_symmetry_cell_setting 'orthorhombic'
loop_
_space_group_symop_operation_xyz
x,y,z
1/2-x,-y,1/2+z
x,-y,-z
1/2-x,y,1/2-z
-x,-y,-z
1/2+x,y,1/2-z
-x,y,z
1/2+x,-y,1/2+z
loop_
_atom_site_type_symbol
_atom_site_label
_atom_site_fract_x
_atom_site_fract_y
_atom_site_fract_z
Si Si1 0.359310 0.391740 0.902543
Si Si2 0.313647 0.858996 0.945077
Si Si3 0.386525 0.783932 0.671349
Si Si4 0.860728 0.487161 0.857897
O O1 0.399516 0.402185 0.758979
O O2 0.246713 0.432947 0.883467
O O3 0.397907 0.500000 0.000000
O O4 0.359417 0.252595 0.966801
O O5 0.363320 0.849852 0.806324
O O6 0.197806 0.829850 0.925684
O O7 0.326413 0.000000 0.000000
O O8 0.500000 0.800690 0.634597
O O9 0.365178 0.632721 0.692669
O O10 0.903275 0.500000 0.000000
#
# Coordination Sequence:
#
# PCOD9414129 Si02
#       4
#     8   8   8   8
#     4  10  16  35  66  91 126 165 225 265 315 391
#     4  11  23  42  67  94 126 182 219 263 335 394
#     4  11  23  41  64  96 133 168 216 280 334 390
#     4  10  18  33  62  93 130 165 212 273 328 369
#
# _framework density 21.359192
#
# number of rings (size 3 to 8) (size 9 to 14) (size 15 to 20)
#    0.000    1.500    7.500    1.500    0.000    5.500 
#    0.000    2.500    0.000    0.000    0.000    0.000 
#    0.000    0.000    0.000    0.000    0.000    0.000 
#
# Total GULP energy -178469.890619 kJ/mol
# GULP energy per Si atom -5577.184082 kJ/mol
# Density = 2.131058 g / cm^3
# Si number density = 21.359192 Si / 1000 Ang^3
#
#
#
# Elastic Constant Matrix: (Units=GPa)
#
#
# Indices 1 2 3 4 5 6 
#
# 1 106.1535 13.0135 7.9700 0.0000 0.0000 0.0000
# 2 13.0135 168.2815 62.8285 0.0000 0.0000 0.0000
# 3 7.9700 62.8285 162.2690 0.0000 0.0000 0.0000
# 4 0.0000 0.0000 0.0000 40.6270 0.0000 0.0000
# 5 0.0000 0.0000 0.0000 0.0000 8.9848 0.0000
# 6 0.0000 0.0000 0.0000 0.0000 0.0000 -89.6250
#
#
#
# Elastic Compliance Matrix: (Units=1/GPa)
#
#
# Indices 1 2 3 4 5 6 
#
# 1 0.009517 -0.000656 -0.000213 0.000000 0.000000 0.000000
# 2 -0.000656 0.006992 -0.002675 0.000000 0.000000 0.000000
# 3 -0.000213 -0.002675 0.007209 0.000000 0.000000 0.000000
# 4 0.000000 0.000000 0.000000 0.024614 0.000000 0.000000
# 5 0.000000 0.000000 0.000000 0.000000 0.111300 0.000000
# 6 0.000000 0.000000 0.000000 0.000000 0.000000 -0.011158
#
#
# Mechanical properties :
#
#
# Convention : Reuss Voigt Hill
#
# Bulk Modulus (GPa) = 60.13825 67.14755 63.64290
# Shear Modulus (GPa) = 31.03554 15.52347 23.27951
#
# Velocity S-wave (km/s) = 3.81600 2.69881 3.30495
# Velocity P-wave (km/s) = 6.90164 6.42005 6.66519
#
# Compressibility (1/GPa) = 0.01662835
#
# Stress axis : x y z
#
# Youngs Moduli (GPa) = 105.07735 143.02317 138.71965
#
# Poissons Ratio (x) = 0.09387 0.02959
# Poissons Ratio (y) = 0.06896 0.37107
# Poissons Ratio (z) = 0.02241 0.38258
#
# Static dielectric constant tensor:
#      x y z
#    x 1.752950 0.000000 0.000000 
#    y 0.000000 1.705360 0.000000 
#    z 0.000000 0.000000 1.849600 
# 
# From -- ./inp_files/15422.got.cif
#   From: 2010.05.17/outbox.cif.g08.bks.cpg/sg53_8_cif.got.tgz:15422.got - 2010.06.03 12:45:16.
