data_PCOD9414802
_publ_section_title
;
Structure prediction by ZEFSAII (Michael W. Deem and Ramdas Pophale) SiO2 
 PCOD9414802
Probable space group: P M N A
;
_chemical_formula_sum "Si O2"
_cell_formula_units_Z 64
_cell_length_a 9.071046
_cell_length_b 22.227466
_cell_length_c 17.973098
_cell_angle_alpha 90.000000
_cell_angle_beta 90.000000
_cell_angle_gamma 90.000000
_cell_volume 3623.850445
_symmetry_space_group_name_H-M "P M N A"
_symmetry_group_IT_number 53
_symmetry_cell_setting 'orthorhombic'
loop_
_space_group_symop_operation_xyz
x,y,z
1/2-x,-y,1/2+z
x,-y,-z
1/2-x,y,1/2-z
-x,-y,-z
1/2+x,y,1/2-z
-x,y,z
1/2+x,-y,1/2+z
loop_
_atom_site_type_symbol
_atom_site_label
_atom_site_fract_x
_atom_site_fract_y
_atom_site_fract_z
Si Si1 0.323691 0.431016 0.982823
Si Si2 0.175973 0.766088 0.670124
Si Si3 0.326533 0.879979 0.595367
Si Si4 0.330817 0.997531 0.090582
Si Si5 0.674423 0.875302 0.416078
Si Si6 0.174662 0.626503 0.324561
Si Si7 0.673854 0.741309 0.388811
Si Si8 0.673227 0.317882 0.448714
O O1 0.500000 0.422336 0.993918
O O2 0.290882 0.413273 0.897335
O O3 0.288094 0.500000 0.000000
O O4 0.234976 0.383851 0.032980
O O5 0.250000 0.757586 0.750000
O O6 0.234114 0.829018 0.636488
O O7 0.233912 0.714690 0.614607
O O8 0.000000 0.765956 0.675090
O O9 0.500000 0.873633 0.612015
O O10 0.308582 0.872184 0.506011
O O11 0.267218 0.946121 0.615601
O O12 0.500000 0.003840 0.114652
O O13 0.263695 0.933031 0.111554
O O14 0.329040 0.000000 0.000000
O O15 0.500000 0.883790 0.402255
O O16 0.720237 0.810794 0.383315
O O17 0.250000 0.603211 0.250000
O O18 0.235627 0.693312 0.341593
O O19 0.000000 0.628493 0.315286
O O20 0.500000 0.736912 0.370293
O O21 0.688943 0.720456 0.474866
O O22 0.500000 0.318916 0.429927
#
# Coordination Sequence:
#
# PCOD9414802 Si02
#       8
#     8   8   8   8   8   8   8   8
#     4   9  19  37  60  86 115 149 187 225 267 315
#     4  12  24  37  54  76 105 142 185 231 281 333
#     4  10  18  32  50  70  99 135 176 223 276 329
#     4   9  17  27  41  68 100 131 169 216 267 320
#     4   9  16  28  47  72 101 135 171 215 272 324
#     4  10  20  34  54  81 111 145 180 219 266 317
#     4   9  17  31  52  77 106 139 175 218 266 319
#     4  10  19  35  56  81 110 140 178 223 270 321
#
# _framework density 17.660772000000001
#
# number of rings (size 3 to 8) (size 9 to 14) (size 15 to 20)
#    0.000    2.250    1.250    2.625    0.000    3.750 
#    0.000    0.625    0.000    2.250    0.000    1.750 
#    0.000    0.000    0.000    0.000    0.000    0.000 
#
# Total GULP energy -357186.209974 kJ/mol
# GULP energy per Si atom -5581.034531 kJ/mol
# Density = 1.762058 g / cm^3
# Si number density = 17.660772 Si / 1000 Ang^3
#
#
#
# Elastic Constant Matrix: (Units=GPa)
#
#
# Indices 1 2 3 4 5 6 
#
# 1 109.9605 62.9429 54.6111 0.0000 0.0000 0.0000
# 2 62.9429 139.1631 38.1209 0.0000 0.0000 0.0000
# 3 54.6111 38.1209 60.9630 0.0000 0.0000 0.0000
# 4 0.0000 0.0000 0.0000 7.4616 0.0000 0.0000
# 5 0.0000 0.0000 0.0000 0.0000 23.8453 0.0000
# 6 0.0000 0.0000 0.0000 0.0000 0.0000 31.1329
#
#
#
# Elastic Compliance Matrix: (Units=1/GPa)
#
#
# Indices 1 2 3 4 5 6 
#
# 1 0.018570 -0.004636 -0.013736 0.000000 0.000000 0.000000
# 2 -0.004636 0.009829 -0.001993 0.000000 0.000000 0.000000
# 3 -0.013736 -0.001993 0.029954 0.000000 0.000000 0.000000
# 4 0.000000 0.000000 0.000000 0.134019 0.000000 0.000000
# 5 0.000000 0.000000 0.000000 0.000000 0.041937 0.000000
# 6 0.000000 0.000000 0.000000 0.000000 0.000000 0.032120
#
#
# Mechanical properties :
#
#
# Convention : Reuss Voigt Hill
#
# Bulk Modulus (GPa) = 56.74456 69.04848 62.89652
# Shear Modulus (GPa) = 15.97275 22.78208 19.37741
#
# Velocity S-wave (km/s) = 3.01062 3.59553 3.31600
# Velocity P-wave (km/s) = 6.65471 7.51126 7.09592
#
# Compressibility (1/GPa) = 0.01762284
#
# Stress axis : x y z
#
# Youngs Moduli (GPa) = 53.85032 101.74280 33.38441
#
# Poissons Ratio (x) = 0.47173 0.45856
# Poissons Ratio (y) = 0.24967 0.06652
# Poissons Ratio (z) = 0.73968 0.20273
#
# Static dielectric constant tensor:
#      x y z
#    x 1.586660 0.000000 0.000000 
#    y 0.000000 1.588060 0.000000 
#    z 0.000000 0.000000 1.600810 
# 
# From -- ./inp_files/26766.got.cif
#   From: 2010.05.17/outbox.cif.g08.bks.cpg/sg53_14_cif.got.tgz:26766.got - 2010.06.03 12:45:16.
