data_PCOD9414017
_publ_section_title
;
Structure prediction by ZEFSAII (Michael W. Deem and Ramdas Pophale) SiO2 
 PCOD9414017
Probable space group: P N N A
;
_chemical_formula_sum "Si O2"
_cell_formula_units_Z 60
_cell_length_a 15.000000
_cell_length_b 15.000000
_cell_length_c 15.000000
_cell_angle_alpha 90.000000
_cell_angle_beta 90.000000
_cell_angle_gamma 90.000000
_cell_volume 3375.000000
_symmetry_space_group_name_H-M "P N N A"
_symmetry_group_IT_number 52
_symmetry_cell_setting 'orthorhombic'
loop_
_space_group_symop_operation_xyz
x,y,z
1/2-x,-y,z
x,1/2-y,1/2-z
1/2-x,1/2+y,1/2-z
-x,-y,-z
1/2+x,y,-z
-x,1/2+y,1/2+z
1/2+x,1/2-y,1/2+z
loop_
_atom_site_type_symbol
_atom_site_label
_atom_site_fract_x
_atom_site_fract_y
_atom_site_fract_z
Si Si1 0.497791 0.116793 0.602673
Si Si2 0.835905 0.877565 0.883621
Si Si3 0.630776 0.575149 0.649625
Si Si4 0.511955 0.756125 0.855226
Si Si5 0.098603 0.933014 0.360386
Si Si6 0.560128 0.250000 0.750000
Si Si7 0.360843 0.722274 0.978587
Si Si8 0.298543 0.413365 0.969024
O O1 0.503979 0.186887 0.684150
O O2 0.569513 0.159148 0.533252
O O3 0.395556 0.107140 0.572135
O O4 0.533736 0.017029 0.622792
O O5 0.731414 0.894190 0.868902
O O6 0.878229 0.819668 0.803775
O O7 0.880849 0.975432 0.889425
O O8 0.846850 0.812848 0.967066
O O9 0.563832 0.653385 0.617777
O O10 0.622511 0.565977 0.756529
O O11 0.514131 0.750000 0.750000
O O12 0.558812 0.664111 0.883380
O O13 0.412158 0.750484 0.890103
O O14 0.180088 0.937793 0.428324
O O15 0.270013 0.668378 0.965260
O O16 0.250000 0.500000 0.927750
#
# Coordination Sequence:
#
# PCOD9414017 Si02
#       8
#     8   8   8   8   8   4   8   8
#     4  11  22  40  60  89 129 153 203 242 303 359
#     4  10  22  35  60  91 119 152 200 242 309 359
#     4  10  22  37  59  92 121 154 193 257 302 363
#     4  10  22  39  60  81 119 161 202 248 302 354
#     4  11  20  36  59  93 122 151 189 250 313 358
#     4  10  22  38  60  86 120 164 188 244 294 360
#     4  11  23  39  59  90 118 164 204 244 297 367
#     4  12  23  34  61  91 123 163 193 251 303 360
#
# _framework density 17.777778000000001
#
# number of rings (size 3 to 8) (size 9 to 14) (size 15 to 20)
#    0.000    1.333    4.000    2.000    8.400    0.533 
#    1.200    0.000    0.000    0.000    3.467    0.000 
#    0.000    0.000    0.000    0.000    0.000    0.000 
#
# Total GULP energy -334505.561751 kJ/mol
# GULP energy per Si atom -5575.092696 kJ/mol
# Density = 1.773731 g / cm^3
# Si number density = 17.777778 Si / 1000 Ang^3
#
#
#
# Elastic Constant Matrix: (Units=GPa)
#
#
# Indices 1 2 3 4 5 6 
#
# 1 100.5650 68.8593 16.3904 0.0000 0.0000 0.0000
# 2 68.8593 173.1593 34.5951 0.0000 0.0000 0.0000
# 3 16.3904 34.5951 12.1467 0.0000 0.0000 0.0000
# 4 0.0000 0.0000 0.0000 4.2659 0.0000 0.0000
# 5 0.0000 0.0000 0.0000 0.0000 18.1084 0.0000
# 6 0.0000 0.0000 0.0000 0.0000 0.0000 41.2504
#
#
#
# Elastic Compliance Matrix: (Units=1/GPa)
#
#
# Indices 1 2 3 4 5 6 
#
# 1 0.013916 -0.004136 -0.007000 0.000000 0.000000 0.000000
# 2 -0.004136 0.014629 -0.036084 0.000000 0.000000 0.000000
# 3 -0.007000 -0.036084 0.194543 0.000000 0.000000 0.000000
# 4 0.000000 0.000000 0.000000 0.234419 0.000000 0.000000
# 5 0.000000 0.000000 0.000000 0.000000 0.055223 0.000000
# 6 0.000000 0.000000 0.000000 0.000000 0.000000 0.024242
#
#
# Mechanical properties :
#
#
# Convention : Reuss Voigt Hill
#
# Bulk Modulus (GPa) = 7.77304 58.39562 33.08433
# Shear Modulus (GPa) = 7.41516 23.79334 15.60425
#
# Velocity S-wave (km/s) = 2.04453 3.66235 2.96588
# Velocity P-wave (km/s) = 3.15520 7.12759 5.51171
#
# Compressibility (1/GPa) = 0.12864975
#
# Stress axis : x y z
#
# Youngs Moduli (GPa) = 71.85761 68.35897 5.14025
#
# Poissons Ratio (x) = 0.28270 0.03598
# Poissons Ratio (y) = 0.29717 0.18548
# Poissons Ratio (z) = 0.50300 2.46664
#
# Static dielectric constant tensor:
#      x y z
#    x 1.593130 0.000000 0.000000 
#    y 0.000000 1.652730 0.000000 
#    z 0.000000 0.000000 1.641780 
# 
# From -- ./inp_files/27424.got.cif
#   From: 2010.05.17/outbox.ucp.g08.bks.cvg/sg52_14_cif.got.tgz:27424.got - 2010.06.11 16:30:12.
