data_PCOD9414577
_publ_section_title
;
Structure prediction by ZEFSAII (Michael W. Deem and Ramdas Pophale) SiO2 
 PCOD9414577
Probable space group: P M N A
;
_chemical_formula_sum "Si O2"
_cell_formula_units_Z 40
_cell_length_a 19.256192
_cell_length_b 16.080344
_cell_length_c 5.494363
_cell_angle_alpha 90.000000
_cell_angle_beta 90.000000
_cell_angle_gamma 90.000000
_cell_volume 1701.308578
_symmetry_space_group_name_H-M "P M N A"
_symmetry_group_IT_number 53
_symmetry_cell_setting 'orthorhombic'
loop_
_space_group_symop_operation_xyz
x,y,z
1/2-x,-y,1/2+z
x,-y,-z
1/2-x,y,1/2-z
-x,-y,-z
1/2+x,y,1/2-z
-x,y,z
1/2+x,-y,1/2+z
loop_
_atom_site_type_symbol
_atom_site_label
_atom_site_fract_x
_atom_site_fract_y
_atom_site_fract_z
Si Si1 0.898013 0.281393 0.396908
Si Si2 0.080155 0.531925 0.747700
Si Si3 0.616417 0.772749 0.398434
Si Si4 0.247990 0.347613 0.000455
Si Si5 0.333927 0.953593 0.251462
O O1 0.920293 0.369444 0.283075
O O2 0.924995 0.268237 0.672140
O O3 0.815429 0.289112 0.456058
O O4 0.913807 0.218906 0.173713
O O5 0.114003 0.500000 0.500000
O O6 0.000000 0.500501 0.748855
O O7 0.111323 0.500000 0.000000
O O8 0.682336 0.713046 0.459351
O O9 0.638508 0.860478 0.284826
O O10 0.250000 0.396099 0.750000
O O11 0.250000 0.397655 0.250000
O O12 0.250000 0.950127 0.250000
O O13 0.354981 0.000000 0.500000
O O14 0.354920 0.000000 0.000000
#
# Coordination Sequence:
#
# PCOD9414577 Si02
#       5
#     8   8   8   8   8
#     4  10  18  30  51  71  92 127 166 197 239 295
#     4  10  21  37  55  76 102 126 153 203 268 316
#     4  10  18  30  47  70  99 132 168 201 235 280
#     4   8  15  25  42  64  89 120 158 190 222 267
#     4  10  19  28  41  65 100 137 168 200 240 282
#
# _framework density 23.511312
#
# number of rings (size 3 to 8) (size 9 to 14) (size 15 to 20)
#    0.000    2.400    0.000    4.200    0.000    5.600 
#    0.000    0.000    0.000   21.600    0.000    0.000 
#    0.000   16.000    0.000    0.000    0.000    0.000 
#
# Total GULP energy -222804.428541 kJ/mol
# GULP energy per Si atom -5570.110714 kJ/mol
# Density = 2.345780 g / cm^3
# Si number density = 23.511312 Si / 1000 Ang^3
#
#
#
# Elastic Constant Matrix: (Units=GPa)
#
#
# Indices 1 2 3 4 5 6 
#
# 1 72.0546 8.4029 27.1623 0.0000 0.0000 0.0000
# 2 8.4029 91.1761 61.3792 0.0000 0.0000 0.0000
# 3 27.1623 61.3792 328.1179 0.0000 0.0000 0.0000
# 4 0.0000 0.0000 0.0000 44.0538 0.0000 0.0000
# 5 0.0000 0.0000 0.0000 0.0000 -50.2440 0.0000
# 6 0.0000 0.0000 0.0000 0.0000 0.0000 49.9339
#
#
#
# Elastic Compliance Matrix: (Units=1/GPa)
#
#
# Indices 1 2 3 4 5 6 
#
# 1 0.014354 -0.000598 -0.001076 0.000000 0.000000 0.000000
# 2 -0.000598 0.012573 -0.002302 0.000000 0.000000 0.000000
# 3 -0.001076 -0.002302 0.003567 0.000000 0.000000 0.000000
# 4 0.000000 0.000000 0.000000 0.022700 0.000000 0.000000
# 5 0.000000 0.000000 0.000000 0.000000 -0.019903 0.000000
# 6 0.000000 0.000000 0.000000 0.000000 0.000000 0.020026
#
#
# Mechanical properties :
#
#
# Convention : Reuss Voigt Hill
#
# Bulk Modulus (GPa) = 44.36518 76.13749 60.25133
# Shear Modulus (GPa) = 72.69044 35.04236 53.86640
#
# Velocity S-wave (km/s) = 5.56636 3.86482 4.79172
# Velocity P-wave (km/s) = 7.76036 7.23667 7.50308
#
# Compressibility (1/GPa) = 0.02254020
#
# Stress axis : x y z
#
# Youngs Moduli (GPa) = 69.66760 79.53617 280.30949
#
# Poissons Ratio (x) = 0.04759 0.30170
# Poissons Ratio (y) = 0.04168 0.64539
# Poissons Ratio (z) = 0.07498 0.18313
#
# Static dielectric constant tensor:
#      x y z
#    x 4.501070 0.000000 0.000000 
#    y 0.000000 1.873760 0.000000 
#    z 0.000000 0.000000 2.087260 
# 
# From -- ./inp_files/3637.got.cif
#   From: 2010.05.17/outbox.cif.g08.bks.cpg/sg53_2_cif.got.tgz:3637.got - 2010.06.03 12:45:16.
