data_PCOD9414937
_publ_section_title
;
Structure prediction by ZEFSAII (Michael W. Deem and Ramdas Pophale) SiO2 
 PCOD9414937
Probable space group: P M N A
;
_chemical_formula_sum "Si O2"
_cell_formula_units_Z 64
_cell_length_a 23.789517
_cell_length_b 12.831732
_cell_length_c 11.611082
_cell_angle_alpha 90.000000
_cell_angle_beta 90.000000
_cell_angle_gamma 90.000000
_cell_volume 3544.407095
_symmetry_space_group_name_H-M "P M N A"
_symmetry_group_IT_number 53
_symmetry_cell_setting 'orthorhombic'
loop_
_space_group_symop_operation_xyz
x,y,z
1/2-x,-y,1/2+z
x,-y,-z
1/2-x,y,1/2-z
-x,-y,-z
1/2+x,y,1/2-z
-x,y,z
1/2+x,-y,1/2+z
loop_
_atom_site_type_symbol
_atom_site_label
_atom_site_fract_x
_atom_site_fract_y
_atom_site_fract_z
Si Si1 0.379254 0.177802 0.083748
Si Si2 0.361374 0.888652 0.561512
Si Si3 0.434687 0.298158 0.495578
Si Si4 0.933772 0.202844 0.654693
Si Si5 0.933209 0.417669 0.789472
Si Si6 0.564647 0.025259 0.235663
Si Si7 0.259476 0.075003 0.115524
Si Si8 0.065615 0.360990 0.272328
O O1 0.419931 0.081055 0.116703
O O2 0.316309 0.141685 0.112458
O O3 0.399051 0.278354 0.155495
O O4 0.391301 0.199798 0.951068
O O5 0.394504 0.801012 0.492098
O O6 0.396844 0.913776 0.675074
O O7 0.297534 0.860558 0.591840
O O8 0.359547 0.000000 0.500000
O O9 0.500000 0.271729 0.524849
O O10 0.415965 0.390746 0.580224
O O11 0.433505 0.330687 0.362518
O O12 0.925186 0.309885 0.722552
O O13 0.000000 0.200008 0.618175
O O14 0.924685 0.097667 0.728119
O O15 0.911211 0.520718 0.726608
O O16 0.000000 0.439133 0.795995
O O17 0.500000 0.042553 0.266138
O O18 0.250000 0.032468 0.250000
O O19 0.264395 0.000000 0.000000
O O20 0.000000 0.355712 0.311491
#
# Coordination Sequence:
#
# PCOD9414937 Si02
#       8
#     8   8   8   8   8   8   8   8
#     4  12  22  36  57  82 112 151 194 238 288 343
#     4  11  22  34  54  84 116 152 192 236 286 347
#     4  10  18  33  55  84 119 152 190 235 291 349
#     4  10  21  34  52  83 120 155 185 229 289 347
#     4   9  19  34  53  83 120 154 191 235 289 347
#     4  11  20  33  53  82 120 151 183 226 285 353
#     4  11  23  41  61  85 116 157 204 245 289 343
#     4  10  19  33  56  86 116 150 195 240 284 346
#
# _framework density 18.056618
#
# number of rings (size 3 to 8) (size 9 to 14) (size 15 to 20)
#    0.000    1.500    2.500    3.750    0.000    5.000 
#    0.000    1.875    0.000    0.000   16.250    0.000 
#    0.000    0.000    0.000    0.000    0.000    0.000 
#
# Total GULP energy -356766.146467 kJ/mol
# GULP energy per Si atom -5574.471039 kJ/mol
# Density = 1.801552 g / cm^3
# Si number density = 18.056618 Si / 1000 Ang^3
#
#
#
# Elastic Constant Matrix: (Units=GPa)
#
#
# Indices 1 2 3 4 5 6 
#
# 1 90.8955 51.6760 35.3597 0.0000 0.0000 0.0000
# 2 51.6760 114.4312 17.4892 0.0000 0.0000 0.0000
# 3 35.3597 17.4892 66.4534 0.0000 0.0000 0.0000
# 4 0.0000 0.0000 0.0000 17.6168 0.0000 0.0000
# 5 0.0000 0.0000 0.0000 0.0000 4.7642 0.0000
# 6 0.0000 0.0000 0.0000 0.0000 0.0000 4.2428
#
#
#
# Elastic Compliance Matrix: (Units=1/GPa)
#
#
# Indices 1 2 3 4 5 6 
#
# 1 0.017942 -0.006922 -0.007725 0.000000 0.000000 0.000000
# 2 -0.006922 0.011775 0.000584 0.000000 0.000000 0.000000
# 3 -0.007725 0.000584 0.019005 0.000000 0.000000 0.000000
# 4 0.000000 0.000000 0.000000 0.056764 0.000000 0.000000
# 5 0.000000 0.000000 0.000000 0.000000 0.209900 0.000000
# 6 0.000000 0.000000 0.000000 0.000000 0.000000 0.235693
#
#
# Mechanical properties :
#
#
# Convention : Reuss Voigt Hill
#
# Bulk Modulus (GPa) = 48.55199 53.42553 50.98876
# Shear Modulus (GPa) = 8.53139 16.47510 12.50325
#
# Velocity S-wave (km/s) = 2.17602 3.02390 2.63429
# Velocity P-wave (km/s) = 5.76719 6.46869 6.12799
#
# Compressibility (1/GPa) = 0.02059648
#
# Stress axis : x y z
#
# Youngs Moduli (GPa) = 55.73501 84.92270 52.61764
#
# Poissons Ratio (x) = 0.58781 0.40648
# Poissons Ratio (y) = 0.38578 -0.03073
# Poissons Ratio (z) = 0.43057 -0.04959
#
# Static dielectric constant tensor:
#      x y z
#    x 1.599650 0.000000 0.000000 
#    y 0.000000 1.647500 0.000000 
#    z 0.000000 0.000000 1.720560 
# 
# From -- ./inp_files/18480.got.cif
#   From: 2010.05.17/outbox.cif.g08.bks.cpg/sg53_10_cif.got.tgz:18480.got - 2010.06.03 12:45:16.
