data_PCOD9414810
_publ_section_title
;
Structure prediction by ZEFSAII (Michael W. Deem and Ramdas Pophale) SiO2 
 PCOD9414810
Probable space group: P M N A
;
_chemical_formula_sum "Si O2"
_cell_formula_units_Z 48
_cell_length_a 8.637707
_cell_length_b 15.882141
_cell_length_c 20.464675
_cell_angle_alpha 90.000000
_cell_angle_beta 90.000000
_cell_angle_gamma 90.000000
_cell_volume 2807.452180
_symmetry_space_group_name_H-M "P M N A"
_symmetry_group_IT_number 53
_symmetry_cell_setting 'orthorhombic'
loop_
_space_group_symop_operation_xyz
x,y,z
1/2-x,-y,1/2+z
x,-y,-z
1/2-x,y,1/2-z
-x,-y,-z
1/2+x,y,1/2-z
-x,y,z
1/2+x,-y,1/2+z
loop_
_atom_site_type_symbol
_atom_site_label
_atom_site_fract_x
_atom_site_fract_y
_atom_site_fract_z
Si Si1 0.813018 0.253163 0.892119
Si Si2 0.816122 0.928843 0.089186
Si Si3 0.814431 0.459434 0.070486
Si Si4 0.684040 0.108626 0.433875
Si Si5 0.316219 0.718308 0.962009
Si Si6 0.315433 0.414007 0.821378
O O1 0.758131 0.157156 0.877984
O O2 0.744644 0.322625 0.844422
O O3 0.000000 0.255191 0.890098
O O4 0.761277 0.276056 0.965979
O O5 0.000000 0.933540 0.102058
O O6 0.755665 0.023382 0.101094
O O7 0.800143 0.910591 0.011568
O O8 0.746018 0.365800 0.071719
O O9 0.746657 0.518660 0.126441
O O10 0.000000 0.456465 0.075686
O O11 0.775173 0.500000 0.000000
O O12 0.500000 0.118525 0.421444
O O13 0.768881 0.196697 0.423748
O O14 0.500000 0.714552 0.970016
O O15 0.250000 0.433019 0.750000
O O16 0.500000 0.414563 0.820904
#
# Coordination Sequence:
#
# PCOD9414810 Si02
#       6
#     8   8   8   8   8   8
#     4  10  18  32  51  73 101 137 177 216 260 312
#     4   7  12  23  43  66  93 131 171 207 248 300
#     4  11  22  37  58  79 103 139 182 225 272 322
#     4   8  13  25  42  64  96 134 171 208 252 304
#     4  11  20  29  46  75 107 138 173 217 268 319
#     4  12  25  40  57  79 108 140 177 221 270 324
#
# _framework density 17.097352999999998
#
# number of rings (size 3 to 8) (size 9 to 14) (size 15 to 20)
#    0.000    2.167    1.667    6.000    0.000    0.667 
#    0.000    7.500    0.000    0.000    0.000    1.167 
#    0.000    2.667    0.000    0.000    0.000    0.000 
#
# Total GULP energy -267545.159914 kJ/mol
# GULP energy per Si atom -5573.857498 kJ/mol
# Density = 1.705844 g / cm^3
# Si number density = 17.097353 Si / 1000 Ang^3
#
#
#
# Elastic Constant Matrix: (Units=GPa)
#
#
# Indices 1 2 3 4 5 6 
#
# 1 72.9732 57.4430 28.9731 0.0000 0.0000 0.0000
# 2 57.4430 176.0348 53.9324 0.0000 0.0000 0.0000
# 3 28.9731 53.9324 66.3804 0.0000 0.0000 0.0000
# 4 0.0000 0.0000 0.0000 8.8361 0.0000 0.0000
# 5 0.0000 0.0000 0.0000 0.0000 18.7432 0.0000
# 6 0.0000 0.0000 0.0000 0.0000 0.0000 25.1343
#
#
#
# Elastic Compliance Matrix: (Units=1/GPa)
#
#
# Indices 1 2 3 4 5 6 
#
# 1 0.019367 -0.004966 -0.004418 0.000000 0.000000 0.000000
# 2 -0.004966 0.008837 -0.005012 0.000000 0.000000 0.000000
# 3 -0.004418 -0.005012 0.021065 0.000000 0.000000 0.000000
# 4 0.000000 0.000000 0.000000 0.113172 0.000000 0.000000
# 5 0.000000 0.000000 0.000000 0.000000 0.053353 0.000000
# 6 0.000000 0.000000 0.000000 0.000000 0.000000 0.039786
#
#
# Mechanical properties :
#
#
# Convention : Reuss Voigt Hill
#
# Bulk Modulus (GPa) = 48.83724 66.23170 57.53447
# Shear Modulus (GPa) = 17.17041 22.21206 19.69123
#
# Velocity S-wave (km/s) = 3.17246 3.60829 3.39737
# Velocity P-wave (km/s) = 6.48426 7.49545 7.00811
#
# Compressibility (1/GPa) = 0.02047618
#
# Stress axis : x y z
#
# Youngs Moduli (GPa) = 51.63381 113.16306 47.47131
#
# Poissons Ratio (x) = 0.56199 0.20974
# Poissons Ratio (y) = 0.25642 0.23793
# Poissons Ratio (z) = 0.22813 0.56718
#
# Static dielectric constant tensor:
#      x y z
#    x 1.565570 0.000000 0.000000 
#    y 0.000000 1.634290 0.000000 
#    z 0.000000 0.000000 1.592580 
# 
# From -- ./inp_files/26258.got.cif
#   From: 2010.05.17/outbox.cif.g08.bks.cpg/sg53_14_cif.got.tgz:26258.got - 2010.06.03 12:45:16.
