data_PCOD9414091
_publ_section_title
;
Structure prediction by ZEFSAII (Michael W. Deem and Ramdas Pophale) SiO2 
 PCOD9414091
Probable space group: P M N A
;
_chemical_formula_sum "Si O2"
_cell_formula_units_Z 56
_cell_length_a 20.352543
_cell_length_b 7.043466
_cell_length_c 15.766191
_cell_angle_alpha 90.000000
_cell_angle_beta 90.000000
_cell_angle_gamma 90.000000
_cell_volume 2260.122022
_symmetry_space_group_name_H-M "P M N A"
_symmetry_group_IT_number 53
_symmetry_cell_setting 'orthorhombic'
loop_
_space_group_symop_operation_xyz
x,y,z
1/2-x,-y,1/2+z
x,-y,-z
1/2-x,y,1/2-z
-x,-y,-z
1/2+x,y,1/2-z
-x,y,z
1/2+x,-y,1/2+z
loop_
_atom_site_type_symbol
_atom_site_label
_atom_site_fract_x
_atom_site_fract_y
_atom_site_fract_z
Si Si1 0.000000 0.624446 0.566134
Si Si2 0.072600 0.186270 0.814124
Si Si3 0.500000 0.870220 0.063771
Si Si4 0.639396 0.147855 0.844129
Si Si5 0.122863 0.229816 0.993415
Si Si6 0.359187 0.296056 0.153671
Si Si7 0.924836 0.724667 0.822850
Si Si8 0.274845 0.232373 0.993735
O O1 0.000000 0.379412 0.542706
O O2 0.000000 0.876254 0.542304
O O3 0.070177 0.642408 0.614067
O O4 0.128600 0.236887 0.747358
O O5 0.000000 0.239280 0.783769
O O6 0.074156 0.955937 0.816961
O O7 0.084984 0.268022 0.906607
O O8 0.568295 0.867873 0.112602
O O9 0.685535 0.262419 0.906775
O O10 0.658027 0.928402 0.835163
O O11 0.093525 0.312304 0.079697
O O12 0.199005 0.281925 0.986572
O O13 0.120281 0.000000 0.000000
O O14 0.372537 0.347571 0.252954
O O15 0.308424 0.330260 0.075377
O O16 0.000000 0.664933 0.804119
O O17 0.279340 0.000000 0.000000
#
# Coordination Sequence:
#
# PCOD9414091 Si02
#       8
#     4   8   4   8   8   8   8   8
#     4  12  22  30  46  75 107 125 153 210 254 281
#     4   9  16  24  38  61  91 124 168 203 239 289
#     4  12  16  28  50  67  97 129 157 190 232 299
#     4  10  16  25  46  67  86 131 165 189 230 302
#     4   9  17  27  35  58  98 131 158 203 251 287
#     4  10  17  29  44  66  92 124 164 193 237 301
#     4   9  16  25  42  58  86 132 166 196 244 296
#     4   9  17  26  40  61  92 127 158 191 241 296
#
# _framework density 24.777425000000001
#
# number of rings (size 3 to 8) (size 9 to 14) (size 15 to 20)
#    0.000    2.286    4.286    0.857    0.000    2.857 
#    0.000    5.714    0.000    0.000    0.000    0.000 
#    8.571    1.286    0.000    0.000    0.000    0.000 
#
# Total GULP energy -312494.942337 kJ/mol
# GULP energy per Si atom -5580.266827 kJ/mol
# Density = 2.472103 g / cm^3
# Si number density = 24.777425 Si / 1000 Ang^3
#
#
#
# Elastic Constant Matrix: (Units=GPa)
#
#
# Indices 1 2 3 4 5 6 
#
# 1 67.6212 -8.2460 29.3848 0.0000 0.0000 0.0000
# 2 -8.2460 158.4919 9.6396 0.0000 0.0000 0.0000
# 3 29.3848 9.6396 155.0761 0.0000 0.0000 0.0000
# 4 0.0000 0.0000 0.0000 -14.9970 0.0000 0.0000
# 5 0.0000 0.0000 0.0000 0.0000 19.7927 0.0000
# 6 0.0000 0.0000 0.0000 0.0000 0.0000 -22.0547
#
#
#
# Elastic Compliance Matrix: (Units=1/GPa)
#
#
# Indices 1 2 3 4 5 6 
#
# 1 0.016284 0.001039 -0.003150 0.000000 0.000000 0.000000
# 2 0.001039 0.006400 -0.000595 0.000000 0.000000 0.000000
# 3 -0.003150 -0.000595 0.007082 0.000000 0.000000 0.000000
# 4 0.000000 0.000000 0.000000 -0.066680 0.000000 0.000000
# 5 0.000000 0.000000 0.000000 0.000000 0.050524 0.000000
# 6 0.000000 0.000000 0.000000 0.000000 0.000000 -0.045342
#
#
# Mechanical properties :
#
#
# Convention : Reuss Voigt Hill
#
# Bulk Modulus (GPa) = 41.06124 49.19402 45.12763
# Shear Modulus (GPa) = -274.69081 19.90891 -127.39095
#
# Velocity S-wave (km/s) = -10.54059 2.83770 -7.17814
# Velocity P-wave (km/s) = 11.46868 5.53482 7.10269
#
# Compressibility (1/GPa) = 0.02435386
#
# Stress axis : x y z
#
# Youngs Moduli (GPa) = 61.41062 156.25774 141.19663
#
# Poissons Ratio (x) = -0.16232 0.44479
# Poissons Ratio (y) = -0.06379 0.08396
# Poissons Ratio (z) = 0.19345 0.09292
#
# Static dielectric constant tensor:
#      x y z
#    x 1.836110 0.000000 0.000000 
#    y 0.000000 2.206440 0.000000 
#    z 0.000000 0.000000 1.968520 
# 
# From -- ./inp_files/24399.got.cif
#   From: 2010.05.17/outbox.cif.g08.bks.cpg/sg53_13_cif.got.tgz:24399.got - 2010.06.03 12:45:16.
