data_PCOD9414184
_publ_section_title
;
Structure prediction by ZEFSAII (Michael W. Deem and Ramdas Pophale) SiO2 
 PCOD9414184
Probable space group: P M N A
;
_chemical_formula_sum "Si O2"
_cell_formula_units_Z 64
_cell_length_a 8.745366
_cell_length_b 18.593873
_cell_length_c 23.703127
_cell_angle_alpha 90.000000
_cell_angle_beta 90.000000
_cell_angle_gamma 90.000000
_cell_volume 3854.370809
_symmetry_space_group_name_H-M "P M N A"
_symmetry_group_IT_number 53
_symmetry_cell_setting 'orthorhombic'
loop_
_space_group_symop_operation_xyz
x,y,z
1/2-x,-y,1/2+z
x,-y,-z
1/2-x,y,1/2-z
-x,-y,-z
1/2+x,y,1/2-z
-x,y,z
1/2+x,-y,1/2+z
loop_
_atom_site_type_symbol
_atom_site_label
_atom_site_fract_x
_atom_site_fract_y
_atom_site_fract_z
Si Si1 0.315510 0.416039 0.004662
Si Si2 0.182693 0.077814 0.686688
Si Si3 0.183173 0.635065 0.110352
Si Si4 0.182644 0.932491 0.813862
Si Si5 0.183766 0.783920 0.686745
Si Si6 0.683997 0.634280 0.870790
Si Si7 0.682585 0.502387 0.310633
Si Si8 0.682944 0.761125 0.186615
O O1 0.500000 0.413768 0.000934
O O2 0.246357 0.372493 0.952611
O O3 0.268633 0.500000 0.000000
O O4 0.269545 0.384078 0.065219
O O5 0.250000 0.080548 0.750000
O O6 0.216281 0.157800 0.664337
O O7 0.000000 0.068224 0.689076
O O8 0.257259 0.006976 0.659418
O O9 0.228929 0.562396 0.143796
O O10 0.249133 0.701817 0.145207
O O11 0.000000 0.639100 0.109681
O O12 0.250000 0.932504 0.750000
O O13 0.246648 0.857754 0.837880
O O14 0.000000 0.932058 0.811795
O O15 0.250000 0.774011 0.750000
O O16 0.223239 0.714142 0.649903
O O17 0.000000 0.790628 0.690430
O O18 0.500000 0.627188 0.867521
O O19 0.756614 0.574718 0.830291
O O20 0.750000 0.521695 0.250000
O O21 0.500000 0.500983 0.307257
O O22 0.750000 0.753329 0.250000
O O23 0.500000 0.753697 0.190434
#
# Coordination Sequence:
#
# PCOD9414184 Si02
#       8
#     8   8   8   8   8   8   8   8
#     4  10  20  37  59  76  95 127 168 216 260 303
#     4   9  16  27  44  68  98 132 167 201 242 290
#     4  11  23  36  52  75 101 133 170 211 255 300
#     4  10  17  26  43  67  97 133 168 198 239 290
#     4  10  19  31  47  70 102 132 165 203 245 297
#     4  10  21  36  54  75  97 129 168 208 256 301
#     4  11  23  35  50  72 100 132 165 202 247 300
#     4  10  20  33  51  75 105 138 170 208 252 302
#
# _framework density 16.604527000000001
#
# number of rings (size 3 to 8) (size 9 to 14) (size 15 to 20)
#    0.000    1.875    1.250    5.250    0.000    6.750 
#    0.000    0.000    0.000    0.000    0.000    0.875 
#    0.000    7.000    0.000    0.000    0.000    0.000 
#
# Total GULP energy -357058.044588 kJ/mol
# GULP energy per Si atom -5579.031947 kJ/mol
# Density = 1.656673 g / cm^3
# Si number density = 16.604527 Si / 1000 Ang^3
#
#
#
# Elastic Constant Matrix: (Units=GPa)
#
#
# Indices 1 2 3 4 5 6 
#
# 1 49.9508 38.3069 12.8068 0.0000 0.0000 0.0000
# 2 38.3069 120.4803 17.1375 0.0000 0.0000 0.0000
# 3 12.8068 17.1375 53.8582 0.0000 0.0000 0.0000
# 4 0.0000 0.0000 0.0000 3.0025 0.0000 0.0000
# 5 0.0000 0.0000 0.0000 0.0000 20.7978 0.0000
# 6 0.0000 0.0000 0.0000 0.0000 0.0000 22.0623
#
#
#
# Elastic Compliance Matrix: (Units=1/GPa)
#
#
# Indices 1 2 3 4 5 6 
#
# 1 0.027234 -0.008105 -0.003897 0.000000 0.000000 0.000000
# 2 -0.008105 0.011106 -0.001607 0.000000 0.000000 0.000000
# 3 -0.003897 -0.001607 0.020005 0.000000 0.000000 0.000000
# 4 0.000000 0.000000 0.000000 0.333058 0.000000 0.000000
# 5 0.000000 0.000000 0.000000 0.000000 0.048082 0.000000
# 6 0.000000 0.000000 0.000000 0.000000 0.000000 0.045326
#
#
# Mechanical properties :
#
#
# Convention : Reuss Voigt Hill
#
# Bulk Modulus (GPa) = 32.12523 40.08799 36.10661
# Shear Modulus (GPa) = 9.57114 19.57507 14.57310
#
# Velocity S-wave (km/s) = 2.40347 3.43724 2.96574
# Velocity P-wave (km/s) = 5.20495 6.32044 5.78963
#
# Compressibility (1/GPa) = 0.03112819
#
# Stress axis : x y z
#
# Youngs Moduli (GPa) = 36.71820 90.04466 49.98720
#
# Poissons Ratio (x) = 0.72980 0.19480
# Poissons Ratio (y) = 0.29760 0.08030
# Poissons Ratio (z) = 0.14309 0.14466
#
# Static dielectric constant tensor:
#      x y z
#    x 1.566920 0.000000 0.000000 
#    y 0.000000 1.600330 0.000000 
#    z 0.000000 0.000000 1.525410 
# 
# From -- ./inp_files/34447.got.cif
#   From: 2010.05.17/outbox.cif.g08.bks.cpg/sg53_18_cif.got.tgz:34447.got - 2010.06.03 12:45:16.
