data_PCOD9414026
_publ_section_title
;
Structure prediction by ZEFSAII (Michael W. Deem and Ramdas Pophale) SiO2 
 PCOD9414026
Probable space group: P N N A
;
_chemical_formula_sum "Si O2"
_cell_formula_units_Z 48
_cell_length_a 30.000000
_cell_length_b 9.000000
_cell_length_c 9.000000
_cell_angle_alpha 90.000000
_cell_angle_beta 90.000000
_cell_angle_gamma 90.000000
_cell_volume 2430.000000
_symmetry_space_group_name_H-M "P N N A"
_symmetry_group_IT_number 52
_symmetry_cell_setting 'orthorhombic'
loop_
_space_group_symop_operation_xyz
x,y,z
1/2-x,-y,z
x,1/2-y,1/2-z
1/2-x,1/2+y,1/2-z
-x,-y,-z
1/2+x,y,-z
-x,1/2+y,1/2+z
1/2+x,1/2-y,1/2+z
loop_
_atom_site_type_symbol
_atom_site_label
_atom_site_fract_x
_atom_site_fract_y
_atom_site_fract_z
Si Si1 0.211347 0.250000 0.250000
Si Si2 0.303022 0.493876 0.067859
Si Si3 0.010065 0.250000 0.750000
Si Si4 0.175876 0.571687 0.728910
Si Si5 0.750000 0.000000 0.976703
Si Si6 0.433089 0.242059 0.008277
Si Si7 0.358629 0.250000 0.250000
Si Si8 0.576842 0.522797 0.241039
O O1 0.181838 0.352929 0.142693
O O2 0.237393 0.140305 0.131178
O O3 0.250000 0.500000 0.092450
O O4 0.327329 0.366963 0.163645
O O5 0.307858 0.480184 0.891455
O O6 0.042884 0.388831 0.762784
O O7 0.976974 0.249226 0.891245
O O8 0.169045 0.750000 0.750000
O O9 0.209301 0.540508 0.590948
O O10 0.128030 0.493638 0.712385
O O11 0.392290 0.197283 0.118360
O O12 0.422034 0.394625 0.919564
O O13 0.439482 0.129588 0.873127
#
# Coordination Sequence:
#
# PCOD9414026 Si02
#       8
#     4   8   4   8   4   8   4   8
#     4  12  29  42  67 100 140 188 234 301 336 403
#     4  12  24  43  66 100 136 183 241 283 343 398
#     4  11  24  40  71 102 136 166 222 295 345 406
#     4  12  25  46  76 100 140 194 238 283 344 425
#     4  12  30  48  72 100 144 194 238 286 350 398
#     4  10  22  44  70  96 132 184 222 276 355 428
#     4  11  23  44  72  96 136 186 238 284 341 415
#     4  11  22  43  69 103 133 175 230 279 347 424
#
# _framework density 19.753086
#
# number of rings (size 3 to 8) (size 9 to 14) (size 15 to 20)
#    0.000    0.667    5.000    2.500    4.667    1.333 
#    0.000    0.000    0.000    0.000    0.000    0.000 
#    0.000    0.000    0.000    0.000    0.000    0.000 
#
# Total GULP energy -267889.720262 kJ/mol
# GULP energy per Si atom -5581.035839 kJ/mol
# Density = 1.970813 g / cm^3
# Si number density = 19.753086 Si / 1000 Ang^3
#
#
#
# Elastic Constant Matrix: (Units=GPa)
#
#
# Indices 1 2 3 4 5 6 
#
# 1 143.3700 43.3534 53.7479 0.0000 0.0000 0.0000
# 2 43.3534 76.4317 50.8040 0.0000 0.0000 0.0000
# 3 53.7479 50.8040 168.7201 0.0000 0.0000 0.0000
# 4 0.0000 0.0000 0.0000 33.0031 0.0000 0.0000
# 5 0.0000 0.0000 0.0000 0.0000 38.3884 0.0000
# 6 0.0000 0.0000 0.0000 0.0000 0.0000 25.9367
#
#
#
# Elastic Compliance Matrix: (Units=1/GPa)
#
#
# Indices 1 2 3 4 5 6 
#
# 1 0.008759 -0.003893 -0.001618 0.000000 0.000000 0.000000
# 2 -0.003893 0.018087 -0.004206 0.000000 0.000000 0.000000
# 3 -0.001618 -0.004206 0.007709 0.000000 0.000000 0.000000
# 4 0.000000 0.000000 0.000000 0.030300 0.000000 0.000000
# 5 0.000000 0.000000 0.000000 0.000000 0.026050 0.000000
# 6 0.000000 0.000000 0.000000 0.000000 0.000000 0.038555
#
#
# Mechanical properties :
#
#
# Convention : Reuss Voigt Hill
#
# Bulk Modulus (GPa) = 66.13245 76.03695 71.08470
# Shear Modulus (GPa) = 32.48135 35.50675 33.99405
#
# Velocity S-wave (km/s) = 4.05948 4.24433 4.15293
# Velocity P-wave (km/s) = 7.45149 7.91179 7.68509
#
# Compressibility (1/GPa) = 0.01512117
#
# Stress axis : x y z
#
# Youngs Moduli (GPa) = 114.17337 55.28691 129.71793
#
# Poissons Ratio (x) = 0.21520 0.20989
# Poissons Ratio (y) = 0.44442 0.54564
# Poissons Ratio (z) = 0.18474 0.23256
#
# Static dielectric constant tensor:
#      x y z
#    x 1.709660 0.000000 0.000000 
#    y 0.000000 1.797530 0.000000 
#    z 0.000000 0.000000 1.689180 
# 
# From -- ./inp_files/15638.got.cif
#   From: 2010.05.17/outbox.ucp.g08.bks.cvg/sg52_8_cif.got.tgz:15638.got - 2010.06.11 16:30:12.
