data_PCOD9414644
_publ_section_title
;
Structure prediction by ZEFSAII (Michael W. Deem and Ramdas Pophale) SiO2 
 PCOD9414644
Probable space group: P M N A
;
_chemical_formula_sum "Si O2"
_cell_formula_units_Z 64
_cell_length_a 8.889770
_cell_length_b 22.423494
_cell_length_c 18.487944
_cell_angle_alpha 90.000000
_cell_angle_beta 90.000000
_cell_angle_gamma 90.000000
_cell_volume 3685.381289
_symmetry_space_group_name_H-M "P M N A"
_symmetry_group_IT_number 53
_symmetry_cell_setting 'orthorhombic'
loop_
_space_group_symop_operation_xyz
x,y,z
1/2-x,-y,1/2+z
x,-y,-z
1/2-x,y,1/2-z
-x,-y,-z
1/2+x,y,1/2-z
-x,y,z
1/2+x,-y,1/2+z
loop_
_atom_site_type_symbol
_atom_site_label
_atom_site_fract_x
_atom_site_fract_y
_atom_site_fract_z
Si Si1 0.680832 0.687919 0.462544
Si Si2 0.821142 0.120868 0.591912
Si Si3 0.320814 0.232545 0.672329
Si Si4 0.680663 0.372681 0.325557
Si Si5 0.819691 0.257867 0.394470
Si Si6 0.819846 0.125803 0.420490
Si Si7 0.826769 0.002569 0.087965
Si Si8 0.682226 0.563814 0.526632
O O1 0.500000 0.694066 0.475152
O O2 0.716187 0.715570 0.385159
O O3 0.767070 0.723894 0.524903
O O4 0.719944 0.618558 0.473404
O O5 0.741199 0.171295 0.638584
O O6 0.784185 0.130157 0.506586
O O7 0.000000 0.125710 0.599619
O O8 0.766346 0.054802 0.613043
O O9 0.250000 0.243486 0.750000
O O10 0.500000 0.228708 0.678469
O O11 0.750000 0.392820 0.250000
O O12 0.500000 0.371656 0.322336
O O13 0.740657 0.306239 0.343444
O O14 0.727866 0.414380 0.393234
O O15 0.777570 0.188585 0.384076
O O16 0.000000 0.263048 0.388579
O O17 0.740621 0.066572 0.391202
O O18 0.000000 0.118478 0.415296
O O19 0.000000 0.997348 0.109909
O O20 0.820720 0.000000 0.000000
O O21 0.740089 0.500000 0.500000
O O22 0.500000 0.560207 0.528440
#
# Coordination Sequence:
#
# PCOD9414644 Si02
#       8
#     8   8   8   8   8   8   8   8
#     4   9  18  32  51  75 102 134 173 216 259 307
#     4  10  18  31  48  67  95 129 168 214 265 315
#     4  11  22  34  49  70  99 134 177 222 268 319
#     4  10  20  34  53  79 109 142 177 215 259 308
#     4  10  18  30  51  77 104 135 170 212 261 311
#     4   9  17  28  45  71  99 129 164 207 261 314
#     4   9  17  27  42  67  96 127 162 205 256 307
#     4   8  15  31  56  82 106 137 176 213 253 303
#
# _framework density 17.365908999999998
#
# number of rings (size 3 to 8) (size 9 to 14) (size 15 to 20)
#    0.000    2.500    1.250    2.625    0.000    3.500 
#    0.000    0.625    0.000   10.125    0.000    1.750 
#    0.000    0.000    0.000    0.000    0.000    0.000 
#
# Total GULP energy -356852.206825 kJ/mol
# GULP energy per Si atom -5575.815732 kJ/mol
# Density = 1.732638 g / cm^3
# Si number density = 17.365909 Si / 1000 Ang^3
#
#
#
# Elastic Constant Matrix: (Units=GPa)
#
#
# Indices 1 2 3 4 5 6 
#
# 1 40.3435 35.7299 33.0128 0.0000 0.0000 0.0000
# 2 35.7299 148.6435 53.6280 0.0000 0.0000 0.0000
# 3 33.0128 53.6280 84.7980 0.0000 0.0000 0.0000
# 4 0.0000 0.0000 0.0000 11.3502 0.0000 0.0000
# 5 0.0000 0.0000 0.0000 0.0000 23.7798 0.0000
# 6 0.0000 0.0000 0.0000 0.0000 0.0000 12.7562
#
#
#
# Elastic Compliance Matrix: (Units=1/GPa)
#
#
# Indices 1 2 3 4 5 6 
#
# 1 0.039110 -0.005063 -0.012024 0.000000 0.000000 0.000000
# 2 -0.005063 0.009372 -0.003956 0.000000 0.000000 0.000000
# 3 -0.012024 -0.003956 0.018976 0.000000 0.000000 0.000000
# 4 0.000000 0.000000 0.000000 0.088104 0.000000 0.000000
# 5 0.000000 0.000000 0.000000 0.000000 0.042052 0.000000
# 6 0.000000 0.000000 0.000000 0.000000 0.000000 0.078393
#
#
# Mechanical properties :
#
#
# Convention : Reuss Voigt Hill
#
# Bulk Modulus (GPa) = 39.41380 57.61405 48.51392
# Shear Modulus (GPa) = 15.31156 19.67153 17.49154
#
# Velocity S-wave (km/s) = 2.97257 3.36931 3.17714
# Velocity P-wave (km/s) = 5.87596 6.95593 6.43863
#
# Compressibility (1/GPa) = 0.02537182
#
# Stress axis : x y z
#
# Youngs Moduli (GPa) = 25.56862 106.70441 52.69925
#
# Poissons Ratio (x) = 0.54024 0.63367
# Poissons Ratio (y) = 0.12945 0.20847
# Poissons Ratio (z) = 0.30744 0.42210
#
# Static dielectric constant tensor:
#      x y z
#    x 1.576900 0.000000 0.000000 
#    y 0.000000 1.594280 0.000000 
#    z 0.000000 0.000000 1.584910 
# 
# From -- ./inp_files/26943.got.cif
#   From: 2010.05.17/outbox.cif.g08.bks.cpg/sg53_14_cif.got.tgz:26943.got - 2010.06.03 12:45:16.
