data_PCOD9414322
_publ_section_title
;
Structure prediction by ZEFSAII (Michael W. Deem and Ramdas Pophale) SiO2 
 PCOD9414322
Probable space group: P M N A
;
_chemical_formula_sum "Si O2"
_cell_formula_units_Z 52
_cell_length_a 15.800418
_cell_length_b 5.358152
_cell_length_c 31.740569
_cell_angle_alpha 90.000000
_cell_angle_beta 90.000000
_cell_angle_gamma 90.000000
_cell_volume 2687.189623
_symmetry_space_group_name_H-M "P M N A"
_symmetry_group_IT_number 53
_symmetry_cell_setting 'orthorhombic'
loop_
_space_group_symop_operation_xyz
x,y,z
1/2-x,-y,1/2+z
x,-y,-z
1/2-x,y,1/2-z
-x,-y,-z
1/2+x,y,1/2-z
-x,y,z
1/2+x,-y,1/2+z
loop_
_atom_site_type_symbol
_atom_site_label
_atom_site_fract_x
_atom_site_fract_y
_atom_site_fract_z
Si Si1 0.101788 0.627511 0.715417
Si Si2 0.406741 0.675782 0.431436
Si Si3 0.897473 0.126810 0.764480
Si Si4 0.792105 0.425670 0.366902
Si Si5 0.338283 0.000000 0.500000
Si Si6 0.817189 0.924180 0.143702
Si Si7 0.242254 0.374367 0.454421
O O1 0.129478 0.385993 0.742548
O O2 0.137611 0.608427 0.668560
O O3 0.000000 0.626117 0.714649
O O4 0.129390 0.886295 0.737144
O O5 0.500000 0.568556 0.425290
O O6 0.398281 0.807851 0.476691
O O7 0.384470 0.864908 0.393514
O O8 0.329015 0.487704 0.435382
O O9 0.861065 0.099867 0.811094
O O10 0.000000 0.127100 0.766525
O O11 0.750215 0.697325 0.359974
O O12 0.821330 0.405126 0.415856
O O13 0.726655 0.194050 0.360675
O O14 0.272516 0.902402 0.534932
O O15 0.223185 0.500000 0.500000
#
# Coordination Sequence:
#
# PCOD9414322 Si02
#       7
#     8   8   8   8   4   8   8
#     4  10  22  39  60  82 108 142 180 225 281 333
#     4  10  20  32  48  74 107 147 188 225 258 306
#     4  10  21  38  56  82 116 150 182 219 268 322
#     4  11  22  38  57  83 110 140 186 230 269 329
#     4  10  17  34  50  70 103 142 184 226 263 314
#     4  11  22  36  55  82 114 148 185 224 268 313
#     4   9  20  35  52  75 107 144 185 224 280 323
#
# _framework density 19.35107
#
# number of rings (size 3 to 8) (size 9 to 14) (size 15 to 20)
#    0.000    1.846    1.538    2.538    0.000    7.077 
#    0.000    1.538    0.000    0.462    0.000    0.538 
#    0.000    0.000    0.000    0.000    0.000    0.000 
#
# Total GULP energy -289930.403339 kJ/mol
# GULP energy per Si atom -5575.584680 kJ/mol
# Density = 1.930703 g / cm^3
# Si number density = 19.351070 Si / 1000 Ang^3
#
#
#
# Elastic Constant Matrix: (Units=GPa)
#
#
# Indices 1 2 3 4 5 6 
#
# 1 6.6535 4.6294 15.2612 0.0000 0.0000 0.0000
# 2 4.6294 85.8507 17.1467 0.0000 0.0000 0.0000
# 3 15.2612 17.1467 132.4488 0.0000 0.0000 0.0000
# 4 0.0000 0.0000 0.0000 35.7803 0.0000 0.0000
# 5 0.0000 0.0000 0.0000 0.0000 16.5079 0.0000
# 6 0.0000 0.0000 0.0000 0.0000 0.0000 8.0084
#
#
#
# Elastic Compliance Matrix: (Units=1/GPa)
#
#
# Indices 1 2 3 4 5 6 
#
# 1 0.207865 -0.006596 -0.023097 0.000000 0.000000 0.000000
# 2 -0.006596 0.012167 -0.000815 0.000000 0.000000 0.000000
# 3 -0.023097 -0.000815 0.010317 0.000000 0.000000 0.000000
# 4 0.000000 0.000000 0.000000 0.027948 0.000000 0.000000
# 5 0.000000 0.000000 0.000000 0.000000 0.060577 0.000000
# 6 0.000000 0.000000 0.000000 0.000000 0.000000 0.124869
#
#
# Mechanical properties :
#
#
# Convention : Reuss Voigt Hill
#
# Bulk Modulus (GPa) = 5.90554 33.22527 19.56541
# Shear Modulus (GPa) = 8.90945 24.58704 16.74824
#
# Velocity S-wave (km/s) = 2.14805 3.56838 2.94512
# Velocity P-wave (km/s) = 3.03489 5.84678 4.65808
#
# Compressibility (1/GPa) = 0.16933252
#
# Stress axis : x y z
#
# Youngs Moduli (GPa) = 4.81082 82.19225 96.92822
#
# Poissons Ratio (x) = 0.54212 2.23875
# Poissons Ratio (y) = 0.03173 0.07901
# Poissons Ratio (z) = 0.11112 0.06699
#
# Static dielectric constant tensor:
#      x y z
#    x 1.671320 0.000000 0.000000 
#    y 0.000000 1.722970 0.000000 
#    z 0.000000 0.000000 1.724480 
# 
# From -- ./inp_files/37134.got.cif
#   From: 2010.05.17/outbox.cif.g08.bks.cpg/sg53_19_cif.got.tgz:37134.got - 2010.06.03 12:45:16.
