data_PCOD9414064
_publ_section_title
;
Structure prediction by ZEFSAII (Michael W. Deem and Ramdas Pophale) SiO2 
 PCOD9414064
Probable space group: P M N A
;
_chemical_formula_sum "Si O2"
_cell_formula_units_Z 44
_cell_length_a 16.255793
_cell_length_b 8.875550
_cell_length_c 16.495542
_cell_angle_alpha 90.000000
_cell_angle_beta 90.000000
_cell_angle_gamma 90.000000
_cell_volume 2379.962013
_symmetry_space_group_name_H-M "P M N A"
_symmetry_group_IT_number 53
_symmetry_cell_setting 'orthorhombic'
loop_
_space_group_symop_operation_xyz
x,y,z
1/2-x,-y,1/2+z
x,-y,-z
1/2-x,y,1/2-z
-x,-y,-z
1/2+x,y,1/2-z
-x,y,z
1/2+x,-y,1/2+z
loop_
_atom_site_type_symbol
_atom_site_label
_atom_site_fract_x
_atom_site_fract_y
_atom_site_fract_z
Si Si1 0.838283 0.843844 0.266242
Si Si2 0.000000 0.616114 0.783151
Si Si3 0.322979 0.515418 0.315586
Si Si4 0.000000 0.158922 0.444873
Si Si5 0.500000 0.035729 0.230364
Si Si6 0.743788 0.500000 0.500000
Si Si7 0.500000 0.496057 0.888773
Si Si8 0.864185 0.733751 0.446644
O O1 0.750000 0.919369 0.250000
O O2 0.839979 0.686940 0.215551
O O3 0.837881 0.804815 0.361872
O O4 0.917894 0.943893 0.247253
O O5 0.909025 0.576804 0.816887
O O6 0.000000 0.503541 0.706557
O O7 0.000000 0.794292 0.763940
O O8 0.250000 0.464618 0.250000
O O9 0.295607 0.511193 0.409868
O O10 0.000000 0.331761 0.414047
O O11 0.920008 0.156484 0.500798
O O12 0.000000 0.053976 0.367325
O O13 0.795029 0.655955 0.500454
O O14 0.578129 0.406161 0.919841
#
# Coordination Sequence:
#
# PCOD9414064 Si02
#       8
#     8   4   8   4   4   4   4   8
#     4  11  22  41  62  89 127 176 209 250 326 398
#     4  11  22  40  61  94 126 165 220 270 304 373
#     4  11  23  40  71  98 123 166 223 274 329 374
#     4  10  21  30  57  92 125 158 196 254 347 387
#     4  11  26  41  62  91 136 179 212 260 324 408
#     4  12  20  36  64 102 126 154 214 287 318 371
#     4  10  15  28  58  90 120 150 180 264 336 369
#     4  11  18  33  61  95 129 150 203 275 334 382
#
# _framework density 18.487690000000001
#
# number of rings (size 3 to 8) (size 9 to 14) (size 15 to 20)
#    0.000    1.091    7.273    2.182    2.545    2.545 
#    0.000    0.000    0.000    2.182    0.000    0.000 
#    0.000    0.000    0.000    0.000    0.000    0.000 
#
# Total GULP energy -245047.003059 kJ/mol
# GULP energy per Si atom -5569.250070 kJ/mol
# Density = 1.844561 g / cm^3
# Si number density = 18.487690 Si / 1000 Ang^3
#
#
#
# Elastic Constant Matrix: (Units=GPa)
#
#
# Indices 1 2 3 4 5 6 
#
# 1 154.1920 61.5779 63.2221 0.0000 0.0000 0.0000
# 2 61.5779 77.4570 24.5151 0.0000 0.0000 0.0000
# 3 63.2221 24.5151 121.6903 0.0000 0.0000 0.0000
# 4 0.0000 0.0000 0.0000 29.4972 0.0000 0.0000
# 5 0.0000 0.0000 0.0000 0.0000 9.9052 0.0000
# 6 0.0000 0.0000 0.0000 0.0000 0.0000 139.0117
#
#
#
# Elastic Compliance Matrix: (Units=1/GPa)
#
#
# Indices 1 2 3 4 5 6 
#
# 1 0.011306 -0.007614 -0.004340 0.000000 0.000000 0.000000
# 2 -0.007614 0.018918 0.000145 0.000000 0.000000 0.000000
# 3 -0.004340 0.000145 0.010443 0.000000 0.000000 0.000000
# 4 0.000000 0.000000 0.000000 0.033902 0.000000 0.000000
# 5 0.000000 0.000000 0.000000 0.000000 0.100957 0.000000
# 6 0.000000 0.000000 0.000000 0.000000 0.000000 0.007194
#
#
# Mechanical properties :
#
#
# Convention : Reuss Voigt Hill
#
# Bulk Modulus (GPa) = 58.65772 72.44107 65.54940
# Shear Modulus (GPa) = 23.58261 49.28443 36.43352
#
# Velocity S-wave (km/s) = 3.57541 5.16874 4.44406
# Velocity P-wave (km/s) = 6.98868 8.65388 7.86547
#
# Compressibility (1/GPa) = 0.01704805
#
# Stress axis : x y z
#
# Youngs Moduli (GPa) = 88.45098 52.85976 95.75766
#
# Poissons Ratio (x) = 0.40250 0.41556
# Poissons Ratio (y) = 0.67351 -0.01387
# Poissons Ratio (z) = 0.38385 -0.00766
#
# Static dielectric constant tensor:
#      x y z
#    x 1.760070 0.000000 0.000000 
#    y 0.000000 1.646620 0.000000 
#    z 0.000000 0.000000 1.674060 
# 
# From -- ./inp_files/28228.got.cif
#   From: 2010.05.17/outbox.cif.g08.bks.cpg/sg53_15_cif.got.tgz:28228.got - 2010.06.03 12:45:16.
