data_PCOD9414085
_publ_section_title
;
Structure prediction by ZEFSAII (Michael W. Deem and Ramdas Pophale) SiO2 
 PCOD9414085
Probable space group: P M N A
;
_chemical_formula_sum "Si O2"
_cell_formula_units_Z 56
_cell_length_a 21.390807
_cell_length_b 24.877530
_cell_length_c 5.442468
_cell_angle_alpha 90.000000
_cell_angle_beta 90.000000
_cell_angle_gamma 90.000000
_cell_volume 2896.211756
_symmetry_space_group_name_H-M "P M N A"
_symmetry_group_IT_number 53
_symmetry_cell_setting 'orthorhombic'
loop_
_space_group_symop_operation_xyz
x,y,z
1/2-x,-y,1/2+z
x,-y,-z
1/2-x,y,1/2-z
-x,-y,-z
1/2+x,y,1/2-z
-x,y,z
1/2+x,-y,1/2+z
loop_
_atom_site_type_symbol
_atom_site_label
_atom_site_fract_x
_atom_site_fract_y
_atom_site_fract_z
Si Si1 0.566437 0.549245 0.317284
Si Si2 0.712385 0.219268 0.002551
Si Si3 0.801977 0.438916 0.559080
Si Si4 0.070868 0.332515 0.917659
Si Si5 0.314818 0.936523 0.500214
Si Si6 0.172061 0.107245 0.501451
Si Si7 0.853573 0.329473 0.402338
O O1 0.567265 0.500000 0.500000
O O2 0.500000 0.549588 0.175497
O O3 0.629663 0.549070 0.167199
O O4 0.566937 0.603852 0.470709
O O5 0.750000 0.214342 0.750000
O O6 0.662133 0.171137 0.991529
O O7 0.690995 0.280320 0.029904
O O8 0.750000 0.206743 0.250000
O O9 0.778647 0.500000 0.500000
O O10 0.750000 0.417902 0.750000
O O11 0.818062 0.387627 0.383795
O O12 0.113212 0.313465 0.145075
O O13 0.000000 0.310653 0.918885
O O14 0.100016 0.330878 0.641763
O O15 0.349933 0.919731 0.252602
O O16 0.247299 0.906378 0.498446
O O17 0.302232 0.000000 0.500000
O O18 0.349493 0.918677 0.747417
#
# Coordination Sequence:
#
# PCOD9414085 Si02
#       7
#     8   8   8   8   8   8   8
#     4   9  18  34  57  82 105 133 172 220 274 338
#     4  12  21  35  50  69 106 144 185 226 250 305
#     4  11  23  37  54  79 114 147 181 227 287 345
#     4  10  21  40  61  82 106 129 169 230 287 343
#     4  10  16  25  41  63  91 127 184 224 251 299
#     4  10  16  27  39  61  89 132 176 220 248 289
#     4  11  24  38  58  83 103 141 187 222 279 337
#
# _framework density 19.335602000000002
#
# number of rings (size 3 to 8) (size 9 to 14) (size 15 to 20)
#    0.000    1.571    2.857    5.143    0.000    3.714 
#    0.000    0.000    0.000    0.000    0.000    0.000 
#    0.000    0.000    0.000    0.000    0.000   82.857 
#
# Total GULP energy -311765.774171 kJ/mol
# GULP energy per Si atom -5567.245967 kJ/mol
# Density = 1.929159 g / cm^3
# Si number density = 19.335602 Si / 1000 Ang^3
#
#
#
# Elastic Constant Matrix: (Units=GPa)
#
#
# Indices 1 2 3 4 5 6 
#
# 1 42.2083 -10.2597 14.0083 0.0000 0.0000 0.0000
# 2 -10.2597 91.4155 2.8012 0.0000 0.0000 0.0000
# 3 14.0083 2.8012 120.7040 0.0000 0.0000 0.0000
# 4 0.0000 0.0000 0.0000 32.5010 0.0000 0.0000
# 5 0.0000 0.0000 0.0000 0.0000 13.8511 0.0000
# 6 0.0000 0.0000 0.0000 0.0000 0.0000 -6.6648
#
#
#
# Elastic Compliance Matrix: (Units=1/GPa)
#
#
# Indices 1 2 3 4 5 6 
#
# 1 0.025409 0.002944 -0.003017 0.000000 0.000000 0.000000
# 2 0.002944 0.011288 -0.000604 0.000000 0.000000 0.000000
# 3 -0.003017 -0.000604 0.008649 0.000000 0.000000 0.000000
# 4 0.000000 0.000000 0.000000 0.030768 0.000000 0.000000
# 5 0.000000 0.000000 0.000000 0.000000 0.072196 0.000000
# 6 0.000000 0.000000 0.000000 0.000000 0.000000 -0.150041
#
#
# Mechanical properties :
#
#
# Convention : Reuss Voigt Hill
#
# Bulk Modulus (GPa) = 22.73111 29.71415 26.22263
# Shear Modulus (GPa) = 349.96366 24.45599 187.20983
#
# Velocity S-wave (km/s) = 13.46801 3.56028 9.85046
# Velocity P-wave (km/s) = 15.92581 5.68347 11.95686
#
# Compressibility (1/GPa) = 0.04399256
#
# Stress axis : x y z
#
# Youngs Moduli (GPa) = 39.35612 88.58976 115.62171
#
# Poissons Ratio (x) = -0.26082 0.34885
# Poissons Ratio (y) = -0.11587 0.06979
# Poissons Ratio (z) = 0.11874 0.05348
#
# Static dielectric constant tensor:
#      x y z
#    x 1.690750 0.000000 0.000000 
#    y 0.000000 1.686370 0.000000 
#    z 0.000000 0.000000 1.794870 
# 
# From -- ./inp_files/3066.got.cif
#   From: 2010.05.17/outbox.cif.g08.bks.cpg/sg53_2_cif.got.tgz:3066.got - 2010.06.03 12:45:16.
