data_PCOD9414118
_publ_section_title
;
Structure prediction by ZEFSAII (Michael W. Deem and Ramdas Pophale) SiO2 
 PCOD9414118
Probable space group: P M N A
;
_chemical_formula_sum "Si O2"
_cell_formula_units_Z 44
_cell_length_a 25.652613
_cell_length_b 10.413070
_cell_length_c 8.714613
_cell_angle_alpha 90.000000
_cell_angle_beta 90.000000
_cell_angle_gamma 90.000000
_cell_volume 2327.868818
_symmetry_space_group_name_H-M "P M N A"
_symmetry_group_IT_number 53
_symmetry_cell_setting 'orthorhombic'
loop_
_space_group_symop_operation_xyz
x,y,z
1/2-x,-y,1/2+z
x,-y,-z
1/2-x,y,1/2-z
-x,-y,-z
1/2+x,y,1/2-z
-x,y,z
1/2+x,-y,1/2+z
loop_
_atom_site_type_symbol
_atom_site_label
_atom_site_fract_x
_atom_site_fract_y
_atom_site_fract_z
Si Si1 0.689797 0.142057 0.524227
Si Si2 0.779103 0.646966 0.469265
Si Si3 0.626018 0.293936 0.745959
Si Si4 0.870088 0.500000 0.000000
Si Si5 0.848739 0.294964 0.242136
Si Si6 0.938882 0.652621 0.530151
O O1 0.733989 0.249174 0.557395
O O2 0.647470 0.168781 0.657877
O O3 0.661529 0.173544 0.363460
O O4 0.711470 0.000000 0.500000
O O5 0.762816 0.500000 0.500000
O O6 0.823387 0.648637 0.336729
O O7 0.807566 0.693887 0.623031
O O8 0.605140 0.393471 0.615383
O O9 0.583677 0.277449 0.879115
O O10 0.841380 0.411110 0.122634
O O11 0.904709 0.307558 0.323078
O O12 0.929769 0.500000 0.500000
O O13 0.000000 0.673217 0.551360
#
# Coordination Sequence:
#
# PCOD9414118 Si02
#       6
#     8   8   8   4   8   8
#     4  11  26  39  55  83 117 156 198 244 288 328
#     4  11  21  34  59  87 115 158 200 230 274 346
#     4  10  20  36  57  80 124 151 191 228 285 342
#     4  10  16  32  53  82 114 150 184 218 273 334
#     4  10  20  36  57  80 124 151 191 228 285 342
#     4  10  19  36  62  93 119 142 183 241 297 347
#
# _framework density 18.901409000000001
#
# number of rings (size 3 to 8) (size 9 to 14) (size 15 to 20)
#    0.000    1.636    3.636    2.182    5.091    4.364 
#    0.000    7.273    0.000    3.273    0.000    0.000 
#    0.000    0.000    0.000    0.000    0.000    0.000 
#
# Total GULP energy -245202.669544 kJ/mol
# GULP energy per Si atom -5572.787944 kJ/mol
# Density = 1.885839 g / cm^3
# Si number density = 18.901409 Si / 1000 Ang^3
#
#
#
# Elastic Constant Matrix: (Units=GPa)
#
#
# Indices 1 2 3 4 5 6 
#
# 1 102.0055 20.3860 39.6502 0.0000 0.0000 0.0000
# 2 20.3860 65.8047 10.9962 0.0000 0.0000 0.0000
# 3 39.6502 10.9962 120.7433 0.0000 0.0000 0.0000
# 4 0.0000 0.0000 0.0000 12.1495 0.0000 0.0000
# 5 0.0000 0.0000 0.0000 0.0000 5.8419 0.0000
# 6 0.0000 0.0000 0.0000 0.0000 0.0000 7.1610
#
#
#
# Elastic Compliance Matrix: (Units=1/GPa)
#
#
# Indices 1 2 3 4 5 6 
#
# 1 0.011814 -0.003058 -0.003601 0.000000 0.000000 0.000000
# 2 -0.003058 0.016223 -0.000473 0.000000 0.000000 0.000000
# 3 -0.003601 -0.000473 0.009508 0.000000 0.000000 0.000000
# 4 0.000000 0.000000 0.000000 0.082308 0.000000 0.000000
# 5 0.000000 0.000000 0.000000 0.000000 0.171177 0.000000
# 6 0.000000 0.000000 0.000000 0.000000 0.000000 0.139645
#
#
# Mechanical properties :
#
#
# Convention : Reuss Voigt Hill
#
# Bulk Modulus (GPa) = 42.95548 47.84648 45.40098
# Shear Modulus (GPa) = 11.04484 19.53188 15.28836
#
# Velocity S-wave (km/s) = 2.41993 3.21807 2.84711
# Velocity P-wave (km/s) = 5.53024 6.25913 5.90594
#
# Compressibility (1/GPa) = 0.02327992
#
# Stress axis : x y z
#
# Youngs Moduli (GPa) = 84.64255 61.64088 105.17814
#
# Poissons Ratio (x) = 0.18852 0.37876
# Poissons Ratio (y) = 0.25886 0.04976
# Poissons Ratio (z) = 0.30481 0.02917
#
# Static dielectric constant tensor:
#      x y z
#    x 1.668340 0.000000 0.000000 
#    y 0.000000 1.690430 0.000000 
#    z 0.000000 0.000000 1.689910 
# 
# From -- ./inp_files/11742.got.cif
#   From: 2010.05.17/outbox.cif.g08.bks.cpg/sg53_6_cif.got.tgz:11742.got - 2010.06.03 12:45:16.
