data_PCOD9414916
_publ_section_title
;
Structure prediction by ZEFSAII (Michael W. Deem and Ramdas Pophale) SiO2 
 PCOD9414916
Probable space group: P M N A
;
_chemical_formula_sum "Si O2"
_cell_formula_units_Z 40
_cell_length_a 7.981300
_cell_length_b 14.572774
_cell_length_c 20.153502
_cell_angle_alpha 90.000000
_cell_angle_beta 90.000000
_cell_angle_gamma 90.000000
_cell_volume 2344.047391
_symmetry_space_group_name_H-M "P M N A"
_symmetry_group_IT_number 53
_symmetry_cell_setting 'orthorhombic'
loop_
_space_group_symop_operation_xyz
x,y,z
1/2-x,-y,1/2+z
x,-y,-z
1/2-x,y,1/2-z
-x,-y,-z
1/2+x,y,1/2-z
-x,y,z
1/2+x,-y,1/2+z
loop_
_atom_site_type_symbol
_atom_site_label
_atom_site_fract_x
_atom_site_fract_y
_atom_site_fract_z
Si Si1 0.000000 0.089216 0.590175
Si Si2 0.186120 0.211902 0.899035
Si Si3 0.694649 0.247989 0.443037
Si Si4 0.000000 0.119255 0.430087
Si Si5 0.297948 0.540179 0.570906
Si Si6 0.195259 0.610113 0.325084
O O1 0.834011 0.140581 0.615500
O O2 0.000000 0.102713 0.509991
O O3 0.000000 0.980798 0.602667
O O4 0.207597 0.303660 0.856263
O O5 0.000000 0.172974 0.889142
O O6 0.200521 0.240562 0.976590
O O7 0.500000 0.230202 0.423922
O O8 0.741142 0.352201 0.424599
O O9 0.832151 0.177373 0.415729
O O10 0.240166 0.500000 0.500000
O O11 0.500000 0.531970 0.572314
O O12 0.227012 0.478410 0.629497
O O13 0.250000 0.593372 0.250000
O O14 0.000000 0.633636 0.327216
#
# Coordination Sequence:
#
# PCOD9414916 Si02
#       6
#     4   8   8   4   8   8
#     4   9  18  32  47  76 103 142 173 221 272 315
#     4  10  18  33  52  74 106 143 179 218 271 328
#     4   9  18  30  50  77 108 145 180 220 270 321
#     4   9  18  30  48  73 112 133 180 225 264 318
#     4  10  19  33  53  78 109 147 186 226 269 331
#     4  12  24  36  52  78 114 146 185 227 277 332
#
# _framework density 17.064502000000001
#
# number of rings (size 3 to 8) (size 9 to 14) (size 15 to 20)
#    0.000    2.000    3.000    1.800    1.400    1.200 
#    0.000    4.000    0.000    0.000    0.000    1.400 
#    0.000    0.000    0.000    0.000    0.000    0.000 
#
# Total GULP energy -223167.027614 kJ/mol
# GULP energy per Si atom -5579.175690 kJ/mol
# Density = 1.702566 g / cm^3
# Si number density = 17.064502 Si / 1000 Ang^3
#
#
#
# Elastic Constant Matrix: (Units=GPa)
#
#
# Indices 1 2 3 4 5 6 
#
# 1 115.7690 78.7140 27.9843 0.0000 0.0000 0.0000
# 2 78.7140 133.6325 35.6080 0.0000 0.0000 0.0000
# 3 27.9843 35.6080 46.6296 0.0000 0.0000 0.0000
# 4 0.0000 0.0000 0.0000 4.8180 0.0000 0.0000
# 5 0.0000 0.0000 0.0000 0.0000 12.4772 0.0000
# 6 0.0000 0.0000 0.0000 0.0000 0.0000 16.8613
#
#
#
# Elastic Compliance Matrix: (Units=1/GPa)
#
#
# Indices 1 2 3 4 5 6 
#
# 1 0.014688 -0.007913 -0.002772 0.000000 0.000000 0.000000
# 2 -0.007913 0.013658 -0.005681 0.000000 0.000000 0.000000
# 3 -0.002772 -0.005681 0.027447 0.000000 0.000000 0.000000
# 4 0.000000 0.000000 0.000000 0.207557 0.000000 0.000000
# 5 0.000000 0.000000 0.000000 0.000000 0.080146 0.000000
# 6 0.000000 0.000000 0.000000 0.000000 0.000000 0.059307
#
#
# Mechanical properties :
#
#
# Convention : Reuss Voigt Hill
#
# Bulk Modulus (GPa) = 43.36261 64.51598 53.93930
# Shear Modulus (GPa) = 11.28098 17.07962 14.18030
#
# Velocity S-wave (km/s) = 2.57393 3.16711 2.88580
# Velocity P-wave (km/s) = 5.85659 7.15984 6.54076
#
# Compressibility (1/GPa) = 0.02306134
#
# Stress axis : x y z
#
# Youngs Moduli (GPa) = 68.08082 73.21672 36.43335
#
# Poissons Ratio (x) = 0.57938 0.10100
# Poissons Ratio (y) = 0.53874 0.20697
# Poissons Ratio (z) = 0.18874 0.41592
#
# Static dielectric constant tensor:
#      x y z
#    x 1.601170 0.000000 0.000000 
#    y 0.000000 1.555880 0.000000 
#    z 0.000000 0.000000 1.550530 
# 
# From -- ./inp_files/19906.got.cif
#   From: 2010.05.17/outbox.cif.g08.bks.cpg/sg53_10_cif.got.tgz:19906.got - 2010.06.03 12:45:16.
