data_PCOD9414147
_publ_section_title
;
Structure prediction by ZEFSAII (Michael W. Deem and Ramdas Pophale) SiO2 
 PCOD9414147
Probable space group: P M N A
;
_chemical_formula_sum "Si O2"
_cell_formula_units_Z 48
_cell_length_a 8.498218
_cell_length_b 33.950367
_cell_length_c 7.649033
_cell_angle_alpha 90.000000
_cell_angle_beta 90.000000
_cell_angle_gamma 90.000000
_cell_volume 2206.880796
_symmetry_space_group_name_H-M "P M N A"
_symmetry_group_IT_number 53
_symmetry_cell_setting 'orthorhombic'
loop_
_space_group_symop_operation_xyz
x,y,z
1/2-x,-y,1/2+z
x,-y,-z
1/2-x,y,1/2-z
-x,-y,-z
1/2+x,y,1/2-z
-x,y,z
1/2+x,-y,1/2+z
loop_
_atom_site_type_symbol
_atom_site_label
_atom_site_fract_x
_atom_site_fract_y
_atom_site_fract_z
Si Si1 0.186773 0.375676 0.951164
Si Si2 0.811349 0.127491 0.951380
Si Si3 0.689965 0.956905 0.445714
Si Si4 0.688295 0.543554 0.054130
Si Si5 0.688854 0.294213 0.950980
Si Si6 0.688321 0.791204 0.049287
O O1 0.250000 0.374664 0.750000
O O2 0.248310 0.416479 0.034016
O O3 0.243651 0.334349 0.031378
O O4 0.000000 0.376701 0.945896
O O5 0.750000 0.127719 0.750000
O O6 0.500000 0.128709 0.552401
O O7 0.761063 0.085021 0.030795
O O8 0.750635 0.168241 0.032333
O O9 0.750000 0.953269 0.250000
O O10 0.500000 0.958101 0.454088
O O11 0.750124 0.000000 0.500000
O O12 0.750000 0.546586 0.250000
O O13 0.500000 0.544468 0.045597
O O14 0.743048 0.500000 0.000000
O O15 0.750000 0.293262 0.750000
O O16 0.500000 0.296888 0.948973
O O17 0.735609 0.251464 0.027443
O O18 0.750000 0.790807 0.250000
O O19 0.500000 0.792931 0.053152
#
# Coordination Sequence:
#
# PCOD9414147 Si02
#       6
#     8   8   8   8   8   8
#     4  10  17  25  39  57  80 110 142 177 215 257
#     4   9  15  23  36  52  74 104 134 168 208 250
#     4   9  18  31  45  63  87 114 146 182 219 260
#     4  10  20  33  49  68  91 120 152 186 224 264
#     4   9  15  22  32  48  73 104 136 169 206 250
#     4   9  15  21  31  48  72 102 134 168 204 248
#
# _framework density 21.750156
#
# number of rings (size 3 to 8) (size 9 to 14) (size 15 to 20)
#    0.000    2.667    0.000    6.500    0.000    4.333 
#    0.000    0.000    0.000    0.000    0.000    0.000 
#    0.000    1.333    0.000   10.000    0.000   17.167 
#
# Total GULP energy -267288.655759 kJ/mol
# GULP energy per Si atom -5568.513662 kJ/mol
# Density = 2.170065 g / cm^3
# Si number density = 21.750156 Si / 1000 Ang^3
#
#
#
# Elastic Constant Matrix: (Units=GPa)
#
#
# Indices 1 2 3 4 5 6 
#
# 1 68.3001 62.1306 -3.5291 0.0000 0.0000 0.0000
# 2 62.1306 323.7547 21.5984 0.0000 0.0000 0.0000
# 3 -3.5291 21.5984 32.3845 0.0000 0.0000 0.0000
# 4 0.0000 0.0000 0.0000 9.2464 0.0000 0.0000
# 5 0.0000 0.0000 0.0000 0.0000 -4.7608 0.0000
# 6 0.0000 0.0000 0.0000 0.0000 0.0000 54.0807
#
#
#
# Elastic Compliance Matrix: (Units=1/GPa)
#
#
# Indices 1 2 3 4 5 6 
#
# 1 0.018357 -0.003827 0.004553 0.000000 0.000000 0.000000
# 2 -0.003827 0.004030 -0.003105 0.000000 0.000000 0.000000
# 3 0.004553 -0.003105 0.033446 0.000000 0.000000 0.000000
# 4 0.000000 0.000000 0.000000 0.108150 0.000000 0.000000
# 5 0.000000 0.000000 0.000000 0.000000 -0.210050 0.000000
# 6 0.000000 0.000000 0.000000 0.000000 0.000000 0.018491
#
#
# Mechanical properties :
#
#
# Convention : Reuss Voigt Hill
#
# Bulk Modulus (GPa) = 19.57880 64.98212 42.28046
# Shear Modulus (GPa) = -863.18145 34.66257 -414.25944
#
# Velocity S-wave (km/s) = -19.94301 3.99641 -13.81580
# Velocity P-wave (km/s) = 22.83149 7.15797 15.33037
#
# Compressibility (1/GPa) = 0.05107564
#
# Stress axis : x y z
#
# Youngs Moduli (GPa) = 54.47378 248.12378 29.89910
#
# Poissons Ratio (x) = 0.94948 -0.13612
# Poissons Ratio (y) = 0.20845 0.09283
# Poissons Ratio (z) = -0.24800 0.77040
#
# Static dielectric constant tensor:
#      x y z
#    x 1.725610 0.000000 0.000000 
#    y 0.000000 1.976600 0.000000 
#    z 0.000000 0.000000 1.859270 
# 
# From -- ./inp_files/14191.got.cif
#   From: 2010.05.17/outbox.cif.g08.bks.cpg/sg53_8_cif.got.tgz:14191.got - 2010.06.03 12:45:16.
