data_PCOD9414093
_publ_section_title
;
Structure prediction by ZEFSAII (Michael W. Deem and Ramdas Pophale) SiO2 
 PCOD9414093
Probable space group: P M N A
;
_chemical_formula_sum "Si O2"
_cell_formula_units_Z 28
_cell_length_a 31.950250
_cell_length_b 7.259857
_cell_length_c 5.232644
_cell_angle_alpha 90.000000
_cell_angle_beta 90.000000
_cell_angle_gamma 90.000000
_cell_volume 1213.733994
_symmetry_space_group_name_H-M "P M N A"
_symmetry_group_IT_number 53
_symmetry_cell_setting 'orthorhombic'
loop_
_space_group_symop_operation_xyz
x,y,z
1/2-x,-y,1/2+z
x,-y,-z
1/2-x,y,1/2-z
-x,-y,-z
1/2+x,y,1/2-z
-x,y,z
1/2+x,-y,1/2+z
loop_
_atom_site_type_symbol
_atom_site_label
_atom_site_fract_x
_atom_site_fract_y
_atom_site_fract_z
Si Si1 0.127501 0.285236 0.474910
Si Si2 0.000000 0.633213 0.243402
Si Si3 0.586232 0.722450 0.461991
Si Si4 0.224976 0.777781 0.504891
O O1 0.115208 0.500000 0.500000
O O2 0.119011 0.205853 0.755204
O O3 0.177070 0.277449 0.444883
O O4 0.099007 0.208342 0.243507
O O5 0.000000 0.500000 0.500000
O O6 0.958098 0.749782 0.184873
O O7 0.000000 0.500000 0.000000
O O8 0.589606 0.500000 0.500000
O O9 0.250000 0.712538 0.750000
O O10 0.224834 0.000000 0.500000
O O11 0.250000 0.718856 0.250000
#
# Coordination Sequence:
#
# PCOD9414093 Si02
#       4
#     8   4   8   8
#     4  10  19  31  48  72  99 124 156 199 243 284
#     4  10  16  26  44  68 101 136 163 192 237 286
#     4   9  17  28  44  70 100 128 157 194 236 282
#     4  10  21  36  52  70  93 124 163 201 239 291
#
# _framework density 23.069306999999998
#
# number of rings (size 3 to 8) (size 9 to 14) (size 15 to 20)
#    0.000    2.286    0.000    6.000    0.000    1.143 
#    0.000    0.000    0.000    0.000    0.000    6.000 
#    0.000    0.000    0.000    0.000    0.000    0.000 
#
# Total GULP energy -155916.156669 kJ/mol
# GULP energy per Si atom -5568.434167 kJ/mol
# Density = 2.301680 g / cm^3
# Si number density = 23.069307 Si / 1000 Ang^3
#
#
#
# Elastic Constant Matrix: (Units=GPa)
#
#
# Indices 1 2 3 4 5 6 
#
# 1 144.3427 -21.8627 78.4944 0.0000 0.0000 0.0000
# 2 -21.8627 70.9068 3.0550 0.0000 0.0000 0.0000
# 3 78.4944 3.0550 214.1235 0.0000 0.0000 0.0000
# 4 0.0000 0.0000 0.0000 -33.2584 0.0000 0.0000
# 5 0.0000 0.0000 0.0000 0.0000 44.3951 0.0000
# 6 0.0000 0.0000 0.0000 0.0000 0.0000 -417.4450
#
#
#
# Elastic Compliance Matrix: (Units=1/GPa)
#
#
# Indices 1 2 3 4 5 6 
#
# 1 0.009249 0.003000 -0.003434 0.000000 0.000000 0.000000
# 2 0.003000 0.015085 -0.001315 0.000000 0.000000 0.000000
# 3 -0.003434 -0.001315 0.005948 0.000000 0.000000 0.000000
# 4 0.000000 0.000000 0.000000 -0.030068 0.000000 0.000000
# 5 0.000000 0.000000 0.000000 0.000000 0.022525 0.000000
# 6 0.000000 0.000000 0.000000 0.000000 0.000000 -0.002396
#
#
# Mechanical properties :
#
#
# Convention : Reuss Voigt Hill
#
# Bulk Modulus (GPa) = 37.33499 60.97183 49.15341
# Shear Modulus (GPa) = 152.58319 -56.61589 47.98365
#
# Velocity S-wave (km/s) = 8.14155 -4.95933 4.56563
# Velocity P-wave (km/s) = 10.22735 2.51118 7.01045
#
# Compressibility (1/GPa) = 0.02678452
#
# Stress axis : x y z
#
# Youngs Moduli (GPa) = 108.11401 66.29276 168.13388
#
# Poissons Ratio (x) = -0.19887 0.57729
# Poissons Ratio (y) = -0.32432 0.22108
# Poissons Ratio (z) = 0.37121 0.08717
#
# Static dielectric constant tensor:
#      x y z
#    x 2.154810 0.000000 0.000000 
#    y 0.000000 1.829270 0.000000 
#    z 0.000000 0.000000 1.910680 
# 
# From -- ./inp_files/3376.got.cif
#   From: 2010.05.17/outbox.cif.g08.bks.cpg/sg53_2_cif.got.tgz:3376.got - 2010.06.03 12:45:16.
