data_PCOD9414933
_publ_section_title
;
Structure prediction by ZEFSAII (Michael W. Deem and Ramdas Pophale) SiO2 
 PCOD9414933
Probable space group: P M N A
;
_chemical_formula_sum "Si O2"
_cell_formula_units_Z 56
_cell_length_a 9.130465
_cell_length_b 20.359325
_cell_length_c 15.967775
_cell_angle_alpha 90.000000
_cell_angle_beta 90.000000
_cell_angle_gamma 90.000000
_cell_volume 2968.251361
_symmetry_space_group_name_H-M "P M N A"
_symmetry_group_IT_number 53
_symmetry_cell_setting 'orthorhombic'
loop_
_space_group_symop_operation_xyz
x,y,z
1/2-x,-y,1/2+z
x,-y,-z
1/2-x,y,1/2-z
-x,-y,-z
1/2+x,y,1/2-z
-x,y,z
1/2+x,-y,1/2+z
loop_
_atom_site_type_symbol
_atom_site_label
_atom_site_fract_x
_atom_site_fract_y
_atom_site_fract_z
Si Si1 0.667218 0.921348 0.001259
Si Si2 0.169156 0.747504 0.371965
Si Si3 0.832797 0.427892 0.009073
Si Si4 0.171804 0.297499 0.436527
Si Si5 0.327794 0.121486 0.667293
Si Si6 0.322999 0.167174 0.160210
Si Si7 0.166679 0.380191 0.819570
O O1 0.500000 0.897470 0.018722
O O2 0.712273 0.885280 0.914440
O O3 0.769786 0.905736 0.079448
O O4 0.662672 0.000000 0.000000
O O5 0.183075 0.736933 0.471941
O O6 0.276962 0.803250 0.340121
O O7 0.223375 0.680503 0.331863
O O8 0.000000 0.762890 0.352485
O O9 0.755166 0.367301 0.056989
O O10 0.000000 0.435147 0.042099
O O11 0.761311 0.500000 0.000000
O O12 0.841769 0.408122 0.912170
O O13 0.220860 0.240574 0.371925
O O14 0.000000 0.310657 0.421754
O O15 0.250000 0.092689 0.750000
O O16 0.500000 0.114675 0.675554
O O17 0.250000 0.152680 0.250000
O O18 0.500000 0.166286 0.168761
O O19 0.250000 0.423378 0.750000
O O20 0.000000 0.364215 0.795481
#
# Coordination Sequence:
#
# PCOD9414933 Si02
#       7
#     8   8   8   8   8   8   8
#     4  10  22  43  66  87 119 160 199 249 309 361
#     4  10  18  33  55  79 111 144 181 227 281 338
#     4   9  19  35  54  77 108 146 188 234 288 350
#     4   9  18  34  57  82 112 147 190 241 290 346
#     4  12  24  37  57  85 119 154 193 236 288 351
#     4  10  21  39  62  91 121 156 203 253 305 361
#     4  10  19  31  48  74 105 138 178 220 275 336
#
# _framework density 18.866327999999999
#
# number of rings (size 3 to 8) (size 9 to 14) (size 15 to 20)
#    0.000    2.000    1.429    2.571    0.000    3.429 
#    0.000    2.143    0.000    3.429    0.000    0.000 
#    0.000    0.000    0.000    0.000    0.000    0.000 
#
# Total GULP energy -311969.924452 kJ/mol
# GULP energy per Si atom -5570.891508 kJ/mol
# Density = 1.882339 g / cm^3
# Si number density = 18.866328 Si / 1000 Ang^3
#
#
#
# Elastic Constant Matrix: (Units=GPa)
#
#
# Indices 1 2 3 4 5 6 
#
# 1 102.0883 34.0311 60.6502 0.0000 0.0000 0.0000
# 2 34.0311 95.6541 40.0137 0.0000 0.0000 0.0000
# 3 60.6502 40.0137 112.7582 0.0000 0.0000 0.0000
# 4 0.0000 0.0000 0.0000 -1.3522 0.0000 0.0000
# 5 0.0000 0.0000 0.0000 0.0000 30.5634 0.0000
# 6 0.0000 0.0000 0.0000 0.0000 0.0000 21.0668
#
#
#
# Elastic Compliance Matrix: (Units=1/GPa)
#
#
# Indices 1 2 3 4 5 6 
#
# 1 0.014805 -0.002274 -0.007156 0.000000 0.000000 0.000000
# 2 -0.002274 0.012626 -0.003258 0.000000 0.000000 0.000000
# 3 -0.007156 -0.003258 0.013874 0.000000 0.000000 0.000000
# 4 0.000000 0.000000 0.000000 -0.739560 0.000000 0.000000
# 5 0.000000 0.000000 0.000000 0.000000 0.032719 0.000000
# 6 0.000000 0.000000 0.000000 0.000000 0.000000 0.047468
#
#
# Mechanical properties :
#
#
# Convention : Reuss Voigt Hill
#
# Bulk Modulus (GPa) = 62.77652 64.43230 63.60441
# Shear Modulus (GPa) = -8.51233 21.77599 6.63183
#
# Velocity S-wave (km/s) = -2.12643 3.40107 1.87691
# Velocity P-wave (km/s) = 5.22663 7.04622 6.20350
#
# Compressibility (1/GPa) = 0.01592952
#
# Stress axis : x y z
#
# Youngs Moduli (GPa) = 67.54507 79.20232 72.07814
#
# Poissons Ratio (x) = 0.18007 0.51582
# Poissons Ratio (y) = 0.15357 0.23480
# Poissons Ratio (z) = 0.48338 0.25801
#
# Static dielectric constant tensor:
#      x y z
#    x 1.660890 0.000000 0.000000 
#    y 0.000000 1.701330 0.000000 
#    z 0.000000 0.000000 1.918340 
# 
# From -- ./inp_files/20614.got.cif
#   From: 2010.05.17/outbox.cif.g08.bks.cpg/sg53_11_cif.got.tgz:20614.got - 2010.06.03 12:45:16.
