data_PCOD9414083
_publ_section_title
;
Structure prediction by ZEFSAII (Michael W. Deem and Ramdas Pophale) SiO2 
 PCOD9414083
Probable space group: P M N A
;
_chemical_formula_sum "Si O2"
_cell_formula_units_Z 40
_cell_length_a 15.825920
_cell_length_b 14.736348
_cell_length_c 6.902769
_cell_angle_alpha 90.000000
_cell_angle_beta 90.000000
_cell_angle_gamma 90.000000
_cell_volume 1609.838001
_symmetry_space_group_name_H-M "P M N A"
_symmetry_group_IT_number 53
_symmetry_cell_setting 'orthorhombic'
loop_
_space_group_symop_operation_xyz
x,y,z
1/2-x,-y,1/2+z
x,-y,-z
1/2-x,y,1/2-z
-x,-y,-z
1/2+x,y,1/2-z
-x,y,z
1/2+x,-y,1/2+z
loop_
_atom_site_type_symbol
_atom_site_label
_atom_site_fract_x
_atom_site_fract_y
_atom_site_fract_z
Si Si1 0.402551 0.892025 0.822892
Si Si2 0.905892 0.739883 0.104199
Si Si3 0.266502 0.397116 0.522940
Si Si4 0.902840 0.690040 0.565415
Si Si5 0.347084 0.077625 0.736108
O O1 0.500000 0.908982 0.776520
O O2 0.386922 0.784295 0.819414
O O3 0.350916 0.969036 0.707361
O O4 0.388183 0.910505 0.052201
O O5 0.837239 0.679216 0.995866
O O6 0.902057 0.715836 0.334971
O O7 0.890713 0.848155 0.099458
O O8 0.000000 0.718465 0.037781
O O9 0.296294 0.500000 0.500000
O O10 0.250000 0.388872 0.750000
O O11 0.177458 0.377175 0.414572
O O12 0.000000 0.658304 0.603918
O O13 0.250000 0.106157 0.750000
#
# Coordination Sequence:
#
# PCOD9414083 Si02
#       5
#     8   8   8   8   8
#     4   9  16  28  46  71  99 128 167 210 256 312
#     4   9  16  28  47  71 100 133 170 211 255 307
#     4  10  20  34  52  77 104 134 175 219 264 311
#     4   8  15  29  49  71  97 129 166 214 264 306
#     4  10  16  24  43  73 101 126 162 206 253 305
#
# _framework density 24.847218999999999
#
# number of rings (size 3 to 8) (size 9 to 14) (size 15 to 20)
#    0.000    2.800    0.000    6.600    0.000    0.800 
#    0.000    1.000    0.000    0.000    0.000   53.200 
#    0.000    0.000    0.000    0.000    0.000    0.000 
#
# Total GULP energy -223588.190324 kJ/mol
# GULP energy per Si atom -5589.704758 kJ/mol
# Density = 2.479067 g / cm^3
# Si number density = 24.847219 Si / 1000 Ang^3
#
#
#
# Elastic Constant Matrix: (Units=GPa)
#
#
# Indices 1 2 3 4 5 6 
#
# 1 138.5983 69.4940 24.1834 0.0000 0.0000 0.0000
# 2 69.4940 129.9172 37.5953 0.0000 0.0000 0.0000
# 3 24.1834 37.5953 85.0243 0.0000 0.0000 0.0000
# 4 0.0000 0.0000 0.0000 49.9342 0.0000 0.0000
# 5 0.0000 0.0000 0.0000 0.0000 -8.7926 0.0000
# 6 0.0000 0.0000 0.0000 0.0000 0.0000 -95.0585
#
#
#
# Elastic Compliance Matrix: (Units=1/GPa)
#
#
# Indices 1 2 3 4 5 6 
#
# 1 0.009881 -0.005129 -0.000543 0.000000 0.000000 0.000000
# 2 -0.005129 0.011488 -0.003621 0.000000 0.000000 0.000000
# 3 -0.000543 -0.003621 0.013517 0.000000 0.000000 0.000000
# 4 0.000000 0.000000 0.000000 0.020026 0.000000 0.000000
# 5 0.000000 0.000000 0.000000 0.000000 -0.113732 0.000000
# 6 0.000000 0.000000 0.000000 0.000000 0.000000 -0.010520
#
#
# Mechanical properties :
#
#
# Convention : Reuss Voigt Hill
#
# Bulk Modulus (GPa) = 61.34370 68.45390 64.89880
# Shear Modulus (GPa) = -110.32658 4.03442 -53.14608
#
# Velocity S-wave (km/s) = -6.67071 1.27562 -4.62986
# Velocity P-wave (km/s) = 5.88126 5.45705 1.55078
#
# Compressibility (1/GPa) = 0.01630159
#
# Stress axis : x y z
#
# Youngs Moduli (GPa) = 101.20143 87.04444 73.98146
#
# Poissons Ratio (x) = 0.44641 0.04016
# Poissons Ratio (y) = 0.51901 0.26790
# Poissons Ratio (z) = 0.05494 0.31520
#
# Static dielectric constant tensor:
#      x y z
#    x 1.906880 0.000000 0.000000 
#    y 0.000000 2.031230 0.000000 
#    z 0.000000 0.000000 2.030050 
# 
# From -- ./inp_files/8400.got.cif
#   From: 2010.05.17/outbox.cif.g08.bks.cpg/sg53_5_cif.got.tgz:8400.got - 2010.06.03 12:45:16.
