data_PCOD9414149
_publ_section_title
;
Structure prediction by ZEFSAII (Michael W. Deem and Ramdas Pophale) SiO2 
 PCOD9414149
Probable space group: P M N A
;
_chemical_formula_sum "Si O2"
_cell_formula_units_Z 48
_cell_length_a 8.315823
_cell_length_b 7.384901
_cell_length_c 33.677512
_cell_angle_alpha 90.000000
_cell_angle_beta 90.000000
_cell_angle_gamma 90.000000
_cell_volume 2068.187525
_symmetry_space_group_name_H-M "P M N A"
_symmetry_group_IT_number 53
_symmetry_cell_setting 'orthorhombic'
loop_
_space_group_symop_operation_xyz
x,y,z
1/2-x,-y,1/2+z
x,-y,-z
1/2-x,y,1/2-z
-x,-y,-z
1/2+x,y,1/2-z
-x,y,z
1/2+x,-y,1/2+z
loop_
_atom_site_type_symbol
_atom_site_label
_atom_site_fract_x
_atom_site_fract_y
_atom_site_fract_z
Si Si1 0.683436 0.035974 0.956759
Si Si2 0.689487 0.515695 0.122378
Si Si3 0.683336 0.583125 0.456551
Si Si4 0.306494 0.525647 0.208124
Si Si5 0.689106 0.071493 0.625855
Si Si6 0.308335 0.049375 0.791905
O O1 0.500000 0.968886 0.957043
O O2 0.691887 0.253266 0.955392
O O3 0.766446 0.977107 0.915817
O O4 0.760016 0.000000 0.000000
O O5 0.500000 0.478703 0.118792
O O6 0.777641 0.460890 0.081760
O O7 0.748693 0.448561 0.165567
O O8 0.718893 0.734234 0.125278
O O9 0.693840 0.500000 0.500000
O O10 0.500000 0.651971 0.451514
O O11 0.250000 0.446604 0.250000
O O12 0.500000 0.520701 0.207552
O O13 0.256015 0.738044 0.208541
O O14 0.500000 0.105442 0.627282
O O15 0.741978 0.975780 0.666514
O O16 0.250000 0.971460 0.750000
O O17 0.500000 0.040691 0.793118
#
# Coordination Sequence:
#
# PCOD9414149 Si02
#       6
#     8   8   8   8   8   8
#     4  10  20  33  49  68  90 119 155 192 230 272
#     4   9  16  26  39  56  80 111 146 181 218 262
#     4  10  20  32  47  68  92 119 152 188 228 274
#     4   8  14  21  31  49  73 103 137 171 208 253
#     4  10  17  25  39  58  82 113 145 179 223 269
#     4   9  15  23  34  51  77 108 143 179 216 262
#
# _framework density 23.208725000000001
#
# number of rings (size 3 to 8) (size 9 to 14) (size 15 to 20)
#    0.000    2.667    0.000    6.500    0.000    7.333 
#    0.000    0.000    0.000    0.000    0.000    0.000 
#    0.000    1.333    0.000   12.000    0.000   14.667 
#
# Total GULP energy -267594.480616 kJ/mol
# GULP energy per Si atom -5574.885013 kJ/mol
# Density = 2.315590 g / cm^3
# Si number density = 23.208725 Si / 1000 Ang^3
#
#
#
# Elastic Constant Matrix: (Units=GPa)
#
#
# Indices 1 2 3 4 5 6 
#
# 1 38.0605 -6.0487 39.1147 0.0000 0.0000 0.0000
# 2 -6.0487 53.3687 13.6722 0.0000 0.0000 0.0000
# 3 39.1147 13.6722 299.7303 0.0000 0.0000 0.0000
# 4 0.0000 0.0000 0.0000 -0.5464 0.0000 0.0000
# 5 0.0000 0.0000 0.0000 0.0000 48.6965 0.0000
# 6 0.0000 0.0000 0.0000 0.0000 0.0000 -13.1386
#
#
#
# Elastic Compliance Matrix: (Units=1/GPa)
#
#
# Indices 1 2 3 4 5 6 
#
# 1 0.031454 0.004671 -0.004318 0.000000 0.000000 0.000000
# 2 0.004671 0.019653 -0.001506 0.000000 0.000000 0.000000
# 3 -0.004318 -0.001506 0.003968 0.000000 0.000000 0.000000
# 4 0.000000 0.000000 0.000000 -1.830163 0.000000 0.000000
# 5 0.000000 0.000000 0.000000 0.000000 0.020535 0.000000
# 6 0.000000 0.000000 0.000000 0.000000 0.000000 -0.076112
#
#
# Mechanical properties :
#
#
# Convention : Reuss Voigt Hill
#
# Bulk Modulus (GPa) = 18.95039 53.84846 36.39943
# Shear Modulus (GPa) = -2.76126 29.96373 13.60123
#
# Velocity S-wave (km/s) = -1.09194 3.59702 2.42345
# Velocity P-wave (km/s) = 2.56771 6.36424 4.85267
#
# Compressibility (1/GPa) = 0.05276935
#
# Stress axis : x y z
#
# Youngs Moduli (GPa) = 31.79284 50.88339 251.98466
#
# Poissons Ratio (x) = -0.23768 1.08801
# Poissons Ratio (y) = -0.14850 0.37950
# Poissons Ratio (z) = 0.13727 0.07663
#
# Static dielectric constant tensor:
#      x y z
#    x 1.794970 0.000000 0.000000 
#    y 0.000000 2.013410 0.000000 
#    z 0.000000 0.000000 1.995690 
# 
# From -- ./inp_files/37912.got.cif
#   From: 2010.05.17/outbox.cif.g08.bks.cpg/sg53_19_cif.got.tgz:37912.got - 2010.06.03 12:45:16.
