data_PCOD9414732
_publ_section_title
;
Structure prediction by ZEFSAII (Michael W. Deem and Ramdas Pophale) SiO2 
 PCOD9414732
Probable space group: P M N A
;
_chemical_formula_sum "Si O2"
_cell_formula_units_Z 58
_cell_length_a 26.641126
_cell_length_b 12.651610
_cell_length_c 8.767340
_cell_angle_alpha 90.000000
_cell_angle_beta 90.000000
_cell_angle_gamma 90.000000
_cell_volume 2955.059442
_symmetry_space_group_name_H-M "P M N A"
_symmetry_group_IT_number 53
_symmetry_cell_setting 'orthorhombic'
loop_
_space_group_symop_operation_xyz
x,y,z
1/2-x,-y,1/2+z
x,-y,-z
1/2-x,y,1/2-z
-x,-y,-z
1/2+x,y,1/2-z
-x,y,z
1/2+x,-y,1/2+z
loop_
_atom_site_type_symbol
_atom_site_label
_atom_site_fract_x
_atom_site_fract_y
_atom_site_fract_z
Si Si1 0.553502 0.942512 0.839277
Si Si2 0.555481 0.386132 0.419383
Si Si3 0.150264 0.699019 0.094238
Si Si4 0.443677 0.303515 0.090138
Si Si5 0.747085 0.619321 0.566870
Si Si6 0.350067 0.615306 0.077109
Si Si7 0.894284 0.921976 0.113241
Si Si8 0.500000 0.000000 0.500000
O O1 0.500000 0.958115 0.745289
O O2 0.560174 0.818072 0.854563
O O3 0.596465 0.006545 0.759801
O O4 0.547646 0.000000 0.000000
O O5 0.555261 0.500000 0.500000
O O6 0.500000 0.339194 0.447974
O O7 0.602828 0.329493 0.490525
O O8 0.561594 0.380527 0.236206
O O9 0.154388 0.621828 0.240685
O O10 0.135965 0.816720 0.146217
O O11 0.200293 0.685724 0.995420
O O12 0.500000 0.316911 0.026776
O O13 0.400450 0.325055 0.970615
O O14 0.741093 0.500000 0.500000
O O15 0.750000 0.615396 0.750000
O O16 0.799404 0.661387 0.497302
O O17 0.354068 0.500000 0.000000
O O18 0.951310 0.912769 0.041256
O O19 0.865308 0.000000 0.000000
#
# Coordination Sequence:
#
# PCOD9414732 Si02
#       8
#     8   8   8   8   8   8   8   2
#     4  10  18  31  51  79 116 155 200 242 288 352
#     4  10  21  34  51  79 116 155 196 240 293 365
#     4  12  23  36  63  91 119 160 208 257 314 375
#     4  10  21  36  57  85 123 167 206 251 307 367
#     4  11  23  43  68  92 120 159 208 260 312 373
#     4  11  23  40  61  90 127 163 207 262 318 380
#     4  10  20  35  57  85 121 155 206 255 303 357
#     4   8  20  36  58  88 124 164 208 260 308 358
#
# _framework density 19.627355000000001
#
# number of rings (size 3 to 8) (size 9 to 14) (size 15 to 20)
#    0.414    1.103    0.690    5.793    0.966    0.828 
#    0.000    0.000    0.000    5.793    0.000    0.000 
#    0.000    0.000    0.000    0.000    0.000    0.000 
#
# Total GULP energy -322987.891900 kJ/mol
# GULP energy per Si atom -5568.756757 kJ/mol
# Density = 1.958268 g / cm^3
# Si number density = 19.627355 Si / 1000 Ang^3
#
#
#
# Elastic Constant Matrix: (Units=GPa)
#
#
# Indices 1 2 3 4 5 6 
#
# 1 129.7545 15.9085 45.7464 0.0000 0.0000 0.0000
# 2 15.9085 49.9770 1.6133 0.0000 0.0000 0.0000
# 3 45.7464 1.6133 83.9646 0.0000 0.0000 0.0000
# 4 0.0000 0.0000 0.0000 21.3948 0.0000 0.0000
# 5 0.0000 0.0000 0.0000 0.0000 8.7810 0.0000
# 6 0.0000 0.0000 0.0000 0.0000 0.0000 8.2050
#
#
#
# Elastic Compliance Matrix: (Units=1/GPa)
#
#
# Indices 1 2 3 4 5 6 
#
# 1 0.009969 -0.003000 -0.005374 0.000000 0.000000 0.000000
# 2 -0.003000 0.020924 0.001232 0.000000 0.000000 0.000000
# 3 -0.005374 0.001232 0.014814 0.000000 0.000000 0.000000
# 4 0.000000 0.000000 0.000000 0.046740 0.000000 0.000000
# 5 0.000000 0.000000 0.000000 0.000000 0.113882 0.000000
# 6 0.000000 0.000000 0.000000 0.000000 0.000000 0.121877
#
#
# Mechanical properties :
#
#
# Convention : Reuss Voigt Hill
#
# Bulk Modulus (GPa) = 31.82207 43.35917 37.59062
# Shear Modulus (GPa) = 14.16571 21.03802 17.60186
#
# Velocity S-wave (km/s) = 2.68942 3.27750 2.99792
# Velocity P-wave (km/s) = 5.08845 6.03836 5.58364
#
# Compressibility (1/GPa) = 0.03142474
#
# Stress axis : x y z
#
# Youngs Moduli (GPa) = 100.30792 47.79119 67.50385
#
# Poissons Ratio (x) = 0.14337 0.36276
# Poissons Ratio (y) = 0.30092 -0.08319
# Poissons Ratio (z) = 0.53905 -0.05890
#
# Static dielectric constant tensor:
#      x y z
#    x 1.697100 0.000000 0.000000 
#    y 0.000000 1.712930 0.000000 
#    z 0.000000 0.000000 1.665220 
# 
# From -- ./inp_files/12556.got.cif
#   From: 2010.05.17/outbox.cif.g08.bks.cpg/sg53_7_cif.got.tgz:12556.got - 2010.06.03 12:45:16.
