data_PCOD9414099
_publ_section_title
;
Structure prediction by ZEFSAII (Michael W. Deem and Ramdas Pophale) SiO2 
 PCOD9414099
Probable space group: P M N A
;
_chemical_formula_sum "Si O2"
_cell_formula_units_Z 52
_cell_length_a 13.424902
_cell_length_b 10.104867
_cell_length_c 26.798771
_cell_angle_alpha 90.000000
_cell_angle_beta 90.000000
_cell_angle_gamma 90.000000
_cell_volume 3635.436836
_symmetry_space_group_name_H-M "P M N A"
_symmetry_group_IT_number 53
_symmetry_cell_setting 'orthorhombic'
loop_
_space_group_symop_operation_xyz
x,y,z
1/2-x,-y,1/2+z
x,-y,-z
1/2-x,y,1/2-z
-x,-y,-z
1/2+x,y,1/2-z
-x,y,z
1/2+x,-y,1/2+z
loop_
_atom_site_type_symbol
_atom_site_label
_atom_site_fract_x
_atom_site_fract_y
_atom_site_fract_z
Si Si1 0.878778 0.652852 0.492864
Si Si2 0.117373 0.748497 0.383566
Si Si3 0.250000 0.658755 0.750000
Si Si4 0.116832 0.905406 0.772108
Si Si5 0.794640 0.996116 0.667090
Si Si6 0.112235 0.532554 0.669600
Si Si7 0.115930 0.778593 0.595401
O O1 0.845826 0.500000 0.500000
O O2 0.849246 0.714259 0.439862
O O3 0.849513 0.744042 0.539639
O O4 0.000000 0.648566 0.493232
O O5 0.124529 0.612754 0.352652
O O6 0.000000 0.786135 0.385419
O O7 0.177093 0.864734 0.356930
O O8 0.166355 0.759272 0.771429
O O9 0.195795 0.571467 0.708870
O O10 0.182147 0.985154 0.812445
O O11 0.139890 0.963947 0.716801
O O12 0.000000 0.903696 0.781214
O O13 0.820675 0.883753 0.626471
O O14 0.116999 0.640268 0.625383
O O15 0.000000 0.543519 0.691252
O O16 0.000000 0.823947 0.594000
#
# Coordination Sequence:
#
# PCOD9414099 Si02
#       7
#     8   8   4   8   8   8   8
#     4   9  16  26  43  67  95 126 155 183 224 281
#     4  10  19  30  45  69 100 128 152 184 230 278
#     4  10  18  28  48  72  90 114 162 194 222 272
#     4  10  19  32  49  67  91 123 156 192 233 275
#     4  10  20  31  47  70  94 124 156 191 229 278
#     4  10  18  29  46  67  96 126 150 185 227 270
#     4  10  16  27  46  67  94 124 153 183 224 273
#
# _framework density 14.303646000000001
#
# number of rings (size 3 to 8) (size 9 to 14) (size 15 to 20)
#    0.000    2.308    4.615    1.846    0.000    1.846 
#    0.000    2.308    0.000    0.923    0.000    2.154 
#    0.000    2.462    0.000    0.000    0.000    0.000 
#
# Total GULP energy -289715.090225 kJ/mol
# GULP energy per Si atom -5571.444043 kJ/mol
# Density = 1.427109 g / cm^3
# Si number density = 14.303646 Si / 1000 Ang^3
#
#
#
# Elastic Constant Matrix: (Units=GPa)
#
#
# Indices 1 2 3 4 5 6 
#
# 1 93.1830 39.3118 52.6357 0.0000 0.0000 0.0000
# 2 39.3118 84.0474 49.5162 0.0000 0.0000 0.0000
# 3 52.6357 49.5162 111.0193 0.0000 0.0000 0.0000
# 4 0.0000 0.0000 0.0000 16.6986 0.0000 0.0000
# 5 0.0000 0.0000 0.0000 0.0000 20.4515 0.0000
# 6 0.0000 0.0000 0.0000 0.0000 0.0000 14.7085
#
#
#
# Elastic Compliance Matrix: (Units=1/GPa)
#
#
# Indices 1 2 3 4 5 6 
#
# 1 0.015581 -0.003982 -0.005611 0.000000 0.000000 0.000000
# 2 -0.003982 0.017156 -0.005764 0.000000 0.000000 0.000000
# 3 -0.005611 -0.005764 0.014239 0.000000 0.000000 0.000000
# 4 0.000000 0.000000 0.000000 0.059885 0.000000 0.000000
# 5 0.000000 0.000000 0.000000 0.000000 0.048896 0.000000
# 6 0.000000 0.000000 0.000000 0.000000 0.000000 0.067988
#
#
# Mechanical properties :
#
#
# Convention : Reuss Voigt Hill
#
# Bulk Modulus (GPa) = 61.49447 63.46414 62.47931
# Shear Modulus (GPa) = 19.23964 20.15748 19.69856
#
# Velocity S-wave (km/s) = 3.67152 3.75808 3.71505
# Velocity P-wave (km/s) = 7.81402 7.95590 7.88528
#
# Compressibility (1/GPa) = 0.01626162
#
# Stress axis : x y z
#
# Youngs Moduli (GPa) = 64.18072 58.28707 70.23147
#
# Poissons Ratio (x) = 0.23210 0.39408
# Poissons Ratio (y) = 0.25557 0.40482
# Poissons Ratio (z) = 0.36013 0.33597
#
# Static dielectric constant tensor:
#      x y z
#    x 1.456500 0.000000 0.000000 
#    y 0.000000 1.471770 0.000000 
#    z 0.000000 0.000000 1.478780 
# 
# From -- ./inp_files/37073.got.cif
#   From: 2010.05.17/outbox.cif.g08.bks.cpg/sg53_19_cif.got.tgz:37073.got - 2010.06.03 12:45:16.
