data_PCOD9414990
_publ_section_title
;
Structure prediction by ZEFSAII (Michael W. Deem and Ramdas Pophale) SiO2 
 PCOD9414990
Probable space group: P M N A
;
_chemical_formula_sum "Si O2"
_cell_formula_units_Z 64
_cell_length_a 17.311530
_cell_length_b 22.332926
_cell_length_c 9.515413
_cell_angle_alpha 90.000000
_cell_angle_beta 90.000000
_cell_angle_gamma 90.000000
_cell_volume 3678.821555
_symmetry_space_group_name_H-M "P M N A"
_symmetry_group_IT_number 53
_symmetry_cell_setting 'orthorhombic'
loop_
_space_group_symop_operation_xyz
x,y,z
1/2-x,-y,1/2+z
x,-y,-z
1/2-x,y,1/2-z
-x,-y,-z
1/2+x,y,1/2-z
-x,y,z
1/2+x,-y,1/2+z
loop_
_atom_site_type_symbol
_atom_site_label
_atom_site_fract_x
_atom_site_fract_y
_atom_site_fract_z
Si Si1 0.170301 0.253890 0.953482
Si Si2 0.091519 0.208713 0.466150
Si Si3 0.171549 0.323135 0.577911
Si Si4 0.158205 0.851324 0.258605
Si Si5 0.910188 0.638461 0.130015
Si Si6 0.092144 0.931620 0.028637
Si Si7 0.265283 0.561136 0.416621
Si Si8 0.830899 0.840642 0.810015
O O1 0.248971 0.285620 0.902597
O O2 0.141988 0.206615 0.838305
O O3 0.106091 0.304709 0.970025
O O4 0.187354 0.216990 0.093222
O O5 0.121504 0.277244 0.485090
O O6 0.130661 0.167598 0.587375
O O7 0.116098 0.181230 0.317473
O O8 0.000000 0.207562 0.485193
O O9 0.123349 0.338861 0.718704
O O10 0.205884 0.387323 0.528833
O O11 0.250000 0.860915 0.250000
O O12 0.117632 0.906682 0.181084
O O13 0.852550 0.586852 0.077109
O O14 0.000000 0.623100 0.138693
O O15 0.000000 0.927402 0.018433
O O16 0.129641 0.888823 0.911321
O O17 0.115380 0.000000 0.000000
O O18 0.256282 0.500000 0.500000
O O19 0.250000 0.553326 0.250000
O O20 0.750000 0.864011 0.750000
#
# Coordination Sequence:
#
# PCOD9414990 Si02
#       8
#     8   8   8   8   8   8   8   8
#     4  10  18  34  55  79 113 146 185 221 278 345
#     4  12  22  33  55  90 119 140 180 238 298 344
#     4  10  18  34  56  83 111 145 185 228 281 335
#     4  11  19  35  61  85 111 147 189 232 275 340
#     4  10  19  31  56  87 115 144 185 238 287 335
#     4  10  23  42  59  79 113 156 197 234 280 338
#     4   9  20  38  58  78 106 150 201 236 272 337
#     4  11  22  38  57  81 117 153 183 232 290 339
#
# _framework density 17.396875999999999
#
# number of rings (size 3 to 8) (size 9 to 14) (size 15 to 20)
#    0.000    1.625    3.750    3.000    0.000    3.250 
#    4.500    0.625    0.000   11.625    0.000    0.000 
#    0.000    0.000    0.000    0.000    0.000    0.000 
#
# Total GULP energy -356852.361525 kJ/mol
# GULP energy per Si atom -5575.818149 kJ/mol
# Density = 1.735728 g / cm^3
# Si number density = 17.396876 Si / 1000 Ang^3
#
#
#
# Elastic Constant Matrix: (Units=GPa)
#
#
# Indices 1 2 3 4 5 6 
#
# 1 109.4688 41.5184 21.4520 0.0000 0.0000 0.0000
# 2 41.5184 121.0862 38.5197 0.0000 0.0000 0.0000
# 3 21.4520 38.5197 73.1115 0.0000 0.0000 0.0000
# 4 0.0000 0.0000 0.0000 22.4167 0.0000 0.0000
# 5 0.0000 0.0000 0.0000 0.0000 17.8031 0.0000
# 6 0.0000 0.0000 0.0000 0.0000 0.0000 12.7741
#
#
#
# Elastic Compliance Matrix: (Units=1/GPa)
#
#
# Indices 1 2 3 4 5 6 
#
# 1 0.010625 -0.003185 -0.001439 0.000000 0.000000 0.000000
# 2 -0.003185 0.010876 -0.004796 0.000000 0.000000 0.000000
# 3 -0.001439 -0.004796 0.016627 0.000000 0.000000 0.000000
# 4 0.000000 0.000000 0.000000 0.044610 0.000000 0.000000
# 5 0.000000 0.000000 0.000000 0.000000 0.056170 0.000000
# 6 0.000000 0.000000 0.000000 0.000000 0.000000 0.078283
#
#
# Mechanical properties :
#
#
# Convention : Reuss Voigt Hill
#
# Bulk Modulus (GPa) = 51.84705 56.29407 54.07056
# Shear Modulus (GPa) = 20.62184 24.07719 22.34952
#
# Velocity S-wave (km/s) = 3.44666 3.72424 3.58814
# Velocity P-wave (km/s) = 6.76066 7.13599 6.95086
#
# Compressibility (1/GPa) = 0.01928750
#
# Stress axis : x y z
#
# Youngs Moduli (GPa) = 94.11602 91.94239 60.14396
#
# Poissons Ratio (x) = 0.29286 0.08657
# Poissons Ratio (y) = 0.29979 0.28843
# Poissons Ratio (z) = 0.13547 0.44093
#
# Static dielectric constant tensor:
#      x y z
#    x 1.600870 0.000000 0.000000 
#    y 0.000000 1.598210 0.000000 
#    z 0.000000 0.000000 1.604550 
# 
# From -- ./inp_files/10206.got.cif
#   From: 2010.05.17/outbox.cif.g08.bks.cpg/sg53_6_cif.got.tgz:10206.got - 2010.06.03 12:45:16.
