data_PCOD9414120
_publ_section_title
;
Structure prediction by ZEFSAII (Michael W. Deem and Ramdas Pophale) SiO2 
 PCOD9414120
Probable space group: P M N A
;
_chemical_formula_sum "Si O2"
_cell_formula_units_Z 36
_cell_length_a 24.098832
_cell_length_b 7.397725
_cell_length_c 11.791986
_cell_angle_alpha 90.000000
_cell_angle_beta 90.000000
_cell_angle_gamma 90.000000
_cell_volume 2102.234369
_symmetry_space_group_name_H-M "P M N A"
_symmetry_group_IT_number 53
_symmetry_cell_setting 'orthorhombic'
loop_
_space_group_symop_operation_xyz
x,y,z
1/2-x,-y,1/2+z
x,-y,-z
1/2-x,y,1/2-z
-x,-y,-z
1/2+x,y,1/2-z
-x,y,z
1/2+x,-y,1/2+z
loop_
_atom_site_type_symbol
_atom_site_label
_atom_site_fract_x
_atom_site_fract_y
_atom_site_fract_z
Si Si1 0.672776 0.427131 0.783735
Si Si2 0.285369 0.831686 0.848902
Si Si3 0.620859 0.000000 0.000000
Si Si4 0.267572 0.315401 0.561236
Si Si5 0.936438 0.351837 0.599779
O O1 0.694274 0.635902 0.797589
O O2 0.705584 0.333936 0.887551
O O3 0.692940 0.322225 0.671058
O O4 0.607874 0.410090 0.805248
O O5 0.250000 0.925563 0.750000
O O6 0.339123 0.928130 0.899381
O O7 0.242247 0.812834 0.953984
O O8 0.583601 0.837776 0.047593
O O9 0.283664 0.500000 0.500000
O O10 0.932409 0.500000 0.500000
O O11 0.000000 0.342860 0.638611
#
# Coordination Sequence:
#
# PCOD9414120 Si02
#       5
#     8   8   4   8   8
#     4  10  16  32  57  76 110 144 174 225 274 326
#     4  11  20  32  53  87 117 143 178 226 278 339
#     4  12  23  34  52  80 118 142 183 220 274 338
#     4   9  15  28  54  80 106 143 170 213 279 329
#     4  11  22  37  56  78 107 149 189 230 275 315
#
# _framework density 17.124637
#
# number of rings (size 3 to 8) (size 9 to 14) (size 15 to 20)
#    0.000    1.556    8.889    1.000    0.000    1.778 
#    0.000    0.000    0.000    0.667    0.000    1.556 
#    0.000    0.000    0.000    0.000    0.000    0.000 
#
# Total GULP energy -200466.330323 kJ/mol
# GULP energy per Si atom -5568.509176 kJ/mol
# Density = 1.708566 g / cm^3
# Si number density = 17.124637 Si / 1000 Ang^3
#
#
#
# Elastic Constant Matrix: (Units=GPa)
#
#
# Indices 1 2 3 4 5 6 
#
# 1 141.0634 30.7578 43.2357 0.0000 0.0000 0.0000
# 2 30.7578 74.8627 16.5164 0.0000 0.0000 0.0000
# 3 43.2357 16.5164 91.4916 0.0000 0.0000 0.0000
# 4 0.0000 0.0000 0.0000 9.7550 0.0000 0.0000
# 5 0.0000 0.0000 0.0000 0.0000 20.7088 0.0000
# 6 0.0000 0.0000 0.0000 0.0000 0.0000 6.6957
#
#
#
# Elastic Compliance Matrix: (Units=1/GPa)
#
#
# Indices 1 2 3 4 5 6 
#
# 1 0.008826 -0.002818 -0.003662 0.000000 0.000000 0.000000
# 2 -0.002818 0.014812 -0.001342 0.000000 0.000000 0.000000
# 3 -0.003662 -0.001342 0.012903 0.000000 0.000000 0.000000
# 4 0.000000 0.000000 0.000000 0.102512 0.000000 0.000000
# 5 0.000000 0.000000 0.000000 0.000000 0.048289 0.000000
# 6 0.000000 0.000000 0.000000 0.000000 0.000000 0.149350
#
#
# Mechanical properties :
#
#
# Convention : Reuss Voigt Hill
#
# Bulk Modulus (GPa) = 47.85663 54.27083 51.06373
# Shear Modulus (GPa) = 13.91590 21.89240 17.90415
#
# Velocity S-wave (km/s) = 2.85375 3.57937 3.23696
# Velocity P-wave (km/s) = 6.23420 6.98878 6.62225
#
# Compressibility (1/GPa) = 0.02089575
#
# Stress axis : x y z
#
# Youngs Moduli (GPa) = 113.30254 67.51381 77.50257
#
# Poissons Ratio (x) = 0.19027 0.28382
# Poissons Ratio (y) = 0.31932 0.10401
# Poissons Ratio (z) = 0.41492 0.09061
#
# Static dielectric constant tensor:
#      x y z
#    x 1.571680 0.000000 0.000000 
#    y 0.000000 1.669160 0.000000 
#    z 0.000000 0.000000 1.677200 
# 
# From -- ./inp_files/18172.got.cif
#   From: 2010.05.17/outbox.cif.g08.bks.cpg/sg53_10_cif.got.tgz:18172.got - 2010.06.03 12:45:16.
