data_PCOD9414882
_publ_section_title
;
Structure prediction by ZEFSAII (Michael W. Deem and Ramdas Pophale) SiO2 
 PCOD9414882
Probable space group: P M N A
;
_chemical_formula_sum "Si O2"
_cell_formula_units_Z 40
_cell_length_a 14.527189
_cell_length_b 12.982718
_cell_length_c 10.588117
_cell_angle_alpha 90.000000
_cell_angle_beta 90.000000
_cell_angle_gamma 90.000000
_cell_volume 1996.944258
_symmetry_space_group_name_H-M "P M N A"
_symmetry_group_IT_number 53
_symmetry_cell_setting 'orthorhombic'
loop_
_space_group_symop_operation_xyz
x,y,z
1/2-x,-y,1/2+z
x,-y,-z
1/2-x,y,1/2-z
-x,-y,-z
1/2+x,y,1/2-z
-x,y,z
1/2+x,-y,1/2+z
loop_
_atom_site_type_symbol
_atom_site_label
_atom_site_fract_x
_atom_site_fract_y
_atom_site_fract_z
Si Si1 0.726939 0.919972 0.603391
Si Si2 0.357296 0.579636 0.105908
Si Si3 0.349882 0.498941 0.365938
Si Si4 0.102622 0.208802 0.473695
Si Si5 0.605973 0.273143 0.317292
O O1 0.750000 0.954714 0.750000
O O2 0.819246 0.877091 0.535737
O O3 0.658436 0.823342 0.622300
O O4 0.688269 0.000000 0.500000
O O5 0.394375 0.549956 0.243581
O O6 0.247764 0.556222 0.114679
O O7 0.392707 0.500000 0.000000
O O8 0.375312 0.696223 0.065947
O O9 0.399006 0.500000 0.500000
O O10 0.338804 0.378013 0.339025
O O11 0.102787 0.255438 0.332574
O O12 0.000000 0.168814 0.501068
O O13 0.500000 0.282773 0.361260
#
# Coordination Sequence:
#
# PCOD9414882 Si02
#       5
#     8   8   8   8   8
#     4  10  22  42  66  89 116 154 200 255 315 364
#     4  10  18  32  56  84 116 159 199 237 277 348
#     4  10  20  32  53  84 124 162 192 237 292 345
#     4  10  21  38  63  90 116 155 206 251 294 353
#     4  10  21  38  62  87 118 160 204 245 294 361
#
# _framework density 20.030604
#
# number of rings (size 3 to 8) (size 9 to 14) (size 15 to 20)
#    0.000    2.000    2.000    2.400    5.600    2.400 
#    7.200    0.000    0.000    0.000    0.000    0.000 
#    0.000    0.000    0.000    0.000    0.000    0.000 
#
# Total GULP energy -223073.005614 kJ/mol
# GULP energy per Si atom -5576.825140 kJ/mol
# Density = 1.998501 g / cm^3
# Si number density = 20.030604 Si / 1000 Ang^3
#
#
#
# Elastic Constant Matrix: (Units=GPa)
#
#
# Indices 1 2 3 4 5 6 
#
# 1 109.2593 21.1380 21.2917 0.0000 0.0000 0.0000
# 2 21.1380 83.4335 46.4583 0.0000 0.0000 0.0000
# 3 21.2917 46.4583 131.6908 0.0000 0.0000 0.0000
# 4 0.0000 0.0000 0.0000 40.5301 0.0000 0.0000
# 5 0.0000 0.0000 0.0000 0.0000 17.8362 0.0000
# 6 0.0000 0.0000 0.0000 0.0000 0.0000 -123.1351
#
#
#
# Elastic Compliance Matrix: (Units=1/GPa)
#
#
# Indices 1 2 3 4 5 6 
#
# 1 0.009704 -0.001972 -0.000873 0.000000 0.000000 0.000000
# 2 -0.001972 0.015317 -0.005085 0.000000 0.000000 0.000000
# 3 -0.000873 -0.005085 0.009528 0.000000 0.000000 0.000000
# 4 0.000000 0.000000 0.000000 0.024673 0.000000 0.000000
# 5 0.000000 0.000000 0.000000 0.000000 0.056066 0.000000
# 6 0.000000 0.000000 0.000000 0.000000 0.000000 -0.008121
#
#
# Mechanical properties :
#
#
# Convention : Reuss Voigt Hill
#
# Bulk Modulus (GPa) = 53.50707 55.79550 54.65129
# Shear Modulus (GPa) = 38.68276 2.74595 20.71436
#
# Velocity S-wave (km/s) = 4.39929 1.17212 3.21929
# Velocity P-wave (km/s) = 7.25091 5.45412 6.41573
#
# Compressibility (1/GPa) = 0.01868912
#
# Stress axis : x y z
#
# Youngs Moduli (GPa) = 103.04730 65.28904 104.94890
#
# Poissons Ratio (x) = 0.12878 0.09164
# Poissons Ratio (y) = 0.20325 0.53361
# Poissons Ratio (z) = 0.08998 0.33196
#
# Static dielectric constant tensor:
#      x y z
#    x 1.771070 0.000000 0.000000 
#    y 0.000000 1.678380 0.000000 
#    z 0.000000 0.000000 1.758200 
# 
# From -- ./inp_files/15777.got.cif
#   From: 2010.05.17/outbox.cif.g08.bks.cpg/sg53_8_cif.got.tgz:15777.got - 2010.06.03 12:45:16.
