data_PCOD9414953
_publ_section_title
;
Structure prediction by ZEFSAII (Michael W. Deem and Ramdas Pophale) SiO2 
 PCOD9414953
Probable space group: P M N A
;
_chemical_formula_sum "Si O2"
_cell_formula_units_Z 64
_cell_length_a 17.338448
_cell_length_b 10.199706
_cell_length_c 15.816732
_cell_angle_alpha 90.000000
_cell_angle_beta 90.000000
_cell_angle_gamma 90.000000
_cell_volume 2797.142744
_symmetry_space_group_name_H-M "P M N A"
_symmetry_group_IT_number 53
_symmetry_cell_setting 'orthorhombic'
loop_
_space_group_symop_operation_xyz
x,y,z
1/2-x,-y,1/2+z
x,-y,-z
1/2-x,y,1/2-z
-x,-y,-z
1/2+x,y,1/2-z
-x,y,z
1/2+x,-y,1/2+z
loop_
_atom_site_type_symbol
_atom_site_label
_atom_site_fract_x
_atom_site_fract_y
_atom_site_fract_z
Si Si1 0.912360 0.391611 0.073954
Si Si2 0.254159 0.519039 0.655294
Si Si3 0.165226 0.238093 0.406079
Si Si4 0.664844 0.865165 0.593000
Si Si5 0.084008 0.229297 0.754413
Si Si6 0.841474 0.295249 0.587060
Si Si7 0.913485 0.087948 0.263796
Si Si8 0.214595 0.121372 0.842118
O O1 0.839939 0.433719 0.132292
O O2 0.890130 0.240829 0.047922
O O3 0.000000 0.391615 0.108713
O O4 0.911333 0.500000 0.000000
O O5 0.250000 0.466657 0.750000
O O6 0.193280 0.638539 0.648779
O O7 0.219369 0.413530 0.590887
O O8 0.247675 0.172240 0.425653
O O9 0.126570 0.281703 0.493520
O O10 0.113824 0.139543 0.353333
O O11 0.641763 0.851215 0.692549
O O12 0.667269 0.023836 0.596181
O O13 0.100251 0.301190 0.665884
O O14 0.156463 0.238962 0.817044
O O15 0.000000 0.265999 0.788357
O O16 0.084831 0.070604 0.739823
O O17 0.789458 0.169729 0.609899
O O18 0.000000 0.131899 0.244771
O O19 0.250000 0.072101 0.750000
#
# Coordination Sequence:
#
# PCOD9414953 Si02
#       8
#     8   8   8   8   8   8   8   8
#     4  10  21  38  60  86 116 149 185 231 288 341
#     4  11  22  39  61  83 109 148 197 239 277 336
#     4  11  21  34  55  83 114 146 186 236 285 336
#     4  10  18  33  57  83 110 141 187 236 277 324
#     4   9  19  36  58  82 112 152 193 231 277 337
#     4  11  22  37  56  82 118 151 185 233 291 348
#     4  10  20  35  57  85 114 149 194 239 281 330
#     4   9  18  34  57  84 113 149 193 236 279 331
#
# _framework density 22.880492
#
# number of rings (size 3 to 8) (size 9 to 14) (size 15 to 20)
#    0.000    1.875    0.000    7.500    0.000    3.500 
#    0.000    4.375    0.000    5.250    0.000   14.000 
#    0.000    0.000    0.000    0.000    0.000    0.000 
#
# Total GULP energy -356917.334234 kJ/mol
# GULP energy per Si atom -5576.833347 kJ/mol
# Density = 2.282842 g / cm^3
# Si number density = 22.880492 Si / 1000 Ang^3
#
#
#
# Elastic Constant Matrix: (Units=GPa)
#
#
# Indices 1 2 3 4 5 6 
#
# 1 63.4285 4.8463 -1.1988 0.0000 0.0000 0.0000
# 2 4.8463 67.1610 -6.4932 0.0000 0.0000 0.0000
# 3 -1.1988 -6.4932 43.6032 0.0000 0.0000 0.0000
# 4 0.0000 0.0000 0.0000 26.7848 0.0000 0.0000
# 5 0.0000 0.0000 0.0000 0.0000 10.3292 0.0000
# 6 0.0000 0.0000 0.0000 0.0000 0.0000 15.0955
#
#
#
# Elastic Compliance Matrix: (Units=1/GPa)
#
#
# Indices 1 2 3 4 5 6 
#
# 1 0.015856 -0.001118 0.000269 0.000000 0.000000 0.000000
# 2 -0.001118 0.015186 0.002231 0.000000 0.000000 0.000000
# 3 0.000269 0.002231 0.023274 0.000000 0.000000 0.000000
# 4 0.000000 0.000000 0.000000 0.037335 0.000000 0.000000
# 5 0.000000 0.000000 0.000000 0.000000 0.096812 0.000000
# 6 0.000000 0.000000 0.000000 0.000000 0.000000 0.066245
#
#
# Mechanical properties :
#
#
# Convention : Reuss Voigt Hill
#
# Bulk Modulus (GPa) = 17.51929 18.72236 18.12083
# Shear Modulus (GPa) = 18.45219 22.24447 20.34833
#
# Velocity S-wave (km/s) = 2.84290 3.12140 2.98540
# Velocity P-wave (km/s) = 4.29530 4.60340 4.45202
#
# Compressibility (1/GPa) = 0.05707993
#
# Stress axis : x y z
#
# Youngs Moduli (GPa) = 63.06637 65.85035 42.96695
#
# Poissons Ratio (x) = 0.07363 -0.01158
# Poissons Ratio (y) = 0.07052 -0.09585
# Poissons Ratio (z) = -0.01699 -0.14689
#
# Static dielectric constant tensor:
#      x y z
#    x 1.870800 0.000000 0.000000 
#    y 0.000000 1.950710 0.000000 
#    z 0.000000 0.000000 1.905260 
# 
# From -- ./inp_files/23905.got.cif
#   From: 2010.05.17/outbox.cif.g08.bks.cpg/sg53_12_cif.got.tgz:23905.got - 2010.06.03 12:45:16.
