data_PCOD9414866
_publ_section_title
;
Structure prediction by ZEFSAII (Michael W. Deem and Ramdas Pophale) SiO2 
 PCOD9414866
Probable space group: P M N A
;
_chemical_formula_sum "Si O2"
_cell_formula_units_Z 64
_cell_length_a 18.267240
_cell_length_b 15.403030
_cell_length_c 13.879820
_cell_angle_alpha 90.000000
_cell_angle_beta 90.000000
_cell_angle_gamma 90.000000
_cell_volume 3905.376692
_symmetry_space_group_name_H-M "P M N A"
_symmetry_group_IT_number 53
_symmetry_cell_setting 'orthorhombic'
loop_
_space_group_symop_operation_xyz
x,y,z
1/2-x,-y,1/2+z
x,-y,-z
1/2-x,y,1/2-z
-x,-y,-z
1/2+x,y,1/2-z
-x,y,z
1/2+x,-y,1/2+z
loop_
_atom_site_type_symbol
_atom_site_label
_atom_site_fract_x
_atom_site_fract_y
_atom_site_fract_z
Si Si1 0.678094 0.199179 0.694607
Si Si2 0.085482 0.254983 0.101654
Si Si3 0.688698 0.354579 0.543528
Si Si4 0.162971 0.663721 0.734876
Si Si5 0.086399 0.094703 0.960795
Si Si6 0.834141 0.528258 0.211662
Si Si7 0.913871 0.675309 0.329174
Si Si8 0.351246 0.602972 0.981406
O O1 0.750000 0.165797 0.750000
O O2 0.701654 0.277017 0.621452
O O3 0.634296 0.130769 0.628412
O O4 0.626671 0.246305 0.773848
O O5 0.118012 0.263363 0.208646
O O6 0.000000 0.277388 0.101240
O O7 0.132761 0.318610 0.034194
O O8 0.093858 0.162278 0.049298
O O9 0.658790 0.433486 0.605991
O O10 0.765023 0.384816 0.500252
O O11 0.250000 0.680511 0.750000
O O12 0.147462 0.571794 0.785691
O O13 0.139803 0.641457 0.625665
O O14 0.000000 0.093616 0.933475
O O15 0.107052 0.000000 0.000000
O O16 0.750000 0.537454 0.250000
O O17 0.883840 0.587290 0.279710
O O18 0.893230 0.661453 0.440526
O O19 0.000000 0.683683 0.316197
O O20 0.368774 0.500000 0.000000
#
# Coordination Sequence:
#
# PCOD9414866 Si02
#       8
#     8   8   8   8   8   8   8   8
#     4  10  18  34  59  82 108 137 170 215 265 315
#     4  10  22  36  52  79 105 128 167 221 270 321
#     4  10  18  32  55  72  98 137 181 219 263 309
#     4  11  21  33  52  70  99 144 185 219 262 312
#     4   9  19  38  63  86 109 135 164 209 274 334
#     4  10  18  33  49  69  96 140 183 223 262 301
#     4  11  21  32  48  76 106 139 184 225 259 296
#     4  12  20  34  52  69  98 151 198 221 251 304
#
# _framework density 16.387664000000001
#
# number of rings (size 3 to 8) (size 9 to 14) (size 15 to 20)
#    0.000    1.625    5.000    1.875    0.000    4.250 
#    0.000    1.250    0.000    0.000    0.000    0.000 
#    0.000    5.000    0.000    0.000    0.000    0.000 
#
# Total GULP energy -356919.761816 kJ/mol
# GULP energy per Si atom -5576.871278 kJ/mol
# Density = 1.635037 g / cm^3
# Si number density = 16.387664 Si / 1000 Ang^3
#
#
#
# Elastic Constant Matrix: (Units=GPa)
#
#
# Indices 1 2 3 4 5 6 
#
# 1 75.9644 37.0864 35.5913 0.0000 0.0000 0.0000
# 2 37.0864 66.8006 42.1718 0.0000 0.0000 0.0000
# 3 35.5913 42.1718 112.3421 0.0000 0.0000 0.0000
# 4 0.0000 0.0000 0.0000 19.3117 0.0000 0.0000
# 5 0.0000 0.0000 0.0000 0.0000 21.7950 0.0000
# 6 0.0000 0.0000 0.0000 0.0000 0.0000 17.9906
#
#
#
# Elastic Compliance Matrix: (Units=1/GPa)
#
#
# Indices 1 2 3 4 5 6 
#
# 1 0.018641 -0.008677 -0.002648 0.000000 0.000000 0.000000
# 2 -0.008677 0.023659 -0.006132 0.000000 0.000000 0.000000
# 3 -0.002648 -0.006132 0.012042 0.000000 0.000000 0.000000
# 4 0.000000 0.000000 0.000000 0.051782 0.000000 0.000000
# 5 0.000000 0.000000 0.000000 0.000000 0.045882 0.000000
# 6 0.000000 0.000000 0.000000 0.000000 0.000000 0.055585
#
#
# Mechanical properties :
#
#
# Convention : Reuss Voigt Hill
#
# Bulk Modulus (GPa) = 51.47573 53.86733 52.67153
# Shear Modulus (GPa) = 20.08175 21.16995 20.62585
#
# Velocity S-wave (km/s) = 3.50440 3.59809 3.55155
# Velocity P-wave (km/s) = 6.91765 7.08546 7.00206
#
# Compressibility (1/GPa) = 0.01942663
#
# Stress axis : x y z
#
# Youngs Moduli (GPa) = 53.64453 42.26788 83.04034
#
# Poissons Ratio (x) = 0.36677 0.21993
# Poissons Ratio (y) = 0.46549 0.50921
# Poissons Ratio (z) = 0.14207 0.25919
#
# Static dielectric constant tensor:
#      x y z
#    x 1.549080 0.000000 0.000000 
#    y 0.000000 1.530670 0.000000 
#    z 0.000000 0.000000 1.621250 
# 
# From -- ./inp_files/23955.got.cif
#   From: 2010.05.17/outbox.cif.g08.bks.cpg/sg53_12_cif.got.tgz:23955.got - 2010.06.03 12:45:16.
