data_PCOD9414008
_publ_section_title
;
Structure prediction by ZEFSAII (Michael W. Deem and Ramdas Pophale) SiO2 
 PCOD9414008
Probable space group: P N N A
;
_chemical_formula_sum "Si O2"
_cell_formula_units_Z 48
_cell_length_a 15.000000
_cell_length_b 9.000000
_cell_length_c 18.000000
_cell_angle_alpha 90.000000
_cell_angle_beta 90.000000
_cell_angle_gamma 90.000000
_cell_volume 2430.000000
_symmetry_space_group_name_H-M "P N N A"
_symmetry_group_IT_number 52
_symmetry_cell_setting 'orthorhombic'
loop_
_space_group_symop_operation_xyz
x,y,z
1/2-x,-y,z
x,1/2-y,1/2-z
1/2-x,1/2+y,1/2-z
-x,-y,-z
1/2+x,y,-z
-x,1/2+y,1/2+z
1/2+x,1/2-y,1/2+z
loop_
_atom_site_type_symbol
_atom_site_label
_atom_site_fract_x
_atom_site_fract_y
_atom_site_fract_z
Si Si1 0.000003 0.855208 0.680508
Si Si2 0.348530 0.445276 0.105298
Si Si3 0.531926 0.664921 0.471380
Si Si4 0.871341 0.848947 0.471327
Si Si5 0.840729 0.592622 0.201967
Si Si6 0.714331 0.839617 0.952978
O O1 0.975868 0.750000 0.750000
O O2 0.019268 0.740589 0.610932
O O3 0.079956 0.967696 0.705683
O O4 0.922124 0.967293 0.652474
O O5 0.250000 0.500000 0.126471
O O6 0.336469 0.267161 0.106096
O O7 0.366301 0.498594 0.019339
O O8 0.500000 0.500000 0.500000
O O9 0.469354 0.776031 0.520656
O O10 0.637699 0.650963 0.484783
O O11 0.843251 0.865875 0.386036
O O12 0.800406 0.744923 0.514367
O O13 0.750000 0.500000 0.219850
O O14 0.848613 0.750000 0.250000
O O15 0.750000 0.000000 0.927593
#
# Coordination Sequence:
#
# PCOD9414008 Si02
#       6
#     8   8   8   8   8   8
#     4  11  25  45  67  94 138 178 224 281 337 404
#     4   9  20  42  69  93 123 168 215 278 335 387
#     4  11  22  38  66  98 127 171 222 277 329 395
#     4  10  21  40  64  94 128 166 221 269 328 388
#     4  12  26  43  64  96 138 184 221 271 337 407
#     4  11  20  34  62 100 127 160 218 275 322 388
#
# _framework density 19.753086
#
# number of rings (size 3 to 8) (size 9 to 14) (size 15 to 20)
#    0.000    1.333    1.667    5.000    2.333    3.333 
#    0.000    0.833    7.333    0.000    0.000    0.000 
#    0.000    0.000    0.000    0.000    0.000    0.000 
#
# Total GULP energy -267566.444586 kJ/mol
# GULP energy per Si atom -5574.300929 kJ/mol
# Density = 1.970813 g / cm^3
# Si number density = 19.753086 Si / 1000 Ang^3
#
#
#
# Elastic Constant Matrix: (Units=GPa)
#
#
# Indices 1 2 3 4 5 6 
#
# 1 129.8550 56.2262 30.0525 0.0000 0.0000 0.0000
# 2 56.2262 176.3286 53.3901 0.0000 0.0000 0.0000
# 3 30.0525 53.3901 93.1931 0.0000 0.0000 0.0000
# 4 0.0000 0.0000 0.0000 23.3790 0.0000 0.0000
# 5 0.0000 0.0000 0.0000 0.0000 14.8908 0.0000
# 6 0.0000 0.0000 0.0000 0.0000 0.0000 51.7713
#
#
#
# Elastic Compliance Matrix: (Units=1/GPa)
#
#
# Indices 1 2 3 4 5 6 
#
# 1 0.009114 -0.002439 -0.001541 0.000000 0.000000 0.000000
# 2 -0.002439 0.007514 -0.003518 0.000000 0.000000 0.000000
# 3 -0.001541 -0.003518 0.013243 0.000000 0.000000 0.000000
# 4 0.000000 0.000000 0.000000 0.042773 0.000000 0.000000
# 5 0.000000 0.000000 0.000000 0.000000 0.067156 0.000000
# 6 0.000000 0.000000 0.000000 0.000000 0.000000 0.019316
#
#
# Mechanical properties :
#
#
# Convention : Reuss Voigt Hill
#
# Bulk Modulus (GPa) = 67.23599 75.41272 71.32436
# Shear Modulus (GPa) = 27.92170 35.32207 31.62188
#
# Velocity S-wave (km/s) = 3.76378 4.23328 4.00541
# Velocity P-wave (km/s) = 7.28012 7.88383 7.58798
#
# Compressibility (1/GPa) = 0.01487299
#
# Stress axis : x y z
#
# Youngs Moduli (GPa) = 109.72264 133.07785 75.51078
#
# Poissons Ratio (x) = 0.32463 0.11640
# Poissons Ratio (y) = 0.26766 0.26567
# Poissons Ratio (z) = 0.16913 0.46821
#
# Static dielectric constant tensor:
#      x y z
#    x 1.720760 0.000000 0.000000 
#    y 0.000000 1.752320 0.000000 
#    z 0.000000 0.000000 1.695880 
# 
# From -- ./inp_files/33066.got.cif
#   From: 2010.05.17/outbox.ucp.g08.bks.cvg/sg52_17_cif.got.tgz:33066.got - 2010.06.11 16:30:12.
