data_PCOD9414280
_publ_section_title
;
Structure prediction by ZEFSAII (Michael W. Deem and Ramdas Pophale) SiO2 
 PCOD9414280
Probable space group: P M N A
;
_chemical_formula_sum "Si O2"
_cell_formula_units_Z 48
_cell_length_a 13.743611
_cell_length_b 13.712841
_cell_length_c 13.816029
_cell_angle_alpha 90.000000
_cell_angle_beta 90.000000
_cell_angle_gamma 90.000000
_cell_volume 2603.823432
_symmetry_space_group_name_H-M "P M N A"
_symmetry_group_IT_number 53
_symmetry_cell_setting 'orthorhombic'
loop_
_space_group_symop_operation_xyz
x,y,z
1/2-x,-y,1/2+z
x,-y,-z
1/2-x,y,1/2-z
-x,-y,-z
1/2+x,y,1/2-z
-x,y,z
1/2+x,-y,1/2+z
loop_
_atom_site_type_symbol
_atom_site_label
_atom_site_fract_x
_atom_site_fract_y
_atom_site_fract_z
Si Si1 0.198912 0.054587 0.397600
Si Si2 0.610510 0.993409 0.303978
Si Si3 0.885566 0.731670 0.581485
Si Si4 0.887549 0.480880 0.383934
Si Si5 0.110777 0.764862 0.172910
Si Si6 0.311557 0.315925 0.871425
O O1 0.165639 0.166637 0.396712
O O2 0.181269 0.000000 0.500000
O O3 0.143835 0.001763 0.308184
O O4 0.312251 0.050067 0.369223
O O5 0.500000 0.027911 0.313051
O O6 0.615944 0.881154 0.337276
O O7 0.853556 0.630176 0.632520
O O8 0.868529 0.710403 0.468277
O O9 0.000000 0.742336 0.600689
O O10 0.888649 0.500000 0.500000
O O11 0.824138 0.570178 0.345972
O O12 0.000000 0.490434 0.351028
O O13 0.139448 0.742137 0.283747
O O14 0.199019 0.714110 0.115909
O O15 0.000000 0.733070 0.152382
#
# Coordination Sequence:
#
# PCOD9414280 Si02
#       6
#     8   8   8   8   8   8
#     4  11  21  35  56  81 105 136 183 225 260 307
#     4  10  22  38  52  74 112 145 171 215 270 318
#     4  10  19  31  51  77 101 129 168 212 256 303
#     4   8  15  28  47  71  97 124 156 202 260 310
#     4  10  19  31  49  72 100 133 167 208 257 305
#     4  10  17  30  51  74 100 127 164 212 257 303
#
# _framework density 18.434429999999999
#
# number of rings (size 3 to 8) (size 9 to 14) (size 15 to 20)
#    0.000    2.167    0.000    7.000    0.000    3.000 
#    0.000    4.167    0.000    7.500    0.000    0.000 
#    0.000    0.000    0.000    0.000    0.000    0.000 
#
# Total GULP energy -267563.279312 kJ/mol
# GULP energy per Si atom -5574.234986 kJ/mol
# Density = 1.839247 g / cm^3
# Si number density = 18.434430 Si / 1000 Ang^3
#
#
#
# Elastic Constant Matrix: (Units=GPa)
#
#
# Indices 1 2 3 4 5 6 
#
# 1 111.9799 68.7474 -0.6262 0.0000 0.0000 0.0000
# 2 68.7474 129.1671 13.3284 0.0000 0.0000 0.0000
# 3 -0.6262 13.3284 14.3281 0.0000 0.0000 0.0000
# 4 0.0000 0.0000 0.0000 11.9199 0.0000 0.0000
# 5 0.0000 0.0000 0.0000 0.0000 17.2747 0.0000
# 6 0.0000 0.0000 0.0000 0.0000 0.0000 23.9408
#
#
#
# Elastic Compliance Matrix: (Units=1/GPa)
#
#
# Indices 1 2 3 4 5 6 
#
# 1 0.014127 -0.008387 0.008420 0.000000 0.000000 0.000000
# 2 -0.008387 0.013544 -0.012966 0.000000 0.000000 0.000000
# 3 0.008420 -0.012966 0.082222 0.000000 0.000000 0.000000
# 4 0.000000 0.000000 0.000000 0.083893 0.000000 0.000000
# 5 0.000000 0.000000 0.000000 0.000000 0.057888 0.000000
# 6 0.000000 0.000000 0.000000 0.000000 0.000000 0.041770
#
#
# Mechanical properties :
#
#
# Convention : Reuss Voigt Hill
#
# Bulk Modulus (GPa) = 11.90112 46.48605 29.19358
# Shear Modulus (GPa) = 14.39601 22.22878 18.31239
#
# Velocity S-wave (km/s) = 2.79754 3.47627 3.15521
# Velocity P-wave (km/s) = 4.11156 6.43307 5.39858
#
# Compressibility (1/GPa) = 0.08402571
#
# Stress axis : x y z
#
# Youngs Moduli (GPa) = 70.78886 73.83409 12.16220
#
# Poissons Ratio (x) = 0.61928 -0.10240
# Poissons Ratio (y) = 0.59374 0.15769
# Poissons Ratio (z) = -0.59602 0.95730
#
# Static dielectric constant tensor:
#      x y z
#    x 1.654210 0.000000 0.000000 
#    y 0.000000 1.672530 0.000000 
#    z 0.000000 0.000000 1.637350 
# 
# From -- ./inp_files/22694.got.cif
#   From: 2010.05.17/outbox.cif.g08.bks.cpg/sg53_12_cif.got.tgz:22694.got - 2010.06.03 12:45:16.
