data_PCOD9414611
_publ_section_title
;
Structure prediction by ZEFSAII (Michael W. Deem and Ramdas Pophale) SiO2 
 PCOD9414611
Probable space group: P M N A
;
_chemical_formula_sum "Si O2"
_cell_formula_units_Z 40
_cell_length_a 8.601351
_cell_length_b 13.460390
_cell_length_c 19.775818
_cell_angle_alpha 90.000000
_cell_angle_beta 90.000000
_cell_angle_gamma 90.000000
_cell_volume 2289.595539
_symmetry_space_group_name_H-M "P M N A"
_symmetry_group_IT_number 53
_symmetry_cell_setting 'orthorhombic'
loop_
_space_group_symop_operation_xyz
x,y,z
1/2-x,-y,1/2+z
x,-y,-z
1/2-x,y,1/2-z
-x,-y,-z
1/2+x,y,1/2-z
-x,y,z
1/2+x,-y,1/2+z
loop_
_atom_site_type_symbol
_atom_site_label
_atom_site_fract_x
_atom_site_fract_y
_atom_site_fract_z
Si Si1 0.813346 0.789574 0.673577
Si Si2 0.186366 0.995955 0.826705
Si Si3 0.689103 0.389042 0.077882
Si Si4 0.687839 0.386460 0.921841
Si Si5 0.685951 0.784917 0.326249
O O1 0.750000 0.780462 0.750000
O O2 0.758849 0.697119 0.628260
O O3 0.000000 0.790306 0.676287
O O4 0.756691 0.895122 0.643485
O O5 0.250000 0.997553 0.750000
O O6 0.229838 0.104956 0.854163
O O7 0.000000 0.987513 0.825927
O O8 0.500000 0.388732 0.078643
O O9 0.737163 0.501075 0.097114
O O10 0.735148 0.370509 0.000067
O O11 0.500000 0.383314 0.919294
O O12 0.753205 0.302825 0.873079
O O13 0.750000 0.775306 0.250000
O O14 0.500000 0.781645 0.322782
#
# Coordination Sequence:
#
# PCOD9414611 Si02
#       5
#     8   8   8   8   8
#     4  10  18  30  49  73  98 124 159 198 237 284
#     4   9  17  30  47  68  96 127 157 193 239 285
#     4   8  17  33  52  72  96 129 163 197 240 288
#     4   9  17  34  55  71  94 129 165 199 239 285
#     4  10  20  33  50  74 100 126 160 200 241 285
#
# _framework density 17.470334000000001
#
# number of rings (size 3 to 8) (size 9 to 14) (size 15 to 20)
#    0.000    2.800    0.000    4.200    0.000    3.200 
#    0.000    9.000    0.000    6.000    0.000    0.000 
#    0.000    0.000    0.000    0.000    0.000    0.000 
#
# Total GULP energy -222829.842082 kJ/mol
# GULP energy per Si atom -5570.746052 kJ/mol
# Density = 1.743057 g / cm^3
# Si number density = 17.470334 Si / 1000 Ang^3
#
#
#
# Elastic Constant Matrix: (Units=GPa)
#
#
# Indices 1 2 3 4 5 6 
#
# 1 39.4000 43.9569 22.4928 0.0000 0.0000 0.0000
# 2 43.9569 214.6458 96.3852 0.0000 0.0000 0.0000
# 3 22.4928 96.3852 66.3473 0.0000 0.0000 0.0000
# 4 0.0000 0.0000 0.0000 -14.0706 0.0000 0.0000
# 5 0.0000 0.0000 0.0000 0.0000 18.2647 0.0000
# 6 0.0000 0.0000 0.0000 0.0000 0.0000 28.7039
#
#
#
# Elastic Compliance Matrix: (Units=1/GPa)
#
#
# Indices 1 2 3 4 5 6 
#
# 1 0.033257 -0.005027 -0.003971 0.000000 0.000000 0.000000
# 2 -0.005027 0.014161 -0.018867 0.000000 0.000000 0.000000
# 3 -0.003971 -0.018867 0.043828 0.000000 0.000000 0.000000
# 4 0.000000 0.000000 0.000000 -0.071070 0.000000 0.000000
# 5 0.000000 0.000000 0.000000 0.000000 0.054750 0.000000
# 6 0.000000 0.000000 0.000000 0.000000 0.000000 0.034838
#
#
# Mechanical properties :
#
#
# Convention : Reuss Voigt Hill
#
# Bulk Modulus (GPa) = 28.15839 71.78478 49.97159
# Shear Modulus (GPa) = 28.19559 17.08349 22.63954
#
# Velocity S-wave (km/s) = 4.02171 3.13046 3.60375
# Velocity P-wave (km/s) = 6.14153 7.36513 6.78098
#
# Compressibility (1/GPa) = 0.03551339
#
# Stress axis : x y z
#
# Youngs Moduli (GPa) = 30.06921 70.61851 22.81666
#
# Poissons Ratio (x) = 0.35503 0.09061
# Poissons Ratio (y) = 0.15117 0.43049
# Poissons Ratio (z) = 0.11941 1.33238
#
# Static dielectric constant tensor:
#      x y z
#    x 1.598970 0.000000 0.000000 
#    y 0.000000 1.633260 0.000000 
#    z 0.000000 0.000000 1.554600 
# 
# From -- ./inp_files/30350.got.cif
#   From: 2010.05.17/outbox.cif.g08.bks.cpg/sg53_16_cif.got.tgz:30350.got - 2010.06.03 12:45:16.
