data_PCOD9414257
_publ_section_title
;
Structure prediction by ZEFSAII (Michael W. Deem and Ramdas Pophale) SiO2 
 PCOD9414257
Probable space group: P M N A
;
_chemical_formula_sum "Si O2"
_cell_formula_units_Z 64
_cell_length_a 8.389315
_cell_length_b 15.067046
_cell_length_c 31.332118
_cell_angle_alpha 90.000000
_cell_angle_beta 90.000000
_cell_angle_gamma 90.000000
_cell_volume 3960.448490
_symmetry_space_group_name_H-M "P M N A"
_symmetry_group_IT_number 53
_symmetry_cell_setting 'orthorhombic'
loop_
_space_group_symop_operation_xyz
x,y,z
1/2-x,-y,1/2+z
x,-y,-z
1/2-x,y,1/2-z
-x,-y,-z
1/2+x,y,1/2-z
-x,y,z
1/2+x,-y,1/2+z
loop_
_atom_site_type_symbol
_atom_site_label
_atom_site_fract_x
_atom_site_fract_y
_atom_site_fract_z
Si Si1 0.309121 0.930783 0.618580
Si Si2 0.807282 0.753617 0.024351
Si Si3 0.306202 0.751109 0.574210
Si Si4 0.809322 0.853561 0.702391
Si Si5 0.305247 0.445105 0.542802
Si Si6 0.192524 0.429333 0.118885
Si Si7 0.309592 0.649960 0.797510
Si Si8 0.309800 0.052262 0.956852
O O1 0.500000 0.931789 0.618537
O O2 0.249442 0.838871 0.597542
O O3 0.251285 0.922761 0.667147
O O4 0.250732 0.006179 0.586390
O O5 0.755579 0.657794 0.042133
O O6 0.742002 0.845187 0.042819
O O7 0.000000 0.756804 0.026798
O O8 0.759256 0.752817 0.974791
O O9 0.500000 0.750805 0.575415
O O10 0.252039 0.661900 0.596710
O O11 0.750000 0.873995 0.750000
O O12 0.752318 0.751687 0.692601
O O13 0.000000 0.852685 0.701889
O O14 0.255661 0.500000 0.500000
O O15 0.500000 0.446332 0.541551
O O16 0.255245 0.493447 0.586514
O O17 0.250818 0.419575 0.167189
O O18 0.000000 0.430853 0.119567
O O19 0.250000 0.629186 0.750000
O O20 0.500000 0.651583 0.797737
O O21 0.500000 0.046898 0.957789
O O22 0.249999 0.000000 0.000000
#
# Coordination Sequence:
#
# PCOD9414257 Si02
#       8
#     8   8   8   8   8   8   8   8
#     4  11  20  32  51  74  97 130 172 209 248 295
#     4  10  18  32  50  71  97 131 173 211 244 287
#     4   9  16  25  45  71  97 128 165 203 239 283
#     4  10  20  33  49  72 102 133 165 203 247 296
#     4   9  16  27  49  76 100 128 167 208 243 285
#     4  10  17  29  48  73 101 132 166 203 245 290
#     4  10  20  32  47  69  98 132 166 203 245 293
#     4  11  23  35  47  68  99 134 170 210 254 297
#
# _framework density 16.159786
#
# number of rings (size 3 to 8) (size 9 to 14) (size 15 to 20)
#    0.000    2.000    3.750    1.500    0.000    1.500 
#    0.000    1.250    0.000    0.750    0.000    0.875 
#    0.000    2.000    0.000    0.000    0.000    0.000 
#
# Total GULP energy -356801.574918 kJ/mol
# GULP energy per Si atom -5575.024608 kJ/mol
# Density = 1.612301 g / cm^3
# Si number density = 16.159786 Si / 1000 Ang^3
#
#
#
# Elastic Constant Matrix: (Units=GPa)
#
#
# Indices 1 2 3 4 5 6 
#
# 1 27.4689 21.1554 24.9982 0.0000 0.0000 0.0000
# 2 21.1554 112.4417 72.5136 0.0000 0.0000 0.0000
# 3 24.9982 72.5136 140.1234 0.0000 0.0000 0.0000
# 4 0.0000 0.0000 0.0000 21.7241 0.0000 0.0000
# 5 0.0000 0.0000 0.0000 0.0000 17.0565 0.0000
# 6 0.0000 0.0000 0.0000 0.0000 0.0000 5.6753
#
#
#
# Elastic Compliance Matrix: (Units=1/GPa)
#
#
# Indices 1 2 3 4 5 6 
#
# 1 0.045233 -0.004962 -0.005502 0.000000 0.000000 0.000000
# 2 -0.004962 0.013893 -0.006304 0.000000 0.000000 0.000000
# 3 -0.005502 -0.006304 0.011380 0.000000 0.000000 0.000000
# 4 0.000000 0.000000 0.000000 0.046032 0.000000 0.000000
# 5 0.000000 0.000000 0.000000 0.000000 0.058629 0.000000
# 6 0.000000 0.000000 0.000000 0.000000 0.000000 0.176203
#
#
# Mechanical properties :
#
#
# Convention : Reuss Voigt Hill
#
# Bulk Modulus (GPa) = 27.04887 57.48538 42.26713
# Shear Modulus (GPa) = 12.58718 19.64896 16.11807
#
# Velocity S-wave (km/s) = 2.79394 3.49078 3.16162
# Velocity P-wave (km/s) = 5.21372 7.20401 6.28811
#
# Compressibility (1/GPa) = 0.03697012
#
# Stress axis : x y z
#
# Youngs Moduli (GPa) = 22.10753 71.98023 87.86990
#
# Poissons Ratio (x) = 0.35720 0.48343
# Poissons Ratio (y) = 0.10971 0.55394
# Poissons Ratio (z) = 0.12163 0.45377
#
# Static dielectric constant tensor:
#      x y z
#    x 1.553700 0.000000 0.000000 
#    y 0.000000 1.544600 0.000000 
#    z 0.000000 0.000000 1.548480 
# 
# From -- ./inp_files/38443.got.cif
#   From: 2010.05.17/outbox.cif.g08.bks.cpg/sg53_20_cif.got.tgz:38443.got - 2010.06.03 12:45:16.
