data_PCOD9414535
_publ_section_title
;
Structure prediction by ZEFSAII (Michael W. Deem and Ramdas Pophale) SiO2 
 PCOD9414535
Probable space group: P M N A
;
_chemical_formula_sum "Si O2"
_cell_formula_units_Z 64
_cell_length_a 8.672600
_cell_length_b 22.148174
_cell_length_c 19.382923
_cell_angle_alpha 90.000000
_cell_angle_beta 90.000000
_cell_angle_gamma 90.000000
_cell_volume 3723.115536
_symmetry_space_group_name_H-M "P M N A"
_symmetry_group_IT_number 53
_symmetry_cell_setting 'orthorhombic'
loop_
_space_group_symop_operation_xyz
x,y,z
1/2-x,-y,1/2+z
x,-y,-z
1/2-x,y,1/2-z
-x,-y,-z
1/2+x,y,1/2-z
-x,y,z
1/2+x,-y,1/2+z
loop_
_atom_site_type_symbol
_atom_site_label
_atom_site_fract_x
_atom_site_fract_y
_atom_site_fract_z
Si Si1 0.323838 0.183412 0.478431
Si Si2 0.684362 0.936323 0.033844
Si Si3 0.685993 0.895205 0.321083
Si Si4 0.684842 0.695410 0.936034
Si Si5 0.314154 0.403450 0.173316
Si Si6 0.814030 0.646950 0.080833
Si Si7 0.823648 0.767828 0.136295
Si Si8 0.186232 0.516303 0.421233
O O1 0.500000 0.174740 0.456250
O O2 0.239462 0.119681 0.486652
O O3 0.242556 0.235715 0.434703
O O4 0.327750 0.210559 0.556363
O O5 0.500000 0.933778 0.040806
O O6 0.758456 0.927740 0.109410
O O7 0.728060 0.000000 0.000000
O O8 0.750000 0.921662 0.250000
O O9 0.500000 0.893941 0.321043
O O10 0.747968 0.825675 0.326571
O O11 0.500000 0.694392 0.941662
O O12 0.732451 0.655561 0.870461
O O13 0.752208 0.663610 0.004632
O O14 0.250000 0.403845 0.250000
O O15 0.500000 0.403986 0.175957
O O16 0.266248 0.462461 0.129633
O O17 0.756611 0.700548 0.131999
O O18 0.756975 0.580521 0.098809
O O19 0.000000 0.649518 0.079646
O O20 0.000000 0.762420 0.161322
O O21 0.230889 0.500000 0.500000
O O22 0.000000 0.520970 0.420114
#
# Coordination Sequence:
#
# PCOD9414535 Si02
#       8
#     8   8   8   8   8   8   8   8
#     4   9  17  30  50  78 106 132 166 211 257 302
#     4  10  20  34  54  82 114 148 186 224 264 316
#     4  10  19  33  53  76 107 145 184 226 272 321
#     4  10  18  32  52  74 100 133 167 209 265 315
#     4  10  22  37  53  72  99 135 171 218 273 327
#     4  10  18  29  49  77 101 126 168 218 261 305
#     4   7  14  28  44  67  99 128 158 203 251 299
#     4  10  19  35  52  70 100 134 174 218 267 325
#
# _framework density 17.189903000000001
#
# number of rings (size 3 to 8) (size 9 to 14) (size 15 to 20)
#    0.000    2.500    1.250    3.375    0.000    2.750 
#    0.000    2.500    0.000    3.750    0.000    3.500 
#    0.000    0.000    0.000    0.000    0.000    0.000 
#
# Total GULP energy -356626.579578 kJ/mol
# GULP energy per Si atom -5572.290306 kJ/mol
# Density = 1.715078 g / cm^3
# Si number density = 17.189903 Si / 1000 Ang^3
#
#
#
# Elastic Constant Matrix: (Units=GPa)
#
#
# Indices 1 2 3 4 5 6 
#
# 1 45.8683 41.7400 28.9957 0.0000 0.0000 0.0000
# 2 41.7400 153.4855 63.1111 0.0000 0.0000 0.0000
# 3 28.9957 63.1111 95.0539 0.0000 0.0000 0.0000
# 4 0.0000 0.0000 0.0000 16.0370 0.0000 0.0000
# 5 0.0000 0.0000 0.0000 0.0000 19.3718 0.0000
# 6 0.0000 0.0000 0.0000 0.0000 0.0000 23.9463
#
#
#
# Elastic Compliance Matrix: (Units=1/GPa)
#
#
# Indices 1 2 3 4 5 6 
#
# 1 0.030778 -0.006203 -0.005270 0.000000 0.000000 0.000000
# 2 -0.006203 0.010212 -0.004888 0.000000 0.000000 0.000000
# 3 -0.005270 -0.004888 0.015373 0.000000 0.000000 0.000000
# 4 0.000000 0.000000 0.000000 0.062356 0.000000 0.000000
# 5 0.000000 0.000000 0.000000 0.000000 0.051621 0.000000
# 6 0.000000 0.000000 0.000000 0.000000 0.000000 0.041760
#
#
# Mechanical properties :
#
#
# Convention : Reuss Voigt Hill
#
# Bulk Modulus (GPa) = 42.29967 62.45570 52.37769
# Shear Modulus (GPa) = 19.78604 22.57508 21.18056
#
# Velocity S-wave (km/s) = 3.39636 3.62785 3.51401
# Velocity P-wave (km/s) = 6.32780 7.34575 6.85569
#
# Compressibility (1/GPa) = 0.02364085
#
# Stress axis : x y z
#
# Youngs Moduli (GPa) = 32.49099 97.92329 65.04719
#
# Poissons Ratio (x) = 0.60741 0.34281
# Poissons Ratio (y) = 0.20154 0.31796
# Poissons Ratio (z) = 0.17123 0.47866
#
# Static dielectric constant tensor:
#      x y z
#    x 1.586950 0.000000 0.000000 
#    y 0.000000 1.603710 0.000000 
#    z 0.000000 0.000000 1.568430 
# 
# From -- ./inp_files/26971.got.cif
#   From: 2010.05.17/outbox.cif.g08.bks.cpg/sg53_14_cif.got.tgz:26971.got - 2010.06.03 12:45:16.
