data_PCOD9414720
_publ_section_title
;
Structure prediction by ZEFSAII (Michael W. Deem and Ramdas Pophale) SiO2 
 PCOD9414720
Probable space group: P M N A
;
_chemical_formula_sum "Si O2"
_cell_formula_units_Z 40
_cell_length_a 7.940990
_cell_length_b 14.602208
_cell_length_c 19.941595
_cell_angle_alpha 90.000000
_cell_angle_beta 90.000000
_cell_angle_gamma 90.000000
_cell_volume 2312.347345
_symmetry_space_group_name_H-M "P M N A"
_symmetry_group_IT_number 53
_symmetry_cell_setting 'orthorhombic'
loop_
_space_group_symop_operation_xyz
x,y,z
1/2-x,-y,1/2+z
x,-y,-z
1/2-x,y,1/2-z
-x,-y,-z
1/2+x,y,1/2-z
-x,y,z
1/2+x,-y,1/2+z
loop_
_atom_site_type_symbol
_atom_site_label
_atom_site_fract_x
_atom_site_fract_y
_atom_site_fract_z
Si Si1 0.696536 0.445231 0.934811
Si Si2 0.200662 0.590294 0.827147
Si Si3 0.500000 0.879757 0.069254
Si Si4 0.500000 0.912583 0.907676
Si Si5 0.304584 0.216809 0.394238
Si Si6 0.187206 0.243439 0.945022
O O1 0.500000 0.423815 0.947482
O O2 0.714631 0.512588 0.872251
O O3 0.787884 0.348969 0.925298
O O4 0.762215 0.500000 0.000000
O O5 0.250000 0.582474 0.750000
O O6 0.244897 0.690939 0.855167
O O7 0.000000 0.580533 0.834872
O O8 0.334108 0.820237 0.083685
O O9 0.500000 0.978897 0.103398
O O10 0.500000 0.897558 0.988627
O O11 0.331980 0.862148 0.881546
O O12 0.500000 0.193400 0.378283
O O13 0.298723 0.239209 0.473803
O O14 0.000000 0.211643 0.926769
#
# Coordination Sequence:
#
# PCOD9414720 Si02
#       6
#     8   8   4   4   8   8
#     4  11  21  32  54  80 108 148 187 226 271 334
#     4  11  23  36  51  77 114 145 183 228 275 329
#     4   9  18  32  44  81 104 135 176 221 272 314
#     4   9  18  30  53  68 109 138 169 221 270 319
#     4   9  19  32  50  75 103 143 180 216 269 329
#     4  10  18  31  51  75 108 143 180 220 267 323
#
# _framework density 17.298438999999998
#
# number of rings (size 3 to 8) (size 9 to 14) (size 15 to 20)
#    0.000    2.000    3.000    1.200    2.800    1.600 
#    0.000    4.000    0.000    0.000    0.000    1.400 
#    0.000    0.000    0.000    0.000    0.000    0.000 
#
# Total GULP energy -223196.441577 kJ/mol
# GULP energy per Si atom -5579.911039 kJ/mol
# Density = 1.725907 g / cm^3
# Si number density = 17.298439 Si / 1000 Ang^3
#
#
#
# Elastic Constant Matrix: (Units=GPa)
#
#
# Indices 1 2 3 4 5 6 
#
# 1 101.5735 70.4924 20.8790 0.0000 0.0000 0.0000
# 2 70.4924 135.7201 29.9364 0.0000 0.0000 0.0000
# 3 20.8790 29.9364 39.5236 0.0000 0.0000 0.0000
# 4 0.0000 0.0000 0.0000 10.4218 0.0000 0.0000
# 5 0.0000 0.0000 0.0000 0.0000 13.7822 0.0000
# 6 0.0000 0.0000 0.0000 0.0000 0.0000 18.3297
#
#
#
# Elastic Compliance Matrix: (Units=1/GPa)
#
#
# Indices 1 2 3 4 5 6 
#
# 1 0.015601 -0.007546 -0.002526 0.000000 0.000000 0.000000
# 2 -0.007546 0.012496 -0.005478 0.000000 0.000000 0.000000
# 3 -0.002526 -0.005478 0.030785 0.000000 0.000000 0.000000
# 4 0.000000 0.000000 0.000000 0.095953 0.000000 0.000000
# 5 0.000000 0.000000 0.000000 0.000000 0.072558 0.000000
# 6 0.000000 0.000000 0.000000 0.000000 0.000000 0.054556
#
#
# Mechanical properties :
#
#
# Convention : Reuss Voigt Hill
#
# Bulk Modulus (GPa) = 35.99523 57.71473 46.85498
# Shear Modulus (GPa) = 15.51298 18.87403 17.19351
#
# Velocity S-wave (km/s) = 2.99789 3.30674 3.15609
# Velocity P-wave (km/s) = 5.73033 6.92935 6.35817
#
# Compressibility (1/GPa) = 0.02778146
#
# Stress axis : x y z
#
# Youngs Moduli (GPa) = 64.09704 80.02617 32.48299
#
# Poissons Ratio (x) = 0.60388 0.08205
# Poissons Ratio (y) = 0.48368 0.17796
# Poissons Ratio (z) = 0.16191 0.43842
#
# Static dielectric constant tensor:
#      x y z
#    x 1.615590 0.000000 0.000000 
#    y 0.000000 1.564280 0.000000 
#    z 0.000000 0.000000 1.559480 
# 
# From -- ./inp_files/25878.got.cif
#   From: 2010.05.17/outbox.cif.g08.bks.cpg/sg53_13_cif.got.tgz:25878.got - 2010.06.03 12:45:16.
