data_PCOD9414283
_publ_section_title
;
Structure prediction by ZEFSAII (Michael W. Deem and Ramdas Pophale) SiO2 
 PCOD9414283
Probable space group: P M N A
;
_chemical_formula_sum "Si O2"
_cell_formula_units_Z 48
_cell_length_a 11.616372
_cell_length_b 12.717006
_cell_length_c 16.347329
_cell_angle_alpha 90.000000
_cell_angle_beta 90.000000
_cell_angle_gamma 90.000000
_cell_volume 2414.916899
_symmetry_space_group_name_H-M "P M N A"
_symmetry_group_IT_number 53
_symmetry_cell_setting 'orthorhombic'
loop_
_space_group_symop_operation_xyz
x,y,z
1/2-x,-y,1/2+z
x,-y,-z
1/2-x,y,1/2-z
-x,-y,-z
1/2+x,y,1/2-z
-x,y,z
1/2+x,-y,1/2+z
loop_
_atom_site_type_symbol
_atom_site_label
_atom_site_fract_x
_atom_site_fract_y
_atom_site_fract_z
Si Si1 0.000000 0.876787 0.892600
Si Si2 0.130275 0.368295 0.299247
Si Si3 0.372498 0.018229 0.901031
Si Si4 0.746340 0.187772 0.391070
Si Si5 0.258910 0.777297 0.413303
Si Si6 0.000000 0.124629 0.906691
Si Si7 0.368184 0.436253 0.919299
O O1 0.886476 0.814947 0.863111
O O2 0.000000 0.003189 0.875455
O O3 0.000000 0.877857 0.992992
O O4 0.250000 0.374048 0.250000
O O5 0.160882 0.268667 0.356282
O O6 0.127611 0.476193 0.349877
O O7 0.000000 0.357017 0.264198
O O8 0.500000 0.000767 0.869801
O O9 0.328991 0.134211 0.882184
O O10 0.287873 0.929092 0.870615
O O11 0.373697 0.000000 0.000000
O O12 0.741895 0.208471 0.488135
O O13 0.384971 0.812023 0.383206
O O14 0.213975 0.660538 0.397493
O O15 0.500000 0.397794 0.935042
O O16 0.329260 0.500000 0.000000
#
# Coordination Sequence:
#
# PCOD9414283 Si02
#       7
#     4   8   8   8   8   4   8
#     4   9  16  28  49  78 121 160 179 214 277 354
#     4  11  25  43  61  83 116 157 198 243 297 357
#     4   9  16  24  44  79 113 140 175 225 283 341
#     4  10  18  31  54  80 115 150 190 231 287 350
#     4  10  17  30  51  85 115 149 185 236 295 342
#     4   9  16  28  44  81 126 155 176 213 289 351
#     4  10  20  37  60  84 112 148 196 250 298 340
#
# _framework density 19.876460999999999
#
# number of rings (size 3 to 8) (size 9 to 14) (size 15 to 20)
#    0.000    2.167    3.333    1.000    1.167    1.333 
#    1.500    0.417    0.000    1.000    0.000    0.000 
#    0.000    0.000    0.000    0.000    0.000    0.000 
#
# Total GULP energy -267437.592672 kJ/mol
# GULP energy per Si atom -5571.616514 kJ/mol
# Density = 1.983122 g / cm^3
# Si number density = 19.876461 Si / 1000 Ang^3
#
#
#
# Elastic Constant Matrix: (Units=GPa)
#
#
# Indices 1 2 3 4 5 6 
#
# 1 147.3728 40.3681 8.9079 0.0000 0.0000 0.0000
# 2 40.3681 112.5052 -4.0128 0.0000 0.0000 0.0000
# 3 8.9079 -4.0128 2.8911 0.0000 0.0000 0.0000
# 4 0.0000 0.0000 0.0000 5.2917 0.0000 0.0000
# 5 0.0000 0.0000 0.0000 0.0000 17.6535 0.0000
# 6 0.0000 0.0000 0.0000 0.0000 0.0000 50.9231
#
#
#
# Elastic Compliance Matrix: (Units=1/GPa)
#
#
# Indices 1 2 3 4 5 6 
#
# 1 0.010647 -0.005250 -0.040092 0.000000 0.000000 0.000000
# 2 -0.005250 0.011940 0.032750 0.000000 0.000000 0.000000
# 3 -0.040092 0.032750 0.514872 0.000000 0.000000 0.000000
# 4 0.000000 0.000000 0.000000 0.188976 0.000000 0.000000
# 5 0.000000 0.000000 0.000000 0.000000 0.056646 0.000000
# 6 0.000000 0.000000 0.000000 0.000000 0.000000 0.019637
#
#
# Mechanical properties :
#
#
# Convention : Reuss Voigt Hill
#
# Bulk Modulus (GPa) = 1.95208 39.25505 20.60356
# Shear Modulus (GPa) = 5.00669 29.27403 17.14036
#
# Velocity S-wave (km/s) = 1.58883 3.84187 2.93976
# Velocity P-wave (km/s) = 2.08568 6.28270 4.68094
#
# Compressibility (1/GPa) = 0.51227430
#
# Stress axis : x y z
#
# Youngs Moduli (GPa) = 93.92300 83.74902 1.94223
#
# Poissons Ratio (x) = 0.43970 0.07787
# Poissons Ratio (y) = 0.49312 -0.06361
# Poissons Ratio (z) = 3.76557 -2.74276
#
# Static dielectric constant tensor:
#      x y z
#    x 1.716360 0.000000 0.000000 
#    y 0.000000 1.676120 0.000000 
#    z 0.000000 0.000000 1.747390 
# 
# From -- ./inp_files/27580.got.cif
#   From: 2010.05.17/outbox.cif.g08.bks.cpg/sg53_14_cif.got.tgz:27580.got - 2010.06.03 12:45:16.
