data_PCOD9414310
_publ_section_title
;
Structure prediction by ZEFSAII (Michael W. Deem and Ramdas Pophale) SiO2 
 PCOD9414310
Probable space group: P M N A
;
_chemical_formula_sum "Si O2"
_cell_formula_units_Z 64
_cell_length_a 19.855551
_cell_length_b 9.823806
_cell_length_c 19.499322
_cell_angle_alpha 90.000000
_cell_angle_beta 90.000000
_cell_angle_gamma 90.000000
_cell_volume 3803.480832
_symmetry_space_group_name_H-M "P M N A"
_symmetry_group_IT_number 53
_symmetry_cell_setting 'orthorhombic'
loop_
_space_group_symop_operation_xyz
x,y,z
1/2-x,-y,1/2+z
x,-y,-z
1/2-x,y,1/2-z
-x,-y,-z
1/2+x,y,1/2-z
-x,y,z
1/2+x,-y,1/2+z
loop_
_atom_site_type_symbol
_atom_site_label
_atom_site_fract_x
_atom_site_fract_y
_atom_site_fract_z
Si Si1 0.570991 0.664506 0.912886
Si Si2 0.421887 0.858576 0.203388
Si Si3 0.360333 0.874869 0.730082
Si Si4 0.181233 0.608408 0.288749
Si Si5 0.288611 0.445909 0.071748
Si Si6 0.074248 0.401638 0.252566
Si Si7 0.761874 0.838569 0.639350
Si Si8 0.115814 0.032229 0.422186
O O1 0.500000 0.632452 0.946641
O O2 0.636874 0.608038 0.948334
O O3 0.570698 0.609156 0.835385
O O4 0.579667 0.825815 0.905525
O O5 0.500000 0.823738 0.216312
O O6 0.370676 0.733393 0.208607
O O7 0.397202 0.985229 0.250488
O O8 0.412913 0.917503 0.126952
O O9 0.410724 0.748183 0.723305
O O10 0.311658 0.832379 0.794225
O O11 0.309788 0.888654 0.666345
O O12 0.250000 0.644120 0.250000
O O13 0.200754 0.551449 0.364942
O O14 0.140136 0.495031 0.244536
O O15 0.255775 0.309861 0.104774
O O16 0.258003 0.500000 0.000000
O O17 0.000000 0.450370 0.229432
O O18 0.804734 0.940007 0.591517
O O19 0.103642 0.000000 0.500000
#
# Coordination Sequence:
#
# PCOD9414310 Si02
#       8
#     8   8   8   8   8   8   8   8
#     4   9  17  30  45  66  94 138 185 210 242 297
#     4  11  23  35  50  79 113 141 177 227 271 321
#     4  10  17  33  58  72  96 134 185 227 268 308
#     4  11  23  36  52  74 110 147 180 215 277 332
#     4  10  20  34  49  73 104 138 180 229 264 310
#     4  10  17  32  54  74  99 131 173 223 267 313
#     4   9  18  32  53  73  94 136 189 230 256 304
#     4  10  20  32  47  68 104 146 183 219 255 310
#
# _framework density 16.826691
#
# number of rings (size 3 to 8) (size 9 to 14) (size 15 to 20)
#    0.000    2.000    5.000    1.875    7.000    1.750 
#    0.000    0.000    0.000    0.000    0.000    0.000 
#    0.000   27.000    0.000    0.000    0.000    0.000 
#
# Total GULP energy -356440.765712 kJ/mol
# GULP energy per Si atom -5569.386964 kJ/mol
# Density = 1.678839 g / cm^3
# Si number density = 16.826691 Si / 1000 Ang^3
#
#
#
# Elastic Constant Matrix: (Units=GPa)
#
#
# Indices 1 2 3 4 5 6 
#
# 1 91.4243 27.5358 28.0898 0.0000 0.0000 0.0000
# 2 27.5358 61.2868 15.2325 0.0000 0.0000 0.0000
# 3 28.0898 15.2325 33.0999 0.0000 0.0000 0.0000
# 4 0.0000 0.0000 0.0000 13.5781 0.0000 0.0000
# 5 0.0000 0.0000 0.0000 0.0000 13.5005 0.0000
# 6 0.0000 0.0000 0.0000 0.0000 0.0000 7.1807
#
#
#
# Elastic Compliance Matrix: (Units=1/GPa)
#
#
# Indices 1 2 3 4 5 6 
#
# 1 0.015710 -0.004228 -0.011386 0.000000 0.000000 0.000000
# 2 -0.004228 0.019562 -0.005414 0.000000 0.000000 0.000000
# 3 -0.011386 -0.005414 0.042366 0.000000 0.000000 0.000000
# 4 0.000000 0.000000 0.000000 0.073648 0.000000 0.000000
# 5 0.000000 0.000000 0.000000 0.000000 0.074071 0.000000
# 6 0.000000 0.000000 0.000000 0.000000 0.000000 0.139263
#
#
# Mechanical properties :
#
#
# Convention : Reuss Voigt Hill
#
# Bulk Modulus (GPa) = 28.10517 36.39192 32.24855
# Shear Modulus (GPa) = 11.94637 14.51539 13.23088
#
# Velocity S-wave (km/s) = 2.66741 2.94026 2.80715
# Velocity P-wave (km/s) = 5.12111 5.76206 5.45101
#
# Compressibility (1/GPa) = 0.03558064
#
# Stress axis : x y z
#
# Youngs Moduli (GPa) = 63.65425 51.11909 23.60399
#
# Poissons Ratio (x) = 0.21615 0.26876
# Poissons Ratio (y) = 0.26916 0.12779
# Poissons Ratio (z) = 0.72477 0.27676
#
# Static dielectric constant tensor:
#      x y z
#    x 1.614460 0.000000 0.000000 
#    y 0.000000 1.596320 0.000000 
#    z 0.000000 0.000000 1.649270 
# 
# From -- ./inp_files/33073.got.cif
#   From: 2010.05.17/outbox.cif.g08.bks.cpg/sg53_17_cif.got.tgz:33073.got - 2010.06.03 12:45:16.
