data_PCOD9414387
_publ_section_title
;
Structure prediction by ZEFSAII (Michael W. Deem and Ramdas Pophale) SiO2 
 PCOD9414387
Probable space group: P M N A
;
_chemical_formula_sum "Si O2"
_cell_formula_units_Z 64
_cell_length_a 8.558990
_cell_length_b 17.344606
_cell_length_c 24.639902
_cell_angle_alpha 90.000000
_cell_angle_beta 90.000000
_cell_angle_gamma 90.000000
_cell_volume 3657.850353
_symmetry_space_group_name_H-M "P M N A"
_symmetry_group_IT_number 53
_symmetry_cell_setting 'orthorhombic'
loop_
_space_group_symop_operation_xyz
x,y,z
1/2-x,-y,1/2+z
x,-y,-z
1/2-x,y,1/2-z
-x,-y,-z
1/2+x,y,1/2-z
-x,y,z
1/2+x,-y,1/2+z
loop_
_atom_site_type_symbol
_atom_site_label
_atom_site_fract_x
_atom_site_fract_y
_atom_site_fract_z
Si Si1 0.312533 0.775608 0.627794
Si Si2 0.687299 0.381189 0.310117
Si Si3 0.187077 0.923068 0.688366
Si Si4 0.813333 0.682363 0.975898
Si Si5 0.811846 0.091686 0.688612
Si Si6 0.688463 0.640250 0.087113
Si Si7 0.189052 0.261825 0.688667
Si Si8 0.186522 0.464373 0.412914
O O1 0.500000 0.783072 0.626569
O O2 0.275315 0.705144 0.668706
O O3 0.242421 0.854077 0.650285
O O4 0.260058 0.745777 0.568455
O O5 0.750000 0.392158 0.250000
O O6 0.500000 0.390557 0.312713
O O7 0.768556 0.438640 0.352264
O O8 0.250000 0.913178 0.750000
O O9 0.000000 0.921900 0.691528
O O10 0.238135 0.007966 0.666621
O O11 0.762828 0.599364 0.951705
O O12 0.000000 0.684966 0.978000
O O13 0.744463 0.689256 0.035721
O O14 0.750000 0.091125 0.750000
O O15 0.762891 0.175979 0.667754
O O16 0.000000 0.091720 0.688388
O O17 0.500000 0.639778 0.087590
O O18 0.741510 0.675764 0.144415
O O19 0.740642 0.551935 0.078862
O O20 0.250000 0.273241 0.750000
O O21 0.000000 0.263865 0.691283
O O22 0.000000 0.461187 0.420826
#
# Coordination Sequence:
#
# PCOD9414387 Si02
#       8
#     8   8   8   8   8   8   8   8
#     4   9  19  33  47  67  95 126 161 200 238 279
#     4  10  20  33  48  68  97 133 168 200 241 291
#     4  10  18  27  45  73 100 128 161 195 235 282
#     4  10  21  36  53  72  95 126 164 203 243 287
#     4   8  15  28  46  69  97 127 158 192 231 279
#     4  10  21  35  53  76  98 124 159 200 244 288
#     4   9  18  34  53  74 102 130 157 193 238 286
#     4  10  20  34  51  72  98 127 162 204 247 289
#
# _framework density 17.496616
#
# number of rings (size 3 to 8) (size 9 to 14) (size 15 to 20)
#    0.000    2.500    0.000    3.000    0.000    8.000 
#    0.000    1.250    0.000    0.750    0.000    5.250 
#    0.000    0.000    0.000    0.000    0.000    0.000 
#
# Total GULP energy -356694.077133 kJ/mol
# GULP energy per Si atom -5573.344955 kJ/mol
# Density = 1.745679 g / cm^3
# Si number density = 17.496616 Si / 1000 Ang^3
#
#
#
# Elastic Constant Matrix: (Units=GPa)
#
#
# Indices 1 2 3 4 5 6 
#
# 1 2.5347 7.1903 2.3650 0.0000 0.0000 0.0000
# 2 7.1903 66.0766 25.4485 0.0000 0.0000 0.0000
# 3 2.3650 25.4485 90.9324 0.0000 0.0000 0.0000
# 4 0.0000 0.0000 0.0000 13.8927 0.0000 0.0000
# 5 0.0000 0.0000 0.0000 0.0000 26.4811 0.0000
# 6 0.0000 0.0000 0.0000 0.0000 0.0000 -108.5970
#
#
#
# Elastic Compliance Matrix: (Units=1/GPa)
#
#
# Indices 1 2 3 4 5 6 
#
# 1 0.571355 -0.063270 0.002847 0.000000 0.000000 0.000000
# 2 -0.063270 0.023969 -0.005062 0.000000 0.000000 0.000000
# 3 0.002847 -0.005062 0.012340 0.000000 0.000000 0.000000
# 4 0.000000 0.000000 0.000000 0.071980 0.000000 0.000000
# 5 0.000000 0.000000 0.000000 0.000000 0.037763 0.000000
# 6 0.000000 0.000000 0.000000 0.000000 0.000000 -0.009208
#
#
# Mechanical properties :
#
#
# Convention : Reuss Voigt Hill
#
# Bulk Modulus (GPa) = 2.09779 25.50570 13.80174
# Shear Modulus (GPa) = 5.00968 -5.34198 -0.16615
#
# Velocity S-wave (km/s) = 1.69394 -1.74922 -0.30849
# Velocity P-wave (km/s) = 2.24221 3.24491 2.78899
#
# Compressibility (1/GPa) = 0.47669295
#
# Stress axis : x y z
#
# Youngs Moduli (GPa) = 1.75022 41.72127 81.03792
#
# Poissons Ratio (x) = 2.63971 -0.23073
# Poissons Ratio (y) = 0.11074 0.41024
# Poissons Ratio (z) = -0.00498 0.21121
#
# Static dielectric constant tensor:
#      x y z
#    x 1.595890 0.000000 0.000000 
#    y 0.000000 1.629420 0.000000 
#    z 0.000000 0.000000 1.580400 
# 
# From -- ./inp_files/34170.got.cif
#   From: 2010.05.17/outbox.cif.g08.bks.cpg/sg53_18_cif.got.tgz:34170.got - 2010.06.03 12:45:16.
