data_PCOD9414295
_publ_section_title
;
Structure prediction by ZEFSAII (Michael W. Deem and Ramdas Pophale) SiO2 
 PCOD9414295
Probable space group: P M N A
;
_chemical_formula_sum "Si O2"
_cell_formula_units_Z 64
_cell_length_a 27.816711
_cell_length_b 8.885384
_cell_length_c 17.913401
_cell_angle_alpha 90.000000
_cell_angle_beta 90.000000
_cell_angle_gamma 90.000000
_cell_volume 4427.514864
_symmetry_space_group_name_H-M "P M N A"
_symmetry_group_IT_number 53
_symmetry_cell_setting 'orthorhombic'
loop_
_space_group_symop_operation_xyz
x,y,z
1/2-x,-y,1/2+z
x,-y,-z
1/2-x,y,1/2-z
-x,-y,-z
1/2+x,y,1/2-z
-x,y,z
1/2+x,-y,1/2+z
loop_
_atom_site_type_symbol
_atom_site_label
_atom_site_fract_x
_atom_site_fract_y
_atom_site_fract_z
Si Si1 0.304962 0.226666 0.777228
Si Si2 0.809699 0.507419 0.171701
Si Si3 0.122167 0.621699 0.938444
Si Si4 0.303356 0.755825 0.452250
Si Si5 0.443894 0.909339 0.578232
Si Si6 0.858183 0.035384 0.843654
Si Si7 0.769819 0.181280 0.168864
Si Si8 0.789027 0.054148 0.573511
O O1 0.250000 0.191867 0.750000
O O2 0.311187 0.400822 0.749854
O O3 0.342872 0.134211 0.727152
O O4 0.309522 0.164361 0.861570
O O5 0.861495 0.454785 0.139037
O O6 0.793082 0.627520 0.109121
O O7 0.776152 0.361066 0.168609
O O8 0.082896 0.750138 0.930797
O O9 0.106064 0.500000 0.000000
O O10 0.171497 0.687966 0.975375
O O11 0.341868 0.867114 0.414962
O O12 0.255438 0.850532 0.460435
O O13 0.500000 0.894668 0.595736
O O14 0.439764 0.000000 0.500000
O O15 0.412872 0.992086 0.642324
O O16 0.822565 0.892434 0.841346
O O17 0.750000 0.143071 0.250000
O O18 0.733482 0.091911 0.114893
O O19 0.817976 0.000000 0.500000
#
# Coordination Sequence:
#
# PCOD9414295 Si02
#       8
#     8   8   8   8   8   8   8   8
#     4  11  18  34  44  68  95 128 162 195 242 293
#     4  10  19  27  46  63  92 123 161 205 230 285
#     4  10  19  31  44  67  89 128 169 196 250 282
#     4   9  18  28  44  64  94 124 161 199 234 283
#     4  11  22  33  49  71  94 125 169 216 250 279
#     4  10  17  31  49  60  92 126 161 203 234 284
#     4  11  18  28  47  71  87 123 170 196 232 288
#     4  11  20  29  45  66  96 127 161 203 238 281
#
# _framework density 14.455062
#
# number of rings (size 3 to 8) (size 9 to 14) (size 15 to 20)
#    0.000    1.625    7.500    1.125    1.750    0.250 
#    0.000    0.000    0.000    0.000    0.000    0.000 
#    0.000    0.500    0.000    1.125    0.000    0.000 
#
# Total GULP energy -356316.187750 kJ/mol
# GULP energy per Si atom -5567.440434 kJ/mol
# Density = 1.442216 g / cm^3
# Si number density = 14.455062 Si / 1000 Ang^3
#
#
#
# Elastic Constant Matrix: (Units=GPa)
#
#
# Indices 1 2 3 4 5 6 
#
# 1 53.8612 22.5605 27.5694 0.0000 0.0000 0.0000
# 2 22.5605 99.7449 30.7464 0.0000 0.0000 0.0000
# 3 27.5694 30.7464 90.5590 0.0000 0.0000 0.0000
# 4 0.0000 0.0000 0.0000 26.9040 0.0000 0.0000
# 5 0.0000 0.0000 0.0000 0.0000 14.3787 0.0000
# 6 0.0000 0.0000 0.0000 0.0000 0.0000 11.5874
#
#
#
# Elastic Compliance Matrix: (Units=1/GPa)
#
#
# Indices 1 2 3 4 5 6 
#
# 1 0.022980 -0.003397 -0.005843 0.000000 0.000000 0.000000
# 2 -0.003397 0.011700 -0.002938 0.000000 0.000000 0.000000
# 3 -0.005843 -0.002938 0.013819 0.000000 0.000000 0.000000
# 4 0.000000 0.000000 0.000000 0.037169 0.000000 0.000000
# 5 0.000000 0.000000 0.000000 0.000000 0.069547 0.000000
# 6 0.000000 0.000000 0.000000 0.000000 0.000000 0.086301
#
#
# Mechanical properties :
#
#
# Convention : Reuss Voigt Hill
#
# Bulk Modulus (GPa) = 41.41957 45.10196 43.26076
# Shear Modulus (GPa) = 18.25368 21.45994 19.85681
#
# Velocity S-wave (km/s) = 3.55743 3.85723 3.71036
# Velocity P-wave (km/s) = 6.75203 7.14890 6.95330
#
# Compressibility (1/GPa) = 0.02414318
#
# Stress axis : x y z
#
# Youngs Moduli (GPa) = 43.51699 85.47369 72.36530
#
# Poissons Ratio (x) = 0.29032 0.42280
# Poissons Ratio (y) = 0.14781 0.21262
# Poissons Ratio (z) = 0.25425 0.25114
#
# Static dielectric constant tensor:
#      x y z
#    x 1.446840 0.000000 0.000000 
#    y 0.000000 1.553070 0.000000 
#    z 0.000000 0.000000 1.540870 
# 
# From -- ./inp_files/29727.got.cif
#   From: 2010.05.17/outbox.cif.g08.bks.cpg/sg53_15_cif.got.tgz:29727.got - 2010.06.03 12:45:16.
