data_PCOD9414492
_publ_section_title
;
Structure prediction by ZEFSAII (Michael W. Deem and Ramdas Pophale) SiO2 
 PCOD9414492
Probable space group: P M N A
;
_chemical_formula_sum "Si O2"
_cell_formula_units_Z 64
_cell_length_a 8.177880
_cell_length_b 22.504284
_cell_length_c 19.371434
_cell_angle_alpha 90.000000
_cell_angle_beta 90.000000
_cell_angle_gamma 90.000000
_cell_volume 3565.067070
_symmetry_space_group_name_H-M "P M N A"
_symmetry_group_IT_number 53
_symmetry_cell_setting 'orthorhombic'
loop_
_space_group_symop_operation_xyz
x,y,z
1/2-x,-y,1/2+z
x,-y,-z
1/2-x,y,1/2-z
-x,-y,-z
1/2+x,y,1/2-z
-x,y,z
1/2+x,-y,1/2+z
loop_
_atom_site_type_symbol
_atom_site_label
_atom_site_fract_x
_atom_site_fract_y
_atom_site_fract_z
Si Si1 0.804447 0.386813 0.822986
Si Si2 0.200028 0.192618 0.070770
Si Si3 0.695755 0.910075 0.671293
Si Si4 0.310769 0.684394 0.529266
Si Si5 0.194964 0.018289 0.576394
Si Si6 0.799709 0.563698 0.028227
Si Si7 0.189297 0.270915 0.614282
Si Si8 0.805667 0.849726 0.082255
O O1 0.750000 0.413498 0.750000
O O2 0.752380 0.422017 0.892482
O O3 0.728969 0.320749 0.829708
O O4 0.000000 0.382311 0.824382
O O5 0.254474 0.149046 0.131183
O O6 0.259702 0.260964 0.073486
O O7 0.000000 0.194504 0.070822
O O8 0.248699 0.164269 0.996931
O O9 0.750000 0.910824 0.750000
O O10 0.500000 0.910436 0.668115
O O11 0.757799 0.967253 0.629810
O O12 0.500000 0.677381 0.549537
O O13 0.240339 0.618437 0.519931
O O14 0.300078 0.710485 0.451323
O O15 0.259920 0.082824 0.597726
O O16 0.000000 0.022375 0.572221
O O17 0.258538 0.000000 0.500000
O O18 0.000000 0.564917 0.026961
O O19 0.746806 0.500000 0.000000
O O20 0.228029 0.202259 0.628756
O O21 0.000000 0.276168 0.594230
O O22 0.000000 0.843259 0.085330
#
# Coordination Sequence:
#
# PCOD9414492 Si02
#       8
#     8   8   8   8   8   8   8   8
#     4  10  19  32  50  72 101 137 177 216 259 311
#     4   8  15  28  49  72  94 124 164 208 253 302
#     4  11  22  37  53  72  99 134 173 215 270 322
#     4   8  14  27  47  72  98 127 165 207 249 298
#     4  11  22  35  53  79 106 132 172 219 264 313
#     4   8  14  26  48  77 105 133 172 217 255 295
#     4  10  18  29  46  72 102 129 160 203 254 300
#     4  10  18  32  53  76 100 130 169 209 253 304
#
# _framework density 17.951975999999998
#
# number of rings (size 3 to 8) (size 9 to 14) (size 15 to 20)
#    0.000    2.500    1.250    4.125    0.000    0.500 
#    0.000    1.250    0.000   10.125    0.000    0.000 
#    0.000    0.000    0.000    0.000    0.000    0.500 
#
# Total GULP energy -356579.833163 kJ/mol
# GULP energy per Si atom -5571.559893 kJ/mol
# Density = 1.791112 g / cm^3
# Si number density = 17.951976 Si / 1000 Ang^3
#
#
#
# Elastic Constant Matrix: (Units=GPa)
#
#
# Indices 1 2 3 4 5 6 
#
# 1 35.5737 9.0876 5.0915 0.0000 0.0000 0.0000
# 2 9.0876 173.1973 57.6172 0.0000 0.0000 0.0000
# 3 5.0915 57.6172 79.1802 0.0000 0.0000 0.0000
# 4 0.0000 0.0000 0.0000 18.6015 0.0000 0.0000
# 5 0.0000 0.0000 0.0000 0.0000 12.9662 0.0000
# 6 0.0000 0.0000 0.0000 0.0000 0.0000 5.0189
#
#
#
# Elastic Compliance Matrix: (Units=1/GPa)
#
#
# Indices 1 2 3 4 5 6 
#
# 1 0.028551 -0.001171 -0.000984 0.000000 0.000000 0.000000
# 2 -0.001171 0.007666 -0.005503 0.000000 0.000000 0.000000
# 3 -0.000984 -0.005503 0.016697 0.000000 0.000000 0.000000
# 4 0.000000 0.000000 0.000000 0.053759 0.000000 0.000000
# 5 0.000000 0.000000 0.000000 0.000000 0.077124 0.000000
# 6 0.000000 0.000000 0.000000 0.000000 0.000000 0.199246
#
#
# Mechanical properties :
#
#
# Convention : Reuss Voigt Hill
#
# Bulk Modulus (GPa) = 26.59702 47.94932 37.27317
# Shear Modulus (GPa) = 12.16870 21.72763 16.94817
#
# Velocity S-wave (km/s) = 2.60638 3.48274 3.07593
# Velocity P-wave (km/s) = 4.88932 6.55289 5.78125
#
# Compressibility (1/GPa) = 0.03759819
#
# Stress axis : x y z
#
# Youngs Moduli (GPa) = 35.02557 130.44884 59.89090
#
# Poissons Ratio (x) = 0.15272 0.05893
# Poissons Ratio (y) = 0.04100 0.32958
# Poissons Ratio (z) = 0.03446 0.71785
#
# Static dielectric constant tensor:
#      x y z
#    x 1.626440 0.000000 0.000000 
#    y 0.000000 1.651040 0.000000 
#    z 0.000000 0.000000 1.602390 
# 
# From -- ./inp_files/27060.got.cif
#   From: 2010.05.17/outbox.cif.g08.bks.cpg/sg53_14_cif.got.tgz:27060.got - 2010.06.03 12:45:16.
