data_PCOD9414159
_publ_section_title
;
Structure prediction by ZEFSAII (Michael W. Deem and Ramdas Pophale) SiO2 
 PCOD9414159
Probable space group: P M N A
;
_chemical_formula_sum "Si O2"
_cell_formula_units_Z 48
_cell_length_a 7.965385
_cell_length_b 16.370819
_cell_length_c 19.774679
_cell_angle_alpha 90.000000
_cell_angle_beta 90.000000
_cell_angle_gamma 90.000000
_cell_volume 2578.615692
_symmetry_space_group_name_H-M "P M N A"
_symmetry_group_IT_number 53
_symmetry_cell_setting 'orthorhombic'
loop_
_space_group_symop_operation_xyz
x,y,z
1/2-x,-y,1/2+z
x,-y,-z
1/2-x,y,1/2-z
-x,-y,-z
1/2+x,y,1/2-z
-x,y,z
1/2+x,-y,1/2+z
loop_
_atom_site_type_symbol
_atom_site_label
_atom_site_fract_x
_atom_site_fract_y
_atom_site_fract_z
Si Si1 0.692025 0.582827 0.914642
Si Si2 0.702583 0.908466 0.172283
Si Si3 0.297497 0.091747 0.172298
Si Si4 0.705856 0.760595 0.921442
Si Si5 0.307591 0.411542 0.565830
Si Si6 0.797062 0.238554 0.578291
O O1 0.500000 0.577049 0.892530
O O2 0.762232 0.671535 0.894418
O O3 0.779101 0.497437 0.896869
O O4 0.699091 0.587467 0.996940
O O5 0.750000 0.893007 0.250000
O O6 0.500000 0.909453 0.167797
O O7 0.763836 0.836628 0.123527
O O8 0.762621 0.000121 0.154403
O O9 0.250000 0.107181 0.250000
O O10 0.500000 0.090931 0.167736
O O11 0.236711 0.163691 0.123603
O O12 0.500000 0.758576 0.920760
O O13 0.756367 0.770249 0.999853
O O14 0.500000 0.408569 0.543562
O O15 0.263479 0.327559 0.602854
O O16 0.000000 0.238824 0.579351
#
# Coordination Sequence:
#
# PCOD9414159 Si02
#       6
#     8   8   8   8   8   8
#     4   9  15  26  43  63  89 122 153 184 221 269
#     4   9  18  31  49  68  90 119 152 185 224 271
#     4   9  17  31  48  68  91 119 151 185 222 268
#     4   8  15  27  46  69  92 116 150 188 222 258
#     4  10  17  25  40  65  93 120 148 185 227 269
#     4   9  17  30  46  67  91 120 153 187 225 267
#
# _framework density 18.614639
#
# number of rings (size 3 to 8) (size 9 to 14) (size 15 to 20)
#    0.000    3.000    0.000    4.000    0.000    1.333 
#    0.000    7.500    0.000    1.000    0.000   11.667 
#    0.000    0.000    0.000    0.000    0.000    0.000 
#
# Total GULP energy -267291.675993 kJ/mol
# GULP energy per Si atom -5568.576583 kJ/mol
# Density = 1.857227 g / cm^3
# Si number density = 18.614639 Si / 1000 Ang^3
#
#
#
# Elastic Constant Matrix: (Units=GPa)
#
#
# Indices 1 2 3 4 5 6 
#
# 1 24.9691 14.5050 4.2085 0.0000 0.0000 0.0000
# 2 14.5050 228.5089 85.1511 0.0000 0.0000 0.0000
# 3 4.2085 85.1511 46.1547 0.0000 0.0000 0.0000
# 4 0.0000 0.0000 0.0000 -8.3028 0.0000 0.0000
# 5 0.0000 0.0000 0.0000 0.0000 12.1672 0.0000
# 6 0.0000 0.0000 0.0000 0.0000 0.0000 7.4524
#
#
#
# Elastic Compliance Matrix: (Units=1/GPa)
#
#
# Indices 1 2 3 4 5 6 
#
# 1 0.041755 -0.003941 0.003464 0.000000 0.000000 0.000000
# 2 -0.003941 0.014375 -0.026161 0.000000 0.000000 0.000000
# 3 0.003464 -0.026161 0.069616 0.000000 0.000000 0.000000
# 4 0.000000 0.000000 0.000000 -0.120441 0.000000 0.000000
# 5 0.000000 0.000000 0.000000 0.000000 0.082189 0.000000
# 6 0.000000 0.000000 0.000000 0.000000 0.000000 0.134184
#
#
# Mechanical properties :
#
#
# Convention : Reuss Voigt Hill
#
# Bulk Modulus (GPa) = 13.79904 56.37355 35.08630
# Shear Modulus (GPa) = 16.71622 15.31457 16.01540
#
# Velocity S-wave (km/s) = 2.99994 2.87142 2.93638
# Velocity P-wave (km/s) = 4.40779 6.42990 5.51236
#
# Compressibility (1/GPa) = 0.07246879
#
# Stress axis : x y z
#
# Youngs Moduli (GPa) = 23.94913 69.56476 14.36457
#
# Poissons Ratio (x) = 0.27418 -0.04976
# Poissons Ratio (y) = 0.09439 0.37580
# Poissons Ratio (z) = -0.08296 1.81991
#
# Static dielectric constant tensor:
#      x y z
#    x 1.659990 0.000000 0.000000 
#    y 0.000000 1.708840 0.000000 
#    z 0.000000 0.000000 1.596470 
# 
# From -- ./inp_files/30486.got.cif
#   From: 2010.05.17/outbox.cif.g08.bks.cpg/sg53_16_cif.got.tgz:30486.got - 2010.06.03 12:45:16.
