data_PCOD9414264
_publ_section_title
;
Structure prediction by ZEFSAII (Michael W. Deem and Ramdas Pophale) SiO2 
 PCOD9414264
Probable space group: P M N A
;
_chemical_formula_sum "Si O2"
_cell_formula_units_Z 56
_cell_length_a 15.126845
_cell_length_b 13.895644
_cell_length_c 12.806234
_cell_angle_alpha 90.000000
_cell_angle_beta 90.000000
_cell_angle_gamma 90.000000
_cell_volume 2691.835208
_symmetry_space_group_name_H-M "P M N A"
_symmetry_group_IT_number 53
_symmetry_cell_setting 'orthorhombic'
loop_
_space_group_symop_operation_xyz
x,y,z
1/2-x,-y,1/2+z
x,-y,-z
1/2-x,y,1/2-z
-x,-y,-z
1/2+x,y,1/2-z
-x,y,z
1/2+x,-y,1/2+z
loop_
_atom_site_type_symbol
_atom_site_label
_atom_site_fract_x
_atom_site_fract_y
_atom_site_fract_z
Si Si1 0.858319 0.915555 0.230705
Si Si2 0.648201 0.872015 0.713342
Si Si3 0.893335 0.599411 0.947694
Si Si4 0.398451 0.336440 0.223111
Si Si5 0.600759 0.386210 0.000880
Si Si6 0.158180 0.190496 0.978196
Si Si7 0.685146 0.250622 0.848652
O O1 0.750000 0.921715 0.250000
O O2 0.879926 0.873675 0.116195
O O3 0.883325 0.829592 0.308552
O O4 0.889314 0.024044 0.244708
O O5 0.750000 0.866118 0.750000
O O6 0.602022 0.777688 0.758059
O O7 0.645650 0.860919 0.588156
O O8 0.860451 0.615916 0.828578
O O9 0.000000 0.592606 0.942409
O O10 0.860267 0.500000 0.000000
O O11 0.874156 0.698694 0.010192
O O12 0.500000 0.371738 0.215517
O O13 0.355714 0.355887 0.110963
O O14 0.500000 0.348803 0.999928
O O15 0.645866 0.345203 0.898243
O O16 0.599544 0.500000 0.000000
O O17 0.259314 0.202136 0.942077
O O18 0.750000 0.272160 0.750000
#
# Coordination Sequence:
#
# PCOD9414264 Si02
#       7
#     8   8   8   8   8   8   8
#     4   8  17  31  48  71 100 132 164 206 256 308
#     4  10  17  29  51  74  96 129 170 207 254 313
#     4   9  18  32  50  74 104 138 174 211 256 307
#     4   9  19  34  50  73 104 132 168 218 258 303
#     4  10  21  38  58  76 100 139 178 211 258 317
#     4   9  17  30  49  73 101 132 168 211 257 305
#     4   9  19  36  52  76 108 132 168 222 265 302
#
# _framework density 20.803650999999999
#
# number of rings (size 3 to 8) (size 9 to 14) (size 15 to 20)
#    0.000    3.143    0.000    1.286    0.000    2.857 
#    0.000   11.429    0.000    6.000    0.000    0.000 
#    0.000    0.000    0.000    0.000    0.000    0.000 
#
# Total GULP energy -311898.847241 kJ/mol
# GULP energy per Si atom -5569.622272 kJ/mol
# Density = 2.075630 g / cm^3
# Si number density = 20.803651 Si / 1000 Ang^3
#
#
#
# Elastic Constant Matrix: (Units=GPa)
#
#
# Indices 1 2 3 4 5 6 
#
# 1 27.6863 5.0616 12.6190 0.0000 0.0000 0.0000
# 2 5.0616 124.4334 69.1422 0.0000 0.0000 0.0000
# 3 12.6190 69.1422 118.5400 0.0000 0.0000 0.0000
# 4 0.0000 0.0000 0.0000 25.1378 0.0000 0.0000
# 5 0.0000 0.0000 0.0000 0.0000 13.2274 0.0000
# 6 0.0000 0.0000 0.0000 0.0000 0.0000 11.5845
#
#
#
# Elastic Compliance Matrix: (Units=1/GPa)
#
#
# Indices 1 2 3 4 5 6 
#
# 1 0.038052 0.001040 -0.004657 0.000000 0.000000 0.000000
# 2 0.001040 0.011918 -0.007063 0.000000 0.000000 0.000000
# 3 -0.004657 -0.007063 0.013051 0.000000 0.000000 0.000000
# 4 0.000000 0.000000 0.000000 0.039781 0.000000 0.000000
# 5 0.000000 0.000000 0.000000 0.000000 0.075601 0.000000
# 6 0.000000 0.000000 0.000000 0.000000 0.000000 0.086322
#
#
# Mechanical properties :
#
#
# Convention : Reuss Voigt Hill
#
# Bulk Modulus (GPa) = 24.00296 49.36727 36.68511
# Shear Modulus (GPa) = 16.66824 22.24573 19.45698
#
# Velocity S-wave (km/s) = 2.83365 3.27359 3.06153
# Velocity P-wave (km/s) = 4.71900 6.17010 5.49268
#
# Compressibility (1/GPa) = 0.04166154
#
# Stress axis : x y z
#
# Youngs Moduli (GPa) = 26.28013 83.90346 76.62125
#
# Poissons Ratio (x) = -0.08727 0.35686
# Poissons Ratio (y) = -0.02733 0.54114
# Poissons Ratio (z) = 0.12240 0.59257
#
# Static dielectric constant tensor:
#      x y z
#    x 1.810860 0.000000 0.000000 
#    y 0.000000 1.748540 0.000000 
#    z 0.000000 0.000000 1.760280 
# 
# From -- ./inp_files/17832.got.cif
#   From: 2010.05.17/outbox.cif.g08.bks.cpg/sg53_9_cif.got.tgz:17832.got - 2010.06.03 12:45:16.
