data_PCOD9414904
_publ_section_title
;
Structure prediction by ZEFSAII (Michael W. Deem and Ramdas Pophale) SiO2 
 PCOD9414904
Probable space group: P M N A
;
_chemical_formula_sum "Si O2"
_cell_formula_units_Z 56
_cell_length_a 14.385661
_cell_length_b 9.232410
_cell_length_c 19.055946
_cell_angle_alpha 90.000000
_cell_angle_beta 90.000000
_cell_angle_gamma 90.000000
_cell_volume 2530.902519
_symmetry_space_group_name_H-M "P M N A"
_symmetry_group_IT_number 53
_symmetry_cell_setting 'orthorhombic'
loop_
_space_group_symop_operation_xyz
x,y,z
1/2-x,-y,1/2+z
x,-y,-z
1/2-x,y,1/2-z
-x,-y,-z
1/2+x,y,1/2-z
-x,y,z
1/2+x,-y,1/2+z
loop_
_atom_site_type_symbol
_atom_site_label
_atom_site_fract_x
_atom_site_fract_y
_atom_site_fract_z
Si Si1 0.803822 0.337789 0.480570
Si Si2 0.299921 0.032021 0.824123
Si Si3 0.673014 0.109359 0.555096
Si Si4 0.000000 0.236823 0.512051
Si Si5 0.604957 0.324010 0.804315
Si Si6 0.731049 0.591172 0.828825
Si Si7 0.398872 0.627891 0.357068
Si Si8 0.500000 0.036007 0.119600
O O1 0.768139 0.500000 0.500000
O O2 0.749233 0.204415 0.513892
O O3 0.906078 0.328018 0.514399
O O4 0.796524 0.317322 0.396622
O O5 0.250000 0.001499 0.750000
O O6 0.225810 0.013693 0.886164
O O7 0.323799 0.203770 0.829751
O O8 0.403600 0.966694 0.836167
O O9 0.614669 0.236539 0.591623
O O10 0.626466 0.000000 0.500000
O O11 0.000000 0.102810 0.566518
O O12 0.000000 0.168379 0.433949
O O13 0.500000 0.310194 0.830698
O O14 0.646314 0.479938 0.819069
O O15 0.601830 0.305068 0.720789
O O16 0.750000 0.652476 0.750000
O O17 0.819475 0.493950 0.852958
O O18 0.500000 0.560106 0.369884
#
# Coordination Sequence:
#
# PCOD9414904 Si02
#       8
#     8   8   8   4   8   8   8   4
#     4  12  23  40  67  98 132 173 224 271 333 413
#     4  12  20  36  62  93 126 170 222 268 321 387
#     4  12  24  41  62  94 135 173 216 276 337 392
#     4  11  25  42  62  98 140 176 213 267 348 418
#     4  10  18  32  61  97 121 152 210 274 323 377
#     4  10  21  40  63  96 135 171 219 278 339 396
#     4  10  20  38  64  92 121 166 221 274 318 377
#     4  11  24  42  64  96 141 180 211 269 348 404
#
# _framework density 22.126494999999998
#
# number of rings (size 3 to 8) (size 9 to 14) (size 15 to 20)
#    0.000    1.000    6.429    1.500    1.000    0.286 
#    0.000    4.286    0.000    0.000    0.000    0.000 
#    0.000    0.000    0.000    0.000    0.000    0.000 
#
# Total GULP energy -312757.351479 kJ/mol
# GULP energy per Si atom -5584.952705 kJ/mol
# Density = 2.207613 g / cm^3
# Si number density = 22.126495 Si / 1000 Ang^3
#
#
#
# Elastic Constant Matrix: (Units=GPa)
#
#
# Indices 1 2 3 4 5 6 
#
# 1 87.3253 -0.5249 39.7724 0.0000 0.0000 0.0000
# 2 -0.5249 48.5367 22.0532 0.0000 0.0000 0.0000
# 3 39.7724 22.0532 139.0398 0.0000 0.0000 0.0000
# 4 0.0000 0.0000 0.0000 33.5756 0.0000 0.0000
# 5 0.0000 0.0000 0.0000 0.0000 24.5565 0.0000
# 6 0.0000 0.0000 0.0000 0.0000 0.0000 11.6662
#
#
#
# Elastic Compliance Matrix: (Units=1/GPa)
#
#
# Indices 1 2 3 4 5 6 
#
# 1 0.013349 0.002025 -0.004140 0.000000 0.000000 0.000000
# 2 0.002025 0.022510 -0.004150 0.000000 0.000000 0.000000
# 3 -0.004140 -0.004150 0.009035 0.000000 0.000000 0.000000
# 4 0.000000 0.000000 0.000000 0.029784 0.000000 0.000000
# 5 0.000000 0.000000 0.000000 0.000000 0.040722 0.000000
# 6 0.000000 0.000000 0.000000 0.000000 0.000000 0.085718
#
#
# Mechanical properties :
#
#
# Convention : Reuss Voigt Hill
#
# Bulk Modulus (GPa) = 30.89696 44.16702 37.53199
# Shear Modulus (GPa) = 22.27821 28.19972 25.23896
#
# Velocity S-wave (km/s) = 3.17654 3.57386 3.38104
# Velocity P-wave (km/s) = 5.23908 6.08559 5.67813
#
# Compressibility (1/GPa) = 0.03236564
#
# Stress axis : x y z
#
# Youngs Moduli (GPa) = 74.91160 44.42400 110.68620
#
# Poissons Ratio (x) = -0.08997 0.45821
# Poissons Ratio (y) = -0.15172 0.45932
# Poissons Ratio (z) = 0.31011 0.18435
#
# Static dielectric constant tensor:
#      x y z
#    x 1.819340 0.000000 0.000000 
#    y 0.000000 1.804670 0.000000 
#    z 0.000000 0.000000 1.871140 
# 
# From -- ./inp_files/32517.got.cif
#   From: 2010.05.17/outbox.cif.g08.bks.cpg/sg53_17_cif.got.tgz:32517.got - 2010.06.03 12:45:16.
