data_PCOD9415618
_publ_section_title
;
Structure prediction by ZEFSAII (Michael W. Deem and Ramdas Pophale) SiO2 
 PCOD9415618
Probable space group: P M N A
;
_chemical_formula_sum "Si O2"
_cell_formula_units_Z 64
_cell_length_a 17.184505
_cell_length_b 20.565186
_cell_length_c 7.834969
_cell_angle_alpha 90.000000
_cell_angle_beta 90.000000
_cell_angle_gamma 90.000000
_cell_volume 2768.897958
_symmetry_space_group_name_H-M "P M N A"
_symmetry_group_IT_number 53
_symmetry_cell_setting 'orthorhombic'
loop_
_space_group_symop_operation_xyz
x,y,z
1/2-x,-y,1/2+z
x,-y,-z
1/2-x,y,1/2-z
-x,-y,-z
1/2+x,y,1/2-z
-x,y,z
1/2+x,-y,1/2+z
loop_
_atom_site_type_symbol
_atom_site_label
_atom_site_fract_x
_atom_site_fract_y
_atom_site_fract_z
Si Si1 0.092766 0.156778 0.590677
Si Si2 0.657010 0.893183 0.726681
Si Si3 0.586960 0.348823 0.500228
Si Si4 0.168251 0.538431 0.820406
Si Si5 0.910794 0.422107 0.638553
Si Si6 0.166542 0.242358 0.155622
Si Si7 0.092562 0.293243 0.491955
Si Si8 0.338735 0.027689 0.803674
O O1 0.121589 0.133539 0.403338
O O2 0.120708 0.231749 0.607146
O O3 0.120345 0.097205 0.707577
O O4 0.000000 0.158731 0.593257
O O5 0.750000 0.901067 0.750000
O O6 0.647367 0.831588 0.603335
O O7 0.628090 0.966268 0.696561
O O8 0.500000 0.322200 0.474456
O O9 0.608251 0.404598 0.364250
O O10 0.586718 0.384545 0.680511
O O11 0.652748 0.293768 0.492129
O O12 0.250000 0.563571 0.750000
O O13 0.134040 0.487804 0.683399
O O14 0.180607 0.500000 0.000000
O O15 0.874093 0.365355 0.521721
O O16 0.000000 0.435930 0.587728
O O17 0.250000 0.243081 0.250000
O O18 0.108620 0.269164 0.301254
O O19 0.000000 0.299450 0.520998
O O20 0.250000 0.038950 0.750000
O O21 0.340994 0.000000 0.000000
#
# Coordination Sequence:
#
# PCOD9415618 Si02
#       8
#     8   8   8   8   8   8   8   8
#     4   9  17  30  51  77 101 130 173 218 254 296
#     4   8  16  30  47  69 101 134 164 205 255 302
#     4  10  20  35  54  75  99 131 167 202 246 298
#     4  10  21  36  54  76 101 128 160 203 248 291
#     4   9  19  36  55  73  97 131 167 200 239 293
#     4  10  19  32  50  74 103 132 165 207 251 295
#     4   9  18  34  53  74 103 135 165 204 252 297
#     4   9  17  31  50  72  99 134 172 211 255 306
#
# _framework density 23.113889
#
# number of rings (size 3 to 8) (size 9 to 14) (size 15 to 20)
#    0.000    2.750    0.000    1.125    0.000    7.250 
#    0.000    8.125    0.000    3.375    0.000    2.625 
#    0.000    0.000    0.000    0.000    0.000    0.000 
#
# Total GULP energy -356982.506528 kJ/mol
# GULP energy per Si atom -5577.851664 kJ/mol
# Density = 2.306128 g / cm^3
# Si number density = 23.113889 Si / 1000 Ang^3
#
#
#
# Elastic Constant Matrix: (Units=GPa)
#
#
# Indices 1 2 3 4 5 6 
#
# 1 38.9776 3.4654 5.1372 0.0000 0.0000 0.0000
# 2 3.4654 98.7689 21.8855 0.0000 0.0000 0.0000
# 3 5.1372 21.8855 48.8514 0.0000 0.0000 0.0000
# 4 0.0000 0.0000 0.0000 26.4863 0.0000 0.0000
# 5 0.0000 0.0000 0.0000 0.0000 18.0580 0.0000
# 6 0.0000 0.0000 0.0000 0.0000 0.0000 31.9553
#
#
#
# Elastic Compliance Matrix: (Units=1/GPa)
#
#
# Indices 1 2 3 4 5 6 
#
# 1 0.026027 -0.000340 -0.002584 0.000000 0.000000 0.000000
# 2 -0.000340 0.011245 -0.005002 0.000000 0.000000 0.000000
# 3 -0.002584 -0.005002 0.022983 0.000000 0.000000 0.000000
# 4 0.000000 0.000000 0.000000 0.037755 0.000000 0.000000
# 5 0.000000 0.000000 0.000000 0.000000 0.055377 0.000000
# 6 0.000000 0.000000 0.000000 0.000000 0.000000 0.031294
#
#
# Mechanical properties :
#
#
# Convention : Reuss Voigt Hill
#
# Bulk Modulus (GPa) = 22.52213 27.50823 25.01518
# Shear Modulus (GPa) = 23.21967 25.70724 24.46346
#
# Velocity S-wave (km/s) = 3.17294 3.33858 3.25682
# Velocity P-wave (km/s) = 4.81545 5.17576 4.99885
#
# Compressibility (1/GPa) = 0.04440078
#
# Stress axis : x y z
#
# Youngs Moduli (GPa) = 38.42209 88.92889 43.51059
#
# Poissons Ratio (x) = 0.03028 0.11245
# Poissons Ratio (y) = 0.01308 0.21764
# Poissons Ratio (z) = 0.09930 0.44482
#
# Static dielectric constant tensor:
#      x y z
#    x 1.805270 0.000000 0.000000 
#    y 0.000000 1.959980 0.000000 
#    z 0.000000 0.000000 1.968240 
# 
# From -- ./inp_files/10232.got.cif
#   From: 2010.05.17/outbox.cif.g08.bks.cpg/sg53_6_cif.got.tgz:10232.got - 2010.06.03 12:45:16.
