data_PCOD9415001
_publ_section_title
;
Structure prediction by ZEFSAII (Michael W. Deem and Ramdas Pophale) SiO2 
 PCOD9415001
Probable space group: P M N A
;
_chemical_formula_sum "Si O2"
_cell_formula_units_Z 48
_cell_length_a 8.681093
_cell_length_b 16.940653
_cell_length_c 18.337383
_cell_angle_alpha 90.000000
_cell_angle_beta 90.000000
_cell_angle_gamma 90.000000
_cell_volume 2696.757601
_symmetry_space_group_name_H-M "P M N A"
_symmetry_group_IT_number 53
_symmetry_cell_setting 'orthorhombic'
loop_
_space_group_symop_operation_xyz
x,y,z
1/2-x,-y,1/2+z
x,-y,-z
1/2-x,y,1/2-z
-x,-y,-z
1/2+x,y,1/2-z
-x,y,z
1/2+x,-y,1/2+z
loop_
_atom_site_type_symbol
_atom_site_label
_atom_site_fract_x
_atom_site_fract_y
_atom_site_fract_z
Si Si1 0.185538 0.502435 0.586853
Si Si2 0.183114 0.649207 0.168959
Si Si3 0.684764 0.912164 0.525725
Si Si4 0.814792 0.838816 0.671951
Si Si5 0.813534 0.322548 0.398701
Si Si6 0.184921 0.760830 0.450407
O O1 0.215452 0.500000 0.500000
O O2 0.263495 0.430553 0.628253
O O3 0.238539 0.588421 0.615311
O O4 0.000000 0.495366 0.595833
O O5 0.250000 0.649996 0.250000
O O6 0.248101 0.721828 0.121682
O O7 0.000000 0.652699 0.171237
O O8 0.500000 0.905568 0.528740
O O9 0.753288 0.890800 0.604907
O O10 0.750443 0.846560 0.470482
O O11 0.725723 0.000000 0.500000
O O12 0.750000 0.863158 0.750000
O O13 0.763914 0.748294 0.654129
O O14 0.000000 0.841023 0.671886
O O15 0.771729 0.294917 0.480513
O O16 0.000000 0.324577 0.396700
O O17 0.000000 0.763352 0.447065
#
# Coordination Sequence:
#
# PCOD9415001 Si02
#       6
#     8   8   8   8   8   8
#     4  10  18  34  58  81 112 151 192 238 286 334
#     4  12  25  39  55  80 114 152 196 242 291 338
#     4  10  21  38  61  90 120 149 185 229 279 342
#     4  10  20  35  56  83 117 153 191 235 287 338
#     4   8  16  31  54  81 108 145 185 225 276 333
#     4  10  19  37  61  84 110 145 187 230 281 338
#
# _framework density 17.799153
#
# number of rings (size 3 to 8) (size 9 to 14) (size 15 to 20)
#    0.000    2.000    1.667    4.000    0.000    2.333 
#    0.000    4.167    0.000    4.000    0.000    0.000 
#    0.000    0.000    0.000    0.000    0.000    0.000 
#
# Total GULP energy -267967.436891 kJ/mol
# GULP energy per Si atom -5582.654935 kJ/mol
# Density = 1.775864 g / cm^3
# Si number density = 17.799153 Si / 1000 Ang^3
#
#
#
# Elastic Constant Matrix: (Units=GPa)
#
#
# Indices 1 2 3 4 5 6 
#
# 1 80.0980 61.2867 58.3369 0.0000 0.0000 0.0000
# 2 61.2867 157.3703 84.2251 0.0000 0.0000 0.0000
# 3 58.3369 84.2251 135.8006 0.0000 0.0000 0.0000
# 4 0.0000 0.0000 0.0000 15.8372 0.0000 0.0000
# 5 0.0000 0.0000 0.0000 0.0000 26.5513 0.0000
# 6 0.0000 0.0000 0.0000 0.0000 0.0000 28.0574
#
#
#
# Elastic Compliance Matrix: (Units=1/GPa)
#
#
# Indices 1 2 3 4 5 6 
#
# 1 0.020390 -0.004869 -0.005739 0.000000 0.000000 0.000000
# 2 -0.004869 0.010675 -0.004529 0.000000 0.000000 0.000000
# 3 -0.005739 -0.004529 0.012638 0.000000 0.000000 0.000000
# 4 0.000000 0.000000 0.000000 0.063142 0.000000 0.000000
# 5 0.000000 0.000000 0.000000 0.000000 0.037663 0.000000
# 6 0.000000 0.000000 0.000000 0.000000 0.000000 0.035641
#
#
# Mechanical properties :
#
#
# Convention : Reuss Voigt Hill
#
# Bulk Modulus (GPa) = 74.46919 86.77403 80.62161
# Shear Modulus (GPa) = 23.26661 25.38386 24.32524
#
# Velocity S-wave (km/s) = 3.61941 3.78051 3.70084
# Velocity P-wave (km/s) = 7.70690 8.24099 7.97841
#
# Compressibility (1/GPa) = 0.01342837
#
# Stress axis : x y z
#
# Youngs Moduli (GPa) = 49.04268 93.68104 79.12623
#
# Poissons Ratio (x) = 0.45615 0.45413
# Poissons Ratio (y) = 0.23880 0.35834
# Poissons Ratio (z) = 0.28147 0.42426
#
# Static dielectric constant tensor:
#      x y z
#    x 1.598170 0.000000 0.000000 
#    y 0.000000 1.609580 0.000000 
#    z 0.000000 0.000000 1.587000 
# 
# From -- ./inp_files/26265.got.cif
#   From: 2010.05.17/outbox.cif.g08.bks.cpg/sg53_14_cif.got.tgz:26265.got - 2010.06.03 12:45:16.
