data_PCOD9415397
_publ_section_title
;
Structure prediction by ZEFSAII (Michael W. Deem and Ramdas Pophale) SiO2 
 PCOD9415397
Probable space group: P M N A
;
_chemical_formula_sum "Si O2"
_cell_formula_units_Z 48
_cell_length_a 8.455677
_cell_length_b 13.749038
_cell_length_c 18.104602
_cell_angle_alpha 90.000000
_cell_angle_beta 90.000000
_cell_angle_gamma 90.000000
_cell_volume 2104.794398
_symmetry_space_group_name_H-M "P M N A"
_symmetry_group_IT_number 53
_symmetry_cell_setting 'orthorhombic'
loop_
_space_group_symop_operation_xyz
x,y,z
1/2-x,-y,1/2+z
x,-y,-z
1/2-x,y,1/2-z
-x,-y,-z
1/2+x,y,1/2-z
-x,y,z
1/2+x,-y,1/2+z
loop_
_atom_site_type_symbol
_atom_site_label
_atom_site_fract_x
_atom_site_fract_y
_atom_site_fract_z
Si Si1 0.307035 0.340746 0.867768
Si Si2 0.184134 0.135783 0.641551
Si Si3 0.321828 0.115754 0.486413
Si Si4 0.678259 0.612615 0.974471
Si Si5 0.809125 0.082350 0.328953
Si Si6 0.314567 0.552084 0.674627
O O1 0.500000 0.340360 0.869757
O O2 0.249025 0.239766 0.832400
O O3 0.256839 0.443067 0.833576
O O4 0.247632 0.341246 0.952789
O O5 0.204007 0.142063 0.552800
O O6 0.249873 0.031432 0.666310
O O7 0.000000 0.133522 0.661382
O O8 0.500000 0.155856 0.494833
O O9 0.334421 0.000000 0.500000
O O10 0.257286 0.131553 0.403653
O O11 0.500000 0.649399 0.962752
O O12 0.768299 0.612335 0.897830
O O13 0.666656 0.500000 0.000000
O O14 0.750000 0.121221 0.250000
O O15 0.000000 0.083812 0.331976
O O16 0.250000 0.596466 0.750000
O O17 0.500000 0.541891 0.679080
#
# Coordination Sequence:
#
# PCOD9415397 Si02
#       6
#     8   8   8   8   8   8
#     4   9  18  33  51  72  99 128 157 192 237 285
#     4   9  18  32  50  72  98 128 158 191 235 285
#     4   9  17  30  48  69  93 123 161 199 233 275
#     4   8  15  30  50  69  92 123 158 194 232 277
#     4  10  19  31  48  70  97 127 160 196 236 281
#     4  11  21  32  48  70  97 127 161 198 237 282
#
# _framework density 22.805078000000002
#
# number of rings (size 3 to 8) (size 9 to 14) (size 15 to 20)
#    0.000    2.667    0.000    3.500    0.000    7.000 
#    0.000    1.667    0.000    1.000    0.000    4.667 
#    0.000    0.000    0.000    0.000    0.000    0.000 
#
# Total GULP energy -267694.679935 kJ/mol
# GULP energy per Si atom -5576.972499 kJ/mol
# Density = 2.275317 g / cm^3
# Si number density = 22.805078 Si / 1000 Ang^3
#
#
#
# Elastic Constant Matrix: (Units=GPa)
#
#
# Indices 1 2 3 4 5 6 
#
# 1 44.1862 -9.2392 8.5788 0.0000 0.0000 0.0000
# 2 -9.2392 34.0735 -14.1877 0.0000 0.0000 0.0000
# 3 8.5788 -14.1877 152.3855 0.0000 0.0000 0.0000
# 4 0.0000 0.0000 0.0000 -4.6457 0.0000 0.0000
# 5 0.0000 0.0000 0.0000 0.0000 29.4085 0.0000
# 6 0.0000 0.0000 0.0000 0.0000 0.0000 6.1819
#
#
#
# Elastic Compliance Matrix: (Units=1/GPa)
#
#
# Indices 1 2 3 4 5 6 
#
# 1 0.024080 0.006206 -0.000778 0.000000 0.000000 0.000000
# 2 0.006206 0.032131 0.002642 0.000000 0.000000 0.000000
# 3 -0.000778 0.002642 0.006852 0.000000 0.000000 0.000000
# 4 0.000000 0.000000 0.000000 -0.215253 0.000000 0.000000
# 5 0.000000 0.000000 0.000000 0.000000 0.034004 0.000000
# 6 0.000000 0.000000 0.000000 0.000000 0.000000 0.161762
#
#
# Mechanical properties :
#
#
# Convention : Reuss Voigt Hill
#
# Bulk Modulus (GPa) = 12.62580 22.32769 17.47674
# Shear Modulus (GPa) = 92.87232 22.55516 57.71374
#
# Velocity S-wave (km/s) = 6.38849 3.14831 5.03610
# Velocity P-wave (km/s) = 7.74374 4.79872 6.44179
#
# Compressibility (1/GPa) = 0.07920288
#
# Stress axis : x y z
#
# Youngs Moduli (GPa) = 41.52812 31.12249 145.94079
#
# Poissons Ratio (x) = -0.19313 0.11352
# Poissons Ratio (y) = -0.25770 -0.38560
# Poissons Ratio (z) = 0.03230 -0.08223
#
# Static dielectric constant tensor:
#      x y z
#    x 1.803730 0.000000 0.000000 
#    y 0.000000 1.948390 0.000000 
#    z 0.000000 0.000000 1.857850 
# 
# From -- ./inp_files/20149.got.cif
#   From: 2010.05.17/outbox.cif.g08.bks.cpg/sg53_11_cif.got.tgz:20149.got - 2010.06.03 12:45:16.
