data_PCOD9415902
_publ_section_title
;
Structure prediction by ZEFSAII (Michael W. Deem and Ramdas Pophale) SiO2 
 PCOD9415902
Probable space group: P M N A
;
_chemical_formula_sum "Si O2"
_cell_formula_units_Z 64
_cell_length_a 25.051226
_cell_length_b 9.668270
_cell_length_c 14.501583
_cell_angle_alpha 90.000000
_cell_angle_beta 90.000000
_cell_angle_gamma 90.000000
_cell_volume 3512.312649
_symmetry_space_group_name_H-M "P M N A"
_symmetry_group_IT_number 53
_symmetry_cell_setting 'orthorhombic'
loop_
_space_group_symop_operation_xyz
x,y,z
1/2-x,-y,1/2+z
x,-y,-z
1/2-x,y,1/2-z
-x,-y,-z
1/2+x,y,1/2-z
-x,y,z
1/2+x,-y,1/2+z
loop_
_atom_site_type_symbol
_atom_site_label
_atom_site_fract_x
_atom_site_fract_y
_atom_site_fract_z
Si Si1 0.245574 0.154368 0.358818
Si Si2 0.441186 0.345423 0.040405
Si Si3 0.130080 0.871271 0.880248
Si Si4 0.823323 0.331614 0.500902
Si Si5 0.561537 0.434450 0.599543
Si Si6 0.754186 0.168636 0.640689
Si Si7 0.559763 0.314379 0.258473
Si Si8 0.631632 0.181791 0.587449
O O1 0.250000 0.183317 0.250000
O O2 0.307158 0.157958 0.388582
O O3 0.208646 0.259378 0.415829
O O4 0.229540 0.992894 0.373506
O O5 0.500000 0.281321 0.020514
O O6 0.385481 0.286742 0.002688
O O7 0.434691 0.348676 0.151118
O O8 0.443454 0.500000 0.000000
O O9 0.103547 0.788863 0.797878
O O10 0.120439 0.033762 0.867047
O O11 0.110623 0.829024 0.981992
O O12 0.820124 0.500000 0.500000
O O13 0.795272 0.269888 0.591286
O O14 0.576774 0.500000 0.500000
O O15 0.500000 0.386487 0.590606
O O16 0.563549 0.550774 0.677683
O O17 0.600863 0.311855 0.627095
O O18 0.750000 0.190376 0.750000
O O19 0.695585 0.194597 0.597026
O O20 0.500000 0.255760 0.272371
#
# Coordination Sequence:
#
# PCOD9415902 Si02
#       8
#     8   8   8   8   8   8   8   8
#     4  10  20  37  59  81 113 155 194 230 279 344
#     4   9  20  39  60  83 113 150 190 234 286 339
#     4  10  19  33  52  79 111 148 189 229 279 336
#     4  11  22  35  58  89 115 146 189 243 286 335
#     4  10  20  34  52  78 110 148 189 228 280 340
#     4  10  22  39  58  81 114 156 192 230 284 344
#     4  10  20  35  57  82 111 149 192 236 282 339
#     4  10  20  33  52  76 113 151 186 229 280 337
#
# _framework density 18.221613000000001
#
# number of rings (size 3 to 8) (size 9 to 14) (size 15 to 20)
#    0.000    2.000    2.500    1.125    0.000    4.500 
#    0.000    1.250    0.000    1.500    0.000    7.000 
#    0.000    0.000    0.000    0.000    0.000    0.000 
#
# Total GULP energy -356707.965426 kJ/mol
# GULP energy per Si atom -5573.561960 kJ/mol
# Density = 1.818014 g / cm^3
# Si number density = 18.221613 Si / 1000 Ang^3
#
#
#
# Elastic Constant Matrix: (Units=GPa)
#
#
# Indices 1 2 3 4 5 6 
#
# 1 96.3601 65.1764 40.4619 0.0000 0.0000 0.0000
# 2 65.1764 77.9851 35.5912 0.0000 0.0000 0.0000
# 3 40.4619 35.5912 86.0819 0.0000 0.0000 0.0000
# 4 0.0000 0.0000 0.0000 25.3720 0.0000 0.0000
# 5 0.0000 0.0000 0.0000 0.0000 -78.9585 0.0000
# 6 0.0000 0.0000 0.0000 0.0000 0.0000 9.3159
#
#
#
# Elastic Compliance Matrix: (Units=1/GPa)
#
#
# Indices 1 2 3 4 5 6 
#
# 1 0.024848 -0.019027 -0.003813 0.000000 0.000000 0.000000
# 2 -0.019027 0.030375 -0.003615 0.000000 0.000000 0.000000
# 3 -0.003813 -0.003615 0.014904 0.000000 0.000000 0.000000
# 4 0.000000 0.000000 0.000000 0.039414 0.000000 0.000000
# 5 0.000000 0.000000 0.000000 0.000000 -0.012665 0.000000
# 6 0.000000 0.000000 0.000000 0.000000 0.000000 0.107343
#
#
# Mechanical properties :
#
#
# Convention : Reuss Voigt Hill
#
# Bulk Modulus (GPa) = 58.08296 60.32066 59.20181
# Shear Modulus (GPa) = 19.02099 -0.90762 9.05669
#
# Velocity S-wave (km/s) = 3.23440 -0.70653 2.23184
# Velocity P-wave (km/s) = 6.77448 5.70177 6.26114
#
# Compressibility (1/GPa) = 0.01721675
#
# Stress axis : x y z
#
# Youngs Moduli (GPa) = 40.24429 32.92208 67.09704
#
# Poissons Ratio (x) = 0.62641 0.25583
# Poissons Ratio (y) = 0.76572 0.24257
# Poissons Ratio (z) = 0.15345 0.11902
#
# Static dielectric constant tensor:
#      x y z
#    x 1.660690 0.000000 0.000000 
#    y 0.000000 1.611150 0.000000 
#    z 0.000000 0.000000 1.818020 
# 
# From -- ./inp_files/24723.got.cif
#   From: 2010.05.17/outbox.cif.g08.bks.cpg/sg53_13_cif.got.tgz:24723.got - 2010.06.03 12:45:16.
