data_PCOD9415658
_publ_section_title
;
Structure prediction by ZEFSAII (Michael W. Deem and Ramdas Pophale) SiO2 
 PCOD9415658
Probable space group: P M N A
;
_chemical_formula_sum "Si O2"
_cell_formula_units_Z 48
_cell_length_a 8.401807
_cell_length_b 32.532742
_cell_length_c 9.247914
_cell_angle_alpha 90.000000
_cell_angle_beta 90.000000
_cell_angle_gamma 90.000000
_cell_volume 2527.767656
_symmetry_space_group_name_H-M "P M N A"
_symmetry_group_IT_number 53
_symmetry_cell_setting 'orthorhombic'
loop_
_space_group_symop_operation_xyz
x,y,z
1/2-x,-y,1/2+z
x,-y,-z
1/2-x,y,1/2-z
-x,-y,-z
1/2+x,y,1/2-z
-x,y,z
1/2+x,-y,1/2+z
loop_
_atom_site_type_symbol
_atom_site_label
_atom_site_fract_x
_atom_site_fract_y
_atom_site_fract_z
Si Si1 0.192520 0.796739 0.586055
Si Si2 0.307547 0.460104 0.585335
Si Si3 0.192417 0.959304 0.585594
Si Si4 0.807614 0.877967 0.414277
Si Si5 0.690574 0.629437 0.416195
Si Si6 0.190204 0.283940 0.584670
O O1 0.250000 0.799044 0.750000
O O2 0.246028 0.836562 0.495459
O O3 0.247231 0.754827 0.508348
O O4 0.000000 0.796609 0.585664
O O5 0.249014 0.500000 0.500000
O O6 0.250000 0.462447 0.750000
O O7 0.500000 0.460768 0.584926
O O8 0.259025 0.415211 0.523469
O O9 0.250000 0.959602 0.750000
O O10 0.246153 0.918302 0.501883
O O11 0.000000 0.959306 0.586269
O O12 0.246065 0.000000 0.500000
O O13 0.750000 0.878959 0.250000
O O14 0.000000 0.878014 0.413728
O O15 0.750000 0.629065 0.250000
O O16 0.500000 0.631517 0.417066
O O17 0.755960 0.671998 0.478369
O O18 0.250000 0.280374 0.750000
O O19 0.000000 0.283525 0.588996
#
# Coordination Sequence:
#
# PCOD9415658 Si02
#       6
#     8   8   8   8   8   8
#     4  10  22  37  53  75 103 135 170 208 251 302
#     4   9  18  32  49  71  98 127 162 202 243 292
#     4  10  21  36  55  81 111 142 178 218 260 309
#     4  10  21  37  56  80 107 136 175 217 257 305
#     4   9  16  28  48  71  96 127 162 201 245 291
#     4  10  19  32  51  75  99 125 163 206 247 295
#
# _framework density 18.989087000000001
#
# number of rings (size 3 to 8) (size 9 to 14) (size 15 to 20)
#    0.000    2.333    0.000    3.500    0.000    4.000 
#    0.000    0.833    0.000    4.000    0.000    0.000 
#    0.000    0.000    0.000    0.000    0.000    0.000 
#
# Total GULP energy -267790.090831 kJ/mol
# GULP energy per Si atom -5578.960226 kJ/mol
# Density = 1.894587 g / cm^3
# Si number density = 18.989087 Si / 1000 Ang^3
#
#
#
# Elastic Constant Matrix: (Units=GPa)
#
#
# Indices 1 2 3 4 5 6 
#
# 1 15.5438 30.0468 11.4596 0.0000 0.0000 0.0000
# 2 30.0468 244.2728 105.1126 0.0000 0.0000 0.0000
# 3 11.4596 105.1126 124.5195 0.0000 0.0000 0.0000
# 4 0.0000 0.0000 0.0000 34.4322 0.0000 0.0000
# 5 0.0000 0.0000 0.0000 0.0000 26.9889 0.0000
# 6 0.0000 0.0000 0.0000 0.0000 0.0000 23.4901
#
#
#
# Elastic Compliance Matrix: (Units=1/GPa)
#
#
# Indices 1 2 3 4 5 6 
#
# 1 0.084598 -0.011081 0.001568 0.000000 0.000000 0.000000
# 2 -0.011081 0.007881 -0.005633 0.000000 0.000000 0.000000
# 3 0.001568 -0.005633 0.012641 0.000000 0.000000 0.000000
# 4 0.000000 0.000000 0.000000 0.029043 0.000000 0.000000
# 5 0.000000 0.000000 0.000000 0.000000 0.037052 0.000000
# 6 0.000000 0.000000 0.000000 0.000000 0.000000 0.042571
#
#
# Mechanical properties :
#
#
# Convention : Reuss Voigt Hill
#
# Bulk Modulus (GPa) = 13.36369 75.28602 44.32485
# Shear Modulus (GPa) = 18.58602 32.83003 25.70803
#
# Velocity S-wave (km/s) = 3.13193 4.16250 3.68344
# Velocity P-wave (km/s) = 4.48681 7.92685 6.44075
#
# Compressibility (1/GPa) = 0.07482963
#
# Stress axis : x y z
#
# Youngs Moduli (GPa) = 11.82058 126.89536 79.10628
#
# Poissons Ratio (x) = 1.40611 -0.12406
# Poissons Ratio (y) = 0.13098 0.44557
# Poissons Ratio (z) = -0.01854 0.71474
#
# Static dielectric constant tensor:
#      x y z
#    x 1.659300 0.000000 0.000000 
#    y 0.000000 1.708840 0.000000 
#    z 0.000000 0.000000 1.600250 
# 
# From -- ./inp_files/6692.got.cif
#   From: 2010.05.17/outbox.cif.g08.bks.cpg/sg53_4_cif.got.tgz:6692.got - 2010.06.03 12:45:16.
