data_PCOD9415404
_publ_section_title
;
Structure prediction by ZEFSAII (Michael W. Deem and Ramdas Pophale) SiO2 
 PCOD9415404
Probable space group: P M N A
;
_chemical_formula_sum "Si O2"
_cell_formula_units_Z 56
_cell_length_a 8.798506
_cell_length_b 19.408535
_cell_length_c 17.459679
_cell_angle_alpha 90.000000
_cell_angle_beta 90.000000
_cell_angle_gamma 90.000000
_cell_volume 2981.521493
_symmetry_space_group_name_H-M "P M N A"
_symmetry_group_IT_number 53
_symmetry_cell_setting 'orthorhombic'
loop_
_space_group_symop_operation_xyz
x,y,z
1/2-x,-y,1/2+z
x,-y,-z
1/2-x,y,1/2-z
-x,-y,-z
1/2+x,y,1/2-z
-x,y,z
1/2+x,-y,1/2+z
loop_
_atom_site_type_symbol
_atom_site_label
_atom_site_fract_x
_atom_site_fract_y
_atom_site_fract_z
Si Si1 0.677494 0.853986 0.332633
Si Si2 0.179650 0.210429 0.427987
Si Si3 0.683543 0.922175 0.017053
Si Si4 0.678812 0.281202 0.572825
Si Si5 0.315479 0.460936 0.422755
Si Si6 0.682175 0.673030 0.666597
Si Si7 0.318122 0.409381 0.669267
O O1 0.750000 0.865256 0.250000
O O2 0.500000 0.871044 0.329847
O O3 0.753919 0.896280 0.401604
O O4 0.690628 0.773996 0.358443
O O5 0.229883 0.133024 0.451426
O O6 0.219456 0.253338 0.504554
O O7 0.263710 0.251839 0.361322
O O8 0.000000 0.210146 0.413190
O O9 0.500000 0.920226 0.020179
O O10 0.732181 0.000000 0.000000
O O11 0.500000 0.283122 0.548550
O O12 0.725294 0.355512 0.603369
O O13 0.262161 0.500000 0.500000
O O14 0.500000 0.457678 0.429543
O O15 0.267014 0.384892 0.396017
O O16 0.274984 0.513782 0.354967
O O17 0.750000 0.657278 0.750000
O O18 0.500000 0.670866 0.670418
O O19 0.250000 0.389438 0.750000
O O20 0.500000 0.406047 0.674043
#
# Coordination Sequence:
#
# PCOD9415404 Si02
#       7
#     8   8   8   8   8   8   8
#     4  10  19  31  50  78 110 142 176 212 255 310
#     4  10  20  35  57  82 105 132 170 213 259 314
#     4   9  19  37  59  81 107 138 172 215 267 321
#     4   9  18  32  51  75 104 139 174 208 251 307
#     4   9  18  33  53  74  98 134 178 222 269 318
#     4  11  22  37  57  79 108 144 184 229 273 320
#     4  10  19  31  48  71 100 133 169 209 255 303
#
# _framework density 18.782357000000001
#
# number of rings (size 3 to 8) (size 9 to 14) (size 15 to 20)
#    0.000    2.286    0.000    3.000    0.000    4.286 
#    0.000    1.429    0.000    3.000    0.000    0.000 
#    0.000    0.000    0.000    0.000    0.000    0.000 
#
# Total GULP energy -312371.763601 kJ/mol
# GULP energy per Si atom -5578.067207 kJ/mol
# Density = 1.873961 g / cm^3
# Si number density = 18.782357 Si / 1000 Ang^3
#
#
#
# Elastic Constant Matrix: (Units=GPa)
#
#
# Indices 1 2 3 4 5 6 
#
# 1 24.0334 26.7767 19.9241 0.0000 0.0000 0.0000
# 2 26.7767 124.5946 30.4019 0.0000 0.0000 0.0000
# 3 19.9241 30.4019 73.1008 0.0000 0.0000 0.0000
# 4 0.0000 0.0000 0.0000 19.0492 0.0000 0.0000
# 5 0.0000 0.0000 0.0000 0.0000 30.5997 0.0000
# 6 0.0000 0.0000 0.0000 0.0000 0.0000 37.8613
#
#
#
# Elastic Compliance Matrix: (Units=1/GPa)
#
#
# Indices 1 2 3 4 5 6 
#
# 1 0.064313 -0.010622 -0.013111 0.000000 0.000000 0.000000
# 2 -0.010622 0.010687 -0.001549 0.000000 0.000000 0.000000
# 3 -0.013111 -0.001549 0.017898 0.000000 0.000000 0.000000
# 4 0.000000 0.000000 0.000000 0.052496 0.000000 0.000000
# 5 0.000000 0.000000 0.000000 0.000000 0.032680 0.000000
# 6 0.000000 0.000000 0.000000 0.000000 0.000000 0.026412
#
#
# Mechanical properties :
#
#
# Convention : Reuss Voigt Hill
#
# Bulk Modulus (GPa) = 23.62293 41.77046 32.69670
# Shear Modulus (GPa) = 18.57618 27.14379 22.85999
#
# Velocity S-wave (km/s) = 3.14829 3.80567 3.49248
# Velocity P-wave (km/s) = 5.08135 6.44968 5.80596
#
# Compressibility (1/GPa) = 0.04233175
#
# Stress axis : x y z
#
# Youngs Moduli (GPa) = 15.54895 93.57216 55.87322
#
# Poissons Ratio (x) = 0.99395 0.73257
# Poissons Ratio (y) = 0.16517 0.08657
# Poissons Ratio (z) = 0.20387 0.14498
#
# Static dielectric constant tensor:
#      x y z
#    x 1.632240 0.000000 0.000000 
#    y 0.000000 1.670810 0.000000 
#    z 0.000000 0.000000 1.648110 
# 
# From -- ./inp_files/20647.got.cif
#   From: 2010.05.17/outbox.cif.g08.bks.cpg/sg53_11_cif.got.tgz:20647.got - 2010.06.03 12:45:16.
