data_PCOD9415888
_publ_section_title
;
Structure prediction by ZEFSAII (Michael W. Deem and Ramdas Pophale) SiO2 
 PCOD9415888
Probable space group: P M N A
;
_chemical_formula_sum "Si O2"
_cell_formula_units_Z 48
_cell_length_a 15.649079
_cell_length_b 9.016012
_cell_length_c 18.728093
_cell_angle_alpha 90.000000
_cell_angle_beta 90.000000
_cell_angle_gamma 90.000000
_cell_volume 2642.389417
_symmetry_space_group_name_H-M "P M N A"
_symmetry_group_IT_number 53
_symmetry_cell_setting 'orthorhombic'
loop_
_space_group_symop_operation_xyz
x,y,z
1/2-x,-y,1/2+z
x,-y,-z
1/2-x,y,1/2-z
-x,-y,-z
1/2+x,y,1/2-z
-x,y,z
1/2+x,-y,1/2+z
loop_
_atom_site_type_symbol
_atom_site_label
_atom_site_fract_x
_atom_site_fract_y
_atom_site_fract_z
Si Si1 0.843217 0.345266 0.715205
Si Si2 0.727653 0.825312 0.082071
Si Si3 0.727384 0.182490 0.080307
Si Si4 0.093637 0.171368 0.850538
Si Si5 0.096542 0.184537 0.152113
Si Si6 0.597970 0.675004 0.807713
O O1 0.750000 0.376125 0.750000
O O2 0.827656 0.252609 0.643154
O O3 0.892449 0.250053 0.774626
O O4 0.888427 0.499476 0.699039
O O5 0.826752 0.788634 0.099475
O O6 0.719373 0.003735 0.087386
O O7 0.707341 0.778907 0.001537
O O8 0.825280 0.223079 0.100132
O O9 0.664025 0.259016 0.135720
O O10 0.000000 0.209692 0.879566
O O11 0.097166 0.993891 0.840332
O O12 0.113350 0.255212 0.229460
O O13 0.000000 0.227578 0.129173
O O14 0.500000 0.708868 0.827599
#
# Coordination Sequence:
#
# PCOD9415888 Si02
#       6
#     8   8   8   8   8   8
#     4  10  19  33  52  74 101 135 171 211 255 300
#     4   9  20  34  53  76 103 137 170 202 255 307
#     4  10  19  36  54  75 107 138 166 209 253 302
#     4   9  17  32  54  80 105 130 164 208 252 304
#     4   9  18  32  55  82 105 132 167 205 253 306
#     4  11  22  35  52  75 100 134 177 217 255 297
#
# _framework density 18.165378
#
# number of rings (size 3 to 8) (size 9 to 14) (size 15 to 20)
#    0.000    2.333    0.000    3.000    0.000    4.000 
#    0.000    8.333    0.000    0.000    0.000    9.333 
#    0.000    0.000    0.000    0.000    0.000    0.000 
#
# Total GULP energy -267806.553297 kJ/mol
# GULP energy per Si atom -5579.303194 kJ/mol
# Density = 1.812403 g / cm^3
# Si number density = 18.165378 Si / 1000 Ang^3
#
#
#
# Elastic Constant Matrix: (Units=GPa)
#
#
# Indices 1 2 3 4 5 6 
#
# 1 34.1400 4.4016 6.7224 0.0000 0.0000 0.0000
# 2 4.4016 9.3767 9.9091 0.0000 0.0000 0.0000
# 3 6.7224 9.9091 60.9366 0.0000 0.0000 0.0000
# 4 0.0000 0.0000 0.0000 -7.3805 0.0000 0.0000
# 5 0.0000 0.0000 0.0000 0.0000 11.8104 0.0000
# 6 0.0000 0.0000 0.0000 0.0000 0.0000 24.9792
#
#
#
# Elastic Compliance Matrix: (Units=1/GPa)
#
#
# Indices 1 2 3 4 5 6 
#
# 1 0.031261 -0.013319 -0.001283 0.000000 0.000000 0.000000
# 2 -0.013319 0.134452 -0.020394 0.000000 0.000000 0.000000
# 3 -0.001283 -0.020394 0.019868 0.000000 0.000000 0.000000
# 4 0.000000 0.000000 0.000000 -0.135493 0.000000 0.000000
# 5 0.000000 0.000000 0.000000 0.000000 0.084671 0.000000
# 6 0.000000 0.000000 0.000000 0.000000 0.000000 0.040033
#
#
# Mechanical properties :
#
#
# Convention : Reuss Voigt Hill
#
# Bulk Modulus (GPa) = 8.65132 16.27993 12.46562
# Shear Modulus (GPa) = 17.64816 11.44317 14.54567
#
# Velocity S-wave (km/s) = 3.12031 2.51259 2.83280
# Velocity P-wave (km/s) = 4.21363 4.17121 4.19248
#
# Compressibility (1/GPa) = 0.11558936
#
# Stress axis : x y z
#
# Youngs Moduli (GPa) = 31.98876 7.43758 50.33115
#
# Poissons Ratio (x) = 0.09906 0.06456
# Poissons Ratio (y) = 0.42606 1.02647
# Poissons Ratio (z) = 0.04103 0.15168
#
# Static dielectric constant tensor:
#      x y z
#    x 1.637190 0.000000 0.000000 
#    y 0.000000 1.606330 0.000000 
#    z 0.000000 0.000000 1.584720 
# 
# From -- ./inp_files/28241.got.cif
#   From: 2010.05.17/outbox.cif.g08.bks.cpg/sg53_15_cif.got.tgz:28241.got - 2010.06.03 12:45:16.
