data_PCOD9415882
_publ_section_title
;
Structure prediction by ZEFSAII (Michael W. Deem and Ramdas Pophale) SiO2 
 PCOD9415882
Probable space group: P M N A
;
_chemical_formula_sum "Si O2"
_cell_formula_units_Z 64
_cell_length_a 9.081893
_cell_length_b 15.766668
_cell_length_c 25.503788
_cell_angle_alpha 90.000000
_cell_angle_beta 90.000000
_cell_angle_gamma 90.000000
_cell_volume 3651.917798
_symmetry_space_group_name_H-M "P M N A"
_symmetry_group_IT_number 53
_symmetry_cell_setting 'orthorhombic'
loop_
_space_group_symop_operation_xyz
x,y,z
1/2-x,-y,1/2+z
x,-y,-z
1/2-x,y,1/2-z
-x,-y,-z
1/2+x,y,1/2-z
-x,y,z
1/2+x,-y,1/2+z
loop_
_atom_site_type_symbol
_atom_site_label
_atom_site_fract_x
_atom_site_fract_y
_atom_site_fract_z
Si Si1 0.170583 0.646950 0.940266
Si Si2 0.174946 0.891513 0.694664
Si Si3 0.169741 0.513435 0.698364
Si Si4 0.168062 0.700687 0.661113
Si Si5 0.327016 0.296789 0.959065
Si Si6 0.823916 0.874296 0.027715
Si Si7 0.673261 0.457146 0.593139
Si Si8 0.676724 0.053409 0.415396
O O1 0.212421 0.685006 0.884015
O O2 0.190500 0.545063 0.939088
O O3 0.000000 0.664798 0.953650
O O4 0.282588 0.686205 0.980986
O O5 0.250000 0.918506 0.750000
O O6 0.192828 0.789383 0.689584
O O7 0.244336 0.927493 0.640024
O O8 0.000000 0.910107 0.696147
O O9 0.250000 0.483218 0.750000
O O10 0.173799 0.616111 0.695957
O O11 0.256485 0.479306 0.648674
O O12 0.000000 0.487698 0.696284
O O13 0.000000 0.703076 0.639049
O O14 0.500000 0.296284 0.950715
O O15 0.256420 0.205782 0.947324
O O16 0.253095 0.375605 0.929669
O O17 0.000000 0.861383 0.027399
O O18 0.795392 0.958948 0.061701
O O19 0.780517 0.888844 0.966235
O O20 0.500000 0.440829 0.596782
O O21 0.500000 0.062977 0.408084
#
# Coordination Sequence:
#
# PCOD9415882 Si02
#       8
#     8   8   8   8   8   8   8   8
#     4  10  20  33  51  74 103 141 178 212 253 302
#     4  11  22  34  51  77 110 146 180 215 258 310
#     4  10  19  33  52  73 100 134 174 217 259 303
#     4   9  19  33  49  74 106 139 176 215 254 299
#     4  12  23  33  50  77 107 137 170 210 257 307
#     4   9  19  37  60  82 105 136 172 214 263 315
#     4  10  21  36  52  72 100 136 177 216 256 303
#     4   9  19  37  59  82 107 136 173 214 260 314
#
# _framework density 17.525039
#
# number of rings (size 3 to 8) (size 9 to 14) (size 15 to 20)
#    0.000    2.000    0.000    4.875    0.000    7.500 
#    0.000    1.250    0.000    0.750    0.000    1.750 
#    0.000    0.000    0.000    0.000    0.000    0.000 
#
# Total GULP energy -357029.284332 kJ/mol
# GULP energy per Si atom -5578.582568 kJ/mol
# Density = 1.748515 g / cm^3
# Si number density = 17.525039 Si / 1000 Ang^3
#
#
#
# Elastic Constant Matrix: (Units=GPa)
#
#
# Indices 1 2 3 4 5 6 
#
# 1 86.1204 49.9481 36.2990 0.0000 0.0000 0.0000
# 2 49.9481 70.3164 23.4864 0.0000 0.0000 0.0000
# 3 36.2990 23.4864 69.2908 0.0000 0.0000 0.0000
# 4 0.0000 0.0000 0.0000 9.5537 0.0000 0.0000
# 5 0.0000 0.0000 0.0000 0.0000 29.3689 0.0000
# 6 0.0000 0.0000 0.0000 0.0000 0.0000 16.5022
#
#
#
# Elastic Compliance Matrix: (Units=1/GPa)
#
#
# Indices 1 2 3 4 5 6 
#
# 1 0.022533 -0.013604 -0.007193 0.000000 0.000000 0.000000
# 2 -0.013604 0.024250 -0.001093 0.000000 0.000000 0.000000
# 3 -0.007193 -0.001093 0.018571 0.000000 0.000000 0.000000
# 4 0.000000 0.000000 0.000000 0.104671 0.000000 0.000000
# 5 0.000000 0.000000 0.000000 0.000000 0.034050 0.000000
# 6 0.000000 0.000000 0.000000 0.000000 0.000000 0.060598
#
#
# Mechanical properties :
#
#
# Convention : Reuss Voigt Hill
#
# Bulk Modulus (GPa) = 46.35288 49.46608 47.90948
# Shear Modulus (GPa) = 15.84064 18.81791 17.32928
#
# Velocity S-wave (km/s) = 3.00973 3.28040 3.14798
# Velocity P-wave (km/s) = 6.21168 6.52957 6.37261
#
# Compressibility (1/GPa) = 0.02157363
#
# Stress axis : x y z
#
# Youngs Moduli (GPa) = 44.37852 41.23782 53.84784
#
# Poissons Ratio (x) = 0.56098 0.38735
# Poissons Ratio (y) = 0.60371 0.05886
# Poissons Ratio (z) = 0.31924 0.04508
#
# Static dielectric constant tensor:
#      x y z
#    x 1.585740 0.000000 0.000000 
#    y 0.000000 1.607940 0.000000 
#    z 0.000000 0.000000 1.588470 
# 
# From -- ./inp_files/34341.got.cif
#   From: 2010.05.17/outbox.cif.g08.bks.cpg/sg53_18_cif.got.tgz:34341.got - 2010.06.03 12:45:16.
