data_PCOD9415574
_publ_section_title
;
Structure prediction by ZEFSAII (Michael W. Deem and Ramdas Pophale) SiO2 
 PCOD9415574
Probable space group: P M N A
;
_chemical_formula_sum "Si O2"
_cell_formula_units_Z 64
_cell_length_a 7.832426
_cell_length_b 17.856163
_cell_length_c 26.233956
_cell_angle_alpha 90.000000
_cell_angle_beta 90.000000
_cell_angle_gamma 90.000000
_cell_volume 3669.004361
_symmetry_space_group_name_H-M "P M N A"
_symmetry_group_IT_number 53
_symmetry_cell_setting 'orthorhombic'
loop_
_space_group_symop_operation_xyz
x,y,z
1/2-x,-y,1/2+z
x,-y,-z
1/2-x,y,1/2-z
-x,-y,-z
1/2+x,y,1/2-z
-x,y,z
1/2+x,-y,1/2+z
loop_
_atom_site_type_symbol
_atom_site_label
_atom_site_fract_x
_atom_site_fract_y
_atom_site_fract_z
Si Si1 0.790376 0.818112 0.098938
Si Si2 0.206618 0.334726 0.056769
Si Si3 0.196105 0.173928 0.408011
Si Si4 0.703918 0.911094 0.692400
Si Si5 0.800221 0.497348 0.061967
Si Si6 0.301420 0.083130 0.504272
Si Si7 0.794802 0.917989 0.192662
Si Si8 0.790845 0.660047 0.061778
O O1 0.733309 0.861621 0.149304
O O2 0.735912 0.731967 0.093714
O O3 0.000000 0.816797 0.098643
O O4 0.731351 0.864568 0.049267
O O5 0.260731 0.261400 0.086964
O O6 0.271389 0.415807 0.076114
O O7 0.000000 0.337471 0.056923
O O8 0.258348 0.326856 0.997370
O O9 0.228498 0.141800 0.351991
O O10 0.295365 0.126545 0.450804
O O11 0.000000 0.163352 0.421471
O O12 0.750000 0.888339 0.750000
O O13 0.500000 0.912239 0.688139
O O14 0.768568 0.996648 0.684975
O O15 0.728259 0.577749 0.078628
O O16 0.000000 0.496705 0.076858
O O17 0.795804 0.500000 0.000000
O O18 0.500000 0.072133 0.518547
O O19 0.224245 0.000000 0.500000
O O20 0.750000 0.894965 0.250000
O O21 0.000000 0.920908 0.188788
O O22 0.000000 0.657257 0.062133
#
# Coordination Sequence:
#
# PCOD9415574 Si02
#       8
#     8   8   8   8   8   8   8   8
#     4   9  15  25  44  69  93 119 153 191 230 274
#     4   9  15  27  45  65  91 123 158 194 233 276
#     4  12  23  32  45  69 100 129 157 189 234 286
#     4  10  20  36  54  70  90 119 160 204 243 278
#     4   7  11  19  37  65  90 114 149 196 238 270
#     4  10  19  32  49  67  90 124 162 195 233 282
#     4   9  18  32  50  70  90 117 154 195 234 275
#     4   8  12  21  41  68  93 116 152 199 237 271
#
# _framework density 17.443424
#
# number of rings (size 3 to 8) (size 9 to 14) (size 15 to 20)
#    0.000    2.750    1.250    3.750    0.000    2.750 
#    0.000    0.625    0.000    3.375    0.000    0.875 
#    0.000    2.000    0.000    0.000    0.000    0.000 
#
# Total GULP energy -356614.578517 kJ/mol
# GULP energy per Si atom -5572.102789 kJ/mol
# Density = 1.740372 g / cm^3
# Si number density = 17.443424 Si / 1000 Ang^3
#
#
#
# Elastic Constant Matrix: (Units=GPa)
#
#
# Indices 1 2 3 4 5 6 
#
# 1 20.0627 0.1912 -7.3534 0.0000 0.0000 0.0000
# 2 0.1912 170.2060 75.1618 0.0000 0.0000 0.0000
# 3 -7.3534 75.1618 86.3774 0.0000 0.0000 0.0000
# 4 0.0000 0.0000 0.0000 20.9944 0.0000 0.0000
# 5 0.0000 0.0000 0.0000 0.0000 12.0437 0.0000
# 6 0.0000 0.0000 0.0000 0.0000 0.0000 -8.9100
#
#
#
# Elastic Compliance Matrix: (Units=1/GPa)
#
#
# Indices 1 2 3 4 5 6 
#
# 1 0.052570 -0.003305 0.007352 0.000000 0.000000 0.000000
# 2 -0.003305 0.009750 -0.008765 0.000000 0.000000 0.000000
# 3 0.007352 -0.008765 0.019830 0.000000 0.000000 0.000000
# 4 0.000000 0.000000 0.000000 0.047632 0.000000 0.000000
# 5 0.000000 0.000000 0.000000 0.000000 0.083031 0.000000
# 6 0.000000 0.000000 0.000000 0.000000 0.000000 -0.112233
#
#
# Mechanical properties :
#
#
# Convention : Reuss Voigt Hill
#
# Bulk Modulus (GPa) = 13.75297 45.84947 29.80122
# Shear Modulus (GPa) = 37.24302 18.73539 27.98921
#
# Velocity S-wave (km/s) = 4.62570 3.28085 4.01006
# Velocity P-wave (km/s) = 6.03580 6.37916 6.20986
#
# Compressibility (1/GPa) = 0.07271159
#
# Stress axis : x y z
#
# Youngs Moduli (GPa) = 19.02230 102.56921 50.42894
#
# Poissons Ratio (x) = 0.33904 -0.37074
# Poissons Ratio (y) = 0.06288 0.44201
# Poissons Ratio (z) = -0.13985 0.89902
#
# Static dielectric constant tensor:
#      x y z
#    x 1.641940 0.000000 0.000000 
#    y 0.000000 1.637520 0.000000 
#    z 0.000000 0.000000 1.584420 
# 
# From -- ./inp_files/34493.got.cif
#   From: 2010.05.17/outbox.cif.g08.bks.cpg/sg53_18_cif.got.tgz:34493.got - 2010.06.03 12:45:16.
