data_PCOD9415200
_publ_section_title
;
Structure prediction by ZEFSAII (Michael W. Deem and Ramdas Pophale) SiO2 
 PCOD9415200
Probable space group: P M N A
;
_chemical_formula_sum "Si O2"
_cell_formula_units_Z 48
_cell_length_a 7.975895
_cell_length_b 13.220789
_cell_length_c 24.310896
_cell_angle_alpha 90.000000
_cell_angle_beta 90.000000
_cell_angle_gamma 90.000000
_cell_volume 2563.526242
_symmetry_space_group_name_H-M "P M N A"
_symmetry_group_IT_number 53
_symmetry_cell_setting 'orthorhombic'
loop_
_space_group_symop_operation_xyz
x,y,z
1/2-x,-y,1/2+z
x,-y,-z
1/2-x,y,1/2-z
-x,-y,-z
1/2+x,y,1/2-z
-x,y,z
1/2+x,-y,1/2+z
loop_
_atom_site_type_symbol
_atom_site_label
_atom_site_fract_x
_atom_site_fract_y
_atom_site_fract_z
Si Si1 0.307814 0.689790 0.879815
Si Si2 0.806811 0.619303 0.994116
Si Si3 0.300824 0.501983 0.186677
Si Si4 0.698753 0.312615 0.610815
Si Si5 0.705292 0.116913 0.062719
Si Si6 0.201776 0.114409 0.564005
O O1 0.500000 0.704554 0.861346
O O2 0.301226 0.645748 0.941450
O O3 0.229983 0.600554 0.842408
O O4 0.234059 0.801409 0.892322
O O5 0.000000 0.656323 0.986259
O O6 0.817628 0.500000 0.000000
O O7 0.730304 0.656226 0.051276
O O8 0.250000 0.505835 0.250000
O O9 0.500000 0.493957 0.182534
O O10 0.255104 0.606494 0.155887
O O11 0.500000 0.324379 0.607774
O O12 0.739328 0.193583 0.610179
O O13 0.500000 0.121143 0.062677
O O14 0.754466 0.001392 0.074433
O O15 0.757750 0.139853 0.999184
O O16 0.000000 0.116148 0.563144
#
# Coordination Sequence:
#
# PCOD9415200 Si02
#       6
#     8   8   8   8   8   8
#     4  10  19  32  53  77 102 134 174 214 254 310
#     4  10  19  30  45  72 108 141 166 200 259 313
#     4  11  24  39  56  76  99 133 175 220 266 310
#     4  11  21  33  51  76 109 141 172 212 257 312
#     4   8  15  28  48  76 108 140 174 211 250 303
#     4   9  16  29  50  75 107 144 177 208 250 304
#
# _framework density 18.724208000000001
#
# number of rings (size 3 to 8) (size 9 to 14) (size 15 to 20)
#    0.000    2.167    3.333    2.000    0.000    1.667 
#    0.000    2.500    0.000    1.000    0.000    2.333 
#    0.000    0.000    0.000    0.000    0.000    0.000 
#
# Total GULP energy -267274.979745 kJ/mol
# GULP energy per Si atom -5568.228745 kJ/mol
# Density = 1.868159 g / cm^3
# Si number density = 18.724208 Si / 1000 Ang^3
#
#
#
# Elastic Constant Matrix: (Units=GPa)
#
#
# Indices 1 2 3 4 5 6 
#
# 1 21.8951 8.5363 3.6168 0.0000 0.0000 0.0000
# 2 8.5363 166.3244 72.2800 0.0000 0.0000 0.0000
# 3 3.6168 72.2800 98.0527 0.0000 0.0000 0.0000
# 4 0.0000 0.0000 0.0000 4.1422 0.0000 0.0000
# 5 0.0000 0.0000 0.0000 0.0000 -3.1434 0.0000
# 6 0.0000 0.0000 0.0000 0.0000 0.0000 15.8509
#
#
#
# Elastic Compliance Matrix: (Units=1/GPa)
#
#
# Indices 1 2 3 4 5 6 
#
# 1 0.046605 -0.002420 0.000065 0.000000 0.000000 0.000000
# 2 -0.002420 0.008972 -0.006524 0.000000 0.000000 0.000000
# 3 0.000065 -0.006524 0.015006 0.000000 0.000000 0.000000
# 4 0.000000 0.000000 0.000000 0.241417 0.000000 0.000000
# 5 0.000000 0.000000 0.000000 0.000000 -0.318131 0.000000
# 6 0.000000 0.000000 0.000000 0.000000 0.000000 0.063088
#
#
# Mechanical properties :
#
#
# Convention : Reuss Voigt Hill
#
# Bulk Modulus (GPa) = 18.93096 50.57093 34.75095
# Shear Modulus (GPa) = 54.15706 16.82588 35.49147
#
# Velocity S-wave (km/s) = 5.38390 3.00095 4.35844
# Velocity P-wave (km/s) = 6.98433 6.25096 6.62780
#
# Compressibility (1/GPa) = 0.05282352
#
# Stress axis : x y z
#
# Youngs Moduli (GPa) = 21.45685 111.45936 66.64138
#
# Poissons Ratio (x) = 0.26975 -0.00433
# Poissons Ratio (y) = 0.05193 0.43479
# Poissons Ratio (z) = -0.00139 0.72720
#
# Static dielectric constant tensor:
#      x y z
#    x 1.681310 0.000000 0.000000 
#    y 0.000000 1.751620 0.000000 
#    z 0.000000 0.000000 1.519700 
# 
# From -- ./inp_files/30517.got.cif
#   From: 2010.05.17/outbox.cif.g08.bks.cpg/sg53_16_cif.got.tgz:30517.got - 2010.06.03 12:45:16.
