data_PCOD9415387
_publ_section_title
;
Structure prediction by ZEFSAII (Michael W. Deem and Ramdas Pophale) SiO2 
 PCOD9415387
Probable space group: P M N A
;
_chemical_formula_sum "Si O2"
_cell_formula_units_Z 64
_cell_length_a 9.304765
_cell_length_b 16.392621
_cell_length_c 24.420352
_cell_angle_alpha 90.000000
_cell_angle_beta 90.000000
_cell_angle_gamma 90.000000
_cell_volume 3724.823742
_symmetry_space_group_name_H-M "P M N A"
_symmetry_group_IT_number 53
_symmetry_cell_setting 'orthorhombic'
loop_
_space_group_symop_operation_xyz
x,y,z
1/2-x,-y,1/2+z
x,-y,-z
1/2-x,y,1/2-z
-x,-y,-z
1/2+x,y,1/2-z
-x,y,z
1/2+x,-y,1/2+z
loop_
_atom_site_type_symbol
_atom_site_label
_atom_site_fract_x
_atom_site_fract_y
_atom_site_fract_z
Si Si1 0.672737 0.790273 0.419892
Si Si2 0.669848 0.130897 0.113354
Si Si3 0.333793 0.386571 0.392897
Si Si4 0.828892 0.290444 0.805300
Si Si5 0.334473 0.759451 0.695409
Si Si6 0.172089 0.516762 0.193931
Si Si7 0.829697 0.724014 0.525234
Si Si8 0.668117 0.980619 0.435642
O O1 0.500000 0.780437 0.426574
O O2 0.713428 0.757196 0.360086
O O3 0.752409 0.741989 0.468037
O O4 0.704887 0.886396 0.425306
O O5 0.500000 0.127479 0.123586
O O6 0.754297 0.166861 0.165049
O O7 0.693810 0.196102 0.063934
O O8 0.733364 0.044230 0.096200
O O9 0.500000 0.397860 0.410441
O O10 0.332021 0.315805 0.346784
O O11 0.283015 0.466257 0.359791
O O12 0.239311 0.352293 0.442478
O O13 0.750000 0.263572 0.750000
O O14 0.799788 0.387038 0.813057
O O15 0.000000 0.281097 0.798060
O O16 0.250000 0.737486 0.750000
O O17 0.500000 0.779114 0.707322
O O18 0.250000 0.490000 0.250000
O O19 0.000000 0.504488 0.200086
O O20 0.000000 0.713467 0.518623
O O21 0.500000 0.993178 0.420950
O O22 0.682362 0.000000 0.500000
#
# Coordination Sequence:
#
# PCOD9415387 Si02
#       8
#     8   8   8   8   8   8   8   8
#     4  10  20  35  55  77 102 134 171 209 257 311
#     4  10  20  33  49  72 102 132 166 209 254 299
#     4   9  18  31  49  73 103 137 171 207 249 301
#     4   9  19  36  57  79 103 132 168 211 255 303
#     4  10  19  31  48  70 100 136 171 205 247 299
#     4   9  17  31  52  77 102 132 172 214 255 298
#     4  10  20  32  49  75 105 135 168 209 254 301
#     4  10  19  32  53  77 100 130 169 211 255 305
#
# _framework density 17.182022
#
# number of rings (size 3 to 8) (size 9 to 14) (size 15 to 20)
#    0.000    2.375    1.250    1.500    0.000    3.250 
#    0.000    1.250    0.000    5.250    0.000    0.000 
#    0.000    0.000    0.000    0.000    0.000    0.000 
#
# Total GULP energy -357005.510371 kJ/mol
# GULP energy per Si atom -5578.211100 kJ/mol
# Density = 1.714292 g / cm^3
# Si number density = 17.182022 Si / 1000 Ang^3
#
#
#
# Elastic Constant Matrix: (Units=GPa)
#
#
# Indices 1 2 3 4 5 6 
#
# 1 58.2446 33.1545 51.6365 0.0000 0.0000 0.0000
# 2 33.1545 66.8954 47.9092 0.0000 0.0000 0.0000
# 3 51.6365 47.9092 97.3086 0.0000 0.0000 0.0000
# 4 0.0000 0.0000 0.0000 26.7735 0.0000 0.0000
# 5 0.0000 0.0000 0.0000 0.0000 31.6029 0.0000
# 6 0.0000 0.0000 0.0000 0.0000 0.0000 18.4981
#
#
#
# Elastic Compliance Matrix: (Units=1/GPa)
#
#
# Indices 1 2 3 4 5 6 
#
# 1 0.033940 -0.006059 -0.015027 0.000000 0.000000 0.000000
# 2 -0.006059 0.024172 -0.008686 0.000000 0.000000 0.000000
# 3 -0.015027 -0.008686 0.022527 0.000000 0.000000 0.000000
# 4 0.000000 0.000000 0.000000 0.037350 0.000000 0.000000
# 5 0.000000 0.000000 0.000000 0.000000 0.031643 0.000000
# 6 0.000000 0.000000 0.000000 0.000000 0.000000 0.054060
#
#
# Mechanical properties :
#
#
# Convention : Reuss Voigt Hill
#
# Bulk Modulus (GPa) = 47.40356 54.20543 50.80450
# Shear Modulus (GPa) = 18.50015 21.35814 19.92914
#
# Velocity S-wave (km/s) = 3.28489 3.52952 3.40940
# Velocity P-wave (km/s) = 6.48354 6.94451 6.71798
#
# Compressibility (1/GPa) = 0.02109546
#
# Stress axis : x y z
#
# Youngs Moduli (GPa) = 29.46359 41.36958 44.39120
#
# Poissons Ratio (x) = 0.25067 0.66707
# Poissons Ratio (y) = 0.17853 0.38557
# Poissons Ratio (z) = 0.44275 0.35933
#
# Static dielectric constant tensor:
#      x y z
#    x 1.573300 0.000000 0.000000 
#    y 0.000000 1.577580 0.000000 
#    z 0.000000 0.000000 1.561580 
# 
# From -- ./inp_files/34337.got.cif
#   From: 2010.05.17/outbox.cif.g08.bks.cpg/sg53_18_cif.got.tgz:34337.got - 2010.06.03 12:45:16.
