data_PCOD9415640
_publ_section_title
;
Structure prediction by ZEFSAII (Michael W. Deem and Ramdas Pophale) SiO2 
 PCOD9415640
Probable space group: P M N A
;
_chemical_formula_sum "Si O2"
_cell_formula_units_Z 48
_cell_length_a 8.969879
_cell_length_b 16.171700
_cell_length_c 18.812297
_cell_angle_alpha 90.000000
_cell_angle_beta 90.000000
_cell_angle_gamma 90.000000
_cell_volume 2728.877794
_symmetry_space_group_name_H-M "P M N A"
_symmetry_group_IT_number 53
_symmetry_cell_setting 'orthorhombic'
loop_
_space_group_symop_operation_xyz
x,y,z
1/2-x,-y,1/2+z
x,-y,-z
1/2-x,y,1/2-z
-x,-y,-z
1/2+x,y,1/2-z
-x,y,z
1/2+x,-y,1/2+z
loop_
_atom_site_type_symbol
_atom_site_label
_atom_site_fract_x
_atom_site_fract_y
_atom_site_fract_z
Si Si1 0.177287 0.173036 0.916577
Si Si2 0.671877 0.002656 0.913539
Si Si3 0.821523 0.496386 0.328828
Si Si4 0.677503 0.833210 0.584552
Si Si5 0.179118 0.331218 0.171569
Si Si6 0.821893 0.319922 0.671705
O O1 0.255956 0.247487 0.875953
O O2 0.000000 0.177433 0.906920
O O3 0.237325 0.083803 0.891393
O O4 0.210159 0.178795 0.000915
O O5 0.500000 0.010589 0.892609
O O6 0.739723 0.915554 0.889233
O O7 0.678887 0.000000 0.000000
O O8 0.750000 0.499251 0.250000
O O9 0.747048 0.415117 0.362140
O O10 0.790701 0.587797 0.359093
O O11 0.000000 0.485625 0.324318
O O12 0.500000 0.846973 0.590852
O O13 0.716273 0.750486 0.627018
O O14 0.250000 0.322961 0.250000
O O15 0.000000 0.338821 0.176722
O O16 0.750000 0.315024 0.750000
O O17 0.000000 0.312085 0.678067
#
# Coordination Sequence:
#
# PCOD9415640 Si02
#       6
#     8   8   8   8   8   8
#     4  10  19  33  53  74  99 131 165 203 246 293
#     4   9  17  30  50  74  98 127 164 204 245 293
#     4   9  17  30  49  71  96 128 164 200 240 289
#     4   9  19  34  51  73 100 131 166 203 246 295
#     4  10  19  32  51  74 100 129 164 204 244 290
#     4  10  20  34  52  75 101 129 164 204 245 292
#
# _framework density 17.589648
#
# number of rings (size 3 to 8) (size 9 to 14) (size 15 to 20)
#    0.000    2.500    0.000    3.500    0.000    6.000 
#    0.000    1.667    0.000    7.000    0.000    0.000 
#    0.000    0.000    0.000    0.000    0.000    0.000 
#
# Total GULP energy -267568.871107 kJ/mol
# GULP energy per Si atom -5574.351481 kJ/mol
# Density = 1.754961 g / cm^3
# Si number density = 17.589648 Si / 1000 Ang^3
#
#
#
# Elastic Constant Matrix: (Units=GPa)
#
#
# Indices 1 2 3 4 5 6 
#
# 1 86.9100 92.9010 35.1071 0.0000 0.0000 0.0000
# 2 92.9010 209.9493 53.2634 0.0000 0.0000 0.0000
# 3 35.1071 53.2634 27.7695 0.0000 0.0000 0.0000
# 4 0.0000 0.0000 0.0000 28.0710 0.0000 0.0000
# 5 0.0000 0.0000 0.0000 0.0000 14.2978 0.0000
# 6 0.0000 0.0000 0.0000 0.0000 0.0000 37.9095
#
#
#
# Elastic Compliance Matrix: (Units=1/GPa)
#
#
# Indices 1 2 3 4 5 6 
#
# 1 0.027425 -0.006504 -0.022196 0.000000 0.000000 0.000000
# 2 -0.006504 0.010820 -0.012531 0.000000 0.000000 0.000000
# 3 -0.022196 -0.012531 0.088106 0.000000 0.000000 0.000000
# 4 0.000000 0.000000 0.000000 0.035624 0.000000 0.000000
# 5 0.000000 0.000000 0.000000 0.000000 0.069941 0.000000
# 6 0.000000 0.000000 0.000000 0.000000 0.000000 0.026379
#
#
# Mechanical properties :
#
#
# Convention : Reuss Voigt Hill
#
# Bulk Modulus (GPa) = 22.78458 76.35241 49.56850
# Shear Modulus (GPa) = 14.06926 25.61281 19.84104
#
# Velocity S-wave (km/s) = 2.83125 3.82007 3.36221
# Velocity P-wave (km/s) = 4.86513 7.93467 6.58136
#
# Compressibility (1/GPa) = 0.04388932
#
# Stress axis : x y z
#
# Youngs Moduli (GPa) = 36.46353 92.42027 11.35001
#
# Poissons Ratio (x) = 0.60113 0.25192
# Poissons Ratio (y) = 0.23717 0.14222
# Poissons Ratio (z) = 0.80933 1.15809
#
# Static dielectric constant tensor:
#      x y z
#    x 1.587290 0.000000 0.000000 
#    y 0.000000 1.622930 0.000000 
#    z 0.000000 0.000000 1.580030 
# 
# From -- ./inp_files/30483.got.cif
#   From: 2010.05.17/outbox.cif.g08.bks.cpg/sg53_16_cif.got.tgz:30483.got - 2010.06.03 12:45:16.
