data_PCOD9415898
_publ_section_title
;
Structure prediction by ZEFSAII (Michael W. Deem and Ramdas Pophale) SiO2 
 PCOD9415898
Probable space group: P M N A
;
_chemical_formula_sum "Si O2"
_cell_formula_units_Z 52
_cell_length_a 9.430959
_cell_length_b 17.262185
_cell_length_c 13.397855
_cell_angle_alpha 90.000000
_cell_angle_beta 90.000000
_cell_angle_gamma 90.000000
_cell_volume 2181.156847
_symmetry_space_group_name_H-M "P M N A"
_symmetry_group_IT_number 53
_symmetry_cell_setting 'orthorhombic'
loop_
_space_group_symop_operation_xyz
x,y,z
1/2-x,-y,1/2+z
x,-y,-z
1/2-x,y,1/2-z
-x,-y,-z
1/2+x,y,1/2-z
-x,y,z
1/2+x,-y,1/2+z
loop_
_atom_site_type_symbol
_atom_site_label
_atom_site_fract_x
_atom_site_fract_y
_atom_site_fract_z
Si Si1 0.331561 0.668568 0.078308
Si Si2 0.159476 0.158090 0.610877
Si Si3 0.167828 0.364832 0.346172
Si Si4 0.000000 0.810559 0.791651
Si Si5 0.341113 0.011575 0.619721
Si Si6 0.839753 0.481673 0.882942
Si Si7 0.283143 0.147610 0.120196
O O1 0.500000 0.650433 0.088954
O O2 0.306047 0.669688 0.957074
O O3 0.304232 0.751969 0.126913
O O4 0.233355 0.601864 0.124203
O O5 0.275066 0.094885 0.642163
O O6 0.156206 0.152018 0.490379
O O7 0.000000 0.141808 0.648542
O O8 0.250000 0.331855 0.250000
O O9 0.228906 0.452210 0.351598
O O10 0.000000 0.361800 0.326455
O O11 0.118515 0.814858 0.702100
O O12 0.125840 0.817695 0.875566
O O13 0.500000 0.999239 0.661179
O O14 0.352622 0.000000 0.500000
O O15 0.234609 0.943159 0.647212
O O16 0.000000 0.486085 0.839237
O O17 0.855977 0.500000 0.000000
#
# Coordination Sequence:
#
# PCOD9415898 Si02
#       7
#     8   8   8   4   8   8   8
#     4   9  19  35  50  74 106 139 172 205 251 301
#     4  10  20  33  50  73 102 134 169 210 252 297
#     4  10  19  33  52  77 106 138 168 205 249 297
#     4  10  20  32  50  70 100 134 168 206 252 306
#     4   9  18  31  50  70  94 122 168 223 256 288
#     4   9  17  31  53  76 100 129 172 214 247 291
#     4  10  19  34  49  73  98 132 174 207 252 302
#
# _framework density 23.840558000000001
#
# number of rings (size 3 to 8) (size 9 to 14) (size 15 to 20)
#    0.000    2.462    1.538    0.923    2.154    4.000 
#    2.769    0.000    0.000    0.000    4.000    0.000 
#    0.000    0.000    0.000    0.000    0.000    0.000 
#
# Total GULP energy -289687.207015 kJ/mol
# GULP energy per Si atom -5570.907827 kJ/mol
# Density = 2.378630 g / cm^3
# Si number density = 23.840558 Si / 1000 Ang^3
#
#
#
# Elastic Constant Matrix: (Units=GPa)
#
#
# Indices 1 2 3 4 5 6 
#
# 1 168.3953 64.6259 7.8003 0.0000 0.0000 0.0000
# 2 64.6259 151.1917 -10.0931 0.0000 0.0000 0.0000
# 3 7.8003 -10.0931 66.6261 0.0000 0.0000 0.0000
# 4 0.0000 0.0000 0.0000 0.8954 0.0000 0.0000
# 5 0.0000 0.0000 0.0000 0.0000 1893.0305 0.0000
# 6 0.0000 0.0000 0.0000 0.0000 0.0000 -51.2684
#
#
#
# Elastic Compliance Matrix: (Units=1/GPa)
#
#
# Indices 1 2 3 4 5 6 
#
# 1 0.007218 -0.003174 -0.001326 0.000000 0.000000 0.000000
# 2 -0.003174 0.008077 0.001595 0.000000 0.000000 0.000000
# 3 -0.001326 0.001595 0.015406 0.000000 0.000000 0.000000
# 4 0.000000 0.000000 0.000000 1.116812 0.000000 0.000000
# 5 0.000000 0.000000 0.000000 0.000000 0.000528 0.000000
# 6 0.000000 0.000000 0.000000 0.000000 0.000000 -0.019505
#
#
# Mechanical properties :
#
#
# Convention : Reuss Voigt Hill
#
# Bulk Modulus (GPa) = 40.17307 56.76436 48.46872
# Shear Modulus (GPa) = 4.37582 390.12349 197.24966
#
# Velocity S-wave (km/s) = 1.35626 12.80601 9.10586
# Velocity P-wave (km/s) = 4.39771 15.57306 11.44246
#
# Compressibility (1/GPa) = 0.02489230
#
# Stress axis : x y z
#
# Youngs Moduli (GPa) = 138.54613 123.80545 64.90975
#
# Poissons Ratio (x) = 0.39292 0.08606
# Poissons Ratio (y) = 0.43971 -0.10354
# Poissons Ratio (z) = 0.18369 -0.19749
#
# Static dielectric constant tensor:
#      x y z
#    x 1.958760 0.000000 0.000000 
#    y 0.000000 1.975880 0.000000 
#    z 0.000000 0.000000 2.024850 
# 
# From -- ./inp_files/26503.got.cif
#   From: 2010.05.17/outbox.cif.g08.bks.cpg/sg53_14_cif.got.tgz:26503.got - 2010.06.03 12:45:16.
