data_PCOD9415552
_publ_section_title
;
Structure prediction by ZEFSAII (Michael W. Deem and Ramdas Pophale) SiO2 
 PCOD9415552
Probable space group: P M N A
;
_chemical_formula_sum "Si O2"
_cell_formula_units_Z 48
_cell_length_a 9.460149
_cell_length_b 30.566506
_cell_length_c 8.813767
_cell_angle_alpha 90.000000
_cell_angle_beta 90.000000
_cell_angle_gamma 90.000000
_cell_volume 2548.621487
_symmetry_space_group_name_H-M "P M N A"
_symmetry_group_IT_number 53
_symmetry_cell_setting 'orthorhombic'
loop_
_space_group_symop_operation_xyz
x,y,z
1/2-x,-y,1/2+z
x,-y,-z
1/2-x,y,1/2-z
-x,-y,-z
1/2+x,y,1/2-z
-x,y,z
1/2+x,-y,1/2+z
loop_
_atom_site_type_symbol
_atom_site_label
_atom_site_fract_x
_atom_site_fract_y
_atom_site_fract_z
Si Si1 0.254787 0.895312 0.066245
Si Si2 0.327618 0.798258 0.084617
Si Si3 0.331102 0.715895 0.412076
Si Si4 0.000000 0.950423 0.934338
Si Si5 0.164697 0.544201 0.597785
Si Si6 0.331365 0.382777 0.588864
Si Si7 0.500000 0.952364 0.928763
O O1 0.250000 0.896283 0.250000
O O2 0.282863 0.845111 0.017639
O O3 0.124340 0.920394 0.996500
O O4 0.374090 0.925171 0.997751
O O5 0.250000 0.799190 0.250000
O O6 0.500000 0.795280 0.094731
O O7 0.254308 0.755619 0.009269
O O8 0.250000 0.712065 0.250000
O O9 0.500000 0.725721 0.394626
O O10 0.320381 0.666796 0.476294
O O11 0.000000 0.954117 0.752689
O O12 0.000000 0.000000 0.000000
O O13 0.165334 0.500000 0.500000
O O14 0.250000 0.534819 0.750000
O O15 0.250775 0.582446 0.514116
O O16 0.000000 0.556421 0.624143
O O17 0.250000 0.384012 0.750000
O O18 0.500000 0.392061 0.607229
O O19 0.500000 0.000000 0.000000
#
# Coordination Sequence:
#
# PCOD9415552 Si02
#       7
#     8   8   8   4   8   8   4
#     4  11  23  39  62  92 121 155 197 244 296 353
#     4  10  19  31  54  86 120 153 194 244 293 342
#     4   9  17  29  51  84 121 155 195 244 295 345
#     4  12  26  42  64  90 116 160 196 240 301 354
#     4  11  24  40  60  86 117 157 202 252 308 367
#     4  10  20  35  57  88 123 160 201 250 302 356
#     4  12  24  44  64  86 124 152 194 244 291 362
#
# _framework density 18.833711000000001
#
# number of rings (size 3 to 8) (size 9 to 14) (size 15 to 20)
#    0.000    1.500    0.833    6.000    4.667    4.667 
#    0.000    0.000    0.000    2.000    0.000    0.000 
#    0.000    0.000    0.000    0.000    0.000    0.000 
#
# Total GULP energy -267359.706667 kJ/mol
# GULP energy per Si atom -5569.993889 kJ/mol
# Density = 1.879084 g / cm^3
# Si number density = 18.833711 Si / 1000 Ang^3
#
#
#
# Elastic Constant Matrix: (Units=GPa)
#
#
# Indices 1 2 3 4 5 6 
#
# 1 214.4220 91.2121 42.1343 0.0000 0.0000 0.0000
# 2 91.2121 158.9455 42.8834 0.0000 0.0000 0.0000
# 3 42.1343 42.8834 82.7075 0.0000 0.0000 0.0000
# 4 0.0000 0.0000 0.0000 26.9520 0.0000 0.0000
# 5 0.0000 0.0000 0.0000 0.0000 24.9552 0.0000
# 6 0.0000 0.0000 0.0000 0.0000 0.0000 33.9908
#
#
#
# Elastic Compliance Matrix: (Units=1/GPa)
#
#
# Indices 1 2 3 4 5 6 
#
# 1 0.006339 -0.003216 -0.001562 0.000000 0.000000 0.000000
# 2 -0.003216 0.008947 -0.003000 0.000000 0.000000 0.000000
# 3 -0.001562 -0.003000 0.014442 0.000000 0.000000 0.000000
# 4 0.000000 0.000000 0.000000 0.037103 0.000000 0.000000
# 5 0.000000 0.000000 0.000000 0.000000 0.040072 0.000000
# 6 0.000000 0.000000 0.000000 0.000000 0.000000 0.029420
#
#
# Mechanical properties :
#
#
# Convention : Reuss Voigt Hill
#
# Bulk Modulus (GPa) = 70.56629 89.83719 80.20174
# Shear Modulus (GPa) = 31.92815 35.83594 33.88204
#
# Velocity S-wave (km/s) = 4.12183 4.36679 4.24608
# Velocity P-wave (km/s) = 7.75900 8.55739 8.16795
#
# Compressibility (1/GPa) = 0.01417107
#
# Stress axis : x y z
#
# Youngs Moduli (GPa) = 157.76168 111.77463 69.24263
#
# Poissons Ratio (x) = 0.35949 0.10813
# Poissons Ratio (y) = 0.50739 0.20775
# Poissons Ratio (z) = 0.24636 0.33536
#
# Static dielectric constant tensor:
#      x y z
#    x 1.607970 0.000000 0.000000 
#    y 0.000000 1.642240 0.000000 
#    z 0.000000 0.000000 1.646190 
# 
# From -- ./inp_files/6806.got.cif
#   From: 2010.05.17/outbox.cif.g08.bks.cpg/sg53_4_cif.got.tgz:6806.got - 2010.06.03 12:45:16.
