data_PCOD9415430
_publ_section_title
;
Structure prediction by ZEFSAII (Michael W. Deem and Ramdas Pophale) SiO2 
 PCOD9415430
Probable space group: P M N A
;
_chemical_formula_sum "Si O2"
_cell_formula_units_Z 64
_cell_length_a 7.780245
_cell_length_b 18.166411
_cell_length_c 20.408979
_cell_angle_alpha 90.000000
_cell_angle_beta 90.000000
_cell_angle_gamma 90.000000
_cell_volume 2884.587302
_symmetry_space_group_name_H-M "P M N A"
_symmetry_group_IT_number 53
_symmetry_cell_setting 'orthorhombic'
loop_
_space_group_symop_operation_xyz
x,y,z
1/2-x,-y,1/2+z
x,-y,-z
1/2-x,y,1/2-z
-x,-y,-z
1/2+x,y,1/2-z
-x,y,z
1/2+x,-y,1/2+z
loop_
_atom_site_type_symbol
_atom_site_label
_atom_site_fract_x
_atom_site_fract_y
_atom_site_fract_z
Si Si1 0.795597 0.116805 0.488127
Si Si2 0.704536 0.619904 0.325929
Si Si3 0.706168 0.780713 0.326057
Si Si4 0.707759 0.936651 0.374743
Si Si5 0.205408 0.429159 0.538456
Si Si6 0.804565 0.747874 0.678065
Si Si7 0.210107 0.281229 0.467842
Si Si8 0.695383 0.089421 0.343678
O O1 0.755618 0.065288 0.549068
O O2 0.745733 0.202606 0.500985
O O3 0.697505 0.095137 0.422546
O O4 0.000000 0.114690 0.474228
O O5 0.750000 0.604392 0.250000
O O6 0.500000 0.623870 0.327384
O O7 0.774475 0.700885 0.347456
O O8 0.761340 0.566554 0.383880
O O9 0.750000 0.780837 0.250000
O O10 0.500000 0.781701 0.336432
O O11 0.776186 0.857582 0.352026
O O12 0.500000 0.938652 0.369078
O O13 0.771047 0.007705 0.334310
O O14 0.273615 0.500000 0.500000
O O15 0.272427 0.352936 0.506531
O O16 0.000000 0.427571 0.529625
O O17 0.750000 0.721450 0.750000
O O18 0.725407 0.722728 0.608163
O O19 0.789839 0.836995 0.678610
O O20 0.000000 0.725791 0.672292
O O21 0.000000 0.282908 0.466928
O O22 0.500000 0.093548 0.318866
#
# Coordination Sequence:
#
# PCOD9415430 Si02
#       8
#     8   8   8   8   8   8   8   8
#     4  10  19  31  49  71  96 129 171 216 260 314
#     4  10  20  36  59  84 113 149 187 225 263 314
#     4   9  19  34  50  71  98 131 172 213 255 303
#     4  10  20  32  46  68  99 132 168 215 269 321
#     4  10  20  36  60  88 118 149 179 217 268 323
#     4  10  20  36  56  76 101 136 182 231 276 327
#     4   8  17  34  54  78 107 139 177 220 268 324
#     4  10  20  33  48  68  98 134 171 217 271 321
#
# _framework density 22.186883999999999
#
# number of rings (size 3 to 8) (size 9 to 14) (size 15 to 20)
#    0.000    2.375    0.000    3.375    0.000    4.250 
#    0.000    5.000    0.000    1.500    0.000    0.000 
#    0.000    0.000    0.000    0.000    0.000    0.000 
#
# Total GULP energy -356973.189666 kJ/mol
# GULP energy per Si atom -5577.706089 kJ/mol
# Density = 2.213639 g / cm^3
# Si number density = 22.186884 Si / 1000 Ang^3
#
#
#
# Elastic Constant Matrix: (Units=GPa)
#
#
# Indices 1 2 3 4 5 6 
#
# 1 31.7293 3.3425 -13.5587 0.0000 0.0000 0.0000
# 2 3.3425 89.5005 48.3498 0.0000 0.0000 0.0000
# 3 -13.5587 48.3498 92.6082 0.0000 0.0000 0.0000
# 4 0.0000 0.0000 0.0000 21.8991 0.0000 0.0000
# 5 0.0000 0.0000 0.0000 0.0000 26.0216 0.0000
# 6 0.0000 0.0000 0.0000 0.0000 0.0000 9.8127
#
#
#
# Elastic Compliance Matrix: (Units=1/GPa)
#
#
# Indices 1 2 3 4 5 6 
#
# 1 0.035646 -0.005781 0.008237 0.000000 0.000000 0.000000
# 2 -0.005781 0.016500 -0.009461 0.000000 0.000000 0.000000
# 3 0.008237 -0.009461 0.016944 0.000000 0.000000 0.000000
# 4 0.000000 0.000000 0.000000 0.045664 0.000000 0.000000
# 5 0.000000 0.000000 0.000000 0.000000 0.038430 0.000000
# 6 0.000000 0.000000 0.000000 0.000000 0.000000 0.101909
#
#
# Mechanical properties :
#
#
# Convention : Reuss Voigt Hill
#
# Bulk Modulus (GPa) = 18.15560 32.23391 25.19476
# Shear Modulus (GPa) = 17.39364 23.26030 20.32697
#
# Velocity S-wave (km/s) = 2.80297 3.24138 3.03011
# Velocity P-wave (km/s) = 4.32161 5.34497 4.86030
#
# Compressibility (1/GPa) = 0.05507941
#
# Stress axis : x y z
#
# Youngs Moduli (GPa) = 28.05400 60.60622 59.01937
#
# Poissons Ratio (x) = 0.35037 -0.48615
# Poissons Ratio (y) = 0.16218 0.55837
# Poissons Ratio (z) = -0.23108 0.57339
#
# Static dielectric constant tensor:
#      x y z
#    x 1.803560 0.000000 0.000000 
#    y 0.000000 1.880670 0.000000 
#    z 0.000000 0.000000 1.844600 
# 
# From -- ./inp_files/31283.got.cif
#   From: 2010.05.17/outbox.cif.g08.bks.cpg/sg53_16_cif.got.tgz:31283.got - 2010.06.03 12:45:16.
