data_PCOD9415069
_publ_section_title
;
Structure prediction by ZEFSAII (Michael W. Deem and Ramdas Pophale) SiO2 
 PCOD9415069
Probable space group: P M N A
;
_chemical_formula_sum "Si O2"
_cell_formula_units_Z 48
_cell_length_a 22.788208
_cell_length_b 9.999198
_cell_length_c 9.674575
_cell_angle_alpha 90.000000
_cell_angle_beta 90.000000
_cell_angle_gamma 90.000000
_cell_volume 2204.485460
_symmetry_space_group_name_H-M "P M N A"
_symmetry_group_IT_number 53
_symmetry_cell_setting 'orthorhombic'
loop_
_space_group_symop_operation_xyz
x,y,z
1/2-x,-y,1/2+z
x,-y,-z
1/2-x,y,1/2-z
-x,-y,-z
1/2+x,y,1/2-z
-x,y,z
1/2+x,-y,1/2+z
loop_
_atom_site_type_symbol
_atom_site_label
_atom_site_fract_x
_atom_site_fract_y
_atom_site_fract_z
Si Si1 0.500000 0.221444 0.837191
Si Si2 0.691920 0.187465 0.837894
Si Si3 0.000000 0.212888 0.324081
Si Si4 0.595728 0.003564 0.834465
Si Si5 0.825477 0.500000 0.000000
Si Si6 0.227539 0.300720 0.398447
Si Si7 0.000000 0.494843 0.292291
Si Si8 0.867451 0.476953 0.695729
O O1 0.554622 0.129609 0.802403
O O2 0.500000 0.352587 0.743434
O O3 0.500000 0.245618 0.007189
O O4 0.750000 0.207740 0.750000
O O5 0.658427 0.055465 0.785771
O O6 0.654887 0.326495 0.831100
O O7 0.705587 0.184813 0.001437
O O8 0.000000 0.346052 0.233395
O O9 0.058753 0.127142 0.293981
O O10 0.597156 0.000000 0.000000
O O11 0.780903 0.376034 0.023341
O O12 0.863360 0.509109 0.138278
O O13 0.250000 0.254379 0.250000
O O14 0.177516 0.413301 0.366894
O O15 0.066455 0.496849 0.354188
#
# Coordination Sequence:
#
# PCOD9415069 Si02
#       8
#     4   8   4   8   4   8   4   8
#     4   9  17  33  56  84 116 155 201 250 309 373
#     4  12  20  36  65  92 122 167 219 261 316 382
#     4   9  21  37  54  85 130 167 195 261 322 383
#     4   9  20  37  56  81 126 168 199 249 320 371
#     4  10  18  39  56  83 134 172 202 256 332 378
#     4  10  20  35  56  89 128 165 202 263 331 373
#     4  12  23  33  60 101 124 161 215 266 325 383
#     4  11  22  34  59  95 129 164 209 267 320 389
#
# _framework density 21.773786999999999
#
# number of rings (size 3 to 8) (size 9 to 14) (size 15 to 20)
#    0.000    1.667    5.000    1.750    4.667    1.667 
#    0.000    0.833    0.000    0.000    0.000    1.167 
#    0.000    0.000    0.000    0.000    0.000    0.000 
#
# Total GULP energy -267395.679782 kJ/mol
# GULP energy per Si atom -5570.743329 kJ/mol
# Density = 2.172423 g / cm^3
# Si number density = 21.773787 Si / 1000 Ang^3
#
#
#
# Elastic Constant Matrix: (Units=GPa)
#
#
# Indices 1 2 3 4 5 6 
#
# 1 135.3923 41.9939 34.9522 0.0000 0.0000 0.0000
# 2 41.9939 112.1485 12.4675 0.0000 0.0000 0.0000
# 3 34.9522 12.4675 88.3893 0.0000 0.0000 0.0000
# 4 0.0000 0.0000 0.0000 2.0719 0.0000 0.0000
# 5 0.0000 0.0000 0.0000 0.0000 -15.8631 0.0000
# 6 0.0000 0.0000 0.0000 0.0000 0.0000 47.3322
#
#
#
# Elastic Compliance Matrix: (Units=1/GPa)
#
#
# Indices 1 2 3 4 5 6 
#
# 1 0.009164 -0.003077 -0.003190 0.000000 0.000000 0.000000
# 2 -0.003077 0.010092 -0.000207 0.000000 0.000000 0.000000
# 3 -0.003190 -0.000207 0.012604 0.000000 0.000000 0.000000
# 4 0.000000 0.000000 0.000000 0.482654 0.000000 0.000000
# 5 0.000000 0.000000 0.000000 0.000000 -0.063040 0.000000
# 6 0.000000 0.000000 0.000000 0.000000 0.000000 0.021127
#
#
# Mechanical properties :
#
#
# Convention : Reuss Voigt Hill
#
# Bulk Modulus (GPa) = 52.87331 57.19523 55.03427
# Shear Modulus (GPa) = 10.16567 23.14263 16.65415
#
# Velocity S-wave (km/s) = 2.16308 3.26370 2.76863
# Velocity P-wave (km/s) = 5.52940 6.36610 5.96245
#
# Compressibility (1/GPa) = 0.01891313
#
# Stress axis : x y z
#
# Youngs Moduli (GPa) = 109.12667 99.09012 79.33950
#
# Poissons Ratio (x) = 0.30487 0.25307
# Poissons Ratio (y) = 0.33575 0.01641
# Poissons Ratio (z) = 0.34808 0.02049
#
# Static dielectric constant tensor:
#      x y z
#    x 1.872040 0.000000 0.000000 
#    y 0.000000 1.821240 0.000000 
#    z 0.000000 0.000000 1.800770 
# 
# From -- ./inp_files/17809.got.cif
#   From: 2010.05.17/outbox.cif.g08.bks.cpg/sg53_9_cif.got.tgz:17809.got - 2010.06.03 12:45:16.
