data_PCOD9415860
_publ_section_title
;
Structure prediction by ZEFSAII (Michael W. Deem and Ramdas Pophale) SiO2 
 PCOD9415860
Probable space group: P M N A
;
_chemical_formula_sum "Si O2"
_cell_formula_units_Z 64
_cell_length_a 9.116354
_cell_length_b 14.946199
_cell_length_c 30.955534
_cell_angle_alpha 90.000000
_cell_angle_beta 90.000000
_cell_angle_gamma 90.000000
_cell_volume 4217.841364
_symmetry_space_group_name_H-M "P M N A"
_symmetry_group_IT_number 53
_symmetry_cell_setting 'orthorhombic'
loop_
_space_group_symop_operation_xyz
x,y,z
1/2-x,-y,1/2+z
x,-y,-z
1/2-x,y,1/2-z
-x,-y,-z
1/2+x,y,1/2-z
-x,y,z
1/2+x,-y,1/2+z
loop_
_atom_site_type_symbol
_atom_site_label
_atom_site_fract_x
_atom_site_fract_y
_atom_site_fract_z
Si Si1 0.676063 0.647152 0.295194
Si Si2 0.675561 0.061535 0.459141
Si Si3 0.175951 0.920864 0.113001
Si Si4 0.168962 0.747362 0.424215
Si Si5 0.331000 0.751617 0.972240
Si Si6 0.322315 0.550711 0.955051
Si Si7 0.824794 0.855894 0.205088
Si Si8 0.675608 0.424547 0.613805
O O1 0.750000 0.622594 0.250000
O O2 0.500000 0.644653 0.290808
O O3 0.715815 0.751671 0.304625
O O4 0.716800 0.585019 0.335664
O O5 0.500000 0.069465 0.463267
O O6 0.743588 0.159778 0.459812
O O7 0.725811 0.000000 0.500000
O O8 0.708274 0.008997 0.414766
O O9 0.264368 0.840341 0.091410
O O10 0.212401 0.916718 0.163803
O O11 0.000000 0.903925 0.109214
O O12 0.170173 0.745276 0.475881
O O13 0.269719 0.668233 0.406786
O O14 0.000000 0.735787 0.409800
O O15 0.500000 0.761986 0.958229
O O16 0.277075 0.654740 0.956299
O O17 0.500000 0.546697 0.952743
O O18 0.252596 0.500788 0.914320
O O19 0.281350 0.500000 0.000000
O O20 0.750000 0.881409 0.250000
O O21 0.000000 0.857989 0.210651
O O22 0.500000 0.432063 0.610858
#
# Coordination Sequence:
#
# PCOD9415860 Si02
#       8
#     8   8   8   8   8   8   8   8
#     4   9  18  31  47  69  98 128 158 196 239 289
#     4  10  20  32  50  72  96 128 164 199 240 289
#     4  10  19  33  48  69  99 131 162 200 241 281
#     4  11  20  30  47  70  97 133 168 200 236 283
#     4  10  21  35  49  67  98 132 164 205 240 275
#     4  10  20  36  51  69  98 131 167 203 243 289
#     4   9  17  30  46  66  96 127 157 195 238 284
#     4  11  21  33  49  73 100 130 166 204 243 286
#
# _framework density 15.173638
#
# number of rings (size 3 to 8) (size 9 to 14) (size 15 to 20)
#    0.000    2.000    3.750    0.750    0.000    3.500 
#    0.000    0.000    0.000    0.000    0.000    0.875 
#    0.000    2.000    0.000    0.000    0.000    0.000 
#
# Total GULP energy -356804.613597 kJ/mol
# GULP energy per Si atom -5575.072087 kJ/mol
# Density = 1.513910 g / cm^3
# Si number density = 15.173638 Si / 1000 Ang^3
#
#
#
# Elastic Constant Matrix: (Units=GPa)
#
#
# Indices 1 2 3 4 5 6 
#
# 1 18.1479 34.6118 35.3890 0.0000 0.0000 0.0000
# 2 34.6118 113.6879 60.9881 0.0000 0.0000 0.0000
# 3 35.3890 60.9881 119.6735 0.0000 0.0000 0.0000
# 4 0.0000 0.0000 0.0000 19.3696 0.0000 0.0000
# 5 0.0000 0.0000 0.0000 0.0000 25.5305 0.0000
# 6 0.0000 0.0000 0.0000 0.0000 0.0000 19.4104
#
#
#
# Elastic Compliance Matrix: (Units=1/GPa)
#
#
# Indices 1 2 3 4 5 6 
#
# 1 0.229547 -0.046063 -0.044405 0.000000 0.000000 0.000000
# 2 -0.046063 0.021349 0.002742 0.000000 0.000000 0.000000
# 3 -0.044405 0.002742 0.020090 0.000000 0.000000 0.000000
# 4 0.000000 0.000000 0.000000 0.051627 0.000000 0.000000
# 5 0.000000 0.000000 0.000000 0.000000 0.039169 0.000000
# 6 0.000000 0.000000 0.000000 0.000000 0.000000 0.051519
#
#
# Mechanical properties :
#
#
# Convention : Reuss Voigt Hill
#
# Bulk Modulus (GPa) = 10.46768 57.05413 33.76090
# Shear Modulus (GPa) = 8.05674 20.89679 14.47676
#
# Velocity S-wave (km/s) = 2.30678 3.71506 3.09216
# Velocity P-wave (km/s) = 3.74280 7.48897 5.92002
#
# Compressibility (1/GPa) = 0.09553220
#
# Stress axis : x y z
#
# Youngs Moduli (GPa) = 4.35641 46.84051 49.77574
#
# Poissons Ratio (x) = 2.15763 2.21030
# Poissons Ratio (y) = 0.20067 -0.13646
# Poissons Ratio (z) = 0.19345 -0.12842
#
# Static dielectric constant tensor:
#      x y z
#    x 1.511810 0.000000 0.000000 
#    y 0.000000 1.488870 0.000000 
#    z 0.000000 0.000000 1.507570 
# 
# From -- ./inp_files/38420.got.cif
#   From: 2010.05.17/outbox.cif.g08.bks.cpg/sg53_20_cif.got.tgz:38420.got - 2010.06.03 12:45:16.
