data_PCOD9415650
_publ_section_title
;
Structure prediction by ZEFSAII (Michael W. Deem and Ramdas Pophale) SiO2 
 PCOD9415650
Probable space group: P M N A
;
_chemical_formula_sum "Si O2"
_cell_formula_units_Z 48
_cell_length_a 8.335036
_cell_length_b 32.452681
_cell_length_c 9.662401
_cell_angle_alpha 90.000000
_cell_angle_beta 90.000000
_cell_angle_gamma 90.000000
_cell_volume 2613.624051
_symmetry_space_group_name_H-M "P M N A"
_symmetry_group_IT_number 53
_symmetry_cell_setting 'orthorhombic'
loop_
_space_group_symop_operation_xyz
x,y,z
1/2-x,-y,1/2+z
x,-y,-z
1/2-x,y,1/2-z
-x,-y,-z
1/2+x,y,1/2-z
-x,y,z
1/2+x,-y,1/2+z
loop_
_atom_site_type_symbol
_atom_site_label
_atom_site_fract_x
_atom_site_fract_y
_atom_site_fract_z
Si Si1 0.307993 0.782428 0.091922
Si Si2 0.693973 0.385029 0.406338
Si Si3 0.194332 0.038271 0.591306
Si Si4 0.693958 0.538957 0.407812
Si Si5 0.691559 0.707924 0.594782
Si Si6 0.806457 0.128106 0.590638
O O1 0.250000 0.779255 0.250000
O O2 0.500000 0.782374 0.091470
O O3 0.252264 0.827374 0.034080
O O4 0.249140 0.743694 0.005577
O O5 0.750000 0.394427 0.250000
O O6 0.500000 0.385378 0.405801
O O7 0.749129 0.419390 0.514856
O O8 0.748407 0.338497 0.441817
O O9 0.250000 0.034424 0.750000
O O10 0.247148 0.083461 0.535153
O O11 0.000000 0.037730 0.590744
O O12 0.252178 0.000000 0.500000
O O13 0.747259 0.500000 0.500000
O O14 0.750000 0.536333 0.250000
O O15 0.500000 0.538948 0.407380
O O16 0.750000 0.716329 0.750000
O O17 0.500000 0.707293 0.593522
O O18 0.750000 0.128137 0.750000
O O19 0.000000 0.128094 0.586723
#
# Coordination Sequence:
#
# PCOD9415650 Si02
#       6
#     8   8   8   8   8   8
#     4  10  19  32  51  74  99 128 165 207 249 293
#     4   9  19  35  54  76 101 131 167 205 244 291
#     4   9  17  30  48  69  94 123 156 195 238 286
#     4  10  21  36  54  78 106 134 167 205 245 291
#     4  10  20  35  53  74 102 134 168 205 249 298
#     4   8  15  28  46  67  92 123 158 196 238 285
#
# _framework density 18.365303999999998
#
# number of rings (size 3 to 8) (size 9 to 14) (size 15 to 20)
#    0.000    2.667    0.000    1.500    0.000    3.333 
#    0.000    2.500    0.000    2.000    0.000    0.000 
#    0.000    0.000    0.000    0.000    0.000    0.000 
#
# Total GULP energy -267461.717549 kJ/mol
# GULP energy per Si atom -5572.119116 kJ/mol
# Density = 1.832350 g / cm^3
# Si number density = 18.365304 Si / 1000 Ang^3
#
#
#
# Elastic Constant Matrix: (Units=GPa)
#
#
# Indices 1 2 3 4 5 6 
#
# 1 14.0353 26.8353 12.8259 0.0000 0.0000 0.0000
# 2 26.8353 208.8536 113.4559 0.0000 0.0000 0.0000
# 3 12.8259 113.4559 96.4614 0.0000 0.0000 0.0000
# 4 0.0000 0.0000 0.0000 36.1890 0.0000 0.0000
# 5 0.0000 0.0000 0.0000 0.0000 28.7500 0.0000
# 6 0.0000 0.0000 0.0000 0.0000 0.0000 18.2696
#
#
#
# Elastic Compliance Matrix: (Units=1/GPa)
#
#
# Indices 1 2 3 4 5 6 
#
# 1 0.095245 -0.014840 0.004791 0.000000 0.000000 0.000000
# 2 -0.014840 0.015573 -0.016344 0.000000 0.000000 0.000000
# 3 0.004791 -0.016344 0.028953 0.000000 0.000000 0.000000
# 4 0.000000 0.000000 0.000000 0.027633 0.000000 0.000000
# 5 0.000000 0.000000 0.000000 0.000000 0.034783 0.000000
# 6 0.000000 0.000000 0.000000 0.000000 0.000000 0.054736
#
#
# Mechanical properties :
#
#
# Convention : Reuss Voigt Hill
#
# Bulk Modulus (GPa) = 11.49625 69.50939 40.50282
# Shear Modulus (GPa) = 14.76213 27.72394 21.24303
#
# Velocity S-wave (km/s) = 2.83822 3.88955 3.40471
# Velocity P-wave (km/s) = 4.12481 7.62246 6.12845
#
# Compressibility (1/GPa) = 0.08698486
#
# Stress axis : x y z
#
# Youngs Moduli (GPa) = 10.49921 64.21234 34.53865
#
# Poissons Ratio (x) = 0.95294 -0.16547
# Poissons Ratio (y) = 0.15581 0.56449
# Poissons Ratio (z) = -0.05030 1.04947
#
# Static dielectric constant tensor:
#      x y z
#    x 1.348550 0.000000 0.000000 
#    y 0.000000 1.696510 0.000000 
#    z 0.000000 0.000000 1.568140 
# 
# From -- ./inp_files/6746.got.cif
#   From: 2010.05.17/outbox.cif.g08.bks.cpg/sg53_4_cif.got.tgz:6746.got - 2010.06.03 12:45:16.
