data_PCOD9415158
_publ_section_title
;
Structure prediction by ZEFSAII (Michael W. Deem and Ramdas Pophale) SiO2 
 PCOD9415158
Probable space group: P M N A
;
_chemical_formula_sum "Si O2"
_cell_formula_units_Z 64
_cell_length_a 7.907039
_cell_length_b 14.462617
_cell_length_c 29.173833
_cell_angle_alpha 90.000000
_cell_angle_beta 90.000000
_cell_angle_gamma 90.000000
_cell_volume 3336.216753
_symmetry_space_group_name_H-M "P M N A"
_symmetry_group_IT_number 53
_symmetry_cell_setting 'orthorhombic'
loop_
_space_group_symop_operation_xyz
x,y,z
1/2-x,-y,1/2+z
x,-y,-z
1/2-x,y,1/2-z
-x,-y,-z
1/2+x,y,1/2-z
-x,y,z
1/2+x,-y,1/2+z
loop_
_atom_site_type_symbol
_atom_site_label
_atom_site_fract_x
_atom_site_fract_y
_atom_site_fract_z
Si Si1 0.201899 0.102757 0.984998
Si Si2 0.795195 0.535679 0.198582
Si Si3 0.199743 0.251256 0.301018
Si Si4 0.200276 0.763102 0.938473
Si Si5 0.701731 0.887107 0.119814
Si Si6 0.799059 0.252811 0.800448
Si Si7 0.306726 0.392324 0.374616
Si Si8 0.202911 0.091142 0.361105
O O1 0.231888 0.123357 0.931793
O O2 0.000000 0.099732 0.993209
O O3 0.270344 0.187235 0.016076
O O4 0.267262 0.000000 0.000000
O O5 0.750000 0.500570 0.250000
O O6 0.733117 0.641653 0.196076
O O7 0.730673 0.477740 0.154460
O O8 0.000000 0.533194 0.196228
O O9 0.250000 0.271702 0.250000
O O10 0.304767 0.314347 0.335268
O O11 0.235408 0.145168 0.314140
O O12 0.000000 0.268748 0.308763
O O13 0.270387 0.666323 0.917359
O O14 0.222737 0.843887 0.900722
O O15 0.000000 0.746293 0.944626
O O16 0.500000 0.891062 0.116608
O O17 0.744936 0.809786 0.157048
O O18 0.766247 0.987252 0.136711
O O19 0.750000 0.216042 0.750000
O O20 0.000000 0.258797 0.801505
O O21 0.500000 0.417513 0.386950
O O22 0.000000 0.090365 0.368054
#
# Coordination Sequence:
#
# PCOD9415158 Si02
#       8
#     8   8   8   8   8   8   8   8
#     4  10  19  32  52  78 106 137 176 216 257 303
#     4   9  18  32  52  76 100 128 165 209 257 308
#     4  10  19  30  42  62  93 128 162 197 239 293
#     4   9  17  30  49  73 102 133 166 205 250 301
#     4  11  22  35  53  77 103 135 175 216 258 303
#     4  10  21  38  57  77 103 133 168 213 260 307
#     4   9  17  30  49  73  99 128 163 203 250 302
#     4   9  19  32  45  64  94 128 165 205 248 297
#
# _framework density 19.183406000000002
#
# number of rings (size 3 to 8) (size 9 to 14) (size 15 to 20)
#    0.000    2.375    1.250    1.500    0.000    4.250 
#    0.000    1.250    0.000    0.750    0.000    5.250 
#    0.000    0.000    0.000    0.000    0.000    0.000 
#
# Total GULP energy -356445.689524 kJ/mol
# GULP energy per Si atom -5569.463899 kJ/mol
# Density = 1.913974 g / cm^3
# Si number density = 19.183406 Si / 1000 Ang^3
#
#
#
# Elastic Constant Matrix: (Units=GPa)
#
#
# Indices 1 2 3 4 5 6 
#
# 1 16.6796 -7.2604 -10.0373 0.0000 0.0000 0.0000
# 2 -7.2604 68.6392 38.5372 0.0000 0.0000 0.0000
# 3 -10.0373 38.5372 83.9476 0.0000 0.0000 0.0000
# 4 0.0000 0.0000 0.0000 31.2997 0.0000 0.0000
# 5 0.0000 0.0000 0.0000 0.0000 21.0880 0.0000
# 6 0.0000 0.0000 0.0000 0.0000 0.0000 3.2739
#
#
#
# Elastic Compliance Matrix: (Units=1/GPa)
#
#
# Indices 1 2 3 4 5 6 
#
# 1 0.065183 0.003394 0.006236 0.000000 0.000000 0.000000
# 2 0.003394 0.019804 -0.008686 0.000000 0.000000 0.000000
# 3 0.006236 -0.008686 0.016645 0.000000 0.000000 0.000000
# 4 0.000000 0.000000 0.000000 0.031949 0.000000 0.000000
# 5 0.000000 0.000000 0.000000 0.000000 0.047420 0.000000
# 6 0.000000 0.000000 0.000000 0.000000 0.000000 0.305446
#
#
# Mechanical properties :
#
#
# Convention : Reuss Voigt Hill
#
# Bulk Modulus (GPa) = 9.65990 23.52726 16.59358
# Shear Modulus (GPa) = 9.63265 21.00078 15.31671
#
# Velocity S-wave (km/s) = 2.24327 3.31227 2.82873
# Velocity P-wave (km/s) = 3.42872 5.18837 4.39746
#
# Compressibility (1/GPa) = 0.10352069
#
# Stress axis : x y z
#
# Youngs Moduli (GPa) = 15.34133 50.49360 60.07787
#
# Poissons Ratio (x) = -0.17137 -0.37463
# Poissons Ratio (y) = -0.05207 0.52182
# Poissons Ratio (z) = -0.09566 0.43857
#
# Static dielectric constant tensor:
#      x y z
#    x 1.705590 0.000000 0.000000 
#    y 0.000000 1.714350 0.000000 
#    z 0.000000 0.000000 1.597810 
# 
# From -- ./inp_files/34249.got.cif
#   From: 2010.05.17/outbox.cif.g08.bks.cpg/sg53_18_cif.got.tgz:34249.got - 2010.06.03 12:45:16.
