data_PCOD9415733
_publ_section_title
;
Structure prediction by ZEFSAII (Michael W. Deem and Ramdas Pophale) SiO2 
 PCOD9415733
Probable space group: P M N A
;
_chemical_formula_sum "Si O2"
_cell_formula_units_Z 64
_cell_length_a 17.949312
_cell_length_b 20.361619
_cell_length_c 9.606040
_cell_angle_alpha 90.000000
_cell_angle_beta 90.000000
_cell_angle_gamma 90.000000
_cell_volume 3510.787183
_symmetry_space_group_name_H-M "P M N A"
_symmetry_group_IT_number 53
_symmetry_cell_setting 'orthorhombic'
loop_
_space_group_symop_operation_xyz
x,y,z
1/2-x,-y,1/2+z
x,-y,-z
1/2-x,y,1/2-z
-x,-y,-z
1/2+x,y,1/2-z
-x,y,z
1/2+x,-y,1/2+z
loop_
_atom_site_type_symbol
_atom_site_label
_atom_site_fract_x
_atom_site_fract_y
_atom_site_fract_z
Si Si1 0.587258 0.283292 0.597225
Si Si2 0.157908 0.807663 0.889937
Si Si3 0.088852 0.073076 0.948905
Si Si4 0.330935 0.792995 0.929228
Si Si5 0.088540 0.839487 0.305228
Si Si6 0.338642 0.601092 0.255645
Si Si7 0.086674 0.476853 0.337670
Si Si8 0.589880 0.345568 0.031041
O O1 0.500000 0.297077 0.610565
O O2 0.605839 0.249843 0.450302
O O3 0.605548 0.225634 0.710926
O O4 0.632111 0.349642 0.626199
O O5 0.133420 0.874870 0.960678
O O6 0.241647 0.789031 0.935732
O O7 0.152399 0.817305 0.725747
O O8 0.000000 0.083285 0.969860
O O9 0.103075 0.096400 0.789966
O O10 0.106491 0.000000 0.000000
O O11 0.370865 0.722786 0.940259
O O12 0.363890 0.835656 0.055071
O O13 0.000000 0.836841 0.336182
O O14 0.250000 0.604129 0.250000
O O15 0.365315 0.525372 0.257191
O O16 0.377040 0.629333 0.115392
O O17 0.092603 0.500000 0.500000
O O18 0.106341 0.400179 0.350579
O O19 0.000000 0.483706 0.298713
O O20 0.500000 0.339979 0.019137
#
# Coordination Sequence:
#
# PCOD9415733 Si02
#       8
#     8   8   8   8   8   8   8   8
#     4  10  19  32  52  78 109 145 188 239 292 348
#     4  10  23  37  52  83 119 154 187 239 304 355
#     4   9  19  39  63  85 116 157 194 230 281 348
#     4  11  21  36  54  84 117 148 190 243 297 352
#     4   9  18  32  57  87 110 143 194 240 279 337
#     4  11  19  29  50  82 110 141 184 241 300 353
#     4   8  16  31  50  73 100 135 186 237 281 337
#     4  10  19  34  58  81 106 145 194 248 295 348
#
# _framework density 18.229531000000001
#
# number of rings (size 3 to 8) (size 9 to 14) (size 15 to 20)
#    0.000    2.250    1.250    4.125    0.000    3.500 
#    2.250    3.125    0.000    2.250    0.000    2.625 
#    0.000    0.000    0.000    0.000    0.000    0.000 
#
# Total GULP energy -356858.331491 kJ/mol
# GULP energy per Si atom -5575.911430 kJ/mol
# Density = 1.818804 g / cm^3
# Si number density = 18.229531 Si / 1000 Ang^3
#
#
#
# Elastic Constant Matrix: (Units=GPa)
#
#
# Indices 1 2 3 4 5 6 
#
# 1 63.7296 69.3800 30.9187 0.0000 0.0000 0.0000
# 2 69.3800 105.9457 35.5254 0.0000 0.0000 0.0000
# 3 30.9187 35.5254 56.6271 0.0000 0.0000 0.0000
# 4 0.0000 0.0000 0.0000 21.5175 0.0000 0.0000
# 5 0.0000 0.0000 0.0000 0.0000 18.3463 0.0000
# 6 0.0000 0.0000 0.0000 0.0000 0.0000 -226.3043
#
#
#
# Elastic Compliance Matrix: (Units=1/GPa)
#
#
# Indices 1 2 3 4 5 6 
#
# 1 0.058876 -0.035176 -0.010079 0.000000 0.000000 0.000000
# 2 -0.035176 0.032970 -0.001477 0.000000 0.000000 0.000000
# 3 -0.010079 -0.001477 0.024089 0.000000 0.000000 0.000000
# 4 0.000000 0.000000 0.000000 0.046474 0.000000 0.000000
# 5 0.000000 0.000000 0.000000 0.000000 0.054507 0.000000
# 6 0.000000 0.000000 0.000000 0.000000 0.000000 -0.004419
#
#
# Mechanical properties :
#
#
# Convention : Reuss Voigt Hill
#
# Bulk Modulus (GPa) = 44.50261 55.32781 49.91521
# Shear Modulus (GPa) = 15.95143 -31.25622 -7.65239
#
# Velocity S-wave (km/s) = 2.96130 -4.14526 -2.05108
# Velocity P-wave (km/s) = 6.01314 2.73965 4.67244
#
# Compressibility (1/GPa) = 0.02247059
#
# Stress axis : x y z
#
# Youngs Moduli (GPa) = 16.98488 30.33078 41.51235
#
# Poissons Ratio (x) = 1.06692 0.41838
# Poissons Ratio (y) = 0.59746 0.06133
# Poissons Ratio (z) = 0.17118 0.04481
#
# Static dielectric constant tensor:
#      x y z
#    x 1.612920 0.000000 0.000000 
#    y 0.000000 1.644820 0.000000 
#    z 0.000000 0.000000 1.609470 
# 
# From -- ./inp_files/10208.got.cif
#   From: 2010.05.17/outbox.cif.g08.bks.cpg/sg53_6_cif.got.tgz:10208.got - 2010.06.03 12:45:16.
