data_PCOD9415708
_publ_section_title
;
Structure prediction by ZEFSAII (Michael W. Deem and Ramdas Pophale) SiO2 
 PCOD9415708
Probable space group: P M N A
;
_chemical_formula_sum "Si O2"
_cell_formula_units_Z 32
_cell_length_a 8.542915
_cell_length_b 21.803636
_cell_length_c 9.342306
_cell_angle_alpha 90.000000
_cell_angle_beta 90.000000
_cell_angle_gamma 90.000000
_cell_volume 1740.159659
_symmetry_space_group_name_H-M "P M N A"
_symmetry_group_IT_number 53
_symmetry_cell_setting 'orthorhombic'
loop_
_space_group_symop_operation_xyz
x,y,z
1/2-x,-y,1/2+z
x,-y,-z
1/2-x,y,1/2-z
-x,-y,-z
1/2+x,y,1/2-z
-x,y,z
1/2+x,-y,1/2+z
loop_
_atom_site_type_symbol
_atom_site_label
_atom_site_fract_x
_atom_site_fract_y
_atom_site_fract_z
Si Si1 0.310797 0.940194 0.088880
Si Si2 0.189142 0.558665 0.911692
Si Si3 0.312559 0.820774 0.912512
Si Si4 0.687624 0.692722 0.586761
O O1 0.250000 0.942161 0.250000
O O2 0.500000 0.940346 0.091869
O O3 0.260148 0.878438 0.006942
O O4 0.259291 0.000000 0.000000
O O5 0.250000 0.554792 0.750000
O O6 0.233771 0.625864 0.973609
O O7 0.000000 0.557225 0.908225
O O8 0.245520 0.500000 0.000000
O O9 0.250000 0.826860 0.750000
O O10 0.500000 0.820134 0.905839
O O11 0.255589 0.755567 0.975284
O O12 0.750000 0.691691 0.750000
O O13 0.500000 0.696989 0.588089
#
# Coordination Sequence:
#
# PCOD9415708 Si02
#       4
#     8   8   8   8
#     4  10  22  38  55  77 103 132 167 204 243 290
#     4   9  18  32  49  71  98 128 165 206 246 292
#     4  10  19  32  52  77 102 128 163 204 245 293
#     4   9  16  28  48  71  97 129 164 202 244 291
#
# _framework density 18.389118
#
# number of rings (size 3 to 8) (size 9 to 14) (size 15 to 20)
#    0.000    2.500    0.000    3.750    0.000    4.000 
#    0.000    1.250    0.000    6.000    0.000    0.000 
#    0.000    0.000    0.000    0.000    0.000    0.000 
#
# Total GULP energy -178372.949415 kJ/mol
# GULP energy per Si atom -5574.154669 kJ/mol
# Density = 1.834726 g / cm^3
# Si number density = 18.389118 Si / 1000 Ang^3
#
#
#
# Elastic Constant Matrix: (Units=GPa)
#
#
# Indices 1 2 3 4 5 6 
#
# 1 27.4379 37.8202 13.9688 0.0000 0.0000 0.0000
# 2 37.8202 240.5306 84.2743 0.0000 0.0000 0.0000
# 3 13.9688 84.2743 77.7810 0.0000 0.0000 0.0000
# 4 0.0000 0.0000 0.0000 34.0307 0.0000 0.0000
# 5 0.0000 0.0000 0.0000 0.0000 18.6137 0.0000
# 6 0.0000 0.0000 0.0000 0.0000 0.0000 28.8360
#
#
#
# Elastic Compliance Matrix: (Units=1/GPa)
#
#
# Indices 1 2 3 4 5 6 
#
# 1 0.046554 -0.007077 -0.000693 0.000000 0.000000 0.000000
# 2 -0.007077 0.007777 -0.007156 0.000000 0.000000 0.000000
# 3 -0.000693 -0.007156 0.020734 0.000000 0.000000 0.000000
# 4 0.000000 0.000000 0.000000 0.029385 0.000000 0.000000
# 5 0.000000 0.000000 0.000000 0.000000 0.053724 0.000000
# 6 0.000000 0.000000 0.000000 0.000000 0.000000 0.034679
#
#
# Mechanical properties :
#
#
# Convention : Reuss Voigt Hill
#
# Bulk Modulus (GPa) = 22.11694 68.65289 45.38492
# Shear Modulus (GPa) = 21.02823 30.27515 25.65169
#
# Velocity S-wave (km/s) = 3.38526 4.06194 3.73894
# Velocity P-wave (km/s) = 5.22812 7.70802 6.58585
#
# Compressibility (1/GPa) = 0.04521420
#
# Stress axis : x y z
#
# Youngs Moduli (GPa) = 21.48051 128.57786 48.22999
#
# Poissons Ratio (x) = 0.90998 0.03340
# Poissons Ratio (y) = 0.15202 0.34512
# Poissons Ratio (z) = 0.01488 0.92006
#
# Static dielectric constant tensor:
#      x y z
#    x 1.626550 0.000000 0.000000 
#    y 0.000000 1.699270 0.000000 
#    z 0.000000 0.000000 1.391110 
# 
# From -- ./inp_files/6029.got.cif
#   From: 2010.05.17/outbox.cif.g08.bks.cpg/sg53_4_cif.got.tgz:6029.got - 2010.06.03 12:45:16.
