data_PCOD9415551
_publ_section_title
;
Structure prediction by ZEFSAII (Michael W. Deem and Ramdas Pophale) SiO2 
 PCOD9415551
Probable space group: P M N A
;
_chemical_formula_sum "Si O2"
_cell_formula_units_Z 32
_cell_length_a 29.501763
_cell_length_b 10.601210
_cell_length_c 5.176918
_cell_angle_alpha 90.000000
_cell_angle_beta 90.000000
_cell_angle_gamma 90.000000
_cell_volume 1619.103805
_symmetry_space_group_name_H-M "P M N A"
_symmetry_group_IT_number 53
_symmetry_cell_setting 'orthorhombic'
loop_
_space_group_symop_operation_xyz
x,y,z
1/2-x,-y,1/2+z
x,-y,-z
1/2-x,y,1/2-z
-x,-y,-z
1/2+x,y,1/2-z
-x,y,z
1/2+x,-y,1/2+z
loop_
_atom_site_type_symbol
_atom_site_label
_atom_site_fract_x
_atom_site_fract_y
_atom_site_fract_z
Si Si1 0.421322 0.868089 0.425820
Si Si2 0.219427 0.850962 0.499530
Si Si3 0.378073 0.780639 0.913587
Si Si4 0.550058 0.620902 0.677255
O O1 0.450027 0.744701 0.493874
O O2 0.443680 0.000000 0.500000
O O3 0.380726 0.147703 0.362549
O O4 0.403649 0.858136 0.136662
O O5 0.250000 0.828635 0.750000
O O6 0.173752 0.769369 0.506763
O O7 0.205988 0.000000 0.500000
O O8 0.250000 0.827902 0.250000
O O9 0.408598 0.655353 0.868293
O O10 0.558363 0.500000 0.500000
O O11 0.500000 0.610684 0.798626
#
# Coordination Sequence:
#
# PCOD9415551 Si02
#       4
#     8   8   8   8
#     4  10  20  35  59  86 119 158 194 247 304 358
#     4  10  19  31  54  86 120 153 190 240 303 368
#     4  10  21  36  59  88 123 157 197 253 306 359
#     4   9  22  41  61  87 120 164 211 249 297 365
#
# _framework density 19.764019999999999
#
# number of rings (size 3 to 8) (size 9 to 14) (size 15 to 20)
#    1.500    0.750    0.000    3.750    0.000    4.500 
#    0.000    3.750    0.000    0.000    6.500    0.000 
#    0.000    0.000    0.000    0.000    0.000    0.000 
#
# Total GULP energy -178189.399543 kJ/mol
# GULP energy per Si atom -5568.418736 kJ/mol
# Density = 1.971904 g / cm^3
# Si number density = 19.764020 Si / 1000 Ang^3
#
#
#
# Elastic Constant Matrix: (Units=GPa)
#
#
# Indices 1 2 3 4 5 6 
#
# 1 155.3669 50.3583 46.6346 0.0000 0.0000 0.0000
# 2 50.3583 120.8678 29.1045 0.0000 0.0000 0.0000
# 3 46.6346 29.1045 104.2765 0.0000 0.0000 0.0000
# 4 0.0000 0.0000 0.0000 17.1009 0.0000 0.0000
# 5 0.0000 0.0000 0.0000 0.0000 -2.4936 0.0000
# 6 0.0000 0.0000 0.0000 0.0000 0.0000 -7.3118
#
#
#
# Elastic Compliance Matrix: (Units=1/GPa)
#
#
# Indices 1 2 3 4 5 6 
#
# 1 0.008187 -0.002712 -0.002905 0.000000 0.000000 0.000000
# 2 -0.002712 0.009768 -0.001514 0.000000 0.000000 0.000000
# 3 -0.002905 -0.001514 0.011311 0.000000 0.000000 0.000000
# 4 0.000000 0.000000 0.000000 0.058476 0.000000 0.000000
# 5 0.000000 0.000000 0.000000 0.000000 -0.401026 0.000000
# 6 0.000000 0.000000 0.000000 0.000000 0.000000 -0.136765
#
#
# Mechanical properties :
#
#
# Convention : Reuss Voigt Hill
#
# Bulk Modulus (GPa) = 66.63748 70.30067 68.46908
# Shear Modulus (GPa) = -11.60667 18.42003 3.40668
#
# Velocity S-wave (km/s) = -2.42598 3.05618 1.31431
# Velocity P-wave (km/s) = 5.09339 6.93548 6.08455
#
# Compressibility (1/GPa) = 0.01500657
#
# Stress axis : x y z
#
# Youngs Moduli (GPa) = 122.14278 102.37779 88.40689
#
# Poissons Ratio (x) = 0.27761 0.25679
# Poissons Ratio (y) = 0.33121 0.13381
# Poissons Ratio (z) = 0.35478 0.15495
#
# Static dielectric constant tensor:
#      x y z
#    x 1.696890 0.000000 0.000000 
#    y 0.000000 1.720900 0.000000 
#    z 0.000000 0.000000 1.705400 
# 
# From -- ./inp_files/4940.got.cif
#   From: 2010.05.17/outbox.cif.g08.bks.cpg/sg53_3_cif.got.tgz:4940.got - 2010.06.03 12:45:16.
