data_PCOD9415528
_publ_section_title
;
Structure prediction by ZEFSAII (Michael W. Deem and Ramdas Pophale) SiO2 
 PCOD9415528
Probable space group: P M N A
;
_chemical_formula_sum "Si O2"
_cell_formula_units_Z 32
_cell_length_a 23.741780
_cell_length_b 9.305185
_cell_length_c 5.571778
_cell_angle_alpha 90.000000
_cell_angle_beta 90.000000
_cell_angle_gamma 90.000000
_cell_volume 1230.926418
_symmetry_space_group_name_H-M "P M N A"
_symmetry_group_IT_number 53
_symmetry_cell_setting 'orthorhombic'
loop_
_space_group_symop_operation_xyz
x,y,z
1/2-x,-y,1/2+z
x,-y,-z
1/2-x,y,1/2-z
-x,-y,-z
1/2+x,y,1/2-z
-x,y,z
1/2+x,-y,1/2+z
loop_
_atom_site_type_symbol
_atom_site_label
_atom_site_fract_x
_atom_site_fract_y
_atom_site_fract_z
Si Si1 0.230052 0.836048 0.995785
Si Si2 0.647316 0.503655 0.250046
Si Si3 0.101677 0.195041 0.144477
Si Si4 0.436346 0.770549 0.150002
O O1 0.250000 0.764021 0.750000
O O2 0.163686 0.845859 0.950082
O O3 0.250000 0.773362 0.250000
O O4 0.254221 0.000000 0.000000
O O5 0.680454 0.500000 0.500000
O O6 0.606522 0.366727 0.297316
O O7 0.607343 0.640986 0.204048
O O8 0.679736 0.500000 0.000000
O O9 0.084421 0.145604 0.411350
O O10 0.064117 0.157459 0.914307
O O11 0.500000 0.721773 0.098902
#
# Coordination Sequence:
#
# PCOD9415528 Si02
#       4
#     8   8   8   8
#     4  10  21  38  60  81  99 129 179 235 287 332
#     4   8  16  27  44  70 103 135 169 205 244 292
#     4  10  19  32  52  77 106 136 174 222 266 310
#     4  10  19  31  51  79 111 146 179 208 248 311
#
# _framework density 25.996680000000001
#
# number of rings (size 3 to 8) (size 9 to 14) (size 15 to 20)
#    0.000    2.500    0.000    2.250    0.000    9.000 
#    0.000    0.000    0.000   31.500    0.000    0.000 
#    0.000    0.000    0.000    0.000    0.000    0.000 
#
# Total GULP energy -178281.264121 kJ/mol
# GULP energy per Si atom -5571.289504 kJ/mol
# Density = 2.593751 g / cm^3
# Si number density = 25.996680 Si / 1000 Ang^3
#
#
#
# Elastic Constant Matrix: (Units=GPa)
#
#
# Indices 1 2 3 4 5 6 
#
# 1 116.7855 5.3111 66.1407 0.0000 0.0000 0.0000
# 2 5.3111 78.8803 43.9041 0.0000 0.0000 0.0000
# 3 66.1407 43.9041 387.1347 0.0000 0.0000 0.0000
# 4 0.0000 0.0000 0.0000 6.7202 0.0000 0.0000
# 5 0.0000 0.0000 0.0000 0.0000 41.3338 0.0000
# 6 0.0000 0.0000 0.0000 0.0000 0.0000 13.0998
#
#
#
# Elastic Compliance Matrix: (Units=1/GPa)
#
#
# Indices 1 2 3 4 5 6 
#
# 1 0.009486 0.000281 -0.001652 0.000000 0.000000 0.000000
# 2 0.000281 0.013540 -0.001584 0.000000 0.000000 0.000000
# 3 -0.001652 -0.001584 0.003045 0.000000 0.000000 0.000000
# 4 0.000000 0.000000 0.000000 0.148804 0.000000 0.000000
# 5 0.000000 0.000000 0.000000 0.000000 0.024193 0.000000
# 6 0.000000 0.000000 0.000000 0.000000 0.000000 0.076337
#
#
# Mechanical properties :
#
#
# Convention : Reuss Voigt Hill
#
# Bulk Modulus (GPa) = 49.60132 90.39026 69.99579
# Shear Modulus (GPa) = 17.35898 43.39374 30.37636
#
# Velocity S-wave (km/s) = 2.58687 4.09002 3.42200
# Velocity P-wave (km/s) = 5.29564 7.55975 6.52662
#
# Compressibility (1/GPa) = 0.02016075
#
# Stress axis : x y z
#
# Youngs Moduli (GPa) = 105.42068 73.85577 328.40830
#
# Poissons Ratio (x) = -0.02076 0.54269
# Poissons Ratio (y) = -0.02963 0.52005
# Poissons Ratio (z) = 0.17421 0.11695
#
# Static dielectric constant tensor:
#      x y z
#    x 2.010680 0.000000 0.000000 
#    y 0.000000 2.193820 0.000000 
#    z 0.000000 0.000000 2.198890 
# 
# From -- ./inp_files/2620.got.cif
#   From: 2010.05.17/outbox.cif.g08.bks.cpg/sg53_2_cif.got.tgz:2620.got - 2010.06.03 12:45:16.
