data_PCOD9415587
_publ_section_title
;
Structure prediction by ZEFSAII (Michael W. Deem and Ramdas Pophale) SiO2 
 PCOD9415587
Probable space group: P M N A
;
_chemical_formula_sum "Si O2"
_cell_formula_units_Z 64
_cell_length_a 8.879667
_cell_length_b 16.464298
_cell_length_c 24.761623
_cell_angle_alpha 90.000000
_cell_angle_beta 90.000000
_cell_angle_gamma 90.000000
_cell_volume 3620.086973
_symmetry_space_group_name_H-M "P M N A"
_symmetry_group_IT_number 53
_symmetry_cell_setting 'orthorhombic'
loop_
_space_group_symop_operation_xyz
x,y,z
1/2-x,-y,1/2+z
x,-y,-z
1/2-x,y,1/2-z
-x,-y,-z
1/2+x,y,1/2-z
-x,y,z
1/2+x,-y,1/2+z
loop_
_atom_site_type_symbol
_atom_site_label
_atom_site_fract_x
_atom_site_fract_y
_atom_site_fract_z
Si Si1 0.824675 0.255342 0.193345
Si Si2 0.175165 0.893089 0.890885
Si Si3 0.681299 0.700698 0.084020
Si Si4 0.318688 0.793383 0.193969
Si Si5 0.180574 0.777286 0.526824
Si Si6 0.682590 0.973147 0.307293
Si Si7 0.680031 0.525307 0.438835
Si Si8 0.820111 0.632388 0.608929
O O1 0.750000 0.235826 0.250000
O O2 0.814177 0.178370 0.153660
O O3 0.737710 0.328162 0.164088
O O4 0.000000 0.275397 0.199988
O O5 0.256115 0.856837 0.943430
O O6 0.000000 0.905544 0.904236
O O7 0.230227 0.972298 0.858577
O O8 0.500000 0.692158 0.080515
O O9 0.717244 0.738864 0.142028
O O10 0.753778 0.612957 0.075186
O O11 0.728348 0.759681 0.034537
O O12 0.250000 0.760570 0.250000
O O13 0.500000 0.801107 0.198596
O O14 0.245431 0.882259 0.186459
O O15 0.224885 0.697531 0.562120
O O16 0.000000 0.782211 0.528549
O O17 0.750000 0.004044 0.250000
O O18 0.500000 0.974018 0.303986
O O19 0.721654 0.500000 0.500000
O O20 0.500000 0.527267 0.434871
O O21 0.746462 0.454059 0.402025
O O22 0.000000 0.625884 0.608244
#
# Coordination Sequence:
#
# PCOD9415587 Si02
#       8
#     8   8   8   8   8   8   8   8
#     4  10  19  32  49  72 106 142 180 219 262 317
#     4   9  19  32  49  76 109 142 177 221 266 314
#     4  10  21  38  58  81 107 140 180 221 268 324
#     4  10  21  38  60  82 107 138 177 224 272 319
#     4   9  18  32  52  77 105 139 177 216 261 317
#     4  10  19  33  54  79 107 140 182 226 269 317
#     4  11  22  34  54  84 111 136 172 218 266 317
#     4  10  19  33  53  75 104 140 177 218 263 310
#
# _framework density 17.679134000000001
#
# number of rings (size 3 to 8) (size 9 to 14) (size 15 to 20)
#    0.000    2.125    1.250    3.000    0.000    4.000 
#    0.000    1.250    0.000    5.250    0.000    0.000 
#    0.000    0.000    0.000    0.000    0.000    0.000 
#
# Total GULP energy -357060.439686 kJ/mol
# GULP energy per Si atom -5579.069370 kJ/mol
# Density = 1.763890 g / cm^3
# Si number density = 17.679134 Si / 1000 Ang^3
#
#
#
# Elastic Constant Matrix: (Units=GPa)
#
#
# Indices 1 2 3 4 5 6 
#
# 1 38.0411 33.7687 43.6773 0.0000 0.0000 0.0000
# 2 33.7687 73.7553 45.3868 0.0000 0.0000 0.0000
# 3 43.6773 45.3868 101.5803 0.0000 0.0000 0.0000
# 4 0.0000 0.0000 0.0000 2644.7624 0.0000 0.0000
# 5 0.0000 0.0000 0.0000 0.0000 27.5621 0.0000
# 6 0.0000 0.0000 0.0000 0.0000 0.0000 20.7458
#
#
#
# Elastic Compliance Matrix: (Units=1/GPa)
#
#
# Indices 1 2 3 4 5 6 
#
# 1 0.064676 -0.017238 -0.020107 0.000000 0.000000 0.000000
# 2 -0.017238 0.023295 -0.002996 0.000000 0.000000 0.000000
# 3 -0.020107 -0.002996 0.019829 0.000000 0.000000 0.000000
# 4 0.000000 0.000000 0.000000 0.000378 0.000000 0.000000
# 5 0.000000 0.000000 0.000000 0.000000 0.036282 0.000000
# 6 0.000000 0.000000 0.000000 0.000000 0.000000 0.048203
#
#
# Mechanical properties :
#
#
# Convention : Reuss Voigt Hill
#
# Bulk Modulus (GPa) = 36.87839 51.00471 43.94155
# Shear Modulus (GPa) = 17.70648 544.65032 281.17840
#
# Velocity S-wave (km/s) = 3.16816 17.57111 12.62500
# Velocity P-wave (km/s) = 5.85560 20.98980 15.40876
#
# Compressibility (1/GPa) = 0.02711615
#
# Stress axis : x y z
#
# Youngs Moduli (GPa) = 15.46178 42.92840 50.43232
#
# Poissons Ratio (x) = 0.74002 1.01403
# Poissons Ratio (y) = 0.26654 0.15110
# Poissons Ratio (z) = 0.31089 0.12861
#
# Static dielectric constant tensor:
#      x y z
#    x 1.595160 0.000000 0.000000 
#    y 0.000000 1.586210 0.000000 
#    z 0.000000 0.000000 1.628970 
# 
# From -- ./inp_files/34347.got.cif
#   From: 2010.05.17/outbox.cif.g08.bks.cpg/sg53_18_cif.got.tgz:34347.got - 2010.06.03 12:45:16.
