data_PCOD9415958
_publ_section_title
;
Structure prediction by ZEFSAII (Michael W. Deem and Ramdas Pophale) SiO2 
 PCOD9415958
Probable space group: P M N A
;
_chemical_formula_sum "Si O2"
_cell_formula_units_Z 64
_cell_length_a 8.130962
_cell_length_b 11.190719
_cell_length_c 34.933032
_cell_angle_alpha 90.000000
_cell_angle_beta 90.000000
_cell_angle_gamma 90.000000
_cell_volume 3178.602377
_symmetry_space_group_name_H-M "P M N A"
_symmetry_group_IT_number 53
_symmetry_cell_setting 'orthorhombic'
loop_
_space_group_symop_operation_xyz
x,y,z
1/2-x,-y,1/2+z
x,-y,-z
1/2-x,y,1/2-z
-x,-y,-z
1/2+x,y,1/2-z
-x,y,z
1/2+x,-y,1/2+z
loop_
_atom_site_type_symbol
_atom_site_label
_atom_site_fract_x
_atom_site_fract_y
_atom_site_fract_z
Si Si1 0.194653 0.164209 0.629790
Si Si2 0.695505 0.198115 0.444230
Si Si3 0.190980 0.691268 0.481691
Si Si4 0.301888 0.221793 0.291919
Si Si5 0.196878 0.945242 0.207901
Si Si6 0.301565 0.418448 0.905116
Si Si7 0.691973 0.065088 0.554563
Si Si8 0.302078 0.668357 0.629458
O O1 0.231696 0.130695 0.673177
O O2 0.243200 0.299355 0.618593
O O3 0.290962 0.078617 0.600403
O O4 0.000000 0.151594 0.622296
O O5 0.500000 0.182890 0.440326
O O6 0.727556 0.294927 0.477115
O O7 0.762148 0.242744 0.403631
O O8 0.756363 0.066253 0.455889
O O9 0.257587 0.602366 0.448959
O O10 0.211642 0.822836 0.462705
O O11 0.000000 0.664363 0.487791
O O12 0.250000 0.265808 0.250000
O O13 0.500000 0.221079 0.292611
O O14 0.241322 0.296714 0.328366
O O15 0.246444 0.083627 0.295861
O O16 0.250000 0.903397 0.250000
O O17 0.000000 0.943438 0.205392
O O18 0.500000 0.423368 0.906838
O O19 0.238873 0.536070 0.884628
O O20 0.500000 0.077950 0.543096
O O21 0.500000 0.679849 0.630160
#
# Coordination Sequence:
#
# PCOD9415958 Si02
#       8
#     8   8   8   8   8   8   8   8
#     4  10  20  35  54  77 106 139 177 219 264 316
#     4  10  21  35  52  78 109 139 174 218 266 318
#     4  10  21  36  53  76 107 140 176 221 269 316
#     4   9  19  36  57  83 112 139 169 210 260 312
#     4  10  19  33  55  83 114 142 170 210 262 320
#     4   9  21  39  54  72 102 139 179 223 265 306
#     4  10  19  33  54  78 106 139 174 216 268 322
#     4  10  21  37  56  78 105 138 180 223 260 308
#
# _framework density 20.134634999999999
#
# number of rings (size 3 to 8) (size 9 to 14) (size 15 to 20)
#    0.000    2.250    0.000    3.375    0.000    9.500 
#    0.000    4.375    0.000    1.500    0.000    0.000 
#    0.000    0.000    0.000    0.000    0.000    0.000 
#
# Total GULP energy -357329.154044 kJ/mol
# GULP energy per Si atom -5583.268032 kJ/mol
# Density = 2.008881 g / cm^3
# Si number density = 20.134635 Si / 1000 Ang^3
#
#
#
# Elastic Constant Matrix: (Units=GPa)
#
#
# Indices 1 2 3 4 5 6 
#
# 1 14.7019 -0.7615 -6.6336 0.0000 0.0000 0.0000
# 2 -0.7615 51.4669 20.3305 0.0000 0.0000 0.0000
# 3 -6.6336 20.3305 110.2254 0.0000 0.0000 0.0000
# 4 0.0000 0.0000 0.0000 23.7104 0.0000 0.0000
# 5 0.0000 0.0000 0.0000 0.0000 42.6102 0.0000
# 6 0.0000 0.0000 0.0000 0.0000 0.0000 23.0112
#
#
#
# Elastic Compliance Matrix: (Units=1/GPa)
#
#
# Indices 1 2 3 4 5 6 
#
# 1 0.069939 -0.000677 0.004334 0.000000 0.000000 0.000000
# 2 -0.000677 0.020963 -0.003907 0.000000 0.000000 0.000000
# 3 0.004334 -0.003907 0.010054 0.000000 0.000000 0.000000
# 4 0.000000 0.000000 0.000000 0.042176 0.000000 0.000000
# 5 0.000000 0.000000 0.000000 0.000000 0.023469 0.000000
# 6 0.000000 0.000000 0.000000 0.000000 0.000000 0.043457
#
#
# Mechanical properties :
#
#
# Convention : Reuss Voigt Hill
#
# Bulk Modulus (GPa) = 9.95474 22.47391 16.21432
# Shear Modulus (GPa) = 20.48816 28.76361 24.62588
#
# Velocity S-wave (km/s) = 3.19338 3.78373 3.50102
# Velocity P-wave (km/s) = 4.30717 5.50226 4.94098
#
# Compressibility (1/GPa) = 0.10045469
#
# Stress axis : x y z
#
# Youngs Moduli (GPa) = 14.29823 47.70211 99.46446
#
# Poissons Ratio (x) = 0.03231 -0.43108
# Poissons Ratio (y) = 0.00968 0.38864
# Poissons Ratio (z) = -0.06197 0.18639
#
# Static dielectric constant tensor:
#      x y z
#    x 1.709000 0.000000 0.000000 
#    y 0.000000 1.710190 0.000000 
#    z 0.000000 0.000000 1.728940 
# 
# From -- ./inp_files/38153.got.cif
#   From: 2010.05.17/outbox.cif.g08.bks.cpg/sg53_20_cif.got.tgz:38153.got - 2010.06.03 12:45:16.
