data_PCOD9415592
_publ_section_title
;
Structure prediction by ZEFSAII (Michael W. Deem and Ramdas Pophale) SiO2 
 PCOD9415592
Probable space group: P M N A
;
_chemical_formula_sum "Si O2"
_cell_formula_units_Z 64
_cell_length_a 8.282967
_cell_length_b 20.340528
_cell_length_c 21.360136
_cell_angle_alpha 90.000000
_cell_angle_beta 90.000000
_cell_angle_gamma 90.000000
_cell_volume 3598.754051
_symmetry_space_group_name_H-M "P M N A"
_symmetry_group_IT_number 53
_symmetry_cell_setting 'orthorhombic'
loop_
_space_group_symop_operation_xyz
x,y,z
1/2-x,-y,1/2+z
x,-y,-z
1/2-x,y,1/2-z
-x,-y,-z
1/2+x,y,1/2-z
-x,y,z
1/2+x,-y,1/2+z
loop_
_atom_site_type_symbol
_atom_site_label
_atom_site_fract_x
_atom_site_fract_y
_atom_site_fract_z
Si Si1 0.692457 0.460314 0.817479
Si Si2 0.307041 0.823197 0.133197
Si Si3 0.695271 0.676954 0.510728
Si Si4 0.695013 0.539996 0.562057
Si Si5 0.195444 0.822981 0.989624
Si Si6 0.808083 0.039704 0.817718
Si Si7 0.694664 0.677429 0.132742
Si Si8 0.697202 0.959774 0.561990
O O1 0.750000 0.484117 0.750000
O O2 0.500000 0.457543 0.817307
O O3 0.745366 0.505410 0.875272
O O4 0.755863 0.385847 0.829736
O O5 0.500000 0.824184 0.137745
O O6 0.239729 0.884587 0.171000
O O7 0.247774 0.750190 0.152676
O O8 0.257393 0.831884 0.060502
O O9 0.500000 0.675677 0.508408
O O10 0.748280 0.615414 0.552411
O O11 0.745523 0.750027 0.531817
O O12 0.756892 0.668235 0.439814
O O13 0.747433 0.500000 0.500000
O O14 0.500000 0.538480 0.563107
O O15 0.248173 0.884333 0.947591
O O16 0.000000 0.824390 0.992469
O O17 0.750000 0.017348 0.750000
O O18 0.000000 0.035941 0.819318
O O19 0.744358 0.996008 0.875567
O O20 0.500000 0.678174 0.136158
O O21 0.500000 0.960775 0.563258
O O22 0.745866 0.000000 0.500000
#
# Coordination Sequence:
#
# PCOD9415592 Si02
#       8
#     8   8   8   8   8   8   8   8
#     4  11  23  37  53  74 102 139 177 214 258 306
#     4  10  19  32  49  74 106 137 169 206 249 297
#     4   9  17  29  51  79 104 133 168 209 252 299
#     4  10  19  33  53  79 108 135 170 214 257 303
#     4   9  16  30  52  77 102 133 173 208 249 298
#     4  11  22  36  52  72 101 135 170 210 253 302
#     4   9  19  33  49  72 104 137 171 208 248 299
#     4   9  16  30  53  77  99 129 170 212 249 293
#
# _framework density 17.783930999999999
#
# number of rings (size 3 to 8) (size 9 to 14) (size 15 to 20)
#    0.000    2.250    2.500    1.125    0.000    2.250 
#    0.000    3.125    0.000    0.750    0.000    1.750 
#    0.000    0.000    0.000    0.000    0.000    0.000 
#
# Total GULP energy -356992.362923 kJ/mol
# GULP energy per Si atom -5578.005671 kJ/mol
# Density = 1.774345 g / cm^3
# Si number density = 17.783931 Si / 1000 Ang^3
#
#
#
# Elastic Constant Matrix: (Units=GPa)
#
#
# Indices 1 2 3 4 5 6 
#
# 1 11.4919 17.3945 12.5066 0.0000 0.0000 0.0000
# 2 17.3945 122.4263 70.9226 0.0000 0.0000 0.0000
# 3 12.5066 70.9226 120.3088 0.0000 0.0000 0.0000
# 4 0.0000 0.0000 0.0000 37.9903 0.0000 0.0000
# 5 0.0000 0.0000 0.0000 0.0000 24.3931 0.0000
# 6 0.0000 0.0000 0.0000 0.0000 0.0000 16.2923
#
#
#
# Elastic Compliance Matrix: (Units=1/GPa)
#
#
# Indices 1 2 3 4 5 6 
#
# 1 0.111783 -0.013896 -0.003428 0.000000 0.000000 0.000000
# 2 -0.013896 0.014132 -0.006886 0.000000 0.000000 0.000000
# 3 -0.003428 -0.006886 0.012728 0.000000 0.000000 0.000000
# 4 0.000000 0.000000 0.000000 0.026323 0.000000 0.000000
# 5 0.000000 0.000000 0.000000 0.000000 0.040995 0.000000
# 6 0.000000 0.000000 0.000000 0.000000 0.000000 0.061379
#
#
# Mechanical properties :
#
#
# Convention : Reuss Voigt Hill
#
# Bulk Modulus (GPa) = 11.08392 50.65271 30.86831
# Shear Modulus (GPa) = 14.45781 25.96202 20.20992
#
# Velocity S-wave (km/s) = 2.85436 3.82495 3.37473
# Velocity P-wave (km/s) = 4.13633 6.93189 5.70791
#
# Compressibility (1/GPa) = 0.09022075
#
# Stress axis : x y z
#
# Youngs Moduli (GPa) = 8.94593 70.76231 78.56818
#
# Poissons Ratio (x) = 0.98332 0.26936
# Poissons Ratio (y) = 0.12431 0.54104
# Poissons Ratio (z) = 0.03067 0.48728
#
# Static dielectric constant tensor:
#      x y z
#    x 1.615700 0.000000 0.000000 
#    y 0.000000 1.648400 0.000000 
#    z 0.000000 0.000000 1.575850 
# 
# From -- ./inp_files/26899.got.cif
#   From: 2010.05.17/outbox.cif.g08.bks.cpg/sg53_14_cif.got.tgz:26899.got - 2010.06.03 12:45:16.
