data_PCOD9415143
_publ_section_title
;
Structure prediction by ZEFSAII (Michael W. Deem and Ramdas Pophale) SiO2 
 PCOD9415143
Probable space group: P M N A
;
_chemical_formula_sum "Si O2"
_cell_formula_units_Z 64
_cell_length_a 8.707914
_cell_length_b 32.181590
_cell_length_c 14.344271
_cell_angle_alpha 90.000000
_cell_angle_beta 90.000000
_cell_angle_gamma 90.000000
_cell_volume 4019.759871
_symmetry_space_group_name_H-M "P M N A"
_symmetry_group_IT_number 53
_symmetry_cell_setting 'orthorhombic'
loop_
_space_group_symop_operation_xyz
x,y,z
1/2-x,-y,1/2+z
x,-y,-z
1/2-x,y,1/2-z
-x,-y,-z
1/2+x,y,1/2-z
-x,y,z
1/2+x,-y,1/2+z
loop_
_atom_site_type_symbol
_atom_site_label
_atom_site_fract_x
_atom_site_fract_y
_atom_site_fract_z
Si Si1 0.185375 0.935685 0.540002
Si Si2 0.816420 0.142690 0.145153
Si Si3 0.182716 0.599680 0.957303
Si Si4 0.685534 0.427349 0.844957
Si Si5 0.315967 0.764928 0.645092
Si Si6 0.183358 0.320426 0.354967
Si Si7 0.814926 0.980370 0.352664
Si Si8 0.673649 0.483222 0.105957
O O1 0.253641 0.893438 0.579561
O O2 0.231845 0.948337 0.434699
O O3 0.000000 0.933391 0.541459
O O4 0.229920 0.974082 0.607783
O O5 0.750000 0.138156 0.250000
O O6 0.778250 0.189102 0.107632
O O7 0.000000 0.139927 0.151993
O O8 0.254851 0.640501 0.912010
O O9 0.230517 0.558854 0.897545
O O10 0.000000 0.602686 0.961134
O O11 0.250703 0.592955 0.060888
O O12 0.750000 0.408052 0.750000
O O13 0.500000 0.427217 0.847151
O O14 0.739091 0.475709 0.846225
O O15 0.250000 0.766107 0.750000
O O16 0.500000 0.760222 0.647448
O O17 0.242083 0.723477 0.602972
O O18 0.250000 0.323408 0.250000
O O19 0.000000 0.320542 0.350812
O O20 0.750000 0.972809 0.250000
O O21 0.000000 0.979618 0.347957
O O22 0.500000 0.474275 0.139142
O O23 0.661773 0.500000 0.000000
#
# Coordination Sequence:
#
# PCOD9415143 Si02
#       8
#     8   8   8   8   8   8   8   8
#     4   9  18  31  45  64  92 123 159 197 235 278
#     4  10  19  29  45  69  96 124 154 189 230 276
#     4  11  21  33  50  72  98 127 159 194 233 278
#     4  10  20  34  51  71  96 126 160 198 237 275
#     4   9  17  30  46  67  94 121 150 185 228 278
#     4  11  21  34  51  71  96 125 157 191 231 281
#     4   9  18  31  45  63  90 125 160 199 239 275
#     4   8  16  31  47  64  90 120 151 189 228 267
#
# _framework density 15.921348999999999
#
# number of rings (size 3 to 8) (size 9 to 14) (size 15 to 20)
#    0.000    2.375    0.000    6.000    0.000    6.750 
#    0.000    2.500    0.000    0.000    0.000    0.875 
#    0.000    4.000    0.000    0.000    0.000    0.000 
#
# Total GULP energy -356680.507127 kJ/mol
# GULP energy per Si atom -5573.132924 kJ/mol
# Density = 1.588511 g / cm^3
# Si number density = 15.921349 Si / 1000 Ang^3
#
#
#
# Elastic Constant Matrix: (Units=GPa)
#
#
# Indices 1 2 3 4 5 6 
#
# 1 76.9487 59.7535 31.0116 0.0000 0.0000 0.0000
# 2 59.7535 150.6147 60.6392 0.0000 0.0000 0.0000
# 3 31.0116 60.6392 91.4092 0.0000 0.0000 0.0000
# 4 0.0000 0.0000 0.0000 24.3998 0.0000 0.0000
# 5 0.0000 0.0000 0.0000 0.0000 22.2386 0.0000
# 6 0.0000 0.0000 0.0000 0.0000 0.0000 25.5877
#
#
#
# Elastic Compliance Matrix: (Units=1/GPa)
#
#
# Indices 1 2 3 4 5 6 
#
# 1 0.019040 -0.006758 -0.001976 0.000000 0.000000 0.000000
# 2 -0.006758 0.011458 -0.005308 0.000000 0.000000 0.000000
# 3 -0.001976 -0.005308 0.015132 0.000000 0.000000 0.000000
# 4 0.000000 0.000000 0.000000 0.040984 0.000000 0.000000
# 5 0.000000 0.000000 0.000000 0.000000 0.044967 0.000000
# 6 0.000000 0.000000 0.000000 0.000000 0.000000 0.039081
#
#
# Mechanical properties :
#
#
# Convention : Reuss Voigt Hill
#
# Bulk Modulus (GPa) = 56.99848 69.08679 63.04264
# Shear Modulus (GPa) = 24.43856 25.61643 25.02750
#
# Velocity S-wave (km/s) = 3.92210 4.01551 3.96908
# Velocity P-wave (km/s) = 7.50921 8.06138 7.79019
#
# Compressibility (1/GPa) = 0.01754433
#
# Stress axis : x y z
#
# Youngs Moduli (GPa) = 52.52077 87.27765 66.08687
#
# Poissons Ratio (x) = 0.58983 0.13061
# Poissons Ratio (y) = 0.35494 0.35079
# Poissons Ratio (z) = 0.10380 0.46328
#
# Static dielectric constant tensor:
#      x y z
#    x 1.537550 0.000000 0.000000 
#    y 0.000000 1.550980 0.000000 
#    z 0.000000 0.000000 1.516180 
# 
# From -- ./inp_files/21067.got.cif
#   From: 2010.05.17/outbox.cif.g08.bks.cpg/sg53_11_cif.got.tgz:21067.got - 2010.06.03 12:45:16.
