data_PCOD9415043
_publ_section_title
;
Structure prediction by ZEFSAII (Michael W. Deem and Ramdas Pophale) SiO2 
 PCOD9415043
Probable space group: P M N A
;
_chemical_formula_sum "Si O2"
_cell_formula_units_Z 64
_cell_length_a 14.419032
_cell_length_b 20.313911
_cell_length_c 12.029219
_cell_angle_alpha 90.000000
_cell_angle_beta 90.000000
_cell_angle_gamma 90.000000
_cell_volume 3523.441641
_symmetry_space_group_name_H-M "P M N A"
_symmetry_group_IT_number 53
_symmetry_cell_setting 'orthorhombic'
loop_
_space_group_symop_operation_xyz
x,y,z
1/2-x,-y,1/2+z
x,-y,-z
1/2-x,y,1/2-z
-x,-y,-z
1/2+x,y,1/2-z
-x,y,z
1/2+x,-y,1/2+z
loop_
_atom_site_type_symbol
_atom_site_label
_atom_site_fract_x
_atom_site_fract_y
_atom_site_fract_z
Si Si1 0.228159 0.647160 0.869684
Si Si2 0.391573 0.517629 0.630753
Si Si3 0.888632 0.280114 0.962058
Si Si4 0.606840 0.147914 0.621547
Si Si5 0.754717 0.041586 0.616284
Si Si6 0.892283 0.165938 0.620381
Si Si7 0.888373 0.621586 0.229473
Si Si8 0.388576 0.312700 0.964755
O O1 0.250000 0.674808 0.750000
O O2 0.183566 0.574879 0.855768
O O3 0.146546 0.687187 0.927583
O O4 0.320538 0.656577 0.943508
O O5 0.393576 0.500000 0.500000
O O6 0.500000 0.535043 0.660267
O O7 0.361899 0.452496 0.698173
O O8 0.852968 0.206085 0.952794
O O9 0.853837 0.326459 0.861941
O O10 0.000000 0.278012 0.955700
O O11 0.500000 0.138198 0.596168
O O12 0.658397 0.080165 0.609259
O O13 0.613871 0.176771 0.746547
O O14 0.750000 0.016489 0.750000
O O15 0.830567 0.100662 0.605746
O O16 0.764983 0.000000 0.500000
O O17 0.869327 0.234861 0.559374
O O18 0.000000 0.151276 0.594367
O O19 0.868074 0.647383 0.351592
O O20 0.000000 0.621981 0.218941
O O21 0.500000 0.318477 0.987843
#
# Coordination Sequence:
#
# PCOD9415043 Si02
#       8
#     8   8   8   8   8   8   8   8
#     4  12  26  37  51  76 115 161 198 222 275 359
#     4  10  20  38  59  81 109 143 184 234 290 349
#     4  10  18  35  62  88 108 133 182 247 298 335
#     4   9  17  32  59  90 114 139 185 245 296 338
#     4  10  21  36  55  84 124 162 194 229 282 341
#     4   9  17  34  61  89 115 143 188 246 298 337
#     4   9  17  34  62  89 107 129 173 240 307 342
#     4  10  21  39  62  89 115 141 186 253 305 338
#
# _framework density 18.164059000000002
#
# number of rings (size 3 to 8) (size 9 to 14) (size 15 to 20)
#    0.000    2.125    2.500    1.125    0.000    3.000 
#    0.000    2.500    0.000    4.125    0.000    0.000 
#    0.000    0.000    0.000    0.000    0.000    0.000 
#
# Total GULP energy -356360.946275 kJ/mol
# GULP energy per Si atom -5568.139786 kJ/mol
# Density = 1.812272 g / cm^3
# Si number density = 18.164059 Si / 1000 Ang^3
#
#
#
# Elastic Constant Matrix: (Units=GPa)
#
#
# Indices 1 2 3 4 5 6 
#
# 1 75.4120 34.4389 20.2905 0.0000 0.0000 0.0000
# 2 34.4389 84.0363 45.9570 0.0000 0.0000 0.0000
# 3 20.2905 45.9570 85.3064 0.0000 0.0000 0.0000
# 4 0.0000 0.0000 0.0000 -72.4589 0.0000 0.0000
# 5 0.0000 0.0000 0.0000 0.0000 23.1179 0.0000
# 6 0.0000 0.0000 0.0000 0.0000 0.0000 23.7437
#
#
#
# Elastic Compliance Matrix: (Units=1/GPa)
#
#
# Indices 1 2 3 4 5 6 
#
# 1 0.016323 -0.006473 -0.000395 0.000000 0.000000 0.000000
# 2 -0.006473 0.019437 -0.008931 0.000000 0.000000 0.000000
# 3 -0.000395 -0.008931 0.016628 0.000000 0.000000 0.000000
# 4 0.000000 0.000000 0.000000 -0.013801 0.000000 0.000000
# 5 0.000000 0.000000 0.000000 0.000000 0.043257 0.000000
# 6 0.000000 0.000000 0.000000 0.000000 0.000000 0.042116
#
#
# Mechanical properties :
#
#
# Convention : Reuss Voigt Hill
#
# Bulk Modulus (GPa) = 48.10440 49.56971 48.83705
# Shear Modulus (GPa) = 30.77133 4.48510 17.62821
#
# Velocity S-wave (km/s) = 4.12038 1.57308 3.11866
# Velocity P-wave (km/s) = 7.01267 5.53612 6.31768
#
# Compressibility (1/GPa) = 0.02078812
#
# Stress axis : x y z
#
# Youngs Moduli (GPa) = 61.26326 51.44892 60.13924
#
# Poissons Ratio (x) = 0.33304 0.02377
# Poissons Ratio (y) = 0.39657 0.53713
# Poissons Ratio (z) = 0.02421 0.45951
#
# Static dielectric constant tensor:
#      x y z
#    x 1.670240 0.000000 0.000000 
#    y 0.000000 1.647280 0.000000 
#    z 0.000000 0.000000 1.623310 
# 
# From -- ./inp_files/16233.got.cif
#   From: 2010.05.17/outbox.cif.g08.bks.cpg/sg53_9_cif.got.tgz:16233.got - 2010.06.03 12:45:16.
