data_PCOD9415131
_publ_section_title
;
Structure prediction by ZEFSAII (Michael W. Deem and Ramdas Pophale) SiO2 
 PCOD9415131
Probable space group: P M N A
;
_chemical_formula_sum "Si O2"
_cell_formula_units_Z 40
_cell_length_a 13.421696
_cell_length_b 15.179570
_cell_length_c 6.640311
_cell_angle_alpha 90.000000
_cell_angle_beta 90.000000
_cell_angle_gamma 90.000000
_cell_volume 1352.867573
_symmetry_space_group_name_H-M "P M N A"
_symmetry_group_IT_number 53
_symmetry_cell_setting 'orthorhombic'
loop_
_space_group_symop_operation_xyz
x,y,z
1/2-x,-y,1/2+z
x,-y,-z
1/2-x,y,1/2-z
-x,-y,-z
1/2+x,y,1/2-z
-x,y,z
1/2+x,-y,1/2+z
loop_
_atom_site_type_symbol
_atom_site_label
_atom_site_fract_x
_atom_site_fract_y
_atom_site_fract_z
Si Si1 0.334722 0.100520 0.499477
Si Si2 0.616520 0.475244 0.737577
Si Si3 0.380890 0.287004 0.621036
Si Si4 0.385904 0.853194 0.955552
Si Si5 0.120766 0.336447 0.328559
O O1 0.362324 0.181868 0.647590
O O2 0.214391 0.096352 0.518280
O O3 0.378066 0.132546 0.286198
O O4 0.371134 0.000000 0.500000
O O5 0.623272 0.500000 0.500000
O O6 0.500000 0.470058 0.786336
O O7 0.650536 0.373961 0.745811
O O8 0.654480 0.562342 0.854460
O O9 0.500000 0.293144 0.617288
O O10 0.341376 0.308282 0.394133
O O11 0.500000 0.876615 0.016435
O O12 0.367243 0.748003 0.972677
O O13 0.000000 0.342146 0.313046
#
# Coordination Sequence:
#
# PCOD9415131 Si02
#       5
#     8   8   8   8   8
#     4  10  19  29  43  65  92 122 159 198 233 272
#     4   7   9  15  31  56  82 104 125 157 208 263
#     4   8  13  21  35  59  89 114 139 177 224 268
#     4   9  18  31  45  64  91 121 154 194 239 281
#     4   7  10  19  36  57  82 108 134 171 219 269
#
# _framework density 29.566827
#
# number of rings (size 3 to 8) (size 9 to 14) (size 15 to 20)
#    0.000    3.800    0.000    4.200    0.000    2.000 
#    0.000    0.000    0.000    0.000    0.000   28.000 
#    0.000   40.800    0.000    0.000    0.000    8.600 
#
# Total GULP energy -223561.724505 kJ/mol
# GULP energy per Si atom -5589.043113 kJ/mol
# Density = 2.949953 g / cm^3
# Si number density = 29.566827 Si / 1000 Ang^3
#
#
#
# Elastic Constant Matrix: (Units=GPa)
#
#
# Indices 1 2 3 4 5 6 
#
# 1 189.4612 30.6989 5.0838 0.0000 0.0000 0.0000
# 2 30.6989 342.4782 69.0314 0.0000 0.0000 0.0000
# 3 5.0838 69.0314 66.7783 0.0000 0.0000 0.0000
# 4 0.0000 0.0000 0.0000 26.1059 0.0000 0.0000
# 5 0.0000 0.0000 0.0000 0.0000 25.3128 0.0000
# 6 0.0000 0.0000 0.0000 0.0000 0.0000 18.1532
#
#
#
# Elastic Compliance Matrix: (Units=1/GPa)
#
#
# Indices 1 2 3 4 5 6 
#
# 1 0.005357 -0.000503 0.000112 0.000000 0.000000 0.000000
# 2 -0.000503 0.003736 -0.003823 0.000000 0.000000 0.000000
# 3 0.000112 -0.003823 0.018919 0.000000 0.000000 0.000000
# 4 0.000000 0.000000 0.000000 0.038305 0.000000 0.000000
# 5 0.000000 0.000000 0.000000 0.000000 0.039506 0.000000
# 6 0.000000 0.000000 0.000000 0.000000 0.000000 0.055087
#
#
# Mechanical properties :
#
#
# Convention : Reuss Voigt Hill
#
# Bulk Modulus (GPa) = 51.06590 89.81623 70.44106
# Shear Modulus (GPa) = 28.43093 46.84129 37.63611
#
# Velocity S-wave (km/s) = 3.10430 3.98458 3.57167
# Velocity P-wave (km/s) = 5.49161 7.18419 6.39415
#
# Compressibility (1/GPa) = 0.01958254
#
# Stress axis : x y z
#
# Youngs Moduli (GPa) = 186.68635 267.69376 52.85752
#
# Poissons Ratio (x) = 0.13457 -0.00591
# Poissons Ratio (y) = 0.09385 0.20209
# Poissons Ratio (z) = -0.02088 1.02350
#
# Static dielectric constant tensor:
#      x y z
#    x 2.207760 0.000000 0.000000 
#    y 0.000000 2.260250 0.000000 
#    z 0.000000 0.000000 2.452310 
# 
# From -- ./inp_files/8383.got.cif
#   From: 2010.05.17/outbox.cif.g08.bks.cpg/sg53_5_cif.got.tgz:8383.got - 2010.06.03 12:45:16.
