data_PCOD9415251
_publ_section_title
;
Structure prediction by ZEFSAII (Michael W. Deem and Ramdas Pophale) SiO2 
 PCOD9415251
Probable space group: P M N A
;
_chemical_formula_sum "Si O2"
_cell_formula_units_Z 48
_cell_length_a 7.385789
_cell_length_b 15.706925
_cell_length_c 19.765880
_cell_angle_alpha 90.000000
_cell_angle_beta 90.000000
_cell_angle_gamma 90.000000
_cell_volume 2293.000877
_symmetry_space_group_name_H-M "P M N A"
_symmetry_group_IT_number 53
_symmetry_cell_setting 'orthorhombic'
loop_
_space_group_symop_operation_xyz
x,y,z
1/2-x,-y,1/2+z
x,-y,-z
1/2-x,y,1/2-z
-x,-y,-z
1/2+x,y,1/2-z
-x,y,z
1/2+x,-y,1/2+z
loop_
_atom_site_type_symbol
_atom_site_label
_atom_site_fract_x
_atom_site_fract_y
_atom_site_fract_z
Si Si1 0.216314 0.936125 0.328490
Si Si2 0.784006 0.607719 0.329550
Si Si3 0.779174 0.539478 0.572334
Si Si4 0.721272 0.266356 0.063991
Si Si5 0.716416 0.128026 0.171700
Si Si6 0.221526 0.226122 0.589151
O O1 0.250000 0.913854 0.250000
O O2 0.283832 0.862019 0.377448
O O3 0.000000 0.939716 0.337348
O O4 0.286857 0.031919 0.340126
O O5 0.750000 0.607184 0.250000
O O6 0.717282 0.523822 0.368560
O O7 0.717646 0.693537 0.365957
O O8 0.000000 0.608232 0.338901
O O9 0.726184 0.500000 0.500000
O O10 0.720072 0.637022 0.578355
O O11 0.000000 0.540805 0.572856
O O12 0.500000 0.266821 0.064855
O O13 0.783914 0.198705 0.119711
O O14 0.775483 0.239328 0.988415
O O15 0.750000 0.150089 0.250000
O O16 0.500000 0.124261 0.162973
O O17 0.000000 0.225534 0.590218
#
# Coordination Sequence:
#
# PCOD9415251 Si02
#       6
#     8   8   8   8   8   8
#     4   9  17  29  45  66  92 122 150 182 226 270
#     4  10  19  30  47  71  94 118 150 188 226 268
#     4   9  15  27  46  67  90 118 152 186 222 265
#     4   9  16  27  46  70  91 115 151 193 228 261
#     4   9  18  31  47  67  92 120 151 187 226 268
#     4   9  16  27  45  69  93 116 149 190 227 264
#
# _framework density 20.933268000000002
#
# number of rings (size 3 to 8) (size 9 to 14) (size 15 to 20)
#    0.000    2.833    1.667    0.500    0.000    1.333 
#    0.000    3.333    0.000    2.500    0.000    4.667 
#    0.000    0.000    0.000    0.000    0.000    0.000 
#
# Total GULP energy -268021.041129 kJ/mol
# GULP energy per Si atom -5583.771690 kJ/mol
# Density = 2.088562 g / cm^3
# Si number density = 20.933268 Si / 1000 Ang^3
#
#
#
# Elastic Constant Matrix: (Units=GPa)
#
#
# Indices 1 2 3 4 5 6 
#
# 1 73.0274 9.1927 -0.4967 0.0000 0.0000 0.0000
# 2 9.1927 224.1223 162.1143 0.0000 0.0000 0.0000
# 3 -0.4967 162.1143 200.2279 0.0000 0.0000 0.0000
# 4 0.0000 0.0000 0.0000 17.1536 0.0000 0.0000
# 5 0.0000 0.0000 0.0000 0.0000 18.0082 0.0000
# 6 0.0000 0.0000 0.0000 0.0000 0.0000 -10.5155
#
#
#
# Elastic Compliance Matrix: (Units=1/GPa)
#
#
# Indices 1 2 3 4 5 6 
#
# 1 0.013882 -0.001434 0.001196 0.000000 0.000000 0.000000
# 2 -0.001434 0.010916 -0.008842 0.000000 0.000000 0.000000
# 3 0.001196 -0.008842 0.012156 0.000000 0.000000 0.000000
# 4 0.000000 0.000000 0.000000 0.058297 0.000000 0.000000
# 5 0.000000 0.000000 0.000000 0.000000 0.055530 0.000000
# 6 0.000000 0.000000 0.000000 0.000000 0.000000 -0.095097
#
#
# Mechanical properties :
#
#
# Convention : Reuss Voigt Hill
#
# Bulk Modulus (GPa) = 53.20963 93.22204 73.21583
# Shear Modulus (GPa) = 62.41417 26.70040 44.55728
#
# Velocity S-wave (km/s) = 5.46631 3.57529 4.61861
# Velocity P-wave (km/s) = 8.08174 7.85323 7.96831
#
# Compressibility (1/GPa) = 0.01879359
#
# Stress axis : x y z
#
# Youngs Moduli (GPa) = 72.03479 91.60592 82.26290
#
# Poissons Ratio (x) = 0.13139 -0.09836
# Poissons Ratio (y) = 0.10332 0.72736
# Poissons Ratio (z) = -0.08613 0.80997
#
# Static dielectric constant tensor:
#      x y z
#    x 1.764700 0.000000 0.000000 
#    y 0.000000 1.736850 0.000000 
#    z 0.000000 0.000000 1.692980 
# 
# From -- ./inp_files/21780.got.cif
#   From: 2010.05.17/outbox.cif.g08.bks.cpg/sg53_11_cif.got.tgz:21780.got - 2010.06.03 12:45:16.
