data_PCOD9415356
_publ_section_title
;
Structure prediction by ZEFSAII (Michael W. Deem and Ramdas Pophale) SiO2 
 PCOD9415356
Probable space group: P M N A
;
_chemical_formula_sum "Si O2"
_cell_formula_units_Z 64
_cell_length_a 8.620565
_cell_length_b 12.650743
_cell_length_c 32.432888
_cell_angle_alpha 90.000000
_cell_angle_beta 90.000000
_cell_angle_gamma 90.000000
_cell_volume 3537.018947
_symmetry_space_group_name_H-M "P M N A"
_symmetry_group_IT_number 53
_symmetry_cell_setting 'orthorhombic'
loop_
_space_group_symop_operation_xyz
x,y,z
1/2-x,-y,1/2+z
x,-y,-z
1/2-x,y,1/2-z
-x,-y,-z
1/2+x,y,1/2-z
-x,y,z
1/2+x,-y,1/2+z
loop_
_atom_site_type_symbol
_atom_site_label
_atom_site_fract_x
_atom_site_fract_y
_atom_site_fract_z
Si Si1 0.685238 0.873796 0.859645
Si Si2 0.825618 0.304835 0.982434
Si Si3 0.816337 0.318150 0.607615
Si Si4 0.175984 0.941752 0.036447
Si Si5 0.814771 0.703335 0.795920
Si Si6 0.186317 0.703347 0.573493
Si Si7 0.184678 0.467707 0.137559
Si Si8 0.312984 0.909190 0.374442
O O1 0.500000 0.884362 0.861158
O O2 0.735357 0.793183 0.823800
O O3 0.735114 0.812684 0.902568
O O4 0.758331 0.988592 0.849388
O O5 0.743933 0.337857 0.939553
O O6 0.837920 0.179073 0.976106
O O7 0.000000 0.350069 0.984069
O O8 0.743721 0.315294 0.026717
O O9 0.765149 0.419668 0.633433
O O10 0.746711 0.210966 0.627961
O O11 0.000000 0.306833 0.605898
O O12 0.250351 0.944507 0.080609
O O13 0.000000 0.986839 0.040715
O O14 0.261688 0.000000 0.000000
O O15 0.750000 0.703069 0.750000
O O16 0.784376 0.593193 0.819739
O O17 0.000000 0.720369 0.795958
O O18 0.252314 0.609551 0.601803
O O19 0.000000 0.701216 0.573788
O O20 0.000000 0.479999 0.132649
O O21 0.500000 0.904006 0.374667
#
# Coordination Sequence:
#
# PCOD9415356 Si02
#       8
#     8   8   8   8   8   8   8   8
#     4  10  20  34  54  82 115 145 176 217 268 323
#     4  10  19  31  47  69 100 140 186 232 275 321
#     4  11  22  36  53  75 106 144 187 232 276 320
#     4   8  14  24  40  63  91 127 173 221 262 302
#     4  10  21  38  63  91 116 140 169 210 261 320
#     4  10  20  33  50  76 108 141 180 230 282 325
#     4  10  21  38  58  80 106 140 181 221 266 323
#     4  10  19  32  51  75 105 142 183 221 262 314
#
# _framework density 18.094332999999999
#
# number of rings (size 3 to 8) (size 9 to 14) (size 15 to 20)
#    0.000    2.125    0.000    4.875    0.000    4.500 
#    0.000    2.500    0.000    6.750    0.000    3.500 
#    0.000    0.000    0.000    0.000    0.000    0.000 
#
# Total GULP energy -356551.917083 kJ/mol
# GULP energy per Si atom -5571.123704 kJ/mol
# Density = 1.805315 g / cm^3
# Si number density = 18.094333 Si / 1000 Ang^3
#
#
#
# Elastic Constant Matrix: (Units=GPa)
#
#
# Indices 1 2 3 4 5 6 
#
# 1 87.9401 38.5443 27.3284 0.0000 0.0000 0.0000
# 2 38.5443 109.1934 28.6226 0.0000 0.0000 0.0000
# 3 27.3284 28.6226 64.2568 0.0000 0.0000 0.0000
# 4 0.0000 0.0000 0.0000 9.5705 0.0000 0.0000
# 5 0.0000 0.0000 0.0000 0.0000 29.5889 0.0000
# 6 0.0000 0.0000 0.0000 0.0000 0.0000 28.3159
#
#
#
# Elastic Compliance Matrix: (Units=1/GPa)
#
#
# Indices 1 2 3 4 5 6 
#
# 1 0.014470 -0.003957 -0.004392 0.000000 0.000000 0.000000
# 2 -0.003957 0.011451 -0.003418 0.000000 0.000000 0.000000
# 3 -0.004392 -0.003418 0.018953 0.000000 0.000000 0.000000
# 4 0.000000 0.000000 0.000000 0.104488 0.000000 0.000000
# 5 0.000000 0.000000 0.000000 0.000000 0.033796 0.000000
# 6 0.000000 0.000000 0.000000 0.000000 0.000000 0.035316
#
#
# Mechanical properties :
#
#
# Convention : Reuss Voigt Hill
#
# Bulk Modulus (GPa) = 46.85753 50.04232 48.44993
# Shear Modulus (GPa) = 20.07059 24.62138 22.34598
#
# Velocity S-wave (km/s) = 3.33411 3.69280 3.51803
# Velocity P-wave (km/s) = 6.38547 6.77486 6.58304
#
# Compressibility (1/GPa) = 0.02134129
#
# Stress axis : x y z
#
# Youngs Moduli (GPa) = 69.10652 87.33127 52.76262
#
# Poissons Ratio (x) = 0.34555 0.23172
# Poissons Ratio (y) = 0.27344 0.18033
# Poissons Ratio (z) = 0.30350 0.29848
#
# Static dielectric constant tensor:
#      x y z
#    x 1.629330 0.000000 0.000000 
#    y 0.000000 1.663920 0.000000 
#    z 0.000000 0.000000 1.655420 
# 
# From -- ./inp_files/38104.got.cif
#   From: 2010.05.17/outbox.cif.g08.bks.cpg/sg53_20_cif.got.tgz:38104.got - 2010.06.03 12:45:16.
