data_PCOD9415632
_publ_section_title
;
Structure prediction by ZEFSAII (Michael W. Deem and Ramdas Pophale) SiO2 
 PCOD9415632
Probable space group: P M N A
;
_chemical_formula_sum "Si O2"
_cell_formula_units_Z 64
_cell_length_a 7.705509
_cell_length_b 21.648837
_cell_length_c 20.189010
_cell_angle_alpha 90.000000
_cell_angle_beta 90.000000
_cell_angle_gamma 90.000000
_cell_volume 3367.835928
_symmetry_space_group_name_H-M "P M N A"
_symmetry_group_IT_number 53
_symmetry_cell_setting 'orthorhombic'
loop_
_space_group_symop_operation_xyz
x,y,z
1/2-x,-y,1/2+z
x,-y,-z
1/2-x,y,1/2-z
-x,-y,-z
1/2+x,y,1/2-z
-x,y,z
1/2+x,-y,1/2+z
loop_
_atom_site_type_symbol
_atom_site_label
_atom_site_fract_x
_atom_site_fract_y
_atom_site_fract_z
Si Si1 0.292127 0.371140 0.322606
Si Si2 0.213262 0.682239 0.960197
Si Si3 0.793638 0.988012 0.324125
Si Si4 0.704346 0.182085 0.464472
Si Si5 0.287963 0.561688 0.460187
Si Si6 0.292946 0.130066 0.175588
Si Si7 0.791957 0.487218 0.822714
Si Si8 0.205765 0.938951 0.036237
O O1 0.250000 0.346228 0.250000
O O2 0.500000 0.374405 0.327608
O O3 0.230461 0.332416 0.385063
O O4 0.225397 0.441957 0.326953
O O5 0.275596 0.750083 0.980134
O O6 0.000000 0.682756 0.960899
O O7 0.269344 0.624768 0.005317
O O8 0.750000 0.966110 0.250000
O O9 0.727861 0.947806 0.385381
O O10 0.000000 0.990653 0.329747
O O11 0.726529 0.058922 0.330119
O O12 0.500000 0.184770 0.480181
O O13 0.721528 0.168323 0.386111
O O14 0.779153 0.123870 0.504778
O O15 0.235931 0.500000 0.500000
O O16 0.500000 0.562615 0.461805
O O17 0.229912 0.552396 0.384727
O O18 0.250000 0.151912 0.250000
O O19 0.500000 0.129209 0.169219
O O20 0.750000 0.462875 0.750000
O O21 0.000000 0.490786 0.828252
O O22 0.000000 0.938237 0.021899
O O23 0.279045 0.000000 0.000000
#
# Coordination Sequence:
#
# PCOD9415632 Si02
#       8
#     8   8   8   8   8   8   8   8
#     4   9  16  27  43  65  93 123 154 189 228 276
#     4   9  17  29  46  69  95 124 162 202 237 278
#     4  10  20  33  53  78 102 127 162 207 252 297
#     4  10  20  33  49  71 100 133 166 205 248 291
#     4   9  14  25  47  72  93 119 160 202 236 275
#     4  10  20  33  50  72 100 133 167 202 241 292
#     4   9  16  26  45  70  94 119 149 191 236 278
#     4  10  19  32  51  73 100 133 168 206 246 289
#
# _framework density 19.003299999999999
#
# number of rings (size 3 to 8) (size 9 to 14) (size 15 to 20)
#    0.000    2.500    2.500    0.750    0.000    2.250 
#    0.000    1.875    0.000    2.625    0.000    1.750 
#    0.000    0.000    0.000    0.000    0.000    0.000 
#
# Total GULP energy -357019.002943 kJ/mol
# GULP energy per Si atom -5578.421921 kJ/mol
# Density = 1.896005 g / cm^3
# Si number density = 19.003300 Si / 1000 Ang^3
#
#
#
# Elastic Constant Matrix: (Units=GPa)
#
#
# Indices 1 2 3 4 5 6 
#
# 1 28.3024 7.8019 -7.7684 0.0000 0.0000 0.0000
# 2 7.8019 143.4879 84.8297 0.0000 0.0000 0.0000
# 3 -7.7684 84.8297 127.1181 0.0000 0.0000 0.0000
# 4 0.0000 0.0000 0.0000 20.8159 0.0000 0.0000
# 5 0.0000 0.0000 0.0000 0.0000 22.4121 0.0000
# 6 0.0000 0.0000 0.0000 0.0000 0.0000 4.6268
#
#
#
# Elastic Compliance Matrix: (Units=1/GPa)
#
#
# Indices 1 2 3 4 5 6 
#
# 1 0.038630 -0.005774 0.006214 0.000000 0.000000 0.000000
# 2 -0.005774 0.012373 -0.008610 0.000000 0.000000 0.000000
# 3 0.006214 -0.008610 0.013992 0.000000 0.000000 0.000000
# 4 0.000000 0.000000 0.000000 0.048040 0.000000 0.000000
# 5 0.000000 0.000000 0.000000 0.000000 0.044619 0.000000
# 6 0.000000 0.000000 0.000000 0.000000 0.000000 0.216132
#
#
# Mechanical properties :
#
#
# Convention : Reuss Voigt Hill
#
# Bulk Modulus (GPa) = 20.55274 52.07053 36.31164
# Shear Modulus (GPa) = 12.30480 23.84064 18.07272
#
# Velocity S-wave (km/s) = 2.54738 3.54581 3.08722
# Velocity P-wave (km/s) = 4.41486 6.65011 5.64424
#
# Compressibility (1/GPa) = 0.04865531
#
# Stress axis : x y z
#
# Youngs Moduli (GPa) = 25.88661 80.81847 71.46850
#
# Poissons Ratio (x) = 0.46666 -0.44411
# Poissons Ratio (y) = 0.14947 0.61535
# Poissons Ratio (z) = -0.16086 0.69585
#
# Static dielectric constant tensor:
#      x y z
#    x 1.697760 0.000000 0.000000 
#    y 0.000000 1.672030 0.000000 
#    z 0.000000 0.000000 1.668810 
# 
# From -- ./inp_files/31155.got.cif
#   From: 2010.05.17/outbox.cif.g08.bks.cpg/sg53_16_cif.got.tgz:31155.got - 2010.06.03 12:45:16.
