data_PCOD9415405
_publ_section_title
;
Structure prediction by ZEFSAII (Michael W. Deem and Ramdas Pophale) SiO2 
 PCOD9415405
Probable space group: P M N A
;
_chemical_formula_sum "Si O2"
_cell_formula_units_Z 64
_cell_length_a 9.016888
_cell_length_b 22.896260
_cell_length_c 16.590246
_cell_angle_alpha 90.000000
_cell_angle_beta 90.000000
_cell_angle_gamma 90.000000
_cell_volume 3425.106257
_symmetry_space_group_name_H-M "P M N A"
_symmetry_group_IT_number 53
_symmetry_cell_setting 'orthorhombic'
loop_
_space_group_symop_operation_xyz
x,y,z
1/2-x,-y,1/2+z
x,-y,-z
1/2-x,y,1/2-z
-x,-y,-z
1/2+x,y,1/2-z
-x,y,z
1/2+x,-y,1/2+z
loop_
_atom_site_type_symbol
_atom_site_label
_atom_site_fract_x
_atom_site_fract_y
_atom_site_fract_z
Si Si1 0.180383 0.126978 0.987394
Si Si2 0.325282 0.290740 0.326644
Si Si3 0.323372 0.051534 0.665688
Si Si4 0.323752 0.741604 0.490324
Si Si5 0.176668 0.088114 0.165211
Si Si6 0.669181 0.588577 0.867068
Si Si7 0.824316 0.465594 0.832238
Si Si8 0.168265 0.623609 0.446569
O O1 0.229864 0.083613 0.915995
O O2 0.217116 0.193414 0.963750
O O3 0.000000 0.122618 0.991067
O O4 0.230973 0.113776 0.079209
O O5 0.250000 0.260745 0.250000
O O6 0.500000 0.295095 0.313470
O O7 0.300070 0.260996 0.412900
O O8 0.253692 0.354923 0.334353
O O9 0.250000 0.070986 0.750000
O O10 0.500000 0.061389 0.671625
O O11 0.300192 0.981890 0.658438
O O12 0.500000 0.731869 0.476959
O O13 0.231918 0.689090 0.451260
O O14 0.250000 0.107165 0.250000
O O15 0.000000 0.099538 0.171033
O O16 0.500000 0.585371 0.835938
O O17 0.754681 0.529090 0.849679
O O18 0.662805 0.599322 0.962549
O O19 0.750000 0.444700 0.750000
O O20 0.775120 0.419430 0.898946
O O21 0.000000 0.470071 0.826053
O O22 0.000000 0.622277 0.414170
#
# Coordination Sequence:
#
# PCOD9415405 Si02
#       8
#     8   8   8   8   8   8   8   8
#     4   9  17  32  54  76 101 139 183 220 258 311
#     4  10  19  31  48  71 100 133 169 209 255 307
#     4   9  17  31  52  77 105 137 175 219 266 315
#     4   9  19  35  53  72  96 132 177 217 253 302
#     4   9  17  30  50  78 110 142 175 213 260 315
#     4  10  20  35  55  78 104 132 164 204 251 305
#     4  12  24  37  55  79 106 132 163 205 253 305
#     4  10  21  38  57  76 101 133 168 207 253 303
#
# _framework density 18.685552000000001
#
# number of rings (size 3 to 8) (size 9 to 14) (size 15 to 20)
#    0.000    2.250    0.000    3.375    0.000    5.500 
#    0.000    2.500    0.000    4.500    0.000    0.000 
#    0.000    0.000    0.000    0.000    0.000    0.000 
#
# Total GULP energy -357096.332747 kJ/mol
# GULP energy per Si atom -5579.630199 kJ/mol
# Density = 1.864302 g / cm^3
# Si number density = 18.685552 Si / 1000 Ang^3
#
#
#
# Elastic Constant Matrix: (Units=GPa)
#
#
# Indices 1 2 3 4 5 6 
#
# 1 63.1103 23.9660 14.1657 0.0000 0.0000 0.0000
# 2 23.9660 37.7817 21.3255 0.0000 0.0000 0.0000
# 3 14.1657 21.3255 67.4344 0.0000 0.0000 0.0000
# 4 0.0000 0.0000 0.0000 -13.4002 0.0000 0.0000
# 5 0.0000 0.0000 0.0000 0.0000 30.3217 0.0000
# 6 0.0000 0.0000 0.0000 0.0000 0.0000 15.0726
#
#
#
# Elastic Compliance Matrix: (Units=1/GPa)
#
#
# Indices 1 2 3 4 5 6 
#
# 1 0.020877 -0.013107 -0.000241 0.000000 0.000000 0.000000
# 2 -0.013107 0.040448 -0.010038 0.000000 0.000000 0.000000
# 3 -0.000241 -0.010038 0.018054 0.000000 0.000000 0.000000
# 4 0.000000 0.000000 0.000000 -0.074626 0.000000 0.000000
# 5 0.000000 0.000000 0.000000 0.000000 0.032980 0.000000
# 6 0.000000 0.000000 0.000000 0.000000 0.000000 0.066346
#
#
# Mechanical properties :
#
#
# Convention : Reuss Voigt Hill
#
# Bulk Modulus (GPa) = 30.66750 31.91566 31.29158
# Shear Modulus (GPa) = 30.91810 13.65677 22.28744
#
# Velocity S-wave (km/s) = 4.07216 2.70640 3.45739
# Velocity P-wave (km/s) = 6.20951 5.18494 5.72021
#
# Compressibility (1/GPa) = 0.03260781
#
# Stress axis : x y z
#
# Youngs Moduli (GPa) = 47.90069 24.72334 55.38893
#
# Poissons Ratio (x) = 0.32404 0.01332
# Poissons Ratio (y) = 0.62782 0.55599
# Poissons Ratio (z) = 0.01152 0.24817
#
# Static dielectric constant tensor:
#      x y z
#    x 1.620220 0.000000 0.000000 
#    y 0.000000 1.627970 0.000000 
#    z 0.000000 0.000000 1.770990 
# 
# From -- ./inp_files/20997.got.cif
#   From: 2010.05.17/outbox.cif.g08.bks.cpg/sg53_11_cif.got.tgz:20997.got - 2010.06.03 12:45:16.
