data_PCOD9415926
_publ_section_title
;
Structure prediction by ZEFSAII (Michael W. Deem and Ramdas Pophale) SiO2 
 PCOD9415926
Probable space group: P M N A
;
_chemical_formula_sum "Si O2"
_cell_formula_units_Z 64
_cell_length_a 8.609240
_cell_length_b 20.211714
_cell_length_c 21.199396
_cell_angle_alpha 90.000000
_cell_angle_beta 90.000000
_cell_angle_gamma 90.000000
_cell_volume 3688.853828
_symmetry_space_group_name_H-M "P M N A"
_symmetry_group_IT_number 53
_symmetry_cell_setting 'orthorhombic'
loop_
_space_group_symop_operation_xyz
x,y,z
1/2-x,-y,1/2+z
x,-y,-z
1/2-x,y,1/2-z
-x,-y,-z
1/2+x,y,1/2-z
-x,y,z
1/2+x,-y,1/2+z
loop_
_atom_site_type_symbol
_atom_site_label
_atom_site_fract_x
_atom_site_fract_y
_atom_site_fract_z
Si Si1 0.686692 0.177822 0.133015
Si Si2 0.186084 0.037060 0.317205
Si Si3 0.686342 0.318504 0.366326
Si Si4 0.189500 0.542269 0.060998
Si Si5 0.814283 0.040164 0.937336
Si Si6 0.314539 0.174937 0.985456
Si Si7 0.687203 0.683828 0.485132
Si Si8 0.812116 0.459868 0.182722
O O1 0.500000 0.179845 0.134524
O O2 0.740158 0.112771 0.169881
O O3 0.748412 0.248349 0.156331
O O4 0.734221 0.169792 0.059397
O O5 0.250000 0.014366 0.250000
O O6 0.000000 0.036878 0.316240
O O7 0.242936 0.992935 0.375414
O O8 0.500000 0.316019 0.362289
O O9 0.726517 0.325728 0.440662
O O10 0.740599 0.384395 0.330971
O O11 0.237163 0.618289 0.052070
O O12 0.239093 0.506387 0.124978
O O13 0.000000 0.541713 0.060409
O O14 0.239067 0.500000 0.000000
O O15 0.762071 0.115495 0.947306
O O16 0.000000 0.036103 0.933670
O O17 0.762471 0.000000 0.000000
O O18 0.500000 0.168725 0.982849
O O19 0.262572 0.247635 0.963793
O O20 0.500000 0.689535 0.481350
O O21 0.750000 0.482034 0.250000
O O22 0.000000 0.459659 0.183102
#
# Coordination Sequence:
#
# PCOD9415926 Si02
#       8
#     8   8   8   8   8   8   8   8
#     4   9  19  33  50  73 106 144 178 212 258 314
#     4  11  23  39  56  78 110 147 184 222 269 321
#     4   9  17  29  48  72 100 134 175 216 256 304
#     4   9  15  29  54  77  98 130 176 221 260 305
#     4  11  22  36  58  85 109 139 182 227 268 317
#     4  10  19  33  53  79 111 142 172 214 271 324
#     4   9  16  29  52  79 101 127 172 226 266 305
#     4  10  20  33  49  73 103 138 174 213 262 314
#
# _framework density 17.349563
#
# number of rings (size 3 to 8) (size 9 to 14) (size 15 to 20)
#    0.000    2.250    2.500    1.125    0.000    3.000 
#    0.000    3.125    0.000    1.500    0.000    3.500 
#    0.000    0.000    0.000    0.000    0.000    0.000 
#
# Total GULP energy -357127.272644 kJ/mol
# GULP energy per Si atom -5580.113635 kJ/mol
# Density = 1.731008 g / cm^3
# Si number density = 17.349563 Si / 1000 Ang^3
#
#
#
# Elastic Constant Matrix: (Units=GPa)
#
#
# Indices 1 2 3 4 5 6 
#
# 1 20.0357 22.7004 26.0848 0.0000 0.0000 0.0000
# 2 22.7004 118.3180 66.2644 0.0000 0.0000 0.0000
# 3 26.0848 66.2644 116.7836 0.0000 0.0000 0.0000
# 4 0.0000 0.0000 0.0000 21.0684 0.0000 0.0000
# 5 0.0000 0.0000 0.0000 0.0000 16.7176 0.0000
# 6 0.0000 0.0000 0.0000 0.0000 0.0000 18.8994
#
#
#
# Elastic Compliance Matrix: (Units=1/GPa)
#
#
# Indices 1 2 3 4 5 6 
#
# 1 0.074425 -0.007284 -0.012491 0.000000 0.000000 0.000000
# 2 -0.007284 0.013102 -0.005807 0.000000 0.000000 0.000000
# 3 -0.012491 -0.005807 0.014648 0.000000 0.000000 0.000000
# 4 0.000000 0.000000 0.000000 0.047465 0.000000 0.000000
# 5 0.000000 0.000000 0.000000 0.000000 0.059817 0.000000
# 6 0.000000 0.000000 0.000000 0.000000 0.000000 0.052912
#
#
# Mechanical properties :
#
#
# Convention : Reuss Voigt Hill
#
# Bulk Modulus (GPa) = 19.60340 53.91518 36.75929
# Shear Modulus (GPa) = 15.12697 20.67624 17.90161
#
# Velocity S-wave (km/s) = 2.95599 3.45591 3.21568
# Velocity P-wave (km/s) = 4.79313 6.86059 5.91785
#
# Compressibility (1/GPa) = 0.05101157
#
# Stress axis : x y z
#
# Youngs Moduli (GPa) = 13.43626 76.32708 68.26963
#
# Poissons Ratio (x) = 0.55594 0.85274
# Poissons Ratio (y) = 0.09787 0.39645
# Poissons Ratio (z) = 0.16783 0.44324
#
# Static dielectric constant tensor:
#      x y z
#    x 1.588780 0.000000 0.000000 
#    y 0.000000 1.588840 0.000000 
#    z 0.000000 0.000000 1.577130 
# 
# From -- ./inp_files/31321.got.cif
#   From: 2010.05.17/outbox.cif.g08.bks.cpg/sg53_16_cif.got.tgz:31321.got - 2010.06.03 12:45:16.
