data_PCOD9415487
_publ_section_title
;
Structure prediction by ZEFSAII (Michael W. Deem and Ramdas Pophale) SiO2 
 PCOD9415487
Probable space group: P M N A
;
_chemical_formula_sum "Si O2"
_cell_formula_units_Z 48
_cell_length_a 8.570022
_cell_length_b 16.945131
_cell_length_c 18.943687
_cell_angle_alpha 90.000000
_cell_angle_beta 90.000000
_cell_angle_gamma 90.000000
_cell_volume 2751.004982
_symmetry_space_group_name_H-M "P M N A"
_symmetry_group_IT_number 53
_symmetry_cell_setting 'orthorhombic'
loop_
_space_group_symop_operation_xyz
x,y,z
1/2-x,-y,1/2+z
x,-y,-z
1/2-x,y,1/2-z
-x,-y,-z
1/2+x,y,1/2-z
-x,y,z
1/2+x,-y,1/2+z
loop_
_atom_site_type_symbol
_atom_site_label
_atom_site_fract_x
_atom_site_fract_y
_atom_site_fract_z
Si Si1 0.812873 0.834225 0.826907
Si Si2 0.690064 0.916083 0.529022
Si Si3 0.812590 0.516482 0.670744
Si Si4 0.813066 0.346585 0.828743
Si Si5 0.187113 0.679089 0.600119
Si Si6 0.188583 0.754234 0.040341
O O1 0.750000 0.856089 0.750000
O O2 0.762715 0.891799 0.891326
O O3 0.754255 0.747014 0.848703
O O4 0.000000 0.833215 0.825353
O O5 0.500000 0.918251 0.529315
O O6 0.737310 0.843377 0.478616
O O7 0.745831 0.000000 0.500000
O O8 0.750000 0.528458 0.750000
O O9 0.746799 0.432313 0.646311
O O10 0.765213 0.591935 0.624798
O O11 0.000000 0.512028 0.672463
O O12 0.750000 0.333450 0.750000
O O13 0.762851 0.280053 0.884338
O O14 0.000000 0.348640 0.825762
O O15 0.246863 0.699933 0.522355
O O16 0.000000 0.683586 0.602280
O O17 0.000000 0.752104 0.037090
#
# Coordination Sequence:
#
# PCOD9415487 Si02
#       6
#     8   8   8   8   8   8
#     4  10  19  31  50  75 103 133 165 201 243 295
#     4   8  15  31  54  75  96 126 162 199 240 289
#     4  10  20  32  47  69  96 129 167 203 242 286
#     4  10  20  34  51  70  95 128 166 206 244 285
#     4  10  20  32  49  73 100 130 163 202 246 292
#     4   9  19  34  52  74  97 126 164 201 244 297
#
# _framework density 17.448170000000001
#
# number of rings (size 3 to 8) (size 9 to 14) (size 15 to 20)
#    0.000    2.500    0.000    4.500    0.000    6.000 
#    0.000    4.167    0.000   12.500    0.000    0.000 
#    0.000    0.000    0.000    0.000    0.000    0.000 
#
# Total GULP energy -267703.264470 kJ/mol
# GULP energy per Si atom -5577.151343 kJ/mol
# Density = 1.740846 g / cm^3
# Si number density = 17.448170 Si / 1000 Ang^3
#
#
#
# Elastic Constant Matrix: (Units=GPa)
#
#
# Indices 1 2 3 4 5 6 
#
# 1 26.9640 29.6647 25.3873 0.0000 0.0000 0.0000
# 2 29.6647 146.4920 106.0486 0.0000 0.0000 0.0000
# 3 25.3873 106.0486 119.7451 0.0000 0.0000 0.0000
# 4 0.0000 0.0000 0.0000 21.0887 0.0000 0.0000
# 5 0.0000 0.0000 0.0000 0.0000 25.4835 0.0000
# 6 0.0000 0.0000 0.0000 0.0000 0.0000 15.3553
#
#
#
# Elastic Compliance Matrix: (Units=1/GPa)
#
#
# Indices 1 2 3 4 5 6 
#
# 1 0.048542 -0.006631 -0.004419 0.000000 0.000000 0.000000
# 2 -0.006631 0.019927 -0.016242 0.000000 0.000000 0.000000
# 3 -0.004419 -0.016242 0.023672 0.000000 0.000000 0.000000
# 4 0.000000 0.000000 0.000000 0.047419 0.000000 0.000000
# 5 0.000000 0.000000 0.000000 0.000000 0.039241 0.000000
# 6 0.000000 0.000000 0.000000 0.000000 0.000000 0.065124
#
#
# Mechanical properties :
#
#
# Convention : Reuss Voigt Hill
#
# Bulk Modulus (GPa) = 26.62575 68.37803 47.50189
# Shear Modulus (GPa) = 16.07577 21.19222 18.63400
#
# Velocity S-wave (km/s) = 3.03866 3.48887 3.27152
# Velocity P-wave (km/s) = 5.25398 7.45009 6.44625
#
# Compressibility (1/GPa) = 0.03755763
#
# Stress axis : x y z
#
# Youngs Moduli (GPa) = 20.60067 50.18374 42.24397
#
# Poissons Ratio (x) = 0.33275 0.18669
# Poissons Ratio (y) = 0.13660 0.68612
# Poissons Ratio (z) = 0.09104 0.81507
#
# Static dielectric constant tensor:
#      x y z
#    x 1.596080 0.000000 0.000000 
#    y 0.000000 1.589150 0.000000 
#    z 0.000000 0.000000 1.573090 
# 
# From -- ./inp_files/30534.got.cif
#   From: 2010.05.17/outbox.cif.g08.bks.cpg/sg53_16_cif.got.tgz:30534.got - 2010.06.03 12:45:16.
