data_PCOD9415768
_publ_section_title
;
Structure prediction by ZEFSAII (Michael W. Deem and Ramdas Pophale) SiO2 
 PCOD9415768
Probable space group: P M N A
;
_chemical_formula_sum "Si O2"
_cell_formula_units_Z 40
_cell_length_a 11.414070
_cell_length_b 19.117256
_cell_length_c 7.507421
_cell_angle_alpha 90.000000
_cell_angle_beta 90.000000
_cell_angle_gamma 90.000000
_cell_volume 1638.162041
_symmetry_space_group_name_H-M "P M N A"
_symmetry_group_IT_number 53
_symmetry_cell_setting 'orthorhombic'
loop_
_space_group_symop_operation_xyz
x,y,z
1/2-x,-y,1/2+z
x,-y,-z
1/2-x,y,1/2-z
-x,-y,-z
1/2+x,y,1/2-z
-x,y,z
1/2+x,-y,1/2+z
loop_
_atom_site_type_symbol
_atom_site_label
_atom_site_fract_x
_atom_site_fract_y
_atom_site_fract_z
Si Si1 0.624769 0.492057 0.788497
Si Si2 0.373710 0.867799 0.051968
Si Si3 0.373228 0.082412 0.536175
Si Si4 0.124769 0.652258 0.717834
Si Si5 0.125417 0.706321 0.340968
O O1 0.750000 0.458259 0.750000
O O2 0.500000 0.461603 0.725824
O O3 0.629589 0.572194 0.714036
O O4 0.619428 0.500000 0.000000
O O5 0.500000 0.888547 0.969894
O O6 0.250360 0.888500 0.965380
O O7 0.373091 0.900793 0.251669
O O8 0.373242 0.784502 0.077978
O O9 0.500000 0.110464 0.470297
O O10 0.371851 0.000000 0.500000
O O11 0.250000 0.687611 0.750000
O O12 0.119381 0.652874 0.504124
O O13 0.000000 0.683412 0.779092
O O14 0.250000 0.698173 0.250000
O O15 0.000000 0.701466 0.239872
#
# Coordination Sequence:
#
# PCOD9415768 Si02
#       5
#     8   8   8   8   8
#     4   9  18  33  52  75 106 141 176 219 264 308
#     4   9  17  30  47  68  93 122 156 198 248 296
#     4   9  16  27  46  68  90 117 151 190 235 291
#     4   9  19  35  53  75 105 141 179 216 260 312
#     4  10  19  32  53  78 103 134 173 216 260 310
#
# _framework density 24.417608000000001
#
# number of rings (size 3 to 8) (size 9 to 14) (size 15 to 20)
#    0.000    2.800    2.000    0.000    0.000    2.400 
#    0.000    0.000    4.400    0.000    0.000    0.000 
#    0.000    0.000    0.000    0.000    0.000    0.000 
#
# Total GULP energy -222842.093323 kJ/mol
# GULP energy per Si atom -5571.052333 kJ/mol
# Density = 2.436203 g / cm^3
# Si number density = 24.417608 Si / 1000 Ang^3
#
#
#
# Elastic Constant Matrix: (Units=GPa)
#
#
# Indices 1 2 3 4 5 6 
#
# 1 391.1097 19.5711 27.6200 0.0000 0.0000 0.0000
# 2 19.5711 96.4150 -3.1824 0.0000 0.0000 0.0000
# 3 27.6200 -3.1824 36.3244 0.0000 0.0000 0.0000
# 4 0.0000 0.0000 0.0000 17.5776 0.0000 0.0000
# 5 0.0000 0.0000 0.0000 0.0000 14.9329 0.0000
# 6 0.0000 0.0000 0.0000 0.0000 0.0000 257.2379
#
#
#
# Elastic Compliance Matrix: (Units=1/GPa)
#
#
# Indices 1 2 3 4 5 6 
#
# 1 0.002739 -0.000627 -0.002138 0.000000 0.000000 0.000000
# 2 -0.000627 0.010545 0.001400 0.000000 0.000000 0.000000
# 3 -0.002138 0.001400 0.029278 0.000000 0.000000 0.000000
# 4 0.000000 0.000000 0.000000 0.056891 0.000000 0.000000
# 5 0.000000 0.000000 0.000000 0.000000 0.066966 0.000000
# 6 0.000000 0.000000 0.000000 0.000000 0.000000 0.003887
#
#
# Mechanical properties :
#
#
# Convention : Reuss Voigt Hill
#
# Bulk Modulus (GPa) = 25.10399 67.98516 46.54458
# Shear Modulus (GPa) = 26.83668 89.93904 58.38786
#
# Velocity S-wave (km/s) = 3.31882 6.07566 4.89531
# Velocity P-wave (km/s) = 4.99895 8.78187 7.14531
#
# Compressibility (1/GPa) = 0.03983431
#
# Stress axis : x y z
#
# Youngs Moduli (GPa) = 365.07788 94.82955 34.15559
#
# Poissons Ratio (x) = 0.05942 0.07301
# Poissons Ratio (y) = 0.22875 -0.04783
# Poissons Ratio (z) = 0.78041 -0.13279
#
# Static dielectric constant tensor:
#      x y z
#    x 2.084230 0.000000 0.000000 
#    y 0.000000 1.915760 0.000000 
#    z 0.000000 0.000000 1.942980 
# 
# From -- ./inp_files/7463.got.cif
#   From: 2010.05.17/outbox.cif.g08.bks.cpg/sg53_4_cif.got.tgz:7463.got - 2010.06.03 12:45:16.
