data_PCOD9415219
_publ_section_title
;
Structure prediction by ZEFSAII (Michael W. Deem and Ramdas Pophale) SiO2 
 PCOD9415219
Probable space group: P M N A
;
_chemical_formula_sum "Si O2"
_cell_formula_units_Z 64
_cell_length_a 9.266819
_cell_length_b 20.443960
_cell_length_c 20.495943
_cell_angle_alpha 90.000000
_cell_angle_beta 90.000000
_cell_angle_gamma 90.000000
_cell_volume 3882.966177
_symmetry_space_group_name_H-M "P M N A"
_symmetry_group_IT_number 53
_symmetry_cell_setting 'orthorhombic'
loop_
_space_group_symop_operation_xyz
x,y,z
1/2-x,-y,1/2+z
x,-y,-z
1/2-x,y,1/2-z
-x,-y,-z
1/2+x,y,1/2-z
-x,y,z
1/2+x,-y,1/2+z
loop_
_atom_site_type_symbol
_atom_site_label
_atom_site_fract_x
_atom_site_fract_y
_atom_site_fract_z
Si Si1 0.171749 0.946540 0.554846
Si Si2 0.832295 0.181198 0.009339
Si Si3 0.664776 0.158352 0.647275
Si Si4 0.157640 0.721003 0.334787
Si Si5 0.170797 0.027648 0.685236
Si Si6 0.329875 0.567980 0.185187
Si Si7 0.335624 0.308719 0.989112
Si Si8 0.170473 0.438088 0.952272
O O1 0.257957 0.880100 0.543995
O O2 0.000000 0.933941 0.547410
O O3 0.212566 0.000000 0.500000
O O4 0.197862 0.979948 0.624381
O O5 0.000000 0.187682 0.026912
O O6 0.826703 0.166556 0.931291
O O7 0.747195 0.248568 0.022371
O O8 0.500000 0.144436 0.665178
O O9 0.719028 0.226464 0.677817
O O10 0.765821 0.098934 0.668178
O O11 0.176980 0.647279 0.310832
O O12 0.154309 0.712172 0.413128
O O13 0.000000 0.745717 0.313858
O O14 0.250000 0.003983 0.750000
O O15 0.000000 0.032319 0.695100
O O16 0.250000 0.542049 0.250000
O O17 0.500000 0.550564 0.182947
O O18 0.249819 0.550658 0.117330
O O19 0.500000 0.317954 0.012771
O O20 0.245387 0.375661 0.986642
O O21 0.000000 0.424946 0.940783
O O22 0.183783 0.500000 0.000000
#
# Coordination Sequence:
#
# PCOD9415219 Si02
#       8
#     8   8   8   8   8   8   8   8
#     4  10  20  35  54  74  96 128 168 210 257 307
#     4  10  19  30  50  77 103 129 163 213 258 298
#     4  10  19  30  46  69  96 128 165 204 247 293
#     4   8  16  29  44  64  93 130 168 204 242 284
#     4  11  23  37  51  67  94 128 163 208 257 309
#     4  10  20  33  50  72 100 137 177 217 255 301
#     4   9  17  30  49  73 103 135 169 208 250 302
#     4  10  20  34  53  78 109 142 175 215 260 307
#
# _framework density 16.482244000000001
#
# number of rings (size 3 to 8) (size 9 to 14) (size 15 to 20)
#    0.000    2.250    1.250    3.000    0.000    7.250 
#    0.000    1.250    0.000    0.000    0.000    0.875 
#    0.000    2.000    0.000    0.000    0.000    0.000 
#
# Total GULP energy -356999.434801 kJ/mol
# GULP energy per Si atom -5578.116169 kJ/mol
# Density = 1.644473 g / cm^3
# Si number density = 16.482244 Si / 1000 Ang^3
#
#
#
# Elastic Constant Matrix: (Units=GPa)
#
#
# Indices 1 2 3 4 5 6 
#
# 1 136.3007 68.3058 59.7009 0.0000 0.0000 0.0000
# 2 68.3058 82.4337 33.0190 0.0000 0.0000 0.0000
# 3 59.7009 33.0190 60.8685 0.0000 0.0000 0.0000
# 4 0.0000 0.0000 0.0000 10.3504 0.0000 0.0000
# 5 0.0000 0.0000 0.0000 0.0000 19.8212 0.0000
# 6 0.0000 0.0000 0.0000 0.0000 0.0000 27.4631
#
#
#
# Elastic Compliance Matrix: (Units=1/GPa)
#
#
# Indices 1 2 3 4 5 6 
#
# 1 0.017317 -0.009640 -0.011755 0.000000 0.000000 0.000000
# 2 -0.009640 0.020866 -0.001863 0.000000 0.000000 0.000000
# 3 -0.011755 -0.001863 0.028969 0.000000 0.000000 0.000000
# 4 0.000000 0.000000 0.000000 0.096615 0.000000 0.000000
# 5 0.000000 0.000000 0.000000 0.000000 0.050451 0.000000
# 6 0.000000 0.000000 0.000000 0.000000 0.000000 0.036412
#
#
# Mechanical properties :
#
#
# Convention : Reuss Voigt Hill
#
# Bulk Modulus (GPa) = 48.46377 66.85048 57.65713
# Shear Modulus (GPa) = 16.44605 19.43210 17.93908
#
# Velocity S-wave (km/s) = 3.16223 3.43734 3.30265
# Velocity P-wave (km/s) = 6.54220 7.51005 7.04277
#
# Compressibility (1/GPa) = 0.02063397
#
# Stress axis : x y z
#
# Youngs Moduli (GPa) = 57.74781 47.92598 34.51964
#
# Poissons Ratio (x) = 0.46203 0.40578
# Poissons Ratio (y) = 0.55671 0.06432
# Poissons Ratio (z) = 0.67882 0.08930
#
# Static dielectric constant tensor:
#      x y z
#    x 1.569720 0.000000 0.000000 
#    y 0.000000 1.527190 0.000000 
#    z 0.000000 0.000000 1.563840 
# 
# From -- ./inp_files/31393.got.cif
#   From: 2010.05.17/outbox.cif.g08.bks.cpg/sg53_16_cif.got.tgz:31393.got - 2010.06.03 12:45:16.
