data_PCOD9415330
_publ_section_title
;
Structure prediction by ZEFSAII (Michael W. Deem and Ramdas Pophale) SiO2 
 PCOD9415330
Probable space group: P M N A
;
_chemical_formula_sum "Si O2"
_cell_formula_units_Z 56
_cell_length_a 7.713169
_cell_length_b 20.005801
_cell_length_c 18.661575
_cell_angle_alpha 90.000000
_cell_angle_beta 90.000000
_cell_angle_gamma 90.000000
_cell_volume 2879.632631
_symmetry_space_group_name_H-M "P M N A"
_symmetry_group_IT_number 53
_symmetry_cell_setting 'orthorhombic'
loop_
_space_group_symop_operation_xyz
x,y,z
1/2-x,-y,1/2+z
x,-y,-z
1/2-x,y,1/2-z
-x,-y,-z
1/2+x,y,1/2-z
-x,y,z
1/2+x,-y,1/2+z
loop_
_atom_site_type_symbol
_atom_site_label
_atom_site_fract_x
_atom_site_fract_y
_atom_site_fract_z
Si Si1 0.707334 0.776921 0.103608
Si Si2 0.788953 0.079023 0.579193
Si Si3 0.291687 0.799923 0.832418
Si Si4 0.704979 0.358988 0.670726
Si Si5 0.293588 0.429736 0.528191
Si Si6 0.788776 0.068119 0.411149
Si Si7 0.709909 0.705513 0.957870
O O1 0.500000 0.782004 0.098107
O O2 0.772829 0.852249 0.115254
O O3 0.744105 0.718499 0.159741
O O4 0.770196 0.748453 0.026873
O O5 0.744882 0.081793 0.494448
O O6 0.000000 0.077595 0.582920
O O7 0.728630 0.006915 0.607454
O O8 0.250000 0.789057 0.750000
O O9 0.500000 0.801461 0.839253
O O10 0.226681 0.871660 0.861427
O O11 0.229527 0.741772 0.885881
O O12 0.750000 0.382738 0.750000
O O13 0.500000 0.361042 0.663792
O O14 0.778802 0.401887 0.604065
O O15 0.221823 0.500000 0.500000
O O16 0.500000 0.438728 0.537972
O O17 0.266863 0.370097 0.471570
O O18 0.000000 0.067798 0.408458
O O19 0.500000 0.706000 0.958680
#
# Coordination Sequence:
#
# PCOD9415330 Si02
#       7
#     8   8   8   8   8   8   8
#     4   9  15  27  49  74  97 123 160 205 246 285
#     4   8  12  21  43  70  91 118 159 208 251 288
#     4  10  19  31  46  67  97 132 169 209 249 291
#     4  10  20  34  52  75 102 132 161 193 238 291
#     4   9  19  36  57  79 102 128 158 194 239 290
#     4   8  13  23  41  66  93 121 162 208 248 290
#     4   9  17  30  49  73  98 124 161 204 239 282
#
# _framework density 19.446923999999999
#
# number of rings (size 3 to 8) (size 9 to 14) (size 15 to 20)
#    0.000    3.000    1.429    1.286    0.000    1.429 
#    0.000    1.429    0.000    6.000    0.000    2.000 
#    0.000    0.000    0.000    0.000    0.000    0.000 
#
# Total GULP energy -312073.635134 kJ/mol
# GULP energy per Si atom -5572.743485 kJ/mol
# Density = 1.940266 g / cm^3
# Si number density = 19.446924 Si / 1000 Ang^3
#
#
#
# Elastic Constant Matrix: (Units=GPa)
#
#
# Indices 1 2 3 4 5 6 
#
# 1 22.4898 7.8354 -3.7484 0.0000 0.0000 0.0000
# 2 7.8354 175.3205 71.2044 0.0000 0.0000 0.0000
# 3 -3.7484 71.2044 104.0319 0.0000 0.0000 0.0000
# 4 0.0000 0.0000 0.0000 19.4873 0.0000 0.0000
# 5 0.0000 0.0000 0.0000 0.0000 2.0191 0.0000
# 6 0.0000 0.0000 0.0000 0.0000 0.0000 12.8328
#
#
#
# Elastic Compliance Matrix: (Units=1/GPa)
#
#
# Indices 1 2 3 4 5 6 
#
# 1 0.046511 -0.003822 0.004292 0.000000 0.000000 0.000000
# 2 -0.003822 0.008214 -0.005760 0.000000 0.000000 0.000000
# 3 0.004292 -0.005760 0.013709 0.000000 0.000000 0.000000
# 4 0.000000 0.000000 0.000000 0.051316 0.000000 0.000000
# 5 0.000000 0.000000 0.000000 0.000000 0.495263 0.000000
# 6 0.000000 0.000000 0.000000 0.000000 0.000000 0.077925
#
#
# Mechanical properties :
#
#
# Convention : Reuss Voigt Hill
#
# Bulk Modulus (GPa) = 17.28455 50.26942 33.77699
# Shear Modulus (GPa) = 6.91752 21.97123 14.44437
#
# Velocity S-wave (km/s) = 1.88808 3.36490 2.72832
# Velocity P-wave (km/s) = 3.69601 6.40331 5.22795
#
# Compressibility (1/GPa) = 0.05785513
#
# Stress axis : x y z
#
# Youngs Moduli (GPa) = 21.50009 121.74553 72.94344
#
# Poissons Ratio (x) = 0.46527 -0.31305
# Poissons Ratio (y) = 0.08217 0.42013
# Poissons Ratio (z) = -0.09227 0.70121
#
# Static dielectric constant tensor:
#      x y z
#    x 1.729460 0.000000 0.000000 
#    y 0.000000 1.708060 0.000000 
#    z 0.000000 0.000000 1.652900 
# 
# From -- ./inp_files/26681.got.cif
#   From: 2010.05.17/outbox.cif.g08.bks.cpg/sg53_14_cif.got.tgz:26681.got - 2010.06.03 12:45:16.
