data_PCOD9415017
_publ_section_title
;
Structure prediction by ZEFSAII (Michael W. Deem and Ramdas Pophale) SiO2 
 PCOD9415017
Probable space group: P M N A
;
_chemical_formula_sum "Si O2"
_cell_formula_units_Z 64
_cell_length_a 7.481065
_cell_length_b 12.349207
_cell_length_c 31.790903
_cell_angle_alpha 90.000000
_cell_angle_beta 90.000000
_cell_angle_gamma 90.000000
_cell_volume 2937.009576
_symmetry_space_group_name_H-M "P M N A"
_symmetry_group_IT_number 53
_symmetry_cell_setting 'orthorhombic'
loop_
_space_group_symop_operation_xyz
x,y,z
1/2-x,-y,1/2+z
x,-y,-z
1/2-x,y,1/2-z
-x,-y,-z
1/2+x,y,1/2-z
-x,y,z
1/2+x,-y,1/2+z
loop_
_atom_site_type_symbol
_atom_site_label
_atom_site_fract_x
_atom_site_fract_y
_atom_site_fract_z
Si Si1 0.285997 0.987877 0.796431
Si Si2 0.213407 0.484694 0.296372
Si Si3 0.280712 0.621234 0.123129
Si Si4 0.794572 0.005843 0.046805
Si Si5 0.717577 0.248231 0.180963
Si Si6 0.281646 0.468472 0.046556
Si Si7 0.708159 0.133810 0.872793
Si Si8 0.783845 0.761131 0.582721
O O1 0.250000 0.032507 0.750000
O O2 0.500000 0.980871 0.801784
O O3 0.217272 0.864207 0.799274
O O4 0.215511 0.060561 0.834912
O O5 0.250000 0.528742 0.250000
O O6 0.277869 0.558214 0.334835
O O7 0.282880 0.361209 0.299788
O O8 0.000000 0.478600 0.301476
O O9 0.500000 0.621081 0.122551
O O10 0.225019 0.553670 0.082135
O O11 0.217873 0.745203 0.123017
O O12 0.715555 0.931177 0.083464
O O13 0.000000 0.970423 0.043305
O O14 0.785340 0.129156 0.062364
O O15 0.713989 0.000000 0.000000
O O16 0.500000 0.248927 0.183761
O O17 0.764637 0.246030 0.131707
O O18 0.500000 0.468322 0.046675
O O19 0.225574 0.347874 0.059503
O O20 0.222939 0.500000 0.000000
O O21 0.500000 0.148790 0.862051
O O22 0.000000 0.766413 0.580994
#
# Coordination Sequence:
#
# PCOD9415017 Si02
#       8
#     8   8   8   8   8   8   8   8
#     4  10  20  34  52  78 108 140 183 228 273 323
#     4  10  19  33  53  78 111 147 181 222 274 324
#     4   9  18  33  53  80 113 143 175 227 279 316
#     4  11  25  41  56  80 116 150 182 227 285 339
#     4   9  16  31  53  78 110 141 175 226 276 316
#     4   9  17  29  52  89 117 133 170 227 278 319
#     4  10  21  38  60  83 108 144 194 237 270 324
#     4  10  18  34  61  86 110 143 183 229 276 325
#
# _framework density 21.790870999999999
#
# number of rings (size 3 to 8) (size 9 to 14) (size 15 to 20)
#    0.000    2.250    2.500    0.750    1.750    2.000 
#    0.000    1.250    0.000    1.125    0.000    0.000 
#    0.000    0.000    0.000    0.000    0.000    0.000 
#
# Total GULP energy -357554.069323 kJ/mol
# GULP energy per Si atom -5586.782333 kJ/mol
# Density = 2.174127 g / cm^3
# Si number density = 21.790871 Si / 1000 Ang^3
#
#
#
# Elastic Constant Matrix: (Units=GPa)
#
#
# Indices 1 2 3 4 5 6 
#
# 1 57.5179 -0.1015 -7.0232 0.0000 0.0000 0.0000
# 2 -0.1015 172.2397 89.8835 0.0000 0.0000 0.0000
# 3 -7.0232 89.8835 190.8669 0.0000 0.0000 0.0000
# 4 0.0000 0.0000 0.0000 57.4175 0.0000 0.0000
# 5 0.0000 0.0000 0.0000 0.0000 11.6864 0.0000
# 6 0.0000 0.0000 0.0000 0.0000 0.0000 -18.4413
#
#
#
# Elastic Compliance Matrix: (Units=1/GPa)
#
#
# Indices 1 2 3 4 5 6 
#
# 1 0.017489 -0.000432 0.000847 0.000000 0.000000 0.000000
# 2 -0.000432 0.007708 -0.003646 0.000000 0.000000 0.000000
# 3 0.000847 -0.003646 0.006987 0.000000 0.000000 0.000000
# 4 0.000000 0.000000 0.000000 0.017416 0.000000 0.000000
# 5 0.000000 0.000000 0.000000 0.000000 0.085570 0.000000
# 6 0.000000 0.000000 0.000000 0.000000 0.000000 -0.054226
#
#
# Mechanical properties :
#
#
# Convention : Reuss Voigt Hill
#
# Bulk Modulus (GPa) = 38.87616 65.12690 52.00153
# Shear Modulus (GPa) = 52.09435 32.65688 42.37562
#
# Velocity S-wave (km/s) = 4.89473 3.87544 4.41460
# Velocity P-wave (km/s) = 7.05860 7.06948 7.06404
#
# Compressibility (1/GPa) = 0.02572270
#
# Stress axis : x y z
#
# Youngs Moduli (GPa) = 57.18038 129.73205 143.11642
#
# Poissons Ratio (x) = 0.05599 -0.12118
# Poissons Ratio (y) = 0.02468 0.52178
# Poissons Ratio (z) = -0.04842 0.47298
#
# Static dielectric constant tensor:
#      x y z
#    x 1.842800 0.000000 0.000000 
#    y 0.000000 1.761840 0.000000 
#    z 0.000000 0.000000 1.760450 
# 
# From -- ./inp_files/38214.got.cif
#   From: 2010.05.17/outbox.cif.g08.bks.cpg/sg53_20_cif.got.tgz:38214.got - 2010.06.03 12:45:16.
