data_PCOD9415013
_publ_section_title
;
Structure prediction by ZEFSAII (Michael W. Deem and Ramdas Pophale) SiO2 
 PCOD9415013
Probable space group: P M N A
;
_chemical_formula_sum "Si O2"
_cell_formula_units_Z 64
_cell_length_a 19.655669
_cell_length_b 10.486922
_cell_length_c 14.810024
_cell_angle_alpha 90.000000
_cell_angle_beta 90.000000
_cell_angle_gamma 90.000000
_cell_volume 3052.752743
_symmetry_space_group_name_H-M "P M N A"
_symmetry_group_IT_number 53
_symmetry_cell_setting 'orthorhombic'
loop_
_space_group_symop_operation_xyz
x,y,z
1/2-x,-y,1/2+z
x,-y,-z
1/2-x,y,1/2-z
-x,-y,-z
1/2+x,y,1/2-z
-x,y,z
1/2+x,-y,1/2+z
loop_
_atom_site_type_symbol
_atom_site_label
_atom_site_fract_x
_atom_site_fract_y
_atom_site_fract_z
Si Si1 0.796700 0.923195 0.331316
Si Si2 0.420652 0.621311 0.600038
Si Si3 0.576197 0.409867 0.886416
Si Si4 0.212975 0.692883 0.463139
Si Si5 0.921529 0.180894 0.758847
Si Si6 0.358993 0.343558 0.585974
Si Si7 0.575837 0.306162 0.195988
Si Si8 0.717394 0.212013 0.155191
O O1 0.750000 0.868669 0.250000
O O2 0.795759 0.831884 0.417586
O O3 0.872666 0.921390 0.289369
O O4 0.767538 0.062184 0.353547
O O5 0.500000 0.617929 0.576044
O O6 0.394931 0.476429 0.610616
O O7 0.381131 0.683203 0.516940
O O8 0.414408 0.687920 0.696222
O O9 0.500000 0.397826 0.928220
O O10 0.641489 0.378400 0.947886
O O11 0.578795 0.304134 0.807387
O O12 0.581763 0.549856 0.842892
O O13 0.277946 0.635165 0.411435
O O14 0.234388 0.706968 0.567040
O O15 0.886344 0.232214 0.849927
O O16 0.000000 0.142051 0.772263
O O17 0.500000 0.260499 0.175164
O O18 0.636063 0.223004 0.158143
O O19 0.750000 0.257176 0.250000
#
# Coordination Sequence:
#
# PCOD9415013 Si02
#       8
#     8   8   8   8   8   8   8   8
#     4  10  21  41  62  86 113 153 200 255 306 348
#     4  10  20  34  54  88 131 165 192 236 302 376
#     4   9  20  37  59  86 118 153 194 244 299 357
#     4  11  23  38  62  89 117 154 200 255 309 360
#     4  10  18  34  60  90 120 151 194 247 301 354
#     4  11  19  31  56  92 124 158 197 238 299 365
#     4  10  21  39  59  81 119 163 199 242 298 360
#     4  11  25  42  59  82 116 159 206 249 303 367
#
# _framework density 20.964686
#
# number of rings (size 3 to 8) (size 9 to 14) (size 15 to 20)
#    0.000    1.750    2.500    2.625    0.000    4.500 
#    0.000    1.250    0.000    3.750    0.000    4.375 
#    0.000    0.000    0.000    0.000    0.000    0.000 
#
# Total GULP energy -357408.641048 kJ/mol
# GULP energy per Si atom -5584.510016 kJ/mol
# Density = 2.091697 g / cm^3
# Si number density = 20.964686 Si / 1000 Ang^3
#
#
#
# Elastic Constant Matrix: (Units=GPa)
#
#
# Indices 1 2 3 4 5 6 
#
# 1 127.1610 0.0946 23.4286 0.0000 0.0000 0.0000
# 2 0.0946 10.9802 0.0562 0.0000 0.0000 0.0000
# 3 23.4286 0.0562 69.6815 0.0000 0.0000 0.0000
# 4 0.0000 0.0000 0.0000 20.3443 0.0000 0.0000
# 5 0.0000 0.0000 0.0000 0.0000 29.1823 0.0000
# 6 0.0000 0.0000 0.0000 0.0000 0.0000 21.1385
#
#
#
# Elastic Compliance Matrix: (Units=1/GPa)
#
#
# Indices 1 2 3 4 5 6 
#
# 1 0.008383 -0.000058 -0.002819 0.000000 0.000000 0.000000
# 2 -0.000058 0.091074 -0.000054 0.000000 0.000000 0.000000
# 3 -0.002819 -0.000054 0.015299 0.000000 0.000000 0.000000
# 4 0.000000 0.000000 0.000000 0.049154 0.000000 0.000000
# 5 0.000000 0.000000 0.000000 0.000000 0.034267 0.000000
# 6 0.000000 0.000000 0.000000 0.000000 0.000000 0.047307
#
#
# Mechanical properties :
#
#
# Convention : Reuss Voigt Hill
#
# Bulk Modulus (GPa) = 9.18314 28.33128 18.75721
# Shear Modulus (GPa) = 17.38259 26.41589 21.89924
#
# Velocity S-wave (km/s) = 2.88260 3.55352 3.23550
# Velocity P-wave (km/s) = 3.93306 5.51179 4.78794
#
# Compressibility (1/GPa) = 0.10889526
#
# Stress axis : x y z
#
# Youngs Moduli (GPa) = 119.28317 10.98007 65.36475
#
# Poissons Ratio (x) = 0.00063 0.18424
# Poissons Ratio (y) = 0.00690 0.00353
# Poissons Ratio (z) = 0.33622 0.00059
#
# Static dielectric constant tensor:
#      x y z
#    x 1.766050 0.000000 0.000000 
#    y 0.000000 1.715580 0.000000 
#    z 0.000000 0.000000 1.786290 
# 
# From -- ./inp_files/23902.got.cif
#   From: 2010.05.17/outbox.cif.g08.bks.cpg/sg53_12_cif.got.tgz:23902.got - 2010.06.03 12:45:16.
