data_PCOD9415148
_publ_section_title
;
Structure prediction by ZEFSAII (Michael W. Deem and Ramdas Pophale) SiO2 
 PCOD9415148
Probable space group: P M N A
;
_chemical_formula_sum "Si O2"
_cell_formula_units_Z 48
_cell_length_a 21.828434
_cell_length_b 11.784086
_cell_length_c 9.221523
_cell_angle_alpha 90.000000
_cell_angle_beta 90.000000
_cell_angle_gamma 90.000000
_cell_volume 2372.035242
_symmetry_space_group_name_H-M "P M N A"
_symmetry_group_IT_number 53
_symmetry_cell_setting 'orthorhombic'
loop_
_space_group_symop_operation_xyz
x,y,z
1/2-x,-y,1/2+z
x,-y,-z
1/2-x,y,1/2-z
-x,-y,-z
1/2+x,y,1/2-z
-x,y,z
1/2+x,-y,1/2+z
loop_
_atom_site_type_symbol
_atom_site_label
_atom_site_fract_x
_atom_site_fract_y
_atom_site_fract_z
Si Si1 0.567465 0.354927 0.432639
Si Si2 0.631378 0.440844 0.153189
Si Si3 0.387018 0.105613 0.421459
Si Si4 0.263627 0.841818 0.405436
Si Si5 0.186163 0.812224 0.662497
Si Si6 0.808987 0.411460 0.889424
O O1 0.500000 0.381401 0.488282
O O2 0.579586 0.414487 0.276442
O O3 0.573457 0.219433 0.420576
O O4 0.624457 0.385424 0.536777
O O5 0.659616 0.314397 0.136987
O O6 0.677460 0.526184 0.238388
O O7 0.614499 0.500000 0.000000
O O8 0.326956 0.119876 0.523774
O O9 0.358332 0.109451 0.259193
O O10 0.419150 0.000000 0.500000
O O11 0.250000 0.893572 0.250000
O O12 0.207196 0.862961 0.510978
O O13 0.273680 0.706338 0.389527
O O14 0.250000 0.796291 0.750000
O O15 0.778568 0.500000 0.000000
#
# Coordination Sequence:
#
# PCOD9415148 Si02
#       6
#     8   8   8   8   8   8
#     4   9  19  35  51  68  92 122 161 209 254 297
#     4  10  19  29  46  73 102 132 163 195 237 292
#     4   9  19  35  51  69  92 120 162 209 252 297
#     4  10  19  29  46  73 101 130 161 192 235 291
#     4   9  18  31  46  69 102 134 163 199 238 283
#     4   9  18  30  45  69  99 132 166 194 229 284
#
# _framework density 20.235786000000001
#
# number of rings (size 3 to 8) (size 9 to 14) (size 15 to 20)
#    0.000    2.667    0.000    4.000    0.000    9.667 
#    0.000    0.000    0.000    0.000    0.000    0.000 
#    0.000   10.667    0.000    0.000    0.000    1.000 
#
# Total GULP energy -267625.262130 kJ/mol
# GULP energy per Si atom -5575.526294 kJ/mol
# Density = 2.018973 g / cm^3
# Si number density = 20.235786 Si / 1000 Ang^3
#
#
#
# Elastic Constant Matrix: (Units=GPa)
#
#
# Indices 1 2 3 4 5 6 
#
# 1 54.4104 7.9565 25.1478 0.0000 0.0000 0.0000
# 2 7.9565 117.9737 31.8457 0.0000 0.0000 0.0000
# 3 25.1478 31.8457 137.0052 0.0000 0.0000 0.0000
# 4 0.0000 0.0000 0.0000 23.4260 0.0000 0.0000
# 5 0.0000 0.0000 0.0000 0.0000 13.0385 0.0000
# 6 0.0000 0.0000 0.0000 0.0000 0.0000 -4.2491
#
#
#
# Elastic Compliance Matrix: (Units=1/GPa)
#
#
# Indices 1 2 3 4 5 6 
#
# 1 0.020099 -0.000384 -0.003600 0.000000 0.000000 0.000000
# 2 -0.000384 0.009051 -0.002033 0.000000 0.000000 0.000000
# 3 -0.003600 -0.002033 0.008432 0.000000 0.000000 0.000000
# 4 0.000000 0.000000 0.000000 0.042688 0.000000 0.000000
# 5 0.000000 0.000000 0.000000 0.000000 0.076696 0.000000
# 6 0.000000 0.000000 0.000000 0.000000 0.000000 -0.235342
#
#
# Mechanical properties :
#
#
# Convention : Reuss Voigt Hill
#
# Bulk Modulus (GPa) = 39.14181 48.80993 43.97587
# Shear Modulus (GPa) = -86.46756 22.73902 -31.86427
#
# Velocity S-wave (km/s) = -6.54391 3.35581 -3.97249
# Velocity P-wave (km/s) = 6.14103 6.26005 0.85907
#
# Compressibility (1/GPa) = 0.02554813
#
# Stress axis : x y z
#
# Youngs Moduli (GPa) = 49.75408 110.48191 118.58954
#
# Poissons Ratio (x) = 0.04240 0.42692
# Poissons Ratio (y) = 0.01909 0.24115
# Poissons Ratio (z) = 0.17912 0.22466
#
# Static dielectric constant tensor:
#      x y z
#    x 1.713410 0.000000 0.000000 
#    y 0.000000 1.800230 0.000000 
#    z 0.000000 0.000000 1.760400 
# 
# From -- ./inp_files/11740.got.cif
#   From: 2010.05.17/outbox.cif.g08.bks.cpg/sg53_6_cif.got.tgz:11740.got - 2010.06.03 12:45:16.
