data_PCOD9415641
_publ_section_title
;
Structure prediction by ZEFSAII (Michael W. Deem and Ramdas Pophale) SiO2 
 PCOD9415641
Probable space group: P M N A
;
_chemical_formula_sum "Si O2"
_cell_formula_units_Z 48
_cell_length_a 9.092548
_cell_length_b 18.820390
_cell_length_c 16.467272
_cell_angle_alpha 90.000000
_cell_angle_beta 90.000000
_cell_angle_gamma 90.000000
_cell_volume 2817.966852
_symmetry_space_group_name_H-M "P M N A"
_symmetry_group_IT_number 53
_symmetry_cell_setting 'orthorhombic'
loop_
_space_group_symop_operation_xyz
x,y,z
1/2-x,-y,1/2+z
x,-y,-z
1/2-x,y,1/2-z
-x,-y,-z
1/2+x,y,1/2-z
-x,y,z
1/2+x,-y,1/2+z
loop_
_atom_site_type_symbol
_atom_site_label
_atom_site_fract_x
_atom_site_fract_y
_atom_site_fract_z
Si Si1 0.831699 0.457461 0.585833
Si Si2 0.174912 0.085823 0.665360
Si Si3 0.675145 0.584947 0.667331
Si Si4 0.667771 0.959579 0.587206
Si Si5 0.676857 0.831727 0.482945
Si Si6 0.324501 0.666128 0.500820
O O1 0.831829 0.500000 0.500000
O O2 0.738436 0.507124 0.645370
O O3 0.759513 0.382121 0.564666
O O4 0.000000 0.450756 0.613389
O O5 0.250000 0.106003 0.750000
O O6 0.238269 0.135133 0.593378
O O7 0.000000 0.090510 0.669699
O O8 0.226191 0.005561 0.643140
O O9 0.750000 0.610102 0.750000
O O10 0.500000 0.581954 0.676221
O O11 0.710208 0.635240 0.590320
O O12 0.500000 0.961290 0.618926
O O13 0.711012 0.879828 0.562221
O O14 0.665946 0.000000 0.500000
O O15 0.500000 0.839671 0.469847
O O16 0.710517 0.749135 0.494403
O O17 0.500000 0.656992 0.489199
#
# Coordination Sequence:
#
# PCOD9415641 Si02
#       6
#     8   8   8   8   8   8
#     4   9  17  30  49  72  97 126 162 202 241 286
#     4  11  21  33  51  74 100 130 167 210 252 294
#     4  10  19  32  51  74 100 131 167 207 250 294
#     4   8  15  30  51  72  96 127 161 197 239 289
#     4   9  18  34  54  75 102 134 165 200 247 301
#     4   9  18  33  53  75 101 134 167 200 245 301
#
# _framework density 17.033557999999999
#
# number of rings (size 3 to 8) (size 9 to 14) (size 15 to 20)
#    0.000    2.667    0.000    3.500    0.000    6.333 
#    0.000    1.667    0.000    6.000    0.000    0.000 
#    0.000    0.000    0.000    0.000    0.000    0.000 
#
# Total GULP energy -267544.661171 kJ/mol
# GULP energy per Si atom -5573.847108 kJ/mol
# Density = 1.699479 g / cm^3
# Si number density = 17.033558 Si / 1000 Ang^3
#
#
#
# Elastic Constant Matrix: (Units=GPa)
#
#
# Indices 1 2 3 4 5 6 
#
# 1 88.0498 54.1250 50.3220 0.0000 0.0000 0.0000
# 2 54.1250 130.7006 31.5906 0.0000 0.0000 0.0000
# 3 50.3220 31.5906 65.1970 0.0000 0.0000 0.0000
# 4 0.0000 0.0000 0.0000 14.2045 0.0000 0.0000
# 5 0.0000 0.0000 0.0000 0.0000 27.2006 0.0000
# 6 0.0000 0.0000 0.0000 0.0000 0.0000 13.4244
#
#
#
# Elastic Compliance Matrix: (Units=1/GPa)
#
#
# Indices 1 2 3 4 5 6 
#
# 1 0.024071 -0.006204 -0.015573 0.000000 0.000000 0.000000
# 2 -0.006204 0.010265 -0.000185 0.000000 0.000000 0.000000
# 3 -0.015573 -0.000185 0.027448 0.000000 0.000000 0.000000
# 4 0.000000 0.000000 0.000000 0.070400 0.000000 0.000000
# 5 0.000000 0.000000 0.000000 0.000000 0.036764 0.000000
# 6 0.000000 0.000000 0.000000 0.000000 0.000000 0.074491
#
#
# Mechanical properties :
#
#
# Convention : Reuss Voigt Hill
#
# Bulk Modulus (GPa) = 55.99331 61.78028 58.88679
# Shear Modulus (GPa) = 17.04634 20.82654 18.93644
#
# Velocity S-wave (km/s) = 3.16690 3.50047 3.33785
# Velocity P-wave (km/s) = 6.80559 7.25853 7.03570
#
# Compressibility (1/GPa) = 0.01785928
#
# Stress axis : x y z
#
# Youngs Moduli (GPa) = 41.54316 97.41764 36.43264
#
# Poissons Ratio (x) = 0.60440 0.56737
# Poissons Ratio (y) = 0.25774 0.00675
# Poissons Ratio (z) = 0.64696 0.01804
#
# Static dielectric constant tensor:
#      x y z
#    x 1.569680 0.000000 0.000000 
#    y 0.000000 1.584180 0.000000 
#    z 0.000000 0.000000 1.575140 
# 
# From -- ./inp_files/26412.got.cif
#   From: 2010.05.17/outbox.cif.g08.bks.cpg/sg53_14_cif.got.tgz:26412.got - 2010.06.03 12:45:16.
