data_PCOD9415455
_publ_section_title
;
Structure prediction by ZEFSAII (Michael W. Deem and Ramdas Pophale) SiO2 
 PCOD9415455
Probable space group: P M N A
;
_chemical_formula_sum "Si O2"
_cell_formula_units_Z 56
_cell_length_a 8.690846
_cell_length_b 20.581903
_cell_length_c 16.226771
_cell_angle_alpha 90.000000
_cell_angle_beta 90.000000
_cell_angle_gamma 90.000000
_cell_volume 2902.549859
_symmetry_space_group_name_H-M "P M N A"
_symmetry_group_IT_number 53
_symmetry_cell_setting 'orthorhombic'
loop_
_space_group_symop_operation_xyz
x,y,z
1/2-x,-y,1/2+z
x,-y,-z
1/2-x,y,1/2-z
-x,-y,-z
1/2+x,y,1/2-z
-x,y,z
1/2+x,-y,1/2+z
loop_
_atom_site_type_symbol
_atom_site_label
_atom_site_fract_x
_atom_site_fract_y
_atom_site_fract_z
Si Si1 0.323175 0.928564 0.008365
Si Si2 0.818423 0.794078 0.063036
Si Si3 0.822247 0.624140 0.665867
Si Si4 0.312554 0.424276 0.990718
Si Si5 0.685259 0.672014 0.157984
Si Si6 0.175097 0.879878 0.677361
Si Si7 0.175741 0.248435 0.126075
O O1 0.500000 0.935575 0.039250
O O2 0.246447 0.867872 0.056416
O O3 0.328828 0.908972 0.912963
O O4 0.248580 0.000000 0.000000
O O5 0.738439 0.742931 0.124610
O O6 0.000000 0.796689 0.080731
O O7 0.798680 0.763248 0.971377
O O8 0.750000 0.597981 0.750000
O O9 0.754165 0.604275 0.577483
O O10 0.796168 0.701049 0.662542
O O11 0.000000 0.606368 0.666418
O O12 0.500000 0.420016 0.989687
O O13 0.263215 0.382491 0.910444
O O14 0.272510 0.500000 0.000000
O O15 0.750000 0.660194 0.250000
O O16 0.500000 0.670522 0.161188
O O17 0.250000 0.922252 0.750000
O O18 0.290767 0.819840 0.667696
O O19 0.000000 0.861565 0.695955
O O20 0.000000 0.270405 0.139552
#
# Coordination Sequence:
#
# PCOD9415455 Si02
#       7
#     8   8   8   8   8   8   8
#     4   9  19  36  57  80 110 152 196 238 292 357
#     4  10  20  35  58  86 116 150 193 245 297 349
#     4  11  21  34  54  81 113 148 185 226 281 341
#     4   9  20  39  61  84 115 156 198 243 300 364
#     4  11  22  39  64  91 120 158 206 257 308 364
#     4  10  19  31  49  74 105 138 177 220 271 331
#     4  10  19  32  52  78 110 142 178 223 272 329
#
# _framework density 19.293381
#
# number of rings (size 3 to 8) (size 9 to 14) (size 15 to 20)
#    0.000    2.000    1.429    2.571    0.000    2.571 
#    0.000    0.714    0.000    7.714    0.000    0.000 
#    0.000    0.000    0.000    0.000    0.000    0.000 
#
# Total GULP energy -311844.195957 kJ/mol
# GULP energy per Si atom -5568.646356 kJ/mol
# Density = 1.924947 g / cm^3
# Si number density = 19.293381 Si / 1000 Ang^3
#
#
#
# Elastic Constant Matrix: (Units=GPa)
#
#
# Indices 1 2 3 4 5 6 
#
# 1 49.4601 16.8863 42.9435 0.0000 0.0000 0.0000
# 2 16.8863 107.4121 51.9040 0.0000 0.0000 0.0000
# 3 42.9435 51.9040 130.9967 0.0000 0.0000 0.0000
# 4 0.0000 0.0000 0.0000 1.8567 0.0000 0.0000
# 5 0.0000 0.0000 0.0000 0.0000 26.8759 0.0000
# 6 0.0000 0.0000 0.0000 0.0000 0.0000 7.0432
#
#
#
# Elastic Compliance Matrix: (Units=1/GPa)
#
#
# Indices 1 2 3 4 5 6 
#
# 1 0.028263 0.000042 -0.009282 0.000000 0.000000 0.000000
# 2 0.000042 0.011515 -0.004576 0.000000 0.000000 0.000000
# 3 -0.009282 -0.004576 0.012490 0.000000 0.000000 0.000000
# 4 0.000000 0.000000 0.000000 0.538592 0.000000 0.000000
# 5 0.000000 0.000000 0.000000 0.000000 0.037208 0.000000
# 6 0.000000 0.000000 0.000000 0.000000 0.000000 0.141981
#
#
# Mechanical properties :
#
#
# Convention : Reuss Voigt Hill
#
# Bulk Modulus (GPa) = 40.59218 56.81519 48.70368
# Shear Modulus (GPa) = 6.20431 18.89749 12.55090
#
# Velocity S-wave (km/s) = 1.79520 3.13306 2.55331
# Velocity P-wave (km/s) = 5.03807 6.52687 5.83019
#
# Compressibility (1/GPa) = 0.02463529
#
# Stress axis : x y z
#
# Youngs Moduli (GPa) = 35.38214 86.84603 80.06585
#
# Poissons Ratio (x) = -0.00364 0.74315
# Poissons Ratio (y) = -0.00148 0.36639
# Poissons Ratio (z) = 0.32841 0.39742
#
# Static dielectric constant tensor:
#      x y z
#    x 1.686010 0.000000 0.000000 
#    y 0.000000 1.715340 0.000000 
#    z 0.000000 0.000000 1.770780 
# 
# From -- ./inp_files/20480.got.cif
#   From: 2010.05.17/outbox.cif.g08.bks.cpg/sg53_11_cif.got.tgz:20480.got - 2010.06.03 12:45:16.
