data_PCOD9415812
_publ_section_title
;
Structure prediction by ZEFSAII (Michael W. Deem and Ramdas Pophale) SiO2 
 PCOD9415812
Probable space group: P M N A
;
_chemical_formula_sum "Si O2"
_cell_formula_units_Z 40
_cell_length_a 24.626218
_cell_length_b 5.061879
_cell_length_c 16.527515
_cell_angle_alpha 90.000000
_cell_angle_beta 90.000000
_cell_angle_gamma 90.000000
_cell_volume 2060.236320
_symmetry_space_group_name_H-M "P M N A"
_symmetry_group_IT_number 53
_symmetry_cell_setting 'orthorhombic'
loop_
_space_group_symop_operation_xyz
x,y,z
1/2-x,-y,1/2+z
x,-y,-z
1/2-x,y,1/2-z
-x,-y,-z
1/2+x,y,1/2-z
-x,y,z
1/2+x,-y,1/2+z
loop_
_atom_site_type_symbol
_atom_site_label
_atom_site_fract_x
_atom_site_fract_y
_atom_site_fract_z
Si Si1 0.201647 0.263166 0.944874
Si Si2 0.321346 0.389503 0.880436
Si Si3 0.631725 0.617870 0.290783
Si Si4 0.393319 0.882616 0.918034
Si Si5 0.062329 0.125921 0.245582
O O1 0.261132 0.350702 0.913346
O O2 0.163426 0.261282 0.866564
O O3 0.180373 0.500000 0.000000
O O4 0.204532 0.000000 0.000000
O O5 0.326597 0.431489 0.783743
O O6 0.354464 0.627093 0.922548
O O7 0.352831 0.118230 0.894890
O O8 0.599935 0.341152 0.299475
O O9 0.586898 0.835526 0.266922
O O10 0.432314 0.824346 0.842506
O O11 0.419586 0.000000 0.000000
O O12 0.000000 0.144112 0.220680
#
# Coordination Sequence:
#
# PCOD9415812 Si02
#       5
#     8   8   8   8   8
#     4  12  23  36  58  85 115 145 181 229 280 332
#     4  10  20  35  55  81 116 155 181 208 268 341
#     4  10  22  39  58  82 112 145 187 231 273 337
#     4  10  19  32  53  84 119 147 181 223 265 325
#     4  10  21  38  60  80 105 149 193 234 282 327
#
# _framework density 19.415247999999998
#
# number of rings (size 3 to 8) (size 9 to 14) (size 15 to 20)
#    0.000    1.600    0.000    6.000    0.000    0.400 
#    0.000    8.000    0.000   19.200    0.000    0.000 
#    0.000    0.000    0.000    0.000    0.000    0.000 
#
# Total GULP energy -223156.104567 kJ/mol
# GULP energy per Si atom -5578.902614 kJ/mol
# Density = 1.937106 g / cm^3
# Si number density = 19.415248 Si / 1000 Ang^3
#
#
#
# Elastic Constant Matrix: (Units=GPa)
#
#
# Indices 1 2 3 4 5 6 
#
# 1 58.2667 12.9809 26.3800 0.0000 0.0000 0.0000
# 2 12.9809 114.7284 19.6638 0.0000 0.0000 0.0000
# 3 26.3800 19.6638 82.7431 0.0000 0.0000 0.0000
# 4 0.0000 0.0000 0.0000 31.7633 0.0000 0.0000
# 5 0.0000 0.0000 0.0000 0.0000 15.3122 0.0000
# 6 0.0000 0.0000 0.0000 0.0000 0.0000 15.8537
#
#
#
# Elastic Compliance Matrix: (Units=1/GPa)
#
#
# Indices 1 2 3 4 5 6 
#
# 1 0.020224 -0.001233 -0.006155 0.000000 0.000000 0.000000
# 2 -0.001233 0.009162 -0.001784 0.000000 0.000000 0.000000
# 3 -0.006155 -0.001784 0.014472 0.000000 0.000000 0.000000
# 4 0.000000 0.000000 0.000000 0.031483 0.000000 0.000000
# 5 0.000000 0.000000 0.000000 0.000000 0.065307 0.000000
# 6 0.000000 0.000000 0.000000 0.000000 0.000000 0.063077
#
#
# Mechanical properties :
#
#
# Convention : Reuss Voigt Hill
#
# Bulk Modulus (GPa) = 39.19549 41.53194 40.36371
# Shear Modulus (GPa) = 21.68520 25.70008 23.69264
#
# Velocity S-wave (km/s) = 3.34565 3.64222 3.49708
# Velocity P-wave (km/s) = 5.92928 6.25504 6.09434
#
# Compressibility (1/GPa) = 0.02551314
#
# Stress axis : x y z
#
# Youngs Moduli (GPa) = 49.44695 109.15179 69.10012
#
# Poissons Ratio (x) = 0.13462 0.42528
# Poissons Ratio (y) = 0.06099 0.12328
# Poissons Ratio (z) = 0.30432 0.19473
#
# Static dielectric constant tensor:
#      x y z
#    x 1.631060 0.000000 0.000000 
#    y 0.000000 1.650290 0.000000 
#    z 0.000000 0.000000 1.787620 
# 
# From -- ./inp_files/24559.got.cif
#   From: 2010.05.17/outbox.cif.g08.bks.cpg/sg53_13_cif.got.tgz:24559.got - 2010.06.03 12:45:16.
