data_PCOD9415046
_publ_section_title
;
Structure prediction by ZEFSAII (Michael W. Deem and Ramdas Pophale) SiO2 
 PCOD9415046
Probable space group: P M N A
;
_chemical_formula_sum "Si O2"
_cell_formula_units_Z 54
_cell_length_a 14.769342
_cell_length_b 11.497514
_cell_length_c 15.017465
_cell_angle_alpha 90.000000
_cell_angle_beta 90.000000
_cell_angle_gamma 90.000000
_cell_volume 2550.126490
_symmetry_space_group_name_H-M "P M N A"
_symmetry_group_IT_number 53
_symmetry_cell_setting 'orthorhombic'
loop_
_space_group_symop_operation_xyz
x,y,z
1/2-x,-y,1/2+z
x,-y,-z
1/2-x,y,1/2-z
-x,-y,-z
1/2+x,y,1/2-z
-x,y,z
1/2+x,-y,1/2+z
loop_
_atom_site_type_symbol
_atom_site_label
_atom_site_fract_x
_atom_site_fract_y
_atom_site_fract_z
Si Si1 0.642475 0.509413 0.737386
Si Si2 0.865532 0.412597 0.575260
Si Si3 0.783173 0.094528 0.936303
Si Si4 0.099760 0.812843 0.518891
Si Si5 0.651765 0.355336 0.570742
Si Si6 0.896634 0.770102 0.723778
Si Si7 0.750000 0.033694 0.250000
Si Si8 0.500000 0.500000 0.500000
O O1 0.750000 0.499720 0.750000
O O2 0.606209 0.461126 0.830051
O O3 0.613833 0.424547 0.657662
O O4 0.622354 0.646264 0.729889
O O5 0.896147 0.500000 0.500000
O O6 0.903773 0.287238 0.554426
O O7 0.755969 0.398736 0.564589
O O8 0.837270 0.215970 0.924916
O O9 0.757539 0.043418 0.839318
O O10 0.689767 0.120160 0.990264
O O11 0.831600 0.000000 0.000000
O O12 0.116242 0.757242 0.616605
O O13 0.000000 0.870139 0.523318
O O14 0.581509 0.399279 0.497111
O O15 0.000000 0.800659 0.739999
O O16 0.834005 0.877162 0.750377
#
# Coordination Sequence:
#
# PCOD9415046 Si02
#       8
#     8   8   8   8   8   8   4   2
#     4  10  21  38  63  97 136 175 224 286 342 424
#     4  10  18  35  62  93 136 174 211 264 347 427
#     4  11  25  47  71  94 138 188 238 289 340 430
#     4  10  22  39  64 103 136 173 220 283 354 420
#     4  10  25  41  66  98 127 181 231 282 354 398
#     4  11  23  40  67 104 138 174 234 288 353 416
#     4  12  26  46  70  98 138 192 238 284 352 416
#     4  12  24  48  70  96 132 172 230 300 340 418
#
# _framework density 21.175418000000001
#
# number of rings (size 3 to 8) (size 9 to 14) (size 15 to 20)
#    0.000    1.481    4.444    0.000    6.222    2.963 
#    1.333    0.370    0.000    0.000    0.000    0.000 
#    0.000    0.000    0.000    0.000    0.000    0.000 
#
# Total GULP energy -300784.643065 kJ/mol
# GULP energy per Si atom -5570.085983 kJ/mol
# Density = 2.112722 g / cm^3
# Si number density = 21.175418 Si / 1000 Ang^3
#
#
#
# Elastic Constant Matrix: (Units=GPa)
#
#
# Indices 1 2 3 4 5 6 
#
# 1 91.4171 20.6316 5.1776 0.0000 0.0000 0.0000
# 2 20.6316 161.3681 43.2435 0.0000 0.0000 0.0000
# 3 5.1776 43.2435 84.6626 0.0000 0.0000 0.0000
# 4 0.0000 0.0000 0.0000 39.4302 0.0000 0.0000
# 5 0.0000 0.0000 0.0000 0.0000 8.8787 0.0000
# 6 0.0000 0.0000 0.0000 0.0000 0.0000 1.1593
#
#
#
# Elastic Compliance Matrix: (Units=1/GPa)
#
#
# Indices 1 2 3 4 5 6 
#
# 1 0.011264 -0.001455 0.000054 0.000000 0.000000 0.000000
# 2 -0.001455 0.007368 -0.003674 0.000000 0.000000 0.000000
# 3 0.000054 -0.003674 0.013685 0.000000 0.000000 0.000000
# 4 0.000000 0.000000 0.000000 0.025361 0.000000 0.000000
# 5 0.000000 0.000000 0.000000 0.000000 0.112630 0.000000
# 6 0.000000 0.000000 0.000000 0.000000 0.000000 0.862608
#
#
# Mechanical properties :
#
#
# Convention : Reuss Voigt Hill
#
# Bulk Modulus (GPa) = 45.11172 52.83925 48.97548
# Shear Modulus (GPa) = 4.75985 27.78662 16.27323
#
# Velocity S-wave (km/s) = 1.50090 3.62638 2.77518
# Velocity P-wave (km/s) = 4.93494 6.52238 5.78338
#
# Compressibility (1/GPa) = 0.02216719
#
# Stress axis : x y z
#
# Youngs Moduli (GPa) = 88.77754 135.72900 73.07278
#
# Poissons Ratio (x) = 0.19744 -0.00396
# Poissons Ratio (y) = 0.12914 0.26849
# Poissons Ratio (z) = -0.00481 0.49870
#
# Static dielectric constant tensor:
#      x y z
#    x 1.841670 0.000000 0.000000 
#    y 0.000000 1.767560 0.000000 
#    z 0.000000 0.000000 1.822730 
# 
# From -- ./inp_files/22887.got.cif
#   From: 2010.05.17/outbox.cif.g08.bks.cpg/sg53_12_cif.got.tgz:22887.got - 2010.06.03 12:45:16.
