data_PCOD9415426
_publ_section_title
;
Structure prediction by ZEFSAII (Michael W. Deem and Ramdas Pophale) SiO2 
 PCOD9415426
Probable space group: P M N A
;
_chemical_formula_sum "Si O2"
_cell_formula_units_Z 40
_cell_length_a 36.045366
_cell_length_b 12.261868
_cell_length_c 5.032585
_cell_angle_alpha 90.000000
_cell_angle_beta 90.000000
_cell_angle_gamma 90.000000
_cell_volume 2224.319633
_symmetry_space_group_name_H-M "P M N A"
_symmetry_group_IT_number 53
_symmetry_cell_setting 'orthorhombic'
loop_
_space_group_symop_operation_xyz
x,y,z
1/2-x,-y,1/2+z
x,-y,-z
1/2-x,y,1/2-z
-x,-y,-z
1/2+x,y,1/2-z
-x,y,z
1/2+x,-y,1/2+z
loop_
_atom_site_type_symbol
_atom_site_label
_atom_site_fract_x
_atom_site_fract_y
_atom_site_fract_z
Si Si1 0.331779 0.194770 0.686605
Si Si2 0.958358 0.132277 0.500863
Si Si3 0.209781 0.106448 0.316037
Si Si4 0.207562 0.578731 0.246646
Si Si5 0.087494 0.868056 0.000821
O O1 0.309846 0.119216 0.471681
O O2 0.318759 0.319523 0.689687
O O3 0.374368 0.181000 0.607228
O O4 0.320054 0.158490 0.982531
O O5 0.944879 0.161889 0.793130
O O6 0.000000 0.170192 0.438639
O O7 0.959361 0.000000 0.500000
O O8 0.927225 0.165118 0.287971
O O9 0.250000 0.158623 0.250000
O O10 0.219946 0.000000 0.500000
O O11 0.200930 0.500000 0.500000
O O12 0.250000 0.622055 0.250000
O O13 0.205075 0.500000 0.000000
O O14 0.092208 0.000000 0.000000
#
# Coordination Sequence:
#
# PCOD9415426 Si02
#       5
#     8   8   8   8   8
#     4  12  23  36  55  77 106 139 177 227 280 320
#     4   9  17  30  48  70 102 142 176 205 243 302
#     4  12  23  36  51  73 105 145 185 214 252 316
#     4  10  21  38  57  76  98 130 178 233 284 328
#     4  10  19  31  48  75 107 138 171 209 258 315
#
# _framework density 17.983025999999999
#
# number of rings (size 3 to 8) (size 9 to 14) (size 15 to 20)
#    0.000    1.400    0.000    7.800    0.000    5.600 
#    0.000    0.000    0.000    0.000    0.000    0.000 
#    0.000   16.000    0.000    0.000    0.000    0.000 
#
# Total GULP energy -222760.024775 kJ/mol
# GULP energy per Si atom -5569.000619 kJ/mol
# Density = 1.794210 g / cm^3
# Si number density = 17.983026 Si / 1000 Ang^3
#
#
#
# Elastic Constant Matrix: (Units=GPa)
#
#
# Indices 1 2 3 4 5 6 
#
# 1 107.1293 35.2575 21.3279 0.0000 0.0000 0.0000
# 2 35.2575 44.4105 15.4121 0.0000 0.0000 0.0000
# 3 21.3279 15.4121 104.1323 0.0000 0.0000 0.0000
# 4 0.0000 0.0000 0.0000 9.9039 0.0000 0.0000
# 5 0.0000 0.0000 0.0000 0.0000 25.2151 0.0000
# 6 0.0000 0.0000 0.0000 0.0000 0.0000 10.0214
#
#
#
# Elastic Compliance Matrix: (Units=1/GPa)
#
#
# Indices 1 2 3 4 5 6 
#
# 1 0.012771 -0.009731 -0.001175 0.000000 0.000000 0.000000
# 2 -0.009731 0.031151 -0.002617 0.000000 0.000000 0.000000
# 3 -0.001175 -0.002617 0.010231 0.000000 0.000000 0.000000
# 4 0.000000 0.000000 0.000000 0.100971 0.000000 0.000000
# 5 0.000000 0.000000 0.000000 0.000000 0.039659 0.000000
# 6 0.000000 0.000000 0.000000 0.000000 0.000000 0.099786
#
#
# Mechanical properties :
#
#
# Convention : Reuss Voigt Hill
#
# Bulk Modulus (GPa) = 36.89281 44.40745 40.65013
# Shear Modulus (GPa) = 15.12161 21.27304 18.19733
#
# Velocity S-wave (km/s) = 2.90294 3.44314 3.18451
# Velocity P-wave (km/s) = 5.63879 6.36825 6.01459
#
# Compressibility (1/GPa) = 0.02710555
#
# Stress axis : x y z
#
# Youngs Moduli (GPa) = 78.30147 32.10160 97.73908
#
# Poissons Ratio (x) = 0.31238 0.11489
# Poissons Ratio (y) = 0.76196 0.25582
# Poissons Ratio (z) = 0.09204 0.08402
#
# Static dielectric constant tensor:
#      x y z
#    x 1.583110 0.000000 0.000000 
#    y 0.000000 1.609300 0.000000 
#    z 0.000000 0.000000 1.621240 
# 
# From -- ./inp_files/5195.got.cif
#   From: 2010.05.17/outbox.cif.g08.bks.cpg/sg53_3_cif.got.tgz:5195.got - 2010.06.03 12:45:16.
