data_PCOD9415886
_publ_section_title
;
Structure prediction by ZEFSAII (Michael W. Deem and Ramdas Pophale) SiO2 
 PCOD9415886
Probable space group: P M N A
;
_chemical_formula_sum "Si O2"
_cell_formula_units_Z 64
_cell_length_a 8.568646
_cell_length_b 28.132292
_cell_length_c 15.196921
_cell_angle_alpha 90.000000
_cell_angle_beta 90.000000
_cell_angle_gamma 90.000000
_cell_volume 3663.303690
_symmetry_space_group_name_H-M "P M N A"
_symmetry_group_IT_number 53
_symmetry_cell_setting 'orthorhombic'
loop_
_space_group_symop_operation_xyz
x,y,z
1/2-x,-y,1/2+z
x,-y,-z
1/2-x,y,1/2-z
-x,-y,-z
1/2+x,y,1/2-z
-x,y,z
1/2+x,-y,1/2+z
loop_
_atom_site_type_symbol
_atom_site_label
_atom_site_fract_x
_atom_site_fract_y
_atom_site_fract_z
Si Si1 0.312751 0.886281 0.524286
Si Si2 0.690351 0.616098 0.527588
Si Si3 0.686338 0.193141 0.153774
Si Si4 0.188254 0.421771 0.845615
Si Si5 0.812625 0.028894 0.154500
Si Si6 0.811672 0.468730 0.153809
Si Si7 0.311914 0.299455 0.345697
Si Si8 0.814145 0.077483 0.654113
O O1 0.500000 0.884193 0.521138
O O2 0.248488 0.841941 0.579097
O O3 0.268241 0.933588 0.579654
O O4 0.246627 0.890957 0.426320
O O5 0.500000 0.615961 0.527433
O O6 0.741446 0.610449 0.426939
O O7 0.740282 0.569367 0.581859
O O8 0.738248 0.663029 0.580174
O O9 0.750000 0.178212 0.250000
O O10 0.500000 0.192716 0.156365
O O11 0.746679 0.246726 0.138566
O O12 0.250000 0.407965 0.750000
O O13 0.236501 0.476718 0.863290
O O14 0.000000 0.421238 0.843032
O O15 0.750000 0.044682 0.250000
O O16 0.000000 0.025760 0.157954
O O17 0.745906 0.976408 0.138105
O O18 0.750000 0.455258 0.250000
O O19 0.000000 0.468083 0.155080
O O20 0.250000 0.315149 0.250000
O O21 0.500000 0.297492 0.342788
O O22 0.750000 0.091878 0.750000
O O23 0.000000 0.077269 0.656643
#
# Coordination Sequence:
#
# PCOD9415886 Si02
#       8
#     8   8   8   8   8   8   8   8
#     4  11  22  36  55  79 106 137 175 216 259 306
#     4   9  17  29  48  70  93 127 166 199 239 295
#     4  11  22  37  56  79 106 134 165 203 253 308
#     4   9  17  30  46  66  94 128 165 202 240 283
#     4  10  20  33  51  76 108 142 175 213 255 302
#     4   9  16  27  44  67  96 128 161 198 239 287
#     4  10  19  33  52  74 100 128 159 198 247 299
#     4  11  22  36  54  76 106 143 180 217 256 299
#
# _framework density 17.470568
#
# number of rings (size 3 to 8) (size 9 to 14) (size 15 to 20)
#    0.000    2.000    0.000    6.375    0.000    6.000 
#    0.000    2.500    0.000    3.750    0.000    3.500 
#    0.000    0.000    0.000    0.000    0.000    0.000 
#
# Total GULP energy -357367.191545 kJ/mol
# GULP energy per Si atom -5583.862368 kJ/mol
# Density = 1.743080 g / cm^3
# Si number density = 17.470568 Si / 1000 Ang^3
#
#
#
# Elastic Constant Matrix: (Units=GPa)
#
#
# Indices 1 2 3 4 5 6 
#
# 1 60.2043 28.3022 43.1044 0.0000 0.0000 0.0000
# 2 28.3022 75.6934 90.9226 0.0000 0.0000 0.0000
# 3 43.1044 90.9226 171.7016 0.0000 0.0000 0.0000
# 4 0.0000 0.0000 0.0000 32.7015 0.0000 0.0000
# 5 0.0000 0.0000 0.0000 0.0000 24.9826 0.0000
# 6 0.0000 0.0000 0.0000 0.0000 0.0000 16.4982
#
#
#
# Elastic Compliance Matrix: (Units=1/GPa)
#
#
# Indices 1 2 3 4 5 6 
#
# 1 0.020706 -0.004117 -0.003018 0.000000 0.000000 0.000000
# 2 -0.004117 0.037121 -0.018623 0.000000 0.000000 0.000000
# 3 -0.003018 -0.018623 0.016444 0.000000 0.000000 0.000000
# 4 0.000000 0.000000 0.000000 0.030580 0.000000 0.000000
# 5 0.000000 0.000000 0.000000 0.000000 0.040028 0.000000
# 6 0.000000 0.000000 0.000000 0.000000 0.000000 0.060613
#
#
# Mechanical properties :
#
#
# Convention : Reuss Voigt Hill
#
# Bulk Modulus (GPa) = 43.94840 70.25086 57.09963
# Shear Modulus (GPa) = 18.89698 24.52113 21.70906
#
# Velocity S-wave (km/s) = 3.29241 3.75049 3.52889
# Velocity P-wave (km/s) = 6.29790 7.68460 7.02555
#
# Compressibility (1/GPa) = 0.02275396
#
# Stress axis : x y z
#
# Youngs Moduli (GPa) = 48.29438 26.93898 60.81404
#
# Poissons Ratio (x) = 0.11090 0.18354
# Poissons Ratio (y) = 0.19882 1.13257
# Poissons Ratio (z) = 0.14576 0.50170
#
# Static dielectric constant tensor:
#      x y z
#    x 1.592650 0.000000 0.000000 
#    y 0.000000 1.582100 0.000000 
#    z 0.000000 0.000000 1.604540 
# 
# From -- ./inp_files/20975.got.cif
#   From: 2010.05.17/outbox.cif.g08.bks.cpg/sg53_11_cif.got.tgz:20975.got - 2010.06.03 12:45:16.
