data_PCOD9415033
_publ_section_title
;
Structure prediction by ZEFSAII (Michael W. Deem and Ramdas Pophale) SiO2 
 PCOD9415033
Probable space group: P M N A
;
_chemical_formula_sum "Si O2"
_cell_formula_units_Z 64
_cell_length_a 15.213935
_cell_length_b 9.220805
_cell_length_c 22.789437
_cell_angle_alpha 90.000000
_cell_angle_beta 90.000000
_cell_angle_gamma 90.000000
_cell_volume 3197.009969
_symmetry_space_group_name_H-M "P M N A"
_symmetry_group_IT_number 53
_symmetry_cell_setting 'orthorhombic'
loop_
_space_group_symop_operation_xyz
x,y,z
1/2-x,-y,1/2+z
x,-y,-z
1/2-x,y,1/2-z
-x,-y,-z
1/2+x,y,1/2-z
-x,y,z
1/2+x,-y,1/2+z
loop_
_atom_site_type_symbol
_atom_site_label
_atom_site_fract_x
_atom_site_fract_y
_atom_site_fract_z
Si Si1 0.334713 0.709754 0.633514
Si Si2 0.792965 0.077729 0.306928
Si Si3 0.903861 0.673017 0.546116
Si Si4 0.100486 0.674976 0.995906
Si Si5 0.822770 0.516987 0.360019
Si Si6 0.101404 0.642508 0.740359
Si Si7 0.100864 0.003226 0.590617
Si Si8 0.277617 0.248625 0.947434
O O1 0.283986 0.858478 0.651078
O O2 0.383772 0.719281 0.571911
O O3 0.260160 0.587213 0.628309
O O4 0.390172 0.655805 0.689604
O O5 0.750000 0.005413 0.250000
O O6 0.843374 0.220750 0.283487
O O7 0.863708 0.988348 0.343114
O O8 0.895049 0.555965 0.597450
O O9 0.896167 0.833410 0.574300
O O10 0.827095 0.662423 0.498767
O O11 0.000000 0.663672 0.518007
O O12 0.000000 0.707774 0.013207
O O13 0.112313 0.500000 0.000000
O O14 0.175606 0.749994 0.035406
O O15 0.854653 0.493963 0.293279
O O16 0.797150 0.671624 0.385945
O O17 0.000000 0.652537 0.723442
O O18 0.000000 0.052126 0.582653
O O19 0.170060 0.097909 0.554529
#
# Coordination Sequence:
#
# PCOD9415033 Si02
#       8
#     8   8   8   8   8   8   8   8
#     4  10  18  35  58  85 110 146 191 248 297 337
#     4   9  18  34  59  82 110 153 198 246 290 336
#     4  11  21  35  57  83 114 157 200 235 280 343
#     4  11  21  37  61  84 112 155 202 244 295 356
#     4  11  20  35  56  83 118 151 186 236 295 342
#     4  10  19  32  56  87 116 144 193 248 291 345
#     4  11  22  37  58  85 119 159 198 235 290 355
#     4  12  23  37  55  84 123 155 192 239 292 351
#
# _framework density 20.018704
#
# number of rings (size 3 to 8) (size 9 to 14) (size 15 to 20)
#    0.000    1.375    5.000    3.375    0.000    3.500 
#    0.000    1.250    0.000    9.750    0.000    0.000 
#    0.000    0.000    0.000    0.000    0.000    0.000 
#
# Total GULP energy -357179.105972 kJ/mol
# GULP energy per Si atom -5580.923531 kJ/mol
# Density = 1.997314 g / cm^3
# Si number density = 20.018704 Si / 1000 Ang^3
#
#
#
# Elastic Constant Matrix: (Units=GPa)
#
#
# Indices 1 2 3 4 5 6 
#
# 1 141.7264 22.5345 33.0699 0.0000 0.0000 0.0000
# 2 22.5345 46.0003 20.5755 0.0000 0.0000 0.0000
# 3 33.0699 20.5755 84.1181 0.0000 0.0000 0.0000
# 4 0.0000 0.0000 0.0000 16.3664 0.0000 0.0000
# 5 0.0000 0.0000 0.0000 0.0000 8.9797 0.0000
# 6 0.0000 0.0000 0.0000 0.0000 0.0000 13.3112
#
#
#
# Elastic Compliance Matrix: (Units=1/GPa)
#
#
# Indices 1 2 3 4 5 6 
#
# 1 0.008089 -0.002852 -0.002482 0.000000 0.000000 0.000000
# 2 -0.002852 0.025415 -0.005095 0.000000 0.000000 0.000000
# 3 -0.002482 -0.005095 0.014110 0.000000 0.000000 0.000000
# 4 0.000000 0.000000 0.000000 0.061101 0.000000 0.000000
# 5 0.000000 0.000000 0.000000 0.000000 0.111363 0.000000
# 6 0.000000 0.000000 0.000000 0.000000 0.000000 0.075125
#
#
# Mechanical properties :
#
#
# Convention : Reuss Voigt Hill
#
# Bulk Modulus (GPa) = 37.37674 47.13383 42.25529
# Shear Modulus (GPa) = 15.38556 20.77578 18.08067
#
# Velocity S-wave (km/s) = 2.77530 3.22501 3.00857
# Velocity P-wave (km/s) = 5.38341 6.12075 5.76389
#
# Compressibility (1/GPa) = 0.02675461
#
# Stress axis : x y z
#
# Youngs Moduli (GPa) = 123.63186 39.34638 70.87044
#
# Poissons Ratio (x) = 0.11222 0.17592
# Poissons Ratio (y) = 0.35261 0.36111
# Poissons Ratio (z) = 0.30689 0.20048
#
# Static dielectric constant tensor:
#      x y z
#    x 1.733680 0.000000 0.000000 
#    y 0.000000 1.732430 0.000000 
#    z 0.000000 0.000000 1.797330 
# 
# From -- ./inp_files/35342.got.cif
#   From: 2010.05.17/outbox.cif.g08.bks.cpg/sg53_18_cif.got.tgz:35342.got - 2010.06.03 12:45:16.
