data_PCOD9415565
_publ_section_title
;
Structure prediction by ZEFSAII (Michael W. Deem and Ramdas Pophale) SiO2 
 PCOD9415565
Probable space group: P M N A
;
_chemical_formula_sum "Si O2"
_cell_formula_units_Z 32
_cell_length_a 13.939633
_cell_length_b 5.249103
_cell_length_c 21.050819
_cell_angle_alpha 90.000000
_cell_angle_beta 90.000000
_cell_angle_gamma 90.000000
_cell_volume 1540.300413
_symmetry_space_group_name_H-M "P M N A"
_symmetry_group_IT_number 53
_symmetry_cell_setting 'orthorhombic'
loop_
_space_group_symop_operation_xyz
x,y,z
1/2-x,-y,1/2+z
x,-y,-z
1/2-x,y,1/2-z
-x,-y,-z
1/2+x,y,1/2-z
-x,y,z
1/2+x,-y,1/2+z
loop_
_atom_site_type_symbol
_atom_site_label
_atom_site_fract_x
_atom_site_fract_y
_atom_site_fract_z
Si Si1 0.388159 0.510594 0.161599
Si Si2 0.887221 0.379594 0.190776
Si Si3 0.615774 0.752476 0.964986
Si Si4 0.775300 0.879846 0.175270
O O1 0.500000 0.585275 0.157065
O O2 0.371390 0.402225 0.232424
O O3 0.368423 0.295739 0.109306
O O4 0.321455 0.753374 0.147563
O O5 0.852755 0.653292 0.165775
O O6 0.000000 0.336492 0.181061
O O7 0.824881 0.149859 0.161849
O O8 0.500000 0.758501 0.972579
O O9 0.651450 0.500000 0.000000
O O10 0.655202 0.000000 0.000000
O O11 0.750000 0.893028 0.250000
#
# Coordination Sequence:
#
# PCOD9415565 Si02
#       4
#     8   8   8   8
#     4   9  19  34  52  74 105 142 168 198 251 301
#     4  10  20  33  49  69  97 131 166 203 243 288
#     4   9  18  31  47  69  98 132 170 205 236 284
#     4  10  19  32  47  70  97 127 167 202 236 292
#
# _framework density 20.775165999999999
#
# number of rings (size 3 to 8) (size 9 to 14) (size 15 to 20)
#    0.000    2.500    0.000    3.000    0.000    7.000 
#    0.000   16.250    0.000    0.000    0.000    0.000 
#    0.000   20.000    0.000    0.000    0.000    0.000 
#
# Total GULP energy -178596.460936 kJ/mol
# GULP energy per Si atom -5581.139404 kJ/mol
# Density = 2.072788 g / cm^3
# Si number density = 20.775166 Si / 1000 Ang^3
#
#
#
# Elastic Constant Matrix: (Units=GPa)
#
#
# Indices 1 2 3 4 5 6 
#
# 1 127.8114 56.9586 12.5576 0.0000 0.0000 0.0000
# 2 56.9586 146.5521 8.7349 0.0000 0.0000 0.0000
# 3 12.5576 8.7349 30.1870 0.0000 0.0000 0.0000
# 4 0.0000 0.0000 0.0000 11.8892 0.0000 0.0000
# 5 0.0000 0.0000 0.0000 0.0000 9.8757 0.0000
# 6 0.0000 0.0000 0.0000 0.0000 0.0000 8.6601
#
#
#
# Elastic Compliance Matrix: (Units=1/GPa)
#
#
# Indices 1 2 3 4 5 6 
#
# 1 0.009723 -0.003600 -0.003003 0.000000 0.000000 0.000000
# 2 -0.003600 0.008276 -0.000897 0.000000 0.000000 0.000000
# 3 -0.003003 -0.000897 0.034636 0.000000 0.000000 0.000000
# 4 0.000000 0.000000 0.000000 0.084110 0.000000 0.000000
# 5 0.000000 0.000000 0.000000 0.000000 0.101259 0.000000
# 6 0.000000 0.000000 0.000000 0.000000 0.000000 0.115472
#
#
# Mechanical properties :
#
#
# Convention : Reuss Voigt Hill
#
# Bulk Modulus (GPa) = 26.57136 51.22808 38.89972
# Shear Modulus (GPa) = 13.12263 21.17163 17.14713
#
# Velocity S-wave (km/s) = 2.51599 3.19577 2.87604
# Velocity P-wave (km/s) = 4.61064 6.19105 5.45835
#
# Compressibility (1/GPa) = 0.03763450
#
# Stress axis : x y z
#
# Youngs Moduli (GPa) = 102.84397 120.82845 28.87187
#
# Poissons Ratio (x) = 0.43499 0.08671
# Poissons Ratio (y) = 0.37025 0.02590
# Poissons Ratio (z) = 0.30886 0.10841
#
# Static dielectric constant tensor:
#      x y z
#    x 1.773380 0.000000 0.000000 
#    y 0.000000 1.787140 0.000000 
#    z 0.000000 0.000000 1.790180 
# 
# From -- ./inp_files/27818.got.cif
#   From: 2010.05.17/outbox.cif.g08.bks.cpg/sg53_14_cif.got.tgz:27818.got - 2010.06.03 12:45:16.
