data_PCOD9415796
_publ_section_title
;
Structure prediction by ZEFSAII (Michael W. Deem and Ramdas Pophale) SiO2 
 PCOD9415796
Probable space group: P M N A
;
_chemical_formula_sum "Si O2"
_cell_formula_units_Z 64
_cell_length_a 8.837312
_cell_length_b 25.301546
_cell_length_c 14.805491
_cell_angle_alpha 90.000000
_cell_angle_beta 90.000000
_cell_angle_gamma 90.000000
_cell_volume 3310.473085
_symmetry_space_group_name_H-M "P M N A"
_symmetry_group_IT_number 53
_symmetry_cell_setting 'orthorhombic'
loop_
_space_group_symop_operation_xyz
x,y,z
1/2-x,-y,1/2+z
x,-y,-z
1/2-x,y,1/2-z
-x,-y,-z
1/2+x,y,1/2-z
-x,y,z
1/2+x,-y,1/2+z
loop_
_atom_site_type_symbol
_atom_site_label
_atom_site_fract_x
_atom_site_fract_y
_atom_site_fract_z
Si Si1 0.317572 0.378018 0.546247
Si Si2 0.820242 0.978862 0.594401
Si Si3 0.819690 0.591663 0.843154
Si Si4 0.182279 0.729102 0.149805
Si Si5 0.819060 0.828005 0.024622
Si Si6 0.170954 0.483852 0.605428
Si Si7 0.181789 0.136922 0.345548
Si Si8 0.322802 0.906509 0.158597
O O1 0.500000 0.383060 0.547786
O O2 0.272270 0.382439 0.439798
O O3 0.274406 0.323429 0.594098
O O4 0.247170 0.426601 0.602292
O O5 0.762990 0.923509 0.632811
O O6 0.000000 0.969322 0.578515
O O7 0.753792 0.000000 0.500000
O O8 0.807582 0.030142 0.656798
O O9 0.750000 0.613674 0.750000
O O10 0.767365 0.530533 0.850522
O O11 0.000000 0.594769 0.837548
O O12 0.250000 0.730133 0.250000
O O13 0.000000 0.729533 0.157669
O O14 0.226044 0.779801 0.089854
O O15 0.741385 0.827402 0.927310
O O16 0.000000 0.828222 0.015182
O O17 0.761647 0.880713 0.074537
O O18 0.162139 0.500000 0.500000
O O19 0.000000 0.482467 0.642291
O O20 0.250000 0.152941 0.250000
O O21 0.000000 0.137502 0.342044
O O22 0.250000 0.885181 0.250000
O O23 0.500000 0.893857 0.153034
#
# Coordination Sequence:
#
# PCOD9415796 Si02
#       8
#     8   8   8   8   8   8   8   8
#     4   9  19  37  57  79 111 151 189 232 286 337
#     4   9  17  33  55  81 113 150 186 226 275 331
#     4  10  19  32  53  80 113 152 191 229 275 330
#     4  10  23  42  63  85 111 143 184 235 288 341
#     4  11  23  40  60  84 113 146 188 235 285 338
#     4   9  17  30  50  78 112 148 187 229 271 322
#     4  11  22  39  62  86 116 152 190 232 281 336
#     4  11  21  35  56  82 114 148 185 228 278 334
#
# _framework density 19.332585000000002
#
# number of rings (size 3 to 8) (size 9 to 14) (size 15 to 20)
#    0.000    2.000    1.250    2.625    0.000    5.000 
#    0.000    4.375    0.000    1.500    0.000    0.000 
#    0.000    0.000    0.000    0.000    0.000    0.000 
#
# Total GULP energy -357122.940903 kJ/mol
# GULP energy per Si atom -5580.045952 kJ/mol
# Density = 1.928858 g / cm^3
# Si number density = 19.332585 Si / 1000 Ang^3
#
#
#
# Elastic Constant Matrix: (Units=GPa)
#
#
# Indices 1 2 3 4 5 6 
#
# 1 54.2963 31.3197 48.6626 0.0000 0.0000 0.0000
# 2 31.3197 82.1977 36.1487 0.0000 0.0000 0.0000
# 3 48.6626 36.1487 149.6719 0.0000 0.0000 0.0000
# 4 0.0000 0.0000 0.0000 15.3078 0.0000 0.0000
# 5 0.0000 0.0000 0.0000 0.0000 31.6208 0.0000
# 6 0.0000 0.0000 0.0000 0.0000 0.0000 16.4203
#
#
#
# Elastic Compliance Matrix: (Units=1/GPa)
#
#
# Indices 1 2 3 4 5 6 
#
# 1 0.030063 -0.008007 -0.007841 0.000000 0.000000 0.000000
# 2 -0.008007 0.015744 -0.001199 0.000000 0.000000 0.000000
# 3 -0.007841 -0.001199 0.009520 0.000000 0.000000 0.000000
# 4 0.000000 0.000000 0.000000 0.065326 0.000000 0.000000
# 5 0.000000 0.000000 0.000000 0.000000 0.031625 0.000000
# 6 0.000000 0.000000 0.000000 0.000000 0.000000 0.060900
#
#
# Mechanical properties :
#
#
# Convention : Reuss Voigt Hill
#
# Bulk Modulus (GPa) = 47.09434 57.60311 52.34872
# Shear Modulus (GPa) = 19.65802 24.00545 21.83173
#
# Velocity S-wave (km/s) = 3.19224 3.52761 3.36411
# Velocity P-wave (km/s) = 6.16443 6.81562 6.49818
#
# Compressibility (1/GPa) = 0.02123398
#
# Stress axis : x y z
#
# Youngs Moduli (GPa) = 33.26350 63.51625 105.04082
#
# Poissons Ratio (x) = 0.50856 0.82358
# Poissons Ratio (y) = 0.26633 0.12597
# Poissons Ratio (z) = 0.26080 0.07617
#
# Static dielectric constant tensor:
#      x y z
#    x 1.657110 0.000000 0.000000 
#    y 0.000000 1.675030 0.000000 
#    z 0.000000 0.000000 1.681960 
# 
# From -- ./inp_files/21008.got.cif
#   From: 2010.05.17/outbox.cif.g08.bks.cpg/sg53_11_cif.got.tgz:21008.got - 2010.06.03 12:45:16.
