data_PCOD9415037
_publ_section_title
;
Structure prediction by ZEFSAII (Michael W. Deem and Ramdas Pophale) SiO2 
 PCOD9415037
Probable space group: P M N A
;
_chemical_formula_sum "Si O2"
_cell_formula_units_Z 40
_cell_length_a 11.283302
_cell_length_b 12.750428
_cell_length_c 13.791457
_cell_angle_alpha 90.000000
_cell_angle_beta 90.000000
_cell_angle_gamma 90.000000
_cell_volume 1984.134575
_symmetry_space_group_name_H-M "P M N A"
_symmetry_group_IT_number 53
_symmetry_cell_setting 'orthorhombic'
loop_
_space_group_symop_operation_xyz
x,y,z
1/2-x,-y,1/2+z
x,-y,-z
1/2-x,y,1/2-z
-x,-y,-z
1/2+x,y,1/2-z
-x,y,z
1/2+x,-y,1/2+z
loop_
_atom_site_type_symbol
_atom_site_label
_atom_site_fract_x
_atom_site_fract_y
_atom_site_fract_z
Si Si1 0.786749 0.500000 0.500000
Si Si2 0.365134 0.633699 0.178172
Si Si3 0.861522 0.700746 0.938824
Si Si4 0.130134 0.043920 0.374756
Si Si5 0.250000 0.201635 0.250000
Si Si6 0.286220 0.840773 0.066424
O O1 0.856952 0.545895 0.407120
O O2 0.703614 0.404429 0.469820
O O3 0.250000 0.620838 0.250000
O O4 0.500000 0.628957 0.220797
O O5 0.348004 0.747686 0.126422
O O6 0.802124 0.733656 0.838054
O O7 0.000000 0.687096 0.928881
O O8 0.829973 0.788697 0.019592
O O9 0.149109 0.124607 0.289163
O O10 0.144434 0.114350 0.471878
O O11 0.000000 0.996112 0.371229
O O12 0.223697 0.948599 0.374042
#
# Coordination Sequence:
#
# PCOD9415037 Si02
#       6
#     4   8   8   8   4   8
#     4  10  24  44  66  88 123 166 213 260 321 382
#     4  11  24  42  65  96 128 165 212 263 318 381
#     4  10  21  40  61  88 122 161 205 260 316 371
#     4  10  18  35  59  83 118 163 202 250 304 366
#     4  10  22  34  56  92 120 154 206 256 308 380
#     4   9  20  37  59  85 119 161 208 244 304 372
#
# _framework density 20.159922999999999
#
# number of rings (size 3 to 8) (size 9 to 14) (size 15 to 20)
#    0.000    2.000    0.000    3.600    2.800    4.000 
#    0.000   11.000    0.000    0.000    0.000    0.000 
#    0.000    0.000    0.000    0.000    0.000    0.000 
#
# Total GULP energy -222914.964901 kJ/mol
# GULP energy per Si atom -5572.874123 kJ/mol
# Density = 2.011404 g / cm^3
# Si number density = 20.159923 Si / 1000 Ang^3
#
#
#
# Elastic Constant Matrix: (Units=GPa)
#
#
# Indices 1 2 3 4 5 6 
#
# 1 117.4681 34.3103 36.6469 0.0000 0.0000 0.0000
# 2 34.3103 98.1953 37.7589 0.0000 0.0000 0.0000
# 3 36.6469 37.7589 69.0518 0.0000 0.0000 0.0000
# 4 0.0000 0.0000 0.0000 65.8489 0.0000 0.0000
# 5 0.0000 0.0000 0.0000 0.0000 19.5985 0.0000
# 6 0.0000 0.0000 0.0000 0.0000 0.0000 5.4673
#
#
#
# Elastic Compliance Matrix: (Units=1/GPa)
#
#
# Indices 1 2 3 4 5 6 
#
# 1 0.010483 -0.001929 -0.004509 0.000000 0.000000 0.000000
# 2 -0.001929 0.013250 -0.006222 0.000000 0.000000 0.000000
# 3 -0.004509 -0.006222 0.020277 0.000000 0.000000 0.000000
# 4 0.000000 0.000000 0.000000 0.015186 0.000000 0.000000
# 5 0.000000 0.000000 0.000000 0.000000 0.051024 0.000000
# 6 0.000000 0.000000 0.000000 0.000000 0.000000 0.182906
#
#
# Mechanical properties :
#
#
# Convention : Reuss Voigt Hill
#
# Bulk Modulus (GPa) = 53.50111 55.79416 54.64763
# Shear Modulus (GPa) = 15.39996 29.91621 22.65808
#
# Velocity S-wave (km/s) = 2.76685 3.85638 3.35612
# Velocity P-wave (km/s) = 6.06657 6.89672 6.49492
#
# Compressibility (1/GPa) = 0.01869120
#
# Stress axis : x y z
#
# Youngs Moduli (GPa) = 95.39273 75.47017 49.31748
#
# Poissons Ratio (x) = 0.14560 0.22235
# Poissons Ratio (y) = 0.18403 0.30684
# Poissons Ratio (z) = 0.43008 0.46955
#
# Static dielectric constant tensor:
#      x y z
#    x 1.702980 0.000000 0.000000 
#    y 0.000000 1.694870 0.000000 
#    z 0.000000 0.000000 1.760010 
# 
# From -- ./inp_files/21692.got.cif
#   From: 2010.05.17/outbox.cif.g08.bks.cpg/sg53_11_cif.got.tgz:21692.got - 2010.06.03 12:45:16.
