data_PCOD9415703
_publ_section_title
;
Structure prediction by ZEFSAII (Michael W. Deem and Ramdas Pophale) SiO2 
 PCOD9415703
Probable space group: P M N A
;
_chemical_formula_sum "Si O2"
_cell_formula_units_Z 64
_cell_length_a 9.341929
_cell_length_b 19.837326
_cell_length_c 20.090776
_cell_angle_alpha 90.000000
_cell_angle_beta 90.000000
_cell_angle_gamma 90.000000
_cell_volume 3723.200328
_symmetry_space_group_name_H-M "P M N A"
_symmetry_group_IT_number 53
_symmetry_cell_setting 'orthorhombic'
loop_
_space_group_symop_operation_xyz
x,y,z
1/2-x,-y,1/2+z
x,-y,-z
1/2-x,y,1/2-z
-x,-y,-z
1/2+x,y,1/2-z
-x,y,z
1/2+x,-y,1/2+z
loop_
_atom_site_type_symbol
_atom_site_label
_atom_site_fract_x
_atom_site_fract_y
_atom_site_fract_z
Si Si1 0.827563 0.196501 0.539532
Si Si2 0.330622 0.562652 0.047951
Si Si3 0.667906 0.628492 0.682649
Si Si4 0.162735 0.782418 0.314301
Si Si5 0.336019 0.053188 0.814141
Si Si6 0.168675 0.534182 0.182016
Si Si7 0.833541 0.057841 0.945103
Si Si8 0.331882 0.317105 0.055763
O O1 0.784735 0.230973 0.610440
O O2 0.744156 0.126631 0.532966
O O3 0.800948 0.245429 0.477919
O O4 0.000000 0.184640 0.544781
O O5 0.500000 0.555281 0.064082
O O6 0.241564 0.563647 0.115827
O O7 0.290234 0.500000 0.000000
O O8 0.311329 0.628421 0.002895
O O9 0.750000 0.648067 0.750000
O O10 0.500000 0.643533 0.687913
O O11 0.683252 0.547305 0.675581
O O12 0.737275 0.663565 0.618718
O O13 0.250000 0.758647 0.250000
O O14 0.162100 0.864596 0.311967
O O15 0.000000 0.758185 0.308639
O O16 0.250000 0.029422 0.750000
O O17 0.500000 0.030733 0.814986
O O18 0.250549 0.034063 0.879842
O O19 0.250000 0.554116 0.250000
O O20 0.000000 0.550077 0.185966
O O21 0.000000 0.071766 0.929297
O O22 0.826498 0.000000 0.000000
O O23 0.500000 0.319915 0.074592
#
# Coordination Sequence:
#
# PCOD9415703 Si02
#       8
#     8   8   8   8   8   8   8   8
#     4   9  19  34  51  73 102 137 173 211 256 307
#     4  10  19  32  52  76 103 136 170 207 257 308
#     4  10  20  33  52  77 102 131 171 217 262 309
#     4   8  14  25  42  65  91 122 160 197 235 280
#     4   9  16  27  46  72 101 131 165 205 248 296
#     4  10  20  33  51  74 103 136 174 219 261 307
#     4  10  20  33  51  76 105 136 171 212 257 306
#     4  10  20  35  54  76 105 138 172 213 260 311
#
# _framework density 17.189513000000002
#
# number of rings (size 3 to 8) (size 9 to 14) (size 15 to 20)
#    0.000    2.500    1.250    2.250    0.000    6.250 
#    0.000    0.625    0.000    2.250    0.000    5.250 
#    0.000    0.000    0.000    0.000    0.000    0.000 
#
# Total GULP energy -356911.665821 kJ/mol
# GULP energy per Si atom -5576.744778 kJ/mol
# Density = 1.715039 g / cm^3
# Si number density = 17.189513 Si / 1000 Ang^3
#
#
#
# Elastic Constant Matrix: (Units=GPa)
#
#
# Indices 1 2 3 4 5 6 
#
# 1 108.7801 29.0901 82.9474 0.0000 0.0000 0.0000
# 2 29.0901 27.4386 21.1938 0.0000 0.0000 0.0000
# 3 82.9474 21.1938 123.7054 0.0000 0.0000 0.0000
# 4 0.0000 0.0000 0.0000 17.0541 0.0000 0.0000
# 5 0.0000 0.0000 0.0000 0.0000 38.3488 0.0000
# 6 0.0000 0.0000 0.0000 0.0000 0.0000 -62.5547
#
#
#
# Elastic Compliance Matrix: (Units=1/GPa)
#
#
# Indices 1 2 3 4 5 6 
#
# 1 0.022798 -0.014248 -0.012846 0.000000 0.000000 0.000000
# 2 -0.014248 0.050908 0.000832 0.000000 0.000000 0.000000
# 3 -0.012846 0.000832 0.016555 0.000000 0.000000 0.000000
# 4 0.000000 0.000000 0.000000 0.058637 0.000000 0.000000
# 5 0.000000 0.000000 0.000000 0.000000 0.026076 0.000000
# 6 0.000000 0.000000 0.000000 0.000000 0.000000 -0.015986
#
#
# Mechanical properties :
#
#
# Convention : Reuss Voigt Hill
#
# Bulk Modulus (GPa) = 26.49916 58.48741 42.49328
# Shear Modulus (GPa) = 22.31226 7.01583 14.66405
#
# Velocity S-wave (km/s) = 3.60671 2.02245 2.92392
# Velocity P-wave (km/s) = 5.72659 6.28909 6.01442
#
# Compressibility (1/GPa) = 0.03773705
#
# Stress axis : x y z
#
# Youngs Moduli (GPa) = 43.86275 19.64314 60.40630
#
# Poissons Ratio (x) = 0.27988 0.77596
# Poissons Ratio (y) = 0.62498 -0.05026
# Poissons Ratio (z) = 0.56345 -0.01634
#
# Static dielectric constant tensor:
#      x y z
#    x 1.580230 0.000000 0.000000 
#    y 0.000000 1.579300 0.000000 
#    z 0.000000 0.000000 1.575410 
# 
# From -- ./inp_files/31165.got.cif
#   From: 2010.05.17/outbox.cif.g08.bks.cpg/sg53_16_cif.got.tgz:31165.got - 2010.06.03 12:45:16.
