data_PCOD9415912
_publ_section_title
;
Structure prediction by ZEFSAII (Michael W. Deem and Ramdas Pophale) SiO2 
 PCOD9415912
Probable space group: P M N A
;
_chemical_formula_sum "Si O2"
_cell_formula_units_Z 64
_cell_length_a 7.720279
_cell_length_b 19.096730
_cell_length_c 21.093465
_cell_angle_alpha 90.000000
_cell_angle_beta 90.000000
_cell_angle_gamma 90.000000
_cell_volume 3109.853495
_symmetry_space_group_name_H-M "P M N A"
_symmetry_group_IT_number 53
_symmetry_cell_setting 'orthorhombic'
loop_
_space_group_symop_operation_xyz
x,y,z
1/2-x,-y,1/2+z
x,-y,-z
1/2-x,y,1/2-z
-x,-y,-z
1/2+x,y,1/2-z
-x,y,z
1/2+x,-y,1/2+z
loop_
_atom_site_type_symbol
_atom_site_label
_atom_site_fract_x
_atom_site_fract_y
_atom_site_fract_z
Si Si1 0.788374 0.791402 0.439120
Si Si2 0.287839 0.047906 0.940824
Si Si3 0.287453 0.704985 0.936604
Si Si4 0.793094 0.698443 0.321739
Si Si5 0.791886 0.800108 0.678720
Si Si6 0.792001 0.040336 0.321207
Si Si7 0.199185 0.463506 0.822765
Si Si8 0.700877 0.547216 0.943858
O O1 0.730783 0.871684 0.444664
O O2 0.736710 0.746047 0.499944
O O3 0.731279 0.752464 0.374976
O O4 0.000000 0.792489 0.438178
O O5 0.500000 0.048805 0.941229
O O6 0.229570 0.011038 0.875980
O O7 0.234222 0.000000 0.000000
O O8 0.500000 0.704715 0.934565
O O9 0.227684 0.747890 0.875132
O O10 0.224999 0.625082 0.937580
O O11 0.750000 0.720279 0.250000
O O12 0.723120 0.619906 0.331812
O O13 0.000000 0.692820 0.326829
O O14 0.750000 0.777159 0.750000
O O15 0.726146 0.879903 0.670570
O O16 0.000000 0.803256 0.673147
O O17 0.750000 0.017205 0.250000
O O18 0.000000 0.043196 0.326678
O O19 0.250000 0.478954 0.750000
O O20 0.294828 0.506102 0.877509
O O21 0.000000 0.481553 0.830512
O O22 0.500000 0.558440 0.962010
O O23 0.779707 0.500000 0.000000
#
# Coordination Sequence:
#
# PCOD9415912 Si02
#       8
#     8   8   8   8   8   8   8   8
#     4   9  17  29  48  74 101 131 168 209 250 293
#     4   9  16  27  46  73 102 130 166 211 251 288
#     4   9  17  30  49  72  98 129 165 205 247 292
#     4  10  19  33  53  76 103 134 169 208 254 307
#     4   9  17  30  48  70  97 128 163 201 243 291
#     4   9  17  29  47  71  98 129 162 200 245 291
#     4  11  22  37  57  79 105 136 172 213 259 311
#     4  10  20  35  55  78 105 137 172 211 258 310
#
# _framework density 20.579747999999999
#
# number of rings (size 3 to 8) (size 9 to 14) (size 15 to 20)
#    0.000    2.500    0.000    3.750    0.000    6.250 
#    0.000    1.875    0.000    2.625    0.000    0.000 
#    0.000    0.000    0.000    0.000    0.000    0.000 
#
# Total GULP energy -357325.711983 kJ/mol
# GULP energy per Si atom -5583.214250 kJ/mol
# Density = 2.053291 g / cm^3
# Si number density = 20.579748 Si / 1000 Ang^3
#
#
#
# Elastic Constant Matrix: (Units=GPa)
#
#
# Indices 1 2 3 4 5 6 
#
# 1 32.3143 -7.1165 -12.7240 0.0000 0.0000 0.0000
# 2 -7.1165 156.8399 130.2140 0.0000 0.0000 0.0000
# 3 -12.7240 130.2140 181.7076 0.0000 0.0000 0.0000
# 4 0.0000 0.0000 0.0000 20.9701 0.0000 0.0000
# 5 0.0000 0.0000 0.0000 0.0000 21.4727 0.0000
# 6 0.0000 0.0000 0.0000 0.0000 0.0000 -1.0112
#
#
#
# Elastic Compliance Matrix: (Units=1/GPa)
#
#
# Indices 1 2 3 4 5 6 
#
# 1 0.031888 -0.001005 0.002953 0.000000 0.000000 0.000000
# 2 -0.001005 0.015773 -0.011374 0.000000 0.000000 0.000000
# 3 0.002953 -0.011374 0.013861 0.000000 0.000000 0.000000
# 4 0.000000 0.000000 0.000000 0.047687 0.000000 0.000000
# 5 0.000000 0.000000 0.000000 0.000000 0.046571 0.000000
# 6 0.000000 0.000000 0.000000 0.000000 0.000000 -0.988939
#
#
# Mechanical properties :
#
#
# Convention : Reuss Voigt Hill
#
# Bulk Modulus (GPa) = 23.43546 65.73432 44.58489
# Shear Modulus (GPa) = -6.24933 25.65222 9.70144
#
# Velocity S-wave (km/s) = -1.74449 3.53438 2.17355
# Velocity P-wave (km/s) = 2.71196 6.97613 5.29250
#
# Compressibility (1/GPa) = 0.04267038
#
# Stress axis : x y z
#
# Youngs Moduli (GPa) = 31.36025 63.39939 72.14735
#
# Poissons Ratio (x) = 0.06370 -0.21304
# Poissons Ratio (y) = 0.03151 0.82057
# Poissons Ratio (z) = -0.09260 0.72107
#
# Static dielectric constant tensor:
#      x y z
#    x 1.767230 0.000000 0.000000 
#    y 0.000000 1.710400 0.000000 
#    z 0.000000 0.000000 1.722360 
# 
# From -- ./inp_files/31119.got.cif
#   From: 2010.05.17/outbox.cif.g08.bks.cpg/sg53_16_cif.got.tgz:31119.got - 2010.06.03 12:45:16.
