data_PCOD9415482
_publ_section_title
;
Structure prediction by ZEFSAII (Michael W. Deem and Ramdas Pophale) SiO2 
 PCOD9415482
Probable space group: P M N A
;
_chemical_formula_sum "Si O2"
_cell_formula_units_Z 64
_cell_length_a 8.798217
_cell_length_b 28.002997
_cell_length_c 15.100963
_cell_angle_alpha 90.000000
_cell_angle_beta 90.000000
_cell_angle_gamma 90.000000
_cell_volume 3720.521569
_symmetry_space_group_name_H-M "P M N A"
_symmetry_group_IT_number 53
_symmetry_cell_setting 'orthorhombic'
loop_
_space_group_symop_operation_xyz
x,y,z
1/2-x,-y,1/2+z
x,-y,-z
1/2-x,y,1/2-z
-x,-y,-z
1/2+x,y,1/2-z
-x,y,z
1/2+x,-y,1/2+z
loop_
_atom_site_type_symbol
_atom_site_label
_atom_site_fract_x
_atom_site_fract_y
_atom_site_fract_z
Si Si1 0.816783 0.577858 0.345003
Si Si2 0.819572 0.886428 0.528318
Si Si3 0.317075 0.467873 0.154675
Si Si4 0.181012 0.696205 0.845003
Si Si5 0.328204 0.021429 0.400852
Si Si6 0.816532 0.080672 0.841871
Si Si7 0.683711 0.618385 0.972105
Si Si8 0.318131 0.191624 0.345684
O O1 0.750000 0.591094 0.250000
O O2 0.771656 0.522650 0.364421
O O3 0.768822 0.611000 0.426380
O O4 0.000000 0.578674 0.340266
O O5 0.773538 0.931937 0.589436
O O6 0.746598 0.894907 0.431147
O O7 0.753004 0.840372 0.577380
O O8 0.000000 0.883838 0.519783
O O9 0.250000 0.454638 0.250000
O O10 0.500000 0.467147 0.159651
O O11 0.271265 0.429458 0.081594
O O12 0.250000 0.681727 0.750000
O O13 0.247570 0.663340 0.921842
O O14 0.217050 0.752198 0.858748
O O15 0.000000 0.691045 0.841025
O O16 0.500000 0.034492 0.372475
O O17 0.339025 0.000000 0.500000
O O18 0.271027 0.975558 0.347550
O O19 0.750000 0.100373 0.750000
O O20 0.000000 0.082574 0.842983
O O21 0.500000 0.621453 0.969442
O O22 0.250000 0.177747 0.250000
O O23 0.500000 0.185797 0.344161
#
# Coordination Sequence:
#
# PCOD9415482 Si02
#       8
#     8   8   8   8   8   8   8   8
#     4   9  18  32  48  68  97 134 172 208 245 287
#     4  11  21  33  53  79 106 137 173 213 257 306
#     4   9  17  29  45  68  99 133 167 202 243 291
#     4  10  21  36  55  78 103 129 159 201 251 304
#     4   8  16  31  48  68  99 136 171 209 249 290
#     4  10  20  34  52  75 106 143 180 216 254 298
#     4  10  19  31  50  73  99 132 167 205 249 298
#     4  10  21  38  57  77 102 131 164 205 254 306
#
# _framework density 17.201889000000001
#
# number of rings (size 3 to 8) (size 9 to 14) (size 15 to 20)
#    0.000    2.375    0.000    3.750    0.000    8.250 
#    0.000    1.250    0.000    4.500    0.000    1.750 
#    0.000    0.000    0.000    0.000    0.000    0.000 
#
# Total GULP energy -356994.257727 kJ/mol
# GULP energy per Si atom -5578.035277 kJ/mol
# Density = 1.716274 g / cm^3
# Si number density = 17.201889 Si / 1000 Ang^3
#
#
#
# Elastic Constant Matrix: (Units=GPa)
#
#
# Indices 1 2 3 4 5 6 
#
# 1 48.2669 41.3631 48.0033 0.0000 0.0000 0.0000
# 2 41.3631 74.8420 75.0744 0.0000 0.0000 0.0000
# 3 48.0033 75.0744 141.2337 0.0000 0.0000 0.0000
# 4 0.0000 0.0000 0.0000 29.4508 0.0000 0.0000
# 5 0.0000 0.0000 0.0000 0.0000 28.0204 0.0000
# 6 0.0000 0.0000 0.0000 0.0000 0.0000 22.7752
#
#
#
# Elastic Compliance Matrix: (Units=1/GPa)
#
#
# Indices 1 2 3 4 5 6 
#
# 1 0.040382 -0.018317 -0.003989 0.000000 0.000000 0.000000
# 2 -0.018317 0.036933 -0.013406 0.000000 0.000000 0.000000
# 3 -0.003989 -0.013406 0.015562 0.000000 0.000000 0.000000
# 4 0.000000 0.000000 0.000000 0.033955 0.000000 0.000000
# 5 0.000000 0.000000 0.000000 0.000000 0.035688 0.000000
# 6 0.000000 0.000000 0.000000 0.000000 0.000000 0.043907
#
#
# Mechanical properties :
#
#
# Convention : Reuss Voigt Hill
#
# Bulk Modulus (GPa) = 46.61299 65.91379 56.26339
# Shear Modulus (GPa) = 17.54369 22.70940 20.12655
#
# Velocity S-wave (km/s) = 3.19701 3.63735 3.42427
# Velocity P-wave (km/s) = 6.38625 7.48608 6.95793
#
# Compressibility (1/GPa) = 0.02145325
#
# Stress axis : x y z
#
# Youngs Moduli (GPa) = 24.76354 27.07631 64.25726
#
# Poissons Ratio (x) = 0.49595 0.25630
# Poissons Ratio (y) = 0.45359 0.86145
# Poissons Ratio (z) = 0.09877 0.36299
#
# Static dielectric constant tensor:
#      x y z
#    x 1.581350 0.000000 0.000000 
#    y 0.000000 1.580340 0.000000 
#    z 0.000000 0.000000 1.585720 
# 
# From -- ./inp_files/21028.got.cif
#   From: 2010.05.17/outbox.cif.g08.bks.cpg/sg53_11_cif.got.tgz:21028.got - 2010.06.03 12:45:16.
