data_PCOD9415247
_publ_section_title
;
Structure prediction by ZEFSAII (Michael W. Deem and Ramdas Pophale) SiO2 
 PCOD9415247
Probable space group: P M N A
;
_chemical_formula_sum "Si O2"
_cell_formula_units_Z 48
_cell_length_a 8.618529
_cell_length_b 14.152897
_cell_length_c 24.677175
_cell_angle_alpha 90.000000
_cell_angle_beta 90.000000
_cell_angle_gamma 90.000000
_cell_volume 3010.051556
_symmetry_space_group_name_H-M "P M N A"
_symmetry_group_IT_number 53
_symmetry_cell_setting 'orthorhombic'
loop_
_space_group_symop_operation_xyz
x,y,z
1/2-x,-y,1/2+z
x,-y,-z
1/2-x,y,1/2-z
-x,-y,-z
1/2+x,y,1/2-z
-x,y,z
1/2+x,-y,1/2+z
loop_
_atom_site_type_symbol
_atom_site_label
_atom_site_fract_x
_atom_site_fract_y
_atom_site_fract_z
Si Si1 0.689009 0.541371 0.583763
Si Si2 0.812648 0.040989 0.415016
Si Si3 0.185499 0.864108 0.808501
Si Si4 0.312680 0.355301 0.308435
Si Si5 0.812866 0.646638 0.025770
Si Si6 0.186861 0.853391 0.476106
O O1 0.500000 0.541628 0.584330
O O2 0.742095 0.581497 0.641230
O O3 0.737130 0.435323 0.567650
O O4 0.735098 0.609555 0.533979
O O5 0.745729 0.074059 0.358179
O O6 0.764558 0.111571 0.463808
O O7 0.000000 0.042813 0.412460
O O8 0.765385 0.936142 0.434530
O O9 0.250000 0.894075 0.750000
O O10 0.234285 0.754321 0.816958
O O11 0.000000 0.866680 0.807137
O O12 0.250000 0.385732 0.250000
O O13 0.500000 0.357844 0.307154
O O14 0.749994 0.750341 0.036542
O O15 0.000000 0.649573 0.026321
O O16 0.000000 0.850914 0.475955
#
# Coordination Sequence:
#
# PCOD9415247 Si02
#       6
#     8   8   8   8   8   8
#     4   8  15  28  45  65  90 117 144 179 222 262
#     4   9  18  32  47  64  91 124 151 180 224 271
#     4  10  19  30  47  70  93 118 149 185 223 264
#     4   9  17  29  44  64  90 117 144 176 216 261
#     4   9  16  28  47  67  87 115 149 183 220 264
#     4   9  18  31  46  66  93 121 147 183 230 268
#
# _framework density 15.946569
#
# number of rings (size 3 to 8) (size 9 to 14) (size 15 to 20)
#    0.000    3.000    0.000    3.500    0.000    3.333 
#    0.000    5.000    0.000    1.000    0.000    4.667 
#    0.000    0.000    0.000    0.000    0.000    0.000 
#
# Total GULP energy -267463.366476 kJ/mol
# GULP energy per Si atom -5572.153468 kJ/mol
# Density = 1.591027 g / cm^3
# Si number density = 15.946569 Si / 1000 Ang^3
#
#
#
# Elastic Constant Matrix: (Units=GPa)
#
#
# Indices 1 2 3 4 5 6 
#
# 1 10.6259 22.4840 27.7270 0.0000 0.0000 0.0000
# 2 22.4840 120.9958 86.8728 0.0000 0.0000 0.0000
# 3 27.7270 86.8728 160.6909 0.0000 0.0000 0.0000
# 4 0.0000 0.0000 0.0000 22.7676 0.0000 0.0000
# 5 0.0000 0.0000 0.0000 0.0000 24.0119 0.0000
# 6 0.0000 0.0000 0.0000 0.0000 0.0000 20.0888
#
#
#
# Elastic Compliance Matrix: (Units=1/GPa)
#
#
# Indices 1 2 3 4 5 6 
#
# 1 0.196735 -0.019916 -0.023179 0.000000 0.000000 0.000000
# 2 -0.019916 0.015524 -0.004956 0.000000 0.000000 0.000000
# 3 -0.023179 -0.004956 0.012902 0.000000 0.000000 0.000000
# 4 0.000000 0.000000 0.000000 0.043922 0.000000 0.000000
# 5 0.000000 0.000000 0.000000 0.000000 0.041646 0.000000
# 6 0.000000 0.000000 0.000000 0.000000 0.000000 0.049779
#
#
# Mechanical properties :
#
#
# Convention : Reuss Voigt Hill
#
# Bulk Modulus (GPa) = 7.74843 62.94225 35.34534
# Shear Modulus (GPa) = 10.00738 23.72224 16.86481
#
# Velocity S-wave (km/s) = 2.50783 3.86114 3.25558
# Velocity P-wave (km/s) = 3.64076 7.70936 6.02866
#
# Compressibility (1/GPa) = 0.12905845
#
# Stress axis : x y z
#
# Youngs Moduli (GPa) = 5.08297 64.41609 77.50674
#
# Poissons Ratio (x) = 1.28291 1.79656
# Poissons Ratio (y) = 0.10123 0.38414
# Poissons Ratio (z) = 0.11782 0.31926
#
# Static dielectric constant tensor:
#      x y z
#    x 1.544120 0.000000 0.000000 
#    y 0.000000 1.525390 0.000000 
#    z 0.000000 0.000000 1.520290 
# 
# From -- ./inp_files/31909.got.cif
#   From: 2010.05.17/outbox.cif.g08.bks.cpg/sg53_16_cif.got.tgz:31909.got - 2010.06.03 12:45:16.
