data_PCOD9415893
_publ_section_title
;
Structure prediction by ZEFSAII (Michael W. Deem and Ramdas Pophale) SiO2 
 PCOD9415893
Probable space group: P M N A
;
_chemical_formula_sum "Si O2"
_cell_formula_units_Z 64
_cell_length_a 8.117436
_cell_length_b 17.316491
_cell_length_c 22.835348
_cell_angle_alpha 90.000000
_cell_angle_beta 90.000000
_cell_angle_gamma 90.000000
_cell_volume 3209.862279
_symmetry_space_group_name_H-M "P M N A"
_symmetry_group_IT_number 53
_symmetry_cell_setting 'orthorhombic'
loop_
_space_group_symop_operation_xyz
x,y,z
1/2-x,-y,1/2+z
x,-y,-z
1/2-x,y,1/2-z
-x,-y,-z
1/2+x,y,1/2-z
-x,y,z
1/2+x,-y,1/2+z
loop_
_atom_site_type_symbol
_atom_site_label
_atom_site_fract_x
_atom_site_fract_y
_atom_site_fract_z
Si Si1 0.300366 0.401418 0.376228
Si Si2 0.197917 0.293846 0.886084
Si Si3 0.304457 0.973082 0.815283
Si Si4 0.801409 0.442246 0.817140
Si Si5 0.184905 0.849661 0.907559
Si Si6 0.803047 0.851534 0.315001
Si Si7 0.798360 0.288096 0.018604
Si Si8 0.690576 0.739896 0.813639
O O1 0.500000 0.396822 0.372602
O O2 0.252903 0.489104 0.361943
O O3 0.251211 0.356973 0.436349
O O4 0.217825 0.349878 0.325838
O O5 0.260723 0.360748 0.842735
O O6 0.240354 0.209929 0.861450
O O7 0.000000 0.300550 0.887685
O O8 0.256507 0.303928 0.952719
O O9 0.250000 0.945533 0.750000
O O10 0.500000 0.975781 0.812457
O O11 0.260138 0.920793 0.871387
O O12 0.239426 0.060637 0.822960
O O13 0.750000 0.455591 0.750000
O O14 0.000000 0.440505 0.817039
O O15 0.260366 0.797578 0.960033
O O16 0.190726 0.783476 0.858100
O O17 0.000000 0.871679 0.924212
O O18 0.750000 0.826354 0.250000
O O19 0.000000 0.853505 0.317615
O O20 0.000000 0.284820 0.019990
O O21 0.750000 0.760241 0.750000
O O22 0.500000 0.761593 0.823548
#
# Coordination Sequence:
#
# PCOD9415893 Si02
#       8
#     8   8   8   8   8   8   8   8
#     4   9  18  34  52  74 104 137 174 216 261 309
#     4  10  20  36  57  80 105 138 179 221 267 315
#     4  10  20  34  53  79 109 139 174 217 266 318
#     4  10  21  34  53  80 108 137 172 219 270 318
#     4  10  19  33  52  75 104 138 176 217 260 309
#     4  10  21  37  57  81 108 139 174 217 268 317
#     4   8  17  34  55  77 104 139 180 220 256 305
#     4  11  20  30  46  70 101 138 176 214 259 310
#
# _framework density 19.938549999999999
#
# number of rings (size 3 to 8) (size 9 to 14) (size 15 to 20)
#    0.000    2.250    0.000    4.125    0.000    5.000 
#    0.000    6.250    0.000    3.750    0.000    5.250 
#    0.000    0.000    0.000    0.000    0.000    0.000 
#
# Total GULP energy -356623.143523 kJ/mol
# GULP energy per Si atom -5572.236618 kJ/mol
# Density = 1.989317 g / cm^3
# Si number density = 19.938550 Si / 1000 Ang^3
#
#
#
# Elastic Constant Matrix: (Units=GPa)
#
#
# Indices 1 2 3 4 5 6 
#
# 1 27.2731 11.4511 9.5337 0.0000 0.0000 0.0000
# 2 11.4511 108.2893 50.5523 0.0000 0.0000 0.0000
# 3 9.5337 50.5523 102.1576 0.0000 0.0000 0.0000
# 4 0.0000 0.0000 0.0000 393.3573 0.0000 0.0000
# 5 0.0000 0.0000 0.0000 0.0000 16.5061 0.0000
# 6 0.0000 0.0000 0.0000 0.0000 0.0000 8.6091
#
#
#
# Elastic Compliance Matrix: (Units=1/GPa)
#
#
# Indices 1 2 3 4 5 6 
#
# 1 0.038701 -0.003129 -0.002063 0.000000 0.000000 0.000000
# 2 -0.003129 0.012262 -0.005776 0.000000 0.000000 0.000000
# 3 -0.002063 -0.005776 0.012839 0.000000 0.000000 0.000000
# 4 0.000000 0.000000 0.000000 0.002542 0.000000 0.000000
# 5 0.000000 0.000000 0.000000 0.000000 0.060584 0.000000
# 6 0.000000 0.000000 0.000000 0.000000 0.000000 0.116156
#
#
# Mechanical properties :
#
#
# Convention : Reuss Voigt Hill
#
# Bulk Modulus (GPa) = 23.88567 42.31047 33.09807
# Shear Modulus (GPa) = 17.92272 94.77336 56.34804
#
# Velocity S-wave (km/s) = 3.00142 6.90188 5.32186
# Velocity P-wave (km/s) = 4.90071 9.20766 7.37557
#
# Compressibility (1/GPa) = 0.04186610
#
# Stress axis : x y z
#
# Youngs Moduli (GPa) = 25.83889 81.55520 77.88546
#
# Poissons Ratio (x) = 0.25521 0.16069
# Poissons Ratio (y) = 0.08086 0.44983
# Poissons Ratio (z) = 0.05331 0.47103
#
# Static dielectric constant tensor:
#      x y z
#    x 1.731870 0.000000 0.000000 
#    y 0.000000 1.740160 0.000000 
#    z 0.000000 0.000000 1.710670 
# 
# From -- ./inp_files/31103.got.cif
#   From: 2010.05.17/outbox.cif.g08.bks.cpg/sg53_16_cif.got.tgz:31103.got - 2010.06.03 12:45:16.
