data_PCOD9415464
_publ_section_title
;
Structure prediction by ZEFSAII (Michael W. Deem and Ramdas Pophale) SiO2 
 PCOD9415464
Probable space group: P M N A
;
_chemical_formula_sum "Si O2"
_cell_formula_units_Z 56
_cell_length_a 8.794368
_cell_length_b 20.571786
_cell_length_c 15.990050
_cell_angle_alpha 90.000000
_cell_angle_beta 90.000000
_cell_angle_gamma 90.000000
_cell_volume 2892.853591
_symmetry_space_group_name_H-M "P M N A"
_symmetry_group_IT_number 53
_symmetry_cell_setting 'orthorhombic'
loop_
_space_group_symop_operation_xyz
x,y,z
1/2-x,-y,1/2+z
x,-y,-z
1/2-x,y,1/2-z
-x,-y,-z
1/2+x,y,1/2-z
-x,y,z
1/2+x,-y,1/2+z
loop_
_atom_site_type_symbol
_atom_site_label
_atom_site_fract_x
_atom_site_fract_y
_atom_site_fract_z
Si Si1 0.324949 0.422170 0.998248
Si Si2 0.672337 0.877365 0.323300
Si Si3 0.677410 0.753246 0.111234
Si Si4 0.825430 0.929467 0.989474
Si Si5 0.317503 0.667739 0.841134
Si Si6 0.817140 0.789102 0.934863
Si Si7 0.178778 0.376745 0.830949
O O1 0.500000 0.400558 0.979568
O O2 0.215607 0.406859 0.920967
O O3 0.327753 0.500000 0.000000
O O4 0.280970 0.384397 0.084159
O O5 0.750000 0.918805 0.250000
O O6 0.500000 0.859260 0.302453
O O7 0.781450 0.816194 0.335894
O O8 0.666894 0.907975 0.414359
O O9 0.500000 0.750296 0.092105
O O10 0.733419 0.691139 0.160761
O O11 0.770251 0.759738 0.024901
O O12 0.766023 0.865592 0.939344
O O13 0.000000 0.939742 0.958299
O O14 0.747838 0.000000 0.000000
O O15 0.250000 0.650440 0.750000
O O16 0.500000 0.670359 0.835361
O O17 0.254625 0.738865 0.868945
O O18 0.000000 0.789241 0.927269
O O19 0.250000 0.412204 0.750000
O O20 0.000000 0.368442 0.819364
#
# Coordination Sequence:
#
# PCOD9415464 Si02
#       7
#     8   8   8   8   8   8   8
#     4  10  23  44  66  90 123 162 202 253 312 370
#     4  10  19  31  49  75 106 141 183 230 283 344
#     4  11  20  33  54  81 115 149 185 230 286 347
#     4   8  16  32  54  79 110 151 193 236 294 361
#     4  11  23  40  65  92 124 164 210 263 312 367
#     4  10  19  34  59  88 118 153 197 247 299 359
#     4  12  24  38  59  87 121 157 196 240 294 357
#
# _framework density 19.358046999999999
#
# number of rings (size 3 to 8) (size 9 to 14) (size 15 to 20)
#    0.000    1.714    1.429    5.143    0.000    1.429 
#    0.000    2.143    0.000   17.143    0.000    0.000 
#    0.000    0.000    0.000    0.000    0.000    0.000 
#
# Total GULP energy -311968.034794 kJ/mol
# GULP energy per Si atom -5570.857764 kJ/mol
# Density = 1.931399 g / cm^3
# Si number density = 19.358047 Si / 1000 Ang^3
#
#
#
# Elastic Constant Matrix: (Units=GPa)
#
#
# Indices 1 2 3 4 5 6 
#
# 1 72.6742 27.8898 30.4163 0.0000 0.0000 0.0000
# 2 27.8898 97.5250 32.6342 0.0000 0.0000 0.0000
# 3 30.4163 32.6342 101.2414 0.0000 0.0000 0.0000
# 4 0.0000 0.0000 0.0000 0.6067 0.0000 0.0000
# 5 0.0000 0.0000 0.0000 0.0000 29.2110 0.0000
# 6 0.0000 0.0000 0.0000 0.0000 0.0000 13.7279
#
#
#
# Elastic Compliance Matrix: (Units=1/GPa)
#
#
# Indices 1 2 3 4 5 6 
#
# 1 0.016729 -0.003477 -0.003905 0.000000 0.000000 0.000000
# 2 -0.003477 0.012216 -0.002893 0.000000 0.000000 0.000000
# 3 -0.003905 -0.002893 0.011983 0.000000 0.000000 0.000000
# 4 0.000000 0.000000 0.000000 1.648223 0.000000 0.000000
# 5 0.000000 0.000000 0.000000 0.000000 0.034234 0.000000
# 6 0.000000 0.000000 0.000000 0.000000 0.000000 0.072844
#
#
# Mechanical properties :
#
#
# Convention : Reuss Voigt Hill
#
# Bulk Modulus (GPa) = 49.07394 50.36900 49.72147
# Shear Modulus (GPa) = 2.74187 20.74248 11.74217
#
# Velocity S-wave (km/s) = 1.19142 3.27695 2.46555
# Velocity P-wave (km/s) = 5.22478 6.35563 5.81775
#
# Compressibility (1/GPa) = 0.02037742
#
# Stress axis : x y z
#
# Youngs Moduli (GPa) = 59.77678 81.85769 83.45059
#
# Poissons Ratio (x) = 0.28465 0.32588
# Poissons Ratio (y) = 0.20786 0.24143
# Poissons Ratio (z) = 0.23343 0.23682
#
# Static dielectric constant tensor:
#      x y z
#    x 1.663610 0.000000 0.000000 
#    y 0.000000 1.720650 0.000000 
#    z 0.000000 0.000000 1.746490 
# 
# From -- ./inp_files/20517.got.cif
#   From: 2010.05.17/outbox.cif.g08.bks.cpg/sg53_11_cif.got.tgz:20517.got - 2010.06.03 12:45:16.
