data_PCOD9415458
_publ_section_title
;
Structure prediction by ZEFSAII (Michael W. Deem and Ramdas Pophale) SiO2 
 PCOD9415458
Probable space group: P M N A
;
_chemical_formula_sum "Si O2"
_cell_formula_units_Z 44
_cell_length_a 17.184339
_cell_length_b 5.408439
_cell_length_c 18.981710
_cell_angle_alpha 90.000000
_cell_angle_beta 90.000000
_cell_angle_gamma 90.000000
_cell_volume 1764.168655
_symmetry_space_group_name_H-M "P M N A"
_symmetry_group_IT_number 53
_symmetry_cell_setting 'orthorhombic'
loop_
_space_group_symop_operation_xyz
x,y,z
1/2-x,-y,1/2+z
x,-y,-z
1/2-x,y,1/2-z
-x,-y,-z
1/2+x,y,1/2-z
-x,y,z
1/2+x,-y,1/2+z
loop_
_atom_site_type_symbol
_atom_site_label
_atom_site_fract_x
_atom_site_fract_y
_atom_site_fract_z
Si Si1 0.328661 0.749829 0.046794
Si Si2 0.661117 0.348611 0.596895
Si Si3 0.159736 0.623521 0.257877
Si Si4 0.000000 0.750306 0.453598
Si Si5 0.088691 0.846384 0.909583
Si Si6 0.589090 0.874465 0.762162
O O1 0.251945 0.721842 0.094293
O O2 0.414779 0.754957 0.081285
O O3 0.327277 0.500000 0.000000
O O4 0.320795 0.000000 0.000000
O O5 0.630927 0.364232 0.677038
O O6 0.645113 0.622807 0.568293
O O7 0.614095 0.118091 0.565855
O O8 0.250000 0.562875 0.250000
O O9 0.117344 0.388759 0.291887
O O10 0.144001 0.899838 0.284001
O O11 0.000000 0.500000 0.500000
O O12 0.000000 0.000000 0.500000
O O13 0.092212 0.858233 0.823386
O O14 0.000000 0.787947 0.928625
O O15 0.500000 0.923658 0.782433
#
# Coordination Sequence:
#
# PCOD9415458 Si02
#       6
#     8   8   8   4   8   8
#     4  10  19  33  53  75  97 126 166 208 244 296
#     4  10  19  31  51  75  98 130 163 205 250 287
#     4  10  19  31  49  75 100 131 161 203 249 298
#     4   8  16  30  50  72  90 118 160 200 240 286
#     4   9  17  30  49  73  97 127 169 202 232 282
#     4   9  17  30  49  70  94 127 171 207 231 279
#
# _framework density 24.940926000000001
#
# number of rings (size 3 to 8) (size 9 to 14) (size 15 to 20)
#    0.000    2.545    0.000    2.727    0.000    4.364 
#    0.000    0.000    4.000   10.909    4.727    0.000 
#    0.000    0.000    0.000    0.000    0.000    0.000 
#
# Total GULP energy -245904.621146 kJ/mol
# GULP energy per Si atom -5588.741390 kJ/mol
# Density = 2.488416 g / cm^3
# Si number density = 24.940926 Si / 1000 Ang^3
#
#
#
# Elastic Constant Matrix: (Units=GPa)
#
#
# Indices 1 2 3 4 5 6 
#
# 1 140.0275 44.7310 -10.5763 0.0000 0.0000 0.0000
# 2 44.7310 196.3870 22.9692 0.0000 0.0000 0.0000
# 3 -10.5763 22.9692 53.5479 0.0000 0.0000 0.0000
# 4 0.0000 0.0000 0.0000 18.7918 0.0000 0.0000
# 5 0.0000 0.0000 0.0000 0.0000 22.1041 0.0000
# 6 0.0000 0.0000 0.0000 0.0000 0.0000 40.9379
#
#
#
# Elastic Compliance Matrix: (Units=1/GPa)
#
#
# Indices 1 2 3 4 5 6 
#
# 1 0.008005 -0.002114 0.002488 0.000000 0.000000 0.000000
# 2 -0.002114 0.005919 -0.002957 0.000000 0.000000 0.000000
# 3 0.002488 -0.002957 0.020434 0.000000 0.000000 0.000000
# 4 0.000000 0.000000 0.000000 0.053215 0.000000 0.000000
# 5 0.000000 0.000000 0.000000 0.000000 0.045240 0.000000
# 6 0.000000 0.000000 0.000000 0.000000 0.000000 0.024427
#
#
# Mechanical properties :
#
#
# Convention : Reuss Voigt Hill
#
# Bulk Modulus (GPa) = 34.25523 56.02338 45.13931
# Shear Modulus (GPa) = 29.04651 38.55601 33.80126
#
# Velocity S-wave (km/s) = 3.41634 3.93605 3.68537
# Velocity P-wave (km/s) = 5.41537 6.57022 6.02055
#
# Compressibility (1/GPa) = 0.02919262
#
# Stress axis : x y z
#
# Youngs Moduli (GPa) = 124.92596 168.93745 48.93686
#
# Poissons Ratio (x) = 0.35717 -0.12175
# Poissons Ratio (y) = 0.26412 0.14469
# Poissons Ratio (z) = -0.31080 0.49949
#
# Static dielectric constant tensor:
#      x y z
#    x 1.897660 0.000000 0.000000 
#    y 0.000000 1.923980 0.000000 
#    z 0.000000 0.000000 2.088970 
# 
# From -- ./inp_files/36929.got.cif
#   From: 2010.05.17/outbox.cif.g08.bks.cpg/sg53_19_cif.got.tgz:36929.got - 2010.06.03 12:45:16.
