data_PCOD9415561
_publ_section_title
;
Structure prediction by ZEFSAII (Michael W. Deem and Ramdas Pophale) SiO2 
 PCOD9415561
Probable space group: P M N A
;
_chemical_formula_sum "Si O2"
_cell_formula_units_Z 64
_cell_length_a 9.002862
_cell_length_b 18.898561
_cell_length_c 26.862338
_cell_angle_alpha 90.000000
_cell_angle_beta 90.000000
_cell_angle_gamma 90.000000
_cell_volume 4570.388721
_symmetry_space_group_name_H-M "P M N A"
_symmetry_group_IT_number 53
_symmetry_cell_setting 'orthorhombic'
loop_
_space_group_symop_operation_xyz
x,y,z
1/2-x,-y,1/2+z
x,-y,-z
1/2-x,y,1/2-z
-x,-y,-z
1/2+x,y,1/2-z
-x,y,z
1/2+x,-y,1/2+z
loop_
_atom_site_type_symbol
_atom_site_label
_atom_site_fract_x
_atom_site_fract_y
_atom_site_fract_z
Si Si1 0.320278 0.668747 0.007363
Si Si2 0.329803 0.461513 0.054020
Si Si3 0.178785 0.085257 0.601457
Si Si4 0.821672 0.338683 0.696487
Si Si5 0.678046 0.827265 0.197315
Si Si6 0.828186 0.957250 0.947526
Si Si7 0.322951 0.589481 0.398536
Si Si8 0.178148 0.832442 0.499809
O O1 0.500000 0.663904 0.014825
O O2 0.284019 0.617951 0.960574
O O3 0.280709 0.750163 0.998466
O O4 0.241810 0.637614 0.056394
O O5 0.500000 0.462298 0.072492
O O6 0.227162 0.509350 0.088557
O O7 0.330633 0.500000 0.000000
O O8 0.228009 0.123180 0.652057
O O9 0.217987 0.135261 0.554364
O O10 0.000000 0.079532 0.601989
O O11 0.247422 0.008446 0.591456
O O12 0.750000 0.355778 0.750000
O O13 0.788871 0.255367 0.686554
O O14 0.750687 0.384009 0.652393
O O15 0.000000 0.347186 0.697889
O O16 0.750000 0.845798 0.250000
O O17 0.500000 0.832889 0.201313
O O18 0.752104 0.882444 0.958986
O O19 0.000000 0.948355 0.934778
O O20 0.818915 0.000000 0.000000
O O21 0.500000 0.595197 0.396734
O O22 0.000000 0.837645 0.504614
#
# Coordination Sequence:
#
# PCOD9415561 Si02
#       8
#     8   8   8   8   8   8   8   8
#     4   9  17  29  44  61  82 110 142 173 207 246
#     4   8  15  28  43  58  79 108 139 171 206 243
#     4   9  16  27  42  58  78 108 141 167 197 239
#     4  10  19  32  46  61  83 109 140 176 211 245
#     4   9  18  30  44  61  81 106 137 173 208 241
#     4   9  17  27  38  56  81 106 133 167 204 239
#     4  11  20  28  41  61  84 112 143 172 206 245
#     4   9  16  27  43  60  79 106 139 171 203 243
#
# _framework density 14.003185999999999
#
# number of rings (size 3 to 8) (size 9 to 14) (size 15 to 20)
#    0.000    2.750    0.000    3.375    0.000    7.250 
#    0.000    2.500    0.000    0.000    0.000    0.000 
#    0.000    1.000    0.000    6.500    0.000    4.875 
#
# Total GULP energy -356545.441505 kJ/mol
# GULP energy per Si atom -5571.022524 kJ/mol
# Density = 1.397131 g / cm^3
# Si number density = 14.003186 Si / 1000 Ang^3
#
#
#
# Elastic Constant Matrix: (Units=GPa)
#
#
# Indices 1 2 3 4 5 6 
#
# 1 52.1049 46.8772 45.1614 0.0000 0.0000 0.0000
# 2 46.8772 119.2693 60.8933 0.0000 0.0000 0.0000
# 3 45.1614 60.8933 88.0801 0.0000 0.0000 0.0000
# 4 0.0000 0.0000 0.0000 25.8636 0.0000 0.0000
# 5 0.0000 0.0000 0.0000 0.0000 20.9803 0.0000
# 6 0.0000 0.0000 0.0000 0.0000 0.0000 14.4521
#
#
#
# Elastic Compliance Matrix: (Units=1/GPa)
#
#
# Indices 1 2 3 4 5 6 
#
# 1 0.038800 -0.007871 -0.014452 0.000000 0.000000 0.000000
# 2 -0.007871 0.014555 -0.006027 0.000000 0.000000 0.000000
# 3 -0.014452 -0.006027 0.022930 0.000000 0.000000 0.000000
# 4 0.000000 0.000000 0.000000 0.038664 0.000000 0.000000
# 5 0.000000 0.000000 0.000000 0.000000 0.047664 0.000000
# 6 0.000000 0.000000 0.000000 0.000000 0.000000 0.069194
#
#
# Mechanical properties :
#
#
# Convention : Reuss Voigt Hill
#
# Bulk Modulus (GPa) = 51.06052 62.81313 56.93682
# Shear Modulus (GPa) = 16.94713 19.36069 18.15391
#
# Velocity S-wave (km/s) = 3.48262 3.72236 3.60448
# Velocity P-wave (km/s) = 7.26045 7.96419 7.62045
#
# Compressibility (1/GPa) = 0.01958460
#
# Stress axis : x y z
#
# Youngs Moduli (GPa) = 25.77331 68.70512 43.61114
#
# Poissons Ratio (x) = 0.54079 0.63028
# Poissons Ratio (y) = 0.20286 0.26283
# Poissons Ratio (z) = 0.37248 0.41406
#
# Static dielectric constant tensor:
#      x y z
#    x 1.466890 0.000000 0.000000 
#    y 0.000000 1.468070 0.000000 
#    z 0.000000 0.000000 1.436760 
# 
# From -- ./inp_files/34512.got.cif
#   From: 2010.05.17/outbox.cif.g08.bks.cpg/sg53_18_cif.got.tgz:34512.got - 2010.06.03 12:45:16.
