data_PCOD9415778
_publ_section_title
;
Structure prediction by ZEFSAII (Michael W. Deem and Ramdas Pophale) SiO2 
 PCOD9415778
Probable space group: P M N A
;
_chemical_formula_sum "Si O2"
_cell_formula_units_Z 64
_cell_length_a 7.796155
_cell_length_b 11.053804
_cell_length_c 35.086449
_cell_angle_alpha 90.000000
_cell_angle_beta 90.000000
_cell_angle_gamma 90.000000
_cell_volume 3023.650856
_symmetry_space_group_name_H-M "P M N A"
_symmetry_group_IT_number 53
_symmetry_cell_setting 'orthorhombic'
loop_
_space_group_symop_operation_xyz
x,y,z
1/2-x,-y,1/2+z
x,-y,-z
1/2-x,y,1/2-z
-x,-y,-z
1/2+x,y,1/2-z
-x,y,z
1/2+x,-y,1/2+z
loop_
_atom_site_type_symbol
_atom_site_label
_atom_site_fract_x
_atom_site_fract_y
_atom_site_fract_z
Si Si1 0.293179 0.318138 0.018548
Si Si2 0.292861 0.930064 0.937108
Si Si3 0.700725 0.788062 0.633942
Si Si4 0.206107 0.799647 0.207456
Si Si5 0.198207 0.450474 0.408939
Si Si6 0.199149 0.306843 0.871035
Si Si7 0.300033 0.806917 0.052196
Si Si8 0.293772 0.076958 0.292551
O O1 0.500000 0.339169 0.018385
O O2 0.257541 0.185905 0.036695
O O3 0.227870 0.415628 0.049233
O O4 0.230031 0.298621 0.975445
O O5 0.500000 0.936879 0.933810
O O6 0.218863 0.898217 0.895821
O O7 0.227407 0.058283 0.952339
O O8 0.500000 0.755570 0.637243
O O9 0.793806 0.674109 0.614950
O O10 0.769161 0.834676 0.674303
O O11 0.250000 0.756193 0.250000
O O12 0.266040 0.721070 0.171377
O O13 0.270130 0.938445 0.203321
O O14 0.000000 0.803084 0.206167
O O15 0.285495 0.555394 0.384877
O O16 0.000000 0.488208 0.413833
O O17 0.287640 0.229269 0.903983
O O18 0.000000 0.271756 0.871802
O O19 0.500000 0.816434 0.041423
O O20 0.250000 0.117780 0.250000
O O21 0.500000 0.072648 0.296452
#
# Coordination Sequence:
#
# PCOD9415778 Si02
#       8
#     8   8   8   8   8   8   8   8
#     4   8  16  32  53  76 103 136 176 222 263 299
#     4   9  17  30  51  78 105 136 175 216 258 308
#     4  10  19  33  53  76 105 138 169 207 262 316
#     4   9  19  36  57  80 107 137 167 205 254 307
#     4  10  21  38  57  75  98 135 184 226 258 300
#     4  11  23  38  54  76 108 140 173 217 269 316
#     4  10  19  32  53  79 106 139 179 219 258 305
#     4   9  18  32  52  79 108 135 163 200 251 310
#
# _framework density 21.166464000000001
#
# number of rings (size 3 to 8) (size 9 to 14) (size 15 to 20)
#    0.000    2.500    0.000    3.000    0.000    5.500 
#    0.000    8.750    0.000    3.750    0.000    0.000 
#    0.000    0.000    0.000    0.000    0.000    0.000 
#
# Total GULP energy -357064.614120 kJ/mol
# GULP energy per Si atom -5579.134596 kJ/mol
# Density = 2.111829 g / cm^3
# Si number density = 21.166464 Si / 1000 Ang^3
#
#
#
# Elastic Constant Matrix: (Units=GPa)
#
#
# Indices 1 2 3 4 5 6 
#
# 1 27.1534 -6.8413 -6.5812 0.0000 0.0000 0.0000
# 2 -6.8413 56.4910 2.0307 0.0000 0.0000 0.0000
# 3 -6.5812 2.0307 71.7895 0.0000 0.0000 0.0000
# 4 0.0000 0.0000 0.0000 18.3328 0.0000 0.0000
# 5 0.0000 0.0000 0.0000 0.0000 14.4486 0.0000
# 6 0.0000 0.0000 0.0000 0.0000 0.0000 16.9588
#
#
#
# Elastic Compliance Matrix: (Units=1/GPa)
#
#
# Indices 1 2 3 4 5 6 
#
# 1 0.038812 0.004577 0.003429 0.000000 0.000000 0.000000
# 2 0.004577 0.018260 -0.000097 0.000000 0.000000 0.000000
# 3 0.003429 -0.000097 0.014247 0.000000 0.000000 0.000000
# 4 0.000000 0.000000 0.000000 0.054547 0.000000 0.000000
# 5 0.000000 0.000000 0.000000 0.000000 0.069211 0.000000
# 6 0.000000 0.000000 0.000000 0.000000 0.000000 0.058966
#
#
# Mechanical properties :
#
#
# Convention : Reuss Voigt Hill
#
# Bulk Modulus (GPa) = 11.47633 14.73891 13.10762
# Shear Modulus (GPa) = 18.70765 21.06976 19.88870
#
# Velocity S-wave (km/s) = 2.97616 3.15847 3.06867
# Velocity P-wave (km/s) = 4.15256 4.50330 4.33148
#
# Compressibility (1/GPa) = 0.08713588
#
# Stress axis : x y z
#
# Youngs Moduli (GPa) = 25.76521 54.76531 70.19186
#
# Poissons Ratio (x) = -0.25067 -0.24066
# Poissons Ratio (y) = -0.11793 0.00680
# Poissons Ratio (z) = -0.08834 0.00531
#
# Static dielectric constant tensor:
#      x y z
#    x 1.780010 0.000000 0.000000 
#    y 0.000000 1.768820 0.000000 
#    z 0.000000 0.000000 1.789930 
# 
# From -- ./inp_files/38207.got.cif
#   From: 2010.05.17/outbox.cif.g08.bks.cpg/sg53_20_cif.got.tgz:38207.got - 2010.06.03 12:45:16.
