data_PCOD9415934
_publ_section_title
;
Structure prediction by ZEFSAII (Michael W. Deem and Ramdas Pophale) SiO2 
 PCOD9415934
Probable space group: P M N A
;
_chemical_formula_sum "Si O2"
_cell_formula_units_Z 32
_cell_length_a 5.514431
_cell_length_b 26.340265
_cell_length_c 10.900047
_cell_angle_alpha 90.000000
_cell_angle_beta 90.000000
_cell_angle_gamma 90.000000
_cell_volume 1583.248982
_symmetry_space_group_name_H-M "P M N A"
_symmetry_group_IT_number 53
_symmetry_cell_setting 'orthorhombic'
loop_
_space_group_symop_operation_xyz
x,y,z
1/2-x,-y,1/2+z
x,-y,-z
1/2-x,y,1/2-z
-x,-y,-z
1/2+x,y,1/2-z
-x,y,z
1/2+x,-y,1/2+z
loop_
_atom_site_type_symbol
_atom_site_label
_atom_site_fract_x
_atom_site_fract_y
_atom_site_fract_z
Si Si1 0.000000 0.458728 0.711714
Si Si2 0.000000 0.202935 0.671980
Si Si3 0.000000 0.102530 0.526439
Si Si4 0.500000 0.874859 0.748383
Si Si5 0.500000 0.939660 0.494753
Si Si6 0.500000 0.453400 0.398074
Si Si7 0.000000 0.319610 0.670125
Si Si8 0.500000 0.409973 0.027853
O O1 0.250000 0.433160 0.750000
O O2 0.000000 0.513010 0.775400
O O3 0.000000 0.456238 0.568929
O O4 0.750000 0.195959 0.750000
O O5 0.000000 0.261000 0.626414
O O6 0.000000 0.161076 0.565406
O O7 0.251809 0.078169 0.569587
O O8 0.000000 0.096008 0.378325
O O9 0.750000 0.844620 0.750000
O O10 0.500000 0.911996 0.629887
O O11 0.500000 0.000000 0.500000
O O12 0.500000 0.500000 0.500000
O O13 0.259696 0.418749 0.408000
O O14 0.750000 0.324767 0.750000
O O15 0.000000 0.359615 0.557584
#
# Coordination Sequence:
#
# PCOD9415934 Si02
#       8
#     4   4   4   4   4   4   4   4
#     4  12  21  33  50  72 104 139 175 215 259 318
#     4  10  21  38  57  83 114 141 189 235 290 347
#     4  10  19  35  55  77 109 149 186 229 279 335
#     4   8  16  30  49  73 103 133 177 221 260 305
#     4  10  19  33  53  82 115 147 186 229 277 326
#     4  12  23  34  51  80 109 142 182 223 260 338
#     4  10  21  37  58  81 107 146 178 240 294 333
#     4  12  22  37  54  78 113 139 185 225 278 334
#
# _framework density 20.211603
#
# number of rings (size 3 to 8) (size 9 to 14) (size 15 to 20)
#    0.000    1.500    2.500    3.750    0.000    0.000 
#    0.000   11.250    0.000    0.000    0.000   15.750 
#    0.000    0.000    0.000    0.000    0.000    0.000 
#
# Total GULP energy -178145.562474 kJ/mol
# GULP energy per Si atom -5567.048827 kJ/mol
# Density = 2.016560 g / cm^3
# Si number density = 20.211603 Si / 1000 Ang^3
#
#
#
# Elastic Constant Matrix: (Units=GPa)
#
#
# Indices 1 2 3 4 5 6 
#
# 1 239.5468 54.4193 15.4127 0.0000 0.0000 0.0000
# 2 54.4193 144.5502 27.6463 0.0000 0.0000 0.0000
# 3 15.4127 27.6463 33.3270 0.0000 0.0000 0.0000
# 4 0.0000 0.0000 0.0000 23.0308 0.0000 0.0000
# 5 0.0000 0.0000 0.0000 0.0000 15.7332 0.0000
# 6 0.0000 0.0000 0.0000 0.0000 0.0000 34.5917
#
#
#
# Elastic Compliance Matrix: (Units=1/GPa)
#
#
# Indices 1 2 3 4 5 6 
#
# 1 0.004584 -0.001569 -0.000818 0.000000 0.000000 0.000000
# 2 -0.001569 0.008760 -0.006541 0.000000 0.000000 0.000000
# 3 -0.000818 -0.006541 0.035810 0.000000 0.000000 0.000000
# 4 0.000000 0.000000 0.000000 0.043420 0.000000 0.000000
# 5 0.000000 0.000000 0.000000 0.000000 0.063560 0.000000
# 6 0.000000 0.000000 0.000000 0.000000 0.000000 0.028909
#
#
# Mechanical properties :
#
#
# Convention : Reuss Voigt Hill
#
# Bulk Modulus (GPa) = 31.95187 68.04229 49.99708
# Shear Modulus (GPa) = 23.43778 36.00087 29.71932
#
# Velocity S-wave (km/s) = 3.40901 4.22500 3.83875
# Velocity P-wave (km/s) = 5.59805 7.58544 6.66622
#
# Compressibility (1/GPa) = 0.03129708
#
# Stress axis : x y z
#
# Youngs Moduli (GPa) = 218.16612 114.15839 27.92510
#
# Poissons Ratio (x) = 0.17913 0.02285
# Poissons Ratio (y) = 0.34234 0.18266
# Poissons Ratio (z) = 0.17849 0.74670
#
# Static dielectric constant tensor:
#      x y z
#    x 1.812290 0.000000 0.000000 
#    y 0.000000 1.674580 0.000000 
#    z 0.000000 0.000000 1.778720 
# 
# From -- ./inp_files/13407.got.cif
#   From: 2010.05.17/outbox.cif.g08.bks.cpg/sg53_7_cif.got.tgz:13407.got - 2010.06.03 12:45:16.
