data_PCOD9415534
_publ_section_title
;
Structure prediction by ZEFSAII (Michael W. Deem and Ramdas Pophale) SiO2 
 PCOD9415534
Probable space group: P M N A
;
_chemical_formula_sum "Si O2"
_cell_formula_units_Z 48
_cell_length_a 7.984817
_cell_length_b 15.590093
_cell_length_c 21.374056
_cell_angle_alpha 90.000000
_cell_angle_beta 90.000000
_cell_angle_gamma 90.000000
_cell_volume 2660.728834
_symmetry_space_group_name_H-M "P M N A"
_symmetry_group_IT_number 53
_symmetry_cell_setting 'orthorhombic'
loop_
_space_group_symop_operation_xyz
x,y,z
1/2-x,-y,1/2+z
x,-y,-z
1/2-x,y,1/2-z
-x,-y,-z
1/2+x,y,1/2-z
-x,y,z
1/2+x,-y,1/2+z
loop_
_atom_site_type_symbol
_atom_site_label
_atom_site_fract_x
_atom_site_fract_y
_atom_site_fract_z
Si Si1 0.297569 0.577451 0.956448
Si Si2 0.198988 0.007974 0.316054
Si Si3 0.297957 0.384001 0.182991
Si Si4 0.303667 0.194836 0.159521
Si Si5 0.299419 0.769124 0.521198
Si Si6 0.201247 0.068382 0.947873
O O1 0.500000 0.574312 0.955489
O O2 0.241622 0.575288 0.883299
O O3 0.247261 0.669628 0.984640
O O4 0.236417 0.500000 0.000000
O O5 0.250000 0.967902 0.250000
O O6 0.250051 0.958860 0.378472
O O7 0.000000 0.015322 0.317510
O O8 0.272921 0.105114 0.318657
O O9 0.250000 0.423253 0.250000
O O10 0.500000 0.381203 0.180246
O O11 0.230484 0.285579 0.181973
O O12 0.500000 0.195695 0.176353
O O13 0.285537 0.198084 0.084837
O O14 0.500000 0.775027 0.529029
O O15 0.247106 0.835567 0.467419
O O16 0.000000 0.065626 0.950820
O O17 0.263996 0.000000 0.000000
#
# Coordination Sequence:
#
# PCOD9415534 Si02
#       6
#     8   8   8   8   8   8
#     4   9  19  36  55  74 101 134 169 210 256 310
#     4  11  22  33  49  72 102 140 180 222 263 308
#     4   9  17  29  46  70  99 129 159 194 244 301
#     4   9  18  31  46  69 101 136 170 201 244 309
#     4  10  19  31  52  78 102 131 168 215 259 299
#     4  10  20  35  52  73 104 139 175 214 258 308
#
# _framework density 18.040171000000001
#
# number of rings (size 3 to 8) (size 9 to 14) (size 15 to 20)
#    0.000    2.333    1.667    2.500    0.000    5.333 
#    0.000    0.000    0.000    1.000    0.000    4.667 
#    0.000    0.000    0.000    0.000    0.000    0.000 
#
# Total GULP energy -267549.573243 kJ/mol
# GULP energy per Si atom -5573.949443 kJ/mol
# Density = 1.799911 g / cm^3
# Si number density = 18.040171 Si / 1000 Ang^3
#
#
#
# Elastic Constant Matrix: (Units=GPa)
#
#
# Indices 1 2 3 4 5 6 
#
# 1 13.2163 9.5367 7.7210 0.0000 0.0000 0.0000
# 2 9.5367 92.8990 81.9718 0.0000 0.0000 0.0000
# 3 7.7210 81.9718 164.7566 0.0000 0.0000 0.0000
# 4 0.0000 0.0000 0.0000 10.5149 0.0000 0.0000
# 5 0.0000 0.0000 0.0000 0.0000 24.0137 0.0000
# 6 0.0000 0.0000 0.0000 0.0000 0.0000 18.0142
#
#
#
# Elastic Compliance Matrix: (Units=1/GPa)
#
#
# Indices 1 2 3 4 5 6 
#
# 1 0.081752 -0.008934 0.000614 0.000000 0.000000 0.000000
# 2 -0.008934 0.020165 -0.009614 0.000000 0.000000 0.000000
# 3 0.000614 -0.009614 0.010824 0.000000 0.000000 0.000000
# 4 0.000000 0.000000 0.000000 0.095103 0.000000 0.000000
# 5 0.000000 0.000000 0.000000 0.000000 0.041643 0.000000
# 6 0.000000 0.000000 0.000000 0.000000 0.000000 0.055512
#
#
# Mechanical properties :
#
#
# Convention : Reuss Voigt Hill
#
# Bulk Modulus (GPa) = 13.00855 52.14787 32.57821
# Shear Modulus (GPa) = 13.64291 21.95139 17.79715
#
# Velocity S-wave (km/s) = 2.75299 3.49206 3.14431
# Velocity P-wave (km/s) = 4.16315 6.72522 5.59287
#
# Compressibility (1/GPa) = 0.07687250
#
# Stress axis : x y z
#
# Youngs Moduli (GPa) = 12.23211 49.59197 92.38730
#
# Poissons Ratio (x) = 0.44306 -0.05671
# Poissons Ratio (y) = 0.10928 0.88820
# Poissons Ratio (z) = -0.00751 0.47677
#
# Static dielectric constant tensor:
#      x y z
#    x 1.644490 0.000000 0.000000 
#    y 0.000000 1.628220 0.000000 
#    z 0.000000 0.000000 1.615050 
# 
# From -- ./inp_files/26392.got.cif
#   From: 2010.05.17/outbox.cif.g08.bks.cpg/sg53_14_cif.got.tgz:26392.got - 2010.06.03 12:45:16.
