data_PCOD9415054
_publ_section_title
;
Structure prediction by ZEFSAII (Michael W. Deem and Ramdas Pophale) SiO2 
 PCOD9415054
Probable space group: P M N A
;
_chemical_formula_sum "Si O2"
_cell_formula_units_Z 56
_cell_length_a 21.658634
_cell_length_b 11.469158
_cell_length_c 11.137218
_cell_angle_alpha 90.000000
_cell_angle_beta 90.000000
_cell_angle_gamma 90.000000
_cell_volume 2766.555065
_symmetry_space_group_name_H-M "P M N A"
_symmetry_group_IT_number 53
_symmetry_cell_setting 'orthorhombic'
loop_
_space_group_symop_operation_xyz
x,y,z
1/2-x,-y,1/2+z
x,-y,-z
1/2-x,y,1/2-z
-x,-y,-z
1/2+x,y,1/2-z
-x,y,z
1/2+x,-y,1/2+z
loop_
_atom_site_type_symbol
_atom_site_label
_atom_site_fract_x
_atom_site_fract_y
_atom_site_fract_z
Si Si1 0.934447 0.212617 0.247757
Si Si2 0.672533 0.722838 0.328383
Si Si3 0.596551 0.366762 0.476217
Si Si4 0.794262 0.160860 0.594854
Si Si5 0.069607 0.549879 0.633106
Si Si6 0.189701 0.892758 0.671285
Si Si7 0.188207 0.535369 0.802618
O O1 0.935167 0.288766 0.124941
O O2 0.931887 0.310023 0.353011
O O3 0.872841 0.137756 0.258178
O O4 0.000000 0.148453 0.256724
O O5 0.609687 0.704735 0.402739
O O6 0.668948 0.757940 0.188961
O O7 0.721483 0.812885 0.384608
O O8 0.703393 0.595742 0.340248
O O9 0.572808 0.500000 0.500000
O O10 0.662487 0.390677 0.412184
O O11 0.809324 0.175426 0.455433
O O12 0.807723 0.028718 0.635002
O O13 0.077542 0.500000 0.500000
O O14 0.129125 0.519839 0.714337
O O15 0.000000 0.511545 0.675153
O O16 0.250000 0.867420 0.750000
O O17 0.250000 0.588824 0.750000
#
# Coordination Sequence:
#
# PCOD9415054 Si02
#       7
#     8   8   8   8   8   8   8
#     4  10  22  39  59  87 122 159 198 251 307 355
#     4  10  18  36  55  86 122 153 187 248 302 349
#     4   9  20  35  57  85 119 157 204 233 298 363
#     4  10  21  36  59  89 117 155 200 249 307 348
#     4   9  20  36  53  78 117 163 199 234 290 363
#     4  11  22  39  63  92 112 154 209 251 300 364
#     4  10  19  31  54  89 119 154 191 248 291 354
#
# _framework density 20.241781
#
# number of rings (size 3 to 8) (size 9 to 14) (size 15 to 20)
#    0.000    2.143    2.857    0.857    2.000    6.571 
#    0.000    3.571    0.000    3.429    0.000    0.000 
#    0.000    0.000    0.000    0.000    0.000    0.000 
#
# Total GULP energy -311898.893996 kJ/mol
# GULP energy per Si atom -5569.623107 kJ/mol
# Density = 2.019571 g / cm^3
# Si number density = 20.241781 Si / 1000 Ang^3
#
#
#
# Elastic Constant Matrix: (Units=GPa)
#
#
# Indices 1 2 3 4 5 6 
#
# 1 144.4704 30.3879 53.1403 0.0000 0.0000 0.0000
# 2 30.3879 54.5227 18.0203 0.0000 0.0000 0.0000
# 3 53.1403 18.0203 121.5219 0.0000 0.0000 0.0000
# 4 0.0000 0.0000 0.0000 32.2726 0.0000 0.0000
# 5 0.0000 0.0000 0.0000 0.0000 6.7237 0.0000
# 6 0.0000 0.0000 0.0000 0.0000 0.0000 -3.0772
#
#
#
# Elastic Compliance Matrix: (Units=1/GPa)
#
#
# Indices 1 2 3 4 5 6 
#
# 1 0.008972 -0.003895 -0.003346 0.000000 0.000000 0.000000
# 2 -0.003895 0.020977 -0.001408 0.000000 0.000000 0.000000
# 3 -0.003346 -0.001408 0.009901 0.000000 0.000000 0.000000
# 4 0.000000 0.000000 0.000000 0.030986 0.000000 0.000000
# 5 0.000000 0.000000 0.000000 0.000000 0.148729 0.000000
# 6 0.000000 0.000000 0.000000 0.000000 0.000000 -0.324972
#
#
# Mechanical properties :
#
#
# Convention : Reuss Voigt Hill
#
# Bulk Modulus (GPa) = 44.33884 58.17911 51.25898
# Shear Modulus (GPa) = -62.03875 21.78156 -20.12859
#
# Velocity S-wave (km/s) = -5.54215 3.28391 -3.15684
# Velocity P-wave (km/s) = 4.35909 6.57139 3.47718
#
# Compressibility (1/GPa) = 0.02255359
#
# Stress axis : x y z
#
# Youngs Moduli (GPa) = 111.46223 47.67170 101.00248
#
# Poissons Ratio (x) = 0.18566 0.33792
# Poissons Ratio (y) = 0.43409 0.14217
# Poissons Ratio (z) = 0.37292 0.06710
#
# Static dielectric constant tensor:
#      x y z
#    x 1.777250 0.000000 0.000000 
#    y 0.000000 1.732590 0.000000 
#    z 0.000000 0.000000 1.784300 
# 
# From -- ./inp_files/17851.got.cif
#   From: 2010.05.17/outbox.cif.g08.bks.cpg/sg53_9_cif.got.tgz:17851.got - 2010.06.03 12:45:16.
