data_PCOD9415702
_publ_section_title
;
Structure prediction by ZEFSAII (Michael W. Deem and Ramdas Pophale) SiO2 
 PCOD9415702
Probable space group: P M N A
;
_chemical_formula_sum "Si O2"
_cell_formula_units_Z 60
_cell_length_a 13.463162
_cell_length_b 11.602980
_cell_length_c 23.256879
_cell_angle_alpha 90.000000
_cell_angle_beta 90.000000
_cell_angle_gamma 90.000000
_cell_volume 3633.022174
_symmetry_space_group_name_H-M "P M N A"
_symmetry_group_IT_number 53
_symmetry_cell_setting 'orthorhombic'
loop_
_space_group_symop_operation_xyz
x,y,z
1/2-x,-y,1/2+z
x,-y,-z
1/2-x,y,1/2-z
-x,-y,-z
1/2+x,y,1/2-z
-x,y,z
1/2+x,-y,1/2+z
loop_
_atom_site_type_symbol
_atom_site_label
_atom_site_fract_x
_atom_site_fract_y
_atom_site_fract_z
Si Si1 0.191817 0.378773 0.328715
Si Si2 0.884930 0.508798 0.783397
Si Si3 0.380146 0.254408 0.873056
Si Si4 0.120151 0.489541 0.566330
Si Si5 0.119876 0.022310 0.564211
Si Si6 0.250000 0.949674 0.250000
Si Si7 0.882994 0.248030 0.764064
Si Si8 0.880672 0.121555 0.326050
O O1 0.130161 0.458019 0.283729
O O2 0.305979 0.412164 0.316512
O O3 0.161171 0.410428 0.393010
O O4 0.163272 0.247790 0.315621
O O5 0.858860 0.373489 0.789748
O O6 0.000000 0.525802 0.798787
O O7 0.500000 0.253786 0.878190
O O8 0.345489 0.369711 0.904885
O O9 0.362722 0.254885 0.804757
O O10 0.343664 0.139610 0.905324
O O11 0.149852 0.500000 0.500000
O O12 0.000000 0.493666 0.568455
O O13 0.137226 0.917989 0.608252
O O14 0.000000 0.033872 0.559976
O O15 0.158052 0.000000 0.500000
O O16 0.322917 0.029386 0.212967
O O17 0.178649 0.861809 0.215028
O O18 0.000000 0.229510 0.771583
O O19 0.000000 0.119038 0.315791
#
# Coordination Sequence:
#
# PCOD9415702 Si02
#       8
#     8   8   8   8   8   4   8   8
#     4  11  21  34  52  75 104 139 175 209 258 317
#     4  10  20  35  54  77 103 134 171 217 266 311
#     4   9  16  30  48  69  98 132 166 204 254 301
#     4  10  20  31  49  77 107 136 168 214 264 313
#     4   9  18  31  47  67  97 136 169 198 242 298
#     4  12  20  32  50  72 104 138 174 208 252 298
#     4  10  19  32  52  76 103 132 166 213 258 302
#     4  11  23  35  49  73 107 141 173 209 248 303
#
# _framework density 16.515176
#
# number of rings (size 3 to 8) (size 9 to 14) (size 15 to 20)
#    0.000    1.867    2.667    3.200    1.867    0.000 
#    0.000    0.667    0.000    0.400    0.000    0.000 
#    0.000    2.667    0.000    0.000    0.000    0.000 
#
# Total GULP energy -334540.768068 kJ/mol
# GULP energy per Si atom -5575.679468 kJ/mol
# Density = 1.647759 g / cm^3
# Si number density = 16.515176 Si / 1000 Ang^3
#
#
#
# Elastic Constant Matrix: (Units=GPa)
#
#
# Indices 1 2 3 4 5 6 
#
# 1 88.8947 50.5640 25.1826 0.0000 0.0000 0.0000
# 2 50.5640 118.1870 18.6449 0.0000 0.0000 0.0000
# 3 25.1826 18.6449 55.5176 0.0000 0.0000 0.0000
# 4 0.0000 0.0000 0.0000 12.7639 0.0000 0.0000
# 5 0.0000 0.0000 0.0000 0.0000 13.3189 0.0000
# 6 0.0000 0.0000 0.0000 0.0000 0.0000 26.8018
#
#
#
# Elastic Compliance Matrix: (Units=1/GPa)
#
#
# Indices 1 2 3 4 5 6 
#
# 1 0.016226 -0.006104 -0.005310 0.000000 0.000000 0.000000
# 2 -0.006104 0.011231 -0.001003 0.000000 0.000000 0.000000
# 3 -0.005310 -0.001003 0.020758 0.000000 0.000000 0.000000
# 4 0.000000 0.000000 0.000000 0.078346 0.000000 0.000000
# 5 0.000000 0.000000 0.000000 0.000000 0.075081 0.000000
# 6 0.000000 0.000000 0.000000 0.000000 0.000000 0.037311
#
#
# Mechanical properties :
#
#
# Convention : Reuss Voigt Hill
#
# Bulk Modulus (GPa) = 42.77111 50.15358 46.46235
# Shear Modulus (GPa) = 18.41081 21.79077 20.10079
#
# Velocity S-wave (km/s) = 3.34246 3.63635 3.49250
# Velocity P-wave (km/s) = 6.39142 6.93288 6.66765
#
# Compressibility (1/GPa) = 0.02338027
#
# Stress axis : x y z
#
# Youngs Moduli (GPa) = 61.63128 89.03996 48.17495
#
# Poissons Ratio (x) = 0.54351 0.25580
# Poissons Ratio (y) = 0.37620 0.04832
# Poissons Ratio (z) = 0.32725 0.08930
#
# Static dielectric constant tensor:
#      x y z
#    x 1.563810 0.000000 0.000000 
#    y 0.000000 1.592900 0.000000 
#    z 0.000000 0.000000 1.551420 
# 
# From -- ./inp_files/32597.got.cif
#   From: 2010.05.17/outbox.cif.g08.bks.cpg/sg53_17_cif.got.tgz:32597.got - 2010.06.03 12:45:16.
